0
                    3D
 Structure written by MMmdl.
159167  0  0  1  0            999 V2000
  -30.6382  -14.5596   20.5567 C   0  0  0  0  0  0
  -30.4385  -12.3600   19.4226 C   0  0  0  0  0  0
  -29.4986  -12.5114   18.2070 C   0  0  0  0  0  0
  -28.0196  -12.3561   18.6203 C   0  0  0  0  0  0
  -27.6563  -13.2042   19.8683 C   0  0  2  0  0  0
  -28.7026  -13.0050   20.9879 C   0  0  0  0  0  0
  -25.2572  -13.8147   20.5681 C   0  0  0  0  0  0
  -24.1823  -13.0426   20.9184 C   0  0  0  0  0  0
  -24.6377  -11.6891   20.8739 C   0  0  0  0  0  0
  -23.9044  -10.4278   21.0393 C   0  0  0  0  0  0
  -24.3602   -9.4199   21.9174 C   0  0  0  0  0  0
  -23.6280   -8.2237   22.0746 C   0  0  0  0  0  0
  -22.4261   -8.0271   21.3544 C   0  0  0  0  0  0
  -21.9894   -9.0239   20.4645 C   0  0  0  0  0  0
  -22.7215  -10.2118   20.3045 C   0  0  0  0  0  0
  -21.6852   -6.0731   22.5280 C   0  0  0  0  0  0
  -21.4019   -6.5637   23.8212 C   0  0  0  0  0  0
  -21.3657   -5.6789   24.9172 C   0  0  0  0  0  0
  -21.6041   -4.3053   24.7224 C   0  0  0  0  0  0
  -21.8820   -3.8144   23.4348 C   0  0  0  0  0  0
  -21.9191   -4.6962   22.3406 C   0  0  0  0  0  0
  -22.7846  -13.5229   21.1844 C   0  0  0  0  0  0
  -22.1655   -4.2143   21.0986 F   0  0  0  0  0  0
  -21.5623   -3.4544   25.7743 F   0  0  0  0  0  0
  -30.0198  -13.3490   20.4296 N   0  0  0  0  0  0
  -26.2994  -12.9304   20.3335 N   0  0  0  0  0  0
  -25.9303  -11.6469   20.5753 N   0  0  0  0  0  0
  -22.0489  -12.8225   22.0410 N   0  0  0  0  0  0
  -25.4295  -15.1870   20.4093 N   0  0  0  0  0  0
  -31.7944  -14.7552   20.1693 O   0  0  0  0  0  0
  -21.6633   -6.8868   21.4236 O   0  0  0  0  0  0
  -22.3532  -14.5534   20.6684 O   0  0  0  0  0  0
  -24.6175  -31.8651   23.2037 C   0  0  0  0  0  0
  -25.9042  -32.4818   23.8365 C   0  0  1  0  0  0
  -27.2438  -27.4016   20.1110 C   0  0  0  0  0  0
  -25.5894  -33.8614   24.2316 N   0  0  0  0  0  0
  -23.4096  -30.4839   21.5459 C   0  0  2  0  0  0
  -24.8587  -28.9388   20.1163 C   0  0  0  0  0  0
  -22.7433  -29.4644   22.4985 C   0  0  0  0  0  0
  -18.0274  -28.1383   22.8480 C   0  0  0  0  0  0
  -24.1486  -36.7323   23.2638 C   0  0  0  0  0  0
  -25.9385  -30.8250   21.3539 C   0  0  0  0  0  0
  -26.0187  -29.4525   20.7087 C   0  0  0  0  0  0
  -27.2157  -28.6948   20.6929 C   0  0  0  0  0  0
  -26.0653  -26.9033   19.5182 C   0  0  0  0  0  0
  -24.8797  -27.6672   19.5138 C   0  0  0  0  0  0
  -23.6193  -29.8066   20.1630 C   0  0  0  0  0  0
  -25.4104  -36.3108   24.0339 C   0  0  1  0  0  0
  -20.5866  -28.3675   23.1318 C   0  0  2  0  0  0
  -20.6776  -26.9409   22.5424 C   0  0  0  0  0  0
  -19.5760  -26.6391   21.5216 C   0  0  0  0  0  0
  -18.1931  -26.7937   22.1608 C   0  0  0  0  0  0
  -19.1523  -28.8845   23.2895 C   0  0  0  0  0  0
  -18.9446  -30.1443   23.8918 C   0  0  0  0  0  0
  -17.6454  -30.6591   24.0559 C   0  0  0  0  0  0
  -25.9033  -34.9475   23.5130 C   0  0  0  0  0  0
  -16.5345  -29.9091   23.6316 C   0  0  0  0  0  0
  -16.7264  -28.6501   23.0342 C   0  0  0  0  0  0
  -26.4466  -31.6580   25.0691 C   0  0  0  0  0  0
  -25.3718  -31.3635   26.1421 C   0  0  0  0  0  0
  -27.0295  -30.3045   24.6017 C   0  0  0  0  0  0
  -27.6081  -32.4254   25.7426 C   0  0  0  0  0  0
  -27.5585  -37.1805   24.8470 C   0  0  0  0  0  0
  -21.4155  -29.3036   22.3723 N   0  0  0  0  0  0
  -26.4295  -37.3793   23.9415 N   0  0  0  0  0  0
  -24.6752  -31.0717   22.0949 N   0  0  0  0  0  0
  -23.4184  -28.8183   23.3048 O   0  0  0  0  0  0
  -28.4244  -26.6781   20.0811 O   0  0  0  0  0  0
  -26.5587  -34.8927   22.4688 O   0  0  0  0  0  0
  -23.5354  -32.1420   23.7412 O   0  0  0  0  0  0
  -30.6211  -18.4888   23.1259 C   0  0  0  0  0  0
  -30.4373  -19.5864   22.2606 C   0  0  0  0  0  0
  -30.4602  -17.1692   22.6579 C   0  0  0  0  0  0
  -29.8923  -18.0418   20.4514 C   0  0  0  0  0  0
  -30.0711  -19.3851   20.9115 C   0  0  0  0  0  0
  -30.1078  -16.9229   21.3136 C   0  0  0  0  0  0
  -27.6516  -21.3347   20.1342 C   0  0  0  0  0  0
  -30.0062  -20.6060   19.9574 C   0  0  0  0  0  0
  -28.4190  -24.2120   19.4587 C   0  0  0  0  0  0
  -29.4380  -23.0081   19.5662 C   0  0  0  0  0  0
  -28.4317  -25.3110   20.5658 C   0  0  0  0  0  0
  -29.8104  -15.5736   20.9215 N   0  0  0  0  0  0
  -29.0671  -21.7371   20.2970 N   0  3  1  0  0  0
  -31.4756  -12.5012   19.1148 H   0  0  0  0  0  0
  -30.3811  -11.3511   19.8362 H   0  0  0  0  0  0
  -29.7520  -11.7776   17.4406 H   0  0  0  0  0  0
  -29.6471  -13.4904   17.7504 H   0  0  0  0  0  0
  -27.8419  -11.3001   18.8275 H   0  0  0  0  0  0
  -27.3659  -12.6155   17.7868 H   0  0  0  0  0  0
  -27.6866  -14.2474   19.5541 H   0  0  0  0  0  0
  -28.7054  -11.9665   21.3242 H   0  0  0  0  0  0
  -28.4586  -13.5995   21.8705 H   0  0  0  0  0  0
  -25.2745   -9.5681   22.4742 H   0  0  0  0  0  0
  -23.9994   -7.4633   22.7464 H   0  0  0  0  0  0
  -21.0823   -8.8749   19.8959 H   0  0  0  0  0  0
  -22.3664  -10.9652   19.6152 H   0  0  0  0  0  0
  -21.2018   -7.6145   23.9715 H   0  0  0  0  0  0
  -21.1477   -6.0521   25.9073 H   0  0  0  0  0  0
  -22.0605   -2.7607   23.2853 H   0  0  0  0  0  0
  -22.4091  -11.9885   22.4811 H   0  0  0  0  0  0
  -21.1102  -13.1239   22.2600 H   0  0  0  0  0  0
  -24.6634  -15.8412   20.5274 H   0  0  0  0  0  0
  -26.2784  -15.6317   20.0847 H   0  0  0  0  0  0
  -26.7120  -32.5531   23.1134 H   0  0  0  0  0  0
  -25.0059  -33.9791   25.0474 H   0  0  0  0  0  0
  -22.7015  -31.3019   21.3981 H   0  0  0  0  0  0
  -23.3756  -35.9653   23.3299 H   0  0  0  0  0  0
  -24.3601  -36.8938   22.2057 H   0  0  0  0  0  0
  -23.7220  -37.6517   23.6661 H   0  0  0  0  0  0
  -26.0399  -31.5829   20.5755 H   0  0  0  0  0  0
  -26.8308  -30.8939   21.9641 H   0  0  0  0  0  0
  -28.1173  -29.0907   21.1385 H   0  0  0  0  0  0
  -26.0668  -25.9325   19.0440 H   0  0  0  0  0  0
  -23.9894  -27.2722   19.0448 H   0  0  0  0  0  0
  -23.7213  -30.5761   19.3967 H   0  0  0  0  0  0
  -22.7452  -29.2207   19.8727 H   0  0  0  0  0  0
  -25.1271  -36.1988   25.0832 H   0  0  0  0  0  0
  -20.9950  -28.3237   24.1443 H   0  0  0  0  0  0
  -20.5684  -26.2279   23.3607 H   0  0  0  0  0  0
  -21.6648  -26.7473   22.1214 H   0  0  0  0  0  0
  -19.6941  -25.6306   21.1238 H   0  0  0  0  0  0
  -19.6718  -27.3206   20.6751 H   0  0  0  0  0  0
  -17.4212  -26.6677   21.3994 H   0  0  0  0  0  0
  -18.0324  -26.0082   22.9003 H   0  0  0  0  0  0
  -19.7919  -30.7237   24.2329 H   0  0  0  0  0  0
  -17.5002  -31.6277   24.5143 H   0  0  0  0  0  0
  -15.5340  -30.2991   23.7643 H   0  0  0  0  0  0
  -15.8655  -28.0821   22.7066 H   0  0  0  0  0  0
  -24.5953  -30.6932   25.7718 H   0  0  0  0  0  0
  -24.8833  -32.2754   26.4873 H   0  0  0  0  0  0
  -25.8065  -30.8801   27.0178 H   0  0  0  0  0  0
  -26.2815  -29.6777   24.1151 H   0  0  0  0  0  0
  -27.4195  -29.7299   25.4420 H   0  0  0  0  0  0
  -27.8586  -30.4414   23.9066 H   0  0  0  0  0  0
  -27.2805  -33.3593   26.2001 H   0  0  0  0  0  0
  -28.3885  -32.6725   25.0217 H   0  0  0  0  0  0
  -28.0748  -31.8345   26.5313 H   0  0  0  0  0  0
  -28.2596  -38.0105   24.7530 H   0  0  0  0  0  0
  -28.1069  -36.2637   24.6272 H   0  0  0  0  0  0
  -27.2309  -37.1427   25.8871 H   0  0  0  0  0  0
  -20.9335  -29.8719   21.6901 H   0  0  0  0  0  0
  -26.0189  -38.2877   24.1407 H   0  0  0  0  0  0
  -30.8927  -18.6612   24.1588 H   0  0  0  0  0  0
  -30.6017  -20.5851   22.6417 H   0  0  0  0  0  0
  -30.5888  -16.3473   23.3488 H   0  0  0  0  0  0
  -29.6043  -17.8667   19.4232 H   0  0  0  0  0  0
  -27.4495  -20.3993   20.6561 H   0  0  0  0  0  0
  -27.4015  -21.1923   19.0822 H   0  0  0  0  0  0
  -26.9784  -22.0813   20.5543 H   0  0  0  0  0  0
  -29.7901  -20.2573   18.9463 H   0  0  0  0  0  0
  -31.0203  -21.0071   19.9138 H   0  0  0  0  0  0
  -27.4009  -23.8847   19.2580 H   0  0  0  0  0  0
  -28.7009  -24.7331   18.5430 H   0  0  0  0  0  0
  -30.3897  -23.3729   19.9570 H   0  0  0  0  0  0
  -29.6535  -22.7094   18.5393 H   0  0  0  0  0  0
  -29.3540  -25.2164   21.1392 H   0  0  0  0  0  0
  -27.6287  -25.1417   21.2851 H   0  0  0  0  0  0
  -28.8623  -15.2802   21.0950 H   0  0  0  0  0  0
  -29.1931  -21.9289   21.2784 H   0  0  0  0  0  0
  1 25  1  0  0  0
  1 30  2  0  0  0
  1 82  1  0  0  0
  2  3  1  0  0  0
  2 25  1  0  0  0
  2 84  1  0  0  0
  2 85  1  0  0  0
  3  4  1  0  0  0
  3 86  1  0  0  0
  3 87  1  0  0  0
  4  5  1  0  0  0
  4 88  1  0  0  0
  4 89  1  0  0  0
  5  6  1  0  0  0
  5 26  1  0  0  0
  5 90  1  0  0  0
  6 25  1  0  0  0
  6 91  1  0  0  0
  6 92  1  0  0  0
  7  8  2  0  0  0
  7 26  1  0  0  0
  7 29  1  0  0  0
  8  9  1  0  0  0
  8 22  1  0  0  0
  9 10  1  0  0  0
  9 27  2  0  0  0
 10 11  2  0  0  0
 10 15  1  0  0  0
 11 12  1  0  0  0
 11 93  1  0  0  0
 12 13  2  0  0  0
 12 94  1  0  0  0
 13 14  1  0  0  0
 13 31  1  0  0  0
 14 15  2  0  0  0
 14 95  1  0  0  0
 15 96  1  0  0  0
 16 17  2  0  0  0
 16 21  1  0  0  0
 16 31  1  0  0  0
 17 18  1  0  0  0
 17 97  1  0  0  0
 18 19  2  0  0  0
 18 98  1  0  0  0
 19 20  1  0  0  0
 19 24  1  0  0  0
 20 21  2  0  0  0
 20 99  1  0  0  0
 21 23  1  0  0  0
 22 28  1  0  0  0
 22 32  2  0  0  0
 26 27  1  0  0  0
 28100  1  0  0  0
 28101  1  0  0  0
 29102  1  0  0  0
 29103  1  0  0  0
 33 34  1  0  0  0
 33 66  1  0  0  0
 33 70  2  0  0  0
 34 36  1  0  0  0
 34 59  1  0  0  0
 34104  1  0  0  0
 35 44  2  0  0  0
 35 45  1  0  0  0
 35 68  1  0  0  0
 36 56  1  0  0  0
 36105  1  0  0  0
 37 39  1  0  0  0
 37 47  1  0  0  0
 37 66  1  0  0  0
 37106  1  0  0  0
 38 43  2  0  0  0
 38 46  1  0  0  0
 38 47  1  0  0  0
 39 64  1  0  0  0
 39 67  2  0  0  0
 40 52  1  0  0  0
 40 53  2  0  0  0
 40 58  1  0  0  0
 41107  1  0  0  0
 41108  1  0  0  0
 41109  1  0  0  0
 41 48  1  0  0  0
 42 43  1  0  0  0
 42 66  1  0  0  0
 42110  1  0  0  0
 42111  1  0  0  0
 43 44  1  0  0  0
 44112  1  0  0  0
 45 46  2  0  0  0
 45113  1  0  0  0
 46114  1  0  0  0
 47115  1  0  0  0
 47116  1  0  0  0
 48 56  1  0  0  0
 48 65  1  0  0  0
 48117  1  0  0  0
 49 50  1  0  0  0
 49 53  1  0  0  0
 49 64  1  0  0  0
 49118  1  0  0  0
 50 51  1  0  0  0
 50119  1  0  0  0
 50120  1  0  0  0
 51 52  1  0  0  0
 51121  1  0  0  0
 51122  1  0  0  0
 52123  1  0  0  0
 52124  1  0  0  0
 53 54  1  0  0  0
 54 55  2  0  0  0
 54125  1  0  0  0
 55 57  1  0  0  0
 55126  1  0  0  0
 56 69  2  0  0  0
 57 58  2  0  0  0
 57127  1  0  0  0
 58128  1  0  0  0
 59 60  1  0  0  0
 59 61  1  0  0  0
 59 62  1  0  0  0
 60129  1  0  0  0
 60130  1  0  0  0
 60131  1  0  0  0
 61132  1  0  0  0
 61133  1  0  0  0
 61134  1  0  0  0
 62135  1  0  0  0
 62136  1  0  0  0
 62137  1  0  0  0
 63 65  1  0  0  0
 63138  1  0  0  0
 63139  1  0  0  0
 63140  1  0  0  0
 64141  1  0  0  0
 65142  1  0  0  0
 68 81  1  0  0  0
 71 72  2  0  0  0
 71 73  1  0  0  0
 71143  1  0  0  0
 72 75  1  0  0  0
 72144  1  0  0  0
 73 76  2  0  0  0
 73145  1  0  0  0
 74 75  2  0  0  0
 74 76  1  0  0  0
 74146  1  0  0  0
 75 78  1  0  0  0
 76 82  1  0  0  0
 77147  1  0  0  0
 77148  1  0  0  0
 77149  1  0  0  0
 77 83  1  0  0  0
 78 83  1  0  0  0
 78150  1  0  0  0
 78151  1  0  0  0
 79 80  1  0  0  0
 79 81  1  0  0  0
 79152  1  0  0  0
 79153  1  0  0  0
 80 83  1  0  0  0
 80154  1  0  0  0
 80155  1  0  0  0
 81156  1  0  0  0
 81157  1  0  0  0
 82158  1  0  0  0
 83159  1  0  0  0
M  CHG  1  83   1
M  ISO  4   1 100  68 101  81 101  82 100
M  END
> <chiral flag>
0

> <version>
0

> <s_m_source_file>
/data/baiqing/PycharmProjects/Reinvent-master-3.2/result/LINK_invent/BTK/process_docking_weight1_custom_product_contain_oxygen_bond_distance_aromatic_linkinvent_7_9_3/rearranged_h_0020.sdf

> <i_m_source_file_index>
1

> <r_mmod_Potential_Energy-OPLS-2005>
-110.506134033203

> <r_mmod_Stretch_Energy-OPLS-2005>
52.4333229064941

> <r_mmod_Bend_Energy-OPLS-2005>
124.485054016113

> <r_mmod_Torsional_Energy-OPLS-2005>
269.557495117188

> <r_mmod_Improper_Torsional_Energy-OPLS-2005>
6.56660842895508

> <r_mmod_Van_der_Waal_Energy-OPLS-2005>
140.084213256836

> <r_mmod_Electrostatic_Energy-OPLS-2005>
-265.61083984375

> <r_mmod_Solvation_Energy-OPLS-2005>
-460.304290771484

> <b_mmod_Minimization_Converged-OPLS-2005>
0

> <r_mmod_RMS_Derivative-OPLS-2005>
2.0980486869812

$$$$
1
                    3D
 Structure written by MMmdl.
163172  0  0  1  0            999 V2000
  -30.6041  -14.6712   20.4897 C   0  0  0  0  0  0
  -30.4423  -12.4078   19.4590 C   0  0  0  0  0  0
  -29.5106  -12.5108   18.2293 C   0  0  0  0  0  0
  -28.0329  -12.3482   18.6386 C   0  0  0  0  0  0
  -27.6535  -13.2195   19.8663 C   0  0  2  0  0  0
  -28.6999  -13.0788   20.9959 C   0  0  0  0  0  0
  -25.2557  -13.8169   20.5689 C   0  0  0  0  0  0
  -24.1816  -13.0428   20.9151 C   0  0  0  0  0  0
  -24.6388  -11.6903   20.8725 C   0  0  0  0  0  0
  -23.9055  -10.4286   21.0393 C   0  0  0  0  0  0
  -24.3610   -9.4208   21.9175 C   0  0  0  0  0  0
  -23.6284   -8.2246   22.0751 C   0  0  0  0  0  0
  -22.4269   -8.0271   21.3525 C   0  0  0  0  0  0
  -21.9892   -9.0256   20.4645 C   0  0  0  0  0  0
  -22.7217  -10.2139   20.3049 C   0  0  0  0  0  0
  -21.6854   -6.0733   22.5269 C   0  0  0  0  0  0
  -21.4026   -6.5643   23.8202 C   0  0  0  0  0  0
  -21.3663   -5.6802   24.9167 C   0  0  0  0  0  0
  -21.6046   -4.3068   24.7216 C   0  0  0  0  0  0
  -21.8817   -3.8142   23.4346 C   0  0  0  0  0  0
  -21.9190   -4.6954   22.3404 C   0  0  0  0  0  0
  -22.7840  -13.5231   21.1827 C   0  0  0  0  0  0
  -22.1654   -4.2139   21.0982 F   0  0  0  0  0  0
  -21.5621   -3.4552   25.7732 F   0  0  0  0  0  0
  -30.0143  -13.4314   20.4339 N   0  0  0  0  0  0
  -26.2997  -12.9355   20.3345 N   0  0  0  0  0  0
  -25.9329  -11.6509   20.5771 N   0  0  0  0  0  0
  -22.0498  -12.8234   22.0404 N   0  0  0  0  0  0
  -25.4281  -15.1892   20.4202 N   0  0  0  0  0  0
  -31.7589  -14.8478   20.0883 O   0  0  0  0  0  0
  -21.6634   -6.8868   21.4224 O   0  0  0  0  0  0
  -22.3521  -14.5543   20.6690 O   0  0  0  0  0  0
  -24.6264  -31.8578   23.2009 C   0  0  0  0  0  0
  -25.9107  -32.4766   23.8344 C   0  0  1  0  0  0
  -27.2324  -27.3095   20.1174 C   0  0  0  0  0  0
  -25.5916  -33.8571   24.2258 N   0  0  0  0  0  0
  -23.4217  -30.4794   21.5431 C   0  0  2  0  0  0
  -24.8701  -28.9293   20.1127 C   0  0  0  0  0  0
  -22.7480  -29.4612   22.4931 C   0  0  0  0  0  0
  -18.0291  -28.1382   22.8493 C   0  0  0  0  0  0
  -24.1494  -36.7304   23.2630 C   0  0  0  0  0  0
  -25.9642  -30.7831   21.3766 C   0  0  0  0  0  0
  -26.0384  -29.4102   20.7166 C   0  0  0  0  0  0
  -27.2216  -28.6129   20.7062 C   0  0  0  0  0  0
  -26.0384  -26.8777   19.4958 C   0  0  0  0  0  0
  -24.8725  -27.6689   19.4941 C   0  0  0  0  0  0
  -23.6383  -29.8111   20.1597 C   0  0  0  0  0  0
  -25.4114  -36.3077   24.0319 C   0  0  1  0  0  0
  -20.5892  -28.3692   23.1281 C   0  0  2  0  0  0
  -20.6781  -26.9417   22.5406 C   0  0  0  0  0  0
  -19.5756  -26.6384   21.5211 C   0  0  0  0  0  0
  -18.1940  -26.7925   22.1637 C   0  0  0  0  0  0
  -19.1544  -28.8857   23.2884 C   0  0  0  0  0  0
  -18.9463  -30.1458   23.8896 C   0  0  0  0  0  0
  -17.6462  -30.6587   24.0565 C   0  0  0  0  0  0
  -25.9052  -34.9444   23.5090 C   0  0  0  0  0  0
  -16.5355  -29.9083   23.6331 C   0  0  0  0  0  0
  -16.7279  -28.6502   23.0354 C   0  0  0  0  0  0
  -26.4490  -31.6597   25.0733 C   0  0  0  0  0  0
  -25.3740  -31.3801   26.1495 C   0  0  0  0  0  0
  -27.0307  -30.2990   24.6230 C   0  0  0  0  0  0
  -27.6067  -32.4338   25.7472 C   0  0  0  0  0  0
  -27.5597  -37.1785   24.8441 C   0  0  0  0  0  0
  -21.4195  -29.3040   22.3674 N   0  0  0  0  0  0
  -26.4286  -37.3777   23.9417 N   0  0  0  0  0  0
  -24.6889  -31.0579   22.0962 N   0  0  0  0  0  0
  -23.4202  -28.8153   23.3020 O   0  0  0  0  0  0
  -28.3661  -26.4804   20.1517 O   0  0  0  0  0  0
  -26.5629  -34.8910   22.4662 O   0  0  0  0  0  0
  -23.5422  -32.1392   23.7323 O   0  0  0  0  0  0
  -30.5522  -19.3700   19.8435 C   0  0  0  0  0  0
  -30.7517  -17.9638   20.0561 C   0  0  0  0  0  0
  -28.3704  -19.2263   20.8295 C   0  0  0  0  0  0
  -29.3493  -20.0471   20.2091 C   0  0  0  0  0  0
  -29.7488  -17.1491   20.6531 C   0  0  0  0  0  0
  -28.5658  -17.8304   21.0445 C   0  0  0  0  0  0
  -29.1403  -23.8440   22.8824 C   0  0  0  0  0  0
  -29.9747  -24.6545   21.8801 C   0  0  0  0  0  0
  -28.8224  -22.5198   22.1674 C   0  0  0  0  0  0
  -29.5178  -24.1495   20.4969 C   0  0  2  0  0  0
  -30.6147  -24.4022   19.4428 C   0  0  0  0  0  0
  -29.0436  -21.5585   19.8246 C   0  0  0  0  0  0
  -28.2108  -24.9986   20.1052 C   0  0  0  0  0  0
  -29.7858  -15.6985   20.8841 N   0  0  0  0  0  0
  -29.4033  -22.6486   20.8154 N   0  3  2  0  0  0
  -27.5713  -17.1106   21.6174 F   0  0  0  0  0  0
  -31.4826  -12.5387   19.1570 H   0  0  0  0  0  0
  -30.3832  -11.4136   19.9068 H   0  0  0  0  0  0
  -29.7775  -11.7543   17.4902 H   0  0  0  0  0  0
  -29.6511  -13.4768   17.7411 H   0  0  0  0  0  0
  -27.8689  -11.2950   18.8675 H   0  0  0  0  0  0
  -27.3801  -12.5793   17.7958 H   0  0  0  0  0  0
  -27.6673  -14.2547   19.5249 H   0  0  0  0  0  0
  -28.7168  -12.0571   21.3779 H   0  0  0  0  0  0
  -28.4397  -13.7081   21.8488 H   0  0  0  0  0  0
  -25.2763   -9.5699   22.4742 H   0  0  0  0  0  0
  -23.9989   -7.4655   22.7497 H   0  0  0  0  0  0
  -21.0805   -8.8795   19.8970 H   0  0  0  0  0  0
  -22.3668  -10.9690   19.6170 H   0  0  0  0  0  0
  -21.2033   -7.6155   23.9708 H   0  0  0  0  0  0
  -21.1485   -6.0531   25.9075 H   0  0  0  0  0  0
  -22.0591   -2.7596   23.2852 H   0  0  0  0  0  0
  -22.4110  -11.9890   22.4792 H   0  0  0  0  0  0
  -21.1127  -13.1277   22.2638 H   0  0  0  0  0  0
  -24.6781  -15.8470   20.6008 H   0  0  0  0  0  0
  -26.3138  -15.6461   20.2463 H   0  0  0  0  0  0
  -26.7179  -32.5433   23.1095 H   0  0  0  0  0  0
  -25.0047  -33.9708   25.0394 H   0  0  0  0  0  0
  -22.7155  -31.2995   21.3970 H   0  0  0  0  0  0
  -23.3749  -35.9639   23.3237 H   0  0  0  0  0  0
  -24.3602  -36.8982   22.2057 H   0  0  0  0  0  0
  -23.7238  -37.6483   23.6691 H   0  0  0  0  0  0
  -26.1062  -31.5484   20.6125 H   0  0  0  0  0  0
  -26.8389  -30.8243   22.0139 H   0  0  0  0  0  0
  -28.1193  -28.9790   21.1845 H   0  0  0  0  0  0
  -25.9832  -25.9171   19.0056 H   0  0  0  0  0  0
  -23.9768  -27.2955   19.0158 H   0  0  0  0  0  0
  -23.7597  -30.5863   19.4026 H   0  0  0  0  0  0
  -22.7581  -29.2420   19.8553 H   0  0  0  0  0  0
  -25.1289  -36.1918   25.0810 H   0  0  0  0  0  0
  -20.9984  -28.3263   24.1404 H   0  0  0  0  0  0
  -20.5691  -26.2299   23.3603 H   0  0  0  0  0  0
  -21.6646  -26.7456   22.1186 H   0  0  0  0  0  0
  -19.6915  -25.6296   21.1232 H   0  0  0  0  0  0
  -19.6681  -27.3201   20.6743 H   0  0  0  0  0  0
  -17.4201  -26.6659   21.4049 H   0  0  0  0  0  0
  -18.0361  -26.0072   22.9046 H   0  0  0  0  0  0
  -19.7935  -30.7277   24.2263 H   0  0  0  0  0  0
  -17.5012  -31.6261   24.5168 H   0  0  0  0  0  0
  -15.5352  -30.2984   23.7643 H   0  0  0  0  0  0
  -15.8684  -28.0812   22.7074 H   0  0  0  0  0  0
  -24.5785  -30.7306   25.7831 H   0  0  0  0  0  0
  -24.9118  -32.3026   26.5025 H   0  0  0  0  0  0
  -25.8045  -30.8852   27.0208 H   0  0  0  0  0  0
  -26.2880  -29.6755   24.1241 H   0  0  0  0  0  0
  -27.3938  -29.7249   25.4764 H   0  0  0  0  0  0
  -27.8793  -30.4225   23.9500 H   0  0  0  0  0  0
  -27.2688  -33.3659   26.2016 H   0  0  0  0  0  0
  -28.3875  -32.6864   25.0288 H   0  0  0  0  0  0
  -28.0732  -31.8495   26.5412 H   0  0  0  0  0  0
  -28.2550  -38.0146   24.7559 H   0  0  0  0  0  0
  -28.1154  -36.2676   24.6156 H   0  0  0  0  0  0
  -27.2334  -37.1296   25.8844 H   0  0  0  0  0  0
  -20.9373  -29.8773   21.6892 H   0  0  0  0  0  0
  -26.0159  -38.2838   24.1454 H   0  0  0  0  0  0
  -31.3372  -19.9274   19.3502 H   0  0  0  0  0  0
  -31.6803  -17.5145   19.7329 H   0  0  0  0  0  0
  -27.4229  -19.6577   21.1178 H   0  0  0  0  0  0
  -28.2150  -24.3701   23.1209 H   0  0  0  0  0  0
  -29.6729  -23.6906   23.8214 H   0  0  0  0  0  0
  -31.0307  -24.4247   22.0367 H   0  0  0  0  0  0
  -29.8701  -25.7314   22.0195 H   0  0  0  0  0  0
  -27.7447  -22.3586   22.1119 H   0  0  0  0  0  0
  -29.2614  -21.6674   22.6874 H   0  0  0  0  0  0
  -30.8440  -25.4660   19.3676 H   0  0  0  0  0  0
  -30.3025  -24.0733   18.4507 H   0  0  0  0  0  0
  -31.5466  -23.8907   19.6858 H   0  0  0  0  0  0
  -27.9838  -21.6488   19.5822 H   0  0  0  0  0  0
  -29.5697  -21.7638   18.8920 H   0  0  0  0  0  0
  -27.3944  -24.7225   20.7733 H   0  0  0  0  0  0
  -27.8942  -24.7055   19.1038 H   0  0  0  0  0  0
  -28.9227  -15.3597   21.2806 H   0  0  0  0  0  0
  -30.3692  -22.4134   20.9880 H   0  0  0  0  0  0
  1 25  1  0  0  0
  1 30  2  0  0  0
  1 84  1  0  0  0
  2  3  1  0  0  0
  2 25  1  0  0  0
  2 87  1  0  0  0
  2 88  1  0  0  0
  3  4  1  0  0  0
  3 89  1  0  0  0
  3 90  1  0  0  0
  4  5  1  0  0  0
  4 91  1  0  0  0
  4 92  1  0  0  0
  5  6  1  0  0  0
  5 26  1  0  0  0
  5 93  1  0  0  0
  6 25  1  0  0  0
  6 94  1  0  0  0
  6 95  1  0  0  0
  7  8  2  0  0  0
  7 26  1  0  0  0
  7 29  1  0  0  0
  8  9  1  0  0  0
  8 22  1  0  0  0
  9 10  1  0  0  0
  9 27  2  0  0  0
 10 11  2  0  0  0
 10 15  1  0  0  0
 11 12  1  0  0  0
 11 96  1  0  0  0
 12 13  2  0  0  0
 12 97  1  0  0  0
 13 14  1  0  0  0
 13 31  1  0  0  0
 14 15  2  0  0  0
 14 98  1  0  0  0
 15 99  1  0  0  0
 16 17  2  0  0  0
 16 21  1  0  0  0
 16 31  1  0  0  0
 17 18  1  0  0  0
 17100  1  0  0  0
 18 19  2  0  0  0
 18101  1  0  0  0
 19 20  1  0  0  0
 19 24  1  0  0  0
 20 21  2  0  0  0
 20102  1  0  0  0
 21 23  1  0  0  0
 22 28  1  0  0  0
 22 32  2  0  0  0
 26 27  1  0  0  0
 28103  1  0  0  0
 28104  1  0  0  0
 29105  1  0  0  0
 29106  1  0  0  0
 33 34  1  0  0  0
 33 66  1  0  0  0
 33 70  2  0  0  0
 34 36  1  0  0  0
 34 59  1  0  0  0
 34107  1  0  0  0
 35 44  2  0  0  0
 35 45  1  0  0  0
 35 68  1  0  0  0
 36 56  1  0  0  0
 36108  1  0  0  0
 37 39  1  0  0  0
 37 47  1  0  0  0
 37 66  1  0  0  0
 37109  1  0  0  0
 38 43  2  0  0  0
 38 46  1  0  0  0
 38 47  1  0  0  0
 39 64  1  0  0  0
 39 67  2  0  0  0
 40 52  1  0  0  0
 40 53  2  0  0  0
 40 58  1  0  0  0
 41110  1  0  0  0
 41111  1  0  0  0
 41112  1  0  0  0
 41 48  1  0  0  0
 42 43  1  0  0  0
 42 66  1  0  0  0
 42113  1  0  0  0
 42114  1  0  0  0
 43 44  1  0  0  0
 44115  1  0  0  0
 45 46  2  0  0  0
 45116  1  0  0  0
 46117  1  0  0  0
 47118  1  0  0  0
 47119  1  0  0  0
 48 56  1  0  0  0
 48 65  1  0  0  0
 48120  1  0  0  0
 49 50  1  0  0  0
 49 53  1  0  0  0
 49 64  1  0  0  0
 49121  1  0  0  0
 50 51  1  0  0  0
 50122  1  0  0  0
 50123  1  0  0  0
 51 52  1  0  0  0
 51124  1  0  0  0
 51125  1  0  0  0
 52126  1  0  0  0
 52127  1  0  0  0
 53 54  1  0  0  0
 54 55  2  0  0  0
 54128  1  0  0  0
 55 57  1  0  0  0
 55129  1  0  0  0
 56 69  2  0  0  0
 57 58  2  0  0  0
 57130  1  0  0  0
 58131  1  0  0  0
 59 60  1  0  0  0
 59 61  1  0  0  0
 59 62  1  0  0  0
 60132  1  0  0  0
 60133  1  0  0  0
 60134  1  0  0  0
 61135  1  0  0  0
 61136  1  0  0  0
 61137  1  0  0  0
 62138  1  0  0  0
 62139  1  0  0  0
 62140  1  0  0  0
 63 65  1  0  0  0
 63141  1  0  0  0
 63142  1  0  0  0
 63143  1  0  0  0
 64144  1  0  0  0
 65145  1  0  0  0
 68 83  1  0  0  0
 71 72  2  0  0  0
 71 74  1  0  0  0
 71146  1  0  0  0
 72 75  1  0  0  0
 72147  1  0  0  0
 73 74  2  0  0  0
 73 76  1  0  0  0
 73148  1  0  0  0
 74 82  1  0  0  0
 75 76  2  0  0  0
 75 84  1  0  0  0
 76 86  1  0  0  0
 77 78  1  0  0  0
 77 79  1  0  0  0
 77149  1  0  0  0
 77150  1  0  0  0
 78 80  1  0  0  0
 78151  1  0  0  0
 78152  1  0  0  0
 79 85  1  0  0  0
 79153  1  0  0  0
 79154  1  0  0  0
 80 81  1  0  0  0
 80 83  1  0  0  0
 80 85  1  0  0  0
 81155  1  0  0  0
 81156  1  0  0  0
 81157  1  0  0  0
 82158  1  0  0  0
 82159  1  0  0  0
 82 85  1  0  0  0
 83160  1  0  0  0
 83161  1  0  0  0
 84162  1  0  0  0
 85163  1  0  0  0
M  CHG  1  85   1
M  ISO  4   1 100  68 101  83 101  84 100
M  END
> <chiral flag>
0

> <version>
0

> <s_m_source_file>
/data/baiqing/PycharmProjects/Reinvent-master-3.2/result/LINK_invent/BTK/process_docking_weight1_custom_product_contain_oxygen_bond_distance_aromatic_linkinvent_7_9_3/rearranged_h_0020.sdf

> <i_m_source_file_index>
2

> <r_mmod_Potential_Energy-OPLS-2005>
84.4130096435547

> <r_mmod_Stretch_Energy-OPLS-2005>
90.5551528930664

> <r_mmod_Bend_Energy-OPLS-2005>
202.734405517578

> <r_mmod_Torsional_Energy-OPLS-2005>
277.325439453125

> <r_mmod_Improper_Torsional_Energy-OPLS-2005>
4.22316122055054

> <r_mmod_Van_der_Waal_Energy-OPLS-2005>
129.393112182617

> <r_mmod_Electrostatic_Energy-OPLS-2005>
-251.918472290039

> <r_mmod_Solvation_Energy-OPLS-2005>
-422.361877441406

> <b_mmod_Minimization_Converged-OPLS-2005>
0

> <r_mmod_RMS_Derivative-OPLS-2005>
1.8059915304184

$$$$
2
                    3D
 Structure written by MMmdl.
170178  0  0  1  0            999 V2000
  -30.7776  -14.3504   20.7022 C   0  0  0  0  0  0
  -30.4127  -12.2914   19.3890 C   0  0  0  0  0  0
  -29.4793  -12.5280   18.1882 C   0  0  0  0  0  0
  -28.0050  -12.3783   18.6059 C   0  0  0  0  0  0
  -27.6642  -13.1970   19.8783 C   0  0  2  0  0  0
  -28.7025  -12.9305   20.9903 C   0  0  0  0  0  0
  -25.2601  -13.8143   20.5668 C   0  0  0  0  0  0
  -24.1843  -13.0432   20.9162 C   0  0  0  0  0  0
  -24.6381  -11.6891   20.8722 C   0  0  0  0  0  0
  -23.9046  -10.4285   21.0397 C   0  0  0  0  0  0
  -24.3599   -9.4207   21.9183 C   0  0  0  0  0  0
  -23.6275   -8.2239   22.0761 C   0  0  0  0  0  0
  -22.4260   -8.0272   21.3547 C   0  0  0  0  0  0
  -21.9890   -9.0241   20.4644 C   0  0  0  0  0  0
  -22.7216  -10.2121   20.3052 C   0  0  0  0  0  0
  -21.6848   -6.0726   22.5276 C   0  0  0  0  0  0
  -21.4007   -6.5632   23.8206 C   0  0  0  0  0  0
  -21.3668   -5.6789   24.9171 C   0  0  0  0  0  0
  -21.6052   -4.3052   24.7224 C   0  0  0  0  0  0
  -21.8823   -3.8141   23.4345 C   0  0  0  0  0  0
  -21.9187   -4.6955   22.3399 C   0  0  0  0  0  0
  -22.7867  -13.5235   21.1829 C   0  0  0  0  0  0
  -22.1658   -4.2139   21.0976 F   0  0  0  0  0  0
  -21.5633   -3.4538   25.7742 F   0  0  0  0  0  0
  -30.0440  -13.2313   20.4577 N   0  0  0  0  0  0
  -26.3030  -12.9292   20.3366 N   0  0  0  0  0  0
  -25.9305  -11.6462   20.5748 N   0  0  0  0  0  0
  -22.0499  -12.8231   22.0379 N   0  0  0  0  0  0
  -25.4333  -15.1858   20.4070 N   0  0  0  0  0  0
  -31.7955  -14.6358   20.0602 O   0  0  0  0  0  0
  -21.6631   -6.8866   21.4237 O   0  0  0  0  0  0
  -22.3560  -14.5550   20.6683 O   0  0  0  0  0  0
  -24.6104  -31.8698   23.2128 C   0  0  0  0  0  0
  -25.9016  -32.4824   23.8402 C   0  0  1  0  0  0
  -27.2355  -27.4637   20.0795 C   0  0  0  0  0  0
  -25.5896  -33.8627   24.2340 N   0  0  0  0  0  0
  -23.3946  -30.4953   21.5533 C   0  0  2  0  0  0
  -24.8368  -28.9606   20.1201 C   0  0  0  0  0  0
  -22.7368  -29.4675   22.5009 C   0  0  0  0  0  0
  -18.0264  -28.1358   22.8500 C   0  0  0  0  0  0
  -24.1483  -36.7325   23.2634 C   0  0  0  0  0  0
  -25.9196  -30.8424   21.3613 C   0  0  0  0  0  0
  -25.9939  -29.4775   20.7128 C   0  0  0  0  0  0
  -27.1906  -28.7336   20.6918 C   0  0  0  0  0  0
  -26.0557  -26.9517   19.4866 C   0  0  0  0  0  0
  -24.8601  -27.6942   19.5114 C   0  0  0  0  0  0
  -23.5996  -29.8257   20.1685 C   0  0  0  0  0  0
  -25.4099  -36.3114   24.0332 C   0  0  1  0  0  0
  -20.5847  -28.3645   23.1323 C   0  0  2  0  0  0
  -20.6753  -26.9387   22.5414 C   0  0  0  0  0  0
  -19.5738  -26.6383   21.5203 C   0  0  0  0  0  0
  -18.1915  -26.7912   22.1617 C   0  0  0  0  0  0
  -19.1511  -28.8816   23.2916 C   0  0  0  0  0  0
  -18.9449  -30.1426   23.8920 C   0  0  0  0  0  0
  -17.6455  -30.6577   24.0560 C   0  0  0  0  0  0
  -25.9031  -34.9479   23.5132 C   0  0  0  0  0  0
  -16.5342  -29.9082   23.6319 C   0  0  0  0  0  0
  -16.7254  -28.6493   23.0344 C   0  0  0  0  0  0
  -26.4468  -31.6593   25.0715 C   0  0  0  0  0  0
  -25.3749  -31.3672   26.1468 C   0  0  0  0  0  0
  -27.0308  -30.3046   24.6065 C   0  0  0  0  0  0
  -27.6044  -32.4305   25.7483 C   0  0  0  0  0  0
  -27.5578  -37.1808   24.8458 C   0  0  0  0  0  0
  -21.4103  -29.3029   22.3739 N   0  0  0  0  0  0
  -26.4287  -37.3794   23.9409 N   0  0  0  0  0  0
  -24.6599  -31.0822   22.1021 N   0  0  0  0  0  0
  -23.4158  -28.8208   23.3026 O   0  0  0  0  0  0
  -28.4583  -26.8316   20.0666 O   0  0  0  0  0  0
  -26.5591  -34.8922   22.4691 O   0  0  0  0  0  0
  -23.5307  -32.1439   23.7551 O   0  0  0  0  0  0
  -30.4449  -17.8617   20.5199 C   0  0  0  0  0  0
  -30.8879  -19.1904   20.3871 C   0  0  0  0  0  0
  -30.0455  -19.6963   22.6113 C   0  0  0  0  0  0
  -29.8094  -17.4373   21.7052 C   0  0  0  0  0  0
  -30.6987  -20.1210   21.4321 C   0  0  0  0  0  0
  -29.6055  -18.3655   22.7493 C   0  0  0  0  0  0
  -34.9545  -21.9511   21.6464 C   0  0  0  0  0  0
  -31.5314  -15.2944   22.8052 C   0  0  0  0  0  0
  -29.3633  -15.9876   21.8527 C   0  0  0  0  0  0
  -33.5028  -21.7245   22.0782 C   0  0  0  0  0  0
  -29.7534  -23.3430   20.5586 C   0  0  0  0  0  0
  -32.5516  -21.6561   20.8750 C   0  0  0  0  0  0
  -30.3529  -22.5694   21.7440 C   0  0  0  0  0  0
  -28.5974  -25.4522   19.7365 C   0  0  0  0  0  0
  -29.1662  -24.7060   20.9545 C   0  0  0  0  0  0
  -31.1672  -21.4405   21.2906 N   0  0  0  0  0  0
  -30.4686  -15.0158   21.8354 N   0  0  0  0  0  0
  -29.0000  -17.9800   23.8983 F   0  0  0  0  0  0
  -28.1974  -24.5291   21.8542 F   0  0  0  0  0  0
  -30.1401  -25.4393   21.4982 F   0  0  0  0  0  0
  -31.4559  -12.3917   19.0839 H   0  0  0  0  0  0
  -30.3126  -11.2671   19.7513 H   0  0  0  0  0  0
  -29.7126  -11.8252   17.3867 H   0  0  0  0  0  0
  -29.6474  -13.5257   17.7793 H   0  0  0  0  0  0
  -27.8135  -11.3191   18.7824 H   0  0  0  0  0  0
  -27.3514  -12.6728   17.7837 H   0  0  0  0  0  0
  -27.7209  -14.2496   19.6027 H   0  0  0  0  0  0
  -28.6673  -11.8823   21.2909 H   0  0  0  0  0  0
  -28.4511  -13.4867   21.8927 H   0  0  0  0  0  0
  -25.2742   -9.5678   22.4756 H   0  0  0  0  0  0
  -23.9980   -7.4635   22.7489 H   0  0  0  0  0  0
  -21.0823   -8.8751   19.8946 H   0  0  0  0  0  0
  -22.3675  -10.9654   19.6155 H   0  0  0  0  0  0
  -21.1996   -7.6141   23.9703 H   0  0  0  0  0  0
  -21.1494   -6.0523   25.9074 H   0  0  0  0  0  0
  -22.0596   -2.7603   23.2848 H   0  0  0  0  0  0
  -22.4105  -11.9883   22.4754 H   0  0  0  0  0  0
  -21.1123  -13.1271   22.2590 H   0  0  0  0  0  0
  -24.6648  -15.8396   20.5128 H   0  0  0  0  0  0
  -26.2829  -15.6236   20.0743 H   0  0  0  0  0  0
  -26.7081  -32.5547   23.1165 H   0  0  0  0  0  0
  -25.0031  -33.9796   25.0471 H   0  0  0  0  0  0
  -22.6828  -31.3116   21.4150 H   0  0  0  0  0  0
  -23.3740  -35.9666   23.3297 H   0  0  0  0  0  0
  -24.3580  -36.8947   22.2051 H   0  0  0  0  0  0
  -23.7250  -37.6529   23.6655 H   0  0  0  0  0  0
  -26.0225  -31.6060   20.5888 H   0  0  0  0  0  0
  -26.8116  -30.8991   21.9739 H   0  0  0  0  0  0
  -28.0888  -29.1350   21.1400 H   0  0  0  0  0  0
  -26.0239  -26.0024   18.9768 H   0  0  0  0  0  0
  -23.9686  -27.2921   19.0503 H   0  0  0  0  0  0
  -23.7053  -30.5990   19.4067 H   0  0  0  0  0  0
  -22.7243  -29.2433   19.8749 H   0  0  0  0  0  0
  -25.1273  -36.1974   25.0823 H   0  0  0  0  0  0
  -20.9946  -28.3213   24.1437 H   0  0  0  0  0  0
  -20.5647  -26.2253   23.3594 H   0  0  0  0  0  0
  -21.6623  -26.7428   22.1203 H   0  0  0  0  0  0
  -19.6897  -25.6304   21.1207 H   0  0  0  0  0  0
  -19.6674  -27.3212   20.6747 H   0  0  0  0  0  0
  -17.4180  -26.6664   21.4020 H   0  0  0  0  0  0
  -18.0320  -26.0034   22.8996 H   0  0  0  0  0  0
  -19.7931  -30.7226   24.2303 H   0  0  0  0  0  0
  -17.5018  -31.6262   24.5158 H   0  0  0  0  0  0
  -15.5346  -30.2992   23.7638 H   0  0  0  0  0  0
  -15.8653  -28.0829   22.7037 H   0  0  0  0  0  0
  -24.5936  -30.7003   25.7804 H   0  0  0  0  0  0
  -24.8917  -32.2813   26.4925 H   0  0  0  0  0  0
  -25.8112  -30.8840   27.0220 H   0  0  0  0  0  0
  -26.2849  -29.6792   24.1146 H   0  0  0  0  0  0
  -27.4132  -29.7283   25.4501 H   0  0  0  0  0  0
  -27.8652  -30.4378   23.9173 H   0  0  0  0  0  0
  -27.2673  -33.3604   26.2072 H   0  0  0  0  0  0
  -28.3856  -32.6864   25.0315 H   0  0  0  0  0  0
  -28.0708  -31.8419   26.5391 H   0  0  0  0  0  0
  -28.2570  -38.0129   24.7524 H   0  0  0  0  0  0
  -28.1100  -36.2657   24.6257 H   0  0  0  0  0  0
  -27.2300  -37.1424   25.8862 H   0  0  0  0  0  0
  -20.9246  -29.8780   21.6996 H   0  0  0  0  0  0
  -26.0176  -38.2866   24.1429 H   0  0  0  0  0  0
  -30.6024  -17.1703   19.7048 H   0  0  0  0  0  0
  -31.3646  -19.4870   19.4637 H   0  0  0  0  0  0
  -29.8986  -20.3732   23.4390 H   0  0  0  0  0  0
  -35.6139  -22.0107   22.5126 H   0  0  0  0  0  0
  -35.0587  -22.8801   21.0845 H   0  0  0  0  0  0
  -35.3071  -21.1358   21.0140 H   0  0  0  0  0  0
  -31.1389  -15.7719   23.7037 H   0  0  0  0  0  0
  -32.2896  -15.9534   22.3785 H   0  0  0  0  0  0
  -32.0212  -14.3690   23.1125 H   0  0  0  0  0  0
  -28.7977  -15.8520   22.7750 H   0  0  0  0  0  0
  -28.6542  -15.7891   21.0487 H   0  0  0  0  0  0
  -33.2018  -22.5281   22.7514 H   0  0  0  0  0  0
  -33.4391  -20.7999   22.6541 H   0  0  0  0  0  0
  -28.9822  -22.7361   20.0830 H   0  0  0  0  0  0
  -30.5200  -23.5080   19.8011 H   0  0  0  0  0  0
  -32.8869  -20.8774   20.1896 H   0  0  0  0  0  0
  -32.6138  -22.5903   20.3147 H   0  0  0  0  0  0
  -29.5439  -22.2569   22.4033 H   0  0  0  0  0  0
  -30.9811  -23.2360   22.3361 H   0  0  0  0  0  0
  -27.7030  -24.9435   19.3894 H   0  0  0  0  0  0
  -29.3095  -25.4070   18.9117 H   0  0  0  0  0  0
  1 25  1  0  0  0
  1 30  2  0  0  0
  1 87  1  0  0  0
  2  3  1  0  0  0
  2 25  1  0  0  0
  2 91  1  0  0  0
  2 92  1  0  0  0
  3  4  1  0  0  0
  3 93  1  0  0  0
  3 94  1  0  0  0
  4  5  1  0  0  0
  4 95  1  0  0  0
  4 96  1  0  0  0
  5  6  1  0  0  0
  5 26  1  0  0  0
  5 97  1  0  0  0
  6 25  1  0  0  0
  6 98  1  0  0  0
  6 99  1  0  0  0
  7  8  2  0  0  0
  7 26  1  0  0  0
  7 29  1  0  0  0
  8  9  1  0  0  0
  8 22  1  0  0  0
  9 10  1  0  0  0
  9 27  2  0  0  0
 10 11  2  0  0  0
 10 15  1  0  0  0
 11 12  1  0  0  0
 11100  1  0  0  0
 12 13  2  0  0  0
 12101  1  0  0  0
 13 14  1  0  0  0
 13 31  1  0  0  0
 14 15  2  0  0  0
 14102  1  0  0  0
 15103  1  0  0  0
 16 17  2  0  0  0
 16 21  1  0  0  0
 16 31  1  0  0  0
 17 18  1  0  0  0
 17104  1  0  0  0
 18 19  2  0  0  0
 18105  1  0  0  0
 19 20  1  0  0  0
 19 24  1  0  0  0
 20 21  2  0  0  0
 20106  1  0  0  0
 21 23  1  0  0  0
 22 28  1  0  0  0
 22 32  2  0  0  0
 26 27  1  0  0  0
 28107  1  0  0  0
 28108  1  0  0  0
 29109  1  0  0  0
 29110  1  0  0  0
 33 34  1  0  0  0
 33 66  1  0  0  0
 33 70  2  0  0  0
 34 36  1  0  0  0
 34 59  1  0  0  0
 34111  1  0  0  0
 35 44  2  0  0  0
 35 45  1  0  0  0
 35 68  1  0  0  0
 36 56  1  0  0  0
 36112  1  0  0  0
 37 39  1  0  0  0
 37 47  1  0  0  0
 37 66  1  0  0  0
 37113  1  0  0  0
 38 43  2  0  0  0
 38 46  1  0  0  0
 38 47  1  0  0  0
 39 64  1  0  0  0
 39 67  2  0  0  0
 40 52  1  0  0  0
 40 53  2  0  0  0
 40 58  1  0  0  0
 41114  1  0  0  0
 41115  1  0  0  0
 41116  1  0  0  0
 41 48  1  0  0  0
 42 43  1  0  0  0
 42 66  1  0  0  0
 42117  1  0  0  0
 42118  1  0  0  0
 43 44  1  0  0  0
 44119  1  0  0  0
 45 46  2  0  0  0
 45120  1  0  0  0
 46121  1  0  0  0
 47122  1  0  0  0
 47123  1  0  0  0
 48 56  1  0  0  0
 48 65  1  0  0  0
 48124  1  0  0  0
 49 50  1  0  0  0
 49 53  1  0  0  0
 49 64  1  0  0  0
 49125  1  0  0  0
 50 51  1  0  0  0
 50126  1  0  0  0
 50127  1  0  0  0
 51 52  1  0  0  0
 51128  1  0  0  0
 51129  1  0  0  0
 52130  1  0  0  0
 52131  1  0  0  0
 53 54  1  0  0  0
 54 55  2  0  0  0
 54132  1  0  0  0
 55 57  1  0  0  0
 55133  1  0  0  0
 56 69  2  0  0  0
 57 58  2  0  0  0
 57134  1  0  0  0
 58135  1  0  0  0
 59 60  1  0  0  0
 59 61  1  0  0  0
 59 62  1  0  0  0
 60136  1  0  0  0
 60137  1  0  0  0
 60138  1  0  0  0
 61139  1  0  0  0
 61140  1  0  0  0
 61141  1  0  0  0
 62142  1  0  0  0
 62143  1  0  0  0
 62144  1  0  0  0
 63 65  1  0  0  0
 63145  1  0  0  0
 63146  1  0  0  0
 63147  1  0  0  0
 64148  1  0  0  0
 65149  1  0  0  0
 68 84  1  0  0  0
 71 72  2  0  0  0
 71 74  1  0  0  0
 71150  1  0  0  0
 72 75  1  0  0  0
 72151  1  0  0  0
 73 75  2  0  0  0
 73 76  1  0  0  0
 73152  1  0  0  0
 74 76  2  0  0  0
 74 79  1  0  0  0
 75 86  1  0  0  0
 76 88  1  0  0  0
 77 80  1  0  0  0
 77153  1  0  0  0
 77154  1  0  0  0
 77155  1  0  0  0
 78 87  1  0  0  0
 78156  1  0  0  0
 78157  1  0  0  0
 78158  1  0  0  0
 79 87  1  0  0  0
 79159  1  0  0  0
 79160  1  0  0  0
 80 82  1  0  0  0
 80161  1  0  0  0
 80162  1  0  0  0
 81 83  1  0  0  0
 81 85  1  0  0  0
 81163  1  0  0  0
 81164  1  0  0  0
 82 86  1  0  0  0
 82165  1  0  0  0
 82166  1  0  0  0
 83 86  1  0  0  0
 83167  1  0  0  0
 83168  1  0  0  0
 84 85  1  0  0  0
 84169  1  0  0  0
 84170  1  0  0  0
 85 89  1  0  0  0
 85 90  1  0  0  0
M  ISO  4   1 100  68 101  84 101  87 100
M  END
> <chiral flag>
0

> <version>
0

> <s_m_source_file>
/data/baiqing/PycharmProjects/Reinvent-master-3.2/result/LINK_invent/BTK/process_docking_weight1_custom_product_contain_oxygen_bond_distance_aromatic_linkinvent_7_9_3/rearranged_h_0020.sdf

> <i_m_source_file_index>
3

> <r_mmod_Potential_Energy-OPLS-2005>
113.738838195801

> <r_mmod_Stretch_Energy-OPLS-2005>
33.4988288879395

> <r_mmod_Bend_Energy-OPLS-2005>
115.560195922852

> <r_mmod_Torsional_Energy-OPLS-2005>
273.763610839844

> <r_mmod_Improper_Torsional_Energy-OPLS-2005>
7.08703422546387

> <r_mmod_Van_der_Waal_Energy-OPLS-2005>
159.41633605957

> <r_mmod_Electrostatic_Energy-OPLS-2005>
-296.497894287109

> <r_mmod_Solvation_Energy-OPLS-2005>
-187.549163818359

> <b_mmod_Minimization_Converged-OPLS-2005>
0

> <r_mmod_RMS_Derivative-OPLS-2005>
1.26345682144165

$$$$
3
                    3D
 Structure written by MMmdl.
165173  0  0  1  0            999 V2000
  -30.7765  -14.3905   20.6995 C   0  0  0  0  0  0
  -30.4115  -12.3039   19.4123 C   0  0  0  0  0  0
  -29.4907  -12.5324   18.2010 C   0  0  0  0  0  0
  -28.0139  -12.3784   18.6094 C   0  0  0  0  0  0
  -27.6623  -13.2074   19.8720 C   0  0  2  0  0  0
  -28.6954  -12.9775   20.9937 C   0  0  0  0  0  0
  -25.2594  -13.8172   20.5664 C   0  0  0  0  0  0
  -24.1842  -13.0455   20.9160 C   0  0  0  0  0  0
  -24.6385  -11.6919   20.8720 C   0  0  0  0  0  0
  -23.9051  -10.4303   21.0391 C   0  0  0  0  0  0
  -24.3607   -9.4230   21.9178 C   0  0  0  0  0  0
  -23.6292   -8.2261   22.0755 C   0  0  0  0  0  0
  -22.4279   -8.0283   21.3539 C   0  0  0  0  0  0
  -21.9913   -9.0256   20.4638 C   0  0  0  0  0  0
  -22.7226  -10.2141   20.3039 C   0  0  0  0  0  0
  -21.6855   -6.0746   22.5292 C   0  0  0  0  0  0
  -21.4017   -6.5652   23.8225 C   0  0  0  0  0  0
  -21.3660   -5.6800   24.9188 C   0  0  0  0  0  0
  -21.6044   -4.3062   24.7237 C   0  0  0  0  0  0
  -21.8821   -3.8157   23.4352 C   0  0  0  0  0  0
  -21.9190   -4.6971   22.3411 C   0  0  0  0  0  0
  -22.7865  -13.5247   21.1845 C   0  0  0  0  0  0
  -22.1654   -4.2161   21.0988 F   0  0  0  0  0  0
  -21.5634   -3.4532   25.7737 F   0  0  0  0  0  0
  -30.0419  -13.2638   20.4651 N   0  0  0  0  0  0
  -26.3021  -12.9337   20.3320 N   0  0  0  0  0  0
  -25.9305  -11.6497   20.5713 N   0  0  0  0  0  0
  -22.0498  -12.8228   22.0384 N   0  0  0  0  0  0
  -25.4345  -15.1891   20.4093 N   0  0  0  0  0  0
  -31.7789  -14.6745   20.0334 O   0  0  0  0  0  0
  -21.6629   -6.8884   21.4245 O   0  0  0  0  0  0
  -22.3558  -14.5563   20.6699 O   0  0  0  0  0  0
  -24.6147  -31.8661   23.2099 C   0  0  0  0  0  0
  -25.9035  -32.4810   23.8405 C   0  0  1  0  0  0
  -27.2406  -27.4371   20.0964 C   0  0  0  0  0  0
  -25.5893  -33.8610   24.2329 N   0  0  0  0  0  0
  -23.4040  -30.4862   21.5503 C   0  0  2  0  0  0
  -24.8511  -28.9413   20.1268 C   0  0  0  0  0  0
  -22.7411  -29.4642   22.5009 C   0  0  0  0  0  0
  -18.0261  -28.1387   22.8494 C   0  0  0  0  0  0
  -24.1485  -36.7316   23.2641 C   0  0  0  0  0  0
  -25.9315  -30.8300   21.3620 C   0  0  0  0  0  0
  -26.0105  -29.4603   20.7183 C   0  0  0  0  0  0
  -27.2104  -28.7137   20.7005 C   0  0  0  0  0  0
  -26.0672  -26.9228   19.5112 C   0  0  0  0  0  0
  -24.8714  -27.6684   19.5271 C   0  0  0  0  0  0
  -23.6133  -29.8082   20.1692 C   0  0  0  0  0  0
  -25.4105  -36.3103   24.0337 C   0  0  1  0  0  0
  -20.5849  -28.3667   23.1326 C   0  0  2  0  0  0
  -20.6742  -26.9394   22.5436 C   0  0  0  0  0  0
  -19.5730  -26.6386   21.5217 C   0  0  0  0  0  0
  -18.1900  -26.7937   22.1615 C   0  0  0  0  0  0
  -19.1513  -28.8843   23.2898 C   0  0  0  0  0  0
  -18.9437  -30.1450   23.8904 C   0  0  0  0  0  0
  -17.6440  -30.6591   24.0568 C   0  0  0  0  0  0
  -25.9033  -34.9469   23.5134 C   0  0  0  0  0  0
  -16.5325  -29.9091   23.6326 C   0  0  0  0  0  0
  -16.7246  -28.6508   23.0353 C   0  0  0  0  0  0
  -26.4470  -31.6588   25.0733 C   0  0  0  0  0  0
  -25.3747  -31.3631   26.1478 C   0  0  0  0  0  0
  -27.0330  -30.3053   24.6098 C   0  0  0  0  0  0
  -27.6030  -32.4327   25.7507 C   0  0  0  0  0  0
  -27.5582  -37.1801   24.8452 C   0  0  0  0  0  0
  -21.4137  -29.3028   22.3736 N   0  0  0  0  0  0
  -26.4281  -37.3796   23.9417 N   0  0  0  0  0  0
  -24.6682  -31.0757   22.0993 N   0  0  0  0  0  0
  -23.4174  -28.8186   23.3059 O   0  0  0  0  0  0
  -28.4153  -26.7304   19.9949 O   0  0  0  0  0  0
  -26.5600  -34.8914   22.4698 O   0  0  0  0  0  0
  -23.5336  -32.1407   23.7490 O   0  0  0  0  0  0
  -29.6455  -18.6724   22.9077 C   0  0  0  0  0  0
  -30.2336  -18.7704   20.5605 C   0  0  0  0  0  0
  -29.7965  -17.2722   22.8896 C   0  0  0  0  0  0
  -30.3592  -17.3593   20.5371 C   0  0  0  0  0  0
  -29.8921  -19.4448   21.7540 C   0  0  0  0  0  0
  -30.1867  -16.5793   21.7152 C   0  0  0  0  0  0
  -26.7788  -21.2500   22.1065 C   0  0  0  0  0  0
  -30.6112  -14.5199   23.0887 C   0  0  0  0  0  0
  -29.9237  -20.9782   21.8765 C   0  0  0  0  0  0
  -28.4370  -24.2858   20.4794 C   0  0  0  0  0  0
  -27.6422  -21.2641   20.8297 C   0  0  0  0  0  0
  -29.0776  -23.2427   21.4368 C   0  0  0  0  0  0
  -28.6585  -25.7333   20.9890 C   0  0  0  0  0  0
  -30.4122  -15.1457   21.7689 N   0  0  0  0  0  0
  -29.0203  -21.8034   21.0149 N   0  3  1  0  0  0
  -31.4584  -12.3897   19.1167 H   0  0  0  0  0  0
  -30.2964  -11.2857   19.7889 H   0  0  0  0  0  0
  -29.7354  -11.8317   17.4015 H   0  0  0  0  0  0
  -29.6605  -13.5318   17.7970 H   0  0  0  0  0  0
  -27.8243  -11.3206   18.7946 H   0  0  0  0  0  0
  -27.3629  -12.6611   17.7810 H   0  0  0  0  0  0
  -27.7157  -14.2584   19.5881 H   0  0  0  0  0  0
  -28.6576  -11.9448   21.3436 H   0  0  0  0  0  0
  -28.4268  -13.5893   21.8545 H   0  0  0  0  0  0
  -25.2751   -9.5728   22.4756 H   0  0  0  0  0  0
  -24.0016   -7.4662   22.7480 H   0  0  0  0  0  0
  -21.0856   -8.8760   19.8930 H   0  0  0  0  0  0
  -22.3675  -10.9677   19.6149 H   0  0  0  0  0  0
  -21.2003   -7.6157   23.9744 H   0  0  0  0  0  0
  -21.1479   -6.0517   25.9098 H   0  0  0  0  0  0
  -22.0592   -2.7621   23.2845 H   0  0  0  0  0  0
  -22.4094  -11.9868   22.4755 H   0  0  0  0  0  0
  -21.1114  -13.1253   22.2571 H   0  0  0  0  0  0
  -24.6781  -15.8533   20.5291 H   0  0  0  0  0  0
  -26.3028  -15.6234   20.1224 H   0  0  0  0  0  0
  -26.7102  -32.5541   23.1169 H   0  0  0  0  0  0
  -25.0052  -33.9764   25.0478 H   0  0  0  0  0  0
  -22.6934  -31.3035   21.4058 H   0  0  0  0  0  0
  -23.3760  -35.9632   23.3260 H   0  0  0  0  0  0
  -24.3582  -36.8993   22.2066 H   0  0  0  0  0  0
  -23.7219  -37.6492   23.6700 H   0  0  0  0  0  0
  -26.0399  -31.5888   20.5862 H   0  0  0  0  0  0
  -26.8223  -30.8906   21.9759 H   0  0  0  0  0  0
  -28.1148  -29.1161   21.1344 H   0  0  0  0  0  0
  -26.0817  -25.9544   19.0306 H   0  0  0  0  0  0
  -23.9772  -27.2622   19.0740 H   0  0  0  0  0  0
  -23.7220  -30.5765   19.4027 H   0  0  0  0  0  0
  -22.7381  -29.2236   19.8781 H   0  0  0  0  0  0
  -25.1264  -36.1964   25.0824 H   0  0  0  0  0  0
  -20.9934  -28.3238   24.1451 H   0  0  0  0  0  0
  -20.5649  -26.2263   23.3620 H   0  0  0  0  0  0
  -21.6616  -26.7442   22.1241 H   0  0  0  0  0  0
  -19.6892  -25.6308   21.1228 H   0  0  0  0  0  0
  -19.6677  -27.3207   20.6758 H   0  0  0  0  0  0
  -17.4192  -26.6724   21.3993 H   0  0  0  0  0  0
  -18.0260  -26.0064   22.8990 H   0  0  0  0  0  0
  -19.7911  -30.7259   24.2285 H   0  0  0  0  0  0
  -17.4995  -31.6273   24.5179 H   0  0  0  0  0  0
  -15.5329  -30.2995   23.7645 H   0  0  0  0  0  0
  -15.8650  -28.0824   22.7065 H   0  0  0  0  0  0
  -24.5999  -30.6876   25.7823 H   0  0  0  0  0  0
  -24.8823  -32.2739   26.4890 H   0  0  0  0  0  0
  -25.8151  -30.8877   27.0255 H   0  0  0  0  0  0
  -26.2874  -29.6798   24.1181 H   0  0  0  0  0  0
  -27.4141  -29.7297   25.4542 H   0  0  0  0  0  0
  -27.8678  -30.4390   23.9218 H   0  0  0  0  0  0
  -27.2634  -33.3634   26.2063 H   0  0  0  0  0  0
  -28.3844  -32.6889   25.0339 H   0  0  0  0  0  0
  -28.0691  -31.8472   26.5440 H   0  0  0  0  0  0
  -28.2550  -38.0146   24.7575 H   0  0  0  0  0  0
  -28.1135  -36.2683   24.6204 H   0  0  0  0  0  0
  -27.2312  -37.1355   25.8852 H   0  0  0  0  0  0
  -20.9310  -29.8749   21.6948 H   0  0  0  0  0  0
  -26.0172  -38.2863   24.1478 H   0  0  0  0  0  0
  -29.3919  -19.1538   23.8425 H   0  0  0  0  0  0
  -30.4408  -19.3303   19.6590 H   0  0  0  0  0  0
  -29.6290  -16.7530   23.8215 H   0  0  0  0  0  0
  -30.6453  -16.9021   19.6002 H   0  0  0  0  0  0
  -25.7891  -20.8513   21.8805 H   0  0  0  0  0  0
  -26.6318  -22.2484   22.5168 H   0  0  0  0  0  0
  -27.2112  -20.6204   22.8828 H   0  0  0  0  0  0
  -31.4069  -15.0324   23.6324 H   0  0  0  0  0  0
  -30.8983  -13.4671   23.0340 H   0  0  0  0  0  0
  -29.7001  -14.5610   23.6854 H   0  0  0  0  0  0
  -30.9537  -21.2946   21.7045 H   0  0  0  0  0  0
  -29.7150  -21.2300   22.9174 H   0  0  0  0  0  0
  -27.3660  -24.1120   20.3738 H   0  0  0  0  0  0
  -28.8714  -24.1799   19.4854 H   0  0  0  0  0  0
  -27.1330  -21.8478   20.0617 H   0  0  0  0  0  0
  -27.6950  -20.2552   20.4190 H   0  0  0  0  0  0
  -28.6455  -23.3505   22.4319 H   0  0  0  0  0  0
  -30.1292  -23.5099   21.5510 H   0  0  0  0  0  0
  -29.7049  -25.8502   21.2755 H   0  0  0  0  0  0
  -28.0799  -25.9134   21.8964 H   0  0  0  0  0  0
  -29.4422  -21.7635   20.0983 H   0  0  0  0  0  0
  1 25  1  0  0  0
  1 30  2  0  0  0
  1 84  1  0  0  0
  2  3  1  0  0  0
  2 25  1  0  0  0
  2 86  1  0  0  0
  2 87  1  0  0  0
  3  4  1  0  0  0
  3 88  1  0  0  0
  3 89  1  0  0  0
  4  5  1  0  0  0
  4 90  1  0  0  0
  4 91  1  0  0  0
  5  6  1  0  0  0
  5 26  1  0  0  0
  5 92  1  0  0  0
  6 25  1  0  0  0
  6 93  1  0  0  0
  6 94  1  0  0  0
  7  8  2  0  0  0
  7 26  1  0  0  0
  7 29  1  0  0  0
  8  9  1  0  0  0
  8 22  1  0  0  0
  9 10  1  0  0  0
  9 27  2  0  0  0
 10 11  2  0  0  0
 10 15  1  0  0  0
 11 12  1  0  0  0
 11 95  1  0  0  0
 12 13  2  0  0  0
 12 96  1  0  0  0
 13 14  1  0  0  0
 13 31  1  0  0  0
 14 15  2  0  0  0
 14 97  1  0  0  0
 15 98  1  0  0  0
 16 17  2  0  0  0
 16 21  1  0  0  0
 16 31  1  0  0  0
 17 18  1  0  0  0
 17 99  1  0  0  0
 18 19  2  0  0  0
 18100  1  0  0  0
 19 20  1  0  0  0
 19 24  1  0  0  0
 20 21  2  0  0  0
 20101  1  0  0  0
 21 23  1  0  0  0
 22 28  1  0  0  0
 22 32  2  0  0  0
 26 27  1  0  0  0
 28102  1  0  0  0
 28103  1  0  0  0
 29104  1  0  0  0
 29105  1  0  0  0
 33 34  1  0  0  0
 33 66  1  0  0  0
 33 70  2  0  0  0
 34 36  1  0  0  0
 34 59  1  0  0  0
 34106  1  0  0  0
 35 44  2  0  0  0
 35 45  1  0  0  0
 35 68  1  0  0  0
 36 56  1  0  0  0
 36107  1  0  0  0
 37 39  1  0  0  0
 37 47  1  0  0  0
 37 66  1  0  0  0
 37108  1  0  0  0
 38 43  2  0  0  0
 38 46  1  0  0  0
 38 47  1  0  0  0
 39 64  1  0  0  0
 39 67  2  0  0  0
 40 52  1  0  0  0
 40 53  2  0  0  0
 40 58  1  0  0  0
 41109  1  0  0  0
 41110  1  0  0  0
 41111  1  0  0  0
 41 48  1  0  0  0
 42 43  1  0  0  0
 42 66  1  0  0  0
 42112  1  0  0  0
 42113  1  0  0  0
 43 44  1  0  0  0
 44114  1  0  0  0
 45 46  2  0  0  0
 45115  1  0  0  0
 46116  1  0  0  0
 47117  1  0  0  0
 47118  1  0  0  0
 48 56  1  0  0  0
 48 65  1  0  0  0
 48119  1  0  0  0
 49 50  1  0  0  0
 49 53  1  0  0  0
 49 64  1  0  0  0
 49120  1  0  0  0
 50 51  1  0  0  0
 50121  1  0  0  0
 50122  1  0  0  0
 51 52  1  0  0  0
 51123  1  0  0  0
 51124  1  0  0  0
 52125  1  0  0  0
 52126  1  0  0  0
 53 54  1  0  0  0
 54 55  2  0  0  0
 54127  1  0  0  0
 55 57  1  0  0  0
 55128  1  0  0  0
 56 69  2  0  0  0
 57 58  2  0  0  0
 57129  1  0  0  0
 58130  1  0  0  0
 59 60  1  0  0  0
 59 61  1  0  0  0
 59 62  1  0  0  0
 60131  1  0  0  0
 60132  1  0  0  0
 60133  1  0  0  0
 61134  1  0  0  0
 61135  1  0  0  0
 61136  1  0  0  0
 62137  1  0  0  0
 62138  1  0  0  0
 62139  1  0  0  0
 63 65  1  0  0  0
 63140  1  0  0  0
 63141  1  0  0  0
 63142  1  0  0  0
 64143  1  0  0  0
 65144  1  0  0  0
 68 83  1  0  0  0
 71 73  2  0  0  0
 71 75  1  0  0  0
 71145  1  0  0  0
 72 74  1  0  0  0
 72 75  2  0  0  0
 72146  1  0  0  0
 73 76  1  0  0  0
 73147  1  0  0  0
 74 76  2  0  0  0
 74148  1  0  0  0
 75 79  1  0  0  0
 76 84  1  0  0  0
 77 81  1  0  0  0
 77149  1  0  0  0
 77150  1  0  0  0
 77151  1  0  0  0
 78 84  1  0  0  0
 78152  1  0  0  0
 78153  1  0  0  0
 78154  1  0  0  0
 79155  1  0  0  0
 79156  1  0  0  0
 79 85  1  0  0  0
 80 82  1  0  0  0
 80 83  1  0  0  0
 80157  1  0  0  0
 80158  1  0  0  0
 81 85  1  0  0  0
 81159  1  0  0  0
 81160  1  0  0  0
 82 85  1  0  0  0
 82161  1  0  0  0
 82162  1  0  0  0
 83163  1  0  0  0
 83164  1  0  0  0
 85165  1  0  0  0
M  CHG  1  85   1
M  ISO  4   1 100  68 101  83 101  84 100
M  END
> <chiral flag>
0

> <version>
0

> <s_m_source_file>
/data/baiqing/PycharmProjects/Reinvent-master-3.2/result/LINK_invent/BTK/process_docking_weight1_custom_product_contain_oxygen_bond_distance_aromatic_linkinvent_7_9_3/rearranged_h_0020.sdf

> <i_m_source_file_index>
4

> <r_mmod_Potential_Energy-OPLS-2005>
21.5486125946045

> <r_mmod_Stretch_Energy-OPLS-2005>
44.4041862487793

> <r_mmod_Bend_Energy-OPLS-2005>
112.405479431152

> <r_mmod_Torsional_Energy-OPLS-2005>
303.601959228516

> <r_mmod_Improper_Torsional_Energy-OPLS-2005>
3.45942687988281

> <r_mmod_Van_der_Waal_Energy-OPLS-2005>
158.06169128418

> <r_mmod_Electrostatic_Energy-OPLS-2005>
-180.16943359375

> <r_mmod_Solvation_Energy-OPLS-2005>
-428.273468017578

> <b_mmod_Minimization_Converged-OPLS-2005>
0

> <r_mmod_RMS_Derivative-OPLS-2005>
2.12927913665771

$$$$
4
                    3D
 Structure written by MMmdl.
178187  0  0  1  0            999 V2000
  -30.7959  -14.3659   20.6735 C   0  0  0  0  0  0
  -30.4072  -12.2926   19.3973 C   0  0  0  0  0  0
  -29.4809  -12.5169   18.1891 C   0  0  0  0  0  0
  -28.0061  -12.3716   18.6072 C   0  0  0  0  0  0
  -27.6626  -13.2072   19.8694 C   0  0  2  0  0  0
  -28.7031  -12.9778   20.9883 C   0  0  0  0  0  0
  -25.2668  -13.8171   20.5860 C   0  0  0  0  0  0
  -24.1864  -13.0452   20.9190 C   0  0  0  0  0  0
  -24.6375  -11.6905   20.8651 C   0  0  0  0  0  0
  -23.9047  -10.4294   21.0351 C   0  0  0  0  0  0
  -24.3608   -9.4230   21.9150 C   0  0  0  0  0  0
  -23.6293   -8.2261   22.0745 C   0  0  0  0  0  0
  -22.4273   -8.0289   21.3548 C   0  0  0  0  0  0
  -21.9888   -9.0248   20.4645 C   0  0  0  0  0  0
  -22.7202  -10.2137   20.3031 C   0  0  0  0  0  0
  -21.6858   -6.0743   22.5280 C   0  0  0  0  0  0
  -21.4019   -6.5638   23.8214 C   0  0  0  0  0  0
  -21.3654   -5.6789   24.9176 C   0  0  0  0  0  0
  -21.6037   -4.3052   24.7219 C   0  0  0  0  0  0
  -21.8816   -3.8149   23.4338 C   0  0  0  0  0  0
  -21.9197   -4.6973   22.3399 C   0  0  0  0  0  0
  -22.7891  -13.5275   21.1830 C   0  0  0  0  0  0
  -22.1669   -4.2154   21.0981 F   0  0  0  0  0  0
  -21.5628   -3.4535   25.7730 F   0  0  0  0  0  0
  -30.0424  -13.2569   20.4468 N   0  0  0  0  0  0
  -26.3033  -12.9332   20.3319 N   0  0  0  0  0  0
  -25.9306  -11.6502   20.5687 N   0  0  0  0  0  0
  -22.0505  -12.8285   22.0366 N   0  0  0  0  0  0
  -25.4645  -15.1924   20.4834 N   0  0  0  0  0  0
  -31.8379  -14.6033   20.0540 O   0  0  0  0  0  0
  -21.6643   -6.8884   21.4243 O   0  0  0  0  0  0
  -22.3638  -14.5608   20.6682 O   0  0  0  0  0  0
  -24.6171  -31.8705   23.2136 C   0  0  0  0  0  0
  -25.9056  -32.4831   23.8427 C   0  0  1  0  0  0
  -27.2179  -27.4354   20.0842 C   0  0  0  0  0  0
  -25.5907  -33.8633   24.2338 N   0  0  0  0  0  0
  -23.4014  -30.5022   21.5552 C   0  0  2  0  0  0
  -24.8433  -28.9851   20.1064 C   0  0  0  0  0  0
  -22.7413  -29.4697   22.4984 C   0  0  0  0  0  0
  -18.0283  -28.1395   22.8497 C   0  0  0  0  0  0
  -24.1488  -36.7320   23.2639 C   0  0  0  0  0  0
  -25.9349  -30.8377   21.3676 C   0  0  0  0  0  0
  -26.0083  -29.4772   20.7075 C   0  0  0  0  0  0
  -27.1995  -28.7109   20.6973 C   0  0  0  0  0  0
  -26.0324  -26.9861   19.4450 C   0  0  0  0  0  0
  -24.8501  -27.7372   19.4710 C   0  0  0  0  0  0
  -23.6061  -29.8484   20.1650 C   0  0  0  0  0  0
  -25.4109  -36.3114   24.0336 C   0  0  1  0  0  0
  -20.5873  -28.3671   23.1330 C   0  0  2  0  0  0
  -20.6783  -26.9411   22.5420 C   0  0  0  0  0  0
  -19.5754  -26.6397   21.5223 C   0  0  0  0  0  0
  -18.1933  -26.7941   22.1625 C   0  0  0  0  0  0
  -19.1529  -28.8851   23.2911 C   0  0  0  0  0  0
  -18.9444  -30.1470   23.8914 C   0  0  0  0  0  0
  -17.6442  -30.6595   24.0587 C   0  0  0  0  0  0
  -25.9031  -34.9484   23.5120 C   0  0  0  0  0  0
  -16.5341  -29.9093   23.6345 C   0  0  0  0  0  0
  -16.7271  -28.6516   23.0346 C   0  0  0  0  0  0
  -26.4493  -31.6600   25.0738 C   0  0  0  0  0  0
  -25.3761  -31.3702   26.1479 C   0  0  0  0  0  0
  -27.0319  -30.3047   24.6095 C   0  0  0  0  0  0
  -27.6073  -32.4324   25.7494 C   0  0  0  0  0  0
  -27.5590  -37.1815   24.8467 C   0  0  0  0  0  0
  -21.4136  -29.3040   22.3729 N   0  0  0  0  0  0
  -26.4298  -37.3793   23.9413 N   0  0  0  0  0  0
  -24.6697  -31.0826   22.1034 N   0  0  0  0  0  0
  -23.4192  -28.8221   23.3003 O   0  0  0  0  0  0
  -28.3528  -26.6381   20.1489 O   0  0  0  0  0  0
  -26.5581  -34.8926   22.4682 O   0  0  0  0  0  0
  -23.5355  -32.1460   23.7522 O   0  0  0  0  0  0
  -29.6790  -18.5431   20.2367 C   0  0  0  0  0  0
  -30.1906  -17.2470   20.4157 C   0  0  0  0  0  0
  -28.3212  -18.2615   22.2275 C   0  0  0  0  0  0
  -28.7482  -19.0658   21.1493 C   0  0  0  0  0  0
  -28.7908  -16.9363   22.3990 C   0  0  0  0  0  0
  -29.7732  -16.4244   21.4953 C   0  0  0  0  0  0
  -24.8451  -15.9938   24.7612 C   0  0  0  0  0  0
  -24.9994  -14.5170   24.4272 C   0  0  0  0  0  0
  -25.7883  -16.6974   23.7781 C   0  0  0  0  0  0
  -26.4651  -14.4154   24.0137 C   0  0  0  0  0  0
  -31.2651  -15.0503   22.9042 C   0  0  0  0  0  0
  -29.5806  -21.7217   22.4710 C   0  0  0  0  0  0
  -28.2214  -16.1144   23.5637 C   0  0  0  0  0  0
  -28.1290  -20.4415   20.9160 C   0  0  0  0  0  0
  -29.0575  -24.2032   20.6397 C   0  0  0  0  0  0
  -28.2998  -22.8459   20.6693 C   0  0  0  0  0  0
  -28.0751  -25.2295   20.0390 C   0  0  0  0  0  0
  -30.4179  -15.1565   21.7083 N   0  0  0  0  0  0
  -26.8063  -15.7007   23.3558 N   0  3  0  0  0  0
  -29.0275  -21.6194   21.0994 N   0  3  1  0  0  0
  -31.4505  -12.3748   19.0907 H   0  0  0  0  0  0
  -30.2976  -11.2767   19.7787 H   0  0  0  0  0  0
  -29.7160  -11.8033   17.3975 H   0  0  0  0  0  0
  -29.6533  -13.5099   17.7705 H   0  0  0  0  0  0
  -27.8203  -11.3151   18.8045 H   0  0  0  0  0  0
  -27.3510  -12.6449   17.7777 H   0  0  0  0  0  0
  -27.7138  -14.2570   19.5783 H   0  0  0  0  0  0
  -28.6647  -11.9453   21.3372 H   0  0  0  0  0  0
  -28.4652  -13.5906   21.8546 H   0  0  0  0  0  0
  -25.2761   -9.5714   22.4706 H   0  0  0  0  0  0
  -24.0015   -7.4654   22.7458 H   0  0  0  0  0  0
  -21.0816   -8.8727   19.8959 H   0  0  0  0  0  0
  -22.3632  -10.9656   19.6123 H   0  0  0  0  0  0
  -21.2011   -7.6144   23.9721 H   0  0  0  0  0  0
  -21.1483   -6.0520   25.9081 H   0  0  0  0  0  0
  -22.0604   -2.7611   23.2830 H   0  0  0  0  0  0
  -22.4035  -11.9877   22.4696 H   0  0  0  0  0  0
  -21.1120  -13.1330   22.2528 H   0  0  0  0  0  0
  -24.6178  -15.7452   20.3970 H   0  0  0  0  0  0
  -26.1718  -15.5169   19.8339 H   0  0  0  0  0  0
  -26.7134  -32.5542   23.1201 H   0  0  0  0  0  0
  -25.0114  -33.9818   25.0513 H   0  0  0  0  0  0
  -22.6884  -31.3199   21.4266 H   0  0  0  0  0  0
  -23.3736  -35.9672   23.3299 H   0  0  0  0  0  0
  -24.3578  -36.8912   22.2054 H   0  0  0  0  0  0
  -23.7244  -37.6530   23.6641 H   0  0  0  0  0  0
  -26.0494  -31.6061   20.6023 H   0  0  0  0  0  0
  -26.8248  -30.8855   21.9852 H   0  0  0  0  0  0
  -28.0922  -29.0842   21.1796 H   0  0  0  0  0  0
  -25.9810  -26.0449   18.9197 H   0  0  0  0  0  0
  -23.9590  -27.3592   18.9883 H   0  0  0  0  0  0
  -23.7110  -30.6314   19.4125 H   0  0  0  0  0  0
  -22.7301  -29.2682   19.8693 H   0  0  0  0  0  0
  -25.1280  -36.1988   25.0827 H   0  0  0  0  0  0
  -20.9992  -28.3224   24.1437 H   0  0  0  0  0  0
  -20.5713  -26.2262   23.3588 H   0  0  0  0  0  0
  -21.6653  -26.7479   22.1203 H   0  0  0  0  0  0
  -19.6901  -25.6306   21.1248 H   0  0  0  0  0  0
  -19.6705  -27.3230   20.6773 H   0  0  0  0  0  0
  -17.4217  -26.6732   21.4016 H   0  0  0  0  0  0
  -18.0319  -26.0075   22.9012 H   0  0  0  0  0  0
  -19.7915  -30.7317   24.2262 H   0  0  0  0  0  0
  -17.4986  -31.6273   24.5196 H   0  0  0  0  0  0
  -15.5339  -30.2998   23.7653 H   0  0  0  0  0  0
  -15.8675  -28.0857   22.7016 H   0  0  0  0  0  0
  -24.5950  -30.7022   25.7823 H   0  0  0  0  0  0
  -24.8946  -32.2857   26.4932 H   0  0  0  0  0  0
  -25.8126  -30.8883   27.0230 H   0  0  0  0  0  0
  -26.2857  -29.6796   24.1174 H   0  0  0  0  0  0
  -27.4126  -29.7292   25.4539 H   0  0  0  0  0  0
  -27.8673  -30.4376   23.9217 H   0  0  0  0  0  0
  -27.2702  -33.3619   26.2107 H   0  0  0  0  0  0
  -28.3872  -32.6884   25.0305 H   0  0  0  0  0  0
  -28.0757  -31.8417   26.5378 H   0  0  0  0  0  0
  -28.2616  -38.0106   24.7511 H   0  0  0  0  0  0
  -28.1068  -36.2635   24.6289 H   0  0  0  0  0  0
  -27.2311  -37.1472   25.8869 H   0  0  0  0  0  0
  -20.9268  -29.8738   21.6951 H   0  0  0  0  0  0
  -26.0169  -38.2863   24.1406 H   0  0  0  0  0  0
  -30.0128  -19.1276   19.3909 H   0  0  0  0  0  0
  -30.9362  -16.9130   19.7096 H   0  0  0  0  0  0
  -27.6040  -18.6729   22.9207 H   0  0  0  0  0  0
  -25.1776  -16.1762   25.7843 H   0  0  0  0  0  0
  -23.8142  -16.3416   24.6791 H   0  0  0  0  0  0
  -24.3529  -14.2576   23.5899 H   0  0  0  0  0  0
  -24.7486  -13.8593   25.2610 H   0  0  0  0  0  0
  -26.2148  -17.5867   24.2400 H   0  0  0  0  0  0
  -25.2425  -17.0238   22.8916 H   0  0  0  0  0  0
  -26.6476  -13.5615   23.3607 H   0  0  0  0  0  0
  -27.0723  -14.2786   24.9104 H   0  0  0  0  0  0
  -31.1447  -15.9010   23.5759 H   0  0  0  0  0  0
  -32.3260  -15.0086   22.6483 H   0  0  0  0  0  0
  -31.0247  -14.1451   23.4625 H   0  0  0  0  0  0
  -30.0645  -20.7947   22.7792 H   0  0  0  0  0  0
  -28.8015  -21.9515   23.1988 H   0  0  0  0  0  0
  -30.3338  -22.5072   22.5281 H   0  0  0  0  0  0
  -28.3262  -16.6679   24.4983 H   0  0  0  0  0  0
  -28.8148  -15.2145   23.7063 H   0  0  0  0  0  0
  -27.2535  -20.5519   21.5586 H   0  0  0  0  0  0
  -27.7439  -20.4384   19.8952 H   0  0  0  0  0  0
  -29.9629  -24.1453   20.0355 H   0  0  0  0  0  0
  -29.3489  -24.5076   21.6457 H   0  0  0  0  0  0
  -27.9191  -22.6647   19.6633 H   0  0  0  0  0  0
  -27.4205  -22.9493   21.3098 H   0  0  0  0  0  0
  -27.1324  -25.0326   20.5550 H   0  0  0  0  0  0
  -27.9219  -24.9841   18.9866 H   0  0  0  0  0  0
  -26.6589  -15.5684   22.3620 H   0  0  0  0  0  0
  -29.8043  -21.4917   20.4703 H   0  0  0  0  0  0
  1 25  1  0  0  0
  1 30  2  0  0  0
  1 88  1  0  0  0
  2  3  1  0  0  0
  2 25  1  0  0  0
  2 91  1  0  0  0
  2 92  1  0  0  0
  3  4  1  0  0  0
  3 93  1  0  0  0
  3 94  1  0  0  0
  4  5  1  0  0  0
  4 95  1  0  0  0
  4 96  1  0  0  0
  5  6  1  0  0  0
  5 26  1  0  0  0
  5 97  1  0  0  0
  6 25  1  0  0  0
  6 98  1  0  0  0
  6 99  1  0  0  0
  7  8  2  0  0  0
  7 26  1  0  0  0
  7 29  1  0  0  0
  8  9  1  0  0  0
  8 22  1  0  0  0
  9 10  1  0  0  0
  9 27  2  0  0  0
 10 11  2  0  0  0
 10 15  1  0  0  0
 11 12  1  0  0  0
 11100  1  0  0  0
 12 13  2  0  0  0
 12101  1  0  0  0
 13 14  1  0  0  0
 13 31  1  0  0  0
 14 15  2  0  0  0
 14102  1  0  0  0
 15103  1  0  0  0
 16 17  2  0  0  0
 16 21  1  0  0  0
 16 31  1  0  0  0
 17 18  1  0  0  0
 17104  1  0  0  0
 18 19  2  0  0  0
 18105  1  0  0  0
 19 20  1  0  0  0
 19 24  1  0  0  0
 20 21  2  0  0  0
 20106  1  0  0  0
 21 23  1  0  0  0
 22 28  1  0  0  0
 22 32  2  0  0  0
 26 27  1  0  0  0
 28107  1  0  0  0
 28108  1  0  0  0
 29109  1  0  0  0
 29110  1  0  0  0
 33 34  1  0  0  0
 33 66  1  0  0  0
 33 70  2  0  0  0
 34 36  1  0  0  0
 34 59  1  0  0  0
 34111  1  0  0  0
 35 44  2  0  0  0
 35 45  1  0  0  0
 35 68  1  0  0  0
 36 56  1  0  0  0
 36112  1  0  0  0
 37 39  1  0  0  0
 37 47  1  0  0  0
 37 66  1  0  0  0
 37113  1  0  0  0
 38 43  2  0  0  0
 38 46  1  0  0  0
 38 47  1  0  0  0
 39 64  1  0  0  0
 39 67  2  0  0  0
 40 52  1  0  0  0
 40 53  2  0  0  0
 40 58  1  0  0  0
 41114  1  0  0  0
 41115  1  0  0  0
 41116  1  0  0  0
 41 48  1  0  0  0
 42 43  1  0  0  0
 42 66  1  0  0  0
 42117  1  0  0  0
 42118  1  0  0  0
 43 44  1  0  0  0
 44119  1  0  0  0
 45 46  2  0  0  0
 45120  1  0  0  0
 46121  1  0  0  0
 47122  1  0  0  0
 47123  1  0  0  0
 48 56  1  0  0  0
 48 65  1  0  0  0
 48124  1  0  0  0
 49 50  1  0  0  0
 49 53  1  0  0  0
 49 64  1  0  0  0
 49125  1  0  0  0
 50 51  1  0  0  0
 50126  1  0  0  0
 50127  1  0  0  0
 51 52  1  0  0  0
 51128  1  0  0  0
 51129  1  0  0  0
 52130  1  0  0  0
 52131  1  0  0  0
 53 54  1  0  0  0
 54 55  2  0  0  0
 54132  1  0  0  0
 55 57  1  0  0  0
 55133  1  0  0  0
 56 69  2  0  0  0
 57 58  2  0  0  0
 57134  1  0  0  0
 58135  1  0  0  0
 59 60  1  0  0  0
 59 61  1  0  0  0
 59 62  1  0  0  0
 60136  1  0  0  0
 60137  1  0  0  0
 60138  1  0  0  0
 61139  1  0  0  0
 61140  1  0  0  0
 61141  1  0  0  0
 62142  1  0  0  0
 62143  1  0  0  0
 62144  1  0  0  0
 63 65  1  0  0  0
 63145  1  0  0  0
 63146  1  0  0  0
 63147  1  0  0  0
 64148  1  0  0  0
 65149  1  0  0  0
 68 87  1  0  0  0
 71 72  2  0  0  0
 71 74  1  0  0  0
 71150  1  0  0  0
 72 76  1  0  0  0
 72151  1  0  0  0
 73 74  2  0  0  0
 73 75  1  0  0  0
 73152  1  0  0  0
 74 84  1  0  0  0
 75 76  2  0  0  0
 75 83  1  0  0  0
 76 88  1  0  0  0
 77 78  1  0  0  0
 77 79  1  0  0  0
 77153  1  0  0  0
 77154  1  0  0  0
 78 80  1  0  0  0
 78155  1  0  0  0
 78156  1  0  0  0
 79 89  1  0  0  0
 79157  1  0  0  0
 79158  1  0  0  0
 80 89  1  0  0  0
 80159  1  0  0  0
 80160  1  0  0  0
 81 88  1  0  0  0
 81161  1  0  0  0
 81162  1  0  0  0
 81163  1  0  0  0
 82164  1  0  0  0
 82165  1  0  0  0
 82166  1  0  0  0
 82 90  1  0  0  0
 83167  1  0  0  0
 83168  1  0  0  0
 83 89  1  0  0  0
 84 90  1  0  0  0
 84169  1  0  0  0
 84170  1  0  0  0
 85 86  1  0  0  0
 85 87  1  0  0  0
 85171  1  0  0  0
 85172  1  0  0  0
 86 90  1  0  0  0
 86173  1  0  0  0
 86174  1  0  0  0
 87175  1  0  0  0
 87176  1  0  0  0
 89177  1  0  0  0
 90178  1  0  0  0
M  CHG  2  89   1  90   1
M  ISO  4   1 100  68 101  87 101  88 100
M  END
> <chiral flag>
0

> <version>
0

> <s_m_source_file>
/data/baiqing/PycharmProjects/Reinvent-master-3.2/result/LINK_invent/BTK/process_docking_weight1_custom_product_contain_oxygen_bond_distance_aromatic_linkinvent_7_9_3/rearranged_h_0020.sdf

> <i_m_source_file_index>
5

> <r_mmod_Potential_Energy-OPLS-2005>
-58.3998489379883

> <r_mmod_Stretch_Energy-OPLS-2005>
42.872257232666

> <r_mmod_Bend_Energy-OPLS-2005>
135.830261230469

> <r_mmod_Torsional_Energy-OPLS-2005>
357.838226318359

> <r_mmod_Improper_Torsional_Energy-OPLS-2005>
9.41619682312012

> <r_mmod_Van_der_Waal_Energy-OPLS-2005>
152.715148925781

> <r_mmod_Electrostatic_Energy-OPLS-2005>
80.6123733520508

> <r_mmod_Solvation_Energy-OPLS-2005>
-851.510803222656

> <b_mmod_Minimization_Converged-OPLS-2005>
0

> <r_mmod_RMS_Derivative-OPLS-2005>
2.54311847686768

$$$$
5
                    3D
 Structure written by MMmdl.
157165  0  0  1  0            999 V2000
  -30.6986  -14.4540   20.6236 C   0  0  0  0  0  0
  -30.4407  -12.3109   19.4136 C   0  0  0  0  0  0
  -29.5070  -12.5229   18.2063 C   0  0  0  0  0  0
  -28.0234  -12.3937   18.6061 C   0  0  0  0  0  0
  -27.6695  -13.2048   19.8821 C   0  0  2  0  0  0
  -28.7062  -12.9544   20.9965 C   0  0  0  0  0  0
  -25.2642  -13.8166   20.5601 C   0  0  0  0  0  0
  -24.1888  -13.0499   20.9103 C   0  0  0  0  0  0
  -24.6449  -11.6951   20.8780 C   0  0  0  0  0  0
  -23.9140  -10.4327   21.0465 C   0  0  0  0  0  0
  -24.3686   -9.4217   21.9193 C   0  0  0  0  0  0
  -23.6333   -8.2275   22.0760 C   0  0  0  0  0  0
  -22.4310   -8.0339   21.3564 C   0  0  0  0  0  0
  -21.9986   -9.0350   20.4664 C   0  0  0  0  0  0
  -22.7366  -10.2197   20.3079 C   0  0  0  0  0  0
  -21.6857   -6.0797   22.5277 C   0  0  0  0  0  0
  -21.4029   -6.5668   23.8242 C   0  0  0  0  0  0
  -21.3636   -5.6787   24.9175 C   0  0  0  0  0  0
  -21.6033   -4.3063   24.7187 C   0  0  0  0  0  0
  -21.8832   -3.8199   23.4302 C   0  0  0  0  0  0
  -21.9192   -4.7023   22.3390 C   0  0  0  0  0  0
  -22.7911  -13.5293   21.1733 C   0  0  0  0  0  0
  -22.1616   -4.2222   21.0944 F   0  0  0  0  0  0
  -21.5657   -3.4520   25.7694 F   0  0  0  0  0  0
  -30.0500  -13.2658   20.4658 N   0  0  0  0  0  0
  -26.3074  -12.9313   20.3363 N   0  0  0  0  0  0
  -25.9344  -11.6478   20.5798 N   0  0  0  0  0  0
  -22.0523  -12.8347   22.0294 N   0  0  0  0  0  0
  -25.4391  -15.1855   20.3869 N   0  0  0  0  0  0
  -31.7756  -14.7131   20.0722 O   0  0  0  0  0  0
  -21.6671   -6.8939   21.4260 O   0  0  0  0  0  0
  -22.3611  -14.5587   20.6518 O   0  0  0  0  0  0
  -24.6254  -31.8632   23.2110 C   0  0  0  0  0  0
  -25.9111  -32.4873   23.8386 C   0  0  1  0  0  0
  -27.2114  -27.3783   20.1055 C   0  0  0  0  0  0
  -25.5940  -33.8683   24.2391 N   0  0  0  0  0  0
  -23.4170  -30.4893   21.5561 C   0  0  2  0  0  0
  -24.8601  -28.9617   20.1023 C   0  0  0  0  0  0
  -22.7424  -29.4672   22.5069 C   0  0  0  0  0  0
  -18.0289  -28.1337   22.8584 C   0  0  0  0  0  0
  -24.1479  -36.7309   23.2660 C   0  0  0  0  0  0
  -25.9482  -30.8233   21.3704 C   0  0  0  0  0  0
  -26.0217  -29.4565   20.7088 C   0  0  0  0  0  0
  -27.2079  -28.6764   20.6926 C   0  0  0  0  0  0
  -26.0230  -26.9140   19.4928 C   0  0  0  0  0  0
  -24.8683  -27.7117   19.4629 C   0  0  0  0  0  0
  -23.6193  -29.8272   20.1643 C   0  0  0  0  0  0
  -25.4115  -36.3201   24.0396 C   0  0  1  0  0  0
  -20.5901  -28.3605   23.1351 C   0  0  2  0  0  0
  -20.6818  -26.9336   22.5321 C   0  0  0  0  0  0
  -19.5726  -26.6325   21.5215 C   0  0  0  0  0  0
  -18.1911  -26.7974   22.1555 C   0  0  0  0  0  0
  -19.1528  -28.8782   23.2994 C   0  0  0  0  0  0
  -18.9415  -30.1477   23.8904 C   0  0  0  0  0  0
  -17.6342  -30.6568   24.0524 C   0  0  0  0  0  0
  -25.8994  -34.9548   23.5190 C   0  0  0  0  0  0
  -16.5267  -29.9011   23.6327 C   0  0  0  0  0  0
  -16.7260  -28.6459   23.0356 C   0  0  0  0  0  0
  -26.4445  -31.6628   25.0692 C   0  0  0  0  0  0
  -25.3657  -31.3768   26.1371 C   0  0  0  0  0  0
  -27.0253  -30.3097   24.6051 C   0  0  0  0  0  0
  -27.6060  -32.4287   25.7410 C   0  0  0  0  0  0
  -27.5622  -37.1810   24.8476 C   0  0  0  0  0  0
  -21.4135  -29.3066   22.3803 N   0  0  0  0  0  0
  -26.4323  -37.3858   23.9434 N   0  0  0  0  0  0
  -24.6862  -31.0586   22.1122 N   0  0  0  0  0  0
  -23.4152  -28.8154   23.3088 O   0  0  0  0  0  0
  -28.3528  -26.5898   20.1387 O   0  0  0  0  0  0
  -26.5456  -34.8940   22.4701 O   0  0  0  0  0  0
  -23.5396  -32.1452   23.7391 O   0  0  0  0  0  0
  -28.9593  -18.7936   22.3357 C   0  0  0  0  0  0
  -29.3145  -17.4258   22.4101 C   0  0  0  0  0  0
  -30.0050  -17.4778   20.0922 C   0  0  0  0  0  0
  -29.1048  -19.5552   21.1384 C   0  0  0  0  0  0
  -29.8489  -16.7443   21.2993 C   0  0  0  0  0  0
  -29.6331  -18.8545   20.0110 C   0  0  0  0  0  0
  -28.8392  -21.0787   21.1755 C   0  0  0  0  0  0
  -27.6961  -21.7251   19.0626 C   0  0  0  0  0  0
  -29.4659  -24.3672   20.4338 C   0  0  0  0  0  0
  -29.7368  -22.9539   19.8008 C   0  0  0  0  0  0
  -28.1754  -25.1453   20.0473 C   0  0  0  0  0  0
  -30.0736  -15.3278   21.4374 N   0  0  0  0  0  0
  -28.8044  -21.8130   20.0233 N   0  0  0  0  0  0
  -28.7665  -21.6679   22.2668 O   0  0  0  0  0  0
  -29.8068  -19.4919   18.8260 F   0  0  0  0  0  0
  -31.4781  -12.4370   19.0973 H   0  0  0  0  0  0
  -30.3718  -11.2875   19.7906 H   0  0  0  0  0  0
  -29.7413  -11.8129   17.4111 H   0  0  0  0  0  0
  -29.6844  -13.5148   17.7834 H   0  0  0  0  0  0
  -27.7990  -11.3386   18.7599 H   0  0  0  0  0  0
  -27.3967  -12.7194   17.7763 H   0  0  0  0  0  0
  -27.7204  -14.2612   19.6155 H   0  0  0  0  0  0
  -28.6707  -11.9090   21.3138 H   0  0  0  0  0  0
  -28.4456  -13.5264   21.8853 H   0  0  0  0  0  0
  -25.2794   -9.5731   22.4793 H   0  0  0  0  0  0
  -24.0068   -7.4659   22.7437 H   0  0  0  0  0  0
  -21.0943   -8.8969   19.8884 H   0  0  0  0  0  0
  -22.3884  -10.9821   19.6247 H   0  0  0  0  0  0
  -21.2028   -7.6165   23.9790 H   0  0  0  0  0  0
  -21.1406   -6.0463   25.9080 H   0  0  0  0  0  0
  -22.0630   -2.7660   23.2759 H   0  0  0  0  0  0
  -22.4169  -12.0046   22.4727 H   0  0  0  0  0  0
  -21.1167  -13.1439   22.2514 H   0  0  0  0  0  0
  -24.6583  -15.8296   20.4167 H   0  0  0  0  0  0
  -26.2761  -15.6014   19.9998 H   0  0  0  0  0  0
  -26.7166  -32.5543   23.1115 H   0  0  0  0  0  0
  -25.0177  -33.9849   25.0588 H   0  0  0  0  0  0
  -22.7372  -31.3339   21.4318 H   0  0  0  0  0  0
  -23.3828  -35.9538   23.3297 H   0  0  0  0  0  0
  -24.3620  -36.8835   22.2065 H   0  0  0  0  0  0
  -23.7015  -37.6474   23.6563 H   0  0  0  0  0  0
  -26.0416  -31.6026   20.6100 H   0  0  0  0  0  0
  -26.8494  -30.8828   21.9668 H   0  0  0  0  0  0
  -28.1087  -29.0554   21.1512 H   0  0  0  0  0  0
  -25.9673  -25.9483   19.0004 H   0  0  0  0  0  0
  -23.9861  -27.3735   18.9347 H   0  0  0  0  0  0
  -23.6761  -30.6052   19.3990 H   0  0  0  0  0  0
  -22.7585  -29.2152   19.8953 H   0  0  0  0  0  0
  -25.1274  -36.2162   25.0882 H   0  0  0  0  0  0
  -21.0037  -28.3040   24.1465 H   0  0  0  0  0  0
  -20.6016  -26.2038   23.3427 H   0  0  0  0  0  0
  -21.6625  -26.7510   22.0867 H   0  0  0  0  0  0
  -19.6719  -27.3106   20.6735 H   0  0  0  0  0  0
  -19.6711  -25.6223   21.1250 H   0  0  0  0  0  0
  -17.9923  -25.9998   22.8731 H   0  0  0  0  0  0
  -17.4351  -26.7110   21.3760 H   0  0  0  0  0  0
  -19.7804  -30.7476   24.2167 H   0  0  0  0  0  0
  -17.4789  -31.6308   24.4964 H   0  0  0  0  0  0
  -15.5229  -30.2829   23.7611 H   0  0  0  0  0  0
  -15.8728  -28.0762   22.6908 H   0  0  0  0  0  0
  -24.5807  -30.7188   25.7615 H   0  0  0  0  0  0
  -24.8847  -32.2925   26.4841 H   0  0  0  0  0  0
  -25.7880  -30.8845   27.0126 H   0  0  0  0  0  0
  -26.2810  -29.6911   24.1005 H   0  0  0  0  0  0
  -27.3956  -29.7274   25.4495 H   0  0  0  0  0  0
  -27.8662  -30.4505   23.9251 H   0  0  0  0  0  0
  -27.2807  -33.3593   26.2077 H   0  0  0  0  0  0
  -28.3777  -32.6814   25.0138 H   0  0  0  0  0  0
  -28.0787  -31.8309   26.5188 H   0  0  0  0  0  0
  -28.2664  -38.0099   24.7628 H   0  0  0  0  0  0
  -28.1110  -36.2660   24.6239 H   0  0  0  0  0  0
  -27.2340  -37.1348   25.8866 H   0  0  0  0  0  0
  -20.9246  -29.8876   21.7153 H   0  0  0  0  0  0
  -26.0298  -38.2975   24.1404 H   0  0  0  0  0  0
  -28.5856  -19.2634   23.2373 H   0  0  0  0  0  0
  -29.1705  -16.8998   23.3473 H   0  0  0  0  0  0
  -30.3968  -16.9936   19.2081 H   0  0  0  0  0  0
  -26.9168  -22.4271   19.3660 H   0  0  0  0  0  0
  -27.2617  -20.7253   19.0249 H   0  0  0  0  0  0
  -27.9849  -21.9956   18.0416 H   0  0  0  0  0  0
  -30.3004  -24.9788   20.0776 H   0  0  0  0  0  0
  -29.5598  -24.3375   21.5220 H   0  0  0  0  0  0
  -30.7106  -22.6175   20.1612 H   0  0  0  0  0  0
  -29.8831  -23.0953   18.7295 H   0  0  0  0  0  0
  -27.3724  -24.8138   20.7111 H   0  0  0  0  0  0
  -27.8682  -24.8685   19.0376 H   0  0  0  0  0  0
  -29.4287  -14.8651   22.0596 H   0  0  0  0  0  0
  1 25  1  0  0  0
  1 30  2  0  0  0
  1 82  1  0  0  0
  2  3  1  0  0  0
  2 25  1  0  0  0
  2 86  1  0  0  0
  2 87  1  0  0  0
  3  4  1  0  0  0
  3 88  1  0  0  0
  3 89  1  0  0  0
  4  5  1  0  0  0
  4 90  1  0  0  0
  4 91  1  0  0  0
  5  6  1  0  0  0
  5 26  1  0  0  0
  5 92  1  0  0  0
  6 25  1  0  0  0
  6 93  1  0  0  0
  6 94  1  0  0  0
  7  8  2  0  0  0
  7 26  1  0  0  0
  7 29  1  0  0  0
  8  9  1  0  0  0
  8 22  1  0  0  0
  9 10  1  0  0  0
  9 27  2  0  0  0
 10 11  2  0  0  0
 10 15  1  0  0  0
 11 12  1  0  0  0
 11 95  1  0  0  0
 12 13  2  0  0  0
 12 96  1  0  0  0
 13 14  1  0  0  0
 13 31  1  0  0  0
 14 15  2  0  0  0
 14 97  1  0  0  0
 15 98  1  0  0  0
 16 17  2  0  0  0
 16 21  1  0  0  0
 16 31  1  0  0  0
 17 18  1  0  0  0
 17 99  1  0  0  0
 18 19  2  0  0  0
 18100  1  0  0  0
 19 20  1  0  0  0
 19 24  1  0  0  0
 20 21  2  0  0  0
 20101  1  0  0  0
 21 23  1  0  0  0
 22 28  1  0  0  0
 22 32  2  0  0  0
 26 27  1  0  0  0
 28102  1  0  0  0
 28103  1  0  0  0
 29104  1  0  0  0
 29105  1  0  0  0
 33 34  1  0  0  0
 33 66  1  0  0  0
 33 70  2  0  0  0
 34 36  1  0  0  0
 34 59  1  0  0  0
 34106  1  0  0  0
 35 44  2  0  0  0
 35 45  1  0  0  0
 35 68  1  0  0  0
 36 56  1  0  0  0
 36107  1  0  0  0
 37 39  1  0  0  0
 37 47  1  0  0  0
 37 66  1  0  0  0
 37108  1  0  0  0
 38 43  2  0  0  0
 38 46  1  0  0  0
 38 47  1  0  0  0
 39 64  1  0  0  0
 39 67  2  0  0  0
 40 52  1  0  0  0
 40 53  2  0  0  0
 40 58  1  0  0  0
 41109  1  0  0  0
 41110  1  0  0  0
 41111  1  0  0  0
 41 48  1  0  0  0
 42 43  1  0  0  0
 42 66  1  0  0  0
 42112  1  0  0  0
 42113  1  0  0  0
 43 44  1  0  0  0
 44114  1  0  0  0
 45 46  2  0  0  0
 45115  1  0  0  0
 46116  1  0  0  0
 47117  1  0  0  0
 47118  1  0  0  0
 48 56  1  0  0  0
 48 65  1  0  0  0
 48119  1  0  0  0
 49 50  1  0  0  0
 49 53  1  0  0  0
 49 64  1  0  0  0
 49120  1  0  0  0
 50 51  1  0  0  0
 50121  1  0  0  0
 50122  1  0  0  0
 51 52  1  0  0  0
 51123  1  0  0  0
 51124  1  0  0  0
 52125  1  0  0  0
 52126  1  0  0  0
 53 54  1  0  0  0
 54 55  2  0  0  0
 54127  1  0  0  0
 55 57  1  0  0  0
 55128  1  0  0  0
 56 69  2  0  0  0
 57 58  2  0  0  0
 57129  1  0  0  0
 58130  1  0  0  0
 59 60  1  0  0  0
 59 61  1  0  0  0
 59 62  1  0  0  0
 60131  1  0  0  0
 60132  1  0  0  0
 60133  1  0  0  0
 61134  1  0  0  0
 61135  1  0  0  0
 61136  1  0  0  0
 62137  1  0  0  0
 62138  1  0  0  0
 62139  1  0  0  0
 63 65  1  0  0  0
 63140  1  0  0  0
 63141  1  0  0  0
 63142  1  0  0  0
 64143  1  0  0  0
 65144  1  0  0  0
 68 81  1  0  0  0
 71 72  2  0  0  0
 71 74  1  0  0  0
 71145  1  0  0  0
 72 75  1  0  0  0
 72146  1  0  0  0
 73 75  2  0  0  0
 73 76  1  0  0  0
 73147  1  0  0  0
 74 76  2  0  0  0
 74 77  1  0  0  0
 75 82  1  0  0  0
 76 85  1  0  0  0
 77 83  1  0  0  0
 77 84  2  0  0  0
 78 83  1  0  0  0
 78148  1  0  0  0
 78149  1  0  0  0
 78150  1  0  0  0
 79 80  1  0  0  0
 79 81  1  0  0  0
 79151  1  0  0  0
 79152  1  0  0  0
 80 83  1  0  0  0
 80153  1  0  0  0
 80154  1  0  0  0
 81155  1  0  0  0
 81156  1  0  0  0
 82157  1  0  0  0
M  ISO  4   1 100  68 101  81 101  82 100
M  END
> <chiral flag>
0

> <version>
0

> <s_m_source_file>
/data/baiqing/PycharmProjects/Reinvent-master-3.2/result/LINK_invent/BTK/process_docking_weight1_custom_product_contain_oxygen_bond_distance_aromatic_linkinvent_7_9_3/rearranged_h_0020.sdf

> <i_m_source_file_index>
6

> <r_mmod_Potential_Energy-OPLS-2005>
134.144409179688

> <r_mmod_Stretch_Energy-OPLS-2005>
58.4510307312012

> <r_mmod_Bend_Energy-OPLS-2005>
125.974166870117

> <r_mmod_Torsional_Energy-OPLS-2005>
320.513519287109

> <r_mmod_Improper_Torsional_Energy-OPLS-2005>
6.23197269439697

> <r_mmod_Van_der_Waal_Energy-OPLS-2005>
150.039184570312

> <r_mmod_Electrostatic_Energy-OPLS-2005>
-329.090850830078

> <r_mmod_Solvation_Energy-OPLS-2005>
-215.523254394531

> <b_mmod_Minimization_Converged-OPLS-2005>
0

> <r_mmod_RMS_Derivative-OPLS-2005>
10.8173112869263

$$$$
6
                    3D
 Structure written by MMmdl.
163172  0  0  1  0            999 V2000
  -30.6361  -14.7188   20.3683 C   0  0  0  0  0  0
  -30.4462  -12.3996   19.4849 C   0  0  0  0  0  0
  -29.5235  -12.3574   18.2479 C   0  0  0  0  0  0
  -28.0332  -12.2908   18.6564 C   0  0  0  0  0  0
  -27.6405  -13.2117   19.8476 C   0  0  2  0  0  0
  -28.6989  -13.1866   20.9670 C   0  0  0  0  0  0
  -25.2557  -13.8140   20.5751 C   0  0  0  0  0  0
  -24.1828  -13.0434   20.9288 C   0  0  0  0  0  0
  -24.6376  -11.6898   20.8821 C   0  0  0  0  0  0
  -23.9047  -10.4286   21.0432 C   0  0  0  0  0  0
  -24.3607   -9.4204   21.9201 C   0  0  0  0  0  0
  -23.6301   -8.2229   22.0759 C   0  0  0  0  0  0
  -22.4286   -8.0264   21.3538 C   0  0  0  0  0  0
  -21.9914   -9.0242   20.4656 C   0  0  0  0  0  0
  -22.7234  -10.2129   20.3072 C   0  0  0  0  0  0
  -21.6867   -6.0734   22.5280 C   0  0  0  0  0  0
  -21.4020   -6.5635   23.8210 C   0  0  0  0  0  0
  -21.3662   -5.6786   24.9168 C   0  0  0  0  0  0
  -21.6049   -4.3049   24.7216 C   0  0  0  0  0  0
  -21.8833   -3.8152   23.4337 C   0  0  0  0  0  0
  -21.9205   -4.6971   22.3403 C   0  0  0  0  0  0
  -22.7850  -13.5254   21.1923 C   0  0  0  0  0  0
  -22.1683   -4.2158   21.0982 F   0  0  0  0  0  0
  -21.5618   -3.4544   25.7727 F   0  0  0  0  0  0
  -29.9944  -13.5029   20.3547 N   0  0  0  0  0  0
  -26.2967  -12.9301   20.3384 N   0  0  0  0  0  0
  -25.9315  -11.6480   20.5904 N   0  0  0  0  0  0
  -22.0456  -12.8242   22.0438 N   0  0  0  0  0  0
  -25.4274  -15.1868   20.4106 N   0  0  0  0  0  0
  -31.8577  -14.7747   20.2102 O   0  0  0  0  0  0
  -21.6638   -6.8876   21.4245 O   0  0  0  0  0  0
  -22.3562  -14.5564   20.6761 O   0  0  0  0  0  0
  -24.6242  -31.8597   23.2039 C   0  0  0  0  0  0
  -25.9098  -32.4773   23.8361 C   0  0  1  0  0  0
  -27.2319  -27.3259   20.1309 C   0  0  0  0  0  0
  -25.5925  -33.8576   24.2289 N   0  0  0  0  0  0
  -23.4179  -30.4832   21.5456 C   0  0  2  0  0  0
  -24.8668  -28.9416   20.1135 C   0  0  0  0  0  0
  -22.7473  -29.4606   22.4940 C   0  0  0  0  0  0
  -18.0277  -28.1378   22.8481 C   0  0  0  0  0  0
  -24.1481  -36.7292   23.2640 C   0  0  0  0  0  0
  -25.9577  -30.7941   21.3757 C   0  0  0  0  0  0
  -26.0304  -29.4208   20.7236 C   0  0  0  0  0  0
  -27.2101  -28.6241   20.7278 C   0  0  0  0  0  0
  -26.0413  -26.8997   19.4931 C   0  0  0  0  0  0
  -24.8730  -27.6842   19.4915 C   0  0  0  0  0  0
  -23.6354  -29.8218   20.1586 C   0  0  0  0  0  0
  -25.4103  -36.3081   24.0330 C   0  0  1  0  0  0
  -20.5877  -28.3672   23.1298 C   0  0  2  0  0  0
  -20.6785  -26.9395   22.5424 C   0  0  0  0  0  0
  -19.5763  -26.6371   21.5216 C   0  0  0  0  0  0
  -18.1931  -26.7928   22.1610 C   0  0  0  0  0  0
  -19.1533  -28.8836   23.2884 C   0  0  0  0  0  0
  -18.9456  -30.1447   23.8896 C   0  0  0  0  0  0
  -17.6463  -30.6590   24.0553 C   0  0  0  0  0  0
  -25.9042  -34.9453   23.5103 C   0  0  0  0  0  0
  -16.5346  -29.9091   23.6332 C   0  0  0  0  0  0
  -16.7267  -28.6499   23.0351 C   0  0  0  0  0  0
  -26.4512  -31.6589   25.0727 C   0  0  0  0  0  0
  -25.3765  -31.3725   26.1464 C   0  0  0  0  0  0
  -27.0381  -30.3020   24.6193 C   0  0  0  0  0  0
  -27.6071  -32.4336   25.7499 C   0  0  0  0  0  0
  -27.5576  -37.1794   24.8466 C   0  0  0  0  0  0
  -21.4184  -29.3027   22.3696 N   0  0  0  0  0  0
  -26.4282  -37.3776   23.9415 N   0  0  0  0  0  0
  -24.6843  -31.0627   22.0987 N   0  0  0  0  0  0
  -23.4200  -28.8141   23.3013 O   0  0  0  0  0  0
  -28.3862  -26.5298   20.2029 O   0  0  0  0  0  0
  -26.5599  -34.8923   22.4674 O   0  0  0  0  0  0
  -23.5404  -32.1395   23.7383 O   0  0  0  0  0  0
  -29.0242  -19.1684   21.7074 C   0  0  0  0  0  0
  -30.7769  -19.5386   20.1075 C   0  0  0  0  0  0
  -29.1032  -17.7583   21.4807 C   0  0  0  0  0  0
  -30.8759  -18.1329   19.8966 C   0  0  0  0  0  0
  -29.8283  -20.1049   20.9970 C   0  0  0  0  0  0
  -30.0212  -17.1989   20.5500 C   0  0  0  0  0  0
  -26.7966  -22.9403   21.8398 C   0  0  0  0  0  0
  -27.7812  -24.0832   22.1237 C   0  0  0  0  0  0
  -27.4051  -22.1360   20.6810 C   0  0  0  0  0  0
  -28.8054  -24.0407   20.9758 C   0  0  2  0  0  0
  -29.5232  -15.9155   18.6058 C   0  0  0  0  0  0
  -29.7879  -21.6597   21.2808 C   0  0  0  0  0  0
  -28.4037  -25.0922   19.8478 C   0  0  0  0  0  0
  -29.8734  -15.8325   20.0363 N   0  0  0  0  0  0
  -28.8136  -22.5729   20.5463 N   0  3  1  0  0  0
  -31.4871  -12.5164   19.1777 H   0  0  0  0  0  0
  -30.3989  -11.4524   20.0267 H   0  0  0  0  0  0
  -29.7625  -11.4674   17.6633 H   0  0  0  0  0  0
  -29.7251  -13.1867   17.5741 H   0  0  0  0  0  0
  -27.8472  -11.2543   18.9374 H   0  0  0  0  0  0
  -27.3915  -12.4844   17.7967 H   0  0  0  0  0  0
  -27.5959  -14.2229   19.4590 H   0  0  0  0  0  0
  -28.7351  -12.2115   21.4519 H   0  0  0  0  0  0
  -28.4539  -13.9141   21.7416 H   0  0  0  0  0  0
  -25.2754   -9.5689   22.4770 H   0  0  0  0  0  0
  -24.0032   -7.4630   22.7483 H   0  0  0  0  0  0
  -21.0842   -8.8766   19.8966 H   0  0  0  0  0  0
  -22.3710  -10.9661   19.6164 H   0  0  0  0  0  0
  -21.2006   -7.6139   23.9711 H   0  0  0  0  0  0
  -21.1474   -6.0513   25.9069 H   0  0  0  0  0  0
  -22.0608   -2.7622   23.2831 H   0  0  0  0  0  0
  -22.4060  -11.9885   22.4801 H   0  0  0  0  0  0
  -21.1050  -13.1249   22.2584 H   0  0  0  0  0  0
  -24.6629  -15.8431   20.5255 H   0  0  0  0  0  0
  -26.2851  -15.6238   20.0971 H   0  0  0  0  0  0
  -26.7170  -32.5455   23.1110 H   0  0  0  0  0  0
  -25.0110  -33.9725   25.0457 H   0  0  0  0  0  0
  -22.7086  -31.3002   21.4025 H   0  0  0  0  0  0
  -23.3748  -35.9620   23.3304 H   0  0  0  0  0  0
  -24.3579  -36.8913   22.2056 H   0  0  0  0  0  0
  -23.7232  -37.6496   23.6661 H   0  0  0  0  0  0
  -26.0875  -31.5563   20.6057 H   0  0  0  0  0  0
  -26.8384  -30.8437   22.0050 H   0  0  0  0  0  0
  -28.0990  -28.9930   21.2198 H   0  0  0  0  0  0
  -25.9568  -25.9588   18.9776 H   0  0  0  0  0  0
  -23.9819  -27.3100   19.0051 H   0  0  0  0  0  0
  -23.7556  -30.6007   19.4034 H   0  0  0  0  0  0
  -22.7576  -29.2509   19.8542 H   0  0  0  0  0  0
  -25.1286  -36.1932   25.0820 H   0  0  0  0  0  0
  -20.9938  -28.3226   24.1427 H   0  0  0  0  0  0
  -20.5697  -26.2254   23.3603 H   0  0  0  0  0  0
  -21.6650  -26.7443   22.1194 H   0  0  0  0  0  0
  -19.6931  -25.6282   21.1238 H   0  0  0  0  0  0
  -19.6723  -27.3190   20.6752 H   0  0  0  0  0  0
  -17.4211  -26.6657   21.4014 H   0  0  0  0  0  0
  -18.0329  -26.0080   22.9011 H   0  0  0  0  0  0
  -19.7932  -30.7258   24.2260 H   0  0  0  0  0  0
  -17.5018  -31.6271   24.5163 H   0  0  0  0  0  0
  -15.5355  -30.2995   23.7675 H   0  0  0  0  0  0
  -15.8645  -28.0832   22.7076 H   0  0  0  0  0  0
  -24.5898  -30.7117   25.7808 H   0  0  0  0  0  0
  -24.9002  -32.2900   26.4935 H   0  0  0  0  0  0
  -25.8089  -30.8866   27.0217 H   0  0  0  0  0  0
  -26.2973  -29.6733   24.1232 H   0  0  0  0  0  0
  -27.4127  -29.7305   25.4701 H   0  0  0  0  0  0
  -27.8815  -30.4339   23.9405 H   0  0  0  0  0  0
  -27.2667  -33.3623   26.2096 H   0  0  0  0  0  0
  -28.3865  -32.6916   25.0318 H   0  0  0  0  0  0
  -28.0757  -31.8452   26.5398 H   0  0  0  0  0  0
  -28.2590  -38.0094   24.7516 H   0  0  0  0  0  0
  -28.1069  -36.2627   24.6280 H   0  0  0  0  0  0
  -27.2295  -37.1438   25.8868 H   0  0  0  0  0  0
  -20.9341  -29.8757   21.6927 H   0  0  0  0  0  0
  -26.0164  -38.2847   24.1441 H   0  0  0  0  0  0
  -28.3135  -19.5345   22.4361 H   0  0  0  0  0  0
  -31.4501  -20.1878   19.5648 H   0  0  0  0  0  0
  -28.4030  -17.1131   21.9949 H   0  0  0  0  0  0
  -31.5914  -17.7782   19.1661 H   0  0  0  0  0  0
  -25.8081  -23.3145   21.5723 H   0  0  0  0  0  0
  -26.6746  -22.3131   22.7249 H   0  0  0  0  0  0
  -28.2805  -23.8985   23.0755 H   0  0  0  0  0  0
  -27.2868  -25.0507   22.2157 H   0  0  0  0  0  0
  -26.8848  -22.3951   19.7585 H   0  0  0  0  0  0
  -27.2786  -21.0606   20.8005 H   0  0  0  0  0  0
  -29.7909  -24.3260   21.3458 H   0  0  0  0  0  0
  -30.4055  -16.0966   17.9882 H   0  0  0  0  0  0
  -28.8248  -16.7351   18.4303 H   0  0  0  0  0  0
  -29.0358  -15.0372   18.2090 H   0  0  0  0  0  0
  -30.7886  -22.0503   21.0952 H   0  0  0  0  0  0
  -29.6362  -21.7897   22.3528 H   0  0  0  0  0  0
  -27.4740  -24.7490   19.4113 H   0  0  0  0  0  0
  -29.1234  -25.0030   19.0337 H   0  0  0  0  0  0
  -29.0756  -22.5088   19.5727 H   0  0  0  0  0  0
  1 25  1  0  0  0
  1 30  2  0  0  0
  1 84  1  0  0  0
  2  3  1  0  0  0
  2 25  1  0  0  0
  2 86  1  0  0  0
  2 87  1  0  0  0
  3  4  1  0  0  0
  3 88  1  0  0  0
  3 89  1  0  0  0
  4  5  1  0  0  0
  4 90  1  0  0  0
  4 91  1  0  0  0
  5  6  1  0  0  0
  5 26  1  0  0  0
  5 92  1  0  0  0
  6 25  1  0  0  0
  6 93  1  0  0  0
  6 94  1  0  0  0
  7  8  2  0  0  0
  7 26  1  0  0  0
  7 29  1  0  0  0
  8  9  1  0  0  0
  8 22  1  0  0  0
  9 10  1  0  0  0
  9 27  2  0  0  0
 10 11  2  0  0  0
 10 15  1  0  0  0
 11 12  1  0  0  0
 11 95  1  0  0  0
 12 13  2  0  0  0
 12 96  1  0  0  0
 13 14  1  0  0  0
 13 31  1  0  0  0
 14 15  2  0  0  0
 14 97  1  0  0  0
 15 98  1  0  0  0
 16 17  2  0  0  0
 16 21  1  0  0  0
 16 31  1  0  0  0
 17 18  1  0  0  0
 17 99  1  0  0  0
 18 19  2  0  0  0
 18100  1  0  0  0
 19 20  1  0  0  0
 19 24  1  0  0  0
 20 21  2  0  0  0
 20101  1  0  0  0
 21 23  1  0  0  0
 22 28  1  0  0  0
 22 32  2  0  0  0
 26 27  1  0  0  0
 28102  1  0  0  0
 28103  1  0  0  0
 29104  1  0  0  0
 29105  1  0  0  0
 33 34  1  0  0  0
 33 66  1  0  0  0
 33 70  2  0  0  0
 34 36  1  0  0  0
 34 59  1  0  0  0
 34106  1  0  0  0
 35 44  2  0  0  0
 35 45  1  0  0  0
 35 68  1  0  0  0
 36 56  1  0  0  0
 36107  1  0  0  0
 37 39  1  0  0  0
 37 47  1  0  0  0
 37 66  1  0  0  0
 37108  1  0  0  0
 38 43  2  0  0  0
 38 46  1  0  0  0
 38 47  1  0  0  0
 39 64  1  0  0  0
 39 67  2  0  0  0
 40 52  1  0  0  0
 40 53  2  0  0  0
 40 58  1  0  0  0
 41109  1  0  0  0
 41110  1  0  0  0
 41111  1  0  0  0
 41 48  1  0  0  0
 42 43  1  0  0  0
 42 66  1  0  0  0
 42112  1  0  0  0
 42113  1  0  0  0
 43 44  1  0  0  0
 44114  1  0  0  0
 45 46  2  0  0  0
 45115  1  0  0  0
 46116  1  0  0  0
 47117  1  0  0  0
 47118  1  0  0  0
 48 56  1  0  0  0
 48 65  1  0  0  0
 48119  1  0  0  0
 49 50  1  0  0  0
 49 53  1  0  0  0
 49 64  1  0  0  0
 49120  1  0  0  0
 50 51  1  0  0  0
 50121  1  0  0  0
 50122  1  0  0  0
 51 52  1  0  0  0
 51123  1  0  0  0
 51124  1  0  0  0
 52125  1  0  0  0
 52126  1  0  0  0
 53 54  1  0  0  0
 54 55  2  0  0  0
 54127  1  0  0  0
 55 57  1  0  0  0
 55128  1  0  0  0
 56 69  2  0  0  0
 57 58  2  0  0  0
 57129  1  0  0  0
 58130  1  0  0  0
 59 60  1  0  0  0
 59 61  1  0  0  0
 59 62  1  0  0  0
 60131  1  0  0  0
 60132  1  0  0  0
 60133  1  0  0  0
 61134  1  0  0  0
 61135  1  0  0  0
 61136  1  0  0  0
 62137  1  0  0  0
 62138  1  0  0  0
 62139  1  0  0  0
 63 65  1  0  0  0
 63140  1  0  0  0
 63141  1  0  0  0
 63142  1  0  0  0
 64143  1  0  0  0
 65144  1  0  0  0
 68 83  1  0  0  0
 71 73  2  0  0  0
 71 75  1  0  0  0
 71145  1  0  0  0
 72 74  1  0  0  0
 72 75  2  0  0  0
 72146  1  0  0  0
 73 76  1  0  0  0
 73147  1  0  0  0
 74 76  2  0  0  0
 74148  1  0  0  0
 75 82  1  0  0  0
 76 84  1  0  0  0
 77 78  1  0  0  0
 77 79  1  0  0  0
 77149  1  0  0  0
 77150  1  0  0  0
 78 80  1  0  0  0
 78151  1  0  0  0
 78152  1  0  0  0
 79 85  1  0  0  0
 79153  1  0  0  0
 79154  1  0  0  0
 80 83  1  0  0  0
 80 85  1  0  0  0
 80155  1  0  0  0
 81 84  1  0  0  0
 81156  1  0  0  0
 81157  1  0  0  0
 81158  1  0  0  0
 82159  1  0  0  0
 82160  1  0  0  0
 82 85  1  0  0  0
 83161  1  0  0  0
 83162  1  0  0  0
 85163  1  0  0  0
M  CHG  1  85   1
M  ISO  4   1 100  68 101  83 101  84 100
M  END
> <chiral flag>
0

> <version>
0

> <s_m_source_file>
/data/baiqing/PycharmProjects/Reinvent-master-3.2/result/LINK_invent/BTK/process_docking_weight1_custom_product_contain_oxygen_bond_distance_aromatic_linkinvent_7_9_3/rearranged_h_0020.sdf

> <i_m_source_file_index>
7

> <r_mmod_Potential_Energy-OPLS-2005>
328.926177978516

> <r_mmod_Stretch_Energy-OPLS-2005>
85.8461532592773

> <r_mmod_Bend_Energy-OPLS-2005>
179.420166015625

> <r_mmod_Torsional_Energy-OPLS-2005>
393.027008056641

> <r_mmod_Improper_Torsional_Energy-OPLS-2005>
22.8528118133545

> <r_mmod_Van_der_Waal_Energy-OPLS-2005>
144.573226928711

> <r_mmod_Electrostatic_Energy-OPLS-2005>
-151.15983581543

> <r_mmod_Solvation_Energy-OPLS-2005>
-419.261199951172

> <b_mmod_Minimization_Converged-OPLS-2005>
0

> <r_mmod_RMS_Derivative-OPLS-2005>
3.28759908676147

$$$$
7
                    3D
 Structure written by MMmdl.
179188  0  0  1  0            999 V2000
  -30.7039  -14.4835   20.4755 C   0  0  0  0  0  0
  -30.4230  -12.2715   19.4481 C   0  0  0  0  0  0
  -29.4995  -12.3936   18.2207 C   0  0  0  0  0  0
  -28.0124  -12.3340   18.6349 C   0  0  0  0  0  0
  -27.6594  -13.2020   19.8701 C   0  0  2  0  0  0
  -28.7063  -13.0456   20.9935 C   0  0  0  0  0  0
  -25.2689  -13.8175   20.5656 C   0  0  0  0  0  0
  -24.1932  -13.0467   20.9085 C   0  0  0  0  0  0
  -24.6435  -11.6936   20.8691 C   0  0  0  0  0  0
  -23.9101  -10.4307   21.0389 C   0  0  0  0  0  0
  -24.3657   -9.4233   21.9153 C   0  0  0  0  0  0
  -23.6349   -8.2252   22.0671 C   0  0  0  0  0  0
  -22.4357   -8.0264   21.3464 C   0  0  0  0  0  0
  -22.0005   -9.0259   20.4594 C   0  0  0  0  0  0
  -22.7298  -10.2138   20.3022 C   0  0  0  0  0  0
  -21.6943   -6.0721   22.5193 C   0  0  0  0  0  0
  -21.4088   -6.5630   23.8130 C   0  0  0  0  0  0
  -21.3617   -5.6769   24.9071 C   0  0  0  0  0  0
  -21.6004   -4.3027   24.7118 C   0  0  0  0  0  0
  -21.8888   -3.8120   23.4274 C   0  0  0  0  0  0
  -21.9270   -4.6951   22.3335 C   0  0  0  0  0  0
  -22.7980  -13.5274   21.1823 C   0  0  0  0  0  0
  -22.1734   -4.2113   21.0926 F   0  0  0  0  0  0
  -21.5575   -3.4521   25.7650 F   0  0  0  0  0  0
  -30.0283  -13.3071   20.4137 N   0  0  0  0  0  0
  -26.3082  -12.9292   20.3376 N   0  0  0  0  0  0
  -25.9371  -11.6468   20.5854 N   0  0  0  0  0  0
  -22.0716  -12.8163   22.0368 N   0  0  0  0  0  0
  -25.4553  -15.1890   20.4094 N   0  0  0  0  0  0
  -31.9065  -14.5541   20.2130 O   0  0  0  0  0  0
  -21.6704   -6.8872   21.4159 O   0  0  0  0  0  0
  -22.3650  -14.5616   20.6775 O   0  0  0  0  0  0
  -24.6118  -31.8695   23.2133 C   0  0  0  0  0  0
  -25.9016  -32.4824   23.8419 C   0  0  1  0  0  0
  -27.2659  -27.4657   20.0954 C   0  0  0  0  0  0
  -25.5869  -33.8615   24.2358 N   0  0  0  0  0  0
  -23.4013  -30.4871   21.5518 C   0  0  2  0  0  0
  -24.8568  -28.9568   20.1206 C   0  0  0  0  0  0
  -22.7415  -29.4630   22.4989 C   0  0  0  0  0  0
  -18.0249  -28.1383   22.8488 C   0  0  0  0  0  0
  -24.1460  -36.7312   23.2636 C   0  0  0  0  0  0
  -25.9233  -30.8464   21.3606 C   0  0  0  0  0  0
  -26.0086  -29.4783   20.7181 C   0  0  0  0  0  0
  -27.2136  -28.7419   20.7090 C   0  0  0  0  0  0
  -26.0897  -26.9495   19.5085 C   0  0  0  0  0  0
  -24.8907  -27.6869   19.5157 C   0  0  0  0  0  0
  -23.6138  -29.8168   20.1663 C   0  0  0  0  0  0
  -25.4082  -36.3103   24.0350 C   0  0  1  0  0  0
  -20.5842  -28.3638   23.1326 C   0  0  2  0  0  0
  -20.6726  -26.9371   22.5400 C   0  0  0  0  0  0
  -19.5688  -26.6366   21.5201 C   0  0  0  0  0  0
  -18.1876  -26.7926   22.1614 C   0  0  0  0  0  0
  -19.1495  -28.8823   23.2903 C   0  0  0  0  0  0
  -18.9437  -30.1429   23.8909 C   0  0  0  0  0  0
  -17.6434  -30.6575   24.0547 C   0  0  0  0  0  0
  -25.9008  -34.9471   23.5145 C   0  0  0  0  0  0
  -16.5307  -29.9079   23.6319 C   0  0  0  0  0  0
  -16.7242  -28.6495   23.0346 C   0  0  0  0  0  0
  -26.4463  -31.6564   25.0717 C   0  0  0  0  0  0
  -25.3740  -31.3627   26.1452 C   0  0  0  0  0  0
  -27.0311  -30.3029   24.6048 C   0  0  0  0  0  0
  -27.6009  -32.4267   25.7549 C   0  0  0  0  0  0
  -27.5576  -37.1817   24.8458 C   0  0  0  0  0  0
  -21.4116  -29.3015   22.3776 N   0  0  0  0  0  0
  -26.4266  -37.3811   23.9424 N   0  0  0  0  0  0
  -24.6631  -31.0818   22.1020 N   0  0  0  0  0  0
  -23.4204  -28.8178   23.3029 O   0  0  0  0  0  0
  -28.4012  -26.6797   20.0199 O   0  0  0  0  0  0
  -26.5590  -34.8923   22.4718 O   0  0  0  0  0  0
  -23.5321  -32.1438   23.7542 O   0  0  0  0  0  0
  -31.8255  -21.8649   23.5981 C   0  0  0  0  0  0
  -31.7717  -21.7460   21.1659 C   0  0  0  0  0  0
  -31.4209  -20.5128   23.6839 C   0  0  0  0  0  0
  -31.3330  -20.4175   21.2550 C   0  0  0  0  0  0
  -32.0746  -22.4621   22.3378 C   0  0  0  0  0  0
  -31.2510  -19.7570   22.5021 C   0  0  0  0  0  0
  -31.2418  -17.5450   21.4230 C   0  0  0  0  0  0
  -34.6249  -18.1652   20.0379 C   0  0  0  0  0  0
  -32.3576  -17.4739   20.6576 C   0  0  0  0  0  0
  -33.5883  -18.2048   20.8916 C   0  0  0  0  0  0
  -29.4243  -16.6190   22.6694 C   0  0  0  0  0  0
  -29.9140  -17.9240   23.3318 C   0  0  0  0  0  0
  -29.9413  -16.7795   21.2382 C   0  0  2  0  0  0
  -34.3245  -23.5070   22.2065 C   0  0  0  0  0  0
  -29.6712  -16.0506   18.9741 C   0  0  0  0  0  0
  -30.8231  -26.3072   20.1460 C   0  0  0  0  0  0
  -31.0379  -25.2223   21.2237 C   0  0  0  0  0  0
  -29.6387  -27.2470   20.4330 C   0  0  0  0  0  0
  -32.8176  -23.7924   22.2724 C   0  0  1  0  0  0
  -31.0561  -18.3604   22.5347 N   0  0  0  0  0  0
  -29.9211  -15.5884   20.3532 N   0  0  0  0  0  0
  -32.4096  -24.6708   21.1515 N   0  3  0  0  0  0
  -31.4729  -12.3496   19.1445 H   0  0  0  0  0  0
  -30.3079  -11.2843   19.8995 H   0  0  0  0  0  0
  -29.7056  -11.5720   17.5374 H   0  0  0  0  0  0
  -29.7106  -13.2917   17.6497 H   0  0  0  0  0  0
  -27.7754  -11.2928   18.8462 H   0  0  0  0  0  0
  -27.3768  -12.6226   17.7987 H   0  0  0  0  0  0
  -27.6809  -14.2365   19.5375 H   0  0  0  0  0  0
  -28.6735  -12.0462   21.4324 H   0  0  0  0  0  0
  -28.4889  -13.7395   21.8096 H   0  0  0  0  0  0
  -25.2784   -9.5695   22.4782 H   0  0  0  0  0  0
  -24.0005   -7.4634   22.7419 H   0  0  0  0  0  0
  -21.0887   -8.8818   19.8963 H   0  0  0  0  0  0
  -22.3709  -10.9706   19.6158 H   0  0  0  0  0  0
  -21.2155   -7.6145   23.9639 H   0  0  0  0  0  0
  -21.1359   -6.0467   25.8977 H   0  0  0  0  0  0
  -22.0755   -2.7591   23.2758 H   0  0  0  0  0  0
  -22.4358  -11.9720   22.4549 H   0  0  0  0  0  0
  -21.1378  -13.1165   22.2739 H   0  0  0  0  0  0
  -24.7221  -15.8752   20.5523 H   0  0  0  0  0  0
  -26.3460  -15.6075   20.1687 H   0  0  0  0  0  0
  -26.7109  -32.5534   23.1214 H   0  0  0  0  0  0
  -25.0014  -33.9791   25.0507 H   0  0  0  0  0  0
  -22.6891  -31.3027   21.4109 H   0  0  0  0  0  0
  -23.3755  -35.9593   23.3211 H   0  0  0  0  0  0
  -24.3589  -36.9019   22.2064 H   0  0  0  0  0  0
  -23.7136  -37.6471   23.6697 H   0  0  0  0  0  0
  -26.0217  -31.6095   20.5869 H   0  0  0  0  0  0
  -26.8147  -30.9155   21.9714 H   0  0  0  0  0  0
  -28.0865  -29.1764   21.1742 H   0  0  0  0  0  0
  -26.1080  -25.9756   19.0402 H   0  0  0  0  0  0
  -24.0046  -27.2785   19.0516 H   0  0  0  0  0  0
  -23.7297  -30.5931   19.4096 H   0  0  0  0  0  0
  -22.7399  -29.2373   19.8626 H   0  0  0  0  0  0
  -25.1266  -36.1966   25.0852 H   0  0  0  0  0  0
  -20.9909  -28.3121   24.1449 H   0  0  0  0  0  0
  -20.5575  -26.2239   23.3581 H   0  0  0  0  0  0
  -21.6593  -26.7382   22.1166 H   0  0  0  0  0  0
  -19.6810  -25.6275   21.1210 H   0  0  0  0  0  0
  -19.6624  -27.3185   20.6737 H   0  0  0  0  0  0
  -17.4154  -26.6701   21.4006 H   0  0  0  0  0  0
  -18.0248  -26.0046   22.8981 H   0  0  0  0  0  0
  -19.7917  -30.7237   24.2274 H   0  0  0  0  0  0
  -17.4995  -31.6258   24.5110 H   0  0  0  0  0  0
  -15.5316  -30.2982   23.7633 H   0  0  0  0  0  0
  -15.8644  -28.0802   22.7084 H   0  0  0  0  0  0
  -24.5877  -30.7046   25.7768 H   0  0  0  0  0  0
  -24.8984  -32.2759   26.5018 H   0  0  0  0  0  0
  -25.8075  -30.8685   27.0151 H   0  0  0  0  0  0
  -26.2885  -29.6810   24.1039 H   0  0  0  0  0  0
  -27.4079  -29.7217   25.4482 H   0  0  0  0  0  0
  -27.8692  -30.4407   23.9210 H   0  0  0  0  0  0
  -27.2622  -33.3585   26.2103 H   0  0  0  0  0  0
  -28.3891  -32.6781   25.0435 H   0  0  0  0  0  0
  -28.0578  -31.8372   26.5526 H   0  0  0  0  0  0
  -28.2503  -38.0207   24.7631 H   0  0  0  0  0  0
  -28.1180  -36.2752   24.6130 H   0  0  0  0  0  0
  -27.2341  -37.1257   25.8873 H   0  0  0  0  0  0
  -20.9288  -29.8827   21.7070 H   0  0  0  0  0  0
  -26.0144  -38.2864   24.1509 H   0  0  0  0  0  0
  -32.0276  -22.4053   24.5120 H   0  0  0  0  0  0
  -31.9290  -22.1627   20.1806 H   0  0  0  0  0  0
  -31.3223  -20.0553   24.6588 H   0  0  0  0  0  0
  -31.1382  -19.8805   20.3370 H   0  0  0  0  0  0
  -35.5226  -18.7338   20.2252 H   0  0  0  0  0  0
  -34.5955  -17.5695   19.1367 H   0  0  0  0  0  0
  -32.3596  -16.8341   19.7926 H   0  0  0  0  0  0
  -33.6742  -18.8086   21.7821 H   0  0  0  0  0  0
  -28.3416  -16.5038   22.7226 H   0  0  0  0  0  0
  -29.8751  -15.7547   23.1513 H   0  0  0  0  0  0
  -30.1951  -17.7753   24.3752 H   0  0  0  0  0  0
  -29.1371  -18.6913   23.2941 H   0  0  0  0  0  0
  -29.2942  -17.5339   20.7859 H   0  0  0  0  0  0
  -34.6352  -22.8778   23.0416 H   0  0  0  0  0  0
  -34.9146  -24.4215   22.2475 H   0  0  0  0  0  0
  -34.5836  -22.9759   21.2916 H   0  0  0  0  0  0
  -29.5336  -15.2475   18.2623 H   0  0  0  0  0  0
  -30.4982  -16.6581   18.6066 H   0  0  0  0  0  0
  -28.7562  -16.6443   18.9122 H   0  0  0  0  0  0
  -30.7420  -25.8690   19.1502 H   0  0  0  0  0  0
  -31.7164  -26.9331   20.1189 H   0  0  0  0  0  0
  -30.2966  -24.4248   21.1282 H   0  0  0  0  0  0
  -30.9115  -25.6650   22.2112 H   0  0  0  0  0  0
  -29.8000  -28.1787   19.8857 H   0  0  0  0  0  0
  -29.6088  -27.4830   21.4983 H   0  0  0  0  0  0
  -32.6180  -24.3352   23.1967 H   0  0  0  0  0  0
  -33.0443  -25.4551   21.1732 H   0  0  0  0  0  0
  -32.5493  -24.2037   20.2708 H   0  0  0  0  0  0
  1 25  1  0  0  0
  1 30  2  0  0  0
  1 91  1  0  0  0
  2  3  1  0  0  0
  2 25  1  0  0  0
  2 93  1  0  0  0
  2 94  1  0  0  0
  3  4  1  0  0  0
  3 95  1  0  0  0
  3 96  1  0  0  0
  4  5  1  0  0  0
  4 97  1  0  0  0
  4 98  1  0  0  0
  5  6  1  0  0  0
  5 26  1  0  0  0
  5 99  1  0  0  0
  6 25  1  0  0  0
  6100  1  0  0  0
  6101  1  0  0  0
  7  8  2  0  0  0
  7 26  1  0  0  0
  7 29  1  0  0  0
  8  9  1  0  0  0
  8 22  1  0  0  0
  9 10  1  0  0  0
  9 27  2  0  0  0
 10 11  2  0  0  0
 10 15  1  0  0  0
 11 12  1  0  0  0
 11102  1  0  0  0
 12 13  2  0  0  0
 12103  1  0  0  0
 13 14  1  0  0  0
 13 31  1  0  0  0
 14 15  2  0  0  0
 14104  1  0  0  0
 15105  1  0  0  0
 16 17  2  0  0  0
 16 21  1  0  0  0
 16 31  1  0  0  0
 17 18  1  0  0  0
 17106  1  0  0  0
 18 19  2  0  0  0
 18107  1  0  0  0
 19 20  1  0  0  0
 19 24  1  0  0  0
 20 21  2  0  0  0
 20108  1  0  0  0
 21 23  1  0  0  0
 22 28  1  0  0  0
 22 32  2  0  0  0
 26 27  1  0  0  0
 28109  1  0  0  0
 28110  1  0  0  0
 29111  1  0  0  0
 29112  1  0  0  0
 33 34  1  0  0  0
 33 66  1  0  0  0
 33 70  2  0  0  0
 34 36  1  0  0  0
 34 59  1  0  0  0
 34113  1  0  0  0
 35 44  2  0  0  0
 35 45  1  0  0  0
 35 68  1  0  0  0
 36 56  1  0  0  0
 36114  1  0  0  0
 37 39  1  0  0  0
 37 47  1  0  0  0
 37 66  1  0  0  0
 37115  1  0  0  0
 38 43  2  0  0  0
 38 46  1  0  0  0
 38 47  1  0  0  0
 39 64  1  0  0  0
 39 67  2  0  0  0
 40 52  1  0  0  0
 40 53  2  0  0  0
 40 58  1  0  0  0
 41116  1  0  0  0
 41117  1  0  0  0
 41118  1  0  0  0
 41 48  1  0  0  0
 42 43  1  0  0  0
 42 66  1  0  0  0
 42119  1  0  0  0
 42120  1  0  0  0
 43 44  1  0  0  0
 44121  1  0  0  0
 45 46  2  0  0  0
 45122  1  0  0  0
 46123  1  0  0  0
 47124  1  0  0  0
 47125  1  0  0  0
 48 56  1  0  0  0
 48 65  1  0  0  0
 48126  1  0  0  0
 49 50  1  0  0  0
 49 53  1  0  0  0
 49 64  1  0  0  0
 49127  1  0  0  0
 50 51  1  0  0  0
 50128  1  0  0  0
 50129  1  0  0  0
 51 52  1  0  0  0
 51130  1  0  0  0
 51131  1  0  0  0
 52132  1  0  0  0
 52133  1  0  0  0
 53 54  1  0  0  0
 54 55  2  0  0  0
 54134  1  0  0  0
 55 57  1  0  0  0
 55135  1  0  0  0
 56 69  2  0  0  0
 57 58  2  0  0  0
 57136  1  0  0  0
 58137  1  0  0  0
 59 60  1  0  0  0
 59 61  1  0  0  0
 59 62  1  0  0  0
 60138  1  0  0  0
 60139  1  0  0  0
 60140  1  0  0  0
 61141  1  0  0  0
 61142  1  0  0  0
 61143  1  0  0  0
 62144  1  0  0  0
 62145  1  0  0  0
 62146  1  0  0  0
 63 65  1  0  0  0
 63147  1  0  0  0
 63148  1  0  0  0
 63149  1  0  0  0
 64150  1  0  0  0
 65151  1  0  0  0
 68 88  1  0  0  0
 71 73  2  0  0  0
 71 75  1  0  0  0
 71152  1  0  0  0
 72 74  1  0  0  0
 72 75  2  0  0  0
 72153  1  0  0  0
 73 76  1  0  0  0
 73154  1  0  0  0
 74 76  2  0  0  0
 74155  1  0  0  0
 75 89  1  0  0  0
 76 90  1  0  0  0
 77 79  2  0  0  0
 77 83  1  0  0  0
 77 90  1  0  0  0
 78 80  2  0  0  0
 78156  1  0  0  0
 78157  1  0  0  0
 79 80  1  0  0  0
 79158  1  0  0  0
 80159  1  0  0  0
 81 82  1  0  0  0
 81 83  1  0  0  0
 81160  1  0  0  0
 81161  1  0  0  0
 82 90  1  0  0  0
 82162  1  0  0  0
 82163  1  0  0  0
 83 91  1  0  0  0
 83164  1  0  0  0
 84165  1  0  0  0
 84166  1  0  0  0
 84167  1  0  0  0
 84 89  1  0  0  0
 85 91  1  0  0  0
 85168  1  0  0  0
 85169  1  0  0  0
 85170  1  0  0  0
 86 87  1  0  0  0
 86 88  1  0  0  0
 86171  1  0  0  0
 86172  1  0  0  0
 87 92  1  0  0  0
 87173  1  0  0  0
 87174  1  0  0  0
 88175  1  0  0  0
 88176  1  0  0  0
 89 92  1  0  0  0
 89177  1  0  0  0
 92178  1  0  0  0
 92179  1  0  0  0
M  CHG  1  92   1
M  ISO  4   1 100  68 101  88 101  91 100
M  END
> <chiral flag>
0

> <version>
0

> <s_m_source_file>
/data/baiqing/PycharmProjects/Reinvent-master-3.2/result/LINK_invent/BTK/process_docking_weight1_custom_product_contain_oxygen_bond_distance_aromatic_linkinvent_7_9_3/rearranged_h_0020.sdf

> <i_m_source_file_index>
8

> <r_mmod_Potential_Energy-OPLS-2005>
26.6720008850098

> <r_mmod_Stretch_Energy-OPLS-2005>
37.8453521728516

> <r_mmod_Bend_Energy-OPLS-2005>
161.567428588867

> <r_mmod_Torsional_Energy-OPLS-2005>
329.249084472656

> <r_mmod_Improper_Torsional_Energy-OPLS-2005>
21.8988590240479

> <r_mmod_Van_der_Waal_Energy-OPLS-2005>
168.805419921875

> <r_mmod_Electrostatic_Energy-OPLS-2005>
-261.875427246094

> <r_mmod_Solvation_Energy-OPLS-2005>
-452.612640380859

> <b_mmod_Minimization_Converged-OPLS-2005>
0

> <r_mmod_RMS_Derivative-OPLS-2005>
6.82941246032715

$$$$
8
                    3D
 Structure written by MMmdl.
165173  0  0  1  0            999 V2000
  -30.6905  -14.6140   20.3407 C   0  0  0  0  0  0
  -30.4217  -12.3508   19.4309 C   0  0  0  0  0  0
  -29.4827  -12.4144   18.2084 C   0  0  0  0  0  0
  -28.0156  -12.2612   18.6491 C   0  0  0  0  0  0
  -27.6413  -13.1786   19.8416 C   0  0  2  0  0  0
  -28.7066  -13.1588   20.9589 C   0  0  0  0  0  0
  -25.2546  -13.8031   20.5777 C   0  0  0  0  0  0
  -24.1782  -13.0343   20.9214 C   0  0  0  0  0  0
  -24.6334  -11.6820   20.8780 C   0  0  0  0  0  0
  -23.9009  -10.4234   21.0435 C   0  0  0  0  0  0
  -24.3572   -9.4158   21.9206 C   0  0  0  0  0  0
  -23.6257   -8.2197   22.0761 C   0  0  0  0  0  0
  -22.4244   -8.0246   21.3545 C   0  0  0  0  0  0
  -21.9873   -9.0215   20.4647 C   0  0  0  0  0  0
  -22.7193  -10.2096   20.3069 C   0  0  0  0  0  0
  -21.6836   -6.0718   22.5282 C   0  0  0  0  0  0
  -21.3996   -6.5626   23.8212 C   0  0  0  0  0  0
  -21.3656   -5.6786   24.9178 C   0  0  0  0  0  0
  -21.6049   -4.3049   24.7231 C   0  0  0  0  0  0
  -21.8817   -3.8135   23.4352 C   0  0  0  0  0  0
  -21.9184   -4.6950   22.3407 C   0  0  0  0  0  0
  -22.7822  -13.5191   21.1864 C   0  0  0  0  0  0
  -22.1659   -4.2137   21.0986 F   0  0  0  0  0  0
  -21.5634   -3.4534   25.7746 F   0  0  0  0  0  0
  -30.0069  -13.4328   20.3347 N   0  0  0  0  0  0
  -26.2948  -12.9170   20.3362 N   0  0  0  0  0  0
  -25.9256  -11.6366   20.5840 N   0  0  0  0  0  0
  -22.0440  -12.8216   22.0424 N   0  0  0  0  0  0
  -25.4198  -15.1743   20.4364 N   0  0  0  0  0  0
  -31.9223  -14.6295   20.3784 O   0  0  0  0  0  0
  -21.6609   -6.8848   21.4241 O   0  0  0  0  0  0
  -22.3542  -14.5509   20.6709 O   0  0  0  0  0  0
  -24.6180  -31.8652   23.2090 C   0  0  0  0  0  0
  -25.9057  -32.4808   23.8392 C   0  0  1  0  0  0
  -27.2319  -27.4085   20.1081 C   0  0  0  0  0  0
  -25.5900  -33.8610   24.2318 N   0  0  0  0  0  0
  -23.4076  -30.4894   21.5490 C   0  0  2  0  0  0
  -24.8559  -28.9563   20.1106 C   0  0  0  0  0  0
  -22.7433  -29.4641   22.4965 C   0  0  0  0  0  0
  -18.0275  -28.1381   22.8478 C   0  0  0  0  0  0
  -24.1488  -36.7312   23.2639 C   0  0  0  0  0  0
  -25.9392  -30.8256   21.3647 C   0  0  0  0  0  0
  -26.0185  -29.4593   20.7104 C   0  0  0  0  0  0
  -27.2115  -28.6946   20.7029 C   0  0  0  0  0  0
  -26.0571  -26.9363   19.4835 C   0  0  0  0  0  0
  -24.8727  -27.6952   19.4907 C   0  0  0  0  0  0
  -23.6182  -29.8246   20.1624 C   0  0  0  0  0  0
  -25.4106  -36.3103   24.0336 C   0  0  1  0  0  0
  -20.5871  -28.3663   23.1307 C   0  0  2  0  0  0
  -20.6763  -26.9396   22.5420 C   0  0  0  0  0  0
  -19.5745  -26.6383   21.5214 C   0  0  0  0  0  0
  -18.1917  -26.7922   22.1617 C   0  0  0  0  0  0
  -19.1528  -28.8836   23.2883 C   0  0  0  0  0  0
  -18.9456  -30.1437   23.8900 C   0  0  0  0  0  0
  -17.6463  -30.6580   24.0565 C   0  0  0  0  0  0
  -25.9042  -34.9470   23.5127 C   0  0  0  0  0  0
  -16.5352  -29.9084   23.6330 C   0  0  0  0  0  0
  -16.7264  -28.6506   23.0337 C   0  0  0  0  0  0
  -26.4483  -31.6592   25.0725 C   0  0  0  0  0  0
  -25.3750  -31.3704   26.1473 C   0  0  0  0  0  0
  -27.0318  -30.3038   24.6096 C   0  0  0  0  0  0
  -27.6052  -32.4316   25.7484 C   0  0  0  0  0  0
  -27.5576  -37.1805   24.8464 C   0  0  0  0  0  0
  -21.4155  -29.3033   22.3712 N   0  0  0  0  0  0
  -26.4291  -37.3788   23.9410 N   0  0  0  0  0  0
  -24.6734  -31.0739   22.0997 N   0  0  0  0  0  0
  -23.4190  -28.8172   23.3011 O   0  0  0  0  0  0
  -28.3633  -26.6077   20.1390 O   0  0  0  0  0  0
  -26.5597  -34.8922   22.4684 O   0  0  0  0  0  0
  -23.5366  -32.1404   23.7469 O   0  0  0  0  0  0
  -28.0299  -16.8712   19.6993 C   0  0  0  0  0  0
  -27.2798  -18.0198   19.9907 C   0  0  0  0  0  0
  -30.0249  -17.9308   20.5778 C   0  0  0  0  0  0
  -29.2946  -19.1461   20.7831 C   0  0  0  0  0  0
  -29.3871  -16.7607   20.0619 C   0  0  0  0  0  0
  -27.8961  -19.1452   20.5531 C   0  0  0  0  0  0
  -28.5159  -25.6172   22.3326 C   0  0  0  0  0  0
  -30.7627  -15.8827   18.2992 C   0  0  0  0  0  0
  -30.2335  -21.4807   18.9534 C   0  0  0  0  0  0
  -29.9837  -20.4632   21.2087 C   0  0  0  0  0  0
  -29.0449  -24.1498   20.2158 C   0  0  0  0  0  0
  -29.8954  -22.9940   20.8985 C   0  0  0  0  0  0
  -28.2079  -25.3446   20.8449 C   0  0  2  0  0  0
  -30.1076  -15.6062   19.5882 N   0  0  0  0  0  0
  -29.6588  -21.6273   20.3123 N   0  3  1  0  0  0
  -26.9129  -20.5339   20.8694 Cl  0  0  0  0  0  0
  -31.4616  -12.4514   19.1139 H   0  0  0  0  0  0
  -30.3446  -11.3852   19.9335 H   0  0  0  0  0  0
  -29.7406  -11.6272   17.4988 H   0  0  0  0  0  0
  -29.6047  -13.3541   17.6708 H   0  0  0  0  0  0
  -27.8699  -11.2177   18.9306 H   0  0  0  0  0  0
  -27.3474  -12.4421   17.8070 H   0  0  0  0  0  0
  -27.6269  -14.1665   19.4164 H   0  0  0  0  0  0
  -28.7255  -12.1927   21.4655 H   0  0  0  0  0  0
  -28.4791  -13.9114   21.7164 H   0  0  0  0  0  0
  -25.2715   -9.5636   22.4780 H   0  0  0  0  0  0
  -23.9964   -7.4583   22.7474 H   0  0  0  0  0  0
  -21.0805   -8.8727   19.8950 H   0  0  0  0  0  0
  -22.3655  -10.9638   19.6178 H   0  0  0  0  0  0
  -21.1980   -7.6132   23.9715 H   0  0  0  0  0  0
  -21.1488   -6.0515   25.9083 H   0  0  0  0  0  0
  -22.0602   -2.7597   23.2856 H   0  0  0  0  0  0
  -22.4027  -11.9864   22.4815 H   0  0  0  0  0  0
  -21.1070  -13.1279   22.2624 H   0  0  0  0  0  0
  -24.6572  -15.8222   20.5956 H   0  0  0  0  0  0
  -26.3054  -15.6333   20.2739 H   0  0  0  0  0  0
  -26.7123  -32.5510   23.1149 H   0  0  0  0  0  0
  -25.0073  -33.9769   25.0475 H   0  0  0  0  0  0
  -22.6982  -31.3068   21.4097 H   0  0  0  0  0  0
  -23.3740  -35.9655   23.3323 H   0  0  0  0  0  0
  -24.3591  -36.8915   22.2053 H   0  0  0  0  0  0
  -23.7257  -37.6529   23.6647 H   0  0  0  0  0  0
  -26.0526  -31.5908   20.5953 H   0  0  0  0  0  0
  -26.8266  -30.8799   21.9834 H   0  0  0  0  0  0
  -28.1057  -29.0727   21.1784 H   0  0  0  0  0  0
  -26.0537  -25.9693   19.0011 H   0  0  0  0  0  0
  -23.9822  -27.3047   19.0173 H   0  0  0  0  0  0
  -23.7291  -30.6019   19.4060 H   0  0  0  0  0  0
  -22.7412  -29.2473   19.8638 H   0  0  0  0  0  0
  -25.1286  -36.1968   25.0830 H   0  0  0  0  0  0
  -20.9949  -28.3234   24.1433 H   0  0  0  0  0  0
  -20.5678  -26.2268   23.3606 H   0  0  0  0  0  0
  -21.6628  -26.7444   22.1205 H   0  0  0  0  0  0
  -19.6921  -25.6301   21.1227 H   0  0  0  0  0  0
  -19.6696  -27.3199   20.6752 H   0  0  0  0  0  0
  -17.4196  -26.6669   21.4012 H   0  0  0  0  0  0
  -18.0311  -26.0066   22.9011 H   0  0  0  0  0  0
  -19.7941  -30.7236   24.2278 H   0  0  0  0  0  0
  -17.5030  -31.6266   24.5151 H   0  0  0  0  0  0
  -15.5352  -30.2990   23.7663 H   0  0  0  0  0  0
  -15.8662  -28.0839   22.7042 H   0  0  0  0  0  0
  -24.5916  -30.7059   25.7821 H   0  0  0  0  0  0
  -24.8946  -32.2859   26.4934 H   0  0  0  0  0  0
  -25.8100  -30.8869   27.0227 H   0  0  0  0  0  0
  -26.2864  -29.6791   24.1163 H   0  0  0  0  0  0
  -27.4118  -29.7284   25.4548 H   0  0  0  0  0  0
  -27.8679  -30.4373   23.9231 H   0  0  0  0  0  0
  -27.2671  -33.3608   26.2078 H   0  0  0  0  0  0
  -28.3842  -32.6891   25.0300 H   0  0  0  0  0  0
  -28.0733  -31.8433   26.5386 H   0  0  0  0  0  0
  -28.2592  -38.0103   24.7502 H   0  0  0  0  0  0
  -28.1071  -36.2630   24.6294 H   0  0  0  0  0  0
  -27.2294  -37.1463   25.8870 H   0  0  0  0  0  0
  -20.9313  -29.8788   21.6962 H   0  0  0  0  0  0
  -26.0181  -38.2866   24.1419 H   0  0  0  0  0  0
  -27.5478  -16.1123   19.1141 H   0  0  0  0  0  0
  -26.2334  -18.0606   19.7244 H   0  0  0  0  0  0
  -31.0925  -17.9165   20.7480 H   0  0  0  0  0  0
  -28.3273  -24.7357   22.9455 H   0  0  0  0  0  0
  -27.8818  -26.4148   22.7230 H   0  0  0  0  0  0
  -29.5521  -25.9212   22.4860 H   0  0  0  0  0  0
  -30.0502  -16.3004   17.5865 H   0  0  0  0  0  0
  -31.1917  -14.9897   17.8408 H   0  0  0  0  0  0
  -31.5715  -16.6042   18.4258 H   0  0  0  0  0  0
  -29.9318  -20.5382   18.4945 H   0  0  0  0  0  0
  -31.3233  -21.5047   18.9788 H   0  0  0  0  0  0
  -29.8938  -22.2814   18.2968 H   0  0  0  0  0  0
  -31.0645  -20.3244   21.2544 H   0  0  0  0  0  0
  -29.6612  -20.6790   22.2285 H   0  0  0  0  0  0
  -29.8829  -24.7764   20.5176 H   0  0  0  0  0  0
  -28.2690  -23.5629   20.7076 H   0  0  0  0  0  0
  -29.7056  -22.9668   21.9755 H   0  0  0  0  0  0
  -30.9713  -23.1808   20.8213 H   0  0  0  0  0  0
  -27.1449  -25.0806   20.8209 H   0  0  0  0  0  0
  -28.6548  -21.5578   20.2052 H   0  0  0  0  0  0
  1 25  1  0  0  0
  1 30  2  0  0  0
  1 84  1  0  0  0
  2  3  1  0  0  0
  2 25  1  0  0  0
  2 87  1  0  0  0
  2 88  1  0  0  0
  3  4  1  0  0  0
  3 89  1  0  0  0
  3 90  1  0  0  0
  4  5  1  0  0  0
  4 91  1  0  0  0
  4 92  1  0  0  0
  5  6  1  0  0  0
  5 26  1  0  0  0
  5 93  1  0  0  0
  6 25  1  0  0  0
  6 94  1  0  0  0
  6 95  1  0  0  0
  7  8  2  0  0  0
  7 26  1  0  0  0
  7 29  1  0  0  0
  8  9  1  0  0  0
  8 22  1  0  0  0
  9 10  1  0  0  0
  9 27  2  0  0  0
 10 11  2  0  0  0
 10 15  1  0  0  0
 11 12  1  0  0  0
 11 96  1  0  0  0
 12 13  2  0  0  0
 12 97  1  0  0  0
 13 14  1  0  0  0
 13 31  1  0  0  0
 14 15  2  0  0  0
 14 98  1  0  0  0
 15 99  1  0  0  0
 16 17  2  0  0  0
 16 21  1  0  0  0
 16 31  1  0  0  0
 17 18  1  0  0  0
 17100  1  0  0  0
 18 19  2  0  0  0
 18101  1  0  0  0
 19 20  1  0  0  0
 19 24  1  0  0  0
 20 21  2  0  0  0
 20102  1  0  0  0
 21 23  1  0  0  0
 22 28  1  0  0  0
 22 32  2  0  0  0
 26 27  1  0  0  0
 28103  1  0  0  0
 28104  1  0  0  0
 29105  1  0  0  0
 29106  1  0  0  0
 33 34  1  0  0  0
 33 66  1  0  0  0
 33 70  2  0  0  0
 34 36  1  0  0  0
 34 59  1  0  0  0
 34107  1  0  0  0
 35 44  2  0  0  0
 35 45  1  0  0  0
 35 68  1  0  0  0
 36 56  1  0  0  0
 36108  1  0  0  0
 37 39  1  0  0  0
 37 47  1  0  0  0
 37 66  1  0  0  0
 37109  1  0  0  0
 38 43  2  0  0  0
 38 46  1  0  0  0
 38 47  1  0  0  0
 39 64  1  0  0  0
 39 67  2  0  0  0
 40 52  1  0  0  0
 40 53  2  0  0  0
 40 58  1  0  0  0
 41110  1  0  0  0
 41111  1  0  0  0
 41112  1  0  0  0
 41 48  1  0  0  0
 42 43  1  0  0  0
 42 66  1  0  0  0
 42113  1  0  0  0
 42114  1  0  0  0
 43 44  1  0  0  0
 44115  1  0  0  0
 45 46  2  0  0  0
 45116  1  0  0  0
 46117  1  0  0  0
 47118  1  0  0  0
 47119  1  0  0  0
 48 56  1  0  0  0
 48 65  1  0  0  0
 48120  1  0  0  0
 49 50  1  0  0  0
 49 53  1  0  0  0
 49 64  1  0  0  0
 49121  1  0  0  0
 50 51  1  0  0  0
 50122  1  0  0  0
 50123  1  0  0  0
 51 52  1  0  0  0
 51124  1  0  0  0
 51125  1  0  0  0
 52126  1  0  0  0
 52127  1  0  0  0
 53 54  1  0  0  0
 54 55  2  0  0  0
 54128  1  0  0  0
 55 57  1  0  0  0
 55129  1  0  0  0
 56 69  2  0  0  0
 57 58  2  0  0  0
 57130  1  0  0  0
 58131  1  0  0  0
 59 60  1  0  0  0
 59 61  1  0  0  0
 59 62  1  0  0  0
 60132  1  0  0  0
 60133  1  0  0  0
 60134  1  0  0  0
 61135  1  0  0  0
 61136  1  0  0  0
 61137  1  0  0  0
 62138  1  0  0  0
 62139  1  0  0  0
 62140  1  0  0  0
 63 65  1  0  0  0
 63141  1  0  0  0
 63142  1  0  0  0
 63143  1  0  0  0
 64144  1  0  0  0
 65145  1  0  0  0
 68 83  1  0  0  0
 71 72  2  0  0  0
 71 75  1  0  0  0
 71146  1  0  0  0
 72 76  1  0  0  0
 72147  1  0  0  0
 73 74  1  0  0  0
 73 75  2  0  0  0
 73148  1  0  0  0
 74 76  2  0  0  0
 74 80  1  0  0  0
 75 84  1  0  0  0
 76 86  1  0  0  0
 77149  1  0  0  0
 77150  1  0  0  0
 77151  1  0  0  0
 77 83  1  0  0  0
 78 84  1  0  0  0
 78152  1  0  0  0
 78153  1  0  0  0
 78154  1  0  0  0
 79155  1  0  0  0
 79156  1  0  0  0
 79157  1  0  0  0
 79 85  1  0  0  0
 80 85  1  0  0  0
 80158  1  0  0  0
 80159  1  0  0  0
 81 82  1  0  0  0
 81 83  1  0  0  0
 81160  1  0  0  0
 81161  1  0  0  0
 82 85  1  0  0  0
 82162  1  0  0  0
 82163  1  0  0  0
 83164  1  0  0  0
 85165  1  0  0  0
M  CHG  1  85   1
M  ISO  4   1 100  68 101  83 101  84 100
M  END
> <chiral flag>
0

> <version>
0

> <s_m_source_file>
/data/baiqing/PycharmProjects/Reinvent-master-3.2/result/LINK_invent/BTK/process_docking_weight1_custom_product_contain_oxygen_bond_distance_aromatic_linkinvent_7_9_3/rearranged_h_0020.sdf

> <i_m_source_file_index>
9

> <r_mmod_Potential_Energy-OPLS-2005>
354.756195068359

> <r_mmod_Stretch_Energy-OPLS-2005>
57.5765075683594

> <r_mmod_Bend_Energy-OPLS-2005>
343.847869873047

> <r_mmod_Torsional_Energy-OPLS-2005>
361.751190185547

> <r_mmod_Improper_Torsional_Energy-OPLS-2005>
32.9086227416992

> <r_mmod_Van_der_Waal_Energy-OPLS-2005>
165.014465332031

> <r_mmod_Electrostatic_Energy-OPLS-2005>
-237.443786621094

> <r_mmod_Solvation_Energy-OPLS-2005>
-427.012420654297

> <b_mmod_Minimization_Converged-OPLS-2005>
0

> <r_mmod_RMS_Derivative-OPLS-2005>
1.43160021305084

$$$$
9
                    3D
 Structure written by MMmdl.
161169  0  0  1  0            999 V2000
  -29.0289  -17.5236   20.7111 C   0  0  0  0  0  0
  -29.9541  -14.6256   19.6965 C   0  0  0  0  0  0
  -29.5028  -13.4635   18.6120 C   0  0  0  0  0  0
  -28.3461  -12.5878   19.0804 C   0  0  0  0  0  0
  -27.5085  -13.5621   19.9182 C   0  0  2  0  0  0
  -28.2439  -14.5052   20.9860 C   0  0  0  0  0  0
  -25.1557  -13.8570   20.5877 C   0  0  0  0  0  0
  -24.1312  -13.0362   20.9351 C   0  0  0  0  0  0
  -24.6431  -11.7032   20.8779 C   0  0  0  0  0  0
  -23.9203  -10.4246   21.0337 C   0  0  0  0  0  0
  -24.3758   -9.4215   21.9159 C   0  0  0  0  0  0
  -23.6403   -8.2289   22.0738 C   0  0  0  0  0  0
  -22.4369   -8.0322   21.3563 C   0  0  0  0  0  0
  -22.0036   -9.0247   20.4612 C   0  0  0  0  0  0
  -22.7364  -10.2095   20.2966 C   0  0  0  0  0  0
  -21.6895   -6.0779   22.5272 C   0  0  0  0  0  0
  -21.4044   -6.5661   23.8205 C   0  0  0  0  0  0
  -21.3671   -5.6809   24.9165 C   0  0  0  0  0  0
  -21.6034   -4.3065   24.7216 C   0  0  0  0  0  0
  -21.8826   -3.8170   23.4330 C   0  0  0  0  0  0
  -21.9201   -4.6998   22.3391 C   0  0  0  0  0  0
  -22.7302  -13.4930   21.2005 C   0  0  0  0  0  0
  -22.1675   -4.2164   21.0981 F   0  0  0  0  0  0
  -21.5613   -3.4542   25.7737 F   0  0  0  0  0  0
  -28.9313  -15.7875   20.3963 N   0  0  0  0  0  0
  -26.2456  -13.0563   20.3880 N   0  0  0  0  0  0
  -25.9488  -11.7386   20.5660 N   0  0  0  0  0  0
  -22.0070  -12.7833   22.0575 N   0  0  0  0  0  0
  -25.2426  -15.2370   20.4264 N   0  0  0  0  0  0
  -30.3231  -17.2820   20.6355 O   0  0  0  0  0  0
  -21.6702   -6.8946   21.4258 O   0  0  0  0  0  0
  -22.2963  -14.5230   20.6804 O   0  0  0  0  0  0
  -24.8329  -31.3610   23.1603 C   0  0  0  0  0  0
  -25.9748  -32.2542   23.8012 C   0  0  1  0  0  0
  -28.4078  -27.1587   18.9460 C   0  0  0  0  0  0
  -25.5497  -33.6756   24.0766 N   0  0  0  0  0  0
  -23.5676  -29.2531   21.9172 C   0  0  2  0  0  0
  -24.8452  -26.5320   19.8510 C   0  0  0  0  0  0
  -22.5501  -29.2404   22.9722 C   0  0  0  0  0  0
  -17.9606  -28.1632   22.8049 C   0  0  0  0  0  0
  -24.1418  -36.6440   23.2738 C   0  0  0  0  0  0
  -26.7061  -29.3172   22.3596 C   0  0  0  0  0  0
  -27.1790  -27.4919   21.5467 C   0  0  0  0  0  0
  -28.4506  -27.6225   20.5972 C   0  0  0  0  0  0
  -26.9985  -26.6351   17.9214 C   0  0  0  0  0  0
  -25.3449  -26.4277   18.3200 C   0  0  0  0  0  0
  -23.2800  -27.7797   20.4669 C   0  0  0  0  0  0
  -25.4187  -36.2002   24.0077 C   0  0  1  0  0  0
  -20.4235  -28.3081   23.2026 C   0  0  2  0  0  0
  -20.5403  -26.8638   22.6884 C   0  0  0  0  0  0
  -19.5556  -26.6025   21.5561 C   0  0  0  0  0  0
  -18.1342  -26.8186   22.1036 C   0  0  0  0  0  0
  -19.0624  -28.8962   23.2627 C   0  0  0  0  0  0
  -18.9107  -30.1552   23.8696 C   0  0  0  0  0  0
  -17.6259  -30.6806   24.0530 C   0  0  0  0  0  0
  -25.9247  -34.8254   23.4680 C   0  0  0  0  0  0
  -16.5089  -29.9326   23.6320 C   0  0  0  0  0  0
  -16.6746  -28.6821   23.0077 C   0  0  0  0  0  0
  -26.4677  -31.6727   25.1881 C   0  0  0  0  0  0
  -25.2946  -31.4904   26.1860 C   0  0  0  0  0  0
  -27.1426  -30.2988   25.1636 C   0  0  0  0  0  0
  -27.5689  -32.5925   25.7866 C   0  0  0  0  0  0
  -27.5353  -37.1357   24.8478 C   0  0  0  0  0  0
  -21.3306  -29.2192   22.5495 N   0  0  0  0  0  0
  -26.4148  -37.2918   23.9260 N   0  0  0  0  0  0
  -25.0703  -30.1213   22.4532 N   0  0  0  0  0  0
  -22.8880  -28.9575   24.1318 O   0  0  0  0  0  0
  -29.6408  -26.9667   18.6650 O   0  0  0  0  0  0
  -26.6460  -34.8162   22.4703 O   0  0  0  0  0  0
  -23.7029  -31.8453   23.4269 O   0  0  0  0  0  0
  -25.4298  -26.0930   21.9472 C   0  0  0  0  0  0
  -25.4118  -28.3224   20.8113 C   0  0  0  0  0  0
  -26.1799  -24.0923   21.7368 C   0  0  0  0  0  0
  -26.3674  -28.0935   19.6192 C   0  0  0  0  0  0
  -27.1742  -24.9456   21.2840 C   0  0  0  0  0  0
  -26.9406  -25.7878   20.0885 C   0  0  0  0  0  0
  -25.9329  -20.0980   19.7212 C   0  0  0  0  0  0
  -27.4166  -21.7509   21.4093 C   0  0  0  0  0  0
  -28.7947  -28.2047   16.6277 C   0  0  0  0  0  0
  -26.6279  -19.0133   20.5868 C   0  0  0  0  0  0
  -27.8232  -29.3166   17.4624 C   0  0  0  0  0  0
  -29.7077  -27.0197   17.2704 C   0  0  0  0  0  0
  -26.6571  -29.1207   18.5186 N   0  0  0  0  0  0
  -27.9957  -19.3252   20.9744 N   0  0  0  0  0  0
  -28.2157  -25.1082   22.1444 F   0  0  0  0  0  0
  -27.1126  -24.6985   19.2185 F   0  0  0  0  0  0
  -30.6578  -15.2168   19.1224 H   0  0  0  0  0  0
  -30.6106  -14.1814   20.4545 H   0  0  0  0  0  0
  -30.3382  -12.8254   18.3421 H   0  0  0  0  0  0
  -29.1730  -13.9148   17.6844 H   0  0  0  0  0  0
  -28.6924  -11.7607   19.7158 H   0  0  0  0  0  0
  -27.7813  -12.1197   18.2581 H   0  0  0  0  0  0
  -27.1971  -14.2400   19.1293 H   0  0  0  0  0  0
  -28.8680  -13.9226   21.6621 H   0  0  0  0  0  0
  -27.5226  -14.8615   21.7060 H   0  0  0  0  0  0
  -25.2875   -9.5753   22.4771 H   0  0  0  0  0  0
  -24.0061   -7.4735   22.7491 H   0  0  0  0  0  0
  -21.0974   -8.8817   19.8938 H   0  0  0  0  0  0
  -22.3849  -10.9674   19.6089 H   0  0  0  0  0  0
  -21.2069   -7.6167   23.9719 H   0  0  0  0  0  0
  -21.1473   -6.0537   25.9070 H   0  0  0  0  0  0
  -22.0587   -2.7620   23.2825 H   0  0  0  0  0  0
  -22.3863  -11.9571   22.4976 H   0  0  0  0  0  0
  -21.0643  -13.0729   22.2699 H   0  0  0  0  0  0
  -24.4155  -15.8246   20.5006 H   0  0  0  0  0  0
  -26.0541  -15.7261   20.0772 H   0  0  0  0  0  0
  -26.7873  -32.2568   23.0855 H   0  0  0  0  0  0
  -24.8258  -33.7729   24.7738 H   0  0  0  0  0  0
  -23.9758  -28.4134   22.5341 H   0  0  0  0  0  0
  -23.3711  -35.8712   23.3431 H   0  0  0  0  0  0
  -24.3295  -36.8167   22.2114 H   0  0  0  0  0  0
  -23.7207  -37.5574   23.6983 H   0  0  0  0  0  0
  -27.0948  -29.9769   21.5727 H   0  0  0  0  0  0
  -27.5518  -29.5700   22.9642 H   0  0  0  0  0  0
  -29.3713  -28.0390   21.0285 H   0  0  0  0  0  0
  -27.2176  -26.2512   16.9320 H   0  0  0  0  0  0
  -24.6628  -26.2445   17.5385 H   0  0  0  0  0  0
  -23.0638  -28.4073   19.6094 H   0  0  0  0  0  0
  -22.4140  -27.1322   20.7030 H   0  0  0  0  0  0
  -25.1560  -36.0576   25.0496 H   0  0  0  0  0  0
  -20.6617  -28.2432   24.2578 H   0  0  0  0  0  0
  -20.2432  -26.2196   23.5223 H   0  0  0  0  0  0
  -21.5613  -26.5446   22.4966 H   0  0  0  0  0  0
  -19.6638  -25.5799   21.1909 H   0  0  0  0  0  0
  -19.7361  -27.2749   20.7121 H   0  0  0  0  0  0
  -17.4065  -26.7388   21.2918 H   0  0  0  0  0  0
  -17.9019  -26.0231   22.8151 H   0  0  0  0  0  0
  -19.7683  -30.7051   24.2207 H   0  0  0  0  0  0
  -17.4984  -31.6338   24.5406 H   0  0  0  0  0  0
  -15.5163  -30.3349   23.7723 H   0  0  0  0  0  0
  -15.8121  -28.1213   22.6837 H   0  0  0  0  0  0
  -24.5811  -30.7463   25.8283 H   0  0  0  0  0  0
  -24.7429  -32.4151   26.3498 H   0  0  0  0  0  0
  -25.6238  -31.1431   27.1644 H   0  0  0  0  0  0
  -26.5067  -29.4810   24.8316 H   0  0  0  0  0  0
  -27.3297  -30.0182   26.2059 H   0  0  0  0  0  0
  -28.1549  -30.3191   24.7579 H   0  0  0  0  0  0
  -27.1870  -33.5726   26.0789 H   0  0  0  0  0  0
  -28.3654  -32.7524   25.0565 H   0  0  0  0  0  0
  -28.0280  -32.1584   26.6754 H   0  0  0  0  0  0
  -28.2529  -37.9522   24.7306 H   0  0  0  0  0  0
  -28.0749  -36.2006   24.6796 H   0  0  0  0  0  0
  -27.1979  -37.1515   25.8870 H   0  0  0  0  0  0
  -21.2765  -29.4020   21.5691 H   0  0  0  0  0  0
  -25.9898  -38.1921   24.1101 H   0  0  0  0  0  0
  -24.4163  -26.1287   22.3451 H   0  0  0  0  0  0
  -24.9786  -29.2076   20.3558 H   0  0  0  0  0  0
  -25.4322  -20.8213   20.3683 H   0  0  0  0  0  0
  -25.1492  -19.6795   19.0915 H   0  0  0  0  0  0
  -26.6632  -20.5910   19.0827 H   0  0  0  0  0  0
  -28.4036  -22.1466   21.6540 H   0  0  0  0  0  0
  -27.1001  -21.4206   22.4155 H   0  0  0  0  0  0
  -29.5052  -28.7479   15.9787 H   0  0  0  0  0  0
  -28.2053  -27.7133   15.8450 H   0  0  0  0  0  0
  -26.6000  -18.0704   20.0567 H   0  0  0  0  0  0
  -26.0031  -18.7787   21.4443 H   0  0  0  0  0  0
  -27.2726  -29.7163   16.6031 H   0  0  0  0  0  0
  -28.4629  -30.1466   17.7883 H   0  0  0  0  0  0
  -30.7503  -26.9943   16.9703 H   0  0  0  0  0  0
  -29.3993  -26.0168   16.9497 H   0  0  0  0  0  0
  -25.8185  -29.5789   18.1711 H   0  0  0  0  0  0
  1 25  1  0  0  0
  1 30  2  0  0  0
  1 84  1  0  0  0
  2  3  1  0  0  0
  2 25  1  0  0  0
  2 87  1  0  0  0
  2 88  1  0  0  0
  3  4  1  0  0  0
  3 89  1  0  0  0
  3 90  1  0  0  0
  4  5  1  0  0  0
  4 91  1  0  0  0
  4 92  1  0  0  0
  5  6  1  0  0  0
  5 26  1  0  0  0
  5 93  1  0  0  0
  6 25  1  0  0  0
  6 94  1  0  0  0
  6 95  1  0  0  0
  7  8  2  0  0  0
  7 26  1  0  0  0
  7 29  1  0  0  0
  8  9  1  0  0  0
  8 22  1  0  0  0
  9 10  1  0  0  0
  9 27  2  0  0  0
 10 11  2  0  0  0
 10 15  1  0  0  0
 11 12  1  0  0  0
 11 96  1  0  0  0
 12 13  2  0  0  0
 12 97  1  0  0  0
 13 14  1  0  0  0
 13 31  1  0  0  0
 14 15  2  0  0  0
 14 98  1  0  0  0
 15 99  1  0  0  0
 16 17  2  0  0  0
 16 21  1  0  0  0
 16 31  1  0  0  0
 17 18  1  0  0  0
 17100  1  0  0  0
 18 19  2  0  0  0
 18101  1  0  0  0
 19 20  1  0  0  0
 19 24  1  0  0  0
 20 21  2  0  0  0
 20102  1  0  0  0
 21 23  1  0  0  0
 22 28  1  0  0  0
 22 32  2  0  0  0
 26 27  1  0  0  0
 28103  1  0  0  0
 28104  1  0  0  0
 29105  1  0  0  0
 29106  1  0  0  0
 33 34  1  0  0  0
 33 66  1  0  0  0
 33 70  2  0  0  0
 34 36  1  0  0  0
 34 59  1  0  0  0
 34107  1  0  0  0
 35 44  2  0  0  0
 35 45  1  0  0  0
 35 68  1  0  0  0
 36 56  1  0  0  0
 36108  1  0  0  0
 37 39  1  0  0  0
 37 47  1  0  0  0
 37 66  1  0  0  0
 37109  1  0  0  0
 38 43  2  0  0  0
 38 46  1  0  0  0
 38 47  1  0  0  0
 39 64  1  0  0  0
 39 67  2  0  0  0
 40 52  1  0  0  0
 40 53  2  0  0  0
 40 58  1  0  0  0
 41110  1  0  0  0
 41111  1  0  0  0
 41112  1  0  0  0
 41 48  1  0  0  0
 42 43  1  0  0  0
 42 66  1  0  0  0
 42113  1  0  0  0
 42114  1  0  0  0
 43 44  1  0  0  0
 44115  1  0  0  0
 45 46  2  0  0  0
 45116  1  0  0  0
 46117  1  0  0  0
 47118  1  0  0  0
 47119  1  0  0  0
 48 56  1  0  0  0
 48 65  1  0  0  0
 48120  1  0  0  0
 49 50  1  0  0  0
 49 53  1  0  0  0
 49 64  1  0  0  0
 49121  1  0  0  0
 50 51  1  0  0  0
 50122  1  0  0  0
 50123  1  0  0  0
 51 52  1  0  0  0
 51124  1  0  0  0
 51125  1  0  0  0
 52126  1  0  0  0
 52127  1  0  0  0
 53 54  1  0  0  0
 54 55  2  0  0  0
 54128  1  0  0  0
 55 57  1  0  0  0
 55129  1  0  0  0
 56 69  2  0  0  0
 57 58  2  0  0  0
 57130  1  0  0  0
 58131  1  0  0  0
 59 60  1  0  0  0
 59 61  1  0  0  0
 59 62  1  0  0  0
 60132  1  0  0  0
 60133  1  0  0  0
 60134  1  0  0  0
 61135  1  0  0  0
 61136  1  0  0  0
 61137  1  0  0  0
 62138  1  0  0  0
 62139  1  0  0  0
 62140  1  0  0  0
 63 65  1  0  0  0
 63141  1  0  0  0
 63142  1  0  0  0
 63143  1  0  0  0
 64144  1  0  0  0
 65145  1  0  0  0
 68 82  1  0  0  0
 71 72  2  0  0  0
 71 73  1  0  0  0
 71146  1  0  0  0
 72 74  1  0  0  0
 72147  1  0  0  0
 73 75  2  0  0  0
 73 78  1  0  0  0
 74 76  2  0  0  0
 74 83  1  0  0  0
 75 76  1  0  0  0
 75 85  1  0  0  0
 76 86  1  0  0  0
 77 80  1  0  0  0
 77148  1  0  0  0
 77149  1  0  0  0
 77150  1  0  0  0
 78 84  1  0  0  0
 78151  1  0  0  0
 78152  1  0  0  0
 79 81  1  0  0  0
 79 82  1  0  0  0
 79153  1  0  0  0
 79154  1  0  0  0
 80 84  1  0  0  0
 80155  1  0  0  0
 80156  1  0  0  0
 81 83  1  0  0  0
 81157  1  0  0  0
 81158  1  0  0  0
 82159  1  0  0  0
 82160  1  0  0  0
 83161  1  0  0  0
M  ISO  4   1 100  68 101  82 101  84 100
M  END
> <chiral flag>
0

> <version>
0

> <s_m_source_file>
/data/baiqing/PycharmProjects/Reinvent-master-3.2/result/LINK_invent/BTK/process_docking_weight1_custom_product_contain_oxygen_bond_distance_aromatic_linkinvent_7_9_3/rearranged_h_0020.sdf

> <i_m_source_file_index>
10

> <r_mmod_Potential_Energy-OPLS-2005>
35288.40625

> <r_mmod_Stretch_Energy-OPLS-2005>
18685.830078125

> <r_mmod_Bend_Energy-OPLS-2005>
2415.6552734375

> <r_mmod_Torsional_Energy-OPLS-2005>
807.107788085938

> <r_mmod_Improper_Torsional_Energy-OPLS-2005>
77.8786087036133

> <r_mmod_Van_der_Waal_Energy-OPLS-2005>
5526.759765625

> <r_mmod_Electrostatic_Energy-OPLS-2005>
-223.041473388672

> <r_mmod_Solvation_Energy-OPLS-2005>
-240.125732421875

> <b_mmod_Minimization_Converged-OPLS-2005>
0

> <r_mmod_RMS_Derivative-OPLS-2005>
99.9990005493164

$$$$
10
                    3D
 Structure written by MMmdl.
161169  0  0  1  0            999 V2000
  -30.8063  -14.4409   20.6560 C   0  0  0  0  0  0
  -30.3939  -12.3157   19.4563 C   0  0  0  0  0  0
  -29.4933  -12.5400   18.2247 C   0  0  0  0  0  0
  -28.0154  -12.3705   18.6153 C   0  0  0  0  0  0
  -27.6528  -13.2080   19.8680 C   0  0  2  0  0  0
  -28.6824  -12.9983   20.9982 C   0  0  0  0  0  0
  -25.2537  -13.8155   20.5658 C   0  0  0  0  0  0
  -24.1800  -13.0431   20.9135 C   0  0  0  0  0  0
  -24.6351  -11.6898   20.8676 C   0  0  0  0  0  0
  -23.9036  -10.4290   21.0364 C   0  0  0  0  0  0
  -24.3592   -9.4234   21.9160 C   0  0  0  0  0  0
  -23.6271   -8.2277   22.0762 C   0  0  0  0  0  0
  -22.4257   -8.0298   21.3546 C   0  0  0  0  0  0
  -21.9875   -9.0265   20.4650 C   0  0  0  0  0  0
  -22.7198  -10.2139   20.3039 C   0  0  0  0  0  0
  -21.6846   -6.0739   22.5280 C   0  0  0  0  0  0
  -21.4028   -6.5644   23.8216 C   0  0  0  0  0  0
  -21.3672   -5.6792   24.9171 C   0  0  0  0  0  0
  -21.6052   -4.3057   24.7216 C   0  0  0  0  0  0
  -21.8813   -3.8150   23.4334 C   0  0  0  0  0  0
  -21.9194   -4.6970   22.3396 C   0  0  0  0  0  0
  -22.7838  -13.5260   21.1830 C   0  0  0  0  0  0
  -22.1656   -4.2157   21.0972 F   0  0  0  0  0  0
  -21.5629   -3.4545   25.7730 F   0  0  0  0  0  0
  -30.0290  -13.3198   20.4819 N   0  0  0  0  0  0
  -26.2947  -12.9320   20.3270 N   0  0  0  0  0  0
  -25.9268  -11.6474   20.5675 N   0  0  0  0  0  0
  -22.0473  -12.8271   22.0393 N   0  0  0  0  0  0
  -25.4241  -15.1880   20.4165 N   0  0  0  0  0  0
  -31.8838  -14.5311   20.0528 O   0  0  0  0  0  0
  -21.6637   -6.8881   21.4240 O   0  0  0  0  0  0
  -22.3546  -14.5583   20.6694 O   0  0  0  0  0  0
  -24.6126  -31.8701   23.2104 C   0  0  0  0  0  0
  -25.9051  -32.4813   23.8400 C   0  0  1  0  0  0
  -27.2510  -27.4492   20.0950 C   0  0  0  0  0  0
  -25.5966  -33.8616   24.2346 N   0  0  0  0  0  0
  -23.3981  -30.4900   21.5485 C   0  0  2  0  0  0
  -24.8493  -28.9559   20.1187 C   0  0  0  0  0  0
  -22.7391  -29.4638   22.4989 C   0  0  0  0  0  0
  -18.0254  -28.1399   22.8496 C   0  0  0  0  0  0
  -24.1485  -36.7215   23.2643 C   0  0  0  0  0  0
  -25.9275  -30.8410   21.3604 C   0  0  0  0  0  0
  -26.0074  -29.4754   20.7070 C   0  0  0  0  0  0
  -27.2061  -28.7321   20.6879 C   0  0  0  0  0  0
  -26.0669  -26.9324   19.5180 C   0  0  0  0  0  0
  -24.8731  -27.6830   19.5241 C   0  0  0  0  0  0
  -23.6091  -29.8191   20.1631 C   0  0  0  0  0  0
  -25.4132  -36.3090   24.0339 C   0  0  1  0  0  0
  -20.5842  -28.3640   23.1346 C   0  0  2  0  0  0
  -20.6739  -26.9386   22.5414 C   0  0  0  0  0  0
  -19.5737  -26.6398   21.5204 C   0  0  0  0  0  0
  -18.1915  -26.7954   22.1614 C   0  0  0  0  0  0
  -19.1503  -28.8839   23.2909 C   0  0  0  0  0  0
  -18.9453  -30.1460   23.8895 C   0  0  0  0  0  0
  -17.6464  -30.6609   24.0580 C   0  0  0  0  0  0
  -25.9088  -34.9466   23.5126 C   0  0  0  0  0  0
  -16.5342  -29.9141   23.6332 C   0  0  0  0  0  0
  -16.7239  -28.6550   23.0345 C   0  0  0  0  0  0
  -26.4499  -31.6559   25.0715 C   0  0  0  0  0  0
  -25.3781  -31.3609   26.1463 C   0  0  0  0  0  0
  -27.0306  -30.3018   24.6058 C   0  0  0  0  0  0
  -27.6088  -32.4228   25.7512 C   0  0  0  0  0  0
  -27.5579  -37.1772   24.8505 C   0  0  0  0  0  0
  -21.4117  -29.2995   22.3747 N   0  0  0  0  0  0
  -26.4307  -37.3791   23.9435 N   0  0  0  0  0  0
  -24.6629  -31.0854   22.0965 N   0  0  0  0  0  0
  -23.4166  -28.8173   23.3023 O   0  0  0  0  0  0
  -28.4706  -26.7992   20.0946 O   0  0  0  0  0  0
  -26.5622  -34.8928   22.4668 O   0  0  0  0  0  0
  -23.5319  -32.1398   23.7535 O   0  0  0  0  0  0
  -30.3551  -18.7805   22.6159 C   0  0  0  0  0  0
  -29.9595  -18.8911   20.2265 C   0  0  0  0  0  0
  -29.8311  -20.0814   22.7618 C   0  0  0  0  0  0
  -29.4581  -20.2037   20.3721 C   0  0  0  0  0  0
  -30.4165  -18.1624   21.3494 C   0  0  0  0  0  0
  -29.3796  -20.8229   21.6444 C   0  0  0  0  0  0
  -27.8668  -22.2685   22.8739 C   0  0  0  0  0  0
  -29.6876  -15.4497   22.6520 C   0  0  0  0  0  0
  -31.1228  -16.8134   21.1668 C   0  0  0  0  0  0
  -28.6103  -24.5288   21.0262 C   0  0  0  0  0  0
  -28.8306  -23.0368   20.6670 C   0  0  0  0  0  0
  -28.5950  -25.4140   19.7657 C   0  0  0  0  0  0
  -28.8804  -22.1354   21.8249 N   0  0  0  0  0  0
  -30.3634  -15.5365   21.3509 N   0  0  0  0  0  0
  -31.4424  -12.3557   19.1590 H   0  0  0  0  0  0
  -30.2572  -11.3061   19.8494 H   0  0  0  0  0  0
  -29.7605  -11.8459   17.4269 H   0  0  0  0  0  0
  -29.6513  -13.5433   17.8228 H   0  0  0  0  0  0
  -27.8399  -11.3109   18.8084 H   0  0  0  0  0  0
  -27.3697  -12.6390   17.7778 H   0  0  0  0  0  0
  -27.6930  -14.2565   19.5726 H   0  0  0  0  0  0
  -28.6581  -11.9598   21.3338 H   0  0  0  0  0  0
  -28.3640  -13.5543   21.8690 H   0  0  0  0  0  0
  -25.2735   -9.5730   22.4723 H   0  0  0  0  0  0
  -23.9989   -7.4674   22.7481 H   0  0  0  0  0  0
  -21.0814   -8.8765   19.8956 H   0  0  0  0  0  0
  -22.3637  -10.9672   19.6147 H   0  0  0  0  0  0
  -21.2030   -7.6150   23.9720 H   0  0  0  0  0  0
  -21.1500   -6.0519   25.9072 H   0  0  0  0  0  0
  -22.0579   -2.7617   23.2825 H   0  0  0  0  0  0
  -22.4045  -11.9916   22.4769 H   0  0  0  0  0  0
  -21.1107  -13.1343   22.2595 H   0  0  0  0  0  0
  -24.6580  -15.8404   20.5457 H   0  0  0  0  0  0
  -26.2936  -15.6425   20.1644 H   0  0  0  0  0  0
  -26.7126  -32.5500   23.1163 H   0  0  0  0  0  0
  -25.0205  -33.9799   25.0558 H   0  0  0  0  0  0
  -22.6835  -31.3017   21.4047 H   0  0  0  0  0  0
  -23.3809  -35.9486   23.3377 H   0  0  0  0  0  0
  -24.3574  -36.8749   22.2045 H   0  0  0  0  0  0
  -23.7186  -37.6419   23.6595 H   0  0  0  0  0  0
  -26.0608  -31.6109   20.5985 H   0  0  0  0  0  0
  -26.8091  -30.8833   21.9857 H   0  0  0  0  0  0
  -28.1011  -29.1419   21.1325 H   0  0  0  0  0  0
  -26.0271  -25.9608   19.0518 H   0  0  0  0  0  0
  -23.9777  -27.2737   19.0767 H   0  0  0  0  0  0
  -23.7156  -30.5876   19.3975 H   0  0  0  0  0  0
  -22.7354  -29.2365   19.8651 H   0  0  0  0  0  0
  -25.1324  -36.1941   25.0833 H   0  0  0  0  0  0
  -20.9929  -28.3199   24.1469 H   0  0  0  0  0  0
  -20.5683  -26.2223   23.3574 H   0  0  0  0  0  0
  -21.6618  -26.7467   22.1208 H   0  0  0  0  0  0
  -19.6907  -25.6327   21.1213 H   0  0  0  0  0  0
  -19.6721  -27.3236   20.6760 H   0  0  0  0  0  0
  -17.4182  -26.6664   21.4016 H   0  0  0  0  0  0
  -18.0325  -26.0094   22.9013 H   0  0  0  0  0  0
  -19.7923  -30.7272   24.2255 H   0  0  0  0  0  0
  -17.5030  -31.6302   24.5183 H   0  0  0  0  0  0
  -15.5356  -30.3077   23.7672 H   0  0  0  0  0  0
  -15.8599  -28.0912   22.7064 H   0  0  0  0  0  0
  -24.5991  -30.6939   25.7787 H   0  0  0  0  0  0
  -24.8931  -32.2713   26.4962 H   0  0  0  0  0  0
  -25.8175  -30.8730   27.0170 H   0  0  0  0  0  0
  -26.2792  -29.6810   24.1166 H   0  0  0  0  0  0
  -27.4159  -29.7247   25.4476 H   0  0  0  0  0  0
  -27.8631  -30.4378   23.9156 H   0  0  0  0  0  0
  -27.2763  -33.3526   26.2145 H   0  0  0  0  0  0
  -28.3935  -32.6789   25.0379 H   0  0  0  0  0  0
  -28.0734  -31.8285   26.5410 H   0  0  0  0  0  0
  -28.2662  -38.0017   24.7568 H   0  0  0  0  0  0
  -28.1012  -36.2560   24.6325 H   0  0  0  0  0  0
  -27.2279  -37.1422   25.8907 H   0  0  0  0  0  0
  -20.9265  -29.8620   21.6898 H   0  0  0  0  0  0
  -26.0186  -38.2857   24.1474 H   0  0  0  0  0  0
  -30.7436  -18.2769   23.4888 H   0  0  0  0  0  0
  -30.0321  -18.4728   19.2321 H   0  0  0  0  0  0
  -29.8052  -20.5196   23.7487 H   0  0  0  0  0  0
  -29.1396  -20.7236   19.4822 H   0  0  0  0  0  0
  -27.4389  -21.3103   23.1725 H   0  0  0  0  0  0
  -27.0316  -22.8851   22.5437 H   0  0  0  0  0  0
  -28.2963  -22.7425   23.7559 H   0  0  0  0  0  0
  -29.8628  -14.4913   23.1442 H   0  0  0  0  0  0
  -28.6157  -15.6159   22.5369 H   0  0  0  0  0  0
  -30.0415  -16.1980   23.3540 H   0  0  0  0  0  0
  -31.9780  -16.7963   21.8453 H   0  0  0  0  0  0
  -31.5529  -16.8680   20.1636 H   0  0  0  0  0  0
  -29.4025  -24.8670   21.6973 H   0  0  0  0  0  0
  -27.6734  -24.6751   21.5629 H   0  0  0  0  0  0
  -29.7715  -22.9527   20.1178 H   0  0  0  0  0  0
  -28.0473  -22.7043   19.9844 H   0  0  0  0  0  0
  -27.8687  -25.0565   19.0387 H   0  0  0  0  0  0
  -29.5583  -25.3080   19.2670 H   0  0  0  0  0  0
  1 25  1  0  0  0
  1 30  2  0  0  0
  1 84  1  0  0  0
  2  3  1  0  0  0
  2 25  1  0  0  0
  2 85  1  0  0  0
  2 86  1  0  0  0
  3  4  1  0  0  0
  3 87  1  0  0  0
  3 88  1  0  0  0
  4  5  1  0  0  0
  4 89  1  0  0  0
  4 90  1  0  0  0
  5  6  1  0  0  0
  5 26  1  0  0  0
  5 91  1  0  0  0
  6 25  1  0  0  0
  6 92  1  0  0  0
  6 93  1  0  0  0
  7  8  2  0  0  0
  7 26  1  0  0  0
  7 29  1  0  0  0
  8  9  1  0  0  0
  8 22  1  0  0  0
  9 10  1  0  0  0
  9 27  2  0  0  0
 10 11  2  0  0  0
 10 15  1  0  0  0
 11 12  1  0  0  0
 11 94  1  0  0  0
 12 13  2  0  0  0
 12 95  1  0  0  0
 13 14  1  0  0  0
 13 31  1  0  0  0
 14 15  2  0  0  0
 14 96  1  0  0  0
 15 97  1  0  0  0
 16 17  2  0  0  0
 16 21  1  0  0  0
 16 31  1  0  0  0
 17 18  1  0  0  0
 17 98  1  0  0  0
 18 19  2  0  0  0
 18 99  1  0  0  0
 19 20  1  0  0  0
 19 24  1  0  0  0
 20 21  2  0  0  0
 20100  1  0  0  0
 21 23  1  0  0  0
 22 28  1  0  0  0
 22 32  2  0  0  0
 26 27  1  0  0  0
 28101  1  0  0  0
 28102  1  0  0  0
 29103  1  0  0  0
 29104  1  0  0  0
 33 34  1  0  0  0
 33 66  1  0  0  0
 33 70  2  0  0  0
 34 36  1  0  0  0
 34 59  1  0  0  0
 34105  1  0  0  0
 35 44  2  0  0  0
 35 45  1  0  0  0
 35 68  1  0  0  0
 36 56  1  0  0  0
 36106  1  0  0  0
 37 39  1  0  0  0
 37 47  1  0  0  0
 37 66  1  0  0  0
 37107  1  0  0  0
 38 43  2  0  0  0
 38 46  1  0  0  0
 38 47  1  0  0  0
 39 64  1  0  0  0
 39 67  2  0  0  0
 40 52  1  0  0  0
 40 53  2  0  0  0
 40 58  1  0  0  0
 41108  1  0  0  0
 41109  1  0  0  0
 41110  1  0  0  0
 41 48  1  0  0  0
 42 43  1  0  0  0
 42 66  1  0  0  0
 42111  1  0  0  0
 42112  1  0  0  0
 43 44  1  0  0  0
 44113  1  0  0  0
 45 46  2  0  0  0
 45114  1  0  0  0
 46115  1  0  0  0
 47116  1  0  0  0
 47117  1  0  0  0
 48 56  1  0  0  0
 48 65  1  0  0  0
 48118  1  0  0  0
 49 50  1  0  0  0
 49 53  1  0  0  0
 49 64  1  0  0  0
 49119  1  0  0  0
 50 51  1  0  0  0
 50120  1  0  0  0
 50121  1  0  0  0
 51 52  1  0  0  0
 51122  1  0  0  0
 51123  1  0  0  0
 52124  1  0  0  0
 52125  1  0  0  0
 53 54  1  0  0  0
 54 55  2  0  0  0
 54126  1  0  0  0
 55 57  1  0  0  0
 55127  1  0  0  0
 56 69  2  0  0  0
 57 58  2  0  0  0
 57128  1  0  0  0
 58129  1  0  0  0
 59 60  1  0  0  0
 59 61  1  0  0  0
 59 62  1  0  0  0
 60130  1  0  0  0
 60131  1  0  0  0
 60132  1  0  0  0
 61133  1  0  0  0
 61134  1  0  0  0
 61135  1  0  0  0
 62136  1  0  0  0
 62137  1  0  0  0
 62138  1  0  0  0
 63 65  1  0  0  0
 63139  1  0  0  0
 63140  1  0  0  0
 63141  1  0  0  0
 64142  1  0  0  0
 65143  1  0  0  0
 68 82  1  0  0  0
 71 73  2  0  0  0
 71 75  1  0  0  0
 71144  1  0  0  0
 72 74  1  0  0  0
 72 75  2  0  0  0
 72145  1  0  0  0
 73 76  1  0  0  0
 73146  1  0  0  0
 74 76  2  0  0  0
 74147  1  0  0  0
 75 79  1  0  0  0
 76 83  1  0  0  0
 77 83  1  0  0  0
 77148  1  0  0  0
 77149  1  0  0  0
 77150  1  0  0  0
 78 84  1  0  0  0
 78151  1  0  0  0
 78152  1  0  0  0
 78153  1  0  0  0
 79 84  1  0  0  0
 79154  1  0  0  0
 79155  1  0  0  0
 80 81  1  0  0  0
 80 82  1  0  0  0
 80156  1  0  0  0
 80157  1  0  0  0
 81 83  1  0  0  0
 81158  1  0  0  0
 81159  1  0  0  0
 82160  1  0  0  0
 82161  1  0  0  0
M  ISO  4   1 100  68 101  82 101  84 100
M  END
> <chiral flag>
0

> <version>
0

> <s_m_source_file>
/data/baiqing/PycharmProjects/Reinvent-master-3.2/result/LINK_invent/BTK/process_docking_weight1_custom_product_contain_oxygen_bond_distance_aromatic_linkinvent_7_9_3/rearranged_h_0020.sdf

> <i_m_source_file_index>
11

> <r_mmod_Potential_Energy-OPLS-2005>
100.385414123535

> <r_mmod_Stretch_Energy-OPLS-2005>
46.212100982666

> <r_mmod_Bend_Energy-OPLS-2005>
142.126251220703

> <r_mmod_Torsional_Energy-OPLS-2005>
238.704498291016

> <r_mmod_Improper_Torsional_Energy-OPLS-2005>
7.92415904998779

> <r_mmod_Van_der_Waal_Energy-OPLS-2005>
180.791030883789

> <r_mmod_Electrostatic_Energy-OPLS-2005>
-317.921661376953

> <r_mmod_Solvation_Energy-OPLS-2005>
-212.284820556641

> <b_mmod_Minimization_Converged-OPLS-2005>
0

> <r_mmod_RMS_Derivative-OPLS-2005>
4.60344171524048

$$$$
11
                    3D
 Structure written by MMmdl.
156165  0  0  1  0            999 V2000
  -30.5152  -14.9045   20.4385 C   0  0  0  0  0  0
  -30.4551  -12.5547   19.4921 C   0  0  0  0  0  0
  -29.5292  -12.5306   18.2519 C   0  0  0  0  0  0
  -28.0570  -12.3237   18.6625 C   0  0  0  0  0  0
  -27.6397  -13.2364   19.8457 C   0  0  2  0  0  0
  -28.6833  -13.2088   20.9834 C   0  0  0  0  0  0
  -25.2510  -13.8191   20.5685 C   0  0  0  0  0  0
  -24.1814  -13.0435   20.9232 C   0  0  0  0  0  0
  -24.6408  -11.6914   20.8756 C   0  0  0  0  0  0
  -23.9090  -10.4293   21.0418 C   0  0  0  0  0  0
  -24.3639   -9.4204   21.9194 C   0  0  0  0  0  0
  -23.6307   -8.2242   22.0761 C   0  0  0  0  0  0
  -22.4285   -8.0286   21.3553 C   0  0  0  0  0  0
  -21.9926   -9.0262   20.4653 C   0  0  0  0  0  0
  -22.7264  -10.2137   20.3062 C   0  0  0  0  0  0
  -21.6855   -6.0745   22.5284 C   0  0  0  0  0  0
  -21.4009   -6.5643   23.8219 C   0  0  0  0  0  0
  -21.3662   -5.6794   24.9180 C   0  0  0  0  0  0
  -21.6047   -4.3056   24.7227 C   0  0  0  0  0  0
  -21.8816   -3.8151   23.4345 C   0  0  0  0  0  0
  -21.9191   -4.6972   22.3404 C   0  0  0  0  0  0
  -22.7833  -13.5219   21.1882 C   0  0  0  0  0  0
  -22.1662   -4.2159   21.0983 F   0  0  0  0  0  0
  -21.5633   -3.4537   25.7737 F   0  0  0  0  0  0
  -29.9701  -13.6253   20.4038 N   0  0  0  0  0  0
  -26.2929  -12.9398   20.3237 N   0  0  0  0  0  0
  -25.9334  -11.6540   20.5734 N   0  0  0  0  0  0
  -22.0466  -12.8216   22.0429 N   0  0  0  0  0  0
  -25.4173  -15.1920   20.4068 N   0  0  0  0  0  0
  -31.7023  -15.0475   20.1226 O   0  0  0  0  0  0
  -21.6641   -6.8887   21.4247 O   0  0  0  0  0  0
  -22.3517  -14.5525   20.6722 O   0  0  0  0  0  0
  -24.6421  -31.8463   23.1891 C   0  0  0  0  0  0
  -25.9196  -32.4708   23.8279 C   0  0  1  0  0  0
  -27.2244  -27.1602   20.1434 C   0  0  0  0  0  0
  -25.5954  -33.8514   24.2205 N   0  0  0  0  0  0
  -23.4453  -30.4652   21.5356 C   0  0  2  0  0  0
  -24.8946  -28.8968   20.1126 C   0  0  0  0  0  0
  -22.7562  -29.4553   22.4872 C   0  0  0  0  0  0
  -18.0307  -28.1394   22.8484 C   0  0  0  0  0  0
  -24.1496  -36.7255   23.2643 C   0  0  0  0  0  0
  -25.9997  -30.7282   21.3840 C   0  0  0  0  0  0
  -26.0727  -29.3412   20.7263 C   0  0  0  0  0  0
  -27.2393  -28.4903   20.7225 C   0  0  0  0  0  0
  -26.0161  -26.8120   19.4971 C   0  0  0  0  0  0
  -24.8775  -27.6440   19.4844 C   0  0  0  0  0  0
  -23.6702  -29.7957   20.1548 C   0  0  0  0  0  0
  -25.4127  -36.3039   24.0322 C   0  0  1  0  0  0
  -20.5920  -28.3718   23.1246 C   0  0  2  0  0  0
  -20.6793  -26.9424   22.5408 C   0  0  0  0  0  0
  -19.5763  -26.6384   21.5219 C   0  0  0  0  0  0
  -18.1945  -26.7931   22.1631 C   0  0  0  0  0  0
  -19.1563  -28.8872   23.2857 C   0  0  0  0  0  0
  -18.9476  -30.1468   23.8882 C   0  0  0  0  0  0
  -17.6471  -30.6591   24.0560 C   0  0  0  0  0  0
  -25.9074  -34.9415   23.5074 C   0  0  0  0  0  0
  -16.5364  -29.9085   23.6334 C   0  0  0  0  0  0
  -16.7288  -28.6505   23.0354 C   0  0  0  0  0  0
  -26.4518  -31.6545   25.0701 C   0  0  0  0  0  0
  -25.3712  -31.3730   26.1402 C   0  0  0  0  0  0
  -27.0367  -30.2941   24.6244 C   0  0  0  0  0  0
  -27.6054  -32.4293   25.7495 C   0  0  0  0  0  0
  -27.5580  -37.1789   24.8469 C   0  0  0  0  0  0
  -21.4256  -29.3048   22.3618 N   0  0  0  0  0  0
  -26.4291  -37.3746   23.9407 N   0  0  0  0  0  0
  -24.7156  -31.0332   22.0921 N   0  0  0  0  0  0
  -23.4208  -28.8104   23.3022 O   0  0  0  0  0  0
  -28.2933  -26.1960   20.1898 O   0  0  0  0  0  0
  -26.5656  -34.8911   22.4647 O   0  0  0  0  0  0
  -23.5543  -32.1333   23.7113 O   0  0  0  0  0  0
  -28.0185  -19.5339   20.8576 C   0  0  0  0  0  0
  -30.2577  -19.9620   20.2751 C   0  0  0  0  0  0
  -28.2796  -18.1165   20.8625 C   0  0  0  0  0  0
  -30.5274  -18.5174   20.2783 C   0  0  0  0  0  0
  -28.9788  -20.5575   20.5795 C   0  0  0  0  0  0
  -29.5434  -17.5075   20.5869 C   0  0  0  0  0  0
  -29.5531  -23.1116   22.6462 C   0  0  0  0  0  0
  -30.1331  -23.7010   21.3564 C   0  0  0  0  0  0
  -28.3925  -22.2099   22.1969 C   0  0  0  0  0  0
  -29.0798  -23.3786   20.3002 C   0  0  2  0  0  0
  -28.0000  -24.6731   20.2231 C   0  0  0  0  0  0
  -28.5810  -21.9833   20.7634 N   0  0  0  0  0  0
  -29.6309  -15.9819   20.6696 N   0  0  0  0  0  0
  -31.4886  -12.7251   19.1857 H   0  0  0  0  0  0
  -30.4499  -11.5876   19.9975 H   0  0  0  0  0  0
  -29.8389  -11.7430   17.5635 H   0  0  0  0  0  0
  -29.6279  -13.4699   17.7063 H   0  0  0  0  0  0
  -27.9381  -11.2777   18.9468 H   0  0  0  0  0  0
  -27.3992  -12.4821   17.8072 H   0  0  0  0  0  0
  -27.6177  -14.2497   19.4436 H   0  0  0  0  0  0
  -28.7571  -12.2106   21.4171 H   0  0  0  0  0  0
  -28.3875  -13.8720   21.7980 H   0  0  0  0  0  0
  -25.2782   -9.5676   22.4769 H   0  0  0  0  0  0
  -24.0019   -7.4627   22.7469 H   0  0  0  0  0  0
  -21.0863   -8.8790   19.8948 H   0  0  0  0  0  0
  -22.3736  -10.9685   19.6172 H   0  0  0  0  0  0
  -21.1994   -7.6148   23.9729 H   0  0  0  0  0  0
  -21.1493   -6.0520   25.9089 H   0  0  0  0  0  0
  -22.0591   -2.7613   23.2844 H   0  0  0  0  0  0
  -22.4075  -11.9888   22.4846 H   0  0  0  0  0  0
  -21.1075  -13.1238   22.2603 H   0  0  0  0  0  0
  -24.6349  -15.8321   20.4952 H   0  0  0  0  0  0
  -26.2314  -15.6220   19.9877 H   0  0  0  0  0  0
  -26.7262  -32.5326   23.1012 H   0  0  0  0  0  0
  -25.0076  -33.9632   25.0335 H   0  0  0  0  0  0
  -22.7469  -31.2902   21.3817 H   0  0  0  0  0  0
  -23.3765  -35.9581   23.3295 H   0  0  0  0  0  0
  -24.3583  -36.8891   22.2058 H   0  0  0  0  0  0
  -23.7250  -37.6453   23.6676 H   0  0  0  0  0  0
  -26.1507  -31.4845   20.6125 H   0  0  0  0  0  0
  -26.8720  -30.7795   22.0238 H   0  0  0  0  0  0
  -28.1385  -28.8292   21.2167 H   0  0  0  0  0  0
  -25.9123  -25.8624   18.9975 H   0  0  0  0  0  0
  -23.9789  -27.2984   18.9923 H   0  0  0  0  0  0
  -23.8041  -30.5701   19.3990 H   0  0  0  0  0  0
  -22.7868  -29.2355   19.8447 H   0  0  0  0  0  0
  -25.1314  -36.1878   25.0817 H   0  0  0  0  0  0
  -21.0007  -28.3297   24.1369 H   0  0  0  0  0  0
  -20.5695  -26.2329   23.3622 H   0  0  0  0  0  0
  -21.6657  -26.7431   22.1197 H   0  0  0  0  0  0
  -19.6922  -25.6291   21.1256 H   0  0  0  0  0  0
  -19.6698  -27.3188   20.6742 H   0  0  0  0  0  0
  -17.4214  -26.6678   21.4033 H   0  0  0  0  0  0
  -18.0337  -26.0080   22.9034 H   0  0  0  0  0  0
  -19.7950  -30.7294   24.2239 H   0  0  0  0  0  0
  -17.5024  -31.6269   24.5166 H   0  0  0  0  0  0
  -15.5364  -30.2984   23.7662 H   0  0  0  0  0  0
  -15.8689  -28.0819   22.7071 H   0  0  0  0  0  0
  -24.5901  -30.7072   25.7711 H   0  0  0  0  0  0
  -24.8894  -32.2917   26.4767 H   0  0  0  0  0  0
  -25.7990  -30.8939   27.0219 H   0  0  0  0  0  0
  -26.2963  -29.6689   24.1238 H   0  0  0  0  0  0
  -27.3977  -29.7214   25.4798 H   0  0  0  0  0  0
  -27.8876  -30.4185   23.9546 H   0  0  0  0  0  0
  -27.2644  -33.3607   26.2030 H   0  0  0  0  0  0
  -28.3887  -32.6826   25.0340 H   0  0  0  0  0  0
  -28.0677  -31.8433   26.5448 H   0  0  0  0  0  0
  -28.2591  -38.0089   24.7502 H   0  0  0  0  0  0
  -28.1085  -36.2617   24.6312 H   0  0  0  0  0  0
  -27.2296  -37.1449   25.8873 H   0  0  0  0  0  0
  -20.9459  -29.8765   21.6805 H   0  0  0  0  0  0
  -26.0165  -38.2821   24.1397 H   0  0  0  0  0  0
  -27.0149  -19.8439   21.1135 H   0  0  0  0  0  0
  -31.0840  -20.6259   20.0668 H   0  0  0  0  0  0
  -27.4470  -17.4744   21.1121 H   0  0  0  0  0  0
  -31.5333  -18.1935   20.0521 H   0  0  0  0  0  0
  -29.1958  -23.8895   23.3218 H   0  0  0  0  0  0
  -30.3155  -22.5414   23.1783 H   0  0  0  0  0  0
  -31.0666  -23.1948   21.1074 H   0  0  0  0  0  0
  -30.3514  -24.7672   21.4309 H   0  0  0  0  0  0
  -27.4346  -22.7068   22.3604 H   0  0  0  0  0  0
  -28.3700  -21.2978   22.7974 H   0  0  0  0  0  0
  -29.5690  -23.2839   19.3294 H   0  0  0  0  0  0
  -27.3120  -24.5606   21.0606 H   0  0  0  0  0  0
  -27.4053  -24.4484   19.3403 H   0  0  0  0  0  0
  -28.7376  -15.5854   20.9191 H   0  0  0  0  0  0
  1 25  1  0  0  0
  1 30  2  0  0  0
  1 83  1  0  0  0
  2  3  1  0  0  0
  2 25  1  0  0  0
  2 84  1  0  0  0
  2 85  1  0  0  0
  3  4  1  0  0  0
  3 86  1  0  0  0
  3 87  1  0  0  0
  4  5  1  0  0  0
  4 88  1  0  0  0
  4 89  1  0  0  0
  5  6  1  0  0  0
  5 26  1  0  0  0
  5 90  1  0  0  0
  6 25  1  0  0  0
  6 91  1  0  0  0
  6 92  1  0  0  0
  7  8  2  0  0  0
  7 26  1  0  0  0
  7 29  1  0  0  0
  8  9  1  0  0  0
  8 22  1  0  0  0
  9 10  1  0  0  0
  9 27  2  0  0  0
 10 11  2  0  0  0
 10 15  1  0  0  0
 11 12  1  0  0  0
 11 93  1  0  0  0
 12 13  2  0  0  0
 12 94  1  0  0  0
 13 14  1  0  0  0
 13 31  1  0  0  0
 14 15  2  0  0  0
 14 95  1  0  0  0
 15 96  1  0  0  0
 16 17  2  0  0  0
 16 21  1  0  0  0
 16 31  1  0  0  0
 17 18  1  0  0  0
 17 97  1  0  0  0
 18 19  2  0  0  0
 18 98  1  0  0  0
 19 20  1  0  0  0
 19 24  1  0  0  0
 20 21  2  0  0  0
 20 99  1  0  0  0
 21 23  1  0  0  0
 22 28  1  0  0  0
 22 32  2  0  0  0
 26 27  1  0  0  0
 28100  1  0  0  0
 28101  1  0  0  0
 29102  1  0  0  0
 29103  1  0  0  0
 33 34  1  0  0  0
 33 66  1  0  0  0
 33 70  2  0  0  0
 34 36  1  0  0  0
 34 59  1  0  0  0
 34104  1  0  0  0
 35 44  2  0  0  0
 35 45  1  0  0  0
 35 68  1  0  0  0
 36 56  1  0  0  0
 36105  1  0  0  0
 37 39  1  0  0  0
 37 47  1  0  0  0
 37 66  1  0  0  0
 37106  1  0  0  0
 38 43  2  0  0  0
 38 46  1  0  0  0
 38 47  1  0  0  0
 39 64  1  0  0  0
 39 67  2  0  0  0
 40 52  1  0  0  0
 40 53  2  0  0  0
 40 58  1  0  0  0
 41107  1  0  0  0
 41108  1  0  0  0
 41109  1  0  0  0
 41 48  1  0  0  0
 42 43  1  0  0  0
 42 66  1  0  0  0
 42110  1  0  0  0
 42111  1  0  0  0
 43 44  1  0  0  0
 44112  1  0  0  0
 45 46  2  0  0  0
 45113  1  0  0  0
 46114  1  0  0  0
 47115  1  0  0  0
 47116  1  0  0  0
 48 56  1  0  0  0
 48 65  1  0  0  0
 48117  1  0  0  0
 49 50  1  0  0  0
 49 53  1  0  0  0
 49 64  1  0  0  0
 49118  1  0  0  0
 50 51  1  0  0  0
 50119  1  0  0  0
 50120  1  0  0  0
 51 52  1  0  0  0
 51121  1  0  0  0
 51122  1  0  0  0
 52123  1  0  0  0
 52124  1  0  0  0
 53 54  1  0  0  0
 54 55  2  0  0  0
 54125  1  0  0  0
 55 57  1  0  0  0
 55126  1  0  0  0
 56 69  2  0  0  0
 57 58  2  0  0  0
 57127  1  0  0  0
 58128  1  0  0  0
 59 60  1  0  0  0
 59 61  1  0  0  0
 59 62  1  0  0  0
 60129  1  0  0  0
 60130  1  0  0  0
 60131  1  0  0  0
 61132  1  0  0  0
 61133  1  0  0  0
 61134  1  0  0  0
 62135  1  0  0  0
 62136  1  0  0  0
 62137  1  0  0  0
 63 65  1  0  0  0
 63138  1  0  0  0
 63139  1  0  0  0
 63140  1  0  0  0
 64141  1  0  0  0
 65142  1  0  0  0
 68 81  1  0  0  0
 71 73  2  0  0  0
 71 75  1  0  0  0
 71143  1  0  0  0
 72 74  1  0  0  0
 72 75  2  0  0  0
 72144  1  0  0  0
 73 76  1  0  0  0
 73145  1  0  0  0
 74 76  2  0  0  0
 74146  1  0  0  0
 75 82  1  0  0  0
 76 83  1  0  0  0
 77 78  1  0  0  0
 77 79  1  0  0  0
 77147  1  0  0  0
 77148  1  0  0  0
 78 80  1  0  0  0
 78149  1  0  0  0
 78150  1  0  0  0
 79 82  1  0  0  0
 79151  1  0  0  0
 79152  1  0  0  0
 80 81  1  0  0  0
 80 82  1  0  0  0
 80153  1  0  0  0
 81154  1  0  0  0
 81155  1  0  0  0
 83156  1  0  0  0
M  ISO  4   1 100  68 101  81 101  83 100
M  END
> <chiral flag>
0

> <version>
0

> <s_m_source_file>
/data/baiqing/PycharmProjects/Reinvent-master-3.2/result/LINK_invent/BTK/process_docking_weight1_custom_product_contain_oxygen_bond_distance_aromatic_linkinvent_7_9_3/rearranged_h_0020.sdf

> <i_m_source_file_index>
12

> <r_mmod_Potential_Energy-OPLS-2005>
525.689758300781

> <r_mmod_Stretch_Energy-OPLS-2005>
211.368698120117

> <r_mmod_Bend_Energy-OPLS-2005>
321.957733154297

> <r_mmod_Torsional_Energy-OPLS-2005>
291.578582763672

> <r_mmod_Improper_Torsional_Energy-OPLS-2005>
9.57497978210449

> <r_mmod_Van_der_Waal_Energy-OPLS-2005>
131.84602355957

> <r_mmod_Electrostatic_Energy-OPLS-2005>
-382.026885986328

> <r_mmod_Solvation_Energy-OPLS-2005>
-224.497863769531

> <b_mmod_Minimization_Converged-OPLS-2005>
0

> <r_mmod_RMS_Derivative-OPLS-2005>
1.1657212972641

$$$$
12
                    3D
 Structure written by MMmdl.
177186  0  0  1  0            999 V2000
  -30.7616  -14.4317   20.6497 C   0  0  0  0  0  0
  -30.4234  -12.3095   19.4289 C   0  0  0  0  0  0
  -29.4981  -12.5327   18.2167 C   0  0  0  0  0  0
  -28.0214  -12.3852   18.6279 C   0  0  0  0  0  0
  -27.6700  -13.2161   19.8895 C   0  0  2  0  0  0
  -28.7105  -12.9928   21.0138 C   0  0  0  0  0  0
  -25.2619  -13.8212   20.5692 C   0  0  0  0  0  0
  -24.1852  -13.0456   20.9189 C   0  0  0  0  0  0
  -24.6431  -11.6936   20.8755 C   0  0  0  0  0  0
  -23.9095  -10.4302   21.0423 C   0  0  0  0  0  0
  -24.3636   -9.4206   21.9199 C   0  0  0  0  0  0
  -23.6299   -8.2242   22.0764 C   0  0  0  0  0  0
  -22.4275   -8.0297   21.3560 C   0  0  0  0  0  0
  -21.9925   -9.0277   20.4657 C   0  0  0  0  0  0
  -22.7271  -10.2150   20.3067 C   0  0  0  0  0  0
  -21.6855   -6.0734   22.5283 C   0  0  0  0  0  0
  -21.4014   -6.5644   23.8207 C   0  0  0  0  0  0
  -21.3662   -5.6801   24.9181 C   0  0  0  0  0  0
  -21.6036   -4.3061   24.7232 C   0  0  0  0  0  0
  -21.8824   -3.8150   23.4363 C   0  0  0  0  0  0
  -21.9187   -4.6960   22.3405 C   0  0  0  0  0  0
  -22.7866  -13.5242   21.1832 C   0  0  0  0  0  0
  -22.1654   -4.2140   21.0985 F   0  0  0  0  0  0
  -21.5628   -3.4546   25.7751 F   0  0  0  0  0  0
  -30.0555  -13.2782   20.4772 N   0  0  0  0  0  0
  -26.3075  -12.9389   20.3436 N   0  0  0  0  0  0
  -25.9371  -11.6540   20.5805 N   0  0  0  0  0  0
  -22.0502  -12.8232   22.0399 N   0  0  0  0  0  0
  -25.4334  -15.1922   20.4108 N   0  0  0  0  0  0
  -31.8097  -14.6604   20.0399 O   0  0  0  0  0  0
  -21.6643   -6.8890   21.4245 O   0  0  0  0  0  0
  -22.3539  -14.5546   20.6696 O   0  0  0  0  0  0
  -24.6049  -31.8678   23.2180 C   0  0  0  0  0  0
  -25.8937  -32.4828   23.8473 C   0  0  1  0  0  0
  -27.2314  -27.4427   20.0838 C   0  0  0  0  0  0
  -25.5834  -33.8663   24.2327 N   0  0  0  0  0  0
  -23.3955  -30.4908   21.5574 C   0  0  2  0  0  0
  -24.8425  -28.9682   20.1173 C   0  0  0  0  0  0
  -22.7372  -29.4590   22.5008 C   0  0  0  0  0  0
  -18.0260  -28.1312   22.8481 C   0  0  0  0  0  0
  -24.1489  -36.7308   23.2635 C   0  0  0  0  0  0
  -25.9259  -30.8353   21.3717 C   0  0  0  0  0  0
  -26.0039  -29.4719   20.7151 C   0  0  0  0  0  0
  -27.1977  -28.7155   20.6983 C   0  0  0  0  0  0
  -26.0404  -26.9441   19.5081 C   0  0  0  0  0  0
  -24.8556  -27.6990   19.5206 C   0  0  0  0  0  0
  -23.5994  -29.8229   20.1718 C   0  0  0  0  0  0
  -25.4120  -36.3118   24.0338 C   0  0  1  0  0  0
  -20.5820  -28.3586   23.1301 C   0  0  2  0  0  0
  -20.6720  -26.9319   22.5389 C   0  0  0  0  0  0
  -19.5728  -26.6323   21.5158 C   0  0  0  0  0  0
  -18.1911  -26.7867   22.1571 C   0  0  0  0  0  0
  -19.1501  -28.8775   23.2867 C   0  0  0  0  0  0
  -18.9441  -30.1380   23.8869 C   0  0  0  0  0  0
  -17.6449  -30.6528   24.0527 C   0  0  0  0  0  0
  -25.9034  -34.9485   23.5116 C   0  0  0  0  0  0
  -16.5339  -29.9014   23.6336 C   0  0  0  0  0  0
  -16.7247  -28.6421   23.0380 C   0  0  0  0  0  0
  -26.4404  -31.6660   25.0811 C   0  0  0  0  0  0
  -25.3705  -31.3805   26.1598 C   0  0  0  0  0  0
  -27.0247  -30.3129   24.6180 C   0  0  0  0  0  0
  -27.5982  -32.4420   25.7517 C   0  0  0  0  0  0
  -27.5613  -37.1765   24.8445 C   0  0  0  0  0  0
  -21.4090  -29.2992   22.3758 N   0  0  0  0  0  0
  -26.4318  -37.3789   23.9409 N   0  0  0  0  0  0
  -24.6603  -31.0791   22.1062 N   0  0  0  0  0  0
  -23.4156  -28.8080   23.3002 O   0  0  0  0  0  0
  -28.4363  -26.7667   20.0851 O   0  0  0  0  0  0
  -26.5592  -34.8887   22.4674 O   0  0  0  0  0  0
  -23.5249  -32.1394   23.7625 O   0  0  0  0  0  0
  -31.3959  -18.8644   20.8954 C   0  0  0  0  0  0
  -31.0943  -17.5047   20.6712 C   0  0  0  0  0  0
  -30.7313  -18.6315   23.2188 C   0  0  0  0  0  0
  -31.2184  -19.4452   22.1688 C   0  0  0  0  0  0
  -30.6175  -16.6841   21.7225 C   0  0  0  0  0  0
  -30.4306  -17.2680   22.9960 C   0  0  0  0  0  0
  -29.7024  -23.0729   21.2690 C   0  0  0  0  0  0
  -28.4559  -24.5273   22.5760 C   0  0  0  0  0  0
  -29.5881  -23.9883   23.4631 C   0  0  1  0  0  0
  -30.4968  -23.1100   22.5423 C   0  0  2  0  0  0
  -30.2824  -25.1504   24.2096 C   0  0  0  0  0  0
  -31.8258  -23.8060   22.1652 C   0  0  0  0  0  0
  -28.4775  -25.5771   17.9059 C   0  0  0  0  0  0
  -33.0252  -20.9005   22.6605 C   0  0  0  0  0  0
  -30.6811  -21.6662   23.1225 C   0  0  0  0  0  0
  -27.8753  -24.3203   20.1127 C   0  0  0  0  0  0
  -28.6252  -25.4982   19.4359 C   0  0  2  0  0  0
  -28.6240  -23.8704   21.2887 N   0  0  0  0  0  0
  -30.2613  -15.3084   21.5404 N   0  0  0  0  0  0
  -31.5961  -20.7907   22.3648 N   0  0  0  0  0  0
  -30.0954  -22.3627   20.1952 N   0  3  0  0  0  0
  -29.9677  -16.5066   24.0172 F   0  0  0  0  0  0
  -31.4690  -12.3984   19.1266 H   0  0  0  0  0  0
  -30.3167  -11.2922   19.8093 H   0  0  0  0  0  0
  -29.7396  -11.8257   17.4213 H   0  0  0  0  0  0
  -29.6686  -13.5287   17.8037 H   0  0  0  0  0  0
  -27.8339  -11.3268   18.8158 H   0  0  0  0  0  0
  -27.3707  -12.6687   17.7999 H   0  0  0  0  0  0
  -27.7196  -14.2661   19.6034 H   0  0  0  0  0  0
  -28.6726  -11.9612   21.3656 H   0  0  0  0  0  0
  -28.4584  -13.6026   21.8817 H   0  0  0  0  0  0
  -25.2777   -9.5659   22.4788 H   0  0  0  0  0  0
  -23.9993   -7.4626   22.7489 H   0  0  0  0  0  0
  -21.0848   -8.8824   19.8969 H   0  0  0  0  0  0
  -22.3751  -10.9699   19.6178 H   0  0  0  0  0  0
  -21.2022   -7.6152   23.9718 H   0  0  0  0  0  0
  -21.1474   -6.0532   25.9079 H   0  0  0  0  0  0
  -22.0603   -2.7612   23.2872 H   0  0  0  0  0  0
  -22.4092  -11.9870   22.4759 H   0  0  0  0  0  0
  -21.1134  -13.1282   22.2630 H   0  0  0  0  0  0
  -24.6775  -15.8583   20.5279 H   0  0  0  0  0  0
  -26.3000  -15.6282   20.1192 H   0  0  0  0  0  0
  -26.6987  -32.5495   23.1230 H   0  0  0  0  0  0
  -25.0075  -33.9930   25.0525 H   0  0  0  0  0  0
  -22.6808  -31.3063   21.4222 H   0  0  0  0  0  0
  -23.3796  -35.9588   23.3274 H   0  0  0  0  0  0
  -24.3627  -36.8972   22.2059 H   0  0  0  0  0  0
  -23.7184  -37.6478   23.6696 H   0  0  0  0  0  0
  -26.0492  -31.6026   20.6039 H   0  0  0  0  0  0
  -26.8057  -30.8817   21.9996 H   0  0  0  0  0  0
  -28.0959  -29.1059   21.1583 H   0  0  0  0  0  0
  -25.9850  -25.9704   19.0515 H   0  0  0  0  0  0
  -23.9613  -27.2974   19.0642 H   0  0  0  0  0  0
  -23.6693  -30.5868   19.3975 H   0  0  0  0  0  0
  -22.7350  -29.2152   19.8985 H   0  0  0  0  0  0
  -25.1267  -36.2019   25.0839 H   0  0  0  0  0  0
  -20.9916  -28.3137   24.1416 H   0  0  0  0  0  0
  -20.5550  -26.2178   23.3558 H   0  0  0  0  0  0
  -21.6612  -26.7330   22.1230 H   0  0  0  0  0  0
  -19.6863  -25.6219   21.1219 H   0  0  0  0  0  0
  -19.6702  -27.3099   20.6661 H   0  0  0  0  0  0
  -17.4160  -26.6604   21.3988 H   0  0  0  0  0  0
  -18.0332  -25.9993   22.8947 H   0  0  0  0  0  0
  -19.7935  -30.7175   24.2260 H   0  0  0  0  0  0
  -17.5012  -31.6242   24.5066 H   0  0  0  0  0  0
  -15.5324  -30.2878   23.7716 H   0  0  0  0  0  0
  -15.8637  -28.0700   22.7164 H   0  0  0  0  0  0
  -24.5751  -30.7301   25.7943 H   0  0  0  0  0  0
  -24.9035  -32.2993   26.5146 H   0  0  0  0  0  0
  -25.8015  -30.8870   27.0312 H   0  0  0  0  0  0
  -26.2784  -29.6914   24.1212 H   0  0  0  0  0  0
  -27.3993  -29.7355   25.4626 H   0  0  0  0  0  0
  -27.8628  -30.4496   23.9348 H   0  0  0  0  0  0
  -27.2616  -33.3734   26.2098 H   0  0  0  0  0  0
  -28.3751  -32.6997   25.0303 H   0  0  0  0  0  0
  -28.0678  -31.8573   26.5429 H   0  0  0  0  0  0
  -28.2525  -38.0158   24.7633 H   0  0  0  0  0  0
  -28.1185  -36.2677   24.6107 H   0  0  0  0  0  0
  -27.2354  -37.1235   25.8849 H   0  0  0  0  0  0
  -20.9182  -29.8797   21.7087 H   0  0  0  0  0  0
  -26.0205  -38.2842   24.1527 H   0  0  0  0  0  0
  -31.7687  -19.4618   20.0764 H   0  0  0  0  0  0
  -31.2315  -17.1093   19.6756 H   0  0  0  0  0  0
  -30.6092  -19.0389   24.2112 H   0  0  0  0  0  0
  -28.5169  -25.6069   22.4447 H   0  0  0  0  0  0
  -27.4739  -24.2867   22.9846 H   0  0  0  0  0  0
  -29.1259  -23.3438   24.2115 H   0  0  0  0  0  0
  -30.6702  -25.9015   23.5189 H   0  0  0  0  0  0
  -31.1139  -24.8131   24.8267 H   0  0  0  0  0  0
  -29.5752  -25.6639   24.8615 H   0  0  0  0  0  0
  -31.6376  -24.7816   21.7187 H   0  0  0  0  0  0
  -32.3841  -23.2345   21.4245 H   0  0  0  0  0  0
  -32.4781  -23.9489   23.0280 H   0  0  0  0  0  0
  -28.8722  -24.6750   17.4397 H   0  0  0  0  0  0
  -29.0464  -26.4193   17.5117 H   0  0  0  0  0  0
  -27.4513  -25.6862   17.5670 H   0  0  0  0  0  0
  -33.3920  -20.0270   23.2026 H   0  0  0  0  0  0
  -33.2468  -21.7693   23.2796 H   0  0  0  0  0  0
  -33.6022  -20.9970   21.7411 H   0  0  0  0  0  0
  -29.6987  -21.1990   23.2066 H   0  0  0  0  0  0
  -31.0554  -21.7507   24.1445 H   0  0  0  0  0  0
  -27.7716  -23.4781   19.4315 H   0  0  0  0  0  0
  -26.8686  -24.5885   20.4272 H   0  0  0  0  0  0
  -29.6910  -25.3097   19.5861 H   0  0  0  0  0  0
  -29.5351  -14.9597   22.1468 H   0  0  0  0  0  0
  -30.9244  -21.7864   20.2852 H   0  0  0  0  0  0
  -29.5346  -22.2719   19.3624 H   0  0  0  0  0  0
  1 25  1  0  0  0
  1 30  2  0  0  0
  1 89  1  0  0  0
  2  3  1  0  0  0
  2 25  1  0  0  0
  2 93  1  0  0  0
  2 94  1  0  0  0
  3  4  1  0  0  0
  3 95  1  0  0  0
  3 96  1  0  0  0
  4  5  1  0  0  0
  4 97  1  0  0  0
  4 98  1  0  0  0
  5  6  1  0  0  0
  5 26  1  0  0  0
  5 99  1  0  0  0
  6 25  1  0  0  0
  6100  1  0  0  0
  6101  1  0  0  0
  7  8  2  0  0  0
  7 26  1  0  0  0
  7 29  1  0  0  0
  8  9  1  0  0  0
  8 22  1  0  0  0
  9 10  1  0  0  0
  9 27  2  0  0  0
 10 11  2  0  0  0
 10 15  1  0  0  0
 11 12  1  0  0  0
 11102  1  0  0  0
 12 13  2  0  0  0
 12103  1  0  0  0
 13 14  1  0  0  0
 13 31  1  0  0  0
 14 15  2  0  0  0
 14104  1  0  0  0
 15105  1  0  0  0
 16 17  2  0  0  0
 16 21  1  0  0  0
 16 31  1  0  0  0
 17 18  1  0  0  0
 17106  1  0  0  0
 18 19  2  0  0  0
 18107  1  0  0  0
 19 20  1  0  0  0
 19 24  1  0  0  0
 20 21  2  0  0  0
 20108  1  0  0  0
 21 23  1  0  0  0
 22 28  1  0  0  0
 22 32  2  0  0  0
 26 27  1  0  0  0
 28109  1  0  0  0
 28110  1  0  0  0
 29111  1  0  0  0
 29112  1  0  0  0
 33 34  1  0  0  0
 33 66  1  0  0  0
 33 70  2  0  0  0
 34 36  1  0  0  0
 34 59  1  0  0  0
 34113  1  0  0  0
 35 44  2  0  0  0
 35 45  1  0  0  0
 35 68  1  0  0  0
 36 56  1  0  0  0
 36114  1  0  0  0
 37 39  1  0  0  0
 37 47  1  0  0  0
 37 66  1  0  0  0
 37115  1  0  0  0
 38 43  2  0  0  0
 38 46  1  0  0  0
 38 47  1  0  0  0
 39 64  1  0  0  0
 39 67  2  0  0  0
 40 52  1  0  0  0
 40 53  2  0  0  0
 40 58  1  0  0  0
 41116  1  0  0  0
 41117  1  0  0  0
 41118  1  0  0  0
 41 48  1  0  0  0
 42 43  1  0  0  0
 42 66  1  0  0  0
 42119  1  0  0  0
 42120  1  0  0  0
 43 44  1  0  0  0
 44121  1  0  0  0
 45 46  2  0  0  0
 45122  1  0  0  0
 46123  1  0  0  0
 47124  1  0  0  0
 47125  1  0  0  0
 48 56  1  0  0  0
 48 65  1  0  0  0
 48126  1  0  0  0
 49 50  1  0  0  0
 49 53  1  0  0  0
 49 64  1  0  0  0
 49127  1  0  0  0
 50 51  1  0  0  0
 50128  1  0  0  0
 50129  1  0  0  0
 51 52  1  0  0  0
 51130  1  0  0  0
 51131  1  0  0  0
 52132  1  0  0  0
 52133  1  0  0  0
 53 54  1  0  0  0
 54 55  2  0  0  0
 54134  1  0  0  0
 55 57  1  0  0  0
 55135  1  0  0  0
 56 69  2  0  0  0
 57 58  2  0  0  0
 57136  1  0  0  0
 58137  1  0  0  0
 59 60  1  0  0  0
 59 61  1  0  0  0
 59 62  1  0  0  0
 60138  1  0  0  0
 60139  1  0  0  0
 60140  1  0  0  0
 61141  1  0  0  0
 61142  1  0  0  0
 61143  1  0  0  0
 62144  1  0  0  0
 62145  1  0  0  0
 62146  1  0  0  0
 63 65  1  0  0  0
 63147  1  0  0  0
 63148  1  0  0  0
 63149  1  0  0  0
 64150  1  0  0  0
 65151  1  0  0  0
 68 87  1  0  0  0
 71 72  2  0  0  0
 71 74  1  0  0  0
 71152  1  0  0  0
 72 75  1  0  0  0
 72153  1  0  0  0
 73 74  2  0  0  0
 73 76  1  0  0  0
 73154  1  0  0  0
 74 90  1  0  0  0
 75 76  2  0  0  0
 75 89  1  0  0  0
 76 92  1  0  0  0
 77 80  1  0  0  0
 77 88  1  0  0  0
 77 91  2  0  0  0
 78 79  1  0  0  0
 78 88  1  0  0  0
 78155  1  0  0  0
 78156  1  0  0  0
 79 80  1  0  0  0
 79 81  1  0  0  0
 79157  1  0  0  0
 80 82  1  0  0  0
 80 85  1  0  0  0
 81158  1  0  0  0
 81159  1  0  0  0
 81160  1  0  0  0
 82161  1  0  0  0
 82162  1  0  0  0
 82163  1  0  0  0
 83164  1  0  0  0
 83165  1  0  0  0
 83166  1  0  0  0
 83 87  1  0  0  0
 84 90  1  0  0  0
 84167  1  0  0  0
 84168  1  0  0  0
 84169  1  0  0  0
 85 90  1  0  0  0
 85170  1  0  0  0
 85171  1  0  0  0
 86 87  1  0  0  0
 86 88  1  0  0  0
 86172  1  0  0  0
 86173  1  0  0  0
 87174  1  0  0  0
 89175  1  0  0  0
 91176  1  0  0  0
 91177  1  0  0  0
M  CHG  1  91   1
M  ISO  4   1 100  68 101  87 101  89 100
M  END
> <chiral flag>
0

> <version>
0

> <s_m_source_file>
/data/baiqing/PycharmProjects/Reinvent-master-3.2/result/LINK_invent/BTK/process_docking_weight1_custom_product_contain_oxygen_bond_distance_aromatic_linkinvent_7_9_3/rearranged_h_0020.sdf

> <i_m_source_file_index>
13

> <r_mmod_Potential_Energy-OPLS-2005>
-12.3575448989868

> <r_mmod_Stretch_Energy-OPLS-2005>
42.2407073974609

> <r_mmod_Bend_Energy-OPLS-2005>
147.56510925293

> <r_mmod_Torsional_Energy-OPLS-2005>
298.038543701172

> <r_mmod_Improper_Torsional_Energy-OPLS-2005>
6.60261201858521

> <r_mmod_Van_der_Waal_Energy-OPLS-2005>
161.927581787109

> <r_mmod_Electrostatic_Energy-OPLS-2005>
-278.621002197266

> <r_mmod_Solvation_Energy-OPLS-2005>
-400.069702148438

> <b_mmod_Minimization_Converged-OPLS-2005>
0

> <r_mmod_RMS_Derivative-OPLS-2005>
4.52493190765381

$$$$
13
                    3D
 Structure written by MMmdl.
188197  0  0  1  0            999 V2000
  -30.7506  -14.4318   20.6271 C   0  0  0  0  0  0
  -30.4114  -12.3047   19.4112 C   0  0  0  0  0  0
  -29.4841  -12.4848   18.1946 C   0  0  0  0  0  0
  -28.0101  -12.3286   18.6115 C   0  0  0  0  0  0
  -27.6511  -13.1832   19.8518 C   0  0  2  0  0  0
  -28.6928  -12.9937   20.9800 C   0  0  0  0  0  0
  -25.2573  -13.8108   20.5598 C   0  0  0  0  0  0
  -24.1834  -13.0425   20.9176 C   0  0  0  0  0  0
  -24.6353  -11.6878   20.8744 C   0  0  0  0  0  0
  -23.9019  -10.4288   21.0417 C   0  0  0  0  0  0
  -24.3593   -9.4208   21.9188 C   0  0  0  0  0  0
  -23.6283   -8.2240   22.0753 C   0  0  0  0  0  0
  -22.4258   -8.0276   21.3543 C   0  0  0  0  0  0
  -21.9890   -9.0246   20.4639 C   0  0  0  0  0  0
  -22.7206  -10.2130   20.3057 C   0  0  0  0  0  0
  -21.6847   -6.0737   22.5280 C   0  0  0  0  0  0
  -21.4012   -6.5639   23.8218 C   0  0  0  0  0  0
  -21.3654   -5.6789   24.9175 C   0  0  0  0  0  0
  -21.6041   -4.3052   24.7225 C   0  0  0  0  0  0
  -21.8821   -3.8147   23.4345 C   0  0  0  0  0  0
  -21.9195   -4.6966   22.3400 C   0  0  0  0  0  0
  -22.7868  -13.5247   21.1853 C   0  0  0  0  0  0
  -22.1660   -4.2151   21.0979 F   0  0  0  0  0  0
  -21.5626   -3.4536   25.7738 F   0  0  0  0  0  0
  -30.0266  -13.2919   20.4331 N   0  0  0  0  0  0
  -26.2960  -12.9218   20.3242 N   0  0  0  0  0  0
  -25.9260  -11.6409   20.5728 N   0  0  0  0  0  0
  -22.0497  -12.8252   22.0396 N   0  0  0  0  0  0
  -25.4322  -15.1819   20.3910 N   0  0  0  0  0  0
  -31.8566  -14.6039   20.1013 O   0  0  0  0  0  0
  -21.6626   -6.8875   21.4239 O   0  0  0  0  0  0
  -22.3570  -14.5566   20.6699 O   0  0  0  0  0  0
  -24.6110  -31.8703   23.2140 C   0  0  0  0  0  0
  -25.9011  -32.4845   23.8431 C   0  0  1  0  0  0
  -27.2406  -27.4668   20.0844 C   0  0  0  0  0  0
  -25.5924  -33.8657   24.2360 N   0  0  0  0  0  0
  -23.3999  -30.4898   21.5567 C   0  0  2  0  0  0
  -24.8507  -28.9581   20.1190 C   0  0  0  0  0  0
  -22.7407  -29.4652   22.5081 C   0  0  0  0  0  0
  -18.0260  -28.1331   22.8478 C   0  0  0  0  0  0
  -24.1512  -36.7296   23.2646 C   0  0  0  0  0  0
  -25.9250  -30.8415   21.3704 C   0  0  0  0  0  0
  -26.0055  -29.4785   20.7172 C   0  0  0  0  0  0
  -27.2062  -28.7338   20.7060 C   0  0  0  0  0  0
  -26.0767  -26.9562   19.4804 C   0  0  0  0  0  0
  -24.8781  -27.6929   19.5035 C   0  0  0  0  0  0
  -23.6062  -29.8149   20.1727 C   0  0  0  0  0  0
  -25.4126  -36.3127   24.0346 C   0  0  1  0  0  0
  -20.5855  -28.3600   23.1341 C   0  0  2  0  0  0
  -20.6755  -26.9353   22.5409 C   0  0  0  0  0  0
  -19.5746  -26.6345   21.5189 C   0  0  0  0  0  0
  -18.1913  -26.7880   22.1592 C   0  0  0  0  0  0
  -19.1509  -28.8782   23.2897 C   0  0  0  0  0  0
  -18.9451  -30.1406   23.8882 C   0  0  0  0  0  0
  -17.6463  -30.6553   24.0530 C   0  0  0  0  0  0
  -25.9051  -34.9501   23.5161 C   0  0  0  0  0  0
  -16.5351  -29.9036   23.6343 C   0  0  0  0  0  0
  -16.7253  -28.6454   23.0345 C   0  0  0  0  0  0
  -26.4473  -31.6632   25.0753 C   0  0  0  0  0  0
  -25.3724  -31.3724   26.1486 C   0  0  0  0  0  0
  -27.0347  -30.3108   24.6101 C   0  0  0  0  0  0
  -27.6063  -32.4372   25.7471 C   0  0  0  0  0  0
  -27.5612  -37.1789   24.8449 C   0  0  0  0  0  0
  -21.4143  -29.2986   22.3779 N   0  0  0  0  0  0
  -26.4303  -37.3809   23.9422 N   0  0  0  0  0  0
  -24.6629  -31.0817   22.1038 N   0  0  0  0  0  0
  -23.4197  -28.8177   23.3096 O   0  0  0  0  0  0
  -28.3968  -26.7272   20.0220 O   0  0  0  0  0  0
  -26.5587  -34.8937   22.4709 O   0  0  0  0  0  0
  -23.5308  -32.1460   23.7524 O   0  0  0  0  0  0
  -29.4325  -16.6194   18.6244 C   0  0  0  0  0  0
  -29.7265  -17.3856   17.4853 C   0  0  0  0  0  0
  -29.9915  -19.3410   18.8882 C   0  0  0  0  0  0
  -29.4441  -17.1873   19.9161 C   0  0  0  0  0  0
  -29.7131  -18.5800   20.0461 C   0  0  0  0  0  0
  -30.0201  -18.7632   17.5952 C   0  0  0  0  0  0
  -26.2120  -20.3700   21.8546 C   0  0  0  0  0  0
  -26.8191  -21.6158   21.2265 C   0  0  0  0  0  0
  -27.2534  -19.3001   21.5809 C   0  0  0  0  0  0
  -28.3502  -21.4152   21.2617 C   0  0  1  0  0  0
  -30.1401  -26.5783   21.6494 C   0  0  0  0  0  0
  -30.7142  -18.8511   15.2059 C   0  0  0  0  0  0
  -31.1633  -15.9578   22.4614 C   0  0  0  0  0  0
  -29.7246  -19.2911   21.4020 C   0  0  0  0  0  0
  -29.1489  -16.2653   21.1093 C   0  0  0  0  0  0
  -29.1182  -22.3722   22.2249 C   0  0  0  0  0  0
  -30.1717  -20.9865   16.4471 C   0  0  0  0  0  0
  -28.7276  -24.5428   20.9870 C   0  0  0  0  0  0
  -28.7519  -26.0687   21.2367 C   0  0  2  0  0  0
  -31.4792  -21.7669   16.7161 C   0  0  0  0  0  0
  -28.5043  -20.0336   21.7504 N   0  0  0  0  0  0
  -30.3205  -19.5250   16.4426 N   0  0  0  0  0  0
  -30.2507  -15.3523   21.4867 N   0  0  0  0  0  0
  -28.6481  -23.7795   22.2574 N   0  3  0  0  0  0
  -31.2145  -23.0724   16.6858 F   0  0  0  0  0  0
  -31.9904  -21.4736   17.9115 F   0  0  0  0  0  0
  -32.3918  -21.5010   15.7808 F   0  0  0  0  0  0
  -31.4534  -12.3995   19.1035 H   0  0  0  0  0  0
  -30.3142  -11.2958   19.8164 H   0  0  0  0  0  0
  -29.7298  -11.7524   17.4238 H   0  0  0  0  0  0
  -29.6431  -13.4643   17.7418 H   0  0  0  0  0  0
  -27.8353  -11.2740   18.8258 H   0  0  0  0  0  0
  -27.3540  -12.5794   17.7778 H   0  0  0  0  0  0
  -27.6744  -14.2101   19.4999 H   0  0  0  0  0  0
  -28.6721  -11.9648   21.3417 H   0  0  0  0  0  0
  -28.4406  -13.6027   21.8479 H   0  0  0  0  0  0
  -25.2737   -9.5692   22.4754 H   0  0  0  0  0  0
  -23.9992   -7.4632   22.7476 H   0  0  0  0  0  0
  -21.0822   -8.8758   19.8949 H   0  0  0  0  0  0
  -22.3661  -10.9668   19.6167 H   0  0  0  0  0  0
  -21.2001   -7.6150   23.9722 H   0  0  0  0  0  0
  -21.1470   -6.0516   25.9078 H   0  0  0  0  0  0
  -22.0606   -2.7611   23.2843 H   0  0  0  0  0  0
  -22.4081  -11.9895   22.4784 H   0  0  0  0  0  0
  -21.1118  -13.1294   22.2580 H   0  0  0  0  0  0
  -24.6545  -15.8279   20.4635 H   0  0  0  0  0  0
  -26.2574  -15.6042   19.9882 H   0  0  0  0  0  0
  -26.7097  -32.5581   23.1201 H   0  0  0  0  0  0
  -25.0116  -33.9823   25.0535 H   0  0  0  0  0  0
  -22.6829  -31.3028   21.4166 H   0  0  0  0  0  0
  -23.3818  -35.9599   23.3275 H   0  0  0  0  0  0
  -24.3602  -36.8926   22.2070 H   0  0  0  0  0  0
  -23.7199  -37.6464   23.6668 H   0  0  0  0  0  0
  -26.0443  -31.6189   20.6152 H   0  0  0  0  0  0
  -26.8071  -30.8849   21.9966 H   0  0  0  0  0  0
  -28.1042  -29.1390   21.1538 H   0  0  0  0  0  0
  -26.1013  -25.9916   18.9964 H   0  0  0  0  0  0
  -23.9880  -27.2858   19.0465 H   0  0  0  0  0  0
  -23.6952  -30.5859   19.4066 H   0  0  0  0  0  0
  -22.7346  -29.2229   19.8884 H   0  0  0  0  0  0
  -25.1290  -36.2015   25.0831 H   0  0  0  0  0  0
  -20.9910  -28.3141   24.1460 H   0  0  0  0  0  0
  -20.5680  -26.2199   23.3567 H   0  0  0  0  0  0
  -21.6629  -26.7401   22.1194 H   0  0  0  0  0  0
  -19.6941  -25.6253   21.1196 H   0  0  0  0  0  0
  -19.6712  -27.3181   20.6742 H   0  0  0  0  0  0
  -17.4199  -26.6636   21.3969 H   0  0  0  0  0  0
  -18.0291  -26.0005   22.8957 H   0  0  0  0  0  0
  -19.7953  -30.7181   24.2252 H   0  0  0  0  0  0
  -17.5037  -31.6242   24.5108 H   0  0  0  0  0  0
  -15.5361  -30.2916   23.7695 H   0  0  0  0  0  0
  -15.8637  -28.0766   22.7068 H   0  0  0  0  0  0
  -24.5888  -30.7086   25.7802 H   0  0  0  0  0  0
  -24.8899  -32.2866   26.4963 H   0  0  0  0  0  0
  -25.8044  -30.8863   27.0230 H   0  0  0  0  0  0
  -26.2874  -29.6797   24.1267 H   0  0  0  0  0  0
  -27.4279  -29.7434   25.4542 H   0  0  0  0  0  0
  -27.8643  -30.4489   23.9159 H   0  0  0  0  0  0
  -27.2716  -33.3697   26.2014 H   0  0  0  0  0  0
  -28.3848  -32.6872   25.0253 H   0  0  0  0  0  0
  -28.0741  -31.8513   26.5379 H   0  0  0  0  0  0
  -28.2573  -38.0162   24.7620 H   0  0  0  0  0  0
  -28.1178  -36.2690   24.6130 H   0  0  0  0  0  0
  -27.2322  -37.1204   25.8847 H   0  0  0  0  0  0
  -20.9315  -29.8703   21.6987 H   0  0  0  0  0  0
  -26.0224  -38.2883   24.1503 H   0  0  0  0  0  0
  -29.2077  -15.5725   18.4869 H   0  0  0  0  0  0
  -29.7093  -16.8856   16.5278 H   0  0  0  0  0  0
  -30.2046  -20.3877   19.0240 H   0  0  0  0  0  0
  -25.2317  -20.1257   21.4444 H   0  0  0  0  0  0
  -26.0989  -20.5138   22.9288 H   0  0  0  0  0  0
  -26.4605  -22.5086   21.7370 H   0  0  0  0  0  0
  -26.4958  -21.7012   20.1870 H   0  0  0  0  0  0
  -27.1472  -18.9324   20.5577 H   0  0  0  0  0  0
  -27.1680  -18.4590   22.2690 H   0  0  0  0  0  0
  -28.7348  -21.5168   20.2464 H   0  0  0  0  0  0
  -30.4601  -26.1571   22.6021 H   0  0  0  0  0  0
  -30.1439  -27.6642   21.7589 H   0  0  0  0  0  0
  -30.8930  -26.3186   20.9037 H   0  0  0  0  0  0
  -31.4552  -18.0717   15.3908 H   0  0  0  0  0  0
  -31.1524  -19.5496   14.4914 H   0  0  0  0  0  0
  -29.8492  -18.3939   14.7230 H   0  0  0  0  0  0
  -30.6186  -16.3250   23.3318 H   0  0  0  0  0  0
  -31.7105  -16.7914   22.0184 H   0  0  0  0  0  0
  -31.8954  -15.2352   22.8268 H   0  0  0  0  0  0
  -30.5775  -19.9725   21.4248 H   0  0  0  0  0  0
  -29.9408  -18.5768   22.1944 H   0  0  0  0  0  0
  -28.2573  -15.6964   20.8735 H   0  0  0  0  0  0
  -28.8247  -16.8318   21.9791 H   0  0  0  0  0  0
  -30.1848  -22.3554   22.0063 H   0  0  0  0  0  0
  -29.0224  -22.0069   23.2482 H   0  0  0  0  0  0
  -29.7885  -21.2888   15.4721 H   0  0  0  0  0  0
  -29.4010  -21.2871   17.1564 H   0  0  0  0  0  0
  -29.6092  -24.2484   20.4145 H   0  0  0  0  0  0
  -27.8597  -24.2879   20.3748 H   0  0  0  0  0  0
  -28.0407  -26.3150   22.0272 H   0  0  0  0  0  0
  -29.2137  -24.2477   22.9470 H   0  0  0  0  0  0
  -27.7020  -23.7925   22.6076 H   0  0  0  0  0  0
  1 25  1  0  0  0
  1 30  2  0  0  0
  1 93  1  0  0  0
  2  3  1  0  0  0
  2 25  1  0  0  0
  2 98  1  0  0  0
  2 99  1  0  0  0
  3  4  1  0  0  0
  3100  1  0  0  0
  3101  1  0  0  0
  4  5  1  0  0  0
  4102  1  0  0  0
  4103  1  0  0  0
  5  6  1  0  0  0
  5 26  1  0  0  0
  5104  1  0  0  0
  6 25  1  0  0  0
  6105  1  0  0  0
  6106  1  0  0  0
  7  8  2  0  0  0
  7 26  1  0  0  0
  7 29  1  0  0  0
  8  9  1  0  0  0
  8 22  1  0  0  0
  9 10  1  0  0  0
  9 27  2  0  0  0
 10 11  2  0  0  0
 10 15  1  0  0  0
 11 12  1  0  0  0
 11107  1  0  0  0
 12 13  2  0  0  0
 12108  1  0  0  0
 13 14  1  0  0  0
 13 31  1  0  0  0
 14 15  2  0  0  0
 14109  1  0  0  0
 15110  1  0  0  0
 16 17  2  0  0  0
 16 21  1  0  0  0
 16 31  1  0  0  0
 17 18  1  0  0  0
 17111  1  0  0  0
 18 19  2  0  0  0
 18112  1  0  0  0
 19 20  1  0  0  0
 19 24  1  0  0  0
 20 21  2  0  0  0
 20113  1  0  0  0
 21 23  1  0  0  0
 22 28  1  0  0  0
 22 32  2  0  0  0
 26 27  1  0  0  0
 28114  1  0  0  0
 28115  1  0  0  0
 29116  1  0  0  0
 29117  1  0  0  0
 33 34  1  0  0  0
 33 66  1  0  0  0
 33 70  2  0  0  0
 34 36  1  0  0  0
 34 59  1  0  0  0
 34118  1  0  0  0
 35 44  2  0  0  0
 35 45  1  0  0  0
 35 68  1  0  0  0
 36 56  1  0  0  0
 36119  1  0  0  0
 37 39  1  0  0  0
 37 47  1  0  0  0
 37 66  1  0  0  0
 37120  1  0  0  0
 38 43  2  0  0  0
 38 46  1  0  0  0
 38 47  1  0  0  0
 39 64  1  0  0  0
 39 67  2  0  0  0
 40 52  1  0  0  0
 40 53  2  0  0  0
 40 58  1  0  0  0
 41121  1  0  0  0
 41122  1  0  0  0
 41123  1  0  0  0
 41 48  1  0  0  0
 42 43  1  0  0  0
 42 66  1  0  0  0
 42124  1  0  0  0
 42125  1  0  0  0
 43 44  1  0  0  0
 44126  1  0  0  0
 45 46  2  0  0  0
 45127  1  0  0  0
 46128  1  0  0  0
 47129  1  0  0  0
 47130  1  0  0  0
 48 56  1  0  0  0
 48 65  1  0  0  0
 48131  1  0  0  0
 49 50  1  0  0  0
 49 53  1  0  0  0
 49 64  1  0  0  0
 49132  1  0  0  0
 50 51  1  0  0  0
 50133  1  0  0  0
 50134  1  0  0  0
 51 52  1  0  0  0
 51135  1  0  0  0
 51136  1  0  0  0
 52137  1  0  0  0
 52138  1  0  0  0
 53 54  1  0  0  0
 54 55  2  0  0  0
 54139  1  0  0  0
 55 57  1  0  0  0
 55140  1  0  0  0
 56 69  2  0  0  0
 57 58  2  0  0  0
 57141  1  0  0  0
 58142  1  0  0  0
 59 60  1  0  0  0
 59 61  1  0  0  0
 59 62  1  0  0  0
 60143  1  0  0  0
 60144  1  0  0  0
 60145  1  0  0  0
 61146  1  0  0  0
 61147  1  0  0  0
 61148  1  0  0  0
 62149  1  0  0  0
 62150  1  0  0  0
 62151  1  0  0  0
 63 65  1  0  0  0
 63152  1  0  0  0
 63153  1  0  0  0
 63154  1  0  0  0
 64155  1  0  0  0
 65156  1  0  0  0
 68 89  1  0  0  0
 71 72  2  0  0  0
 71 74  1  0  0  0
 71157  1  0  0  0
 72 76  1  0  0  0
 72158  1  0  0  0
 73 75  1  0  0  0
 73 76  2  0  0  0
 73159  1  0  0  0
 74 75  2  0  0  0
 74 85  1  0  0  0
 75 84  1  0  0  0
 76 92  1  0  0  0
 77 78  1  0  0  0
 77 79  1  0  0  0
 77160  1  0  0  0
 77161  1  0  0  0
 78 80  1  0  0  0
 78162  1  0  0  0
 78163  1  0  0  0
 79 91  1  0  0  0
 79164  1  0  0  0
 79165  1  0  0  0
 80 86  1  0  0  0
 80 91  1  0  0  0
 80166  1  0  0  0
 81167  1  0  0  0
 81168  1  0  0  0
 81169  1  0  0  0
 81 89  1  0  0  0
 82 92  1  0  0  0
 82170  1  0  0  0
 82171  1  0  0  0
 82172  1  0  0  0
 83 93  1  0  0  0
 83173  1  0  0  0
 83174  1  0  0  0
 83175  1  0  0  0
 84 91  1  0  0  0
 84176  1  0  0  0
 84177  1  0  0  0
 85 93  1  0  0  0
 85178  1  0  0  0
 85179  1  0  0  0
 86 94  1  0  0  0
 86180  1  0  0  0
 86181  1  0  0  0
 87 90  1  0  0  0
 87 92  1  0  0  0
 87182  1  0  0  0
 87183  1  0  0  0
 88 89  1  0  0  0
 88 94  1  0  0  0
 88184  1  0  0  0
 88185  1  0  0  0
 89186  1  0  0  0
 90 95  1  0  0  0
 90 96  1  0  0  0
 90 97  1  0  0  0
 94187  1  0  0  0
 94188  1  0  0  0
M  CHG  1  94   1
M  ISO  4   1 100  68 101  89 101  93 100
M  END
> <chiral flag>
0

> <version>
0

> <s_m_source_file>
/data/baiqing/PycharmProjects/Reinvent-master-3.2/result/LINK_invent/BTK/process_docking_weight1_custom_product_contain_oxygen_bond_distance_aromatic_linkinvent_7_9_3/rearranged_h_0020.sdf

> <i_m_source_file_index>
14

> <r_mmod_Potential_Energy-OPLS-2005>
104.735160827637

> <r_mmod_Stretch_Energy-OPLS-2005>
42.5583343505859

> <r_mmod_Bend_Energy-OPLS-2005>
151.377502441406

> <r_mmod_Torsional_Energy-OPLS-2005>
386.519805908203

> <r_mmod_Improper_Torsional_Energy-OPLS-2005>
4.91975975036621

> <r_mmod_Van_der_Waal_Energy-OPLS-2005>
147.243621826172

> <r_mmod_Electrostatic_Energy-OPLS-2005>
-196.75830078125

> <r_mmod_Solvation_Energy-OPLS-2005>
-441.515502929688

> <b_mmod_Minimization_Converged-OPLS-2005>
0

> <r_mmod_RMS_Derivative-OPLS-2005>
3.68237590789795

$$$$
14
                    3D
 Structure written by MMmdl.
160169  0  0  1  0            999 V2000
  -30.6115  -14.5535   20.5416 C   0  0  0  0  0  0
  -30.4203  -12.3595   19.4057 C   0  0  0  0  0  0
  -29.4812  -12.5587   18.1962 C   0  0  0  0  0  0
  -28.0029  -12.3977   18.6155 C   0  0  0  0  0  0
  -27.6497  -13.2152   19.8888 C   0  0  2  0  0  0
  -28.6975  -12.9738   20.9958 C   0  0  0  0  0  0
  -25.2479  -13.8141   20.5792 C   0  0  0  0  0  0
  -24.1734  -13.0397   20.9149 C   0  0  0  0  0  0
  -24.6356  -11.6865   20.8701 C   0  0  0  0  0  0
  -23.9033  -10.4284   21.0371 C   0  0  0  0  0  0
  -24.3619   -9.4229   21.9151 C   0  0  0  0  0  0
  -23.6308   -8.2259   22.0735 C   0  0  0  0  0  0
  -22.4269   -8.0285   21.3574 C   0  0  0  0  0  0
  -21.9877   -9.0232   20.4627 C   0  0  0  0  0  0
  -22.7209  -10.2129   20.3032 C   0  0  0  0  0  0
  -21.6852   -6.0725   22.5282 C   0  0  0  0  0  0
  -21.3960   -6.5624   23.8218 C   0  0  0  0  0  0
  -21.3681   -5.6803   24.9199 C   0  0  0  0  0  0
  -21.6090   -4.3062   24.7233 C   0  0  0  0  0  0
  -21.8812   -3.8155   23.4337 C   0  0  0  0  0  0
  -21.9169   -4.6945   22.3376 C   0  0  0  0  0  0
  -22.7768  -13.5157   21.1837 C   0  0  0  0  0  0
  -22.1652   -4.2157   21.0955 F   0  0  0  0  0  0
  -21.5703   -3.4521   25.7727 F   0  0  0  0  0  0
  -30.0146  -13.3318   20.4390 N   0  0  0  0  0  0
  -26.2943  -12.9357   20.3493 N   0  0  0  0  0  0
  -25.9274  -11.6492   20.5758 N   0  0  0  0  0  0
  -22.0436  -12.8144   22.0393 N   0  0  0  0  0  0
  -25.4151  -15.1896   20.4475 N   0  0  0  0  0  0
  -31.7634  -14.7521   20.1443 O   0  0  0  0  0  0
  -21.6683   -6.8855   21.4251 O   0  0  0  0  0  0
  -22.3449  -14.5491   20.6727 O   0  0  0  0  0  0
  -24.6102  -31.8682   23.2032 C   0  0  0  0  0  0
  -25.8992  -32.4803   23.8373 C   0  0  1  0  0  0
  -27.2677  -27.4262   20.0897 C   0  0  0  0  0  0
  -25.5863  -33.8625   24.2278 N   0  0  0  0  0  0
  -23.4001  -30.4844   21.5428 C   0  0  2  0  0  0
  -24.8598  -28.9373   20.1236 C   0  0  0  0  0  0
  -22.7353  -29.4660   22.4975 C   0  0  0  0  0  0
  -18.0243  -28.1354   22.8504 C   0  0  0  0  0  0
  -24.1544  -36.7328   23.2631 C   0  0  0  0  0  0
  -25.9260  -30.8286   21.3584 C   0  0  0  0  0  0
  -26.0131  -29.4522   20.7268 C   0  0  0  0  0  0
  -27.2101  -28.6967   20.7194 C   0  0  0  0  0  0
  -26.0910  -26.9301   19.4868 C   0  0  0  0  0  0
  -24.8947  -27.6742   19.5113 C   0  0  0  0  0  0
  -23.6136  -29.7955   20.1651 C   0  0  0  0  0  0
  -25.4153  -36.3120   24.0310 C   0  0  1  0  0  0
  -20.5831  -28.3680   23.1310 C   0  0  2  0  0  0
  -20.6739  -26.9429   22.5394 C   0  0  0  0  0  0
  -19.5748  -26.6385   21.5153 C   0  0  0  0  0  0
  -18.1919  -26.7927   22.1585 C   0  0  0  0  0  0
  -19.1494  -28.8820   23.2919 C   0  0  0  0  0  0
  -18.9441  -30.1425   23.8951 C   0  0  0  0  0  0
  -17.6443  -30.6594   24.0567 C   0  0  0  0  0  0
  -25.9077  -34.9479   23.5126 C   0  0  0  0  0  0
  -16.5329  -29.9099   23.6311 C   0  0  0  0  0  0
  -16.7222  -28.6488   23.0379 C   0  0  0  0  0  0
  -26.4463  -31.6539   25.0680 C   0  0  0  0  0  0
  -25.3675  -31.3515   26.1345 C   0  0  0  0  0  0
  -27.0290  -30.3015   24.5995 C   0  0  0  0  0  0
  -27.6095  -32.4186   25.7411 C   0  0  0  0  0  0
  -27.5590  -37.1820   24.8458 C   0  0  0  0  0  0
  -21.4082  -29.3043   22.3701 N   0  0  0  0  0  0
  -26.4318  -37.3811   23.9391 N   0  0  0  0  0  0
  -24.6626  -31.0763   22.0933 N   0  0  0  0  0  0
  -23.4090  -28.8220   23.3054 O   0  0  0  0  0  0
  -28.4700  -26.7317   20.1008 O   0  0  0  0  0  0
  -26.5686  -34.8922   22.4726 O   0  0  0  0  0  0
  -23.5305  -32.1443   23.7427 O   0  0  0  0  0  0
  -30.9533  -19.1358   20.3804 C   0  0  0  0  0  0
  -30.9291  -17.7205   20.3294 C   0  0  0  0  0  0
  -29.9487  -19.8900   21.0484 C   0  0  0  0  0  0
  -28.8774  -19.1659   21.6601 C   0  0  0  0  0  0
  -29.8860  -16.9929   20.9496 C   0  0  0  0  0  0
  -28.8582  -17.7389   21.5881 C   0  0  0  0  0  0
  -28.8993  -22.8556   19.4854 C   0  0  0  0  0  0
  -29.3463  -23.7850   21.2431 C   0  0  0  0  0  0
  -28.4454  -24.2158   20.0744 C   0  0  1  0  0  0
  -27.7490  -19.8470   22.4446 C   0  0  0  0  0  0
  -30.1838  -21.4219   21.2000 C   0  0  0  0  0  0
  -28.6833  -25.5449   19.3074 C   0  0  0  0  0  0
  -29.7789  -15.5494   20.9556 N   0  0  0  0  0  0
  -29.0845  -22.3858   20.8672 N   0  3  2  0  0  0
  -27.8317  -17.0715   22.1710 F   0  0  0  0  0  0
  -31.4578  -12.5001   19.0988 H   0  0  0  0  0  0
  -30.3518  -11.3364   19.7824 H   0  0  0  0  0  0
  -29.7170  -11.8499   17.3971 H   0  0  0  0  0  0
  -29.6327  -13.5574   17.7783 H   0  0  0  0  0  0
  -27.8169  -11.3386   18.7925 H   0  0  0  0  0  0
  -27.3490  -12.6902   17.7947 H   0  0  0  0  0  0
  -27.6815  -14.2669   19.6122 H   0  0  0  0  0  0
  -28.6885  -11.9195   21.2824 H   0  0  0  0  0  0
  -28.4587  -13.5215   21.9103 H   0  0  0  0  0  0
  -25.2766   -9.5753   22.4712 H   0  0  0  0  0  0
  -24.0027   -7.4675   22.7461 H   0  0  0  0  0  0
  -21.0809   -8.8754   19.8925 H   0  0  0  0  0  0
  -22.3658  -10.9662   19.6152 H   0  0  0  0  0  0
  -21.1883   -7.6143   23.9692 H   0  0  0  0  0  0
  -21.1547   -6.0543   25.9104 H   0  0  0  0  0  0
  -22.0540   -2.7589   23.2851 H   0  0  0  0  0  0
  -22.4016  -11.9749   22.4740 H   0  0  0  0  0  0
  -21.1068  -13.1146   22.2641 H   0  0  0  0  0  0
  -24.6589  -15.8315   20.6612 H   0  0  0  0  0  0
  -26.3075  -15.6538   20.3422 H   0  0  0  0  0  0
  -26.7054  -32.5573   23.1146 H   0  0  0  0  0  0
  -24.9907  -33.9853   25.0330 H   0  0  0  0  0  0
  -22.6880  -31.3003   21.3906 H   0  0  0  0  0  0
  -23.3829  -35.9656   23.3298 H   0  0  0  0  0  0
  -24.3580  -36.8961   22.2039 H   0  0  0  0  0  0
  -23.7312  -37.6521   23.6697 H   0  0  0  0  0  0
  -26.0122  -31.5779   20.5711 H   0  0  0  0  0  0
  -26.8225  -30.9137   21.9606 H   0  0  0  0  0  0
  -28.1027  -29.0930   21.1873 H   0  0  0  0  0  0
  -26.0806  -25.9666   18.9997 H   0  0  0  0  0  0
  -24.0099  -27.2669   19.0427 H   0  0  0  0  0  0
  -23.7070  -30.5576   19.3913 H   0  0  0  0  0  0
  -22.7505  -29.1925   19.8792 H   0  0  0  0  0  0
  -25.1334  -36.1986   25.0796 H   0  0  0  0  0  0
  -20.9867  -28.3312   24.1467 H   0  0  0  0  0  0
  -20.5614  -26.2329   23.3593 H   0  0  0  0  0  0
  -21.6645  -26.7480   22.1271 H   0  0  0  0  0  0
  -19.6965  -25.6284   21.1204 H   0  0  0  0  0  0
  -19.6720  -27.3229   20.6711 H   0  0  0  0  0  0
  -17.4184  -26.6630   21.3997 H   0  0  0  0  0  0
  -18.0406  -26.0032   22.8973 H   0  0  0  0  0  0
  -19.7939  -30.7171   24.2389 H   0  0  0  0  0  0
  -17.5045  -31.6292   24.5179 H   0  0  0  0  0  0
  -15.5378  -30.3043   23.7598 H   0  0  0  0  0  0
  -15.8611  -28.0786   22.7129 H   0  0  0  0  0  0
  -24.5995  -30.6751   25.7503 H   0  0  0  0  0  0
  -24.8681  -32.2622   26.4737 H   0  0  0  0  0  0
  -25.7976  -30.8653   27.0122 H   0  0  0  0  0  0
  -26.2837  -29.6729   24.1134 H   0  0  0  0  0  0
  -27.4183  -29.7249   25.4377 H   0  0  0  0  0  0
  -27.8590  -30.4327   23.9057 H   0  0  0  0  0  0
  -27.2852  -33.3528   26.1989 H   0  0  0  0  0  0
  -28.3910  -32.6598   25.0197 H   0  0  0  0  0  0
  -28.0773  -31.8259   26.5286 H   0  0  0  0  0  0
  -28.2583  -38.0139   24.7532 H   0  0  0  0  0  0
  -28.1113  -36.2663   24.6303 H   0  0  0  0  0  0
  -27.2266  -37.1438   25.8842 H   0  0  0  0  0  0
  -20.9210  -29.8794   21.6950 H   0  0  0  0  0  0
  -26.0208  -38.2885   24.1437 H   0  0  0  0  0  0
  -31.8065  -19.6307   19.9322 H   0  0  0  0  0  0
  -31.7355  -17.2100   19.8173 H   0  0  0  0  0  0
  -29.8326  -22.9193   18.9182 H   0  0  0  0  0  0
  -28.1294  -22.3120   18.9317 H   0  0  0  0  0  0
  -28.9834  -24.0593   22.2352 H   0  0  0  0  0  0
  -30.3921  -24.0737   21.1152 H   0  0  0  0  0  0
  -27.4024  -24.1555   20.3935 H   0  0  0  0  0  0
  -26.7833  -19.6862   21.9630 H   0  0  0  0  0  0
  -27.8697  -20.9200   22.5673 H   0  0  0  0  0  0
  -27.6747  -19.4381   23.4540 H   0  0  0  0  0  0
  -31.0761  -21.7082   20.6401 H   0  0  0  0  0  0
  -30.4457  -21.5820   22.2467 H   0  0  0  0  0  0
  -28.1035  -25.5852   18.3829 H   0  0  0  0  0  0
  -29.7181  -25.5816   18.9624 H   0  0  0  0  0  0
  -28.8780  -15.2234   21.2666 H   0  0  0  0  0  0
  -28.2052  -22.0950   21.2663 H   0  0  0  0  0  0
  1 25  1  0  0  0
  1 30  2  0  0  0
  1 83  1  0  0  0
  2  3  1  0  0  0
  2 25  1  0  0  0
  2 86  1  0  0  0
  2 87  1  0  0  0
  3  4  1  0  0  0
  3 88  1  0  0  0
  3 89  1  0  0  0
  4  5  1  0  0  0
  4 90  1  0  0  0
  4 91  1  0  0  0
  5  6  1  0  0  0
  5 26  1  0  0  0
  5 92  1  0  0  0
  6 25  1  0  0  0
  6 93  1  0  0  0
  6 94  1  0  0  0
  7  8  2  0  0  0
  7 26  1  0  0  0
  7 29  1  0  0  0
  8  9  1  0  0  0
  8 22  1  0  0  0
  9 10  1  0  0  0
  9 27  2  0  0  0
 10 11  2  0  0  0
 10 15  1  0  0  0
 11 12  1  0  0  0
 11 95  1  0  0  0
 12 13  2  0  0  0
 12 96  1  0  0  0
 13 14  1  0  0  0
 13 31  1  0  0  0
 14 15  2  0  0  0
 14 97  1  0  0  0
 15 98  1  0  0  0
 16 17  2  0  0  0
 16 21  1  0  0  0
 16 31  1  0  0  0
 17 18  1  0  0  0
 17 99  1  0  0  0
 18 19  2  0  0  0
 18100  1  0  0  0
 19 20  1  0  0  0
 19 24  1  0  0  0
 20 21  2  0  0  0
 20101  1  0  0  0
 21 23  1  0  0  0
 22 28  1  0  0  0
 22 32  2  0  0  0
 26 27  1  0  0  0
 28102  1  0  0  0
 28103  1  0  0  0
 29104  1  0  0  0
 29105  1  0  0  0
 33 34  1  0  0  0
 33 66  1  0  0  0
 33 70  2  0  0  0
 34 36  1  0  0  0
 34 59  1  0  0  0
 34106  1  0  0  0
 35 44  2  0  0  0
 35 45  1  0  0  0
 35 68  1  0  0  0
 36 56  1  0  0  0
 36107  1  0  0  0
 37 39  1  0  0  0
 37 47  1  0  0  0
 37 66  1  0  0  0
 37108  1  0  0  0
 38 43  2  0  0  0
 38 46  1  0  0  0
 38 47  1  0  0  0
 39 64  1  0  0  0
 39 67  2  0  0  0
 40 52  1  0  0  0
 40 53  2  0  0  0
 40 58  1  0  0  0
 41109  1  0  0  0
 41110  1  0  0  0
 41111  1  0  0  0
 41 48  1  0  0  0
 42 43  1  0  0  0
 42 66  1  0  0  0
 42112  1  0  0  0
 42113  1  0  0  0
 43 44  1  0  0  0
 44114  1  0  0  0
 45 46  2  0  0  0
 45115  1  0  0  0
 46116  1  0  0  0
 47117  1  0  0  0
 47118  1  0  0  0
 48 56  1  0  0  0
 48 65  1  0  0  0
 48119  1  0  0  0
 49 50  1  0  0  0
 49 53  1  0  0  0
 49 64  1  0  0  0
 49120  1  0  0  0
 50 51  1  0  0  0
 50121  1  0  0  0
 50122  1  0  0  0
 51 52  1  0  0  0
 51123  1  0  0  0
 51124  1  0  0  0
 52125  1  0  0  0
 52126  1  0  0  0
 53 54  1  0  0  0
 54 55  2  0  0  0
 54127  1  0  0  0
 55 57  1  0  0  0
 55128  1  0  0  0
 56 69  2  0  0  0
 57 58  2  0  0  0
 57129  1  0  0  0
 58130  1  0  0  0
 59 60  1  0  0  0
 59 61  1  0  0  0
 59 62  1  0  0  0
 60131  1  0  0  0
 60132  1  0  0  0
 60133  1  0  0  0
 61134  1  0  0  0
 61135  1  0  0  0
 61136  1  0  0  0
 62137  1  0  0  0
 62138  1  0  0  0
 62139  1  0  0  0
 63 65  1  0  0  0
 63140  1  0  0  0
 63141  1  0  0  0
 63142  1  0  0  0
 64143  1  0  0  0
 65144  1  0  0  0
 68 82  1  0  0  0
 71 72  2  0  0  0
 71 73  1  0  0  0
 71145  1  0  0  0
 72 75  1  0  0  0
 72146  1  0  0  0
 73 74  2  0  0  0
 73 81  1  0  0  0
 74 76  1  0  0  0
 74 80  1  0  0  0
 75 76  2  0  0  0
 75 83  1  0  0  0
 76 85  1  0  0  0
 77 79  1  0  0  0
 77 84  1  0  0  0
 77147  1  0  0  0
 77148  1  0  0  0
 78 79  1  0  0  0
 78 84  1  0  0  0
 78149  1  0  0  0
 78150  1  0  0  0
 79 82  1  0  0  0
 79151  1  0  0  0
 80152  1  0  0  0
 80153  1  0  0  0
 80154  1  0  0  0
 81155  1  0  0  0
 81156  1  0  0  0
 81 84  1  0  0  0
 82157  1  0  0  0
 82158  1  0  0  0
 83159  1  0  0  0
 84160  1  0  0  0
M  CHG  1  84   1
M  ISO  4   1 100  68 101  82 101  83 100
M  END
> <chiral flag>
0

> <version>
0

> <s_m_source_file>
/data/baiqing/PycharmProjects/Reinvent-master-3.2/result/LINK_invent/BTK/process_docking_weight1_custom_product_contain_oxygen_bond_distance_aromatic_linkinvent_7_9_3/rearranged_h_0020.sdf

> <i_m_source_file_index>
15

> <r_mmod_Potential_Energy-OPLS-2005>
-176.519454956055

> <r_mmod_Stretch_Energy-OPLS-2005>
52.6644058227539

> <r_mmod_Bend_Energy-OPLS-2005>
150.112106323242

> <r_mmod_Torsional_Energy-OPLS-2005>
219.077529907227

> <r_mmod_Improper_Torsional_Energy-OPLS-2005>
4.96651697158813

> <r_mmod_Van_der_Waal_Energy-OPLS-2005>
148.543685913086

> <r_mmod_Electrostatic_Energy-OPLS-2005>
-312.515411376953

> <r_mmod_Solvation_Energy-OPLS-2005>
-460.185455322266

> <b_mmod_Minimization_Converged-OPLS-2005>
0

> <r_mmod_RMS_Derivative-OPLS-2005>
7.41429805755615

$$$$
15
                    3D
 Structure written by MMmdl.
169178  0  0  1  0            999 V2000
  -30.6767  -14.4514   20.5889 C   0  0  0  0  0  0
  -30.4297  -12.2816   19.4205 C   0  0  0  0  0  0
  -29.5192  -12.5243   18.2031 C   0  0  0  0  0  0
  -28.0524  -12.3013   18.6246 C   0  0  0  0  0  0
  -27.6760  -13.1644   19.8597 C   0  0  2  0  0  0
  -28.7053  -12.9672   20.9961 C   0  0  0  0  0  0
  -25.2854  -13.8014   20.5600 C   0  0  0  0  0  0
  -24.2019  -13.0432   20.9140 C   0  0  0  0  0  0
  -24.6459  -11.6840   20.8710 C   0  0  0  0  0  0
  -23.9073  -10.4281   21.0391 C   0  0  0  0  0  0
  -24.3613   -9.4228   21.9225 C   0  0  0  0  0  0
  -23.6303   -8.2265   22.0818 C   0  0  0  0  0  0
  -22.4312   -8.0283   21.3552 C   0  0  0  0  0  0
  -21.9945   -9.0257   20.4638 C   0  0  0  0  0  0
  -22.7266  -10.2144   20.3036 C   0  0  0  0  0  0
  -21.6860   -6.0750   22.5280 C   0  0  0  0  0  0
  -21.4010   -6.5677   23.8205 C   0  0  0  0  0  0
  -21.3646   -5.6816   24.9182 C   0  0  0  0  0  0
  -21.6003   -4.3060   24.7227 C   0  0  0  0  0  0
  -21.8847   -3.8168   23.4335 C   0  0  0  0  0  0
  -21.9244   -4.6989   22.3380 C   0  0  0  0  0  0
  -22.8121  -13.5404   21.1791 C   0  0  0  0  0  0
  -22.1738   -4.2171   21.0952 F   0  0  0  0  0  0
  -21.5597   -3.4521   25.7758 F   0  0  0  0  0  0
  -30.0381  -13.2548   20.4539 N   0  0  0  0  0  0
  -26.3160  -12.9093   20.3182 N   0  0  0  0  0  0
  -25.9363  -11.6312   20.5656 N   0  0  0  0  0  0
  -22.0703  -12.8347   22.0245 N   0  0  0  0  0  0
  -25.4845  -15.1698   20.3940 N   0  0  0  0  0  0
  -31.7852  -14.6534   20.0899 O   0  0  0  0  0  0
  -21.6660   -6.8892   21.4239 O   0  0  0  0  0  0
  -22.3916  -14.5774   20.6710 O   0  0  0  0  0  0
  -24.6164  -31.8669   23.2170 C   0  0  0  0  0  0
  -25.9067  -32.4791   23.8459 C   0  0  1  0  0  0
  -27.2504  -27.4816   20.0313 C   0  0  0  0  0  0
  -25.5960  -33.8593   24.2360 N   0  0  0  0  0  0
  -23.4049  -30.4923   21.5543 C   0  0  2  0  0  0
  -24.8514  -28.9553   20.1222 C   0  0  0  0  0  0
  -22.7421  -29.4679   22.5025 C   0  0  0  0  0  0
  -18.0266  -28.1400   22.8480 C   0  0  0  0  0  0
  -24.1468  -36.7270   23.2673 C   0  0  0  0  0  0
  -25.9374  -30.8282   21.3839 C   0  0  0  0  0  0
  -26.0130  -29.4736   20.7107 C   0  0  0  0  0  0
  -27.2162  -28.7379   20.6697 C   0  0  0  0  0  0
  -26.0709  -26.9585   19.4627 C   0  0  0  0  0  0
  -24.8690  -27.6897   19.5099 C   0  0  0  0  0  0
  -23.6170  -29.8228   20.1716 C   0  0  0  0  0  0
  -25.4110  -36.3065   24.0351 C   0  0  1  0  0  0
  -20.5853  -28.3690   23.1294 C   0  0  2  0  0  0
  -20.6767  -26.9427   22.5422 C   0  0  0  0  0  0
  -19.5757  -26.6367   21.5233 C   0  0  0  0  0  0
  -18.1922  -26.7963   22.1593 C   0  0  0  0  0  0
  -19.1525  -28.8864   23.2879 C   0  0  0  0  0  0
  -18.9440  -30.1511   23.8854 C   0  0  0  0  0  0
  -17.6459  -30.6616   24.0560 C   0  0  0  0  0  0
  -25.9065  -34.9434   23.5117 C   0  0  0  0  0  0
  -16.5344  -29.9116   23.6338 C   0  0  0  0  0  0
  -16.7267  -28.6512   23.0380 C   0  0  0  0  0  0
  -26.4499  -31.6615   25.0802 C   0  0  0  0  0  0
  -25.3753  -31.3583   26.1510 C   0  0  0  0  0  0
  -27.0502  -30.3093   24.6299 C   0  0  0  0  0  0
  -27.5999  -32.4409   25.7617 C   0  0  0  0  0  0
  -27.5554  -37.1769   24.8496 C   0  0  0  0  0  0
  -21.4161  -29.3055   22.3714 N   0  0  0  0  0  0
  -26.4263  -37.3767   23.9447 N   0  0  0  0  0  0
  -24.6686  -31.0785   22.1066 N   0  0  0  0  0  0
  -23.4155  -28.8274   23.3109 O   0  0  0  0  0  0
  -28.4033  -26.7377   20.0348 O   0  0  0  0  0  0
  -26.5594  -34.8882   22.4654 O   0  0  0  0  0  0
  -23.5362  -32.1435   23.7548 O   0  0  0  0  0  0
  -29.9319  -19.9667   18.0096 C   0  0  0  0  0  0
  -29.8829  -21.2515   17.4276 C   0  0  0  0  0  0
  -27.8001  -20.3695   19.1046 C   0  0  0  0  0  0
  -28.9149  -19.5353   18.8864 C   0  0  0  0  0  0
  -28.8163  -22.1405   17.7132 C   0  0  0  0  0  0
  -27.7523  -21.6527   18.5305 C   0  0  0  0  0  0
  -30.1210  -25.4501   16.8676 C   0  0  0  0  0  0
  -29.7450  -24.0658   16.3066 C   0  0  0  0  0  0
  -28.5586  -24.4546   18.3399 C   0  0  0  0  0  0
  -28.9428  -25.8208   17.7894 C   0  0  1  0  0  0
  -30.1372  -19.4542   21.4503 C   0  0  0  0  0  0
  -29.0059  -18.1717   19.5719 C   0  0  0  0  0  0
  -29.9315  -15.6324   21.2704 C   0  0  0  0  0  0
  -29.2605  -26.8589   18.8952 C   0  0  0  0  0  0
  -30.5934  -17.0371   21.1241 C   0  0  0  0  0  0
  -28.7971  -23.4878   17.2721 N   0  0  0  0  0  0
  -29.6083  -18.1510   20.9465 N   0  3  1  0  0  0
  -26.6591  -22.4160   18.7899 F   0  0  0  0  0  0
  -31.4821  -12.3484   19.1390 H   0  0  0  0  0  0
  -30.2798  -11.2634   19.7878 H   0  0  0  0  0  0
  -29.7860  -11.8578   17.3825 H   0  0  0  0  0  0
  -29.6564  -13.5454   17.8387 H   0  0  0  0  0  0
  -27.9495  -11.2402   18.8747 H   0  0  0  0  0  0
  -27.3784  -12.4800   17.7870 H   0  0  0  0  0  0
  -27.7249  -14.1988   19.5289 H   0  0  0  0  0  0
  -28.6742  -11.9409   21.3647 H   0  0  0  0  0  0
  -28.4522  -13.5889   21.8552 H   0  0  0  0  0  0
  -25.2728   -9.5743   22.4827 H   0  0  0  0  0  0
  -23.9989   -7.4683   22.7612 H   0  0  0  0  0  0
  -21.0890   -8.8734   19.8938 H   0  0  0  0  0  0
  -22.3705  -10.9671   19.6128 H   0  0  0  0  0  0
  -21.1938   -7.6192   23.9709 H   0  0  0  0  0  0
  -21.1447   -6.0554   25.9095 H   0  0  0  0  0  0
  -22.0608   -2.7635   23.2833 H   0  0  0  0  0  0
  -22.4341  -11.9942   22.4497 H   0  0  0  0  0  0
  -21.1326  -13.1340   22.2385 H   0  0  0  0  0  0
  -24.7376  -15.8461   20.5007 H   0  0  0  0  0  0
  -26.3270  -15.5621   19.9994 H   0  0  0  0  0  0
  -26.7153  -32.5510   23.1248 H   0  0  0  0  0  0
  -25.0224  -33.9781   25.0574 H   0  0  0  0  0  0
  -22.6923  -31.3060   21.4088 H   0  0  0  0  0  0
  -23.3754  -35.9563   23.3284 H   0  0  0  0  0  0
  -24.3539  -36.8959   22.2075 H   0  0  0  0  0  0
  -23.7167  -37.6428   23.6767 H   0  0  0  0  0  0
  -26.0820  -31.6101   20.6389 H   0  0  0  0  0  0
  -26.8107  -30.8473   22.0255 H   0  0  0  0  0  0
  -28.1162  -29.1298   21.1200 H   0  0  0  0  0  0
  -26.0719  -25.9923   18.9838 H   0  0  0  0  0  0
  -23.9687  -27.2834   19.0707 H   0  0  0  0  0  0
  -23.7450  -30.5959   19.4124 H   0  0  0  0  0  0
  -22.7428  -29.2437   19.8682 H   0  0  0  0  0  0
  -25.1269  -36.1885   25.0844 H   0  0  0  0  0  0
  -20.9922  -28.3276   24.1428 H   0  0  0  0  0  0
  -20.5712  -26.2317   23.3619 H   0  0  0  0  0  0
  -21.6609  -26.7490   22.1205 H   0  0  0  0  0  0
  -19.6908  -25.6263   21.1333 H   0  0  0  0  0  0
  -19.6722  -27.3072   20.6683 H   0  0  0  0  0  0
  -17.4227  -26.6778   21.3950 H   0  0  0  0  0  0
  -18.0237  -26.0075   22.8947 H   0  0  0  0  0  0
  -19.7923  -30.7322   24.2195 H   0  0  0  0  0  0
  -17.5021  -31.6288   24.5183 H   0  0  0  0  0  0
  -15.5364  -30.3002   23.7720 H   0  0  0  0  0  0
  -15.8659  -28.0850   22.7106 H   0  0  0  0  0  0
  -24.6113  -30.6734   25.7812 H   0  0  0  0  0  0
  -24.8715  -32.2648   26.4864 H   0  0  0  0  0  0
  -25.8151  -30.8896   27.0327 H   0  0  0  0  0  0
  -26.3136  -29.6689   24.1464 H   0  0  0  0  0  0
  -27.4371  -29.7498   25.4823 H   0  0  0  0  0  0
  -27.8879  -30.4442   23.9463 H   0  0  0  0  0  0
  -27.2542  -33.3660   26.2238 H   0  0  0  0  0  0
  -28.3798  -32.7081   25.0478 H   0  0  0  0  0  0
  -28.0739  -31.8567   26.5517 H   0  0  0  0  0  0
  -28.2555  -38.0083   24.7621 H   0  0  0  0  0  0
  -28.1097  -36.2614   24.6314 H   0  0  0  0  0  0
  -27.2288  -37.1377   25.8908 H   0  0  0  0  0  0
  -20.9411  -29.8746   21.6867 H   0  0  0  0  0  0
  -26.0146  -38.2817   24.1561 H   0  0  0  0  0  0
  -30.7736  -19.3225   17.7951 H   0  0  0  0  0  0
  -30.7057  -21.5370   16.7907 H   0  0  0  0  0  0
  -26.9785  -20.0482   19.7314 H   0  0  0  0  0  0
  -30.3290  -26.1848   16.0822 H   0  0  0  0  0  0
  -31.0409  -25.3518   17.4526 H   0  0  0  0  0  0
  -30.6448  -23.4813   16.1176 H   0  0  0  0  0  0
  -29.2413  -24.1798   15.3427 H   0  0  0  0  0  0
  -27.5150  -24.4606   18.6435 H   0  0  0  0  0  0
  -29.1651  -24.2064   19.2146 H   0  0  0  0  0  0
  -28.1073  -26.1796   17.1826 H   0  0  0  0  0  0
  -29.3447  -20.2038   21.5082 H   0  0  0  0  0  0
  -30.9398  -19.8424   20.8194 H   0  0  0  0  0  0
  -30.5444  -19.3586   22.4579 H   0  0  0  0  0  0
  -29.5645  -17.5158   18.9018 H   0  0  0  0  0  0
  -28.0023  -17.7405   19.6269 H   0  0  0  0  0  0
  -28.9325  -15.6741   20.8361 H   0  0  0  0  0  0
  -29.7859  -15.4077   22.3273 H   0  0  0  0  0  0
  -29.2521  -27.8726   18.4935 H   0  0  0  0  0  0
  -30.2717  -26.6898   19.2654 H   0  0  0  0  0  0
  -31.3164  -17.0781   20.3033 H   0  0  0  0  0  0
  -31.1769  -17.2131   22.0315 H   0  0  0  0  0  0
  -28.8319  -17.9553   21.5643 H   0  0  0  0  0  0
  1 25  1  0  0  0
  1 30  2  0  0  0
  1 83  1  0  0  0
  2  3  1  0  0  0
  2 25  1  0  0  0
  2 89  1  0  0  0
  2 90  1  0  0  0
  3  4  1  0  0  0
  3 91  1  0  0  0
  3 92  1  0  0  0
  4  5  1  0  0  0
  4 93  1  0  0  0
  4 94  1  0  0  0
  5  6  1  0  0  0
  5 26  1  0  0  0
  5 95  1  0  0  0
  6 25  1  0  0  0
  6 96  1  0  0  0
  6 97  1  0  0  0
  7  8  2  0  0  0
  7 26  1  0  0  0
  7 29  1  0  0  0
  8  9  1  0  0  0
  8 22  1  0  0  0
  9 10  1  0  0  0
  9 27  2  0  0  0
 10 11  2  0  0  0
 10 15  1  0  0  0
 11 12  1  0  0  0
 11 98  1  0  0  0
 12 13  2  0  0  0
 12 99  1  0  0  0
 13 14  1  0  0  0
 13 31  1  0  0  0
 14 15  2  0  0  0
 14100  1  0  0  0
 15101  1  0  0  0
 16 17  2  0  0  0
 16 21  1  0  0  0
 16 31  1  0  0  0
 17 18  1  0  0  0
 17102  1  0  0  0
 18 19  2  0  0  0
 18103  1  0  0  0
 19 20  1  0  0  0
 19 24  1  0  0  0
 20 21  2  0  0  0
 20104  1  0  0  0
 21 23  1  0  0  0
 22 28  1  0  0  0
 22 32  2  0  0  0
 26 27  1  0  0  0
 28105  1  0  0  0
 28106  1  0  0  0
 29107  1  0  0  0
 29108  1  0  0  0
 33 34  1  0  0  0
 33 66  1  0  0  0
 33 70  2  0  0  0
 34 36  1  0  0  0
 34 59  1  0  0  0
 34109  1  0  0  0
 35 44  2  0  0  0
 35 45  1  0  0  0
 35 68  1  0  0  0
 36 56  1  0  0  0
 36110  1  0  0  0
 37 39  1  0  0  0
 37 47  1  0  0  0
 37 66  1  0  0  0
 37111  1  0  0  0
 38 43  2  0  0  0
 38 46  1  0  0  0
 38 47  1  0  0  0
 39 64  1  0  0  0
 39 67  2  0  0  0
 40 52  1  0  0  0
 40 53  2  0  0  0
 40 58  1  0  0  0
 41112  1  0  0  0
 41113  1  0  0  0
 41114  1  0  0  0
 41 48  1  0  0  0
 42 43  1  0  0  0
 42 66  1  0  0  0
 42115  1  0  0  0
 42116  1  0  0  0
 43 44  1  0  0  0
 44117  1  0  0  0
 45 46  2  0  0  0
 45118  1  0  0  0
 46119  1  0  0  0
 47120  1  0  0  0
 47121  1  0  0  0
 48 56  1  0  0  0
 48 65  1  0  0  0
 48122  1  0  0  0
 49 50  1  0  0  0
 49 53  1  0  0  0
 49 64  1  0  0  0
 49123  1  0  0  0
 50 51  1  0  0  0
 50124  1  0  0  0
 50125  1  0  0  0
 51 52  1  0  0  0
 51126  1  0  0  0
 51127  1  0  0  0
 52128  1  0  0  0
 52129  1  0  0  0
 53 54  1  0  0  0
 54 55  2  0  0  0
 54130  1  0  0  0
 55 57  1  0  0  0
 55131  1  0  0  0
 56 69  2  0  0  0
 57 58  2  0  0  0
 57132  1  0  0  0
 58133  1  0  0  0
 59 60  1  0  0  0
 59 61  1  0  0  0
 59 62  1  0  0  0
 60134  1  0  0  0
 60135  1  0  0  0
 60136  1  0  0  0
 61137  1  0  0  0
 61138  1  0  0  0
 61139  1  0  0  0
 62140  1  0  0  0
 62141  1  0  0  0
 62142  1  0  0  0
 63 65  1  0  0  0
 63143  1  0  0  0
 63144  1  0  0  0
 63145  1  0  0  0
 64146  1  0  0  0
 65147  1  0  0  0
 68 84  1  0  0  0
 71 72  2  0  0  0
 71 74  1  0  0  0
 71148  1  0  0  0
 72 75  1  0  0  0
 72149  1  0  0  0
 73 74  2  0  0  0
 73 76  1  0  0  0
 73150  1  0  0  0
 74 82  1  0  0  0
 75 76  2  0  0  0
 75 86  1  0  0  0
 76 88  1  0  0  0
 77 78  1  0  0  0
 77 80  1  0  0  0
 77151  1  0  0  0
 77152  1  0  0  0
 78 86  1  0  0  0
 78153  1  0  0  0
 78154  1  0  0  0
 79 80  1  0  0  0
 79 86  1  0  0  0
 79155  1  0  0  0
 79156  1  0  0  0
 80 84  1  0  0  0
 80157  1  0  0  0
 81158  1  0  0  0
 81159  1  0  0  0
 81160  1  0  0  0
 81 87  1  0  0  0
 82 87  1  0  0  0
 82161  1  0  0  0
 82162  1  0  0  0
 83 85  1  0  0  0
 83163  1  0  0  0
 83164  1  0  0  0
 84165  1  0  0  0
 84166  1  0  0  0
 85 87  1  0  0  0
 85167  1  0  0  0
 85168  1  0  0  0
 87169  1  0  0  0
M  CHG  1  87   1
M  ISO  4   1 100  68 101  83 100  84 101
M  END
> <chiral flag>
0

> <version>
0

> <s_m_source_file>
/data/baiqing/PycharmProjects/Reinvent-master-3.2/result/LINK_invent/BTK/process_docking_weight1_custom_product_contain_oxygen_bond_distance_aromatic_linkinvent_7_9_3/rearranged_h_0020.sdf

> <i_m_source_file_index>
16

> <r_mmod_Potential_Energy-OPLS-2005>
-36.1464767456055

> <r_mmod_Stretch_Energy-OPLS-2005>
41.2997436523438

> <r_mmod_Bend_Energy-OPLS-2005>
139.901626586914

> <r_mmod_Torsional_Energy-OPLS-2005>
265.976013183594

> <r_mmod_Improper_Torsional_Energy-OPLS-2005>
7.22441434860229

> <r_mmod_Van_der_Waal_Energy-OPLS-2005>
158.490951538086

> <r_mmod_Electrostatic_Energy-OPLS-2005>
-195.325805664062

> <r_mmod_Solvation_Energy-OPLS-2005>
-466.888702392578

> <b_mmod_Minimization_Converged-OPLS-2005>
0

> <r_mmod_RMS_Derivative-OPLS-2005>
7.46684694290161

$$$$
16
                    3D
 Structure written by MMmdl.
173181  0  0  1  0            999 V2000
  -30.6605  -14.5090   20.5688 C   0  0  0  0  0  0
  -30.4184  -12.3163   19.4465 C   0  0  0  0  0  0
  -29.5050  -12.5014   18.2185 C   0  0  0  0  0  0
  -28.0286  -12.3431   18.6289 C   0  0  0  0  0  0
  -27.6600  -13.1949   19.8748 C   0  0  2  0  0  0
  -28.6930  -13.0031   21.0081 C   0  0  0  0  0  0
  -25.2595  -13.8095   20.5696 C   0  0  0  0  0  0
  -24.1817  -13.0358   20.9113 C   0  0  0  0  0  0
  -24.6393  -11.6841   20.8691 C   0  0  0  0  0  0
  -23.9079  -10.4227   21.0395 C   0  0  0  0  0  0
  -24.3617   -9.4159   21.9199 C   0  0  0  0  0  0
  -23.6273   -8.2213   22.0774 C   0  0  0  0  0  0
  -22.4259   -8.0273   21.3562 C   0  0  0  0  0  0
  -21.9899   -9.0236   20.4671 C   0  0  0  0  0  0
  -22.7241  -10.2099   20.3073 C   0  0  0  0  0  0
  -21.6828   -6.0743   22.5280 C   0  0  0  0  0  0
  -21.4007   -6.5645   23.8219 C   0  0  0  0  0  0
  -21.3648   -5.6798   24.9174 C   0  0  0  0  0  0
  -21.6031   -4.3060   24.7234 C   0  0  0  0  0  0
  -21.8800   -3.8150   23.4356 C   0  0  0  0  0  0
  -21.9190   -4.6971   22.3408 C   0  0  0  0  0  0
  -22.7880  -13.5220   21.1806 C   0  0  0  0  0  0
  -22.1659   -4.2157   21.0984 F   0  0  0  0  0  0
  -21.5622   -3.4560   25.7752 F   0  0  0  0  0  0
  -30.0228  -13.3114   20.4591 N   0  0  0  0  0  0
  -26.3004  -12.9237   20.3331 N   0  0  0  0  0  0
  -25.9301  -11.6407   20.5722 N   0  0  0  0  0  0
  -22.0511  -12.8220   22.0393 N   0  0  0  0  0  0
  -25.4387  -15.1817   20.4373 N   0  0  0  0  0  0
  -31.7852  -14.7107   20.1016 O   0  0  0  0  0  0
  -21.6619   -6.8875   21.4247 O   0  0  0  0  0  0
  -22.3585  -14.5551   20.6719 O   0  0  0  0  0  0
  -24.6120  -31.8815   23.2170 C   0  0  0  0  0  0
  -25.9045  -32.4934   23.8428 C   0  0  1  0  0  0
  -27.2150  -27.4680   20.0920 C   0  0  0  0  0  0
  -25.5921  -33.8747   24.2311 N   0  0  0  0  0  0
  -23.3938  -30.5139   21.5577 C   0  0  2  0  0  0
  -24.8298  -28.9912   20.1263 C   0  0  0  0  0  0
  -22.7369  -29.4762   22.4964 C   0  0  0  0  0  0
  -18.0255  -28.1358   22.8471 C   0  0  0  0  0  0
  -24.1440  -36.7402   23.2613 C   0  0  0  0  0  0
  -25.9284  -30.8574   21.3686 C   0  0  0  0  0  0
  -26.0000  -29.5041   20.6971 C   0  0  0  0  0  0
  -27.2024  -28.7601   20.6563 C   0  0  0  0  0  0
  -25.9932  -26.9336   19.6262 C   0  0  0  0  0  0
  -24.8206  -27.6966   19.5897 C   0  0  0  0  0  0
  -23.5996  -29.8651   20.1668 C   0  0  0  0  0  0
  -25.4100  -36.3217   24.0259 C   0  0  1  0  0  0
  -20.5834  -28.3683   23.1273 C   0  0  2  0  0  0
  -20.6743  -26.9406   22.5385 C   0  0  0  0  0  0
  -19.5743  -26.6352   21.5184 C   0  0  0  0  0  0
  -18.1899  -26.7904   22.1562 C   0  0  0  0  0  0
  -19.1496  -28.8826   23.2872 C   0  0  0  0  0  0
  -18.9443  -30.1415   23.8886 C   0  0  0  0  0  0
  -17.6457  -30.6558   24.0584 C   0  0  0  0  0  0
  -25.9023  -34.9579   23.5065 C   0  0  0  0  0  0
  -16.5345  -29.9056   23.6361 C   0  0  0  0  0  0
  -16.7245  -28.6489   23.0347 C   0  0  0  0  0  0
  -26.4415  -31.6740   25.0788 C   0  0  0  0  0  0
  -25.3587  -31.3920   26.1473 C   0  0  0  0  0  0
  -27.0168  -30.3131   24.6221 C   0  0  0  0  0  0
  -27.5985  -32.4464   25.7549 C   0  0  0  0  0  0
  -27.5554  -37.1841   24.8418 C   0  0  0  0  0  0
  -21.4094  -29.3084   22.3705 N   0  0  0  0  0  0
  -26.4282  -37.3887   23.9365 N   0  0  0  0  0  0
  -24.6631  -31.0934   22.1061 N   0  0  0  0  0  0
  -23.4173  -28.8290   23.2985 O   0  0  0  0  0  0
  -28.4139  -26.7866   19.9973 O   0  0  0  0  0  0
  -26.5538  -34.8983   22.4594 O   0  0  0  0  0  0
  -23.5319  -32.1566   23.7583 O   0  0  0  0  0  0
  -25.9614  -19.6679   18.4348 C   0  0  0  0  0  0
  -27.6851  -20.0770   16.7759 C   0  0  0  0  0  0
  -25.3624  -20.9116   18.1154 C   0  0  0  0  0  0
  -27.0842  -21.3095   16.4540 C   0  0  0  0  0  0
  -27.1440  -19.2529   17.7806 C   0  0  0  0  0  0
  -25.9291  -21.7567   17.1295 C   0  0  0  0  0  0
  -29.6340  -17.7331   22.2104 C   0  0  0  0  0  0
  -23.9387  -23.1490   16.7717 C   0  0  0  0  0  0
  -27.8155  -17.9162   18.1005 C   0  0  0  0  0  0
  -27.5426  -24.4114   17.1166 C   0  0  0  0  0  0
  -28.1344  -25.6823   17.7626 C   0  0  0  0  0  0
  -26.0719  -24.1295   17.5173 C   0  0  0  0  0  0
  -29.8071  -17.6104   19.6243 C   0  0  0  0  0  0
  -28.4508  -25.5484   19.2774 C   0  0  0  0  0  0
  -30.2140  -16.9736   20.9918 C   0  0  2  0  0  0
  -29.9045  -15.5245   21.0528 N   0  0  0  0  0  0
  -25.4041  -23.0315   16.8151 N   0  0  0  0  0  0
  -28.3432  -17.8238   19.4834 N   0  3  0  0  0  0
  -31.4678  -12.4032   19.1636 H   0  0  0  0  0  0
  -30.2969  -11.3086   19.8470 H   0  0  0  0  0  0
  -29.7599  -11.7723   17.4491 H   0  0  0  0  0  0
  -29.6690  -13.4839   17.7718 H   0  0  0  0  0  0
  -27.8649  -11.2881   18.8462 H   0  0  0  0  0  0
  -27.3736  -12.5838   17.7916 H   0  0  0  0  0  0
  -27.6999  -14.2378   19.5612 H   0  0  0  0  0  0
  -28.6792  -11.9769   21.3831 H   0  0  0  0  0  0
  -28.4411  -13.6219   21.8700 H   0  0  0  0  0  0
  -25.2767   -9.5615   22.4777 H   0  0  0  0  0  0
  -23.9957   -7.4608   22.7500 H   0  0  0  0  0  0
  -21.0827   -8.8780   19.8997 H   0  0  0  0  0  0
  -22.3723  -10.9649   19.6188 H   0  0  0  0  0  0
  -21.1995   -7.6152   23.9734 H   0  0  0  0  0  0
  -21.1491   -6.0536   25.9081 H   0  0  0  0  0  0
  -22.0597   -2.7631   23.2860 H   0  0  0  0  0  0
  -22.4074  -11.9814   22.4683 H   0  0  0  0  0  0
  -21.1216  -13.1381   22.2737 H   0  0  0  0  0  0
  -24.6933  -15.8213   20.6884 H   0  0  0  0  0  0
  -26.3519  -15.6017   20.4756 H   0  0  0  0  0  0
  -26.7152  -32.5628   23.1214 H   0  0  0  0  0  0
  -25.0181  -33.9999   25.0529 H   0  0  0  0  0  0
  -22.6818  -31.3310   21.4262 H   0  0  0  0  0  0
  -23.3695  -35.9735   23.3312 H   0  0  0  0  0  0
  -24.3536  -36.9038   22.2026 H   0  0  0  0  0  0
  -23.7177  -37.6591   23.6662 H   0  0  0  0  0  0
  -26.0522  -31.6431   20.6223 H   0  0  0  0  0  0
  -26.8142  -30.8821   21.9921 H   0  0  0  0  0  0
  -28.1207  -29.1793   21.0408 H   0  0  0  0  0  0
  -25.9173  -25.9169   19.3031 H   0  0  0  0  0  0
  -23.9121  -27.2638   19.1943 H   0  0  0  0  0  0
  -23.7206  -30.6563   19.4235 H   0  0  0  0  0  0
  -22.7176  -29.3027   19.8597 H   0  0  0  0  0  0
  -25.1259  -36.2129   25.0735 H   0  0  0  0  0  0
  -20.9941  -28.3252   24.1394 H   0  0  0  0  0  0
  -20.5594  -26.2285   23.3570 H   0  0  0  0  0  0
  -21.6620  -26.7415   22.1205 H   0  0  0  0  0  0
  -19.6916  -25.6258   21.1230 H   0  0  0  0  0  0
  -19.6719  -27.3147   20.6705 H   0  0  0  0  0  0
  -17.4178  -26.6678   21.3944 H   0  0  0  0  0  0
  -18.0282  -26.0021   22.8934 H   0  0  0  0  0  0
  -19.7921  -30.7228   24.2225 H   0  0  0  0  0  0
  -17.5021  -31.6251   24.5155 H   0  0  0  0  0  0
  -15.5341  -30.2961   23.7671 H   0  0  0  0  0  0
  -15.8649  -28.0824   22.7031 H   0  0  0  0  0  0
  -24.5859  -30.7164   25.7804 H   0  0  0  0  0  0
  -24.8617  -32.3052   26.4739 H   0  0  0  0  0  0
  -25.7822  -30.9254   27.0364 H   0  0  0  0  0  0
  -26.2674  -29.7007   24.1183 H   0  0  0  0  0  0
  -27.3711  -29.7359   25.4785 H   0  0  0  0  0  0
  -27.8641  -30.4346   23.9457 H   0  0  0  0  0  0
  -27.2669  -33.3859   26.1985 H   0  0  0  0  0  0
  -28.3838  -32.6912   25.0384 H   0  0  0  0  0  0
  -28.0571  -31.8672   26.5574 H   0  0  0  0  0  0
  -28.2582  -38.0136   24.7528 H   0  0  0  0  0  0
  -28.0994  -36.2671   24.6150 H   0  0  0  0  0  0
  -27.2251  -37.1406   25.8807 H   0  0  0  0  0  0
  -20.9210  -29.8995   21.7141 H   0  0  0  0  0  0
  -26.0177  -38.2926   24.1486 H   0  0  0  0  0  0
  -25.5088  -19.0413   19.1922 H   0  0  0  0  0  0
  -28.5682  -19.7700   16.2384 H   0  0  0  0  0  0
  -24.4741  -21.2143   18.6497 H   0  0  0  0  0  0
  -27.5368  -21.9239   15.6889 H   0  0  0  0  0  0
  -29.8795  -18.7964   22.1634 H   0  0  0  0  0  0
  -30.0405  -17.3668   23.1523 H   0  0  0  0  0  0
  -28.5492  -17.6566   22.2838 H   0  0  0  0  0  0
  -23.4348  -22.1862   16.6820 H   0  0  0  0  0  0
  -23.6302  -23.7518   15.9166 H   0  0  0  0  0  0
  -23.5359  -23.6587   17.6510 H   0  0  0  0  0  0
  -28.6083  -17.7351   17.3739 H   0  0  0  0  0  0
  -27.0856  -17.1195   17.9446 H   0  0  0  0  0  0
  -28.1894  -23.5659   17.3477 H   0  0  0  0  0  0
  -27.5867  -24.5529   16.0370 H   0  0  0  0  0  0
  -27.4574  -26.5101   17.5531 H   0  0  0  0  0  0
  -29.0549  -25.9551   17.2461 H   0  0  0  0  0  0
  -25.4879  -25.0332   17.3363 H   0  0  0  0  0  0
  -25.9997  -23.9258   18.5883 H   0  0  0  0  0  0
  -30.1552  -16.9519   18.8251 H   0  0  0  0  0  0
  -30.3179  -18.5652   19.4690 H   0  0  0  0  0  0
  -29.4640  -25.1530   19.3843 H   0  0  0  0  0  0
  -27.8107  -24.8193   19.7708 H   0  0  0  0  0  0
  -31.2996  -17.0816   21.0720 H   0  0  0  0  0  0
  -29.0226  -15.2545   21.4584 H   0  0  0  0  0  0
  -27.8993  -17.0294   19.8990 H   0  0  0  0  0  0
  -28.0556  -18.6424   19.9977 H   0  0  0  0  0  0
  1 25  1  0  0  0
  1 30  2  0  0  0
  1 86  1  0  0  0
  2  3  1  0  0  0
  2 25  1  0  0  0
  2 89  1  0  0  0
  2 90  1  0  0  0
  3  4  1  0  0  0
  3 91  1  0  0  0
  3 92  1  0  0  0
  4  5  1  0  0  0
  4 93  1  0  0  0
  4 94  1  0  0  0
  5  6  1  0  0  0
  5 26  1  0  0  0
  5 95  1  0  0  0
  6 25  1  0  0  0
  6 96  1  0  0  0
  6 97  1  0  0  0
  7  8  2  0  0  0
  7 26  1  0  0  0
  7 29  1  0  0  0
  8  9  1  0  0  0
  8 22  1  0  0  0
  9 10  1  0  0  0
  9 27  2  0  0  0
 10 11  2  0  0  0
 10 15  1  0  0  0
 11 12  1  0  0  0
 11 98  1  0  0  0
 12 13  2  0  0  0
 12 99  1  0  0  0
 13 14  1  0  0  0
 13 31  1  0  0  0
 14 15  2  0  0  0
 14100  1  0  0  0
 15101  1  0  0  0
 16 17  2  0  0  0
 16 21  1  0  0  0
 16 31  1  0  0  0
 17 18  1  0  0  0
 17102  1  0  0  0
 18 19  2  0  0  0
 18103  1  0  0  0
 19 20  1  0  0  0
 19 24  1  0  0  0
 20 21  2  0  0  0
 20104  1  0  0  0
 21 23  1  0  0  0
 22 28  1  0  0  0
 22 32  2  0  0  0
 26 27  1  0  0  0
 28105  1  0  0  0
 28106  1  0  0  0
 29107  1  0  0  0
 29108  1  0  0  0
 33 34  1  0  0  0
 33 66  1  0  0  0
 33 70  2  0  0  0
 34 36  1  0  0  0
 34 59  1  0  0  0
 34109  1  0  0  0
 35 44  2  0  0  0
 35 45  1  0  0  0
 35 68  1  0  0  0
 36 56  1  0  0  0
 36110  1  0  0  0
 37 39  1  0  0  0
 37 47  1  0  0  0
 37 66  1  0  0  0
 37111  1  0  0  0
 38 43  2  0  0  0
 38 46  1  0  0  0
 38 47  1  0  0  0
 39 64  1  0  0  0
 39 67  2  0  0  0
 40 52  1  0  0  0
 40 53  2  0  0  0
 40 58  1  0  0  0
 41112  1  0  0  0
 41113  1  0  0  0
 41114  1  0  0  0
 41 48  1  0  0  0
 42 43  1  0  0  0
 42 66  1  0  0  0
 42115  1  0  0  0
 42116  1  0  0  0
 43 44  1  0  0  0
 44117  1  0  0  0
 45 46  2  0  0  0
 45118  1  0  0  0
 46119  1  0  0  0
 47120  1  0  0  0
 47121  1  0  0  0
 48 56  1  0  0  0
 48 65  1  0  0  0
 48122  1  0  0  0
 49 50  1  0  0  0
 49 53  1  0  0  0
 49 64  1  0  0  0
 49123  1  0  0  0
 50 51  1  0  0  0
 50124  1  0  0  0
 50125  1  0  0  0
 51 52  1  0  0  0
 51126  1  0  0  0
 51127  1  0  0  0
 52128  1  0  0  0
 52129  1  0  0  0
 53 54  1  0  0  0
 54 55  2  0  0  0
 54130  1  0  0  0
 55 57  1  0  0  0
 55131  1  0  0  0
 56 69  2  0  0  0
 57 58  2  0  0  0
 57132  1  0  0  0
 58133  1  0  0  0
 59 60  1  0  0  0
 59 61  1  0  0  0
 59 62  1  0  0  0
 60134  1  0  0  0
 60135  1  0  0  0
 60136  1  0  0  0
 61137  1  0  0  0
 61138  1  0  0  0
 61139  1  0  0  0
 62140  1  0  0  0
 62141  1  0  0  0
 62142  1  0  0  0
 63 65  1  0  0  0
 63143  1  0  0  0
 63144  1  0  0  0
 63145  1  0  0  0
 64146  1  0  0  0
 65147  1  0  0  0
 68 84  1  0  0  0
 71 73  2  0  0  0
 71 75  1  0  0  0
 71148  1  0  0  0
 72 74  1  0  0  0
 72 75  2  0  0  0
 72149  1  0  0  0
 73 76  1  0  0  0
 73150  1  0  0  0
 74 76  2  0  0  0
 74151  1  0  0  0
 75 79  1  0  0  0
 76 87  1  0  0  0
 77152  1  0  0  0
 77153  1  0  0  0
 77154  1  0  0  0
 77 85  1  0  0  0
 78 87  1  0  0  0
 78155  1  0  0  0
 78156  1  0  0  0
 78157  1  0  0  0
 79 88  1  0  0  0
 79158  1  0  0  0
 79159  1  0  0  0
 80 81  1  0  0  0
 80 82  1  0  0  0
 80160  1  0  0  0
 80161  1  0  0  0
 81 84  1  0  0  0
 81162  1  0  0  0
 81163  1  0  0  0
 82 87  1  0  0  0
 82164  1  0  0  0
 82165  1  0  0  0
 83 85  1  0  0  0
 83 88  1  0  0  0
 83166  1  0  0  0
 83167  1  0  0  0
 84168  1  0  0  0
 84169  1  0  0  0
 85 86  1  0  0  0
 85170  1  0  0  0
 86171  1  0  0  0
 88172  1  0  0  0
 88173  1  0  0  0
M  CHG  1  88   1
M  ISO  4   1 100  68 101  84 101  86 100
M  END
> <chiral flag>
0

> <version>
0

> <s_m_source_file>
/data/baiqing/PycharmProjects/Reinvent-master-3.2/result/LINK_invent/BTK/process_docking_weight1_custom_product_contain_oxygen_bond_distance_aromatic_linkinvent_7_9_3/rearranged_h_0020.sdf

> <i_m_source_file_index>
17

> <r_mmod_Potential_Energy-OPLS-2005>
-247.046493530273

> <r_mmod_Stretch_Energy-OPLS-2005>
40.6871528625488

> <r_mmod_Bend_Energy-OPLS-2005>
107.468559265137

> <r_mmod_Torsional_Energy-OPLS-2005>
263.090454101562

> <r_mmod_Improper_Torsional_Energy-OPLS-2005>
9.85996150970459

> <r_mmod_Van_der_Waal_Energy-OPLS-2005>
159.161422729492

> <r_mmod_Electrostatic_Energy-OPLS-2005>
-337.013397216797

> <r_mmod_Solvation_Energy-OPLS-2005>
-509.002899169922

> <b_mmod_Minimization_Converged-OPLS-2005>
0

> <r_mmod_RMS_Derivative-OPLS-2005>
6.65946531295776

$$$$
17
                    3D
 Structure written by MMmdl.
170179  0  0  1  0            999 V2000
  -30.7108  -14.4792   20.2838 C   0  0  0  0  0  0
  -30.4111  -12.2415   19.4165 C   0  0  0  0  0  0
  -29.4725  -12.3431   18.1947 C   0  0  0  0  0  0
  -28.0002  -12.2643   18.6369 C   0  0  0  0  0  0
  -27.6506  -13.1819   19.8404 C   0  0  2  0  0  0
  -28.7128  -13.1019   20.9535 C   0  0  0  0  0  0
  -25.2658  -13.8132   20.5670 C   0  0  0  0  0  0
  -24.1884  -13.0447   20.9180 C   0  0  0  0  0  0
  -24.6424  -11.6920   20.8760 C   0  0  0  0  0  0
  -23.9108  -10.4306   21.0403 C   0  0  0  0  0  0
  -24.3666   -9.4200   21.9149 C   0  0  0  0  0  0
  -23.6340   -8.2226   22.0695 C   0  0  0  0  0  0
  -22.4326   -8.0289   21.3490 C   0  0  0  0  0  0
  -21.9967   -9.0298   20.4622 C   0  0  0  0  0  0
  -22.7292  -10.2167   20.3044 C   0  0  0  0  0  0
  -21.6885   -6.0751   22.5264 C   0  0  0  0  0  0
  -21.4047   -6.5653   23.8194 C   0  0  0  0  0  0
  -21.3626   -5.6794   24.9146 C   0  0  0  0  0  0
  -21.6019   -4.3053   24.7203 C   0  0  0  0  0  0
  -21.8828   -3.8149   23.4328 C   0  0  0  0  0  0
  -21.9208   -4.6969   22.3389 C   0  0  0  0  0  0
  -22.7890  -13.5256   21.1790 C   0  0  0  0  0  0
  -22.1659   -4.2136   21.0962 F   0  0  0  0  0  0
  -21.5625   -3.4549   25.7715 F   0  0  0  0  0  0
  -30.0309  -13.3104   20.3443 N   0  0  0  0  0  0
  -26.3036  -12.9228   20.3368 N   0  0  0  0  0  0
  -25.9345  -11.6448   20.5893 N   0  0  0  0  0  0
  -22.0518  -12.8274   22.0340 N   0  0  0  0  0  0
  -25.4468  -15.1819   20.3988 N   0  0  0  0  0  0
  -31.9221  -14.5500   20.4826 O   0  0  0  0  0  0
  -21.6658   -6.8900   21.4216 O   0  0  0  0  0  0
  -22.3584  -14.5543   20.6585 O   0  0  0  0  0  0
  -24.6117  -31.8714   23.2137 C   0  0  0  0  0  0
  -25.9013  -32.4849   23.8424 C   0  0  1  0  0  0
  -27.2341  -27.4615   20.0738 C   0  0  0  0  0  0
  -25.5886  -33.8645   24.2345 N   0  0  0  0  0  0
  -23.3977  -30.4970   21.5540 C   0  0  2  0  0  0
  -24.8400  -28.9647   20.1182 C   0  0  0  0  0  0
  -22.7379  -29.4680   22.5014 C   0  0  0  0  0  0
  -18.0264  -28.1351   22.8493 C   0  0  0  0  0  0
  -24.1480  -36.7307   23.2644 C   0  0  0  0  0  0
  -25.9274  -30.8406   21.3677 C   0  0  0  0  0  0
  -26.0008  -29.4805   20.7043 C   0  0  0  0  0  0
  -27.2005  -28.7382   20.6736 C   0  0  0  0  0  0
  -26.0506  -26.9504   19.4919 C   0  0  0  0  0  0
  -24.8584  -27.6939   19.5153 C   0  0  0  0  0  0
  -23.6018  -29.8265   20.1702 C   0  0  0  0  0  0
  -25.4104  -36.3129   24.0349 C   0  0  1  0  0  0
  -20.5848  -28.3646   23.1318 C   0  0  2  0  0  0
  -20.6751  -26.9387   22.5403 C   0  0  0  0  0  0
  -19.5729  -26.6367   21.5197 C   0  0  0  0  0  0
  -18.1912  -26.7906   22.1615 C   0  0  0  0  0  0
  -19.1514  -28.8813   23.2905 C   0  0  0  0  0  0
  -18.9449  -30.1420   23.8912 C   0  0  0  0  0  0
  -17.6460  -30.6577   24.0552 C   0  0  0  0  0  0
  -25.9029  -34.9496   23.5147 C   0  0  0  0  0  0
  -16.5344  -29.9076   23.6324 C   0  0  0  0  0  0
  -16.7261  -28.6474   23.0379 C   0  0  0  0  0  0
  -26.4446  -31.6652   25.0769 C   0  0  0  0  0  0
  -25.3727  -31.3805   26.1551 C   0  0  0  0  0  0
  -27.0278  -30.3086   24.6187 C   0  0  0  0  0  0
  -27.6039  -32.4394   25.7476 C   0  0  0  0  0  0
  -27.5595  -37.1788   24.8449 C   0  0  0  0  0  0
  -21.4123  -29.3042   22.3730 N   0  0  0  0  0  0
  -26.4289  -37.3813   23.9424 N   0  0  0  0  0  0
  -24.6630  -31.0835   22.1020 N   0  0  0  0  0  0
  -23.4171  -28.8235   23.3044 O   0  0  0  0  0  0
  -28.4317  -26.7764   20.0744 O   0  0  0  0  0  0
  -26.5586  -34.8928   22.4698 O   0  0  0  0  0  0
  -23.5317  -32.1445   23.7535 O   0  0  0  0  0  0
  -27.7455  -17.6731   18.0704 C   0  0  0  0  0  0
  -28.3797  -16.4435   18.3027 C   0  0  0  0  0  0
  -28.7830  -18.5876   20.0746 C   0  0  0  0  0  0
  -28.0233  -18.7792   18.8965 C   0  0  0  0  0  0
  -29.2874  -16.3007   19.3721 C   0  0  0  0  0  0
  -29.4141  -17.3469   20.3189 C   0  0  0  0  0  0
  -26.2161  -22.1108   17.9619 C   0  0  0  0  0  0
  -27.0147  -23.1645   17.6794 C   0  0  0  0  0  0
  -24.8322  -21.8734   17.3863 C   0  0  0  0  0  0
  -24.4102  -20.4673   17.7972 C   0  0  0  0  0  0
  -25.2986  -20.1448   18.9977 C   0  0  0  0  0  0
  -31.1631  -15.4278   18.1182 C   0  0  0  0  0  0
  -27.7254  -20.1736   18.3426 C   0  0  0  0  0  0
  -28.4250  -23.4496   18.1802 C   0  0  0  0  0  0
  -28.6763  -24.9493   18.4503 C   0  0  0  0  0  0
  -28.4093  -25.3571   19.9080 C   0  0  0  0  0  0
  -30.2462  -15.2564   19.2682 N   0  0  0  0  0  0
  -26.5432  -20.9325   18.8333 N   0  3  2  0  0  0
  -30.2391  -17.2200   21.3844 F   0  0  0  0  0  0
  -31.4553  -12.3191   19.1035 H   0  0  0  0  0  0
  -30.3143  -11.2695   19.9088 H   0  0  0  0  0  0
  -29.6961  -11.5267   17.5032 H   0  0  0  0  0  0
  -29.6263  -13.2555   17.6252 H   0  0  0  0  0  0
  -27.8239  -11.2256   18.9116 H   0  0  0  0  0  0
  -27.3363  -12.4674   17.7930 H   0  0  0  0  0  0
  -27.6466  -14.1936   19.4484 H   0  0  0  0  0  0
  -28.6822  -12.1269   21.4430 H   0  0  0  0  0  0
  -28.5216  -13.8518   21.7239 H   0  0  0  0  0  0
  -25.2799   -9.5691   22.4743 H   0  0  0  0  0  0
  -24.0018   -7.4634   22.7451 H   0  0  0  0  0  0
  -21.0853   -8.8914   19.8989 H   0  0  0  0  0  0
  -22.3749  -10.9762   19.6209 H   0  0  0  0  0  0
  -21.2071   -7.6161   23.9698 H   0  0  0  0  0  0
  -21.1415   -6.0516   25.9051 H   0  0  0  0  0  0
  -22.0636   -2.7636   23.2835 H   0  0  0  0  0  0
  -22.4224  -12.0018   22.4852 H   0  0  0  0  0  0
  -21.1120  -13.1280   22.2474 H   0  0  0  0  0  0
  -24.6974  -15.8551   20.5038 H   0  0  0  0  0  0
  -26.3113  -15.5986   20.0769 H   0  0  0  0  0  0
  -26.7095  -32.5551   23.1191 H   0  0  0  0  0  0
  -25.0059  -33.9810   25.0505 H   0  0  0  0  0  0
  -22.6856  -31.3123   21.4168 H   0  0  0  0  0  0
  -23.3764  -35.9613   23.3293 H   0  0  0  0  0  0
  -24.3589  -36.8927   22.2063 H   0  0  0  0  0  0
  -23.7183  -37.6491   23.6645 H   0  0  0  0  0  0
  -26.0556  -31.6176   20.6141 H   0  0  0  0  0  0
  -26.8090  -30.8754   21.9973 H   0  0  0  0  0  0
  -28.1004  -29.1416   21.1166 H   0  0  0  0  0  0
  -26.0273  -25.9810   19.0132 H   0  0  0  0  0  0
  -23.9622  -27.2874   19.0679 H   0  0  0  0  0  0
  -23.7019  -30.5973   19.4048 H   0  0  0  0  0  0
  -22.7259  -29.2413   19.8841 H   0  0  0  0  0  0
  -25.1268  -36.2009   25.0845 H   0  0  0  0  0  0
  -20.9955  -28.3209   24.1430 H   0  0  0  0  0  0
  -20.5648  -26.2267   23.3593 H   0  0  0  0  0  0
  -21.6629  -26.7435   22.1204 H   0  0  0  0  0  0
  -19.6896  -25.6273   21.1244 H   0  0  0  0  0  0
  -19.6668  -27.3160   20.6712 H   0  0  0  0  0  0
  -17.4186  -26.6660   21.4015 H   0  0  0  0  0  0
  -18.0321  -26.0035   22.9008 H   0  0  0  0  0  0
  -19.7935  -30.7218   24.2306 H   0  0  0  0  0  0
  -17.5026  -31.6276   24.5124 H   0  0  0  0  0  0
  -15.5343  -30.2997   23.7627 H   0  0  0  0  0  0
  -15.8659  -28.0788   22.7125 H   0  0  0  0  0  0
  -24.5746  -30.7346   25.7866 H   0  0  0  0  0  0
  -24.9119  -32.3025   26.5133 H   0  0  0  0  0  0
  -25.8067  -30.8807   27.0228 H   0  0  0  0  0  0
  -26.2846  -29.6855   24.1217 H   0  0  0  0  0  0
  -27.3995  -29.7331   25.4675 H   0  0  0  0  0  0
  -27.8702  -30.4382   23.9386 H   0  0  0  0  0  0
  -27.2637  -33.3626   26.2173 H   0  0  0  0  0  0
  -28.3735  -32.7105   25.0235 H   0  0  0  0  0  0
  -28.0858  -31.8500   26.5286 H   0  0  0  0  0  0
  -28.2596  -38.0110   24.7579 H   0  0  0  0  0  0
  -28.1115  -36.2659   24.6163 H   0  0  0  0  0  0
  -27.2349  -37.1314   25.8860 H   0  0  0  0  0  0
  -20.9265  -29.8761   21.6962 H   0  0  0  0  0  0
  -26.0196  -38.2890   24.1459 H   0  0  0  0  0  0
  -27.1578  -17.8008   17.1729 H   0  0  0  0  0  0
  -28.2647  -15.6541   17.5704 H   0  0  0  0  0  0
  -29.0062  -19.4151   20.7341 H   0  0  0  0  0  0
  -26.6270  -23.8833   16.9686 H   0  0  0  0  0  0
  -24.8292  -21.9843   16.2991 H   0  0  0  0  0  0
  -24.1472  -22.6207   17.7897 H   0  0  0  0  0  0
  -24.5976  -19.7639   16.9842 H   0  0  0  0  0  0
  -23.3507  -20.4169   18.0453 H   0  0  0  0  0  0
  -25.4387  -19.0707   19.1330 H   0  0  0  0  0  0
  -24.7989  -20.5107   19.8987 H   0  0  0  0  0  0
  -31.9341  -16.1559   18.3630 H   0  0  0  0  0  0
  -30.6503  -15.7770   17.2206 H   0  0  0  0  0  0
  -31.6673  -14.4974   17.8447 H   0  0  0  0  0  0
  -27.6456  -20.0927   17.2552 H   0  0  0  0  0  0
  -28.6276  -20.7587   18.5077 H   0  0  0  0  0  0
  -29.1081  -23.1139   17.4008 H   0  0  0  0  0  0
  -28.6638  -22.8738   19.0736 H   0  0  0  0  0  0
  -28.0932  -25.5631   17.7642 H   0  0  0  0  0  0
  -29.7185  -25.1799   18.2247 H   0  0  0  0  0  0
  -29.1983  -24.9456   20.5380 H   0  0  0  0  0  0
  -27.4909  -24.9143   20.2907 H   0  0  0  0  0  0
  -26.7802  -21.2587   19.7572 H   0  0  0  0  0  0
  1 25  1  0  0  0
  1 30  2  0  0  0
  1 87  1  0  0  0
  2  3  1  0  0  0
  2 25  1  0  0  0
  2 90  1  0  0  0
  2 91  1  0  0  0
  3  4  1  0  0  0
  3 92  1  0  0  0
  3 93  1  0  0  0
  4  5  1  0  0  0
  4 94  1  0  0  0
  4 95  1  0  0  0
  5  6  1  0  0  0
  5 26  1  0  0  0
  5 96  1  0  0  0
  6 25  1  0  0  0
  6 97  1  0  0  0
  6 98  1  0  0  0
  7  8  2  0  0  0
  7 26  1  0  0  0
  7 29  1  0  0  0
  8  9  1  0  0  0
  8 22  1  0  0  0
  9 10  1  0  0  0
  9 27  2  0  0  0
 10 11  2  0  0  0
 10 15  1  0  0  0
 11 12  1  0  0  0
 11 99  1  0  0  0
 12 13  2  0  0  0
 12100  1  0  0  0
 13 14  1  0  0  0
 13 31  1  0  0  0
 14 15  2  0  0  0
 14101  1  0  0  0
 15102  1  0  0  0
 16 17  2  0  0  0
 16 21  1  0  0  0
 16 31  1  0  0  0
 17 18  1  0  0  0
 17103  1  0  0  0
 18 19  2  0  0  0
 18104  1  0  0  0
 19 20  1  0  0  0
 19 24  1  0  0  0
 20 21  2  0  0  0
 20105  1  0  0  0
 21 23  1  0  0  0
 22 28  1  0  0  0
 22 32  2  0  0  0
 26 27  1  0  0  0
 28106  1  0  0  0
 28107  1  0  0  0
 29108  1  0  0  0
 29109  1  0  0  0
 33 34  1  0  0  0
 33 66  1  0  0  0
 33 70  2  0  0  0
 34 36  1  0  0  0
 34 59  1  0  0  0
 34110  1  0  0  0
 35 44  2  0  0  0
 35 45  1  0  0  0
 35 68  1  0  0  0
 36 56  1  0  0  0
 36111  1  0  0  0
 37 39  1  0  0  0
 37 47  1  0  0  0
 37 66  1  0  0  0
 37112  1  0  0  0
 38 43  2  0  0  0
 38 46  1  0  0  0
 38 47  1  0  0  0
 39 64  1  0  0  0
 39 67  2  0  0  0
 40 52  1  0  0  0
 40 53  2  0  0  0
 40 58  1  0  0  0
 41113  1  0  0  0
 41114  1  0  0  0
 41115  1  0  0  0
 41 48  1  0  0  0
 42 43  1  0  0  0
 42 66  1  0  0  0
 42116  1  0  0  0
 42117  1  0  0  0
 43 44  1  0  0  0
 44118  1  0  0  0
 45 46  2  0  0  0
 45119  1  0  0  0
 46120  1  0  0  0
 47121  1  0  0  0
 47122  1  0  0  0
 48 56  1  0  0  0
 48 65  1  0  0  0
 48123  1  0  0  0
 49 50  1  0  0  0
 49 53  1  0  0  0
 49 64  1  0  0  0
 49124  1  0  0  0
 50 51  1  0  0  0
 50125  1  0  0  0
 50126  1  0  0  0
 51 52  1  0  0  0
 51127  1  0  0  0
 51128  1  0  0  0
 52129  1  0  0  0
 52130  1  0  0  0
 53 54  1  0  0  0
 54 55  2  0  0  0
 54131  1  0  0  0
 55 57  1  0  0  0
 55132  1  0  0  0
 56 69  2  0  0  0
 57 58  2  0  0  0
 57133  1  0  0  0
 58134  1  0  0  0
 59 60  1  0  0  0
 59 61  1  0  0  0
 59 62  1  0  0  0
 60135  1  0  0  0
 60136  1  0  0  0
 60137  1  0  0  0
 61138  1  0  0  0
 61139  1  0  0  0
 61140  1  0  0  0
 62141  1  0  0  0
 62142  1  0  0  0
 62143  1  0  0  0
 63 65  1  0  0  0
 63144  1  0  0  0
 63145  1  0  0  0
 63146  1  0  0  0
 64147  1  0  0  0
 65148  1  0  0  0
 68 86  1  0  0  0
 71 72  2  0  0  0
 71 74  1  0  0  0
 71149  1  0  0  0
 72 75  1  0  0  0
 72150  1  0  0  0
 73 74  2  0  0  0
 73 76  1  0  0  0
 73151  1  0  0  0
 74 83  1  0  0  0
 75 76  2  0  0  0
 75 87  1  0  0  0
 76 89  1  0  0  0
 77 78  2  0  0  0
 77 79  1  0  0  0
 77 88  1  0  0  0
 78 84  1  0  0  0
 78152  1  0  0  0
 79 80  1  0  0  0
 79153  1  0  0  0
 79154  1  0  0  0
 80 81  1  0  0  0
 80155  1  0  0  0
 80156  1  0  0  0
 81 88  1  0  0  0
 81157  1  0  0  0
 81158  1  0  0  0
 82 87  1  0  0  0
 82159  1  0  0  0
 82160  1  0  0  0
 82161  1  0  0  0
 83162  1  0  0  0
 83163  1  0  0  0
 83 88  1  0  0  0
 84 85  1  0  0  0
 84164  1  0  0  0
 84165  1  0  0  0
 85 86  1  0  0  0
 85166  1  0  0  0
 85167  1  0  0  0
 86168  1  0  0  0
 86169  1  0  0  0
 88170  1  0  0  0
M  CHG  1  88   1
M  ISO  4   1 100  68 101  86 101  87 100
M  END
> <chiral flag>
0

> <version>
0

> <s_m_source_file>
/data/baiqing/PycharmProjects/Reinvent-master-3.2/result/LINK_invent/BTK/process_docking_weight1_custom_product_contain_oxygen_bond_distance_aromatic_linkinvent_7_9_3/rearranged_h_0020.sdf

> <i_m_source_file_index>
18

> <r_mmod_Potential_Energy-OPLS-2005>
161.441345214844

> <r_mmod_Stretch_Energy-OPLS-2005>
36.0811004638672

> <r_mmod_Bend_Energy-OPLS-2005>
144.379699707031

> <r_mmod_Torsional_Energy-OPLS-2005>
380.084716796875

> <r_mmod_Improper_Torsional_Energy-OPLS-2005>
38.3320083618164

> <r_mmod_Van_der_Waal_Energy-OPLS-2005>
151.875595092773

> <r_mmod_Electrostatic_Energy-OPLS-2005>
-191.83430480957

> <r_mmod_Solvation_Energy-OPLS-2005>
-453.922180175781

> <b_mmod_Minimization_Converged-OPLS-2005>
0

> <r_mmod_RMS_Derivative-OPLS-2005>
5.85771560668945

$$$$
18
                    3D
 Structure written by MMmdl.
170178  0  0  1  0            999 V2000
  -30.7942  -14.4485   20.7066 C   0  0  0  0  0  0
  -30.4055  -12.3393   19.4513 C   0  0  0  0  0  0
  -29.4958  -12.5248   18.2208 C   0  0  0  0  0  0
  -28.0202  -12.3557   18.6149 C   0  0  0  0  0  0
  -27.6486  -13.2170   19.8437 C   0  0  2  0  0  0
  -28.6684  -13.0658   20.9855 C   0  0  0  0  0  0
  -25.2537  -13.8188   20.5630 C   0  0  0  0  0  0
  -24.1817  -13.0450   20.9159 C   0  0  0  0  0  0
  -24.6379  -11.6920   20.8693 C   0  0  0  0  0  0
  -23.9056  -10.4302   21.0390 C   0  0  0  0  0  0
  -24.3619   -9.4221   21.9168 C   0  0  0  0  0  0
  -23.6297   -8.2252   22.0751 C   0  0  0  0  0  0
  -22.4278   -8.0279   21.3541 C   0  0  0  0  0  0
  -21.9903   -9.0249   20.4643 C   0  0  0  0  0  0
  -22.7228  -10.2130   20.3042 C   0  0  0  0  0  0
  -21.6854   -6.0731   22.5280 C   0  0  0  0  0  0
  -21.4020   -6.5641   23.8213 C   0  0  0  0  0  0
  -21.3660   -5.6798   24.9178 C   0  0  0  0  0  0
  -21.6049   -4.3059   24.7231 C   0  0  0  0  0  0
  -21.8817   -3.8143   23.4351 C   0  0  0  0  0  0
  -21.9195   -4.6958   22.3404 C   0  0  0  0  0  0
  -22.7841  -13.5227   21.1860 C   0  0  0  0  0  0
  -22.1659   -4.2144   21.0980 F   0  0  0  0  0  0
  -21.5630   -3.4541   25.7741 F   0  0  0  0  0  0
  -30.0331  -13.3277   20.4867 N   0  0  0  0  0  0
  -26.2933  -12.9371   20.3144 N   0  0  0  0  0  0
  -25.9287  -11.6525   20.5630 N   0  0  0  0  0  0
  -22.0512  -12.8198   22.0427 N   0  0  0  0  0  0
  -25.4276  -15.1912   20.4110 N   0  0  0  0  0  0
  -31.7537  -14.7074   19.9725 O   0  0  0  0  0  0
  -21.6641   -6.8873   21.4240 O   0  0  0  0  0  0
  -22.3502  -14.5535   20.6725 O   0  0  0  0  0  0
  -24.6213  -31.8651   23.2096 C   0  0  0  0  0  0
  -25.9090  -32.4797   23.8400 C   0  0  1  0  0  0
  -27.2210  -27.3757   20.0979 C   0  0  0  0  0  0
  -25.5931  -33.8601   24.2327 N   0  0  0  0  0  0
  -23.4079  -30.4952   21.5521 C   0  0  2  0  0  0
  -24.8486  -28.9550   20.1181 C   0  0  0  0  0  0
  -22.7433  -29.4683   22.4982 C   0  0  0  0  0  0
  -18.0276  -28.1368   22.8484 C   0  0  0  0  0  0
  -24.1488  -36.7326   23.2635 C   0  0  0  0  0  0
  -25.9448  -30.8142   21.3702 C   0  0  0  0  0  0
  -26.0157  -29.4458   20.7147 C   0  0  0  0  0  0
  -27.2022  -28.6657   20.6989 C   0  0  0  0  0  0
  -26.0241  -26.9179   19.4961 C   0  0  0  0  0  0
  -24.8509  -27.6929   19.5084 C   0  0  0  0  0  0
  -23.6164  -29.8319   20.1665 C   0  0  0  0  0  0
  -25.4103  -36.3100   24.0331 C   0  0  1  0  0  0
  -20.5867  -28.3677   23.1298 C   0  0  2  0  0  0
  -20.6770  -26.9406   22.5414 C   0  0  0  0  0  0
  -19.5750  -26.6378   21.5213 C   0  0  0  0  0  0
  -18.1925  -26.7910   22.1607 C   0  0  0  0  0  0
  -19.1524  -28.8834   23.2890 C   0  0  0  0  0  0
  -18.9454  -30.1437   23.8901 C   0  0  0  0  0  0
  -17.6457  -30.6577   24.0557 C   0  0  0  0  0  0
  -25.9044  -34.9462   23.5127 C   0  0  0  0  0  0
  -16.5346  -29.9078   23.6327 C   0  0  0  0  0  0
  -16.7261  -28.6499   23.0332 C   0  0  0  0  0  0
  -26.4497  -31.6564   25.0733 C   0  0  0  0  0  0
  -25.3751  -31.3653   26.1464 C   0  0  0  0  0  0
  -27.0362  -30.2999   24.6154 C   0  0  0  0  0  0
  -27.6074  -32.4287   25.7497 C   0  0  0  0  0  0
  -27.5594  -37.1797   24.8452 C   0  0  0  0  0  0
  -21.4157  -29.3052   22.3708 N   0  0  0  0  0  0
  -26.4286  -37.3793   23.9417 N   0  0  0  0  0  0
  -24.6772  -31.0732   22.1017 N   0  0  0  0  0  0
  -23.4196  -28.8216   23.3026 O   0  0  0  0  0  0
  -28.3966  -26.6285   20.1173 O   0  0  0  0  0  0
  -26.5607  -34.8914   22.4695 O   0  0  0  0  0  0
  -23.5398  -32.1443   23.7464 O   0  0  0  0  0  0
  -28.7093  -19.7178   21.1347 C   0  0  0  0  0  0
  -30.7356  -19.9703   19.8565 C   0  0  0  0  0  0
  -29.1275  -18.4195   21.5566 C   0  0  0  0  0  0
  -30.3885  -17.8985   21.1527 C   0  0  0  0  0  0
  -29.5158  -20.5356   20.2983 C   0  0  0  0  0  0
  -31.1653  -18.6907   20.2719 C   0  0  0  0  0  0
  -28.2365  -17.6294   22.5000 C   0  0  0  0  0  0
  -27.8617  -21.6316   17.7730 C   0  0  0  0  0  0
  -31.7605  -14.3653   23.7379 C   0  0  0  0  0  0
  -31.0564  -16.6659   21.8224 C   0  0  0  0  0  0
  -28.6590  -24.2228   20.8948 C   0  0  0  0  0  0
  -29.1674  -22.0822   18.4428 C   0  0  0  0  0  0
  -30.3888  -14.7092   23.1248 C   0  0  0  0  0  0
  -28.2649  -22.7088   20.7171 C   0  0  0  0  0  0
  -28.4392  -25.2257   19.7172 C   0  0  0  0  0  0
  -29.1597  -21.8621   19.8930 N   0  0  0  0  0  0
  -30.4904  -15.2764   21.7555 N   0  0  0  0  0  0
  -32.3799  -18.2557   19.8584 F   0  0  0  0  0  0
  -31.4532  -12.4163   19.1558 H   0  0  0  0  0  0
  -30.2935  -11.3321   19.8566 H   0  0  0  0  0  0
  -29.7571  -11.8036   17.4451 H   0  0  0  0  0  0
  -29.6526  -13.5144   17.7892 H   0  0  0  0  0  0
  -27.8451  -11.3010   18.8293 H   0  0  0  0  0  0
  -27.3739  -12.6058   17.7730 H   0  0  0  0  0  0
  -27.6783  -14.2560   19.5148 H   0  0  0  0  0  0
  -28.6213  -12.0694   21.4279 H   0  0  0  0  0  0
  -28.3417  -13.7675   21.7493 H   0  0  0  0  0  0
  -25.2765   -9.5699   22.4739 H   0  0  0  0  0  0
  -24.0015   -7.4639   22.7467 H   0  0  0  0  0  0
  -21.0836   -8.8756   19.8942 H   0  0  0  0  0  0
  -22.3680  -10.9663   19.6147 H   0  0  0  0  0  0
  -21.2015   -7.6150   23.9716 H   0  0  0  0  0  0
  -21.1486   -6.0527   25.9085 H   0  0  0  0  0  0
  -22.0598   -2.7602   23.2853 H   0  0  0  0  0  0
  -22.4156  -11.9856   22.4788 H   0  0  0  0  0  0
  -21.1125  -13.1188   22.2666 H   0  0  0  0  0  0
  -24.6688  -15.8515   20.5409 H   0  0  0  0  0  0
  -26.2848  -15.6291   20.0986 H   0  0  0  0  0  0
  -26.7162  -32.5488   23.1163 H   0  0  0  0  0  0
  -25.0056  -33.9739   25.0459 H   0  0  0  0  0  0
  -22.6990  -31.3147   21.4162 H   0  0  0  0  0  0
  -23.3747  -35.9664   23.3271 H   0  0  0  0  0  0
  -24.3596  -36.8993   22.2064 H   0  0  0  0  0  0
  -23.7249  -37.6518   23.6683 H   0  0  0  0  0  0
  -26.0654  -31.5767   20.5997 H   0  0  0  0  0  0
  -26.8316  -30.8661   21.9907 H   0  0  0  0  0  0
  -28.1022  -29.0425   21.1655 H   0  0  0  0  0  0
  -25.9381  -25.9656   19.0020 H   0  0  0  0  0  0
  -23.9531  -27.3095   19.0444 H   0  0  0  0  0  0
  -23.7301  -30.6084   19.4090 H   0  0  0  0  0  0
  -22.7368  -29.2587   19.8684 H   0  0  0  0  0  0
  -25.1280  -36.1966   25.0827 H   0  0  0  0  0  0
  -20.9957  -28.3259   24.1418 H   0  0  0  0  0  0
  -20.5688  -26.2290   23.3608 H   0  0  0  0  0  0
  -21.6646  -26.7457   22.1211 H   0  0  0  0  0  0
  -19.6921  -25.6303   21.1231 H   0  0  0  0  0  0
  -19.6680  -27.3187   20.6748 H   0  0  0  0  0  0
  -17.4202  -26.6650   21.4000 H   0  0  0  0  0  0
  -18.0311  -26.0045   22.9001 H   0  0  0  0  0  0
  -19.7937  -30.7247   24.2269 H   0  0  0  0  0  0
  -17.5016  -31.6253   24.5154 H   0  0  0  0  0  0
  -15.5343  -30.2970   23.7666 H   0  0  0  0  0  0
  -15.8655  -28.0836   22.7018 H   0  0  0  0  0  0
  -24.5980  -30.6935   25.7800 H   0  0  0  0  0  0
  -24.8854  -32.2771   26.4879 H   0  0  0  0  0  0
  -25.8103  -30.8868   27.0246 H   0  0  0  0  0  0
  -26.2932  -29.6672   24.1271 H   0  0  0  0  0  0
  -27.4195  -29.7311   25.4639 H   0  0  0  0  0  0
  -27.8732  -30.4309   23.9291 H   0  0  0  0  0  0
  -27.2738  -33.3618   26.2045 H   0  0  0  0  0  0
  -28.3892  -32.6785   25.0314 H   0  0  0  0  0  0
  -28.0712  -31.8412   26.5424 H   0  0  0  0  0  0
  -28.2561  -38.0147   24.7583 H   0  0  0  0  0  0
  -28.1147  -36.2684   24.6178 H   0  0  0  0  0  0
  -27.2319  -37.1331   25.8853 H   0  0  0  0  0  0
  -20.9308  -29.8808   21.6961 H   0  0  0  0  0  0
  -26.0173  -38.2873   24.1435 H   0  0  0  0  0  0
  -27.7550  -20.0915   21.4784 H   0  0  0  0  0  0
  -31.3999  -20.5400   19.2243 H   0  0  0  0  0  0
  -27.2576  -18.0980   22.6065 H   0  0  0  0  0  0
  -28.6871  -17.5654   23.4909 H   0  0  0  0  0  0
  -28.0756  -16.6166   22.1292 H   0  0  0  0  0  0
  -27.9147  -21.7780   16.6938 H   0  0  0  0  0  0
  -27.0035  -22.2013   18.1293 H   0  0  0  0  0  0
  -27.6641  -20.5736   17.9522 H   0  0  0  0  0  0
  -31.6341  -13.9275   24.7290 H   0  0  0  0  0  0
  -32.3959  -15.2434   23.8540 H   0  0  0  0  0  0
  -32.3036  -13.6388   23.1330 H   0  0  0  0  0  0
  -31.1412  -16.9750   22.8650 H   0  0  0  0  0  0
  -32.1031  -16.6199   21.5173 H   0  0  0  0  0  0
  -29.6874  -24.2975   21.2487 H   0  0  0  0  0  0
  -28.0506  -24.5945   21.7193 H   0  0  0  0  0  0
  -29.3369  -23.1350   18.2291 H   0  0  0  0  0  0
  -29.9999  -21.5675   17.9630 H   0  0  0  0  0  0
  -29.8499  -15.3993   23.7755 H   0  0  0  0  0  0
  -29.8175  -13.7871   23.1701 H   0  0  0  0  0  0
  -27.2454  -22.6433   20.3350 H   0  0  0  0  0  0
  -28.2186  -22.2837   21.7208 H   0  0  0  0  0  0
  -27.6063  -24.8905   19.1104 H   0  0  0  0  0  0
  -29.2959  -25.1460   19.0495 H   0  0  0  0  0  0
  1 25  1  0  0  0
  1 30  2  0  0  0
  1 87  1  0  0  0
  2  3  1  0  0  0
  2 25  1  0  0  0
  2 89  1  0  0  0
  2 90  1  0  0  0
  3  4  1  0  0  0
  3 91  1  0  0  0
  3 92  1  0  0  0
  4  5  1  0  0  0
  4 93  1  0  0  0
  4 94  1  0  0  0
  5  6  1  0  0  0
  5 26  1  0  0  0
  5 95  1  0  0  0
  6 25  1  0  0  0
  6 96  1  0  0  0
  6 97  1  0  0  0
  7  8  2  0  0  0
  7 26  1  0  0  0
  7 29  1  0  0  0
  8  9  1  0  0  0
  8 22  1  0  0  0
  9 10  1  0  0  0
  9 27  2  0  0  0
 10 11  2  0  0  0
 10 15  1  0  0  0
 11 12  1  0  0  0
 11 98  1  0  0  0
 12 13  2  0  0  0
 12 99  1  0  0  0
 13 14  1  0  0  0
 13 31  1  0  0  0
 14 15  2  0  0  0
 14100  1  0  0  0
 15101  1  0  0  0
 16 17  2  0  0  0
 16 21  1  0  0  0
 16 31  1  0  0  0
 17 18  1  0  0  0
 17102  1  0  0  0
 18 19  2  0  0  0
 18103  1  0  0  0
 19 20  1  0  0  0
 19 24  1  0  0  0
 20 21  2  0  0  0
 20104  1  0  0  0
 21 23  1  0  0  0
 22 28  1  0  0  0
 22 32  2  0  0  0
 26 27  1  0  0  0
 28105  1  0  0  0
 28106  1  0  0  0
 29107  1  0  0  0
 29108  1  0  0  0
 33 34  1  0  0  0
 33 66  1  0  0  0
 33 70  2  0  0  0
 34 36  1  0  0  0
 34 59  1  0  0  0
 34109  1  0  0  0
 35 44  2  0  0  0
 35 45  1  0  0  0
 35 68  1  0  0  0
 36 56  1  0  0  0
 36110  1  0  0  0
 37 39  1  0  0  0
 37 47  1  0  0  0
 37 66  1  0  0  0
 37111  1  0  0  0
 38 43  2  0  0  0
 38 46  1  0  0  0
 38 47  1  0  0  0
 39 64  1  0  0  0
 39 67  2  0  0  0
 40 52  1  0  0  0
 40 53  2  0  0  0
 40 58  1  0  0  0
 41112  1  0  0  0
 41113  1  0  0  0
 41114  1  0  0  0
 41 48  1  0  0  0
 42 43  1  0  0  0
 42 66  1  0  0  0
 42115  1  0  0  0
 42116  1  0  0  0
 43 44  1  0  0  0
 44117  1  0  0  0
 45 46  2  0  0  0
 45118  1  0  0  0
 46119  1  0  0  0
 47120  1  0  0  0
 47121  1  0  0  0
 48 56  1  0  0  0
 48 65  1  0  0  0
 48122  1  0  0  0
 49 50  1  0  0  0
 49 53  1  0  0  0
 49 64  1  0  0  0
 49123  1  0  0  0
 50 51  1  0  0  0
 50124  1  0  0  0
 50125  1  0  0  0
 51 52  1  0  0  0
 51126  1  0  0  0
 51127  1  0  0  0
 52128  1  0  0  0
 52129  1  0  0  0
 53 54  1  0  0  0
 54 55  2  0  0  0
 54130  1  0  0  0
 55 57  1  0  0  0
 55131  1  0  0  0
 56 69  2  0  0  0
 57 58  2  0  0  0
 57132  1  0  0  0
 58133  1  0  0  0
 59 60  1  0  0  0
 59 61  1  0  0  0
 59 62  1  0  0  0
 60134  1  0  0  0
 60135  1  0  0  0
 60136  1  0  0  0
 61137  1  0  0  0
 61138  1  0  0  0
 61139  1  0  0  0
 62140  1  0  0  0
 62141  1  0  0  0
 62142  1  0  0  0
 63 65  1  0  0  0
 63143  1  0  0  0
 63144  1  0  0  0
 63145  1  0  0  0
 64146  1  0  0  0
 65147  1  0  0  0
 68 85  1  0  0  0
 71 73  2  0  0  0
 71 75  1  0  0  0
 71148  1  0  0  0
 72 75  2  0  0  0
 72 76  1  0  0  0
 72149  1  0  0  0
 73 74  1  0  0  0
 73 77  1  0  0  0
 74 76  2  0  0  0
 74 80  1  0  0  0
 75 86  1  0  0  0
 76 88  1  0  0  0
 77150  1  0  0  0
 77151  1  0  0  0
 77152  1  0  0  0
 78 82  1  0  0  0
 78153  1  0  0  0
 78154  1  0  0  0
 78155  1  0  0  0
 79 83  1  0  0  0
 79156  1  0  0  0
 79157  1  0  0  0
 79158  1  0  0  0
 80 87  1  0  0  0
 80159  1  0  0  0
 80160  1  0  0  0
 81 84  1  0  0  0
 81 85  1  0  0  0
 81161  1  0  0  0
 81162  1  0  0  0
 82 86  1  0  0  0
 82163  1  0  0  0
 82164  1  0  0  0
 83 87  1  0  0  0
 83165  1  0  0  0
 83166  1  0  0  0
 84 86  1  0  0  0
 84167  1  0  0  0
 84168  1  0  0  0
 85169  1  0  0  0
 85170  1  0  0  0
M  ISO  4   1 100  68 101  85 101  87 100
M  END
> <chiral flag>
0

> <version>
0

> <s_m_source_file>
/data/baiqing/PycharmProjects/Reinvent-master-3.2/result/LINK_invent/BTK/process_docking_weight1_custom_product_contain_oxygen_bond_distance_aromatic_linkinvent_7_9_3/rearranged_h_0020.sdf

> <i_m_source_file_index>
19

> <r_mmod_Potential_Energy-OPLS-2005>
224.516448974609

> <r_mmod_Stretch_Energy-OPLS-2005>
62.6722526550293

> <r_mmod_Bend_Energy-OPLS-2005>
158.558258056641

> <r_mmod_Torsional_Energy-OPLS-2005>
276.367889404297

> <r_mmod_Improper_Torsional_Energy-OPLS-2005>
8.35134220123291

> <r_mmod_Van_der_Waal_Energy-OPLS-2005>
162.638412475586

> <r_mmod_Electrostatic_Energy-OPLS-2005>
-271.208221435547

> <r_mmod_Solvation_Energy-OPLS-2005>
-192.326309204102

> <b_mmod_Minimization_Converged-OPLS-2005>
0

> <r_mmod_RMS_Derivative-OPLS-2005>
1.89534258842468

$$$$
19
                    3D
 Structure written by MMmdl.
159168  0  0  1  0            999 V2000
  -30.5843  -14.6490   20.5267 C   0  0  0  0  0  0
  -30.4484  -12.3994   19.4524 C   0  0  0  0  0  0
  -29.5085  -12.5153   18.2286 C   0  0  0  0  0  0
  -28.0318  -12.3445   18.6432 C   0  0  0  0  0  0
  -27.6553  -13.2095   19.8757 C   0  0  2  0  0  0
  -28.7007  -13.0283   21.0003 C   0  0  0  0  0  0
  -25.2506  -13.8112   20.5625 C   0  0  0  0  0  0
  -24.1779  -13.0392   20.9130 C   0  0  0  0  0  0
  -24.6361  -11.6869   20.8721 C   0  0  0  0  0  0
  -23.9030  -10.4266   21.0390 C   0  0  0  0  0  0
  -24.3584   -9.4193   21.9177 C   0  0  0  0  0  0
  -23.6265   -8.2229   22.0746 C   0  0  0  0  0  0
  -22.4257   -8.0259   21.3533 C   0  0  0  0  0  0
  -21.9879   -9.0222   20.4639 C   0  0  0  0  0  0
  -22.7198  -10.2103   20.3047 C   0  0  0  0  0  0
  -21.6847   -6.0712   22.5276 C   0  0  0  0  0  0
  -21.4010   -6.5618   23.8203 C   0  0  0  0  0  0
  -21.3670   -5.6781   24.9166 C   0  0  0  0  0  0
  -21.6045   -4.3038   24.7228 C   0  0  0  0  0  0
  -21.8816   -3.8127   23.4347 C   0  0  0  0  0  0
  -21.9189   -4.6943   22.3402 C   0  0  0  0  0  0
  -22.7812  -13.5197   21.1830 C   0  0  0  0  0  0
  -22.1653   -4.2123   21.0982 F   0  0  0  0  0  0
  -21.5643   -3.4535   25.7741 F   0  0  0  0  0  0
  -30.0179  -13.3998   20.4499 N   0  0  0  0  0  0
  -26.2982  -12.9309   20.3391 N   0  0  0  0  0  0
  -25.9306  -11.6463   20.5802 N   0  0  0  0  0  0
  -22.0482  -12.8189   22.0418 N   0  0  0  0  0  0
  -25.4117  -15.1814   20.3981 N   0  0  0  0  0  0
  -31.7166  -14.8747   20.0857 O   0  0  0  0  0  0
  -21.6629   -6.8852   21.4231 O   0  0  0  0  0  0
  -22.3480  -14.5515   20.6721 O   0  0  0  0  0  0
  -24.6248  -31.8590   23.1999 C   0  0  0  0  0  0
  -25.9082  -32.4779   23.8357 C   0  0  1  0  0  0
  -27.2221  -27.3131   20.1384 C   0  0  0  0  0  0
  -25.5887  -33.8584   24.2271 N   0  0  0  0  0  0
  -23.4198  -30.4803   21.5414 C   0  0  2  0  0  0
  -24.8663  -28.9286   20.1128 C   0  0  0  0  0  0
  -22.7489  -29.4595   22.4914 C   0  0  0  0  0  0
  -18.0298  -28.1364   22.8488 C   0  0  0  0  0  0
  -24.1482  -36.7308   23.2645 C   0  0  0  0  0  0
  -25.9601  -30.7899   21.3681 C   0  0  0  0  0  0
  -26.0349  -29.4146   20.7157 C   0  0  0  0  0  0
  -27.2192  -28.6215   20.7086 C   0  0  0  0  0  0
  -26.0352  -26.8699   19.5195 C   0  0  0  0  0  0
  -24.8705  -27.6631   19.5017 C   0  0  0  0  0  0
  -23.6359  -29.8126   20.1576 C   0  0  0  0  0  0
  -25.4103  -36.3094   24.0336 C   0  0  1  0  0  0
  -20.5895  -28.3673   23.1281 C   0  0  2  0  0  0
  -20.6782  -26.9387   22.5408 C   0  0  0  0  0  0
  -19.5765  -26.6356   21.5214 C   0  0  0  0  0  0
  -18.1941  -26.7908   22.1616 C   0  0  0  0  0  0
  -19.1546  -28.8832   23.2886 C   0  0  0  0  0  0
  -18.9479  -30.1435   23.8909 C   0  0  0  0  0  0
  -17.6477  -30.6568   24.0567 C   0  0  0  0  0  0
  -25.9038  -34.9460   23.5107 C   0  0  0  0  0  0
  -16.5372  -29.9065   23.6323 C   0  0  0  0  0  0
  -16.7287  -28.6482   23.0345 C   0  0  0  0  0  0
  -26.4442  -31.6603   25.0747 C   0  0  0  0  0  0
  -25.3672  -31.3772   26.1489 C   0  0  0  0  0  0
  -27.0281  -30.3039   24.6184 C   0  0  0  0  0  0
  -27.6056  -32.4304   25.7475 C   0  0  0  0  0  0
  -27.5583  -37.1804   24.8455 C   0  0  0  0  0  0
  -21.4196  -29.3040   22.3682 N   0  0  0  0  0  0
  -26.4283  -37.3789   23.9413 N   0  0  0  0  0  0
  -24.6880  -31.0608   22.0939 N   0  0  0  0  0  0
  -23.4220  -28.8128   23.2979 O   0  0  0  0  0  0
  -28.3420  -26.4766   20.1434 O   0  0  0  0  0  0
  -26.5639  -34.8932   22.4690 O   0  0  0  0  0  0
  -23.5408  -32.1360   23.7326 O   0  0  0  0  0  0
  -30.0558  -19.4375   20.3085 C   0  0  0  0  0  0
  -30.4395  -18.0484   20.3596 C   0  0  0  0  0  0
  -27.9034  -18.8871   21.2265 C   0  0  0  0  0  0
  -28.7768  -19.9159   20.7417 C   0  0  0  0  0  0
  -29.5582  -17.0540   20.8702 C   0  0  0  0  0  0
  -28.3001  -17.5225   21.3028 C   0  0  0  0  0  0
  -26.4938  -19.2055   21.7058 C   0  0  0  0  0  0
  -26.0333  -20.5983   21.2893 C   0  0  0  0  0  0
  -27.1589  -21.6016   21.5219 C   0  0  0  0  0  0
  -28.5599  -23.8380   19.8263 C   0  0  0  0  0  0
  -29.2098  -22.4995   20.4483 C   0  0  0  0  0  0
  -28.2191  -25.1149   20.7240 C   0  0  0  0  0  0
  -28.3368  -21.3072   20.7023 N   0  0  0  0  0  0
  -29.7611  -15.6129   21.0389 N   0  0  0  0  0  0
  -27.4351  -16.6117   21.8118 F   0  0  0  0  0  0
  -31.4873  -12.5436   19.1513 H   0  0  0  0  0  0
  -30.4017  -11.3960   19.8797 H   0  0  0  0  0  0
  -29.7741  -11.7684   17.4788 H   0  0  0  0  0  0
  -29.6444  -13.4881   17.7544 H   0  0  0  0  0  0
  -27.8739  -11.2898   18.8732 H   0  0  0  0  0  0
  -27.3730  -12.5707   17.8039 H   0  0  0  0  0  0
  -27.6805  -14.2504   19.5519 H   0  0  0  0  0  0
  -28.7147  -11.9896   21.3344 H   0  0  0  0  0  0
  -28.4346  -13.6065   21.8867 H   0  0  0  0  0  0
  -25.2724   -9.5678   22.4755 H   0  0  0  0  0  0
  -23.9971   -7.4622   22.7470 H   0  0  0  0  0  0
  -21.0807   -8.8728   19.8948 H   0  0  0  0  0  0
  -22.3639  -10.9637   19.6161 H   0  0  0  0  0  0
  -21.1994   -7.6122   23.9700 H   0  0  0  0  0  0
  -21.1505   -6.0509   25.9068 H   0  0  0  0  0  0
  -22.0591   -2.7589   23.2861 H   0  0  0  0  0  0
  -22.4097  -11.9846   22.4797 H   0  0  0  0  0  0
  -21.1125  -13.1236   22.2700 H   0  0  0  0  0  0
  -24.6519  -15.8308   20.5630 H   0  0  0  0  0  0
  -26.3036  -15.6426   20.2704 H   0  0  0  0  0  0
  -26.7163  -32.5440   23.1126 H   0  0  0  0  0  0
  -25.0034  -33.9739   25.0409 H   0  0  0  0  0  0
  -22.7149  -31.3016   21.3956 H   0  0  0  0  0  0
  -23.3750  -35.9636   23.3285 H   0  0  0  0  0  0
  -24.3582  -36.8937   22.2065 H   0  0  0  0  0  0
  -23.7230  -37.6504   23.6673 H   0  0  0  0  0  0
  -26.0890  -31.5488   20.5948 H   0  0  0  0  0  0
  -26.8417  -30.8423   21.9958 H   0  0  0  0  0  0
  -28.1203  -28.9937   21.1751 H   0  0  0  0  0  0
  -26.0079  -25.8940   19.0552 H   0  0  0  0  0  0
  -23.9773  -27.2848   19.0230 H   0  0  0  0  0  0
  -23.7601  -30.5898   19.4032 H   0  0  0  0  0  0
  -22.7537  -29.2483   19.8483 H   0  0  0  0  0  0
  -25.1274  -36.1981   25.0833 H   0  0  0  0  0  0
  -21.0010  -28.3233   24.1392 H   0  0  0  0  0  0
  -20.5670  -26.2273   23.3600 H   0  0  0  0  0  0
  -21.6643  -26.7374   22.1213 H   0  0  0  0  0  0
  -19.6918  -25.6267   21.1242 H   0  0  0  0  0  0
  -19.6714  -27.3171   20.6751 H   0  0  0  0  0  0
  -17.4210  -26.6685   21.4010 H   0  0  0  0  0  0
  -18.0306  -26.0024   22.8973 H   0  0  0  0  0  0
  -19.7963  -30.7248   24.2266 H   0  0  0  0  0  0
  -17.5037  -31.6258   24.5150 H   0  0  0  0  0  0
  -15.5377  -30.2988   23.7613 H   0  0  0  0  0  0
  -15.8680  -28.0815   22.7049 H   0  0  0  0  0  0
  -24.5837  -30.7109   25.7832 H   0  0  0  0  0  0
  -24.8864  -32.2950   26.4901 H   0  0  0  0  0  0
  -25.7975  -30.8975   27.0291 H   0  0  0  0  0  0
  -26.2864  -29.6812   24.1174 H   0  0  0  0  0  0
  -27.3959  -29.7276   25.4685 H   0  0  0  0  0  0
  -27.8714  -30.4342   23.9401 H   0  0  0  0  0  0
  -27.2749  -33.3641   26.2026 H   0  0  0  0  0  0
  -28.3851  -32.6785   25.0261 H   0  0  0  0  0  0
  -28.0713  -31.8431   26.5392 H   0  0  0  0  0  0
  -28.2588  -38.0122   24.7521 H   0  0  0  0  0  0
  -28.1095  -36.2655   24.6229 H   0  0  0  0  0  0
  -27.2322  -37.1383   25.8867 H   0  0  0  0  0  0
  -20.9354  -29.8815   21.6953 H   0  0  0  0  0  0
  -26.0177  -38.2865   24.1444 H   0  0  0  0  0  0
  -30.7805  -20.1374   19.9210 H   0  0  0  0  0  0
  -31.4225  -17.7620   20.0145 H   0  0  0  0  0  0
  -26.4834  -19.1211   22.7938 H   0  0  0  0  0  0
  -25.7913  -18.4599   21.3327 H   0  0  0  0  0  0
  -25.1413  -20.8802   21.8509 H   0  0  0  0  0  0
  -25.7521  -20.6030   20.2349 H   0  0  0  0  0  0
  -27.4433  -21.6107   22.5765 H   0  0  0  0  0  0
  -26.7763  -22.5984   21.3048 H   0  0  0  0  0  0
  -27.6994  -23.5816   19.2087 H   0  0  0  0  0  0
  -29.3009  -24.1985   19.1150 H   0  0  0  0  0  0
  -29.7443  -22.7465   21.3653 H   0  0  0  0  0  0
  -29.9829  -22.1791   19.7494 H   0  0  0  0  0  0
  -28.9110  -25.1124   21.5667 H   0  0  0  0  0  0
  -27.2380  -24.9822   21.1807 H   0  0  0  0  0  0
  -28.9493  -15.1879   21.4629 H   0  0  0  0  0  0
  1 25  1  0  0  0
  1 30  2  0  0  0
  1 84  1  0  0  0
  2  3  1  0  0  0
  2 25  1  0  0  0
  2 86  1  0  0  0
  2 87  1  0  0  0
  3  4  1  0  0  0
  3 88  1  0  0  0
  3 89  1  0  0  0
  4  5  1  0  0  0
  4 90  1  0  0  0
  4 91  1  0  0  0
  5  6  1  0  0  0
  5 26  1  0  0  0
  5 92  1  0  0  0
  6 25  1  0  0  0
  6 93  1  0  0  0
  6 94  1  0  0  0
  7  8  2  0  0  0
  7 26  1  0  0  0
  7 29  1  0  0  0
  8  9  1  0  0  0
  8 22  1  0  0  0
  9 10  1  0  0  0
  9 27  2  0  0  0
 10 11  2  0  0  0
 10 15  1  0  0  0
 11 12  1  0  0  0
 11 95  1  0  0  0
 12 13  2  0  0  0
 12 96  1  0  0  0
 13 14  1  0  0  0
 13 31  1  0  0  0
 14 15  2  0  0  0
 14 97  1  0  0  0
 15 98  1  0  0  0
 16 17  2  0  0  0
 16 21  1  0  0  0
 16 31  1  0  0  0
 17 18  1  0  0  0
 17 99  1  0  0  0
 18 19  2  0  0  0
 18100  1  0  0  0
 19 20  1  0  0  0
 19 24  1  0  0  0
 20 21  2  0  0  0
 20101  1  0  0  0
 21 23  1  0  0  0
 22 28  1  0  0  0
 22 32  2  0  0  0
 26 27  1  0  0  0
 28102  1  0  0  0
 28103  1  0  0  0
 29104  1  0  0  0
 29105  1  0  0  0
 33 34  1  0  0  0
 33 66  1  0  0  0
 33 70  2  0  0  0
 34 36  1  0  0  0
 34 59  1  0  0  0
 34106  1  0  0  0
 35 44  2  0  0  0
 35 45  1  0  0  0
 35 68  1  0  0  0
 36 56  1  0  0  0
 36107  1  0  0  0
 37 39  1  0  0  0
 37 47  1  0  0  0
 37 66  1  0  0  0
 37108  1  0  0  0
 38 43  2  0  0  0
 38 46  1  0  0  0
 38 47  1  0  0  0
 39 64  1  0  0  0
 39 67  2  0  0  0
 40 52  1  0  0  0
 40 53  2  0  0  0
 40 58  1  0  0  0
 41109  1  0  0  0
 41110  1  0  0  0
 41111  1  0  0  0
 41 48  1  0  0  0
 42 43  1  0  0  0
 42 66  1  0  0  0
 42112  1  0  0  0
 42113  1  0  0  0
 43 44  1  0  0  0
 44114  1  0  0  0
 45 46  2  0  0  0
 45115  1  0  0  0
 46116  1  0  0  0
 47117  1  0  0  0
 47118  1  0  0  0
 48 56  1  0  0  0
 48 65  1  0  0  0
 48119  1  0  0  0
 49 50  1  0  0  0
 49 53  1  0  0  0
 49 64  1  0  0  0
 49120  1  0  0  0
 50 51  1  0  0  0
 50121  1  0  0  0
 50122  1  0  0  0
 51 52  1  0  0  0
 51123  1  0  0  0
 51124  1  0  0  0
 52125  1  0  0  0
 52126  1  0  0  0
 53 54  1  0  0  0
 54 55  2  0  0  0
 54127  1  0  0  0
 55 57  1  0  0  0
 55128  1  0  0  0
 56 69  2  0  0  0
 57 58  2  0  0  0
 57129  1  0  0  0
 58130  1  0  0  0
 59 60  1  0  0  0
 59 61  1  0  0  0
 59 62  1  0  0  0
 60131  1  0  0  0
 60132  1  0  0  0
 60133  1  0  0  0
 61134  1  0  0  0
 61135  1  0  0  0
 61136  1  0  0  0
 62137  1  0  0  0
 62138  1  0  0  0
 62139  1  0  0  0
 63 65  1  0  0  0
 63140  1  0  0  0
 63141  1  0  0  0
 63142  1  0  0  0
 64143  1  0  0  0
 65144  1  0  0  0
 68 82  1  0  0  0
 71 72  2  0  0  0
 71 74  1  0  0  0
 71145  1  0  0  0
 72 75  1  0  0  0
 72146  1  0  0  0
 73 74  2  0  0  0
 73 76  1  0  0  0
 73 77  1  0  0  0
 74 83  1  0  0  0
 75 76  2  0  0  0
 75 84  1  0  0  0
 76 85  1  0  0  0
 77 78  1  0  0  0
 77147  1  0  0  0
 77148  1  0  0  0
 78 79  1  0  0  0
 78149  1  0  0  0
 78150  1  0  0  0
 79 83  1  0  0  0
 79151  1  0  0  0
 79152  1  0  0  0
 80 81  1  0  0  0
 80 82  1  0  0  0
 80153  1  0  0  0
 80154  1  0  0  0
 81 83  1  0  0  0
 81155  1  0  0  0
 81156  1  0  0  0
 82157  1  0  0  0
 82158  1  0  0  0
 84159  1  0  0  0
M  ISO  4   1 100  68 101  82 101  84 100
M  END
> <chiral flag>
0

> <version>
0

> <s_m_source_file>
/data/baiqing/PycharmProjects/Reinvent-master-3.2/result/LINK_invent/BTK/process_docking_weight1_custom_product_contain_oxygen_bond_distance_aromatic_linkinvent_7_9_3/rearranged_h_0020.sdf

> <i_m_source_file_index>
20

> <r_mmod_Potential_Energy-OPLS-2005>
78.8079986572266

> <r_mmod_Stretch_Energy-OPLS-2005>
89.7934722900391

> <r_mmod_Bend_Energy-OPLS-2005>
182.764373779297

> <r_mmod_Torsional_Energy-OPLS-2005>
244.805740356445

> <r_mmod_Improper_Torsional_Energy-OPLS-2005>
5.61451816558838

> <r_mmod_Van_der_Waal_Energy-OPLS-2005>
144.989318847656

> <r_mmod_Electrostatic_Energy-OPLS-2005>
-426.765380859375

> <r_mmod_Solvation_Energy-OPLS-2005>
-213.266998291016

> <b_mmod_Minimization_Converged-OPLS-2005>
0

> <r_mmod_RMS_Derivative-OPLS-2005>
2.47769737243652

$$$$
20
                    3D
 Structure written by MMmdl.
165174  0  0  1  0            999 V2000
  -30.6341  -14.6953   20.5287 C   0  0  0  0  0  0
  -30.4333  -12.4515   19.4359 C   0  0  0  0  0  0
  -29.4903  -12.5159   18.2173 C   0  0  0  0  0  0
  -28.0160  -12.3390   18.6375 C   0  0  0  0  0  0
  -27.6461  -13.1919   19.8778 C   0  0  2  0  0  0
  -28.7101  -13.0205   20.9846 C   0  0  0  0  0  0
  -25.2479  -13.8078   20.5738 C   0  0  0  0  0  0
  -24.1770  -13.0351   20.9288 C   0  0  0  0  0  0
  -24.6354  -11.6843   20.8845 C   0  0  0  0  0  0
  -23.9017  -10.4249   21.0436 C   0  0  0  0  0  0
  -24.3573   -9.4165   21.9219 C   0  0  0  0  0  0
  -23.6263   -8.2193   22.0739 C   0  0  0  0  0  0
  -22.4265   -8.0247   21.3510 C   0  0  0  0  0  0
  -21.9886   -9.0229   20.4618 C   0  0  0  0  0  0
  -22.7200  -10.2125   20.3056 C   0  0  0  0  0  0
  -21.6861   -6.0719   22.5257 C   0  0  0  0  0  0
  -21.4019   -6.5621   23.8191 C   0  0  0  0  0  0
  -21.3675   -5.6774   24.9153 C   0  0  0  0  0  0
  -21.6035   -4.3044   24.7203 C   0  0  0  0  0  0
  -21.8821   -3.8131   23.4333 C   0  0  0  0  0  0
  -21.9191   -4.6948   22.3390 C   0  0  0  0  0  0
  -22.7791  -13.5169   21.1928 C   0  0  0  0  0  0
  -22.1645   -4.2121   21.0961 F   0  0  0  0  0  0
  -21.5637   -3.4535   25.7735 F   0  0  0  0  0  0
  -29.9795  -13.4807   20.4093 N   0  0  0  0  0  0
  -26.2943  -12.9248   20.3473 N   0  0  0  0  0  0
  -25.9274  -11.6423   20.5886 N   0  0  0  0  0  0
  -22.0398  -12.8173   22.0467 N   0  0  0  0  0  0
  -25.4006  -15.1806   20.4081 N   0  0  0  0  0  0
  -31.8233  -14.7411   20.1888 O   0  0  0  0  0  0
  -21.6624   -6.8853   21.4223 O   0  0  0  0  0  0
  -22.3498  -14.5480   20.6765 O   0  0  0  0  0  0
  -24.6225  -31.8573   23.1992 C   0  0  0  0  0  0
  -25.9067  -32.4770   23.8332 C   0  0  1  0  0  0
  -27.2524  -27.3233   20.1201 C   0  0  0  0  0  0
  -25.5875  -33.8579   24.2253 N   0  0  0  0  0  0
  -23.4198  -30.4753   21.5401 C   0  0  2  0  0  0
  -24.8750  -28.9249   20.1085 C   0  0  0  0  0  0
  -22.7456  -29.4612   22.4924 C   0  0  0  0  0  0
  -18.0277  -28.1382   22.8489 C   0  0  0  0  0  0
  -24.1471  -36.7292   23.2650 C   0  0  0  0  0  0
  -25.9583  -30.7871   21.3722 C   0  0  0  0  0  0
  -26.0357  -29.4114   20.7191 C   0  0  0  0  0  0
  -27.2168  -28.6167   20.7309 C   0  0  0  0  0  0
  -26.0664  -26.8767   19.4920 C   0  0  0  0  0  0
  -24.8910  -27.6604   19.4893 C   0  0  0  0  0  0
  -23.6361  -29.7998   20.1580 C   0  0  0  0  0  0
  -25.4103  -36.3090   24.0333 C   0  0  1  0  0  0
  -20.5877  -28.3687   23.1283 C   0  0  2  0  0  0
  -20.6764  -26.9401   22.5429 C   0  0  0  0  0  0
  -19.5749  -26.6376   21.5215 C   0  0  0  0  0  0
  -18.1926  -26.7922   22.1618 C   0  0  0  0  0  0
  -19.1535  -28.8849   23.2885 C   0  0  0  0  0  0
  -18.9457  -30.1447   23.8904 C   0  0  0  0  0  0
  -17.6471  -30.6595   24.0542 C   0  0  0  0  0  0
  -25.9051  -34.9455   23.5099 C   0  0  0  0  0  0
  -16.5358  -29.9104   23.6314 C   0  0  0  0  0  0
  -16.7271  -28.6512   23.0353 C   0  0  0  0  0  0
  -26.4463  -31.6607   25.0724 C   0  0  0  0  0  0
  -25.3703  -31.3767   26.1463 C   0  0  0  0  0  0
  -27.0307  -30.3024   24.6199 C   0  0  0  0  0  0
  -27.6008  -32.4367   25.7508 C   0  0  0  0  0  0
  -27.5569  -37.1803   24.8461 C   0  0  0  0  0  0
  -21.4184  -29.3036   22.3677 N   0  0  0  0  0  0
  -26.4273  -37.3785   23.9422 N   0  0  0  0  0  0
  -24.6851  -31.0583   22.0943 N   0  0  0  0  0  0
  -23.4190  -28.8159   23.3016 O   0  0  0  0  0  0
  -28.3797  -26.4945   20.2386 O   0  0  0  0  0  0
  -26.5636  -34.8923   22.4688 O   0  0  0  0  0  0
  -23.5390  -32.1390   23.7321 O   0  0  0  0  0  0
  -31.2001  -19.6919   21.0750 C   0  0  0  0  0  0
  -29.0638  -19.3495   20.0699 C   0  0  0  0  0  0
  -30.9857  -21.0962   21.0370 C   0  0  0  0  0  0
  -28.8635  -20.7737   20.0107 C   0  0  0  0  0  0
  -30.2699  -18.7577   20.5614 C   0  0  0  0  0  0
  -29.8514  -21.7203   20.4316 C   0  0  0  0  0  0
  -30.3631  -23.5998   17.3837 C   0  0  0  0  0  0
  -31.4666  -23.2222   18.3947 C   0  0  0  0  0  0
  -28.9388  -23.3291   17.9285 C   0  0  0  0  0  0
  -31.1309  -23.6780   19.8309 C   0  0  0  0  0  0
  -28.7460  -23.8572   19.3840 C   0  0  2  0  0  0
  -28.5811  -16.1340   21.2116 C   0  0  0  0  0  0
  -30.7050  -17.2241   20.5105 C   0  0  0  0  0  0
  -28.7408  -25.4869   19.2346 C   0  0  0  0  0  0
  -29.8030  -23.1711   20.2221 N   0  0  0  0  0  0
  -29.9680  -15.9135   20.7517 N   0  0  0  0  0  0
  -31.4610  -12.6036   19.1084 H   0  0  0  0  0  0
  -30.4273  -11.4524   19.8759 H   0  0  0  0  0  0
  -29.7670  -11.7496   17.4909 H   0  0  0  0  0  0
  -29.6113  -13.4783   17.7179 H   0  0  0  0  0  0
  -27.8579  -11.2837   18.8575 H   0  0  0  0  0  0
  -27.3507  -12.5734   17.8037 H   0  0  0  0  0  0
  -27.6633  -14.2203   19.5357 H   0  0  0  0  0  0
  -28.7832  -11.9652   21.2566 H   0  0  0  0  0  0
  -28.4686  -13.4862   21.9326 H   0  0  0  0  0  0
  -25.2693   -9.5663   22.4820 H   0  0  0  0  0  0
  -23.9978   -7.4595   22.7461 H   0  0  0  0  0  0
  -21.0816   -8.8734   19.8964 H   0  0  0  0  0  0
  -22.3622  -10.9667   19.6180 H   0  0  0  0  0  0
  -21.2008   -7.6123   23.9667 H   0  0  0  0  0  0
  -21.1508   -6.0517   25.9044 H   0  0  0  0  0  0
  -22.0614   -2.7596   23.2826 H   0  0  0  0  0  0
  -22.4003  -11.9817   22.4862 H   0  0  0  0  0  0
  -21.1041  -13.1225   22.2705 H   0  0  0  0  0  0
  -24.6228  -15.8152   20.5435 H   0  0  0  0  0  0
  -26.2352  -15.6489   20.0828 H   0  0  0  0  0  0
  -26.7142  -32.5439   23.1089 H   0  0  0  0  0  0
  -24.9938  -33.9714   25.0330 H   0  0  0  0  0  0
  -22.7130  -31.2948   21.3905 H   0  0  0  0  0  0
  -23.3732  -35.9622   23.3306 H   0  0  0  0  0  0
  -24.3556  -36.8924   22.2064 H   0  0  0  0  0  0
  -23.7211  -37.6490   23.6679 H   0  0  0  0  0  0
  -26.0872  -31.5476   20.6010 H   0  0  0  0  0  0
  -26.8379  -30.8402   22.0015 H   0  0  0  0  0  0
  -28.1007  -28.9819   21.2346 H   0  0  0  0  0  0
  -26.0223  -25.8952   19.0382 H   0  0  0  0  0  0
  -23.9956  -27.2706   19.0252 H   0  0  0  0  0  0
  -23.7513  -30.5709   19.3955 H   0  0  0  0  0  0
  -22.7583  -29.2238   19.8604 H   0  0  0  0  0  0
  -25.1287  -36.1940   25.0825 H   0  0  0  0  0  0
  -20.9970  -28.3270   24.1398 H   0  0  0  0  0  0
  -20.5631  -26.2300   23.3635 H   0  0  0  0  0  0
  -21.6632  -26.7422   22.1225 H   0  0  0  0  0  0
  -19.6902  -25.6286   21.1237 H   0  0  0  0  0  0
  -19.6675  -27.3181   20.6735 H   0  0  0  0  0  0
  -17.4188  -26.6656   21.4021 H   0  0  0  0  0  0
  -18.0326  -26.0073   22.9024 H   0  0  0  0  0  0
  -19.7953  -30.7240   24.2277 H   0  0  0  0  0  0
  -17.5043  -31.6272   24.5157 H   0  0  0  0  0  0
  -15.5362  -30.3013   23.7645 H   0  0  0  0  0  0
  -15.8658  -28.0832   22.7075 H   0  0  0  0  0  0
  -24.5845  -30.7143   25.7813 H   0  0  0  0  0  0
  -24.8916  -32.2940   26.4906 H   0  0  0  0  0  0
  -25.8020  -30.8942   27.0237 H   0  0  0  0  0  0
  -26.2891  -29.6795   24.1176 H   0  0  0  0  0  0
  -27.3937  -29.7272   25.4728 H   0  0  0  0  0  0
  -27.8783  -30.4294   23.9459 H   0  0  0  0  0  0
  -27.2577  -33.3648   26.2094 H   0  0  0  0  0  0
  -28.3810  -32.6975   25.0347 H   0  0  0  0  0  0
  -28.0679  -31.8500   26.5427 H   0  0  0  0  0  0
  -28.2601  -38.0089   24.7517 H   0  0  0  0  0  0
  -28.1050  -36.2625   24.6273 H   0  0  0  0  0  0
  -27.2291  -37.1439   25.8864 H   0  0  0  0  0  0
  -20.9363  -29.8750   21.6865 H   0  0  0  0  0  0
  -26.0153  -38.2860   24.1437 H   0  0  0  0  0  0
  -32.1289  -19.3249   21.4906 H   0  0  0  0  0  0
  -28.2838  -18.7120   19.6775 H   0  0  0  0  0  0
  -31.7777  -21.6823   21.4718 H   0  0  0  0  0  0
  -27.9399  -21.1277   19.5769 H   0  0  0  0  0  0
  -30.5134  -23.0446   16.4553 H   0  0  0  0  0  0
  -30.4626  -24.6516   17.1164 H   0  0  0  0  0  0
  -32.4217  -23.6503   18.0864 H   0  0  0  0  0  0
  -31.6126  -22.1414   18.3756 H   0  0  0  0  0  0
  -28.7447  -22.2632   17.8609 H   0  0  0  0  0  0
  -28.2013  -23.7730   17.2579 H   0  0  0  0  0  0
  -31.1636  -24.7615   19.9036 H   0  0  0  0  0  0
  -31.9262  -23.3965   20.5161 H   0  0  0  0  0  0
  -27.7647  -23.5480   19.7430 H   0  0  0  0  0  0
  -28.2370  -15.4619   21.9860 H   0  0  0  0  0  0
  -27.9045  -16.1330   20.3627 H   0  0  0  0  0  0
  -28.4423  -17.1159   21.6644 H   0  0  0  0  0  0
  -30.5865  -17.3391   21.5904 H   0  0  0  0  0  0
  -30.0536  -17.2256   19.6357 H   0  0  0  0  0  0
  -28.1459  -25.7245   18.3527 H   0  0  0  0  0  0
  -29.7251  -25.8175   18.9156 H   0  0  0  0  0  0
  1 25  1  0  0  0
  1 30  2  0  0  0
  1 86  1  0  0  0
  2  3  1  0  0  0
  2 25  1  0  0  0
  2 87  1  0  0  0
  2 88  1  0  0  0
  3  4  1  0  0  0
  3 89  1  0  0  0
  3 90  1  0  0  0
  4  5  1  0  0  0
  4 91  1  0  0  0
  4 92  1  0  0  0
  5  6  1  0  0  0
  5 26  1  0  0  0
  5 93  1  0  0  0
  6 25  1  0  0  0
  6 94  1  0  0  0
  6 95  1  0  0  0
  7  8  2  0  0  0
  7 26  1  0  0  0
  7 29  1  0  0  0
  8  9  1  0  0  0
  8 22  1  0  0  0
  9 10  1  0  0  0
  9 27  2  0  0  0
 10 11  2  0  0  0
 10 15  1  0  0  0
 11 12  1  0  0  0
 11 96  1  0  0  0
 12 13  2  0  0  0
 12 97  1  0  0  0
 13 14  1  0  0  0
 13 31  1  0  0  0
 14 15  2  0  0  0
 14 98  1  0  0  0
 15 99  1  0  0  0
 16 17  2  0  0  0
 16 21  1  0  0  0
 16 31  1  0  0  0
 17 18  1  0  0  0
 17100  1  0  0  0
 18 19  2  0  0  0
 18101  1  0  0  0
 19 20  1  0  0  0
 19 24  1  0  0  0
 20 21  2  0  0  0
 20102  1  0  0  0
 21 23  1  0  0  0
 22 28  1  0  0  0
 22 32  2  0  0  0
 26 27  1  0  0  0
 28103  1  0  0  0
 28104  1  0  0  0
 29105  1  0  0  0
 29106  1  0  0  0
 33 34  1  0  0  0
 33 66  1  0  0  0
 33 70  2  0  0  0
 34 36  1  0  0  0
 34 59  1  0  0  0
 34107  1  0  0  0
 35 44  2  0  0  0
 35 45  1  0  0  0
 35 68  1  0  0  0
 36 56  1  0  0  0
 36108  1  0  0  0
 37 39  1  0  0  0
 37 47  1  0  0  0
 37 66  1  0  0  0
 37109  1  0  0  0
 38 43  2  0  0  0
 38 46  1  0  0  0
 38 47  1  0  0  0
 39 64  1  0  0  0
 39 67  2  0  0  0
 40 52  1  0  0  0
 40 53  2  0  0  0
 40 58  1  0  0  0
 41110  1  0  0  0
 41111  1  0  0  0
 41112  1  0  0  0
 41 48  1  0  0  0
 42 43  1  0  0  0
 42 66  1  0  0  0
 42113  1  0  0  0
 42114  1  0  0  0
 43 44  1  0  0  0
 44115  1  0  0  0
 45 46  2  0  0  0
 45116  1  0  0  0
 46117  1  0  0  0
 47118  1  0  0  0
 47119  1  0  0  0
 48 56  1  0  0  0
 48 65  1  0  0  0
 48120  1  0  0  0
 49 50  1  0  0  0
 49 53  1  0  0  0
 49 64  1  0  0  0
 49121  1  0  0  0
 50 51  1  0  0  0
 50122  1  0  0  0
 50123  1  0  0  0
 51 52  1  0  0  0
 51124  1  0  0  0
 51125  1  0  0  0
 52126  1  0  0  0
 52127  1  0  0  0
 53 54  1  0  0  0
 54 55  2  0  0  0
 54128  1  0  0  0
 55 57  1  0  0  0
 55129  1  0  0  0
 56 69  2  0  0  0
 57 58  2  0  0  0
 57130  1  0  0  0
 58131  1  0  0  0
 59 60  1  0  0  0
 59 61  1  0  0  0
 59 62  1  0  0  0
 60132  1  0  0  0
 60133  1  0  0  0
 60134  1  0  0  0
 61135  1  0  0  0
 61136  1  0  0  0
 61137  1  0  0  0
 62138  1  0  0  0
 62139  1  0  0  0
 62140  1  0  0  0
 63 65  1  0  0  0
 63141  1  0  0  0
 63142  1  0  0  0
 63143  1  0  0  0
 64144  1  0  0  0
 65145  1  0  0  0
 68 84  1  0  0  0
 71 73  2  0  0  0
 71 75  1  0  0  0
 71146  1  0  0  0
 72 74  1  0  0  0
 72 75  2  0  0  0
 72147  1  0  0  0
 73 76  1  0  0  0
 73148  1  0  0  0
 74 76  2  0  0  0
 74149  1  0  0  0
 75 83  1  0  0  0
 76 85  1  0  0  0
 77 78  1  0  0  0
 77 79  1  0  0  0
 77150  1  0  0  0
 77151  1  0  0  0
 78 80  1  0  0  0
 78152  1  0  0  0
 78153  1  0  0  0
 79 81  1  0  0  0
 79154  1  0  0  0
 79155  1  0  0  0
 80 85  1  0  0  0
 80156  1  0  0  0
 80157  1  0  0  0
 81 84  1  0  0  0
 81 85  1  0  0  0
 81158  1  0  0  0
 82 86  1  0  0  0
 82159  1  0  0  0
 82160  1  0  0  0
 82161  1  0  0  0
 83 86  1  0  0  0
 83162  1  0  0  0
 83163  1  0  0  0
 84164  1  0  0  0
 84165  1  0  0  0
M  ISO  4   1 100  68 101  84 101  86 100
M  END
> <chiral flag>
0

> <version>
0

> <s_m_source_file>
/data/baiqing/PycharmProjects/Reinvent-master-3.2/result/LINK_invent/BTK/process_docking_weight1_custom_product_contain_oxygen_bond_distance_aromatic_linkinvent_7_9_3/rearranged_h_0020.sdf

> <i_m_source_file_index>
21

> <r_mmod_Potential_Energy-OPLS-2005>
576.2529296875

> <r_mmod_Stretch_Energy-OPLS-2005>
117.90348815918

> <r_mmod_Bend_Energy-OPLS-2005>
437.360168457031

> <r_mmod_Torsional_Energy-OPLS-2005>
288.212097167969

> <r_mmod_Improper_Torsional_Energy-OPLS-2005>
11.4883556365967

> <r_mmod_Van_der_Waal_Energy-OPLS-2005>
197.802764892578

> <r_mmod_Electrostatic_Energy-OPLS-2005>
-306.722442626953

> <r_mmod_Solvation_Energy-OPLS-2005>
-227.293426513672

> <b_mmod_Minimization_Converged-OPLS-2005>
0

> <r_mmod_RMS_Derivative-OPLS-2005>
4.43297052383423

$$$$
21
                    3D
 Structure written by MMmdl.
155163  0  0  1  0            999 V2000
  -30.6335  -14.7085   20.4412 C   0  0  0  0  0  0
  -30.4255  -12.4246   19.4779 C   0  0  0  0  0  0
  -29.5071  -12.4922   18.2383 C   0  0  0  0  0  0
  -28.0327  -12.3242   18.6530 C   0  0  0  0  0  0
  -27.6418  -13.2309   19.8507 C   0  0  2  0  0  0
  -28.6851  -13.1649   20.9876 C   0  0  0  0  0  0
  -25.2507  -13.8205   20.5702 C   0  0  0  0  0  0
  -24.1797  -13.0447   20.9208 C   0  0  0  0  0  0
  -24.6393  -11.6924   20.8750 C   0  0  0  0  0  0
  -23.9074  -10.4294   21.0414 C   0  0  0  0  0  0
  -24.3621   -9.4206   21.9188 C   0  0  0  0  0  0
  -23.6291   -8.2241   22.0758 C   0  0  0  0  0  0
  -22.4274   -8.0280   21.3548 C   0  0  0  0  0  0
  -21.9916   -9.0255   20.4648 C   0  0  0  0  0  0
  -22.7248  -10.2135   20.3058 C   0  0  0  0  0  0
  -21.6851   -6.0739   22.5281 C   0  0  0  0  0  0
  -21.4015   -6.5644   23.8210 C   0  0  0  0  0  0
  -21.3654   -5.6795   24.9170 C   0  0  0  0  0  0
  -21.6044   -4.3054   24.7223 C   0  0  0  0  0  0
  -21.8818   -3.8152   23.4337 C   0  0  0  0  0  0
  -21.9193   -4.6970   22.3400 C   0  0  0  0  0  0
  -22.7816  -13.5223   21.1868 C   0  0  0  0  0  0
  -22.1658   -4.2153   21.0977 F   0  0  0  0  0  0
  -21.5628   -3.4537   25.7739 F   0  0  0  0  0  0
  -29.9936  -13.4924   20.4085 N   0  0  0  0  0  0
  -26.2935  -12.9412   20.3290 N   0  0  0  0  0  0
  -25.9320  -11.6558   20.5766 N   0  0  0  0  0  0
  -22.0468  -12.8203   22.0425 N   0  0  0  0  0  0
  -25.4215  -15.1925   20.4135 N   0  0  0  0  0  0
  -31.8282  -14.7721   20.1392 O   0  0  0  0  0  0
  -21.6638   -6.8881   21.4242 O   0  0  0  0  0  0
  -22.3493  -14.5531   20.6720 O   0  0  0  0  0  0
  -24.6302  -31.8567   23.2017 C   0  0  0  0  0  0
  -25.9141  -32.4759   23.8342 C   0  0  1  0  0  0
  -27.2106  -27.2741   20.1217 C   0  0  0  0  0  0
  -25.5945  -33.8559   24.2267 N   0  0  0  0  0  0
  -23.4242  -30.4821   21.5447 C   0  0  2  0  0  0
  -24.8688  -28.9377   20.1063 C   0  0  0  0  0  0
  -22.7488  -29.4613   22.4925 C   0  0  0  0  0  0
  -18.0284  -28.1388   22.8479 C   0  0  0  0  0  0
  -24.1487  -36.7285   23.2638 C   0  0  0  0  0  0
  -25.9706  -30.7728   21.3799 C   0  0  0  0  0  0
  -26.0414  -29.3990   20.7184 C   0  0  0  0  0  0
  -27.2140  -28.5788   20.7190 C   0  0  0  0  0  0
  -26.0188  -26.8902   19.4628 C   0  0  0  0  0  0
  -24.8633  -27.6913   19.4665 C   0  0  0  0  0  0
  -23.6385  -29.8208   20.1588 C   0  0  0  0  0  0
  -25.4114  -36.3070   24.0323 C   0  0  1  0  0  0
  -20.5887  -28.3691   23.1276 C   0  0  2  0  0  0
  -20.6778  -26.9412   22.5413 C   0  0  0  0  0  0
  -19.5757  -26.6379   21.5214 C   0  0  0  0  0  0
  -18.1930  -26.7932   22.1613 C   0  0  0  0  0  0
  -19.1537  -28.8855   23.2874 C   0  0  0  0  0  0
  -18.9466  -30.1458   23.8894 C   0  0  0  0  0  0
  -17.6467  -30.6596   24.0559 C   0  0  0  0  0  0
  -25.9049  -34.9440   23.5091 C   0  0  0  0  0  0
  -16.5355  -29.9092   23.6344 C   0  0  0  0  0  0
  -16.7269  -28.6506   23.0367 C   0  0  0  0  0  0
  -26.4513  -31.6590   25.0732 C   0  0  0  0  0  0
  -25.3738  -31.3762   26.1462 C   0  0  0  0  0  0
  -27.0345  -30.2998   24.6219 C   0  0  0  0  0  0
  -27.6067  -32.4336   25.7499 C   0  0  0  0  0  0
  -27.5582  -37.1794   24.8466 C   0  0  0  0  0  0
  -21.4194  -29.3043   22.3671 N   0  0  0  0  0  0
  -26.4294  -37.3772   23.9408 N   0  0  0  0  0  0
  -24.6943  -31.0544   22.0985 N   0  0  0  0  0  0
  -23.4190  -28.8143   23.3020 O   0  0  0  0  0  0
  -28.2946  -26.3697   20.2027 O   0  0  0  0  0  0
  -26.5618  -34.8911   22.4658 O   0  0  0  0  0  0
  -23.5458  -32.1377   23.7319 O   0  0  0  0  0  0
  -31.0738  -17.5131   19.1809 C   0  0  0  0  0  0
  -31.3397  -18.8189   18.7362 C   0  0  0  0  0  0
  -30.1448  -17.2611   20.2142 C   0  0  0  0  0  0
  -29.7311  -19.8120   20.3239 C   0  0  0  0  0  0
  -30.7087  -19.9446   19.2970 C   0  0  0  0  0  0
  -29.4534  -18.4272   20.7484 C   0  0  0  0  0  0
  -29.0154  -21.0313   22.3634 C   0  0  0  0  0  0
  -28.9616  -23.7258   20.5269 C   0  0  0  0  0  0
  -28.5513  -22.1995   20.1660 C   0  0  0  0  0  0
  -28.0266  -24.9120   19.9685 C   0  0  0  0  0  0
  -29.8813  -15.8568   20.6340 N   0  0  0  0  0  0
  -29.1820  -21.0362   20.9117 N   0  0  0  0  0  0
  -31.2458  -21.4885   18.7205 Cl  0  0  0  0  0  0
  -28.2210  -18.0906   21.9193 Cl  0  0  0  0  0  0
  -31.4692  -12.5288   19.1777 H   0  0  0  0  0  0
  -30.3523  -11.4493   19.9614 H   0  0  0  0  0  0
  -29.7828  -11.7167   17.5226 H   0  0  0  0  0  0
  -29.6410  -13.4460   17.7263 H   0  0  0  0  0  0
  -27.8894  -11.2769   18.9231 H   0  0  0  0  0  0
  -27.3737  -12.5099   17.8041 H   0  0  0  0  0  0
  -27.6380  -14.2516   19.4668 H   0  0  0  0  0  0
  -28.7065  -12.1705   21.4364 H   0  0  0  0  0  0
  -28.4260  -13.8572   21.7897 H   0  0  0  0  0  0
  -25.2769   -9.5679   22.4764 H   0  0  0  0  0  0
  -24.0001   -7.4636   22.7477 H   0  0  0  0  0  0
  -21.0851   -8.8770   19.8952 H   0  0  0  0  0  0
  -22.3708  -10.9669   19.6164 H   0  0  0  0  0  0
  -21.2004   -7.6152   23.9717 H   0  0  0  0  0  0
  -21.1476   -6.0524   25.9075 H   0  0  0  0  0  0
  -22.0602   -2.7615   23.2838 H   0  0  0  0  0  0
  -22.4081  -11.9848   22.4784 H   0  0  0  0  0  0
  -21.1094  -13.1229   22.2657 H   0  0  0  0  0  0
  -24.6614  -15.8508   20.5422 H   0  0  0  0  0  0
  -26.2754  -15.6347   20.0991 H   0  0  0  0  0  0
  -26.7195  -32.5406   23.1068 H   0  0  0  0  0  0
  -25.0124  -33.9707   25.0434 H   0  0  0  0  0  0
  -22.7205  -31.3048   21.4022 H   0  0  0  0  0  0
  -23.3759  -35.9608   23.3290 H   0  0  0  0  0  0
  -24.3578  -36.8927   22.2055 H   0  0  0  0  0  0
  -23.7223  -37.6474   23.6671 H   0  0  0  0  0  0
  -26.1117  -31.5337   20.6110 H   0  0  0  0  0  0
  -26.8479  -30.8162   22.0144 H   0  0  0  0  0  0
  -28.1073  -28.9229   21.2209 H   0  0  0  0  0  0
  -25.9400  -25.9436   18.9492 H   0  0  0  0  0  0
  -23.9684  -27.3365   18.9734 H   0  0  0  0  0  0
  -23.7537  -30.5979   19.4034 H   0  0  0  0  0  0
  -22.7571  -29.2513   19.8576 H   0  0  0  0  0  0
  -25.1293  -36.1917   25.0815 H   0  0  0  0  0  0
  -20.9971  -28.3259   24.1398 H   0  0  0  0  0  0
  -20.5689  -26.2296   23.3608 H   0  0  0  0  0  0
  -21.6645  -26.7444   22.1197 H   0  0  0  0  0  0
  -19.6934  -25.6289   21.1249 H   0  0  0  0  0  0
  -19.6721  -27.3183   20.6741 H   0  0  0  0  0  0
  -17.4208  -26.6690   21.4001 H   0  0  0  0  0  0
  -18.0324  -26.0071   22.9001 H   0  0  0  0  0  0
  -19.7946  -30.7273   24.2259 H   0  0  0  0  0  0
  -17.5025  -31.6279   24.5157 H   0  0  0  0  0  0
  -15.5357  -30.2999   23.7681 H   0  0  0  0  0  0
  -15.8659  -28.0820   22.7111 H   0  0  0  0  0  0
  -24.5908  -30.7102   25.7817 H   0  0  0  0  0  0
  -24.8935  -32.2944   26.4853 H   0  0  0  0  0  0
  -25.8056  -30.8975   27.0262 H   0  0  0  0  0  0
  -26.2914  -29.6752   24.1240 H   0  0  0  0  0  0
  -27.4022  -29.7254   25.4737 H   0  0  0  0  0  0
  -27.8803  -30.4268   23.9457 H   0  0  0  0  0  0
  -27.2682  -33.3681   26.1985 H   0  0  0  0  0  0
  -28.3919  -32.6822   25.0347 H   0  0  0  0  0  0
  -28.0672  -31.8512   26.5491 H   0  0  0  0  0  0
  -28.2594  -38.0097   24.7506 H   0  0  0  0  0  0
  -28.1085  -36.2624   24.6295 H   0  0  0  0  0  0
  -27.2300  -37.1436   25.8871 H   0  0  0  0  0  0
  -20.9371  -29.8775   21.6888 H   0  0  0  0  0  0
  -26.0177  -38.2849   24.1416 H   0  0  0  0  0  0
  -31.6019  -16.7091   18.6915 H   0  0  0  0  0  0
  -32.0716  -18.9649   17.9548 H   0  0  0  0  0  0
  -29.6984  -20.3316   22.8471 H   0  0  0  0  0  0
  -27.9945  -20.7600   22.6354 H   0  0  0  0  0  0
  -29.2164  -22.0119   22.7928 H   0  0  0  0  0  0
  -29.9819  -23.8973   20.1839 H   0  0  0  0  0  0
  -28.9962  -23.8407   21.6092 H   0  0  0  0  0  0
  -28.6591  -22.0513   19.0911 H   0  0  0  0  0  0
  -27.4774  -22.1106   20.3372 H   0  0  0  0  0  0
  -27.0425  -24.6864   20.3813 H   0  0  0  0  0  0
  -27.9412  -24.7781   18.8896 H   0  0  0  0  0  0
  -28.9684  -15.7008   21.0346 H   0  0  0  0  0  0
  1 25  1  0  0  0
  1 30  2  0  0  0
  1 81  1  0  0  0
  2  3  1  0  0  0
  2 25  1  0  0  0
  2 85  1  0  0  0
  2 86  1  0  0  0
  3  4  1  0  0  0
  3 87  1  0  0  0
  3 88  1  0  0  0
  4  5  1  0  0  0
  4 89  1  0  0  0
  4 90  1  0  0  0
  5  6  1  0  0  0
  5 26  1  0  0  0
  5 91  1  0  0  0
  6 25  1  0  0  0
  6 92  1  0  0  0
  6 93  1  0  0  0
  7  8  2  0  0  0
  7 26  1  0  0  0
  7 29  1  0  0  0
  8  9  1  0  0  0
  8 22  1  0  0  0
  9 10  1  0  0  0
  9 27  2  0  0  0
 10 11  2  0  0  0
 10 15  1  0  0  0
 11 12  1  0  0  0
 11 94  1  0  0  0
 12 13  2  0  0  0
 12 95  1  0  0  0
 13 14  1  0  0  0
 13 31  1  0  0  0
 14 15  2  0  0  0
 14 96  1  0  0  0
 15 97  1  0  0  0
 16 17  2  0  0  0
 16 21  1  0  0  0
 16 31  1  0  0  0
 17 18  1  0  0  0
 17 98  1  0  0  0
 18 19  2  0  0  0
 18 99  1  0  0  0
 19 20  1  0  0  0
 19 24  1  0  0  0
 20 21  2  0  0  0
 20100  1  0  0  0
 21 23  1  0  0  0
 22 28  1  0  0  0
 22 32  2  0  0  0
 26 27  1  0  0  0
 28101  1  0  0  0
 28102  1  0  0  0
 29103  1  0  0  0
 29104  1  0  0  0
 33 34  1  0  0  0
 33 66  1  0  0  0
 33 70  2  0  0  0
 34 36  1  0  0  0
 34 59  1  0  0  0
 34105  1  0  0  0
 35 44  2  0  0  0
 35 45  1  0  0  0
 35 68  1  0  0  0
 36 56  1  0  0  0
 36106  1  0  0  0
 37 39  1  0  0  0
 37 47  1  0  0  0
 37 66  1  0  0  0
 37107  1  0  0  0
 38 43  2  0  0  0
 38 46  1  0  0  0
 38 47  1  0  0  0
 39 64  1  0  0  0
 39 67  2  0  0  0
 40 52  1  0  0  0
 40 53  2  0  0  0
 40 58  1  0  0  0
 41108  1  0  0  0
 41109  1  0  0  0
 41110  1  0  0  0
 41 48  1  0  0  0
 42 43  1  0  0  0
 42 66  1  0  0  0
 42111  1  0  0  0
 42112  1  0  0  0
 43 44  1  0  0  0
 44113  1  0  0  0
 45 46  2  0  0  0
 45114  1  0  0  0
 46115  1  0  0  0
 47116  1  0  0  0
 47117  1  0  0  0
 48 56  1  0  0  0
 48 65  1  0  0  0
 48118  1  0  0  0
 49 50  1  0  0  0
 49 53  1  0  0  0
 49 64  1  0  0  0
 49119  1  0  0  0
 50 51  1  0  0  0
 50120  1  0  0  0
 50121  1  0  0  0
 51 52  1  0  0  0
 51122  1  0  0  0
 51123  1  0  0  0
 52124  1  0  0  0
 52125  1  0  0  0
 53 54  1  0  0  0
 54 55  2  0  0  0
 54126  1  0  0  0
 55 57  1  0  0  0
 55127  1  0  0  0
 56 69  2  0  0  0
 57 58  2  0  0  0
 57128  1  0  0  0
 58129  1  0  0  0
 59 60  1  0  0  0
 59 61  1  0  0  0
 59 62  1  0  0  0
 60130  1  0  0  0
 60131  1  0  0  0
 60132  1  0  0  0
 61133  1  0  0  0
 61134  1  0  0  0
 61135  1  0  0  0
 62136  1  0  0  0
 62137  1  0  0  0
 62138  1  0  0  0
 63 65  1  0  0  0
 63139  1  0  0  0
 63140  1  0  0  0
 63141  1  0  0  0
 64142  1  0  0  0
 65143  1  0  0  0
 68 80  1  0  0  0
 71 72  2  0  0  0
 71 73  1  0  0  0
 71144  1  0  0  0
 72 75  1  0  0  0
 72145  1  0  0  0
 73 76  2  0  0  0
 73 81  1  0  0  0
 74 75  2  0  0  0
 74 76  1  0  0  0
 74 82  1  0  0  0
 75 83  1  0  0  0
 76 84  1  0  0  0
 77 82  1  0  0  0
 77146  1  0  0  0
 77147  1  0  0  0
 77148  1  0  0  0
 78 79  1  0  0  0
 78 80  1  0  0  0
 78149  1  0  0  0
 78150  1  0  0  0
 79 82  1  0  0  0
 79151  1  0  0  0
 79152  1  0  0  0
 80153  1  0  0  0
 80154  1  0  0  0
 81155  1  0  0  0
M  ISO  4   1 100  68 101  80 101  81 100
M  END
> <chiral flag>
0

> <version>
0

> <s_m_source_file>
/data/baiqing/PycharmProjects/Reinvent-master-3.2/result/LINK_invent/BTK/process_docking_weight1_custom_product_contain_oxygen_bond_distance_aromatic_linkinvent_7_9_3/rearranged_h_0020.sdf

> <i_m_source_file_index>
22

> <r_mmod_Potential_Energy-OPLS-2005>
244.249588012695

> <r_mmod_Stretch_Energy-OPLS-2005>
123.512313842773

> <r_mmod_Bend_Energy-OPLS-2005>
167.945373535156

> <r_mmod_Torsional_Energy-OPLS-2005>
229.634460449219

> <r_mmod_Improper_Torsional_Energy-OPLS-2005>
4.82163047790527

> <r_mmod_Van_der_Waal_Energy-OPLS-2005>
155.563491821289

> <r_mmod_Electrostatic_Energy-OPLS-2005>
-303.57861328125

> <r_mmod_Solvation_Energy-OPLS-2005>
-211.511688232422

> <b_mmod_Minimization_Converged-OPLS-2005>
0

> <r_mmod_RMS_Derivative-OPLS-2005>
1.4615067243576

$$$$
22
                    3D
 Structure written by MMmdl.
156165  0  0  1  0            999 V2000
  -30.5245  -14.9062   20.4387 C   0  0  0  0  0  0
  -30.4552  -12.5559   19.4941 C   0  0  0  0  0  0
  -29.5289  -12.5316   18.2540 C   0  0  0  0  0  0
  -28.0574  -12.3263   18.6661 C   0  0  0  0  0  0
  -27.6401  -13.2414   19.8473 C   0  0  2  0  0  0
  -28.6853  -13.2162   20.9840 C   0  0  0  0  0  0
  -25.2482  -13.8176   20.5701 C   0  0  0  0  0  0
  -24.1785  -13.0402   20.9180 C   0  0  0  0  0  0
  -24.6402  -11.6893   20.8713 C   0  0  0  0  0  0
  -23.9084  -10.4270   21.0387 C   0  0  0  0  0  0
  -24.3628   -9.4188   21.9175 C   0  0  0  0  0  0
  -23.6294   -8.2230   22.0751 C   0  0  0  0  0  0
  -22.4276   -8.0274   21.3541 C   0  0  0  0  0  0
  -21.9913   -9.0248   20.4642 C   0  0  0  0  0  0
  -22.7252  -10.2118   20.3040 C   0  0  0  0  0  0
  -21.6853   -6.0723   22.5282 C   0  0  0  0  0  0
  -21.4014   -6.5627   23.8215 C   0  0  0  0  0  0
  -21.3662   -5.6782   24.9176 C   0  0  0  0  0  0
  -21.6054   -4.3046   24.7230 C   0  0  0  0  0  0
  -21.8819   -3.8135   23.4351 C   0  0  0  0  0  0
  -21.9187   -4.6948   22.3404 C   0  0  0  0  0  0
  -22.7807  -13.5185   21.1848 C   0  0  0  0  0  0
  -22.1663   -4.2130   21.0981 F   0  0  0  0  0  0
  -21.5625   -3.4533   25.7746 F   0  0  0  0  0  0
  -29.9723  -13.6292   20.4040 N   0  0  0  0  0  0
  -26.2940  -12.9416   20.3276 N   0  0  0  0  0  0
  -25.9349  -11.6541   20.5732 N   0  0  0  0  0  0
  -22.0457  -12.8192   22.0422 N   0  0  0  0  0  0
  -25.4083  -15.1911   20.4200 N   0  0  0  0  0  0
  -31.7121  -15.0399   20.1223 O   0  0  0  0  0  0
  -21.6637   -6.8871   21.4248 O   0  0  0  0  0  0
  -22.3485  -14.5484   20.6690 O   0  0  0  0  0  0
  -24.6420  -31.8467   23.1889 C   0  0  0  0  0  0
  -25.9201  -32.4711   23.8283 C   0  0  1  0  0  0
  -27.2252  -27.1589   20.1449 C   0  0  0  0  0  0
  -25.5952  -33.8514   24.2206 N   0  0  0  0  0  0
  -23.4443  -30.4657   21.5359 C   0  0  2  0  0  0
  -24.8942  -28.8964   20.1137 C   0  0  0  0  0  0
  -22.7566  -29.4557   22.4877 C   0  0  0  0  0  0
  -18.0302  -28.1402   22.8478 C   0  0  0  0  0  0
  -24.1494  -36.7260   23.2639 C   0  0  0  0  0  0
  -25.9996  -30.7284   21.3837 C   0  0  0  0  0  0
  -26.0727  -29.3411   20.7264 C   0  0  0  0  0  0
  -27.2395  -28.4897   20.7230 C   0  0  0  0  0  0
  -26.0168  -26.8115   19.4986 C   0  0  0  0  0  0
  -24.8787  -27.6437   19.4851 C   0  0  0  0  0  0
  -23.6690  -29.7949   20.1553 C   0  0  0  0  0  0
  -25.4126  -36.3041   24.0316 C   0  0  1  0  0  0
  -20.5919  -28.3723   23.1251 C   0  0  2  0  0  0
  -20.6796  -26.9429   22.5409 C   0  0  0  0  0  0
  -19.5765  -26.6388   21.5222 C   0  0  0  0  0  0
  -18.1944  -26.7938   22.1626 C   0  0  0  0  0  0
  -19.1561  -28.8884   23.2856 C   0  0  0  0  0  0
  -18.9472  -30.1478   23.8880 C   0  0  0  0  0  0
  -17.6469  -30.6599   24.0563 C   0  0  0  0  0  0
  -25.9075  -34.9415   23.5076 C   0  0  0  0  0  0
  -16.5358  -29.9092   23.6334 C   0  0  0  0  0  0
  -16.7286  -28.6512   23.0354 C   0  0  0  0  0  0
  -26.4518  -31.6560   25.0710 C   0  0  0  0  0  0
  -25.3700  -31.3757   26.1403 C   0  0  0  0  0  0
  -27.0366  -30.2953   24.6269 C   0  0  0  0  0  0
  -27.6061  -32.4305   25.7496 C   0  0  0  0  0  0
  -27.5583  -37.1786   24.8466 C   0  0  0  0  0  0
  -21.4258  -29.3048   22.3625 N   0  0  0  0  0  0
  -26.4295  -37.3751   23.9406 N   0  0  0  0  0  0
  -24.7156  -31.0342   22.0914 N   0  0  0  0  0  0
  -23.4212  -28.8108   23.3027 O   0  0  0  0  0  0
  -28.2954  -26.1957   20.1896 O   0  0  0  0  0  0
  -26.5664  -34.8907   22.4652 O   0  0  0  0  0  0
  -23.5548  -32.1335   23.7119 O   0  0  0  0  0  0
  -30.2742  -19.9686   20.2523 C   0  0  0  0  0  0
  -30.5500  -18.5255   20.2521 C   0  0  0  0  0  0
  -28.0535  -19.5295   20.8962 C   0  0  0  0  0  0
  -29.0008  -20.5592   20.5894 C   0  0  0  0  0  0
  -29.5769  -17.5156   20.5900 C   0  0  0  0  0  0
  -28.3167  -18.1119   20.8990 C   0  0  0  0  0  0
  -29.5485  -23.1692   22.6434 C   0  0  0  0  0  0
  -30.1504  -23.7066   21.3417 C   0  0  0  0  0  0
  -28.4173  -22.2227   22.2055 C   0  0  0  0  0  0
  -29.0895  -23.3817   20.2953 C   0  0  2  0  0  0
  -28.0053  -24.6723   20.2267 C   0  0  0  0  0  0
  -28.6015  -21.9869   20.7721 N   0  0  0  0  0  0
  -29.6524  -15.9903   20.6707 N   0  0  0  0  0  0
  -27.3022  -17.2780   21.2291 F   0  0  0  0  0  0
  -31.4890  -12.7201   19.1854 H   0  0  0  0  0  0
  -30.4478  -11.5908   20.0031 H   0  0  0  0  0  0
  -29.8403  -11.7435   17.5673 H   0  0  0  0  0  0
  -29.6291  -13.4693   17.7049 H   0  0  0  0  0  0
  -27.9401  -11.2819   18.9560 H   0  0  0  0  0  0
  -27.3999  -12.4810   17.8106 H   0  0  0  0  0  0
  -27.6166  -14.2549   19.4443 H   0  0  0  0  0  0
  -28.7579  -12.2203   21.4236 H   0  0  0  0  0  0
  -28.3904  -13.8847   21.7943 H   0  0  0  0  0  0
  -25.2768   -9.5666   22.4752 H   0  0  0  0  0  0
  -23.9993   -7.4625   22.7480 H   0  0  0  0  0  0
  -21.0830   -8.8775   19.8958 H   0  0  0  0  0  0
  -22.3714  -10.9654   19.6144 H   0  0  0  0  0  0
  -21.2014   -7.6133   23.9718 H   0  0  0  0  0  0
  -21.1487   -6.0506   25.9079 H   0  0  0  0  0  0
  -22.0594   -2.7593   23.2857 H   0  0  0  0  0  0
  -22.4064  -11.9871   22.4847 H   0  0  0  0  0  0
  -21.1076  -13.1224   22.2614 H   0  0  0  0  0  0
  -24.6438  -15.8343   20.5889 H   0  0  0  0  0  0
  -26.2803  -15.6708   20.2354 H   0  0  0  0  0  0
  -26.7264  -32.5327   23.1012 H   0  0  0  0  0  0
  -25.0049  -33.9632   25.0320 H   0  0  0  0  0  0
  -22.7464  -31.2912   21.3838 H   0  0  0  0  0  0
  -23.3762  -35.9587   23.3291 H   0  0  0  0  0  0
  -24.3576  -36.8898   22.2054 H   0  0  0  0  0  0
  -23.7241  -37.6450   23.6683 H   0  0  0  0  0  0
  -26.1536  -31.4845   20.6122 H   0  0  0  0  0  0
  -26.8705  -30.7785   22.0258 H   0  0  0  0  0  0
  -28.1398  -28.8306   21.2144 H   0  0  0  0  0  0
  -25.9143  -25.8622   18.9973 H   0  0  0  0  0  0
  -23.9805  -27.2990   18.9913 H   0  0  0  0  0  0
  -23.8018  -30.5700   19.3995 H   0  0  0  0  0  0
  -22.7843  -29.2352   19.8463 H   0  0  0  0  0  0
  -25.1315  -36.1873   25.0810 H   0  0  0  0  0  0
  -21.0010  -28.3313   24.1373 H   0  0  0  0  0  0
  -20.5719  -26.2330   23.3620 H   0  0  0  0  0  0
  -21.6657  -26.7457   22.1190 H   0  0  0  0  0  0
  -19.6926  -25.6299   21.1259 H   0  0  0  0  0  0
  -19.6701  -27.3196   20.6751 H   0  0  0  0  0  0
  -17.4215  -26.6682   21.4029 H   0  0  0  0  0  0
  -18.0337  -26.0093   22.9035 H   0  0  0  0  0  0
  -19.7945  -30.7301   24.2238 H   0  0  0  0  0  0
  -17.5019  -31.6275   24.5174 H   0  0  0  0  0  0
  -15.5358  -30.2990   23.7673 H   0  0  0  0  0  0
  -15.8684  -28.0830   22.7078 H   0  0  0  0  0  0
  -24.5878  -30.7111   25.7720 H   0  0  0  0  0  0
  -24.8886  -32.2942   26.4776 H   0  0  0  0  0  0
  -25.7972  -30.8957   27.0216 H   0  0  0  0  0  0
  -26.2974  -29.6688   24.1263 H   0  0  0  0  0  0
  -27.3968  -29.7244   25.4839 H   0  0  0  0  0  0
  -27.8895  -30.4192   23.9590 H   0  0  0  0  0  0
  -27.2670  -33.3622   26.2041 H   0  0  0  0  0  0
  -28.3895  -32.6830   25.0338 H   0  0  0  0  0  0
  -28.0702  -31.8439   26.5436 H   0  0  0  0  0  0
  -28.2593  -38.0092   24.7515 H   0  0  0  0  0  0
  -28.1083  -36.2617   24.6292 H   0  0  0  0  0  0
  -27.2295  -37.1438   25.8867 H   0  0  0  0  0  0
  -20.9476  -29.8738   21.6779 H   0  0  0  0  0  0
  -26.0161  -38.2821   24.1402 H   0  0  0  0  0  0
  -31.0926  -20.6354   20.0184 H   0  0  0  0  0  0
  -31.5490  -18.2015   19.9970 H   0  0  0  0  0  0
  -27.0557  -19.8328   21.1750 H   0  0  0  0  0  0
  -29.1556  -23.9749   23.2655 H   0  0  0  0  0  0
  -30.3084  -22.6459   23.2264 H   0  0  0  0  0  0
  -31.0695  -23.1659   21.1109 H   0  0  0  0  0  0
  -30.3995  -24.7672   21.3882 H   0  0  0  0  0  0
  -27.4426  -22.6858   22.3689 H   0  0  0  0  0  0
  -28.4303  -21.3161   22.8132 H   0  0  0  0  0  0
  -29.5695  -23.2849   19.3201 H   0  0  0  0  0  0
  -27.3272  -24.5614   21.0724 H   0  0  0  0  0  0
  -27.3984  -24.4423   19.3538 H   0  0  0  0  0  0
  -28.7488  -15.6240   20.9289 H   0  0  0  0  0  0
  1 25  1  0  0  0
  1 30  2  0  0  0
  1 83  1  0  0  0
  2  3  1  0  0  0
  2 25  1  0  0  0
  2 85  1  0  0  0
  2 86  1  0  0  0
  3  4  1  0  0  0
  3 87  1  0  0  0
  3 88  1  0  0  0
  4  5  1  0  0  0
  4 89  1  0  0  0
  4 90  1  0  0  0
  5  6  1  0  0  0
  5 26  1  0  0  0
  5 91  1  0  0  0
  6 25  1  0  0  0
  6 92  1  0  0  0
  6 93  1  0  0  0
  7  8  2  0  0  0
  7 26  1  0  0  0
  7 29  1  0  0  0
  8  9  1  0  0  0
  8 22  1  0  0  0
  9 10  1  0  0  0
  9 27  2  0  0  0
 10 11  2  0  0  0
 10 15  1  0  0  0
 11 12  1  0  0  0
 11 94  1  0  0  0
 12 13  2  0  0  0
 12 95  1  0  0  0
 13 14  1  0  0  0
 13 31  1  0  0  0
 14 15  2  0  0  0
 14 96  1  0  0  0
 15 97  1  0  0  0
 16 17  2  0  0  0
 16 21  1  0  0  0
 16 31  1  0  0  0
 17 18  1  0  0  0
 17 98  1  0  0  0
 18 19  2  0  0  0
 18 99  1  0  0  0
 19 20  1  0  0  0
 19 24  1  0  0  0
 20 21  2  0  0  0
 20100  1  0  0  0
 21 23  1  0  0  0
 22 28  1  0  0  0
 22 32  2  0  0  0
 26 27  1  0  0  0
 28101  1  0  0  0
 28102  1  0  0  0
 29103  1  0  0  0
 29104  1  0  0  0
 33 34  1  0  0  0
 33 66  1  0  0  0
 33 70  2  0  0  0
 34 36  1  0  0  0
 34 59  1  0  0  0
 34105  1  0  0  0
 35 44  2  0  0  0
 35 45  1  0  0  0
 35 68  1  0  0  0
 36 56  1  0  0  0
 36106  1  0  0  0
 37 39  1  0  0  0
 37 47  1  0  0  0
 37 66  1  0  0  0
 37107  1  0  0  0
 38 43  2  0  0  0
 38 46  1  0  0  0
 38 47  1  0  0  0
 39 64  1  0  0  0
 39 67  2  0  0  0
 40 52  1  0  0  0
 40 53  2  0  0  0
 40 58  1  0  0  0
 41108  1  0  0  0
 41109  1  0  0  0
 41110  1  0  0  0
 41 48  1  0  0  0
 42 43  1  0  0  0
 42 66  1  0  0  0
 42111  1  0  0  0
 42112  1  0  0  0
 43 44  1  0  0  0
 44113  1  0  0  0
 45 46  2  0  0  0
 45114  1  0  0  0
 46115  1  0  0  0
 47116  1  0  0  0
 47117  1  0  0  0
 48 56  1  0  0  0
 48 65  1  0  0  0
 48118  1  0  0  0
 49 50  1  0  0  0
 49 53  1  0  0  0
 49 64  1  0  0  0
 49119  1  0  0  0
 50 51  1  0  0  0
 50120  1  0  0  0
 50121  1  0  0  0
 51 52  1  0  0  0
 51122  1  0  0  0
 51123  1  0  0  0
 52124  1  0  0  0
 52125  1  0  0  0
 53 54  1  0  0  0
 54 55  2  0  0  0
 54126  1  0  0  0
 55 57  1  0  0  0
 55127  1  0  0  0
 56 69  2  0  0  0
 57 58  2  0  0  0
 57128  1  0  0  0
 58129  1  0  0  0
 59 60  1  0  0  0
 59 61  1  0  0  0
 59 62  1  0  0  0
 60130  1  0  0  0
 60131  1  0  0  0
 60132  1  0  0  0
 61133  1  0  0  0
 61134  1  0  0  0
 61135  1  0  0  0
 62136  1  0  0  0
 62137  1  0  0  0
 62138  1  0  0  0
 63 65  1  0  0  0
 63139  1  0  0  0
 63140  1  0  0  0
 63141  1  0  0  0
 64142  1  0  0  0
 65143  1  0  0  0
 68 81  1  0  0  0
 71 72  2  0  0  0
 71 74  1  0  0  0
 71144  1  0  0  0
 72 75  1  0  0  0
 72145  1  0  0  0
 73 74  2  0  0  0
 73 76  1  0  0  0
 73146  1  0  0  0
 74 82  1  0  0  0
 75 76  2  0  0  0
 75 83  1  0  0  0
 76 84  1  0  0  0
 77 78  1  0  0  0
 77 79  1  0  0  0
 77147  1  0  0  0
 77148  1  0  0  0
 78 80  1  0  0  0
 78149  1  0  0  0
 78150  1  0  0  0
 79 82  1  0  0  0
 79151  1  0  0  0
 79152  1  0  0  0
 80 81  1  0  0  0
 80 82  1  0  0  0
 80153  1  0  0  0
 81154  1  0  0  0
 81155  1  0  0  0
 83156  1  0  0  0
M  ISO  4   1 100  68 101  81 101  83 100
M  END
> <chiral flag>
0

> <version>
0

> <s_m_source_file>
/data/baiqing/PycharmProjects/Reinvent-master-3.2/result/LINK_invent/BTK/process_docking_weight1_custom_product_contain_oxygen_bond_distance_aromatic_linkinvent_7_9_3/rearranged_h_0020.sdf

> <i_m_source_file_index>
23

> <r_mmod_Potential_Energy-OPLS-2005>
509.684173583984

> <r_mmod_Stretch_Energy-OPLS-2005>
211.421813964844

> <r_mmod_Bend_Energy-OPLS-2005>
325.570037841797

> <r_mmod_Torsional_Energy-OPLS-2005>
289.885955810547

> <r_mmod_Improper_Torsional_Energy-OPLS-2005>
8.84271812438965

> <r_mmod_Van_der_Waal_Energy-OPLS-2005>
132.407669067383

> <r_mmod_Electrostatic_Energy-OPLS-2005>
-410.414001464844

> <r_mmod_Solvation_Energy-OPLS-2005>
-213.918563842773

> <b_mmod_Minimization_Converged-OPLS-2005>
0

> <r_mmod_RMS_Derivative-OPLS-2005>
1.52198851108551

$$$$
23
                    3D
 Structure written by MMmdl.
162171  0  0  1  0            999 V2000
  -30.6717  -14.6303   20.5169 C   0  0  0  0  0  0
  -30.4209  -12.3884   19.4585 C   0  0  0  0  0  0
  -29.4993  -12.4998   18.2245 C   0  0  0  0  0  0
  -28.0233  -12.3375   18.6360 C   0  0  0  0  0  0
  -27.6494  -13.2164   19.8592 C   0  0  2  0  0  0
  -28.6915  -13.0764   20.9890 C   0  0  0  0  0  0
  -25.2557  -13.8176   20.5675 C   0  0  0  0  0  0
  -24.1822  -13.0443   20.9180 C   0  0  0  0  0  0
  -24.6383  -11.6902   20.8739 C   0  0  0  0  0  0
  -23.9062  -10.4297   21.0395 C   0  0  0  0  0  0
  -24.3619   -9.4203   21.9173 C   0  0  0  0  0  0
  -23.6294   -8.2240   22.0751 C   0  0  0  0  0  0
  -22.4278   -8.0284   21.3542 C   0  0  0  0  0  0
  -21.9906   -9.0242   20.4636 C   0  0  0  0  0  0
  -22.7234  -10.2127   20.3036 C   0  0  0  0  0  0
  -21.6859   -6.0722   22.5278 C   0  0  0  0  0  0
  -21.4013   -6.5627   23.8203 C   0  0  0  0  0  0
  -21.3657   -5.6788   24.9167 C   0  0  0  0  0  0
  -21.6051   -4.3044   24.7233 C   0  0  0  0  0  0
  -21.8824   -3.8129   23.4349 C   0  0  0  0  0  0
  -21.9195   -4.6950   22.3402 C   0  0  0  0  0  0
  -22.7844  -13.5237   21.1834 C   0  0  0  0  0  0
  -22.1666   -4.2128   21.0987 F   0  0  0  0  0  0
  -21.5633   -3.4533   25.7739 F   0  0  0  0  0  0
  -30.0044  -13.4309   20.4252 N   0  0  0  0  0  0
  -26.2964  -12.9352   20.3310 N   0  0  0  0  0  0
  -25.9321  -11.6501   20.5751 N   0  0  0  0  0  0
  -22.0503  -12.8206   22.0393 N   0  0  0  0  0  0
  -25.4283  -15.1895   20.4096 N   0  0  0  0  0  0
  -31.8230  -14.7236   20.0792 O   0  0  0  0  0  0
  -21.6657   -6.8869   21.4232 O   0  0  0  0  0  0
  -22.3518  -14.5525   20.6672 O   0  0  0  0  0  0
  -24.6226  -31.8592   23.2030 C   0  0  0  0  0  0
  -25.9086  -32.4776   23.8360 C   0  0  1  0  0  0
  -27.2182  -27.3205   20.1374 C   0  0  0  0  0  0
  -25.5928  -33.8582   24.2267 N   0  0  0  0  0  0
  -23.4169  -30.4823   21.5460 C   0  0  2  0  0  0
  -24.8649  -28.9332   20.1125 C   0  0  0  0  0  0
  -22.7465  -29.4599   22.4944 C   0  0  0  0  0  0
  -18.0275  -28.1380   22.8500 C   0  0  0  0  0  0
  -24.1476  -36.7264   23.2634 C   0  0  0  0  0  0
  -25.9554  -30.7940   21.3712 C   0  0  0  0  0  0
  -26.0334  -29.4204   20.7135 C   0  0  0  0  0  0
  -27.2173  -28.6274   20.7108 C   0  0  0  0  0  0
  -26.0294  -26.8693   19.5298 C   0  0  0  0  0  0
  -24.8636  -27.6618   19.5131 C   0  0  0  0  0  0
  -23.6337  -29.8171   20.1599 C   0  0  0  0  0  0
  -25.4109  -36.3072   24.0330 C   0  0  1  0  0  0
  -20.5885  -28.3659   23.1306 C   0  0  2  0  0  0
  -20.6779  -26.9391   22.5430 C   0  0  0  0  0  0
  -19.5760  -26.6368   21.5231 C   0  0  0  0  0  0
  -18.1926  -26.7937   22.1616 C   0  0  0  0  0  0
  -19.1536  -28.8840   23.2900 C   0  0  0  0  0  0
  -18.9465  -30.1450   23.8893 C   0  0  0  0  0  0
  -17.6462  -30.6602   24.0575 C   0  0  0  0  0  0
  -25.9050  -34.9455   23.5083 C   0  0  0  0  0  0
  -16.5350  -29.9112   23.6350 C   0  0  0  0  0  0
  -16.7268  -28.6522   23.0357 C   0  0  0  0  0  0
  -26.4504  -31.6604   25.0727 C   0  0  0  0  0  0
  -25.3735  -31.3811   26.1463 C   0  0  0  0  0  0
  -27.0335  -30.3020   24.6175 C   0  0  0  0  0  0
  -27.6026  -32.4378   25.7518 C   0  0  0  0  0  0
  -27.5584  -37.1784   24.8456 C   0  0  0  0  0  0
  -21.4180  -29.3007   22.3690 N   0  0  0  0  0  0
  -26.4269  -37.3774   23.9439 N   0  0  0  0  0  0
  -24.6845  -31.0605   22.0987 N   0  0  0  0  0  0
  -23.4209  -28.8139   23.3016 O   0  0  0  0  0  0
  -28.3341  -26.4838   20.1386 O   0  0  0  0  0  0
  -26.5607  -34.8914   22.4644 O   0  0  0  0  0  0
  -23.5400  -32.1410   23.7365 O   0  0  0  0  0  0
  -28.5841  -19.1650   19.8136 C   0  0  0  0  0  0
  -28.4229  -20.5810   19.9460 C   0  0  0  0  0  0
  -30.6483  -19.2733   21.0318 C   0  0  0  0  0  0
  -29.7287  -18.4795   20.3079 C   0  0  0  0  0  0
  -29.3930  -21.3961   20.5942 C   0  0  0  0  0  0
  -30.4767  -20.6772   21.1906 C   0  0  0  0  0  0
  -30.1771  -23.7899   18.5702 C   0  0  0  0  0  0
  -28.6509  -23.9176   18.6263 C   0  0  0  0  0  0
  -30.5921  -23.3834   19.9889 C   0  0  0  0  0  0
  -28.3170  -23.7657   20.1100 C   0  0  2  0  0  0
  -29.4059  -16.0321   22.1097 C   0  0  0  0  0  0
  -30.0754  -17.0021   19.8795 C   0  0  0  0  0  0
  -28.2345  -25.1918   20.8548 C   0  0  0  0  0  0
  -29.3847  -22.8453   20.6160 N   0  0  0  0  0  0
  -29.9488  -15.7852   20.7706 N   0  0  0  0  0  0
  -31.4198  -21.3529   21.8937 F   0  0  0  0  0  0
  -31.4651  -12.4853   19.1551 H   0  0  0  0  0  0
  -30.3391  -11.3981   19.9093 H   0  0  0  0  0  0
  -29.7637  -11.7432   17.4840 H   0  0  0  0  0  0
  -29.6420  -13.4665   17.7397 H   0  0  0  0  0  0
  -27.8634  -11.2853   18.8748 H   0  0  0  0  0  0
  -27.3670  -12.5581   17.7939 H   0  0  0  0  0  0
  -27.6674  -14.2507   19.5155 H   0  0  0  0  0  0
  -28.7095  -12.0554   21.3726 H   0  0  0  0  0  0
  -28.4172  -13.6937   21.8397 H   0  0  0  0  0  0
  -25.2766   -9.5679   22.4729 H   0  0  0  0  0  0
  -23.9999   -7.4635   22.7464 H   0  0  0  0  0  0
  -21.0848   -8.8757   19.8943 H   0  0  0  0  0  0
  -22.3699  -10.9651   19.6135 H   0  0  0  0  0  0
  -21.2004   -7.6137   23.9697 H   0  0  0  0  0  0
  -21.1477   -6.0520   25.9068 H   0  0  0  0  0  0
  -22.0605   -2.7596   23.2863 H   0  0  0  0  0  0
  -22.4160  -11.9879   22.4753 H   0  0  0  0  0  0
  -21.1096  -13.1177   22.2570 H   0  0  0  0  0  0
  -24.6667  -15.8486   20.5217 H   0  0  0  0  0  0
  -26.2914  -15.6267   20.1101 H   0  0  0  0  0  0
  -26.7140  -32.5426   23.1102 H   0  0  0  0  0  0
  -25.0147  -33.9780   25.0464 H   0  0  0  0  0  0
  -22.7087  -31.3025   21.4055 H   0  0  0  0  0  0
  -23.3753  -35.9576   23.3286 H   0  0  0  0  0  0
  -24.3579  -36.8902   22.2045 H   0  0  0  0  0  0
  -23.7219  -37.6458   23.6671 H   0  0  0  0  0  0
  -26.0840  -31.5621   20.6088 H   0  0  0  0  0  0
  -26.8354  -30.8422   22.0016 H   0  0  0  0  0  0
  -28.1217  -28.9963   21.1770 H   0  0  0  0  0  0
  -25.9986  -25.8861   19.0800 H   0  0  0  0  0  0
  -23.9618  -27.2806   19.0553 H   0  0  0  0  0  0
  -23.7510  -30.5986   19.4077 H   0  0  0  0  0  0
  -22.7528  -29.2487   19.8556 H   0  0  0  0  0  0
  -25.1298  -36.1901   25.0825 H   0  0  0  0  0  0
  -20.9972  -28.3194   24.1431 H   0  0  0  0  0  0
  -20.5684  -26.2258   23.3619 H   0  0  0  0  0  0
  -21.6648  -26.7461   22.1201 H   0  0  0  0  0  0
  -19.6953  -25.6286   21.1251 H   0  0  0  0  0  0
  -19.6718  -27.3183   20.6772 H   0  0  0  0  0  0
  -17.4225  -26.6701   21.3976 H   0  0  0  0  0  0
  -18.0290  -26.0088   22.9003 H   0  0  0  0  0  0
  -19.7941  -30.7284   24.2218 H   0  0  0  0  0  0
  -17.5036  -31.6282   24.5183 H   0  0  0  0  0  0
  -15.5352  -30.3021   23.7704 H   0  0  0  0  0  0
  -15.8659  -28.0879   22.7050 H   0  0  0  0  0  0
  -24.5860  -30.7226   25.7811 H   0  0  0  0  0  0
  -24.8986  -32.3012   26.4847 H   0  0  0  0  0  0
  -25.8021  -30.9006   27.0261 H   0  0  0  0  0  0
  -26.2916  -29.6793   24.1153 H   0  0  0  0  0  0
  -27.4008  -29.7262   25.4681 H   0  0  0  0  0  0
  -27.8804  -30.4325   23.9435 H   0  0  0  0  0  0
  -27.2587  -33.3680   26.2062 H   0  0  0  0  0  0
  -28.3845  -32.6955   25.0362 H   0  0  0  0  0  0
  -28.0684  -31.8542   26.5472 H   0  0  0  0  0  0
  -28.2539  -38.0133   24.7557 H   0  0  0  0  0  0
  -28.1122  -36.2669   24.6177 H   0  0  0  0  0  0
  -27.2323  -37.1306   25.8856 H   0  0  0  0  0  0
  -20.9317  -29.8746   21.6948 H   0  0  0  0  0  0
  -26.0130  -38.2826   24.1501 H   0  0  0  0  0  0
  -27.8416  -18.6117   19.2547 H   0  0  0  0  0  0
  -27.5610  -21.0392   19.4839 H   0  0  0  0  0  0
  -31.5474  -18.8207   21.4221 H   0  0  0  0  0  0
  -30.6522  -24.7258   18.2762 H   0  0  0  0  0  0
  -30.4663  -23.0272   17.8457 H   0  0  0  0  0  0
  -28.1957  -23.1074   18.0554 H   0  0  0  0  0  0
  -28.2837  -24.8498   18.1992 H   0  0  0  0  0  0
  -30.9354  -24.2494   20.5586 H   0  0  0  0  0  0
  -31.4387  -22.6961   19.9465 H   0  0  0  0  0  0
  -27.3414  -23.2848   20.2078 H   0  0  0  0  0  0
  -28.3190  -15.9545   22.0940 H   0  0  0  0  0  0
  -29.6692  -17.0178   22.4914 H   0  0  0  0  0  0
  -29.7877  -15.3127   22.8372 H   0  0  0  0  0  0
  -31.1035  -17.0537   19.5179 H   0  0  0  0  0  0
  -29.4909  -16.7855   18.9850 H   0  0  0  0  0  0
  -29.0283  -25.2308   21.6016 H   0  0  0  0  0  0
  -27.3239  -25.1957   21.4554 H   0  0  0  0  0  0
  1 25  1  0  0  0
  1 30  2  0  0  0
  1 85  1  0  0  0
  2  3  1  0  0  0
  2 25  1  0  0  0
  2 87  1  0  0  0
  2 88  1  0  0  0
  3  4  1  0  0  0
  3 89  1  0  0  0
  3 90  1  0  0  0
  4  5  1  0  0  0
  4 91  1  0  0  0
  4 92  1  0  0  0
  5  6  1  0  0  0
  5 26  1  0  0  0
  5 93  1  0  0  0
  6 25  1  0  0  0
  6 94  1  0  0  0
  6 95  1  0  0  0
  7  8  2  0  0  0
  7 26  1  0  0  0
  7 29  1  0  0  0
  8  9  1  0  0  0
  8 22  1  0  0  0
  9 10  1  0  0  0
  9 27  2  0  0  0
 10 11  2  0  0  0
 10 15  1  0  0  0
 11 12  1  0  0  0
 11 96  1  0  0  0
 12 13  2  0  0  0
 12 97  1  0  0  0
 13 14  1  0  0  0
 13 31  1  0  0  0
 14 15  2  0  0  0
 14 98  1  0  0  0
 15 99  1  0  0  0
 16 17  2  0  0  0
 16 21  1  0  0  0
 16 31  1  0  0  0
 17 18  1  0  0  0
 17100  1  0  0  0
 18 19  2  0  0  0
 18101  1  0  0  0
 19 20  1  0  0  0
 19 24  1  0  0  0
 20 21  2  0  0  0
 20102  1  0  0  0
 21 23  1  0  0  0
 22 28  1  0  0  0
 22 32  2  0  0  0
 26 27  1  0  0  0
 28103  1  0  0  0
 28104  1  0  0  0
 29105  1  0  0  0
 29106  1  0  0  0
 33 34  1  0  0  0
 33 66  1  0  0  0
 33 70  2  0  0  0
 34 36  1  0  0  0
 34 59  1  0  0  0
 34107  1  0  0  0
 35 44  2  0  0  0
 35 45  1  0  0  0
 35 68  1  0  0  0
 36 56  1  0  0  0
 36108  1  0  0  0
 37 39  1  0  0  0
 37 47  1  0  0  0
 37 66  1  0  0  0
 37109  1  0  0  0
 38 43  2  0  0  0
 38 46  1  0  0  0
 38 47  1  0  0  0
 39 64  1  0  0  0
 39 67  2  0  0  0
 40 52  1  0  0  0
 40 53  2  0  0  0
 40 58  1  0  0  0
 41110  1  0  0  0
 41111  1  0  0  0
 41112  1  0  0  0
 41 48  1  0  0  0
 42 43  1  0  0  0
 42 66  1  0  0  0
 42113  1  0  0  0
 42114  1  0  0  0
 43 44  1  0  0  0
 44115  1  0  0  0
 45 46  2  0  0  0
 45116  1  0  0  0
 46117  1  0  0  0
 47118  1  0  0  0
 47119  1  0  0  0
 48 56  1  0  0  0
 48 65  1  0  0  0
 48120  1  0  0  0
 49 50  1  0  0  0
 49 53  1  0  0  0
 49 64  1  0  0  0
 49121  1  0  0  0
 50 51  1  0  0  0
 50122  1  0  0  0
 50123  1  0  0  0
 51 52  1  0  0  0
 51124  1  0  0  0
 51125  1  0  0  0
 52126  1  0  0  0
 52127  1  0  0  0
 53 54  1  0  0  0
 54 55  2  0  0  0
 54128  1  0  0  0
 55 57  1  0  0  0
 55129  1  0  0  0
 56 69  2  0  0  0
 57 58  2  0  0  0
 57130  1  0  0  0
 58131  1  0  0  0
 59 60  1  0  0  0
 59 61  1  0  0  0
 59 62  1  0  0  0
 60132  1  0  0  0
 60133  1  0  0  0
 60134  1  0  0  0
 61135  1  0  0  0
 61136  1  0  0  0
 61137  1  0  0  0
 62138  1  0  0  0
 62139  1  0  0  0
 62140  1  0  0  0
 63 65  1  0  0  0
 63141  1  0  0  0
 63142  1  0  0  0
 63143  1  0  0  0
 64144  1  0  0  0
 65145  1  0  0  0
 68 83  1  0  0  0
 71 72  2  0  0  0
 71 74  1  0  0  0
 71146  1  0  0  0
 72 75  1  0  0  0
 72147  1  0  0  0
 73 74  2  0  0  0
 73 76  1  0  0  0
 73148  1  0  0  0
 74 82  1  0  0  0
 75 76  2  0  0  0
 75 84  1  0  0  0
 76 86  1  0  0  0
 77 78  1  0  0  0
 77 79  1  0  0  0
 77149  1  0  0  0
 77150  1  0  0  0
 78 80  1  0  0  0
 78151  1  0  0  0
 78152  1  0  0  0
 79 84  1  0  0  0
 79153  1  0  0  0
 79154  1  0  0  0
 80 83  1  0  0  0
 80 84  1  0  0  0
 80155  1  0  0  0
 81 85  1  0  0  0
 81156  1  0  0  0
 81157  1  0  0  0
 81158  1  0  0  0
 82 85  1  0  0  0
 82159  1  0  0  0
 82160  1  0  0  0
 83161  1  0  0  0
 83162  1  0  0  0
M  ISO  4   1 100  68 101  83 101  85 100
M  END
> <chiral flag>
0

> <version>
0

> <s_m_source_file>
/data/baiqing/PycharmProjects/Reinvent-master-3.2/result/LINK_invent/BTK/process_docking_weight1_custom_product_contain_oxygen_bond_distance_aromatic_linkinvent_7_9_3/rearranged_h_0020.sdf

> <i_m_source_file_index>
24

> <r_mmod_Potential_Energy-OPLS-2005>
388.730621337891

> <r_mmod_Stretch_Energy-OPLS-2005>
86.7074203491211

> <r_mmod_Bend_Energy-OPLS-2005>
191.581405639648

> <r_mmod_Torsional_Energy-OPLS-2005>
379.943084716797

> <r_mmod_Improper_Torsional_Energy-OPLS-2005>
16.6393184661865

> <r_mmod_Van_der_Waal_Energy-OPLS-2005>
145.221664428711

> <r_mmod_Electrostatic_Energy-OPLS-2005>
-271.975769042969

> <r_mmod_Solvation_Energy-OPLS-2005>
-204.038726806641

> <b_mmod_Minimization_Converged-OPLS-2005>
0

> <r_mmod_RMS_Derivative-OPLS-2005>
3.67156362533569

$$$$
24
                    3D
 Structure written by MMmdl.
166175  0  0  1  0            999 V2000
  -30.7133  -14.5894   20.3950 C   0  0  0  0  0  0
  -30.4178  -12.3223   19.4574 C   0  0  0  0  0  0
  -29.4924  -12.3434   18.2220 C   0  0  0  0  0  0
  -28.0092  -12.2425   18.6492 C   0  0  0  0  0  0
  -27.6279  -13.1454   19.8541 C   0  0  2  0  0  0
  -28.7028  -13.1466   20.9706 C   0  0  0  0  0  0
  -25.2576  -13.7971   20.5803 C   0  0  0  0  0  0
  -24.1768  -13.0347   20.9254 C   0  0  0  0  0  0
  -24.6261  -11.6806   20.8867 C   0  0  0  0  0  0
  -23.8909  -10.4255   21.0490 C   0  0  0  0  0  0
  -24.3526   -9.4184   21.9222 C   0  0  0  0  0  0
  -23.6272   -8.2184   22.0744 C   0  0  0  0  0  0
  -22.4263   -8.0214   21.3524 C   0  0  0  0  0  0
  -21.9861   -9.0173   20.4628 C   0  0  0  0  0  0
  -22.7121  -10.2093   20.3099 C   0  0  0  0  0  0
  -21.6813   -6.0744   22.5316 C   0  0  0  0  0  0
  -21.3985   -6.5660   23.8248 C   0  0  0  0  0  0
  -21.3628   -5.6814   24.9208 C   0  0  0  0  0  0
  -21.6026   -4.3069   24.7249 C   0  0  0  0  0  0
  -21.8815   -3.8171   23.4360 C   0  0  0  0  0  0
  -21.9182   -4.6992   22.3425 C   0  0  0  0  0  0
  -22.7805  -13.5211   21.1838 C   0  0  0  0  0  0
  -22.1650   -4.2199   21.0994 F   0  0  0  0  0  0
  -21.5635   -3.4532   25.7737 F   0  0  0  0  0  0
  -30.0105  -13.4160   20.3537 N   0  0  0  0  0  0
  -26.2900  -12.8947   20.3504 N   0  0  0  0  0  0
  -25.9163  -11.6208   20.5967 N   0  0  0  0  0  0
  -22.0410  -12.8227   22.0385 N   0  0  0  0  0  0
  -25.4358  -15.1683   20.4184 N   0  0  0  0  0  0
  -31.9314  -14.6244   20.2226 O   0  0  0  0  0  0
  -21.6601   -6.8850   21.4254 O   0  0  0  0  0  0
  -22.3529  -14.5516   20.6640 O   0  0  0  0  0  0
  -24.6122  -31.8674   23.2114 C   0  0  0  0  0  0
  -25.9025  -32.4830   23.8392 C   0  0  1  0  0  0
  -27.2248  -27.4378   20.0927 C   0  0  0  0  0  0
  -25.5902  -33.8623   24.2342 N   0  0  0  0  0  0
  -23.4002  -30.4909   21.5556 C   0  0  2  0  0  0
  -24.8395  -28.9571   20.1153 C   0  0  0  0  0  0
  -22.7372  -29.4653   22.5032 C   0  0  0  0  0  0
  -18.0234  -28.1368   22.8467 C   0  0  0  0  0  0
  -24.1498  -36.7317   23.2647 C   0  0  0  0  0  0
  -25.9265  -30.8328   21.3626 C   0  0  0  0  0  0
  -26.0002  -29.4707   20.7035 C   0  0  0  0  0  0
  -27.1951  -28.7204   20.6843 C   0  0  0  0  0  0
  -26.0478  -26.9406   19.4852 C   0  0  0  0  0  0
  -24.8574  -27.6913   19.5026 C   0  0  0  0  0  0
  -23.6042  -29.8251   20.1690 C   0  0  0  0  0  0
  -25.4118  -36.3126   24.0365 C   0  0  1  0  0  0
  -20.5838  -28.3674   23.1340 C   0  0  2  0  0  0
  -20.6752  -26.9421   22.5428 C   0  0  0  0  0  0
  -19.5745  -26.6378   21.5222 C   0  0  0  0  0  0
  -18.1912  -26.7903   22.1617 C   0  0  0  0  0  0
  -19.1486  -28.8822   23.2893 C   0  0  0  0  0  0
  -18.9437  -30.1421   23.8941 C   0  0  0  0  0  0
  -17.6460  -30.6601   24.0569 C   0  0  0  0  0  0
  -25.9051  -34.9491   23.5158 C   0  0  0  0  0  0
  -16.5343  -29.9132   23.6308 C   0  0  0  0  0  0
  -16.7232  -28.6529   23.0331 C   0  0  0  0  0  0
  -26.4433  -31.6597   25.0722 C   0  0  0  0  0  0
  -25.3708  -31.3707   26.1484 C   0  0  0  0  0  0
  -27.0237  -30.3039   24.6064 C   0  0  0  0  0  0
  -27.6037  -32.4269   25.7475 C   0  0  0  0  0  0
  -27.5595  -37.1801   24.8462 C   0  0  0  0  0  0
  -21.4101  -29.3054   22.3774 N   0  0  0  0  0  0
  -26.4306  -37.3814   23.9427 N   0  0  0  0  0  0
  -24.6652  -31.0766   22.1032 N   0  0  0  0  0  0
  -23.4136  -28.8177   23.3061 O   0  0  0  0  0  0
  -28.4066  -26.7292   20.1284 O   0  0  0  0  0  0
  -26.5608  -34.8948   22.4712 O   0  0  0  0  0  0
  -23.5319  -32.1427   23.7519 O   0  0  0  0  0  0
  -31.4755  -19.0501   21.4485 C   0  0  0  0  0  0
  -31.1772  -17.6554   21.4963 C   0  0  0  0  0  0
  -30.5360  -19.2245   19.2025 C   0  0  0  0  0  0
  -30.2523  -17.8562   19.2677 C   0  0  0  0  0  0
  -31.1391  -19.8402   20.3129 C   0  0  0  0  0  0
  -30.5355  -17.0674   20.3833 C   0  0  0  0  0  0
  -29.1275  -15.8632   19.0121 C   0  0  0  0  0  0
  -29.5543  -17.0885   18.2064 C   0  0  2  0  0  0
  -28.9615  -21.6571   20.7701 C   0  0  0  0  0  0
  -31.3971  -21.3504   20.2258 C   0  0  0  0  0  0
  -29.5422  -24.7188   20.8350 C   0  0  0  0  0  0
  -30.3865  -23.6012   20.1552 C   0  0  0  0  0  0
  -28.3736  -25.3009   19.9969 C   0  0  0  0  0  0
  -30.0064  -15.7459   20.1965 N   0  0  0  0  0  0
  -30.4566  -16.7341   17.1002 N   0  3  0  0  0  0
  -30.3298  -22.2432   20.7828 N   0  3  1  0  0  0
  -31.4657  -12.3912   19.1557 H   0  0  0  0  0  0
  -30.3195  -11.3672   19.9753 H   0  0  0  0  0  0
  -29.7305  -11.4958   17.5783 H   0  0  0  0  0  0
  -29.6850  -13.2063   17.5929 H   0  0  0  0  0  0
  -27.8288  -11.2006   18.9128 H   0  0  0  0  0  0
  -27.3576  -12.4471   17.7993 H   0  0  0  0  0  0
  -27.5276  -14.1182   19.4285 H   0  0  0  0  0  0
  -28.7299  -12.1876   21.4873 H   0  0  0  0  0  0
  -28.4731  -13.9009   21.7274 H   0  0  0  0  0  0
  -25.2645   -9.5701   22.4821 H   0  0  0  0  0  0
  -24.0018   -7.4541   22.7403 H   0  0  0  0  0  0
  -21.0819   -8.8631   19.8885 H   0  0  0  0  0  0
  -22.3519  -10.9655   19.6260 H   0  0  0  0  0  0
  -21.1969   -7.6174   23.9785 H   0  0  0  0  0  0
  -21.1453   -6.0535   25.9121 H   0  0  0  0  0  0
  -22.0632   -2.7644   23.2850 H   0  0  0  0  0  0
  -22.3981  -11.9833   22.4712 H   0  0  0  0  0  0
  -21.1044  -13.1295   22.2599 H   0  0  0  0  0  0
  -24.6688  -15.8290   20.5016 H   0  0  0  0  0  0
  -26.3045  -15.6048   20.1498 H   0  0  0  0  0  0
  -26.7072  -32.5537   23.1134 H   0  0  0  0  0  0
  -24.9997  -33.9768   25.0436 H   0  0  0  0  0  0
  -22.6942  -31.3107   21.4174 H   0  0  0  0  0  0
  -23.3780  -35.9622   23.3282 H   0  0  0  0  0  0
  -24.3605  -36.8938   22.2062 H   0  0  0  0  0  0
  -23.7185  -37.6507   23.6636 H   0  0  0  0  0  0
  -26.0389  -31.6061   20.6004 H   0  0  0  0  0  0
  -26.8115  -30.8776   21.9843 H   0  0  0  0  0  0
  -28.0930  -29.1174   21.1360 H   0  0  0  0  0  0
  -26.0312  -25.9761   18.9989 H   0  0  0  0  0  0
  -23.9621  -27.2901   19.0473 H   0  0  0  0  0  0
  -23.7102  -30.6008   19.4108 H   0  0  0  0  0  0
  -22.7273  -29.2470   19.8742 H   0  0  0  0  0  0
  -25.1265  -36.2034   25.0858 H   0  0  0  0  0  0
  -20.9860  -28.3214   24.1488 H   0  0  0  0  0  0
  -20.5682  -26.2283   23.3601 H   0  0  0  0  0  0
  -21.6628  -26.7490   22.1225 H   0  0  0  0  0  0
  -19.6956  -25.6284   21.1264 H   0  0  0  0  0  0
  -19.6715  -27.3170   20.6747 H   0  0  0  0  0  0
  -17.4179  -26.6608   21.4018 H   0  0  0  0  0  0
  -18.0341  -26.0050   22.9027 H   0  0  0  0  0  0
  -19.7935  -30.7177   24.2375 H   0  0  0  0  0  0
  -17.5052  -31.6306   24.5123 H   0  0  0  0  0  0
  -15.5353  -30.3080   23.7633 H   0  0  0  0  0  0
  -15.8607  -28.0906   22.7041 H   0  0  0  0  0  0
  -24.5831  -30.7129   25.7791 H   0  0  0  0  0  0
  -24.8991  -32.2895   26.4985 H   0  0  0  0  0  0
  -25.8068  -30.8788   27.0199 H   0  0  0  0  0  0
  -26.2772  -29.6851   24.1081 H   0  0  0  0  0  0
  -27.3960  -29.7217   25.4505 H   0  0  0  0  0  0
  -27.8634  -30.4348   23.9235 H   0  0  0  0  0  0
  -27.2652  -33.3521   26.2124 H   0  0  0  0  0  0
  -28.3795  -32.6867   25.0270 H   0  0  0  0  0  0
  -28.0735  -31.8344   26.5317 H   0  0  0  0  0  0
  -28.2583  -38.0127   24.7561 H   0  0  0  0  0  0
  -28.1112  -36.2661   24.6210 H   0  0  0  0  0  0
  -27.2334  -37.1378   25.8870 H   0  0  0  0  0  0
  -20.9257  -29.8823   21.7046 H   0  0  0  0  0  0
  -26.0218  -38.2909   24.1432 H   0  0  0  0  0  0
  -31.9521  -19.5172   22.2984 H   0  0  0  0  0  0
  -31.4097  -17.0735   22.3775 H   0  0  0  0  0  0
  -30.2566  -19.7977   18.3276 H   0  0  0  0  0  0
  -29.0783  -15.0043   18.3603 H   0  0  0  0  0  0
  -28.1256  -16.0822   19.3888 H   0  0  0  0  0  0
  -28.6965  -17.6433   17.8289 H   0  0  0  0  0  0
  -28.9039  -20.7386   21.3582 H   0  0  0  0  0  0
  -28.6275  -21.4331   19.7572 H   0  0  0  0  0  0
  -28.2351  -22.3353   21.2114 H   0  0  0  0  0  0
  -31.5256  -21.5892   19.1668 H   0  0  0  0  0  0
  -32.3556  -21.5808   20.6898 H   0  0  0  0  0  0
  -30.2284  -25.5398   21.0482 H   0  0  0  0  0  0
  -29.1905  -24.4275   21.8260 H   0  0  0  0  0  0
  -31.4275  -23.9267   20.1917 H   0  0  0  0  0  0
  -30.1467  -23.5325   19.0932 H   0  0  0  0  0  0
  -27.4347  -24.8649   20.3517 H   0  0  0  0  0  0
  -28.4635  -25.0521   18.9375 H   0  0  0  0  0  0
  -31.3008  -16.3197   17.4466 H   0  0  0  0  0  0
  -30.6910  -17.5519   16.5674 H   0  0  0  0  0  0
  -30.0060  -16.0834   16.4810 H   0  0  0  0  0  0
  -30.5804  -22.3549   21.7533 H   0  0  0  0  0  0
  1 25  1  0  0  0
  1 30  2  0  0  0
  1 84  1  0  0  0
  2  3  1  0  0  0
  2 25  1  0  0  0
  2 87  1  0  0  0
  2 88  1  0  0  0
  3  4  1  0  0  0
  3 89  1  0  0  0
  3 90  1  0  0  0
  4  5  1  0  0  0
  4 91  1  0  0  0
  4 92  1  0  0  0
  5  6  1  0  0  0
  5 26  1  0  0  0
  5 93  1  0  0  0
  6 25  1  0  0  0
  6 94  1  0  0  0
  6 95  1  0  0  0
  7  8  2  0  0  0
  7 26  1  0  0  0
  7 29  1  0  0  0
  8  9  1  0  0  0
  8 22  1  0  0  0
  9 10  1  0  0  0
  9 27  2  0  0  0
 10 11  2  0  0  0
 10 15  1  0  0  0
 11 12  1  0  0  0
 11 96  1  0  0  0
 12 13  2  0  0  0
 12 97  1  0  0  0
 13 14  1  0  0  0
 13 31  1  0  0  0
 14 15  2  0  0  0
 14 98  1  0  0  0
 15 99  1  0  0  0
 16 17  2  0  0  0
 16 21  1  0  0  0
 16 31  1  0  0  0
 17 18  1  0  0  0
 17100  1  0  0  0
 18 19  2  0  0  0
 18101  1  0  0  0
 19 20  1  0  0  0
 19 24  1  0  0  0
 20 21  2  0  0  0
 20102  1  0  0  0
 21 23  1  0  0  0
 22 28  1  0  0  0
 22 32  2  0  0  0
 26 27  1  0  0  0
 28103  1  0  0  0
 28104  1  0  0  0
 29105  1  0  0  0
 29106  1  0  0  0
 33 34  1  0  0  0
 33 66  1  0  0  0
 33 70  2  0  0  0
 34 36  1  0  0  0
 34 59  1  0  0  0
 34107  1  0  0  0
 35 44  2  0  0  0
 35 45  1  0  0  0
 35 68  1  0  0  0
 36 56  1  0  0  0
 36108  1  0  0  0
 37 39  1  0  0  0
 37 47  1  0  0  0
 37 66  1  0  0  0
 37109  1  0  0  0
 38 43  2  0  0  0
 38 46  1  0  0  0
 38 47  1  0  0  0
 39 64  1  0  0  0
 39 67  2  0  0  0
 40 52  1  0  0  0
 40 53  2  0  0  0
 40 58  1  0  0  0
 41110  1  0  0  0
 41111  1  0  0  0
 41112  1  0  0  0
 41 48  1  0  0  0
 42 43  1  0  0  0
 42 66  1  0  0  0
 42113  1  0  0  0
 42114  1  0  0  0
 43 44  1  0  0  0
 44115  1  0  0  0
 45 46  2  0  0  0
 45116  1  0  0  0
 46117  1  0  0  0
 47118  1  0  0  0
 47119  1  0  0  0
 48 56  1  0  0  0
 48 65  1  0  0  0
 48120  1  0  0  0
 49 50  1  0  0  0
 49 53  1  0  0  0
 49 64  1  0  0  0
 49121  1  0  0  0
 50 51  1  0  0  0
 50122  1  0  0  0
 50123  1  0  0  0
 51 52  1  0  0  0
 51124  1  0  0  0
 51125  1  0  0  0
 52126  1  0  0  0
 52127  1  0  0  0
 53 54  1  0  0  0
 54 55  2  0  0  0
 54128  1  0  0  0
 55 57  1  0  0  0
 55129  1  0  0  0
 56 69  2  0  0  0
 57 58  2  0  0  0
 57130  1  0  0  0
 58131  1  0  0  0
 59 60  1  0  0  0
 59 61  1  0  0  0
 59 62  1  0  0  0
 60132  1  0  0  0
 60133  1  0  0  0
 60134  1  0  0  0
 61135  1  0  0  0
 61136  1  0  0  0
 61137  1  0  0  0
 62138  1  0  0  0
 62139  1  0  0  0
 62140  1  0  0  0
 63 65  1  0  0  0
 63141  1  0  0  0
 63142  1  0  0  0
 63143  1  0  0  0
 64144  1  0  0  0
 65145  1  0  0  0
 68 83  1  0  0  0
 71 72  2  0  0  0
 71 75  1  0  0  0
 71146  1  0  0  0
 72 76  1  0  0  0
 72147  1  0  0  0
 73 74  1  0  0  0
 73 75  2  0  0  0
 73148  1  0  0  0
 74 76  2  0  0  0
 74 78  1  0  0  0
 75 80  1  0  0  0
 76 84  1  0  0  0
 77 78  1  0  0  0
 77 84  1  0  0  0
 77149  1  0  0  0
 77150  1  0  0  0
 78 85  1  0  0  0
 78151  1  0  0  0
 79152  1  0  0  0
 79153  1  0  0  0
 79154  1  0  0  0
 79 86  1  0  0  0
 80 86  1  0  0  0
 80155  1  0  0  0
 80156  1  0  0  0
 81 82  1  0  0  0
 81 83  1  0  0  0
 81157  1  0  0  0
 81158  1  0  0  0
 82 86  1  0  0  0
 82159  1  0  0  0
 82160  1  0  0  0
 83161  1  0  0  0
 83162  1  0  0  0
 85163  1  0  0  0
 85164  1  0  0  0
 85165  1  0  0  0
 86166  1  0  0  0
M  CHG  2  85   1  86   1
M  ISO  4   1 100  68 101  83 101  84 100
M  END
> <chiral flag>
0

> <version>
0

> <s_m_source_file>
/data/baiqing/PycharmProjects/Reinvent-master-3.2/result/LINK_invent/BTK/process_docking_weight1_custom_product_contain_oxygen_bond_distance_aromatic_linkinvent_7_9_3/rearranged_h_0020.sdf

> <i_m_source_file_index>
25

> <r_mmod_Potential_Energy-OPLS-2005>
-160.860076904297

> <r_mmod_Stretch_Energy-OPLS-2005>
45.7731018066406

> <r_mmod_Bend_Energy-OPLS-2005>
183.621383666992

> <r_mmod_Torsional_Energy-OPLS-2005>
349.772979736328

> <r_mmod_Improper_Torsional_Energy-OPLS-2005>
15.8959121704102

> <r_mmod_Van_der_Waal_Energy-OPLS-2005>
166.823593139648

> <r_mmod_Electrostatic_Energy-OPLS-2005>
-29.0284366607666

> <r_mmod_Solvation_Energy-OPLS-2005>
-938.425170898438

> <b_mmod_Minimization_Converged-OPLS-2005>
0

> <r_mmod_RMS_Derivative-OPLS-2005>
5.08961153030396

$$$$
25
                    3D
 Structure written by MMmdl.
154162  0  0  1  0            999 V2000
  -30.6043  -14.7458   20.4650 C   0  0  0  0  0  0
  -30.4350  -12.4581   19.4640 C   0  0  0  0  0  0
  -29.5079  -12.5041   18.2297 C   0  0  0  0  0  0
  -28.0347  -12.3257   18.6470 C   0  0  0  0  0  0
  -27.6399  -13.2275   19.8469 C   0  0  2  0  0  0
  -28.6865  -13.1624   20.9797 C   0  0  0  0  0  0
  -25.2506  -13.8183   20.5691 C   0  0  0  0  0  0
  -24.1798  -13.0433   20.9213 C   0  0  0  0  0  0
  -24.6385  -11.6910   20.8749 C   0  0  0  0  0  0
  -23.9060  -10.4289   21.0409 C   0  0  0  0  0  0
  -24.3614   -9.4206   21.9186 C   0  0  0  0  0  0
  -23.6292   -8.2240   22.0753 C   0  0  0  0  0  0
  -22.4274   -8.0276   21.3543 C   0  0  0  0  0  0
  -21.9908   -9.0248   20.4645 C   0  0  0  0  0  0
  -22.7233  -10.2130   20.3056 C   0  0  0  0  0  0
  -21.6853   -6.0732   22.5278 C   0  0  0  0  0  0
  -21.4014   -6.5637   23.8211 C   0  0  0  0  0  0
  -21.3659   -5.6791   24.9174 C   0  0  0  0  0  0
  -21.6044   -4.3054   24.7225 C   0  0  0  0  0  0
  -21.8819   -3.8144   23.4347 C   0  0  0  0  0  0
  -21.9193   -4.6960   22.3402 C   0  0  0  0  0  0
  -22.7821  -13.5218   21.1872 C   0  0  0  0  0  0
  -22.1662   -4.2145   21.0981 F   0  0  0  0  0  0
  -21.5628   -3.4538   25.7738 F   0  0  0  0  0  0
  -29.9832  -13.5191   20.3916 N   0  0  0  0  0  0
  -26.2925  -12.9382   20.3266 N   0  0  0  0  0  0
  -25.9312  -11.6529   20.5747 N   0  0  0  0  0  0
  -22.0467  -12.8208   22.0428 N   0  0  0  0  0  0
  -25.4183  -15.1909   20.4100 N   0  0  0  0  0  0
  -31.8038  -14.8383   20.1869 O   0  0  0  0  0  0
  -21.6639   -6.8873   21.4239 O   0  0  0  0  0  0
  -22.3508  -14.5525   20.6718 O   0  0  0  0  0  0
  -24.6308  -31.8547   23.1970 C   0  0  0  0  0  0
  -25.9132  -32.4752   23.8321 C   0  0  1  0  0  0
  -27.2219  -27.2667   20.1386 C   0  0  0  0  0  0
  -25.5929  -33.8553   24.2249 N   0  0  0  0  0  0
  -23.4281  -30.4755   21.5400 C   0  0  2  0  0  0
  -24.8765  -28.9172   20.1141 C   0  0  0  0  0  0
  -22.7501  -29.4599   22.4912 C   0  0  0  0  0  0
  -18.0292  -28.1390   22.8486 C   0  0  0  0  0  0
  -24.1489  -36.7281   23.2640 C   0  0  0  0  0  0
  -25.9724  -30.7708   21.3741 C   0  0  0  0  0  0
  -26.0478  -29.3914   20.7202 C   0  0  0  0  0  0
  -27.2273  -28.5802   20.7163 C   0  0  0  0  0  0
  -26.0307  -26.8524   19.5095 C   0  0  0  0  0  0
  -24.8724  -27.6555   19.4967 C   0  0  0  0  0  0
  -23.6468  -29.8043   20.1579 C   0  0  0  0  0  0
  -25.4116  -36.3065   24.0327 C   0  0  1  0  0  0
  -20.5896  -28.3699   23.1272 C   0  0  2  0  0  0
  -20.6780  -26.9417   22.5409 C   0  0  0  0  0  0
  -19.5755  -26.6386   21.5213 C   0  0  0  0  0  0
  -18.1935  -26.7932   22.1625 C   0  0  0  0  0  0
  -19.1546  -28.8861   23.2873 C   0  0  0  0  0  0
  -18.9466  -30.1462   23.8890 C   0  0  0  0  0  0
  -17.6464  -30.6589   24.0562 C   0  0  0  0  0  0
  -25.9056  -34.9437   23.5091 C   0  0  0  0  0  0
  -16.5355  -29.9086   23.6333 C   0  0  0  0  0  0
  -16.7279  -28.6504   23.0354 C   0  0  0  0  0  0
  -26.4502  -31.6579   25.0711 C   0  0  0  0  0  0
  -25.3726  -31.3730   26.1432 C   0  0  0  0  0  0
  -27.0348  -30.2996   24.6191 C   0  0  0  0  0  0
  -27.6053  -32.4322   25.7487 C   0  0  0  0  0  0
  -27.5579  -37.1793   24.8464 C   0  0  0  0  0  0
  -21.4208  -29.3043   22.3658 N   0  0  0  0  0  0
  -26.4288  -37.3766   23.9411 N   0  0  0  0  0  0
  -24.6962  -31.0517   22.0938 N   0  0  0  0  0  0
  -23.4201  -28.8145   23.3015 O   0  0  0  0  0  0
  -28.3140  -26.3752   20.1419 O   0  0  0  0  0  0
  -26.5626  -34.8916   22.4658 O   0  0  0  0  0  0
  -23.5459  -32.1361   23.7270 O   0  0  0  0  0  0
  -31.6411  -19.0377   21.6643 C   0  0  0  0  0  0
  -30.8127  -20.0919   21.2227 C   0  0  0  0  0  0
  -31.3148  -17.6842   21.4286 C   0  0  0  0  0  0
  -29.2902  -18.4269   20.3130 C   0  0  0  0  0  0
  -29.6134  -19.8339   20.5293 C   0  0  0  0  0  0
  -30.1330  -17.3178   20.7459 C   0  0  0  0  0  0
  -28.5871  -23.6938   20.0126 C   0  0  0  0  0  0
  -28.4630  -22.3594   22.0912 C   0  0  0  0  0  0
  -28.7716  -21.0695   19.9592 C   0  0  0  0  0  0
  -28.1321  -25.0291   20.7906 C   0  0  0  0  0  0
  -29.8010  -15.8761   20.5849 N   0  0  0  0  0  0
  -28.6774  -22.4446   20.6445 N   0  0  0  0  0  0
  -28.8068  -23.7945   18.8015 O   0  0  0  0  0  0
  -31.4737  -12.5926   19.1571 H   0  0  0  0  0  0
  -30.3886  -11.4818   19.9489 H   0  0  0  0  0  0
  -29.7906  -11.7299   17.5151 H   0  0  0  0  0  0
  -29.6303  -13.4572   17.7124 H   0  0  0  0  0  0
  -27.8946  -11.2775   18.9133 H   0  0  0  0  0  0
  -27.3751  -12.5136   17.7989 H   0  0  0  0  0  0
  -27.6320  -14.2474   19.4628 H   0  0  0  0  0  0
  -28.7261  -12.1641   21.4182 H   0  0  0  0  0  0
  -28.4228  -13.8436   21.7905 H   0  0  0  0  0  0
  -25.2758   -9.5686   22.4763 H   0  0  0  0  0  0
  -24.0001   -7.4630   22.7473 H   0  0  0  0  0  0
  -21.0839   -8.8764   19.8952 H   0  0  0  0  0  0
  -22.3686  -10.9668   19.6167 H   0  0  0  0  0  0
  -21.2007   -7.6146   23.9712 H   0  0  0  0  0  0
  -21.1481   -6.0523   25.9076 H   0  0  0  0  0  0
  -22.0599   -2.7606   23.2848 H   0  0  0  0  0  0
  -22.4087  -11.9871   22.4815 H   0  0  0  0  0  0
  -21.1085  -13.1230   22.2634 H   0  0  0  0  0  0
  -24.6465  -15.8400   20.5194 H   0  0  0  0  0  0
  -26.2568  -15.6336   20.0584 H   0  0  0  0  0  0
  -26.7200  -32.5406   23.1067 H   0  0  0  0  0  0
  -25.0085  -33.9691   25.0401 H   0  0  0  0  0  0
  -22.7246  -31.2974   21.3916 H   0  0  0  0  0  0
  -23.3754  -35.9610   23.3295 H   0  0  0  0  0  0
  -24.3582  -36.8908   22.2056 H   0  0  0  0  0  0
  -23.7239  -37.6479   23.6668 H   0  0  0  0  0  0
  -26.1079  -31.5305   20.6029 H   0  0  0  0  0  0
  -26.8512  -30.8232   22.0054 H   0  0  0  0  0  0
  -28.1282  -28.9413   21.1924 H   0  0  0  0  0  0
  -25.9911  -25.8822   19.0339 H   0  0  0  0  0  0
  -23.9759  -27.2877   19.0164 H   0  0  0  0  0  0
  -23.7714  -30.5775   19.3989 H   0  0  0  0  0  0
  -22.7659  -29.2358   19.8545 H   0  0  0  0  0  0
  -25.1299  -36.1907   25.0819 H   0  0  0  0  0  0
  -20.9991  -28.3274   24.1392 H   0  0  0  0  0  0
  -20.5680  -26.2308   23.3612 H   0  0  0  0  0  0
  -21.6649  -26.7441   22.1202 H   0  0  0  0  0  0
  -19.6913  -25.6294   21.1249 H   0  0  0  0  0  0
  -19.6693  -27.3192   20.6739 H   0  0  0  0  0  0
  -17.4206  -26.6681   21.4027 H   0  0  0  0  0  0
  -18.0333  -26.0077   22.9024 H   0  0  0  0  0  0
  -19.7941  -30.7282   24.2256 H   0  0  0  0  0  0
  -17.5019  -31.6270   24.5164 H   0  0  0  0  0  0
  -15.5356  -30.2984   23.7662 H   0  0  0  0  0  0
  -15.8681  -28.0821   22.7071 H   0  0  0  0  0  0
  -24.5896  -30.7086   25.7761 H   0  0  0  0  0  0
  -24.8925  -32.2902   26.4853 H   0  0  0  0  0  0
  -25.8043  -30.8908   27.0210 H   0  0  0  0  0  0
  -26.2926  -29.6744   24.1213 H   0  0  0  0  0  0
  -27.4031  -29.7259   25.4705 H   0  0  0  0  0  0
  -27.8805  -30.4277   23.9429 H   0  0  0  0  0  0
  -27.2656  -33.3628   26.2048 H   0  0  0  0  0  0
  -28.3872  -32.6872   25.0321 H   0  0  0  0  0  0
  -28.0710  -31.8456   26.5415 H   0  0  0  0  0  0
  -28.2587  -38.0100   24.7520 H   0  0  0  0  0  0
  -28.1083  -36.2630   24.6278 H   0  0  0  0  0  0
  -27.2300  -37.1429   25.8867 H   0  0  0  0  0  0
  -20.9392  -29.8760   21.6859 H   0  0  0  0  0  0
  -26.0163  -38.2837   24.1419 H   0  0  0  0  0  0
  -32.5542  -19.2729   22.1931 H   0  0  0  0  0  0
  -31.1182  -21.1130   21.4069 H   0  0  0  0  0  0
  -31.9870  -16.9242   21.8013 H   0  0  0  0  0  0
  -28.3771  -18.1962   19.7828 H   0  0  0  0  0  0
  -29.2870  -22.8302   22.6286 H   0  0  0  0  0  0
  -28.3930  -21.3285   22.4383 H   0  0  0  0  0  0
  -27.5340  -22.8482   22.3871 H   0  0  0  0  0  0
  -27.7460  -20.7216   19.8310 H   0  0  0  0  0  0
  -29.1389  -21.2289   18.9446 H   0  0  0  0  0  0
  -28.6922  -25.0713   21.7245 H   0  0  0  0  0  0
  -27.0903  -24.8936   21.0829 H   0  0  0  0  0  0
  -28.8150  -15.6681   20.5693 H   0  0  0  0  0  0
  1 25  1  0  0  0
  1 30  2  0  0  0
  1 81  1  0  0  0
  2  3  1  0  0  0
  2 25  1  0  0  0
  2 84  1  0  0  0
  2 85  1  0  0  0
  3  4  1  0  0  0
  3 86  1  0  0  0
  3 87  1  0  0  0
  4  5  1  0  0  0
  4 88  1  0  0  0
  4 89  1  0  0  0
  5  6  1  0  0  0
  5 26  1  0  0  0
  5 90  1  0  0  0
  6 25  1  0  0  0
  6 91  1  0  0  0
  6 92  1  0  0  0
  7  8  2  0  0  0
  7 26  1  0  0  0
  7 29  1  0  0  0
  8  9  1  0  0  0
  8 22  1  0  0  0
  9 10  1  0  0  0
  9 27  2  0  0  0
 10 11  2  0  0  0
 10 15  1  0  0  0
 11 12  1  0  0  0
 11 93  1  0  0  0
 12 13  2  0  0  0
 12 94  1  0  0  0
 13 14  1  0  0  0
 13 31  1  0  0  0
 14 15  2  0  0  0
 14 95  1  0  0  0
 15 96  1  0  0  0
 16 17  2  0  0  0
 16 21  1  0  0  0
 16 31  1  0  0  0
 17 18  1  0  0  0
 17 97  1  0  0  0
 18 19  2  0  0  0
 18 98  1  0  0  0
 19 20  1  0  0  0
 19 24  1  0  0  0
 20 21  2  0  0  0
 20 99  1  0  0  0
 21 23  1  0  0  0
 22 28  1  0  0  0
 22 32  2  0  0  0
 26 27  1  0  0  0
 28100  1  0  0  0
 28101  1  0  0  0
 29102  1  0  0  0
 29103  1  0  0  0
 33 34  1  0  0  0
 33 66  1  0  0  0
 33 70  2  0  0  0
 34 36  1  0  0  0
 34 59  1  0  0  0
 34104  1  0  0  0
 35 44  2  0  0  0
 35 45  1  0  0  0
 35 68  1  0  0  0
 36 56  1  0  0  0
 36105  1  0  0  0
 37 39  1  0  0  0
 37 47  1  0  0  0
 37 66  1  0  0  0
 37106  1  0  0  0
 38 43  2  0  0  0
 38 46  1  0  0  0
 38 47  1  0  0  0
 39 64  1  0  0  0
 39 67  2  0  0  0
 40 52  1  0  0  0
 40 53  2  0  0  0
 40 58  1  0  0  0
 41107  1  0  0  0
 41108  1  0  0  0
 41109  1  0  0  0
 41 48  1  0  0  0
 42 43  1  0  0  0
 42 66  1  0  0  0
 42110  1  0  0  0
 42111  1  0  0  0
 43 44  1  0  0  0
 44112  1  0  0  0
 45 46  2  0  0  0
 45113  1  0  0  0
 46114  1  0  0  0
 47115  1  0  0  0
 47116  1  0  0  0
 48 56  1  0  0  0
 48 65  1  0  0  0
 48117  1  0  0  0
 49 50  1  0  0  0
 49 53  1  0  0  0
 49 64  1  0  0  0
 49118  1  0  0  0
 50 51  1  0  0  0
 50119  1  0  0  0
 50120  1  0  0  0
 51 52  1  0  0  0
 51121  1  0  0  0
 51122  1  0  0  0
 52123  1  0  0  0
 52124  1  0  0  0
 53 54  1  0  0  0
 54 55  2  0  0  0
 54125  1  0  0  0
 55 57  1  0  0  0
 55126  1  0  0  0
 56 69  2  0  0  0
 57 58  2  0  0  0
 57127  1  0  0  0
 58128  1  0  0  0
 59 60  1  0  0  0
 59 61  1  0  0  0
 59 62  1  0  0  0
 60129  1  0  0  0
 60130  1  0  0  0
 60131  1  0  0  0
 61132  1  0  0  0
 61133  1  0  0  0
 61134  1  0  0  0
 62135  1  0  0  0
 62136  1  0  0  0
 62137  1  0  0  0
 63 65  1  0  0  0
 63138  1  0  0  0
 63139  1  0  0  0
 63140  1  0  0  0
 64141  1  0  0  0
 65142  1  0  0  0
 68 80  1  0  0  0
 71 72  2  0  0  0
 71 73  1  0  0  0
 71143  1  0  0  0
 72 75  1  0  0  0
 72144  1  0  0  0
 73 76  2  0  0  0
 73145  1  0  0  0
 74 75  2  0  0  0
 74 76  1  0  0  0
 74146  1  0  0  0
 75 79  1  0  0  0
 76 81  1  0  0  0
 77 80  1  0  0  0
 77 82  1  0  0  0
 77 83  2  0  0  0
 78 82  1  0  0  0
 78147  1  0  0  0
 78148  1  0  0  0
 78149  1  0  0  0
 79 82  1  0  0  0
 79150  1  0  0  0
 79151  1  0  0  0
 80152  1  0  0  0
 80153  1  0  0  0
 81154  1  0  0  0
M  ISO  4   1 100  68 101  80 101  81 100
M  END
> <chiral flag>
0

> <version>
0

> <s_m_source_file>
/data/baiqing/PycharmProjects/Reinvent-master-3.2/result/LINK_invent/BTK/process_docking_weight1_custom_product_contain_oxygen_bond_distance_aromatic_linkinvent_7_9_3/rearranged_h_0020.sdf

> <i_m_source_file_index>
26

> <r_mmod_Potential_Energy-OPLS-2005>
183.411819458008

> <r_mmod_Stretch_Energy-OPLS-2005>
128.146820068359

> <r_mmod_Bend_Energy-OPLS-2005>
154.421768188477

> <r_mmod_Torsional_Energy-OPLS-2005>
251.719131469727

> <r_mmod_Improper_Torsional_Energy-OPLS-2005>
7.05554056167603

> <r_mmod_Van_der_Waal_Energy-OPLS-2005>
137.242706298828

> <r_mmod_Electrostatic_Energy-OPLS-2005>
-338.717254638672

> <r_mmod_Solvation_Energy-OPLS-2005>
-240.628173828125

> <b_mmod_Minimization_Converged-OPLS-2005>
0

> <r_mmod_RMS_Derivative-OPLS-2005>
0.353999942541122

$$$$
26
                    3D
 Structure written by MMmdl.
162170  0  0  1  0            999 V2000
  -30.7615  -14.3975   20.6365 C   0  0  0  0  0  0
  -30.4311  -12.2839   19.4113 C   0  0  0  0  0  0
  -29.5007  -12.5170   18.2052 C   0  0  0  0  0  0
  -28.0252  -12.3811   18.6193 C   0  0  0  0  0  0
  -27.6778  -13.2079   19.8853 C   0  0  2  0  0  0
  -28.7193  -12.9579   21.0024 C   0  0  0  0  0  0
  -25.2651  -13.8174   20.5657 C   0  0  0  0  0  0
  -24.1893  -13.0450   20.9132 C   0  0  0  0  0  0
  -24.6439  -11.6910   20.8706 C   0  0  0  0  0  0
  -23.9095  -10.4291   21.0403 C   0  0  0  0  0  0
  -24.3621   -9.4209   21.9200 C   0  0  0  0  0  0
  -23.6286   -8.2250   22.0784 C   0  0  0  0  0  0
  -22.4277   -8.0281   21.3558 C   0  0  0  0  0  0
  -21.9911   -9.0272   20.4679 C   0  0  0  0  0  0
  -22.7255  -10.2147   20.3080 C   0  0  0  0  0  0
  -21.6844   -6.0730   22.5281 C   0  0  0  0  0  0
  -21.4017   -6.5623   23.8230 C   0  0  0  0  0  0
  -21.3660   -5.6773   24.9190 C   0  0  0  0  0  0
  -21.6036   -4.3042   24.7231 C   0  0  0  0  0  0
  -21.8823   -3.8128   23.4350 C   0  0  0  0  0  0
  -21.9183   -4.6947   22.3402 C   0  0  0  0  0  0
  -22.7893  -13.5269   21.1735 C   0  0  0  0  0  0
  -22.1641   -4.2130   21.0975 F   0  0  0  0  0  0
  -21.5630   -3.4527   25.7738 F   0  0  0  0  0  0
  -30.0696  -13.2373   20.4711 N   0  0  0  0  0  0
  -26.3132  -12.9361   20.3414 N   0  0  0  0  0  0
  -25.9392  -11.6509   20.5788 N   0  0  0  0  0  0
  -22.0477  -12.8348   22.0314 N   0  0  0  0  0  0
  -25.4343  -15.1893   20.4055 N   0  0  0  0  0  0
  -31.7719  -14.6838   19.9922 O   0  0  0  0  0  0
  -21.6626   -6.8891   21.4256 O   0  0  0  0  0  0
  -22.3592  -14.5534   20.6517 O   0  0  0  0  0  0
  -24.6148  -31.8684   23.2164 C   0  0  0  0  0  0
  -25.9008  -32.4871   23.8472 C   0  0  1  0  0  0
  -27.2227  -27.4356   20.1021 C   0  0  0  0  0  0
  -25.5841  -33.8670   24.2394 N   0  0  0  0  0  0
  -23.4067  -30.4952   21.5540 C   0  0  2  0  0  0
  -24.8522  -28.9686   20.1152 C   0  0  0  0  0  0
  -22.7429  -29.4661   22.4983 C   0  0  0  0  0  0
  -18.0263  -28.1392   22.8516 C   0  0  0  0  0  0
  -24.1450  -36.7334   23.2641 C   0  0  0  0  0  0
  -25.9373  -30.8361   21.3724 C   0  0  0  0  0  0
  -26.0133  -29.4727   20.7159 C   0  0  0  0  0  0
  -27.2080  -28.7139   20.7063 C   0  0  0  0  0  0
  -26.0504  -26.9557   19.4796 C   0  0  0  0  0  0
  -24.8652  -27.7116   19.4888 C   0  0  0  0  0  0
  -23.6165  -29.8353   20.1653 C   0  0  0  0  0  0
  -25.4092  -36.3178   24.0344 C   0  0  1  0  0  0
  -20.5868  -28.3666   23.1313 C   0  0  2  0  0  0
  -20.6756  -26.9400   22.5414 C   0  0  0  0  0  0
  -19.5716  -26.6386   21.5230 C   0  0  0  0  0  0
  -18.1893  -26.7938   22.1646 C   0  0  0  0  0  0
  -19.1522  -28.8843   23.2920 C   0  0  0  0  0  0
  -18.9445  -30.1443   23.8942 C   0  0  0  0  0  0
  -17.6450  -30.6592   24.0582 C   0  0  0  0  0  0
  -25.9005  -34.9521   23.5190 C   0  0  0  0  0  0
  -16.5342  -29.9110   23.6330 C   0  0  0  0  0  0
  -16.7252  -28.6523   23.0361 C   0  0  0  0  0  0
  -26.4433  -31.6650   25.0800 C   0  0  0  0  0  0
  -25.3672  -31.3758   26.1549 C   0  0  0  0  0  0
  -27.0259  -30.3097   24.6190 C   0  0  0  0  0  0
  -27.6059  -32.4311   25.7515 C   0  0  0  0  0  0
  -27.5599  -37.1825   24.8464 C   0  0  0  0  0  0
  -21.4144  -29.3049   22.3730 N   0  0  0  0  0  0
  -26.4318  -37.3836   23.9396 N   0  0  0  0  0  0
  -24.6717  -31.0816   22.1058 N   0  0  0  0  0  0
  -23.4201  -28.8194   23.3017 O   0  0  0  0  0  0
  -28.3474  -26.6422   20.1200 O   0  0  0  0  0  0
  -26.5584  -34.8948   22.4757 O   0  0  0  0  0  0
  -23.5328  -32.1409   23.7545 O   0  0  0  0  0  0
  -30.3429  -18.6265   23.0388 C   0  0  0  0  0  0
  -29.8290  -18.8053   20.6702 C   0  0  0  0  0  0
  -30.5166  -17.2339   22.9097 C   0  0  0  0  0  0
  -30.0360  -17.4123   20.5306 C   0  0  0  0  0  0
  -29.9477  -19.4203   21.9382 C   0  0  0  0  0  0
  -30.3362  -16.6113   21.6603 C   0  0  0  0  0  0
  -30.1169  -23.8868   22.8959 C   0  0  0  0  0  0
  -31.3009  -21.9633   20.8818 C   0  0  0  0  0  0
  -29.4862  -20.8613   22.2107 C   0  0  0  0  0  0
  -29.2067  -24.3333   20.5551 C   0  0  0  0  0  0
  -28.1494  -25.4210   20.8549 C   0  0  0  0  0  0
  -29.3303  -23.2857   21.7016 C   0  0  1  0  0  0
  -30.3146  -15.1914   21.6191 N   0  0  0  0  0  0
  -29.8663  -21.9501   21.2580 N   0  3  1  0  0  0
  -31.4748  -12.3738   19.1029 H   0  0  0  0  0  0
  -30.3246  -11.2618   19.7771 H   0  0  0  0  0  0
  -29.7293  -11.8035   17.4118 H   0  0  0  0  0  0
  -29.6801  -13.5096   17.7879 H   0  0  0  0  0  0
  -27.8351  -11.3225   18.8035 H   0  0  0  0  0  0
  -27.3749  -12.6665   17.7917 H   0  0  0  0  0  0
  -27.7385  -14.2618   19.6104 H   0  0  0  0  0  0
  -28.6765  -11.9200   21.3365 H   0  0  0  0  0  0
  -28.4657  -13.5538   21.8792 H   0  0  0  0  0  0
  -25.2783   -9.5640   22.4765 H   0  0  0  0  0  0
  -23.9948   -7.4653   22.7533 H   0  0  0  0  0  0
  -21.0817   -8.8841   19.9004 H   0  0  0  0  0  0
  -22.3753  -10.9678   19.6161 H   0  0  0  0  0  0
  -21.2040   -7.6142   23.9722 H   0  0  0  0  0  0
  -21.1458   -6.0506   25.9080 H   0  0  0  0  0  0
  -22.0599   -2.7585   23.2857 H   0  0  0  0  0  0
  -22.4014  -12.0040   22.4822 H   0  0  0  0  0  0
  -21.1112  -13.1481   22.2447 H   0  0  0  0  0  0
  -24.6726  -15.8478   20.5244 H   0  0  0  0  0  0
  -26.3002  -15.6268   20.1171 H   0  0  0  0  0  0
  -26.7122  -32.5585   23.1284 H   0  0  0  0  0  0
  -24.9993  -33.9841   25.0546 H   0  0  0  0  0  0
  -22.6985  -31.3145   21.4181 H   0  0  0  0  0  0
  -23.3744  -35.9632   23.3328 H   0  0  0  0  0  0
  -24.3556  -36.8927   22.2056 H   0  0  0  0  0  0
  -23.7150  -37.6531   23.6628 H   0  0  0  0  0  0
  -26.0534  -31.6093   20.6110 H   0  0  0  0  0  0
  -26.8233  -30.8873   21.9930 H   0  0  0  0  0  0
  -28.1040  -29.0947   21.1798 H   0  0  0  0  0  0
  -26.0528  -25.9906   18.9939 H   0  0  0  0  0  0
  -23.9757  -27.3309   19.0078 H   0  0  0  0  0  0
  -23.7269  -30.6108   19.4038 H   0  0  0  0  0  0
  -22.7396  -29.2571   19.8676 H   0  0  0  0  0  0
  -25.1278  -36.2108   25.0844 H   0  0  0  0  0  0
  -20.9978  -28.3243   24.1429 H   0  0  0  0  0  0
  -20.5662  -26.2306   23.3618 H   0  0  0  0  0  0
  -21.6632  -26.7448   22.1222 H   0  0  0  0  0  0
  -19.6876  -25.6300   21.1255 H   0  0  0  0  0  0
  -19.6640  -27.3214   20.6765 H   0  0  0  0  0  0
  -17.4184  -26.6696   21.4028 H   0  0  0  0  0  0
  -18.0272  -26.0073   22.9031 H   0  0  0  0  0  0
  -19.7917  -30.7229   24.2357 H   0  0  0  0  0  0
  -17.5011  -31.6276   24.5167 H   0  0  0  0  0  0
  -15.5352  -30.3034   23.7591 H   0  0  0  0  0  0
  -15.8655  -28.0832   22.7066 H   0  0  0  0  0  0
  -24.5782  -30.7200   25.7869 H   0  0  0  0  0  0
  -24.8929  -32.2923   26.5083 H   0  0  0  0  0  0
  -25.7961  -30.8825   27.0274 H   0  0  0  0  0  0
  -26.2768  -29.6885   24.1298 H   0  0  0  0  0  0
  -27.4022  -29.7388   25.4691 H   0  0  0  0  0  0
  -27.8658  -30.4381   23.9350 H   0  0  0  0  0  0
  -27.2758  -33.3615   26.2133 H   0  0  0  0  0  0
  -28.3846  -32.6838   25.0312 H   0  0  0  0  0  0
  -28.0740  -31.8401   26.5394 H   0  0  0  0  0  0
  -28.2670  -38.0086   24.7567 H   0  0  0  0  0  0
  -28.1047  -36.2649   24.6237 H   0  0  0  0  0  0
  -27.2332  -37.1431   25.8871 H   0  0  0  0  0  0
  -20.9297  -29.8838   21.7010 H   0  0  0  0  0  0
  -26.0244  -38.2927   24.1415 H   0  0  0  0  0  0
  -30.4357  -19.0679   24.0214 H   0  0  0  0  0  0
  -29.5294  -19.3811   19.8048 H   0  0  0  0  0  0
  -30.7414  -16.6424   23.7868 H   0  0  0  0  0  0
  -29.8916  -16.9582   19.5598 H   0  0  0  0  0  0
  -29.6357  -24.7858   23.2845 H   0  0  0  0  0  0
  -31.1273  -24.1713   22.6031 H   0  0  0  0  0  0
  -30.2042  -23.2060   23.7418 H   0  0  0  0  0  0
  -31.5665  -21.0668   20.3184 H   0  0  0  0  0  0
  -31.9459  -22.0159   21.7573 H   0  0  0  0  0  0
  -31.5272  -22.8138   20.2395 H   0  0  0  0  0  0
  -29.8230  -21.1232   23.2147 H   0  0  0  0  0  0
  -28.3976  -20.8279   22.2658 H   0  0  0  0  0  0
  -30.1731  -24.8026   20.3727 H   0  0  0  0  0  0
  -28.9309  -23.8464   19.6186 H   0  0  0  0  0  0
  -28.1473  -25.6823   21.9133 H   0  0  0  0  0  0
  -27.1708  -24.9763   20.6670 H   0  0  0  0  0  0
  -28.3116  -23.0953   22.0455 H   0  0  0  0  0  0
  -29.6982  -14.7444   22.2798 H   0  0  0  0  0  0
  -29.3683  -21.7282   20.4085 H   0  0  0  0  0  0
  1 25  1  0  0  0
  1 30  2  0  0  0
  1 83  1  0  0  0
  2  3  1  0  0  0
  2 25  1  0  0  0
  2 85  1  0  0  0
  2 86  1  0  0  0
  3  4  1  0  0  0
  3 87  1  0  0  0
  3 88  1  0  0  0
  4  5  1  0  0  0
  4 89  1  0  0  0
  4 90  1  0  0  0
  5  6  1  0  0  0
  5 26  1  0  0  0
  5 91  1  0  0  0
  6 25  1  0  0  0
  6 92  1  0  0  0
  6 93  1  0  0  0
  7  8  2  0  0  0
  7 26  1  0  0  0
  7 29  1  0  0  0
  8  9  1  0  0  0
  8 22  1  0  0  0
  9 10  1  0  0  0
  9 27  2  0  0  0
 10 11  2  0  0  0
 10 15  1  0  0  0
 11 12  1  0  0  0
 11 94  1  0  0  0
 12 13  2  0  0  0
 12 95  1  0  0  0
 13 14  1  0  0  0
 13 31  1  0  0  0
 14 15  2  0  0  0
 14 96  1  0  0  0
 15 97  1  0  0  0
 16 17  2  0  0  0
 16 21  1  0  0  0
 16 31  1  0  0  0
 17 18  1  0  0  0
 17 98  1  0  0  0
 18 19  2  0  0  0
 18 99  1  0  0  0
 19 20  1  0  0  0
 19 24  1  0  0  0
 20 21  2  0  0  0
 20100  1  0  0  0
 21 23  1  0  0  0
 22 28  1  0  0  0
 22 32  2  0  0  0
 26 27  1  0  0  0
 28101  1  0  0  0
 28102  1  0  0  0
 29103  1  0  0  0
 29104  1  0  0  0
 33 34  1  0  0  0
 33 66  1  0  0  0
 33 70  2  0  0  0
 34 36  1  0  0  0
 34 59  1  0  0  0
 34105  1  0  0  0
 35 44  2  0  0  0
 35 45  1  0  0  0
 35 68  1  0  0  0
 36 56  1  0  0  0
 36106  1  0  0  0
 37 39  1  0  0  0
 37 47  1  0  0  0
 37 66  1  0  0  0
 37107  1  0  0  0
 38 43  2  0  0  0
 38 46  1  0  0  0
 38 47  1  0  0  0
 39 64  1  0  0  0
 39 67  2  0  0  0
 40 52  1  0  0  0
 40 53  2  0  0  0
 40 58  1  0  0  0
 41108  1  0  0  0
 41109  1  0  0  0
 41110  1  0  0  0
 41 48  1  0  0  0
 42 43  1  0  0  0
 42 66  1  0  0  0
 42111  1  0  0  0
 42112  1  0  0  0
 43 44  1  0  0  0
 44113  1  0  0  0
 45 46  2  0  0  0
 45114  1  0  0  0
 46115  1  0  0  0
 47116  1  0  0  0
 47117  1  0  0  0
 48 56  1  0  0  0
 48 65  1  0  0  0
 48118  1  0  0  0
 49 50  1  0  0  0
 49 53  1  0  0  0
 49 64  1  0  0  0
 49119  1  0  0  0
 50 51  1  0  0  0
 50120  1  0  0  0
 50121  1  0  0  0
 51 52  1  0  0  0
 51122  1  0  0  0
 51123  1  0  0  0
 52124  1  0  0  0
 52125  1  0  0  0
 53 54  1  0  0  0
 54 55  2  0  0  0
 54126  1  0  0  0
 55 57  1  0  0  0
 55127  1  0  0  0
 56 69  2  0  0  0
 57 58  2  0  0  0
 57128  1  0  0  0
 58129  1  0  0  0
 59 60  1  0  0  0
 59 61  1  0  0  0
 59 62  1  0  0  0
 60130  1  0  0  0
 60131  1  0  0  0
 60132  1  0  0  0
 61133  1  0  0  0
 61134  1  0  0  0
 61135  1  0  0  0
 62136  1  0  0  0
 62137  1  0  0  0
 62138  1  0  0  0
 63 65  1  0  0  0
 63139  1  0  0  0
 63140  1  0  0  0
 63141  1  0  0  0
 64142  1  0  0  0
 65143  1  0  0  0
 68 81  1  0  0  0
 71 73  2  0  0  0
 71 75  1  0  0  0
 71144  1  0  0  0
 72 74  1  0  0  0
 72 75  2  0  0  0
 72145  1  0  0  0
 73 76  1  0  0  0
 73146  1  0  0  0
 74 76  2  0  0  0
 74147  1  0  0  0
 75 79  1  0  0  0
 76 83  1  0  0  0
 77148  1  0  0  0
 77149  1  0  0  0
 77150  1  0  0  0
 77 82  1  0  0  0
 78151  1  0  0  0
 78152  1  0  0  0
 78153  1  0  0  0
 78 84  1  0  0  0
 79 84  1  0  0  0
 79154  1  0  0  0
 79155  1  0  0  0
 80 81  1  0  0  0
 80 82  1  0  0  0
 80156  1  0  0  0
 80157  1  0  0  0
 81158  1  0  0  0
 81159  1  0  0  0
 82 84  1  0  0  0
 82160  1  0  0  0
 83161  1  0  0  0
 84162  1  0  0  0
M  CHG  1  84   1
M  ISO  4   1 100  68 101  81 101  83 100
M  END
> <chiral flag>
0

> <version>
0

> <s_m_source_file>
/data/baiqing/PycharmProjects/Reinvent-master-3.2/result/LINK_invent/BTK/process_docking_weight1_custom_product_contain_oxygen_bond_distance_aromatic_linkinvent_7_9_3/rearranged_h_0020.sdf

> <i_m_source_file_index>
27

> <r_mmod_Potential_Energy-OPLS-2005>
-124.476219177246

> <r_mmod_Stretch_Energy-OPLS-2005>
39.8275032043457

> <r_mmod_Bend_Energy-OPLS-2005>
102.526397705078

> <r_mmod_Torsional_Energy-OPLS-2005>
266.308258056641

> <r_mmod_Improper_Torsional_Energy-OPLS-2005>
4.42059373855591

> <r_mmod_Van_der_Waal_Energy-OPLS-2005>
156.852951049805

> <r_mmod_Electrostatic_Energy-OPLS-2005>
-259.056762695312

> <r_mmod_Solvation_Energy-OPLS-2005>
-446.344879150391

> <b_mmod_Minimization_Converged-OPLS-2005>
0

> <r_mmod_RMS_Derivative-OPLS-2005>
4.08895683288574

$$$$
27
                    3D
 Structure written by MMmdl.
164172  0  0  1  0            999 V2000
  -30.7293  -14.4979   20.5758 C   0  0  0  0  0  0
  -30.4146  -12.3314   19.4215 C   0  0  0  0  0  0
  -29.4871  -12.5120   18.2042 C   0  0  0  0  0  0
  -28.0106  -12.3543   18.6158 C   0  0  0  0  0  0
  -27.6490  -13.1956   19.8657 C   0  0  2  0  0  0
  -28.6999  -13.0252   20.9895 C   0  0  0  0  0  0
  -25.2560  -13.8108   20.5706 C   0  0  0  0  0  0
  -24.1812  -13.0400   20.9206 C   0  0  0  0  0  0
  -24.6365  -11.6864   20.8765 C   0  0  0  0  0  0
  -23.9041  -10.4254   21.0437 C   0  0  0  0  0  0
  -24.3592   -9.4170   21.9214 C   0  0  0  0  0  0
  -23.6258   -8.2212   22.0762 C   0  0  0  0  0  0
  -22.4249   -8.0259   21.3536 C   0  0  0  0  0  0
  -21.9895   -9.0236   20.4634 C   0  0  0  0  0  0
  -22.7236  -10.2105   20.3060 C   0  0  0  0  0  0
  -21.6828   -6.0732   22.5275 C   0  0  0  0  0  0
  -21.3997   -6.5634   23.8213 C   0  0  0  0  0  0
  -21.3648   -5.6787   24.9176 C   0  0  0  0  0  0
  -21.6044   -4.3056   24.7224 C   0  0  0  0  0  0
  -21.8817   -3.8144   23.4351 C   0  0  0  0  0  0
  -21.9181   -4.6957   22.3408 C   0  0  0  0  0  0
  -22.7831  -13.5205   21.1861 C   0  0  0  0  0  0
  -22.1653   -4.2147   21.0977 F   0  0  0  0  0  0
  -21.5634   -3.4539   25.7744 F   0  0  0  0  0  0
  -30.0249  -13.3353   20.4278 N   0  0  0  0  0  0
  -26.2961  -12.9240   20.3358 N   0  0  0  0  0  0
  -25.9278  -11.6420   20.5791 N   0  0  0  0  0  0
  -22.0441  -12.8189   22.0398 N   0  0  0  0  0  0
  -25.4267  -15.1829   20.4091 N   0  0  0  0  0  0
  -31.8620  -14.6370   20.1045 O   0  0  0  0  0  0
  -21.6606   -6.8869   21.4239 O   0  0  0  0  0  0
  -22.3532  -14.5524   20.6718 O   0  0  0  0  0  0
  -24.6146  -31.8675   23.2089 C   0  0  0  0  0  0
  -25.9047  -32.4815   23.8373 C   0  0  1  0  0  0
  -27.2351  -27.4292   20.0943 C   0  0  0  0  0  0
  -25.5933  -33.8606   24.2337 N   0  0  0  0  0  0
  -23.3999  -30.4892   21.5504 C   0  0  2  0  0  0
  -24.8464  -28.9546   20.1094 C   0  0  0  0  0  0
  -22.7379  -29.4643   22.4997 C   0  0  0  0  0  0
  -18.0259  -28.1330   22.8431 C   0  0  0  0  0  0
  -24.1494  -36.7292   23.2627 C   0  0  0  0  0  0
  -25.9239  -30.8334   21.3568 C   0  0  0  0  0  0
  -26.0023  -29.4623   20.7143 C   0  0  0  0  0  0
  -27.1924  -28.7017   20.7107 C   0  0  0  0  0  0
  -26.0619  -26.9413   19.4708 C   0  0  0  0  0  0
  -24.8721  -27.6950   19.4868 C   0  0  0  0  0  0
  -23.6064  -29.8192   20.1639 C   0  0  0  0  0  0
  -25.4098  -36.3088   24.0352 C   0  0  1  0  0  0
  -20.5838  -28.3623   23.1287 C   0  0  2  0  0  0
  -20.6765  -26.9375   22.5371 C   0  0  0  0  0  0
  -19.5756  -26.6356   21.5156 C   0  0  0  0  0  0
  -18.1920  -26.7872   22.1563 C   0  0  0  0  0  0
  -19.1511  -28.8788   23.2854 C   0  0  0  0  0  0
  -18.9455  -30.1411   23.8833 C   0  0  0  0  0  0
  -17.6465  -30.6531   24.0555 C   0  0  0  0  0  0
  -25.9029  -34.9462   23.5116 C   0  0  0  0  0  0
  -16.5354  -29.9031   23.6343 C   0  0  0  0  0  0
  -16.7253  -28.6479   23.0295 C   0  0  0  0  0  0
  -26.4503  -31.6542   25.0660 C   0  0  0  0  0  0
  -25.3787  -31.3542   26.1409 C   0  0  0  0  0  0
  -27.0376  -30.3030   24.5928 C   0  0  0  0  0  0
  -27.6087  -32.4230   25.7443 C   0  0  0  0  0  0
  -27.5572  -37.1799   24.8459 C   0  0  0  0  0  0
  -21.4104  -29.3023   22.3739 N   0  0  0  0  0  0
  -26.4264  -37.3785   23.9419 N   0  0  0  0  0  0
  -24.6650  -31.0760   22.1002 N   0  0  0  0  0  0
  -23.4147  -28.8155   23.3019 O   0  0  0  0  0  0
  -28.4233  -26.7225   20.1365 O   0  0  0  0  0  0
  -26.5555  -34.8932   22.4644 O   0  0  0  0  0  0
  -23.5345  -32.1427   23.7496 O   0  0  0  0  0  0
  -29.8531  -18.4829   19.7853 C   0  0  0  0  0  0
  -29.6842  -19.8720   19.5704 C   0  0  0  0  0  0
  -28.0963  -18.5344   21.4596 C   0  0  0  0  0  0
  -29.0258  -17.7918   20.6981 C   0  0  0  0  0  0
  -28.6912  -20.6014   20.2727 C   0  0  0  0  0  0
  -27.9229  -19.9205   21.2503 C   0  0  0  0  0  0
  -26.5529  -20.6048   17.0729 C   0  0  0  0  0  0
  -26.6926  -21.3927   18.1502 C   0  0  0  0  0  0
  -28.4444  -22.9869   20.7870 C   0  0  0  0  0  0
  -30.9844  -16.2548   22.2401 C   0  0  0  0  0  0
  -29.0010  -16.2530   20.7463 C   0  0  0  0  0  0
  -27.9605  -22.1550   18.4950 C   0  0  0  0  0  0
  -27.7178  -24.3297   20.5123 C   0  0  0  0  0  0
  -28.5003  -25.3684   19.6565 C   0  0  0  0  0  0
  -28.3639  -21.9527   19.8982 N   0  0  0  0  0  0
  -30.1609  -15.5092   21.2858 N   0  0  0  0  0  0
  -29.0682  -22.8859   21.8482 O   0  0  0  0  0  0
  -26.9482  -20.5697   21.9311 F   0  0  0  0  0  0
  -31.4589  -12.4211   19.1163 H   0  0  0  0  0  0
  -30.3155  -11.3259   19.8327 H   0  0  0  0  0  0
  -29.7353  -11.7890   17.4269 H   0  0  0  0  0  0
  -29.6440  -13.4998   17.7684 H   0  0  0  0  0  0
  -27.8243  -11.2974   18.8131 H   0  0  0  0  0  0
  -27.3587  -12.6261   17.7835 H   0  0  0  0  0  0
  -27.6569  -14.2255   19.5282 H   0  0  0  0  0  0
  -28.6920  -11.9990   21.3610 H   0  0  0  0  0  0
  -28.4592  -13.6471   21.8531 H   0  0  0  0  0  0
  -25.2728   -9.5624   22.4817 H   0  0  0  0  0  0
  -23.9949   -7.4587   22.7485 H   0  0  0  0  0  0
  -21.0842   -8.8749   19.8927 H   0  0  0  0  0  0
  -22.3716  -10.9650   19.6158 H   0  0  0  0  0  0
  -21.1988   -7.6143   23.9720 H   0  0  0  0  0  0
  -21.1477   -6.0520   25.9078 H   0  0  0  0  0  0
  -22.0618   -2.7608   23.2854 H   0  0  0  0  0  0
  -22.4013  -11.9804   22.4740 H   0  0  0  0  0  0
  -21.1056  -13.1210   22.2588 H   0  0  0  0  0  0
  -24.6558  -15.8321   20.5235 H   0  0  0  0  0  0
  -26.2637  -15.6257   20.0538 H   0  0  0  0  0  0
  -26.7087  -32.5576   23.1106 H   0  0  0  0  0  0
  -25.0251  -33.9766   25.0599 H   0  0  0  0  0  0
  -22.6892  -31.3057   21.4099 H   0  0  0  0  0  0
  -23.3788  -35.9594   23.3234 H   0  0  0  0  0  0
  -24.3608  -36.8924   22.2046 H   0  0  0  0  0  0
  -23.7219  -37.6472   23.6667 H   0  0  0  0  0  0
  -26.0145  -31.5894   20.5759 H   0  0  0  0  0  0
  -26.8200  -30.9073   21.9605 H   0  0  0  0  0  0
  -28.0834  -29.0824   21.1914 H   0  0  0  0  0  0
  -26.0441  -25.9877   18.9643 H   0  0  0  0  0  0
  -23.9853  -27.3025   19.0110 H   0  0  0  0  0  0
  -23.7045  -30.5923   19.4014 H   0  0  0  0  0  0
  -22.7320  -29.2346   19.8721 H   0  0  0  0  0  0
  -25.1279  -36.1941   25.0842 H   0  0  0  0  0  0
  -20.9915  -28.3186   24.1406 H   0  0  0  0  0  0
  -20.5634  -26.2236   23.3537 H   0  0  0  0  0  0
  -21.6655  -26.7389   22.1190 H   0  0  0  0  0  0
  -19.6939  -25.6273   21.1165 H   0  0  0  0  0  0
  -19.6701  -27.3191   20.6701 H   0  0  0  0  0  0
  -17.4196  -26.6577   21.3963 H   0  0  0  0  0  0
  -18.0347  -25.9991   22.8937 H   0  0  0  0  0  0
  -19.7958  -30.7246   24.2113 H   0  0  0  0  0  0
  -17.5046  -31.6210   24.5167 H   0  0  0  0  0  0
  -15.5367  -30.2926   23.7707 H   0  0  0  0  0  0
  -15.8644  -28.0841   22.6941 H   0  0  0  0  0  0
  -24.6084  -30.6730   25.7754 H   0  0  0  0  0  0
  -24.8849  -32.2645   26.4835 H   0  0  0  0  0  0
  -25.8208  -30.8782   27.0174 H   0  0  0  0  0  0
  -26.2888  -29.6706   24.1142 H   0  0  0  0  0  0
  -27.4430  -29.7304   25.4281 H   0  0  0  0  0  0
  -27.8570  -30.4433   23.8866 H   0  0  0  0  0  0
  -27.2768  -33.3590   26.1941 H   0  0  0  0  0  0
  -28.3981  -32.6621   25.0305 H   0  0  0  0  0  0
  -28.0653  -31.8352   26.5421 H   0  0  0  0  0  0
  -28.2535  -38.0157   24.7620 H   0  0  0  0  0  0
  -28.1131  -36.2696   24.6165 H   0  0  0  0  0  0
  -27.2306  -37.1281   25.8863 H   0  0  0  0  0  0
  -20.9250  -29.8785   21.7001 H   0  0  0  0  0  0
  -26.0154  -38.2839   24.1503 H   0  0  0  0  0  0
  -30.5751  -17.9413   19.1895 H   0  0  0  0  0  0
  -30.2921  -20.3649   18.8239 H   0  0  0  0  0  0
  -27.4446  -18.0284   22.1596 H   0  0  0  0  0  0
  -25.6244  -20.0884   16.8723 H   0  0  0  0  0  0
  -27.3624  -20.4624   16.3707 H   0  0  0  0  0  0
  -25.8571  -21.5173   18.8256 H   0  0  0  0  0  0
  -30.3639  -16.7553   22.9847 H   0  0  0  0  0  0
  -31.5820  -17.0109   21.7305 H   0  0  0  0  0  0
  -31.6697  -15.5943   22.7746 H   0  0  0  0  0  0
  -28.8448  -15.9592   19.7069 H   0  0  0  0  0  0
  -28.1134  -15.9337   21.2932 H   0  0  0  0  0  0
  -27.7894  -23.1942   18.2306 H   0  0  0  0  0  0
  -28.7706  -21.8379   17.8373 H   0  0  0  0  0  0
  -27.5163  -24.7788   21.4864 H   0  0  0  0  0  0
  -26.7320  -24.1312   20.0915 H   0  0  0  0  0  0
  -28.1911  -25.3389   18.6122 H   0  0  0  0  0  0
  -29.5584  -25.1090   19.6540 H   0  0  0  0  0  0
  1 25  1  0  0  0
  1 30  2  0  0  0
  1 86  1  0  0  0
  2  3  1  0  0  0
  2 25  1  0  0  0
  2 89  1  0  0  0
  2 90  1  0  0  0
  3  4  1  0  0  0
  3 91  1  0  0  0
  3 92  1  0  0  0
  4  5  1  0  0  0
  4 93  1  0  0  0
  4 94  1  0  0  0
  5  6  1  0  0  0
  5 26  1  0  0  0
  5 95  1  0  0  0
  6 25  1  0  0  0
  6 96  1  0  0  0
  6 97  1  0  0  0
  7  8  2  0  0  0
  7 26  1  0  0  0
  7 29  1  0  0  0
  8  9  1  0  0  0
  8 22  1  0  0  0
  9 10  1  0  0  0
  9 27  2  0  0  0
 10 11  2  0  0  0
 10 15  1  0  0  0
 11 12  1  0  0  0
 11 98  1  0  0  0
 12 13  2  0  0  0
 12 99  1  0  0  0
 13 14  1  0  0  0
 13 31  1  0  0  0
 14 15  2  0  0  0
 14100  1  0  0  0
 15101  1  0  0  0
 16 17  2  0  0  0
 16 21  1  0  0  0
 16 31  1  0  0  0
 17 18  1  0  0  0
 17102  1  0  0  0
 18 19  2  0  0  0
 18103  1  0  0  0
 19 20  1  0  0  0
 19 24  1  0  0  0
 20 21  2  0  0  0
 20104  1  0  0  0
 21 23  1  0  0  0
 22 28  1  0  0  0
 22 32  2  0  0  0
 26 27  1  0  0  0
 28105  1  0  0  0
 28106  1  0  0  0
 29107  1  0  0  0
 29108  1  0  0  0
 33 34  1  0  0  0
 33 66  1  0  0  0
 33 70  2  0  0  0
 34 36  1  0  0  0
 34 59  1  0  0  0
 34109  1  0  0  0
 35 44  2  0  0  0
 35 45  1  0  0  0
 35 68  1  0  0  0
 36 56  1  0  0  0
 36110  1  0  0  0
 37 39  1  0  0  0
 37 47  1  0  0  0
 37 66  1  0  0  0
 37111  1  0  0  0
 38 43  2  0  0  0
 38 46  1  0  0  0
 38 47  1  0  0  0
 39 64  1  0  0  0
 39 67  2  0  0  0
 40 52  1  0  0  0
 40 53  2  0  0  0
 40 58  1  0  0  0
 41112  1  0  0  0
 41113  1  0  0  0
 41114  1  0  0  0
 41 48  1  0  0  0
 42 43  1  0  0  0
 42 66  1  0  0  0
 42115  1  0  0  0
 42116  1  0  0  0
 43 44  1  0  0  0
 44117  1  0  0  0
 45 46  2  0  0  0
 45118  1  0  0  0
 46119  1  0  0  0
 47120  1  0  0  0
 47121  1  0  0  0
 48 56  1  0  0  0
 48 65  1  0  0  0
 48122  1  0  0  0
 49 50  1  0  0  0
 49 53  1  0  0  0
 49 64  1  0  0  0
 49123  1  0  0  0
 50 51  1  0  0  0
 50124  1  0  0  0
 50125  1  0  0  0
 51 52  1  0  0  0
 51126  1  0  0  0
 51127  1  0  0  0
 52128  1  0  0  0
 52129  1  0  0  0
 53 54  1  0  0  0
 54 55  2  0  0  0
 54130  1  0  0  0
 55 57  1  0  0  0
 55131  1  0  0  0
 56 69  2  0  0  0
 57 58  2  0  0  0
 57132  1  0  0  0
 58133  1  0  0  0
 59 60  1  0  0  0
 59 61  1  0  0  0
 59 62  1  0  0  0
 60134  1  0  0  0
 60135  1  0  0  0
 60136  1  0  0  0
 61137  1  0  0  0
 61138  1  0  0  0
 61139  1  0  0  0
 62140  1  0  0  0
 62141  1  0  0  0
 62142  1  0  0  0
 63 65  1  0  0  0
 63143  1  0  0  0
 63144  1  0  0  0
 63145  1  0  0  0
 64146  1  0  0  0
 65147  1  0  0  0
 68 84  1  0  0  0
 71 72  2  0  0  0
 71 74  1  0  0  0
 71148  1  0  0  0
 72 75  1  0  0  0
 72149  1  0  0  0
 73 74  2  0  0  0
 73 76  1  0  0  0
 73150  1  0  0  0
 74 81  1  0  0  0
 75 76  2  0  0  0
 75 85  1  0  0  0
 76 88  1  0  0  0
 77 78  2  0  0  0
 77151  1  0  0  0
 77152  1  0  0  0
 78 82  1  0  0  0
 78153  1  0  0  0
 79 83  1  0  0  0
 79 85  1  0  0  0
 79 87  2  0  0  0
 80 86  1  0  0  0
 80154  1  0  0  0
 80155  1  0  0  0
 80156  1  0  0  0
 81 86  1  0  0  0
 81157  1  0  0  0
 81158  1  0  0  0
 82 85  1  0  0  0
 82159  1  0  0  0
 82160  1  0  0  0
 83 84  1  0  0  0
 83161  1  0  0  0
 83162  1  0  0  0
 84163  1  0  0  0
 84164  1  0  0  0
M  ISO  4   1 100  68 101  84 101  86 100
M  END
> <chiral flag>
0

> <version>
0

> <s_m_source_file>
/data/baiqing/PycharmProjects/Reinvent-master-3.2/result/LINK_invent/BTK/process_docking_weight1_custom_product_contain_oxygen_bond_distance_aromatic_linkinvent_7_9_3/rearranged_h_0020.sdf

> <i_m_source_file_index>
28

> <r_mmod_Potential_Energy-OPLS-2005>
162.557540893555

> <r_mmod_Stretch_Energy-OPLS-2005>
45.5143852233887

> <r_mmod_Bend_Energy-OPLS-2005>
117.00235748291

> <r_mmod_Torsional_Energy-OPLS-2005>
335.195098876953

> <r_mmod_Improper_Torsional_Energy-OPLS-2005>
5.05279159545898

> <r_mmod_Van_der_Waal_Energy-OPLS-2005>
157.997039794922

> <r_mmod_Electrostatic_Energy-OPLS-2005>
-301.926513671875

> <r_mmod_Solvation_Energy-OPLS-2005>
-212.286239624023

> <b_mmod_Minimization_Converged-OPLS-2005>
0

> <r_mmod_RMS_Derivative-OPLS-2005>
3.29609298706055

$$$$
28
                    3D
 Structure written by MMmdl.
158167  0  0  1  0            999 V2000
  -30.6657  -14.6049   20.4016 C   0  0  0  0  0  0
  -30.4311  -12.3443   19.4490 C   0  0  0  0  0  0
  -29.4984  -12.4179   18.2214 C   0  0  0  0  0  0
  -28.0198  -12.3155   18.6454 C   0  0  0  0  0  0
  -27.6469  -13.2200   19.8506 C   0  0  2  0  0  0
  -28.7010  -13.1301   20.9766 C   0  0  0  0  0  0
  -25.2463  -13.8170   20.5558 C   0  0  0  0  0  0
  -24.1779  -13.0439   20.9150 C   0  0  0  0  0  0
  -24.6400  -11.6927   20.8783 C   0  0  0  0  0  0
  -23.9090  -10.4303   21.0469 C   0  0  0  0  0  0
  -24.3648   -9.4218   21.9242 C   0  0  0  0  0  0
  -23.6313   -8.2256   22.0789 C   0  0  0  0  0  0
  -22.4308   -8.0280   21.3573 C   0  0  0  0  0  0
  -21.9944   -9.0263   20.4698 C   0  0  0  0  0  0
  -22.7268  -10.2146   20.3120 C   0  0  0  0  0  0
  -21.6867   -6.0717   22.5293 C   0  0  0  0  0  0
  -21.4038   -6.5625   23.8223 C   0  0  0  0  0  0
  -21.3706   -5.6784   24.9184 C   0  0  0  0  0  0
  -21.6061   -4.3041   24.7252 C   0  0  0  0  0  0
  -21.8798   -3.8118   23.4376 C   0  0  0  0  0  0
  -21.9180   -4.6931   22.3430 C   0  0  0  0  0  0
  -22.7804  -13.5200   21.1780 C   0  0  0  0  0  0
  -22.1604   -4.2102   21.1000 F   0  0  0  0  0  0
  -21.5674   -3.4540   25.7787 F   0  0  0  0  0  0
  -30.0139  -13.4064   20.3789 N   0  0  0  0  0  0
  -26.2954  -12.9393   20.3308 N   0  0  0  0  0  0
  -25.9339  -11.6553   20.5867 N   0  0  0  0  0  0
  -22.0415  -12.8197   22.0305 N   0  0  0  0  0  0
  -25.3961  -15.1866   20.3715 N   0  0  0  0  0  0
  -31.8899  -14.6715   20.2659 O   0  0  0  0  0  0
  -21.6672   -6.8878   21.4266 O   0  0  0  0  0  0
  -22.3501  -14.5525   20.6638 O   0  0  0  0  0  0
  -24.6181  -31.8642   23.2084 C   0  0  0  0  0  0
  -25.9047  -32.4811   23.8404 C   0  0  1  0  0  0
  -27.2335  -27.4013   20.1244 C   0  0  0  0  0  0
  -25.5863  -33.8617   24.2314 N   0  0  0  0  0  0
  -23.4087  -30.4875   21.5468 C   0  0  2  0  0  0
  -24.8594  -28.9477   20.1137 C   0  0  0  0  0  0
  -22.7420  -29.4656   22.4973 C   0  0  0  0  0  0
  -18.0280  -28.1355   22.8482 C   0  0  0  0  0  0
  -24.1525  -36.7378   23.2627 C   0  0  0  0  0  0
  -25.9387  -30.8246   21.3630 C   0  0  0  0  0  0
  -26.0202  -29.4552   20.7132 C   0  0  0  0  0  0
  -27.2141  -28.6920   20.7111 C   0  0  0  0  0  0
  -26.0599  -26.9173   19.5097 C   0  0  0  0  0  0
  -24.8760  -27.6805   19.5058 C   0  0  0  0  0  0
  -23.6210  -29.8167   20.1621 C   0  0  0  0  0  0
  -25.4131  -36.3124   24.0322 C   0  0  1  0  0  0
  -20.5875  -28.3668   23.1303 C   0  0  2  0  0  0
  -20.6775  -26.9396   22.5419 C   0  0  0  0  0  0
  -19.5766  -26.6377   21.5201 C   0  0  0  0  0  0
  -18.1945  -26.7899   22.1610 C   0  0  0  0  0  0
  -19.1525  -28.8827   23.2892 C   0  0  0  0  0  0
  -18.9453  -30.1425   23.8924 C   0  0  0  0  0  0
  -17.6457  -30.6565   24.0565 C   0  0  0  0  0  0
  -25.9035  -34.9474   23.5124 C   0  0  0  0  0  0
  -16.5353  -29.9080   23.6294 C   0  0  0  0  0  0
  -16.7267  -28.6483   23.0335 C   0  0  0  0  0  0
  -26.4450  -31.6595   25.0745 C   0  0  0  0  0  0
  -25.3684  -31.3772   26.1474 C   0  0  0  0  0  0
  -27.0250  -30.3023   24.6136 C   0  0  0  0  0  0
  -27.6042  -32.4308   25.7485 C   0  0  0  0  0  0
  -27.5609  -37.1855   24.8433 C   0  0  0  0  0  0
  -21.4142  -29.3041   22.3713 N   0  0  0  0  0  0
  -26.4344  -37.3791   23.9351 N   0  0  0  0  0  0
  -24.6735  -31.0751   22.0978 N   0  0  0  0  0  0
  -23.4176  -28.8172   23.3005 O   0  0  0  0  0  0
  -28.3588  -26.5980   20.1402 O   0  0  0  0  0  0
  -26.5634  -34.8922   22.4709 O   0  0  0  0  0  0
  -23.5366  -32.1407   23.7473 O   0  0  0  0  0  0
  -27.8082  -18.3353   21.4638 C   0  0  0  0  0  0
  -28.2868  -17.0489   21.1181 C   0  0  0  0  0  0
  -29.9586  -19.3012   20.9259 C   0  0  0  0  0  0
  -28.6212  -19.4906   21.3445 C   0  0  0  0  0  0
  -29.5962  -16.8674   20.6278 C   0  0  0  0  0  0
  -30.4403  -18.0121   20.5682 C   0  0  0  0  0  0
  -28.0347  -22.9939   20.1977 C   0  0  0  0  0  0
  -29.5121  -23.1385   21.6410 C   0  0  0  0  0  0
  -28.9924  -24.1490   20.5961 C   0  0  2  0  0  0
  -29.9557  -15.8402   18.4629 C   0  0  0  0  0  0
  -28.0217  -20.8697   21.7165 C   0  0  0  0  0  0
  -28.2842  -25.4663   21.0514 C   0  0  0  0  0  0
  -28.5645  -22.1233   21.1354 N   0  0  0  0  0  0
  -29.9132  -15.6470   19.9258 N   0  0  0  0  0  0
  -27.1097  -22.8529   19.4256 O   0  0  0  0  0  0
  -31.7038  -17.8980   20.0927 F   0  0  0  0  0  0
  -31.4710  -12.4503   19.1321 H   0  0  0  0  0  0
  -30.3666  -11.3719   19.9369 H   0  0  0  0  0  0
  -29.7332  -11.6084   17.5298 H   0  0  0  0  0  0
  -29.6660  -13.3320   17.6600 H   0  0  0  0  0  0
  -27.8375  -11.2710   18.9038 H   0  0  0  0  0  0
  -27.3715  -12.5347   17.7994 H   0  0  0  0  0  0
  -27.6434  -14.2416   19.4722 H   0  0  0  0  0  0
  -28.7027  -12.1421   21.4425 H   0  0  0  0  0  0
  -28.4826  -13.8538   21.7635 H   0  0  0  0  0  0
  -25.2817   -9.5659   22.4793 H   0  0  0  0  0  0
  -24.0017   -7.4647   22.7498 H   0  0  0  0  0  0
  -21.0866   -8.8793   19.9027 H   0  0  0  0  0  0
  -22.3732  -10.9677   19.6215 H   0  0  0  0  0  0
  -21.2016   -7.6129   23.9712 H   0  0  0  0  0  0
  -21.1569   -6.0518   25.9081 H   0  0  0  0  0  0
  -22.0546   -2.7556   23.2901 H   0  0  0  0  0  0
  -22.3970  -11.9841   22.4718 H   0  0  0  0  0  0
  -21.1022  -13.1213   22.2446 H   0  0  0  0  0  0
  -24.6036  -15.8187   20.4197 H   0  0  0  0  0  0
  -26.2141  -15.6088   19.9545 H   0  0  0  0  0  0
  -26.7115  -32.5501   23.1173 H   0  0  0  0  0  0
  -24.9902  -33.9776   25.0374 H   0  0  0  0  0  0
  -22.6997  -31.3049   21.4038 H   0  0  0  0  0  0
  -23.3755  -35.9745   23.3283 H   0  0  0  0  0  0
  -24.3638  -36.9011   22.2047 H   0  0  0  0  0  0
  -23.7331  -37.6609   23.6644 H   0  0  0  0  0  0
  -26.0502  -31.5859   20.5900 H   0  0  0  0  0  0
  -26.8279  -30.8820   21.9789 H   0  0  0  0  0  0
  -28.1056  -29.0787   21.1832 H   0  0  0  0  0  0
  -26.0599  -25.9401   19.0476 H   0  0  0  0  0  0
  -23.9827  -27.2830   19.0445 H   0  0  0  0  0  0
  -23.7267  -30.5875   19.3972 H   0  0  0  0  0  0
  -22.7485  -29.2325   19.8703 H   0  0  0  0  0  0
  -25.1330  -36.2013   25.0831 H   0  0  0  0  0  0
  -20.9971  -28.3223   24.1417 H   0  0  0  0  0  0
  -20.5654  -26.2269   23.3601 H   0  0  0  0  0  0
  -21.6648  -26.7409   22.1239 H   0  0  0  0  0  0
  -19.6914  -25.6295   21.1208 H   0  0  0  0  0  0
  -19.6705  -27.3200   20.6738 H   0  0  0  0  0  0
  -17.4217  -26.6636   21.4014 H   0  0  0  0  0  0
  -18.0353  -26.0043   22.9009 H   0  0  0  0  0  0
  -19.7939  -30.7217   24.2323 H   0  0  0  0  0  0
  -17.5019  -31.6242   24.5165 H   0  0  0  0  0  0
  -15.5357  -30.3001   23.7578 H   0  0  0  0  0  0
  -15.8667  -28.0805   22.7042 H   0  0  0  0  0  0
  -24.5842  -30.7122   25.7830 H   0  0  0  0  0  0
  -24.8884  -32.2958   26.4864 H   0  0  0  0  0  0
  -25.7983  -30.8980   27.0271 H   0  0  0  0  0  0
  -26.2790  -29.6850   24.1109 H   0  0  0  0  0  0
  -27.3901  -29.7212   25.4615 H   0  0  0  0  0  0
  -27.8680  -30.4346   23.9345 H   0  0  0  0  0  0
  -27.2648  -33.3593   26.2098 H   0  0  0  0  0  0
  -28.3786  -32.6900   25.0247 H   0  0  0  0  0  0
  -28.0745  -31.8401   26.5353 H   0  0  0  0  0  0
  -28.2630  -38.0159   24.7468 H   0  0  0  0  0  0
  -28.1102  -36.2685   24.6255 H   0  0  0  0  0  0
  -27.2310  -37.1504   25.8836 H   0  0  0  0  0  0
  -20.9295  -29.8791   21.6970 H   0  0  0  0  0  0
  -26.0241  -38.2882   24.1318 H   0  0  0  0  0  0
  -26.7818  -18.4312   21.7944 H   0  0  0  0  0  0
  -27.6153  -16.2087   21.1588 H   0  0  0  0  0  0
  -30.6180  -20.1516   20.8453 H   0  0  0  0  0  0
  -29.3216  -23.4535   22.6685 H   0  0  0  0  0  0
  -30.5652  -22.8819   21.5080 H   0  0  0  0  0  0
  -29.7709  -24.3385   19.8567 H   0  0  0  0  0  0
  -30.0481  -16.8911   18.1804 H   0  0  0  0  0  0
  -29.0247  -15.4828   18.0244 H   0  0  0  0  0  0
  -30.7792  -15.3211   17.9701 H   0  0  0  0  0  0
  -28.0716  -20.9684   22.8031 H   0  0  0  0  0  0
  -26.9550  -20.8354   21.4826 H   0  0  0  0  0  0
  -28.7421  -25.8059   21.9789 H   0  0  0  0  0  0
  -27.2477  -25.2543   21.3235 H   0  0  0  0  0  0
  1 25  1  0  0  0
  1 30  2  0  0  0
  1 84  1  0  0  0
  2  3  1  0  0  0
  2 25  1  0  0  0
  2 87  1  0  0  0
  2 88  1  0  0  0
  3  4  1  0  0  0
  3 89  1  0  0  0
  3 90  1  0  0  0
  4  5  1  0  0  0
  4 91  1  0  0  0
  4 92  1  0  0  0
  5  6  1  0  0  0
  5 26  1  0  0  0
  5 93  1  0  0  0
  6 25  1  0  0  0
  6 94  1  0  0  0
  6 95  1  0  0  0
  7  8  2  0  0  0
  7 26  1  0  0  0
  7 29  1  0  0  0
  8  9  1  0  0  0
  8 22  1  0  0  0
  9 10  1  0  0  0
  9 27  2  0  0  0
 10 11  2  0  0  0
 10 15  1  0  0  0
 11 12  1  0  0  0
 11 96  1  0  0  0
 12 13  2  0  0  0
 12 97  1  0  0  0
 13 14  1  0  0  0
 13 31  1  0  0  0
 14 15  2  0  0  0
 14 98  1  0  0  0
 15 99  1  0  0  0
 16 17  2  0  0  0
 16 21  1  0  0  0
 16 31  1  0  0  0
 17 18  1  0  0  0
 17100  1  0  0  0
 18 19  2  0  0  0
 18101  1  0  0  0
 19 20  1  0  0  0
 19 24  1  0  0  0
 20 21  2  0  0  0
 20102  1  0  0  0
 21 23  1  0  0  0
 22 28  1  0  0  0
 22 32  2  0  0  0
 26 27  1  0  0  0
 28103  1  0  0  0
 28104  1  0  0  0
 29105  1  0  0  0
 29106  1  0  0  0
 33 34  1  0  0  0
 33 66  1  0  0  0
 33 70  2  0  0  0
 34 36  1  0  0  0
 34 59  1  0  0  0
 34107  1  0  0  0
 35 44  2  0  0  0
 35 45  1  0  0  0
 35 68  1  0  0  0
 36 56  1  0  0  0
 36108  1  0  0  0
 37 39  1  0  0  0
 37 47  1  0  0  0
 37 66  1  0  0  0
 37109  1  0  0  0
 38 43  2  0  0  0
 38 46  1  0  0  0
 38 47  1  0  0  0
 39 64  1  0  0  0
 39 67  2  0  0  0
 40 52  1  0  0  0
 40 53  2  0  0  0
 40 58  1  0  0  0
 41110  1  0  0  0
 41111  1  0  0  0
 41112  1  0  0  0
 41 48  1  0  0  0
 42 43  1  0  0  0
 42 66  1  0  0  0
 42113  1  0  0  0
 42114  1  0  0  0
 43 44  1  0  0  0
 44115  1  0  0  0
 45 46  2  0  0  0
 45116  1  0  0  0
 46117  1  0  0  0
 47118  1  0  0  0
 47119  1  0  0  0
 48 56  1  0  0  0
 48 65  1  0  0  0
 48120  1  0  0  0
 49 50  1  0  0  0
 49 53  1  0  0  0
 49 64  1  0  0  0
 49121  1  0  0  0
 50 51  1  0  0  0
 50122  1  0  0  0
 50123  1  0  0  0
 51 52  1  0  0  0
 51124  1  0  0  0
 51125  1  0  0  0
 52126  1  0  0  0
 52127  1  0  0  0
 53 54  1  0  0  0
 54 55  2  0  0  0
 54128  1  0  0  0
 55 57  1  0  0  0
 55129  1  0  0  0
 56 69  2  0  0  0
 57 58  2  0  0  0
 57130  1  0  0  0
 58131  1  0  0  0
 59 60  1  0  0  0
 59 61  1  0  0  0
 59 62  1  0  0  0
 60132  1  0  0  0
 60133  1  0  0  0
 60134  1  0  0  0
 61135  1  0  0  0
 61136  1  0  0  0
 61137  1  0  0  0
 62138  1  0  0  0
 62139  1  0  0  0
 62140  1  0  0  0
 63 65  1  0  0  0
 63141  1  0  0  0
 63142  1  0  0  0
 63143  1  0  0  0
 64144  1  0  0  0
 65145  1  0  0  0
 68 82  1  0  0  0
 71 72  2  0  0  0
 71 74  1  0  0  0
 71146  1  0  0  0
 72 75  1  0  0  0
 72147  1  0  0  0
 73 74  2  0  0  0
 73 76  1  0  0  0
 73148  1  0  0  0
 74 81  1  0  0  0
 75 76  2  0  0  0
 75 84  1  0  0  0
 76 86  1  0  0  0
 77 79  1  0  0  0
 77 83  1  0  0  0
 77 85  2  0  0  0
 78 79  1  0  0  0
 78 83  1  0  0  0
 78149  1  0  0  0
 78150  1  0  0  0
 79 82  1  0  0  0
 79151  1  0  0  0
 80 84  1  0  0  0
 80152  1  0  0  0
 80153  1  0  0  0
 80154  1  0  0  0
 81 83  1  0  0  0
 81155  1  0  0  0
 81156  1  0  0  0
 82157  1  0  0  0
 82158  1  0  0  0
M  ISO  4   1 100  68 101  82 101  84 100
M  END
> <chiral flag>
0

> <version>
0

> <s_m_source_file>
/data/baiqing/PycharmProjects/Reinvent-master-3.2/result/LINK_invent/BTK/process_docking_weight1_custom_product_contain_oxygen_bond_distance_aromatic_linkinvent_7_9_3/rearranged_h_0020.sdf

> <i_m_source_file_index>
29

> <r_mmod_Potential_Energy-OPLS-2005>
187.21223449707

> <r_mmod_Stretch_Energy-OPLS-2005>
50.6908531188965

> <r_mmod_Bend_Energy-OPLS-2005>
114.990943908691

> <r_mmod_Torsional_Energy-OPLS-2005>
372.838653564453

> <r_mmod_Improper_Torsional_Energy-OPLS-2005>
29.6709384918213

> <r_mmod_Van_der_Waal_Energy-OPLS-2005>
132.55615234375

> <r_mmod_Electrostatic_Energy-OPLS-2005>
-340.427612304688

> <r_mmod_Solvation_Energy-OPLS-2005>
-216.344604492188

> <b_mmod_Minimization_Converged-OPLS-2005>
0

> <r_mmod_RMS_Derivative-OPLS-2005>
4.57394886016846

$$$$
29
                    3D
 Structure written by MMmdl.
157165  0  0  1  0            999 V2000
  -30.7845  -14.4522   20.5593 C   0  0  0  0  0  0
  -30.3981  -12.2972   19.4327 C   0  0  0  0  0  0
  -29.4898  -12.5017   18.2063 C   0  0  0  0  0  0
  -28.0097  -12.3713   18.6137 C   0  0  0  0  0  0
  -27.6558  -13.2187   19.8669 C   0  0  2  0  0  0
  -28.7004  -13.0302   20.9884 C   0  0  0  0  0  0
  -25.2578  -13.8188   20.5701 C   0  0  0  0  0  0
  -24.1835  -13.0442   20.9179 C   0  0  0  0  0  0
  -24.6395  -11.6912   20.8720 C   0  0  0  0  0  0
  -23.9064  -10.4296   21.0389 C   0  0  0  0  0  0
  -24.3612   -9.4214   21.9175 C   0  0  0  0  0  0
  -23.6290   -8.2244   22.0742 C   0  0  0  0  0  0
  -22.4275   -8.0281   21.3538 C   0  0  0  0  0  0
  -21.9909   -9.0249   20.4638 C   0  0  0  0  0  0
  -22.7228  -10.2136   20.3046 C   0  0  0  0  0  0
  -21.6852   -6.0730   22.5277 C   0  0  0  0  0  0
  -21.4017   -6.5636   23.8209 C   0  0  0  0  0  0
  -21.3667   -5.6790   24.9173 C   0  0  0  0  0  0
  -21.6046   -4.3050   24.7225 C   0  0  0  0  0  0
  -21.8818   -3.8143   23.4346 C   0  0  0  0  0  0
  -21.9196   -4.6959   22.3402 C   0  0  0  0  0  0
  -22.7860  -13.5233   21.1845 C   0  0  0  0  0  0
  -22.1662   -4.2148   21.0974 F   0  0  0  0  0  0
  -21.5635   -3.4533   25.7734 F   0  0  0  0  0  0
  -30.0295  -13.3223   20.4270 N   0  0  0  0  0  0
  -26.3014  -12.9373   20.3354 N   0  0  0  0  0  0
  -25.9335  -11.6523   20.5760 N   0  0  0  0  0  0
  -22.0499  -12.8226   22.0404 N   0  0  0  0  0  0
  -25.4291  -15.1900   20.4136 N   0  0  0  0  0  0
  -31.9288  -14.4970   20.0974 O   0  0  0  0  0  0
  -21.6640   -6.8878   21.4239 O   0  0  0  0  0  0
  -22.3550  -14.5538   20.6691 O   0  0  0  0  0  0
  -24.6159  -31.8674   23.2072 C   0  0  0  0  0  0
  -25.9048  -32.4827   23.8376 C   0  0  1  0  0  0
  -27.2363  -27.4381   20.1019 C   0  0  0  0  0  0
  -25.5887  -33.8617   24.2317 N   0  0  0  0  0  0
  -23.4017  -30.4908   21.5487 C   0  0  2  0  0  0
  -24.8447  -28.9537   20.1137 C   0  0  0  0  0  0
  -22.7422  -29.4659   22.4987 C   0  0  0  0  0  0
  -18.0270  -28.1369   22.8497 C   0  0  0  0  0  0
  -24.1476  -36.7319   23.2643 C   0  0  0  0  0  0
  -25.9269  -30.8358   21.3533 C   0  0  0  0  0  0
  -26.0031  -29.4698   20.7060 C   0  0  0  0  0  0
  -27.1997  -28.7211   20.6907 C   0  0  0  0  0  0
  -26.0581  -26.9317   19.5031 C   0  0  0  0  0  0
  -24.8670  -27.6863   19.5071 C   0  0  0  0  0  0
  -23.6058  -29.8199   20.1646 C   0  0  0  0  0  0
  -25.4103  -36.3118   24.0349 C   0  0  1  0  0  0
  -20.5854  -28.3657   23.1318 C   0  0  2  0  0  0
  -20.6756  -26.9391   22.5422 C   0  0  0  0  0  0
  -19.5728  -26.6381   21.5218 C   0  0  0  0  0  0
  -18.1904  -26.7920   22.1626 C   0  0  0  0  0  0
  -19.1520  -28.8836   23.2903 C   0  0  0  0  0  0
  -18.9451  -30.1443   23.8910 C   0  0  0  0  0  0
  -17.6456  -30.6584   24.0569 C   0  0  0  0  0  0
  -25.9026  -34.9484   23.5137 C   0  0  0  0  0  0
  -16.5351  -29.9095   23.6307 C   0  0  0  0  0  0
  -16.7258  -28.6500   23.0343 C   0  0  0  0  0  0
  -26.4455  -31.6592   25.0699 C   0  0  0  0  0  0
  -25.3714  -31.3707   26.1450 C   0  0  0  0  0  0
  -27.0284  -30.3043   24.6043 C   0  0  0  0  0  0
  -27.6027  -32.4315   25.7471 C   0  0  0  0  0  0
  -27.5557  -37.1835   24.8488 C   0  0  0  0  0  0
  -21.4142  -29.3028   22.3731 N   0  0  0  0  0  0
  -26.4300  -37.3795   23.9395 N   0  0  0  0  0  0
  -24.6668  -31.0821   22.0942 N   0  0  0  0  0  0
  -23.4198  -28.8189   23.3022 O   0  0  0  0  0  0
  -28.4279  -26.7417   20.1266 O   0  0  0  0  0  0
  -26.5606  -34.8935   22.4701 O   0  0  0  0  0  0
  -23.5369  -32.1403   23.7489 O   0  0  0  0  0  0
  -30.5663  -20.4402   21.3973 C   0  0  0  0  0  0
  -30.9575  -19.1001   21.1995 C   0  0  0  0  0  0
  -28.9046  -18.6773   19.9605 C   0  0  0  0  0  0
  -29.3381  -20.9144   20.8773 C   0  0  0  0  0  0
  -30.1367  -18.2139   20.4650 C   0  0  0  0  0  0
  -28.5018  -20.0153   20.1699 C   0  0  0  0  0  0
  -28.9179  -22.3392   21.1131 C   0  0  0  0  0  0
  -29.6265  -15.8821   22.2029 C   0  0  0  0  0  0
  -30.6541  -16.8203   20.1127 C   0  0  0  0  0  0
  -29.5968  -24.7370   20.8347 C   0  0  0  0  0  0
  -28.3923  -25.3126   20.0546 C   0  0  0  0  0  0
  -29.7664  -23.2863   20.6819 N   0  0  0  0  0  0
  -30.1630  -15.6281   20.8600 N   0  0  0  0  0  0
  -27.8516  -22.5998   21.6738 O   0  0  0  0  0  0
  -27.3225  -20.4329   19.6488 F   0  0  0  0  0  0
  -31.4462  -12.3356   19.1354 H   0  0  0  0  0  0
  -30.2546  -11.2994   19.8506 H   0  0  0  0  0  0
  -29.7287  -11.7742   17.4286 H   0  0  0  0  0  0
  -29.6699  -13.4868   17.7720 H   0  0  0  0  0  0
  -27.8127  -11.3164   18.8093 H   0  0  0  0  0  0
  -27.3650  -12.6511   17.7791 H   0  0  0  0  0  0
  -27.6912  -14.2645   19.5591 H   0  0  0  0  0  0
  -28.6792  -12.0048   21.3605 H   0  0  0  0  0  0
  -28.4461  -13.6478   21.8445 H   0  0  0  0  0  0
  -25.2762   -9.5701   22.4738 H   0  0  0  0  0  0
  -24.0007   -7.4649   22.7463 H   0  0  0  0  0  0
  -21.0841   -8.8762   19.8948 H   0  0  0  0  0  0
  -22.3684  -10.9661   19.6150 H   0  0  0  0  0  0
  -21.1999   -7.6142   23.9715 H   0  0  0  0  0  0
  -21.1496   -6.0516   25.9080 H   0  0  0  0  0  0
  -22.0590   -2.7604   23.2839 H   0  0  0  0  0  0
  -22.4121  -11.9906   22.4796 H   0  0  0  0  0  0
  -21.1120  -13.1254   22.2579 H   0  0  0  0  0  0
  -24.6663  -15.8484   20.5256 H   0  0  0  0  0  0
  -26.2939  -15.6297   20.1211 H   0  0  0  0  0  0
  -26.7119  -32.5532   23.1147 H   0  0  0  0  0  0
  -25.0061  -33.9747   25.0476 H   0  0  0  0  0  0
  -22.6891  -31.3066   21.4118 H   0  0  0  0  0  0
  -23.3733  -35.9659   23.3365 H   0  0  0  0  0  0
  -24.3556  -36.8869   22.2044 H   0  0  0  0  0  0
  -23.7250  -37.6549   23.6615 H   0  0  0  0  0  0
  -26.0347  -31.5959   20.5784 H   0  0  0  0  0  0
  -26.8194  -30.8956   21.9645 H   0  0  0  0  0  0
  -28.0977  -29.1173   21.1417 H   0  0  0  0  0  0
  -26.0453  -25.9617   19.0253 H   0  0  0  0  0  0
  -23.9763  -27.2858   19.0405 H   0  0  0  0  0  0
  -23.7063  -30.5907   19.4006 H   0  0  0  0  0  0
  -22.7289  -29.2379   19.8765 H   0  0  0  0  0  0
  -25.1293  -36.2004   25.0853 H   0  0  0  0  0  0
  -20.9945  -28.3229   24.1443 H   0  0  0  0  0  0
  -20.5647  -26.2275   23.3623 H   0  0  0  0  0  0
  -21.6626  -26.7424   22.1218 H   0  0  0  0  0  0
  -19.6897  -25.6303   21.1223 H   0  0  0  0  0  0
  -19.6666  -27.3217   20.6774 H   0  0  0  0  0  0
  -17.4181  -26.6669   21.4028 H   0  0  0  0  0  0
  -18.0290  -26.0063   22.9018 H   0  0  0  0  0  0
  -19.7938  -30.7239   24.2279 H   0  0  0  0  0  0
  -17.5026  -31.6259   24.5187 H   0  0  0  0  0  0
  -15.5348  -30.3023   23.7622 H   0  0  0  0  0  0
  -15.8643  -28.0838   22.7056 H   0  0  0  0  0  0
  -24.5908  -30.7021   25.7801 H   0  0  0  0  0  0
  -24.8882  -32.2857   26.4870 H   0  0  0  0  0  0
  -25.8069  -30.8914   27.0231 H   0  0  0  0  0  0
  -26.2802  -29.6824   24.1100 H   0  0  0  0  0  0
  -27.4077  -29.7253   25.4473 H   0  0  0  0  0  0
  -27.8632  -30.4397   23.9161 H   0  0  0  0  0  0
  -27.2629  -33.3609   26.2064 H   0  0  0  0  0  0
  -28.3822  -32.6888   25.0284 H   0  0  0  0  0  0
  -28.0707  -31.8435   26.5377 H   0  0  0  0  0  0
  -28.2681  -38.0016   24.7405 H   0  0  0  0  0  0
  -28.0938  -36.2565   24.6491 H   0  0  0  0  0  0
  -27.2254  -37.1706   25.8880 H   0  0  0  0  0  0
  -20.9312  -29.8766   21.6960 H   0  0  0  0  0  0
  -26.0210  -38.2903   24.1303 H   0  0  0  0  0  0
  -31.2206  -21.0996   21.9526 H   0  0  0  0  0  0
  -31.9098  -18.7627   21.5899 H   0  0  0  0  0  0
  -28.2777  -18.0190   19.3762 H   0  0  0  0  0  0
  -30.0759  -16.7598   22.6641 H   0  0  0  0  0  0
  -29.8252  -15.0590   22.8909 H   0  0  0  0  0  0
  -28.5488  -16.0397   22.1554 H   0  0  0  0  0  0
  -31.7410  -16.8848   20.2028 H   0  0  0  0  0  0
  -30.4718  -16.6581   19.0481 H   0  0  0  0  0  0
  -29.5003  -24.9814   21.8943 H   0  0  0  0  0  0
  -30.5131  -25.2206   20.4890 H   0  0  0  0  0  0
  -27.4727  -24.9150   20.4844 H   0  0  0  0  0  0
  -28.4302  -25.0060   19.0078 H   0  0  0  0  0  0
  -30.6093  -22.9670   20.2253 H   0  0  0  0  0  0
  1 25  1  0  0  0
  1 30  2  0  0  0
  1 83  1  0  0  0
  2  3  1  0  0  0
  2 25  1  0  0  0
  2 86  1  0  0  0
  2 87  1  0  0  0
  3  4  1  0  0  0
  3 88  1  0  0  0
  3 89  1  0  0  0
  4  5  1  0  0  0
  4 90  1  0  0  0
  4 91  1  0  0  0
  5  6  1  0  0  0
  5 26  1  0  0  0
  5 92  1  0  0  0
  6 25  1  0  0  0
  6 93  1  0  0  0
  6 94  1  0  0  0
  7  8  2  0  0  0
  7 26  1  0  0  0
  7 29  1  0  0  0
  8  9  1  0  0  0
  8 22  1  0  0  0
  9 10  1  0  0  0
  9 27  2  0  0  0
 10 11  2  0  0  0
 10 15  1  0  0  0
 11 12  1  0  0  0
 11 95  1  0  0  0
 12 13  2  0  0  0
 12 96  1  0  0  0
 13 14  1  0  0  0
 13 31  1  0  0  0
 14 15  2  0  0  0
 14 97  1  0  0  0
 15 98  1  0  0  0
 16 17  2  0  0  0
 16 21  1  0  0  0
 16 31  1  0  0  0
 17 18  1  0  0  0
 17 99  1  0  0  0
 18 19  2  0  0  0
 18100  1  0  0  0
 19 20  1  0  0  0
 19 24  1  0  0  0
 20 21  2  0  0  0
 20101  1  0  0  0
 21 23  1  0  0  0
 22 28  1  0  0  0
 22 32  2  0  0  0
 26 27  1  0  0  0
 28102  1  0  0  0
 28103  1  0  0  0
 29104  1  0  0  0
 29105  1  0  0  0
 33 34  1  0  0  0
 33 66  1  0  0  0
 33 70  2  0  0  0
 34 36  1  0  0  0
 34 59  1  0  0  0
 34106  1  0  0  0
 35 44  2  0  0  0
 35 45  1  0  0  0
 35 68  1  0  0  0
 36 56  1  0  0  0
 36107  1  0  0  0
 37 39  1  0  0  0
 37 47  1  0  0  0
 37 66  1  0  0  0
 37108  1  0  0  0
 38 43  2  0  0  0
 38 46  1  0  0  0
 38 47  1  0  0  0
 39 64  1  0  0  0
 39 67  2  0  0  0
 40 52  1  0  0  0
 40 53  2  0  0  0
 40 58  1  0  0  0
 41109  1  0  0  0
 41110  1  0  0  0
 41111  1  0  0  0
 41 48  1  0  0  0
 42 43  1  0  0  0
 42 66  1  0  0  0
 42112  1  0  0  0
 42113  1  0  0  0
 43 44  1  0  0  0
 44114  1  0  0  0
 45 46  2  0  0  0
 45115  1  0  0  0
 46116  1  0  0  0
 47117  1  0  0  0
 47118  1  0  0  0
 48 56  1  0  0  0
 48 65  1  0  0  0
 48119  1  0  0  0
 49 50  1  0  0  0
 49 53  1  0  0  0
 49 64  1  0  0  0
 49120  1  0  0  0
 50 51  1  0  0  0
 50121  1  0  0  0
 50122  1  0  0  0
 51 52  1  0  0  0
 51123  1  0  0  0
 51124  1  0  0  0
 52125  1  0  0  0
 52126  1  0  0  0
 53 54  1  0  0  0
 54 55  2  0  0  0
 54127  1  0  0  0
 55 57  1  0  0  0
 55128  1  0  0  0
 56 69  2  0  0  0
 57 58  2  0  0  0
 57129  1  0  0  0
 58130  1  0  0  0
 59 60  1  0  0  0
 59 61  1  0  0  0
 59 62  1  0  0  0
 60131  1  0  0  0
 60132  1  0  0  0
 60133  1  0  0  0
 61134  1  0  0  0
 61135  1  0  0  0
 61136  1  0  0  0
 62137  1  0  0  0
 62138  1  0  0  0
 62139  1  0  0  0
 63 65  1  0  0  0
 63140  1  0  0  0
 63141  1  0  0  0
 63142  1  0  0  0
 64143  1  0  0  0
 65144  1  0  0  0
 68 81  1  0  0  0
 71 72  2  0  0  0
 71 74  1  0  0  0
 71145  1  0  0  0
 72 75  1  0  0  0
 72146  1  0  0  0
 73 75  2  0  0  0
 73 76  1  0  0  0
 73147  1  0  0  0
 74 76  2  0  0  0
 74 77  1  0  0  0
 75 79  1  0  0  0
 76 85  1  0  0  0
 77 82  1  0  0  0
 77 84  2  0  0  0
 78 83  1  0  0  0
 78148  1  0  0  0
 78149  1  0  0  0
 78150  1  0  0  0
 79 83  1  0  0  0
 79151  1  0  0  0
 79152  1  0  0  0
 80 81  1  0  0  0
 80 82  1  0  0  0
 80153  1  0  0  0
 80154  1  0  0  0
 81155  1  0  0  0
 81156  1  0  0  0
 82157  1  0  0  0
M  ISO  4   1 100  68 101  81 101  83 100
M  END
> <chiral flag>
0

> <version>
0

> <s_m_source_file>
/data/baiqing/PycharmProjects/Reinvent-master-3.2/result/LINK_invent/BTK/process_docking_weight1_custom_product_contain_oxygen_bond_distance_aromatic_linkinvent_7_9_3/rearranged_h_0020.sdf

> <i_m_source_file_index>
30

> <r_mmod_Potential_Energy-OPLS-2005>
47.6719436645508

> <r_mmod_Stretch_Energy-OPLS-2005>
39.4560737609863

> <r_mmod_Bend_Energy-OPLS-2005>
110.309272766113

> <r_mmod_Torsional_Energy-OPLS-2005>
274.418792724609

> <r_mmod_Improper_Torsional_Energy-OPLS-2005>
12.2412738800049

> <r_mmod_Van_der_Waal_Energy-OPLS-2005>
163.428512573242

> <r_mmod_Electrostatic_Energy-OPLS-2005>
-351.035705566406

> <r_mmod_Solvation_Energy-OPLS-2005>
-219.443664550781

> <b_mmod_Minimization_Converged-OPLS-2005>
0

> <r_mmod_RMS_Derivative-OPLS-2005>
3.04301977157593

$$$$
30
                    3D
 Structure written by MMmdl.
170178  0  0  1  0            999 V2000
  -30.7312  -14.5663   20.4776 C   0  0  0  0  0  0
  -30.4017  -12.3249   19.5018 C   0  0  0  0  0  0
  -29.5194  -12.3970   18.2442 C   0  0  0  0  0  0
  -28.0202  -12.3336   18.6249 C   0  0  0  0  0  0
  -27.6277  -13.2239   19.8456 C   0  0  2  0  0  0
  -28.6720  -13.1623   20.9761 C   0  0  0  0  0  0
  -25.2379  -13.8130   20.5723 C   0  0  0  0  0  0
  -24.1720  -13.0348   20.9251 C   0  0  0  0  0  0
  -24.6337  -11.6844   20.8749 C   0  0  0  0  0  0
  -23.9027  -10.4263   21.0408 C   0  0  0  0  0  0
  -24.3572   -9.4191   21.9208 C   0  0  0  0  0  0
  -23.6274   -8.2201   22.0750 C   0  0  0  0  0  0
  -22.4262   -8.0238   21.3524 C   0  0  0  0  0  0
  -21.9888   -9.0226   20.4635 C   0  0  0  0  0  0
  -22.7196  -10.2114   20.3077 C   0  0  0  0  0  0
  -21.6848   -6.0738   22.5284 C   0  0  0  0  0  0
  -21.4030   -6.5654   23.8239 C   0  0  0  0  0  0
  -21.3644   -5.6802   24.9189 C   0  0  0  0  0  0
  -21.6034   -4.3072   24.7233 C   0  0  0  0  0  0
  -21.8815   -3.8158   23.4375 C   0  0  0  0  0  0
  -21.9194   -4.6968   22.3416 C   0  0  0  0  0  0
  -22.7734  -13.5145   21.1871 C   0  0  0  0  0  0
  -22.1671   -4.2156   21.0997 F   0  0  0  0  0  0
  -21.5597   -3.4544   25.7749 F   0  0  0  0  0  0
  -29.9809  -13.4313   20.3766 N   0  0  0  0  0  0
  -26.2836  -12.9343   20.3290 N   0  0  0  0  0  0
  -25.9258  -11.6490   20.5733 N   0  0  0  0  0  0
  -22.0380  -12.8244   22.0490 N   0  0  0  0  0  0
  -25.3873  -15.1853   20.4124 N   0  0  0  0  0  0
  -31.9552  -14.4847   20.3663 O   0  0  0  0  0  0
  -21.6611   -6.8846   21.4234 O   0  0  0  0  0  0
  -22.3393  -14.5388   20.6591 O   0  0  0  0  0  0
  -24.6128  -31.8759   23.2105 C   0  0  0  0  0  0
  -25.9034  -32.4873   23.8399 C   0  0  1  0  0  0
  -27.2267  -27.4450   20.0822 C   0  0  0  0  0  0
  -25.5870  -33.8640   24.2351 N   0  0  0  0  0  0
  -23.4038  -30.5109   21.5520 C   0  0  2  0  0  0
  -24.8475  -28.9681   20.1109 C   0  0  0  0  0  0
  -22.7392  -29.4846   22.5002 C   0  0  0  0  0  0
  -18.0279  -28.1293   22.8629 C   0  0  0  0  0  0
  -24.1478  -36.7301   23.2640 C   0  0  0  0  0  0
  -25.9315  -30.8401   21.3639 C   0  0  0  0  0  0
  -26.0093  -29.4738   20.7080 C   0  0  0  0  0  0
  -27.2067  -28.7172   20.6964 C   0  0  0  0  0  0
  -26.0577  -26.9673   19.4541 C   0  0  0  0  0  0
  -24.8636  -27.7090   19.4854 C   0  0  0  0  0  0
  -23.6098  -29.8353   20.1697 C   0  0  0  0  0  0
  -25.4108  -36.3152   24.0355 C   0  0  1  0  0  0
  -20.5848  -28.3742   23.1063 C   0  0  2  0  0  0
  -20.6949  -26.9664   22.4686 C   0  0  0  0  0  0
  -19.5481  -26.6016   21.5198 C   0  0  0  0  0  0
  -18.1881  -26.7677   22.1949 C   0  0  0  0  0  0
  -19.1507  -28.8840   23.2861 C   0  0  0  0  0  0
  -18.9424  -30.1488   23.8779 C   0  0  0  0  0  0
  -17.6427  -30.6630   24.0428 C   0  0  0  0  0  0
  -25.9021  -34.9530   23.5170 C   0  0  0  0  0  0
  -16.5302  -29.9111   23.6242 C   0  0  0  0  0  0
  -16.7248  -28.6411   23.0520 C   0  0  0  0  0  0
  -26.4460  -31.6650   25.0728 C   0  0  0  0  0  0
  -25.3754  -31.3653   26.1482 C   0  0  0  0  0  0
  -27.0275  -30.3115   24.6076 C   0  0  0  0  0  0
  -27.6037  -32.4337   25.7481 C   0  0  0  0  0  0
  -27.5588  -37.1851   24.8493 C   0  0  0  0  0  0
  -21.4091  -29.3443   22.3871 N   0  0  0  0  0  0
  -26.4299  -37.3847   23.9423 N   0  0  0  0  0  0
  -24.6676  -31.0866   22.1011 N   0  0  0  0  0  0
  -23.4157  -28.8214   23.2909 O   0  0  0  0  0  0
  -28.3400  -26.6325   20.1360 O   0  0  0  0  0  0
  -26.5614  -34.8967   22.4763 O   0  0  0  0  0  0
  -23.5335  -32.1522   23.7521 O   0  0  0  0  0  0
  -26.7710  -18.6812   19.4530 C   0  0  0  0  0  0
  -27.6031  -17.6266   19.8745 C   0  0  0  0  0  0
  -27.0297  -20.0045   19.8548 C   0  0  0  0  0  0
  -28.9563  -19.2186   21.1104 C   0  0  0  0  0  0
  -28.6910  -17.8695   20.7278 C   0  0  0  0  0  0
  -28.1502  -20.3203   20.6707 C   0  0  0  0  0  0
  -30.1611  -18.1853   17.3113 C   0  0  0  0  0  0
  -28.9980  -15.9274   17.3773 C   0  0  0  0  0  0
  -29.0367  -21.8952   22.3459 C   0  0  0  0  0  0
  -29.5360  -16.6525   21.2093 C   0  0  0  0  0  0
  -28.6022  -24.1053   20.1590 C   0  0  0  0  0  0
  -27.7264  -22.8351   20.4532 C   0  0  0  0  0  0
  -30.8574  -16.6190   19.1601 C   0  0  0  0  0  0
  -28.0773  -25.3991   20.8376 C   0  0  0  0  0  0
  -30.2839  -16.7076   17.7159 C   0  0  0  0  0  0
  -28.4524  -21.6754   21.0229 N   0  0  0  0  0  0
  -30.1368  -15.7699   20.1590 N   0  0  0  0  0  0
  -31.4563  -12.3780   19.2304 H   0  0  0  0  0  0
  -30.2646  -11.3685   20.0131 H   0  0  0  0  0  0
  -29.7618  -11.5671   17.5758 H   0  0  0  0  0  0
  -29.7590  -13.2958   17.6819 H   0  0  0  0  0  0
  -27.7993  -11.2913   18.8615 H   0  0  0  0  0  0
  -27.4091  -12.5841   17.7551 H   0  0  0  0  0  0
  -27.5965  -14.2528   19.5030 H   0  0  0  0  0  0
  -28.6607  -12.1949   21.4783 H   0  0  0  0  0  0
  -28.4338  -13.8967   21.7449 H   0  0  0  0  0  0
  -25.2685   -9.5696   22.4839 H   0  0  0  0  0  0
  -23.9953   -7.4621   22.7514 H   0  0  0  0  0  0
  -21.0802   -8.8837   19.8960 H   0  0  0  0  0  0
  -22.3674  -10.9702   19.6253 H   0  0  0  0  0  0
  -21.2047   -7.6166   23.9764 H   0  0  0  0  0  0
  -21.1452   -6.0519   25.9098 H   0  0  0  0  0  0
  -22.0586   -2.7615   23.2885 H   0  0  0  0  0  0
  -22.3918  -11.9965   22.5062 H   0  0  0  0  0  0
  -21.1033  -13.1423   22.2606 H   0  0  0  0  0  0
  -24.6032  -15.8232   20.4888 H   0  0  0  0  0  0
  -26.2236  -15.6393   20.0722 H   0  0  0  0  0  0
  -26.7092  -32.5630   23.1146 H   0  0  0  0  0  0
  -24.9920  -33.9806   25.0420 H   0  0  0  0  0  0
  -22.7041  -31.3382   21.4071 H   0  0  0  0  0  0
  -23.3751  -35.9618   23.3324 H   0  0  0  0  0  0
  -24.3547  -36.8910   22.2044 H   0  0  0  0  0  0
  -23.7209  -37.6509   23.6630 H   0  0  0  0  0  0
  -26.0549  -31.6034   20.5946 H   0  0  0  0  0  0
  -26.8175  -30.8908   21.9873 H   0  0  0  0  0  0
  -28.0945  -29.0958   21.1836 H   0  0  0  0  0  0
  -26.0605  -26.0023   18.9635 H   0  0  0  0  0  0
  -23.9686  -27.3192   19.0185 H   0  0  0  0  0  0
  -23.7258  -30.6030   19.4051 H   0  0  0  0  0  0
  -22.7288  -29.2575   19.8789 H   0  0  0  0  0  0
  -25.1285  -36.2029   25.0835 H   0  0  0  0  0  0
  -20.9946  -28.2932   24.1139 H   0  0  0  0  0  0
  -20.7118  -26.2334   23.2723 H   0  0  0  0  0  0
  -21.6435  -26.8357   21.9522 H   0  0  0  0  0  0
  -19.6651  -25.5726   21.1812 H   0  0  0  0  0  0
  -19.5902  -27.2142   20.6186 H   0  0  0  0  0  0
  -17.3976  -26.6065   21.4629 H   0  0  0  0  0  0
  -18.0740  -25.9935   22.9528 H   0  0  0  0  0  0
  -19.7824  -30.7495   24.1988 H   0  0  0  0  0  0
  -17.5002  -31.6439   24.4711 H   0  0  0  0  0  0
  -15.5338  -30.3138   23.7428 H   0  0  0  0  0  0
  -15.8647  -28.0662   22.7443 H   0  0  0  0  0  0
  -24.5894  -30.7060   25.7779 H   0  0  0  0  0  0
  -24.8980  -32.2763   26.5067 H   0  0  0  0  0  0
  -25.8123  -30.8703   27.0167 H   0  0  0  0  0  0
  -26.2796  -29.6857   24.1199 H   0  0  0  0  0  0
  -27.4122  -29.7352   25.4502 H   0  0  0  0  0  0
  -27.8569  -30.4417   23.9133 H   0  0  0  0  0  0
  -27.2655  -33.3558   26.2157 H   0  0  0  0  0  0
  -28.3756  -32.7019   25.0277 H   0  0  0  0  0  0
  -28.0782  -31.8448   26.5343 H   0  0  0  0  0  0
  -28.2680  -38.0088   24.7535 H   0  0  0  0  0  0
  -28.1055  -36.2667   24.6327 H   0  0  0  0  0  0
  -27.2343  -37.1448   25.8911 H   0  0  0  0  0  0
  -20.9121  -29.9790   21.7743 H   0  0  0  0  0  0
  -26.0199  -38.2939   24.1382 H   0  0  0  0  0  0
  -25.9307  -18.4688   18.8060 H   0  0  0  0  0  0
  -27.4139  -16.6210   19.5417 H   0  0  0  0  0  0
  -26.3289  -20.7538   19.5200 H   0  0  0  0  0  0
  -29.8080  -19.4013   21.7487 H   0  0  0  0  0  0
  -31.0836  -18.7283   17.5246 H   0  0  0  0  0  0
  -29.3597  -18.6688   17.8718 H   0  0  0  0  0  0
  -29.9521  -18.2984   16.2455 H   0  0  0  0  0  0
  -28.1158  -16.5664   17.3183 H   0  0  0  0  0  0
  -28.7958  -15.1492   18.0915 H   0  0  0  0  0  0
  -29.0784  -15.4172   16.4195 H   0  0  0  0  0  0
  -30.0384  -21.4693   22.4094 H   0  0  0  0  0  0
  -28.4232  -21.4464   23.1320 H   0  0  0  0  0  0
  -29.1155  -22.9647   22.5704 H   0  0  0  0  0  0
  -28.8968  -16.0598   21.8587 H   0  0  0  0  0  0
  -30.3403  -17.0212   21.8520 H   0  0  0  0  0  0
  -28.6113  -24.2580   19.0790 H   0  0  0  0  0  0
  -29.6452  -23.9472   20.4347 H   0  0  0  0  0  0
  -27.2005  -22.5896   19.5317 H   0  0  0  0  0  0
  -26.9350  -23.0975   21.1507 H   0  0  0  0  0  0
  -31.0258  -17.6128   19.5725 H   0  0  0  0  0  0
  -31.8918  -16.3075   19.0144 H   0  0  0  0  0  0
  -28.5227  -25.4877   21.8287 H   0  0  0  0  0  0
  -27.0081  -25.2758   21.0484 H   0  0  0  0  0  0
  -31.0552  -16.2721   17.0721 H   0  0  0  0  0  0
  1 25  1  0  0  0
  1 30  2  0  0  0
  1 87  1  0  0  0
  2  3  1  0  0  0
  2 25  1  0  0  0
  2 88  1  0  0  0
  2 89  1  0  0  0
  3  4  1  0  0  0
  3 90  1  0  0  0
  3 91  1  0  0  0
  4  5  1  0  0  0
  4 92  1  0  0  0
  4 93  1  0  0  0
  5  6  1  0  0  0
  5 26  1  0  0  0
  5 94  1  0  0  0
  6 25  1  0  0  0
  6 95  1  0  0  0
  6 96  1  0  0  0
  7  8  2  0  0  0
  7 26  1  0  0  0
  7 29  1  0  0  0
  8  9  1  0  0  0
  8 22  1  0  0  0
  9 10  1  0  0  0
  9 27  2  0  0  0
 10 11  2  0  0  0
 10 15  1  0  0  0
 11 12  1  0  0  0
 11 97  1  0  0  0
 12 13  2  0  0  0
 12 98  1  0  0  0
 13 14  1  0  0  0
 13 31  1  0  0  0
 14 15  2  0  0  0
 14 99  1  0  0  0
 15100  1  0  0  0
 16 17  2  0  0  0
 16 21  1  0  0  0
 16 31  1  0  0  0
 17 18  1  0  0  0
 17101  1  0  0  0
 18 19  2  0  0  0
 18102  1  0  0  0
 19 20  1  0  0  0
 19 24  1  0  0  0
 20 21  2  0  0  0
 20103  1  0  0  0
 21 23  1  0  0  0
 22 28  1  0  0  0
 22 32  2  0  0  0
 26 27  1  0  0  0
 28104  1  0  0  0
 28105  1  0  0  0
 29106  1  0  0  0
 29107  1  0  0  0
 33 34  1  0  0  0
 33 66  1  0  0  0
 33 70  2  0  0  0
 34 36  1  0  0  0
 34 59  1  0  0  0
 34108  1  0  0  0
 35 44  2  0  0  0
 35 45  1  0  0  0
 35 68  1  0  0  0
 36 56  1  0  0  0
 36109  1  0  0  0
 37 39  1  0  0  0
 37 47  1  0  0  0
 37 66  1  0  0  0
 37110  1  0  0  0
 38 43  2  0  0  0
 38 46  1  0  0  0
 38 47  1  0  0  0
 39 64  1  0  0  0
 39 67  2  0  0  0
 40 52  1  0  0  0
 40 53  2  0  0  0
 40 58  1  0  0  0
 41111  1  0  0  0
 41112  1  0  0  0
 41113  1  0  0  0
 41 48  1  0  0  0
 42 43  1  0  0  0
 42 66  1  0  0  0
 42114  1  0  0  0
 42115  1  0  0  0
 43 44  1  0  0  0
 44116  1  0  0  0
 45 46  2  0  0  0
 45117  1  0  0  0
 46118  1  0  0  0
 47119  1  0  0  0
 47120  1  0  0  0
 48 56  1  0  0  0
 48 65  1  0  0  0
 48121  1  0  0  0
 49 50  1  0  0  0
 49 53  1  0  0  0
 49 64  1  0  0  0
 49122  1  0  0  0
 50 51  1  0  0  0
 50123  1  0  0  0
 50124  1  0  0  0
 51 52  1  0  0  0
 51125  1  0  0  0
 51126  1  0  0  0
 52127  1  0  0  0
 52128  1  0  0  0
 53 54  1  0  0  0
 54 55  2  0  0  0
 54129  1  0  0  0
 55 57  1  0  0  0
 55130  1  0  0  0
 56 69  2  0  0  0
 57 58  2  0  0  0
 57131  1  0  0  0
 58132  1  0  0  0
 59 60  1  0  0  0
 59 61  1  0  0  0
 59 62  1  0  0  0
 60133  1  0  0  0
 60134  1  0  0  0
 60135  1  0  0  0
 61136  1  0  0  0
 61137  1  0  0  0
 61138  1  0  0  0
 62139  1  0  0  0
 62140  1  0  0  0
 62141  1  0  0  0
 63 65  1  0  0  0
 63142  1  0  0  0
 63143  1  0  0  0
 63144  1  0  0  0
 64145  1  0  0  0
 65146  1  0  0  0
 68 84  1  0  0  0
 71 72  2  0  0  0
 71 73  1  0  0  0
 71147  1  0  0  0
 72 75  1  0  0  0
 72148  1  0  0  0
 73 76  2  0  0  0
 73149  1  0  0  0
 74 75  2  0  0  0
 74 76  1  0  0  0
 74150  1  0  0  0
 75 80  1  0  0  0
 76 86  1  0  0  0
 77151  1  0  0  0
 77152  1  0  0  0
 77153  1  0  0  0
 77 85  1  0  0  0
 78 85  1  0  0  0
 78154  1  0  0  0
 78155  1  0  0  0
 78156  1  0  0  0
 79 86  1  0  0  0
 79157  1  0  0  0
 79158  1  0  0  0
 79159  1  0  0  0
 80 87  1  0  0  0
 80160  1  0  0  0
 80161  1  0  0  0
 81 82  1  0  0  0
 81 84  1  0  0  0
 81162  1  0  0  0
 81163  1  0  0  0
 82 86  1  0  0  0
 82164  1  0  0  0
 82165  1  0  0  0
 83 85  1  0  0  0
 83 87  1  0  0  0
 83166  1  0  0  0
 83167  1  0  0  0
 84168  1  0  0  0
 84169  1  0  0  0
 85170  1  0  0  0
M  ISO  4   1 100  68 101  84 101  87 100
M  END
> <chiral flag>
0

> <version>
0

> <s_m_source_file>
/data/baiqing/PycharmProjects/Reinvent-master-3.2/result/LINK_invent/BTK/process_docking_weight1_custom_product_contain_oxygen_bond_distance_aromatic_linkinvent_7_9_3/rearranged_h_0020.sdf

> <i_m_source_file_index>
31

> <r_mmod_Potential_Energy-OPLS-2005>
279.765991210938

> <r_mmod_Stretch_Energy-OPLS-2005>
58.6591110229492

> <r_mmod_Bend_Energy-OPLS-2005>
145.554458618164

> <r_mmod_Torsional_Energy-OPLS-2005>
344.971252441406

> <r_mmod_Improper_Torsional_Energy-OPLS-2005>
23.6502895355225

> <r_mmod_Van_der_Waal_Energy-OPLS-2005>
170.531021118164

> <r_mmod_Electrostatic_Energy-OPLS-2005>
-315.1611328125

> <r_mmod_Solvation_Energy-OPLS-2005>
-199.633529663086

> <b_mmod_Minimization_Converged-OPLS-2005>
0

> <r_mmod_RMS_Derivative-OPLS-2005>
9.75421047210693

$$$$
31
                    3D
 Structure written by MMmdl.
164173  0  0  1  0            999 V2000
  -30.7703  -14.4222   20.6052 C   0  0  0  0  0  0
  -30.4012  -12.2897   19.4305 C   0  0  0  0  0  0
  -29.4821  -12.4902   18.2094 C   0  0  0  0  0  0
  -28.0026  -12.3728   18.6187 C   0  0  0  0  0  0
  -27.6548  -13.2150   19.8750 C   0  0  2  0  0  0
  -28.6928  -13.0048   20.9969 C   0  0  0  0  0  0
  -25.2543  -13.8194   20.5699 C   0  0  0  0  0  0
  -24.1809  -13.0444   20.9205 C   0  0  0  0  0  0
  -24.6388  -11.6920   20.8766 C   0  0  0  0  0  0
  -23.9075  -10.4295   21.0411 C   0  0  0  0  0  0
  -24.3623   -9.4218   21.9189 C   0  0  0  0  0  0
  -23.6318   -8.2242   22.0735 C   0  0  0  0  0  0
  -22.4303   -8.0273   21.3540 C   0  0  0  0  0  0
  -21.9934   -9.0244   20.4643 C   0  0  0  0  0  0
  -22.7247  -10.2142   20.3068 C   0  0  0  0  0  0
  -21.6855   -6.0745   22.5281 C   0  0  0  0  0  0
  -21.4003   -6.5647   23.8213 C   0  0  0  0  0  0
  -21.3666   -5.6802   24.9172 C   0  0  0  0  0  0
  -21.6055   -4.3064   24.7223 C   0  0  0  0  0  0
  -21.8823   -3.8156   23.4340 C   0  0  0  0  0  0
  -21.9201   -4.6978   22.3400 C   0  0  0  0  0  0
  -22.7833  -13.5210   21.1895 C   0  0  0  0  0  0
  -22.1671   -4.2164   21.0981 F   0  0  0  0  0  0
  -21.5655   -3.4547   25.7734 F   0  0  0  0  0  0
  -30.0257  -13.2925   20.4440 N   0  0  0  0  0  0
  -26.2976  -12.9378   20.3384 N   0  0  0  0  0  0
  -25.9321  -11.6532   20.5805 N   0  0  0  0  0  0
  -22.0550  -12.8144   22.0467 N   0  0  0  0  0  0
  -25.4298  -15.1889   20.4077 N   0  0  0  0  0  0
  -31.9039  -14.5114   20.1210 O   0  0  0  0  0  0
  -21.6663   -6.8880   21.4235 O   0  0  0  0  0  0
  -22.3496  -14.5516   20.6771 O   0  0  0  0  0  0
  -24.6126  -31.8687   23.2094 C   0  0  0  0  0  0
  -25.9016  -32.4816   23.8390 C   0  0  1  0  0  0
  -27.2282  -27.4519   20.0915 C   0  0  0  0  0  0
  -25.5891  -33.8616   24.2331 N   0  0  0  0  0  0
  -23.3976  -30.4952   21.5496 C   0  0  2  0  0  0
  -24.8394  -28.9656   20.1096 C   0  0  0  0  0  0
  -22.7400  -29.4651   22.4968 C   0  0  0  0  0  0
  -18.0274  -28.1351   22.8503 C   0  0  0  0  0  0
  -24.1500  -36.7346   23.2646 C   0  0  0  0  0  0
  -25.9205  -30.8428   21.3551 C   0  0  0  0  0  0
  -25.9955  -29.4772   20.7066 C   0  0  0  0  0  0
  -27.1889  -28.7261   20.6980 C   0  0  0  0  0  0
  -26.0476  -26.9481   19.4952 C   0  0  0  0  0  0
  -24.8583  -27.7003   19.5003 C   0  0  0  0  0  0
  -23.6038  -29.8344   20.1599 C   0  0  0  0  0  0
  -25.4106  -36.3114   24.0351 C   0  0  1  0  0  0
  -20.5859  -28.3630   23.1322 C   0  0  2  0  0  0
  -20.6750  -26.9369   22.5416 C   0  0  0  0  0  0
  -19.5717  -26.6352   21.5221 C   0  0  0  0  0  0
  -18.1908  -26.7887   22.1659 C   0  0  0  0  0  0
  -19.1521  -28.8810   23.2919 C   0  0  0  0  0  0
  -18.9453  -30.1409   23.8928 C   0  0  0  0  0  0
  -17.6451  -30.6554   24.0562 C   0  0  0  0  0  0
  -25.9034  -34.9475   23.5139 C   0  0  0  0  0  0
  -16.5340  -29.9068   23.6304 C   0  0  0  0  0  0
  -16.7266  -28.6490   23.0320 C   0  0  0  0  0  0
  -26.4473  -31.6563   25.0686 C   0  0  0  0  0  0
  -25.3776  -31.3620   26.1458 C   0  0  0  0  0  0
  -27.0287  -30.3030   24.5964 C   0  0  0  0  0  0
  -27.6065  -32.4261   25.7427 C   0  0  0  0  0  0
  -27.5579  -37.1831   24.8458 C   0  0  0  0  0  0
  -21.4121  -29.3027   22.3750 N   0  0  0  0  0  0
  -26.4291  -37.3790   23.9395 N   0  0  0  0  0  0
  -24.6629  -31.0807   22.0989 N   0  0  0  0  0  0
  -23.4190  -28.8188   23.2991 O   0  0  0  0  0  0
  -28.4308  -26.7737   20.1110 O   0  0  0  0  0  0
  -26.5591  -34.8935   22.4695 O   0  0  0  0  0  0
  -23.5324  -32.1419   23.7517 O   0  0  0  0  0  0
  -30.4889  -20.4022   21.2768 C   0  0  0  0  0  0
  -30.7343  -19.0171   21.3199 C   0  0  0  0  0  0
  -28.8064  -18.6208   19.8834 C   0  0  0  0  0  0
  -29.4532  -20.9006   20.4646 C   0  0  0  0  0  0
  -29.9448  -18.1311   20.5559 C   0  0  0  0  0  0
  -28.5639  -20.0080   19.8249 C   0  0  0  0  0  0
  -29.9485  -22.6641   18.9454 C   0  0  0  0  0  0
  -29.4373  -22.3394   20.1515 C   0  0  0  0  0  0
  -30.2024  -24.0254   18.3224 C   0  0  0  0  0  0
  -28.9536  -23.3555   21.1805 C   0  0  0  0  0  0
  -29.9877  -25.2419   19.2259 C   0  0  0  0  0  0
  -27.9726  -24.4240   20.6427 C   0  0  0  0  0  0
  -28.5169  -25.4417   19.6070 C   0  0  1  0  0  0
  -29.7970  -15.7886   22.4003 C   0  0  0  0  0  0
  -30.5050  -16.7574   20.2131 C   0  0  0  0  0  0
  -30.1261  -15.5559   20.9882 N   0  0  0  0  0  0
  -27.5392  -20.4786   19.0731 F   0  0  0  0  0  0
  -31.4470  -12.3570   19.1242 H   0  0  0  0  0  0
  -30.2819  -11.2879   19.8427 H   0  0  0  0  0  0
  -29.7126  -11.7544   17.4378 H   0  0  0  0  0  0
  -29.6592  -13.4699   17.7637 H   0  0  0  0  0  0
  -27.7889  -11.3209   18.8105 H   0  0  0  0  0  0
  -27.3577  -12.6606   17.7860 H   0  0  0  0  0  0
  -27.7023  -14.2620   19.5773 H   0  0  0  0  0  0
  -28.6682  -11.9763   21.3535 H   0  0  0  0  0  0
  -28.4401  -13.6178   21.8578 H   0  0  0  0  0  0
  -25.2777   -9.5698   22.4754 H   0  0  0  0  0  0
  -24.0064   -7.4620   22.7412 H   0  0  0  0  0  0
  -21.0890   -8.8757   19.8912 H   0  0  0  0  0  0
  -22.3711  -10.9681   19.6174 H   0  0  0  0  0  0
  -21.1968   -7.6156   23.9720 H   0  0  0  0  0  0
  -21.1495   -6.0531   25.9080 H   0  0  0  0  0  0
  -22.0597   -2.7624   23.2833 H   0  0  0  0  0  0
  -22.4215  -11.9772   22.4744 H   0  0  0  0  0  0
  -21.1162  -13.1096   22.2750 H   0  0  0  0  0  0
  -24.6609  -15.8438   20.4853 H   0  0  0  0  0  0
  -26.2937  -15.6209   20.1019 H   0  0  0  0  0  0
  -26.7090  -32.5572   23.1167 H   0  0  0  0  0  0
  -24.9990  -33.9765   25.0444 H   0  0  0  0  0  0
  -22.6853  -31.3117   21.4162 H   0  0  0  0  0  0
  -23.3732  -35.9708   23.3293 H   0  0  0  0  0  0
  -24.3609  -36.8965   22.2062 H   0  0  0  0  0  0
  -23.7289  -37.6571   23.6660 H   0  0  0  0  0  0
  -26.0269  -31.6052   20.5824 H   0  0  0  0  0  0
  -26.8128  -30.9019   21.9654 H   0  0  0  0  0  0
  -28.0832  -29.1175   21.1613 H   0  0  0  0  0  0
  -26.0100  -25.9821   19.0173 H   0  0  0  0  0  0
  -23.9688  -27.3064   19.0285 H   0  0  0  0  0  0
  -23.7155  -30.6117   19.4030 H   0  0  0  0  0  0
  -22.7256  -29.2600   19.8631 H   0  0  0  0  0  0
  -25.1293  -36.1981   25.0846 H   0  0  0  0  0  0
  -20.9980  -28.3185   24.1426 H   0  0  0  0  0  0
  -20.5637  -26.2245   23.3610 H   0  0  0  0  0  0
  -21.6623  -26.7381   22.1222 H   0  0  0  0  0  0
  -19.6844  -25.6271   21.1234 H   0  0  0  0  0  0
  -19.6635  -27.3161   20.6755 H   0  0  0  0  0  0
  -17.4177  -26.6607   21.4063 H   0  0  0  0  0  0
  -18.0344  -26.0030   22.9082 H   0  0  0  0  0  0
  -19.7924  -30.7215   24.2305 H   0  0  0  0  0  0
  -17.4998  -31.6232   24.5172 H   0  0  0  0  0  0
  -15.5335  -30.2970   23.7586 H   0  0  0  0  0  0
  -15.8678  -28.0809   22.6983 H   0  0  0  0  0  0
  -24.5935  -30.6985   25.7795 H   0  0  0  0  0  0
  -24.8994  -32.2759   26.4989 H   0  0  0  0  0  0
  -25.8186  -30.8724   27.0145 H   0  0  0  0  0  0
  -26.2773  -29.6769   24.1135 H   0  0  0  0  0  0
  -27.4243  -29.7277   25.4338 H   0  0  0  0  0  0
  -27.8532  -30.4380   23.8956 H   0  0  0  0  0  0
  -27.2689  -33.3523   26.2069 H   0  0  0  0  0  0
  -28.3834  -32.6859   25.0233 H   0  0  0  0  0  0
  -28.0761  -31.8330   26.5271 H   0  0  0  0  0  0
  -28.2616  -38.0112   24.7488 H   0  0  0  0  0  0
  -28.1074  -36.2655   24.6314 H   0  0  0  0  0  0
  -27.2308  -37.1504   25.8866 H   0  0  0  0  0  0
  -20.9242  -29.8857   21.7099 H   0  0  0  0  0  0
  -26.0195  -38.2885   24.1348 H   0  0  0  0  0  0
  -31.1739  -21.0805   21.7651 H   0  0  0  0  0  0
  -31.6178  -18.6592   21.8308 H   0  0  0  0  0  0
  -28.1871  -17.9572   19.2996 H   0  0  0  0  0  0
  -30.2765  -21.8525   18.3070 H   0  0  0  0  0  0
  -29.5804  -24.1148   17.4307 H   0  0  0  0  0  0
  -31.2346  -24.0276   17.9709 H   0  0  0  0  0  0
  -29.8074  -23.7994   21.6911 H   0  0  0  0  0  0
  -28.4220  -22.7947   21.9518 H   0  0  0  0  0  0
  -30.3101  -26.1160   18.6593 H   0  0  0  0  0  0
  -30.6323  -25.2109   20.1038 H   0  0  0  0  0  0
  -27.5747  -24.9703   21.4993 H   0  0  0  0  0  0
  -27.1100  -23.9147   20.2097 H   0  0  0  0  0  0
  -27.9606  -25.3536   18.6749 H   0  0  0  0  0  0
  -29.8818  -14.8859   23.0062 H   0  0  0  0  0  0
  -30.4714  -16.5199   22.8417 H   0  0  0  0  0  0
  -28.7766  -16.1625   22.4957 H   0  0  0  0  0  0
  -31.5898  -16.8848   20.2442 H   0  0  0  0  0  0
  -30.2791  -16.5668   19.1621 H   0  0  0  0  0  0
  1 25  1  0  0  0
  1 30  2  0  0  0
  1 86  1  0  0  0
  2  3  1  0  0  0
  2 25  1  0  0  0
  2 88  1  0  0  0
  2 89  1  0  0  0
  3  4  1  0  0  0
  3 90  1  0  0  0
  3 91  1  0  0  0
  4  5  1  0  0  0
  4 92  1  0  0  0
  4 93  1  0  0  0
  5  6  1  0  0  0
  5 26  1  0  0  0
  5 94  1  0  0  0
  6 25  1  0  0  0
  6 95  1  0  0  0
  6 96  1  0  0  0
  7  8  2  0  0  0
  7 26  1  0  0  0
  7 29  1  0  0  0
  8  9  1  0  0  0
  8 22  1  0  0  0
  9 10  1  0  0  0
  9 27  2  0  0  0
 10 11  2  0  0  0
 10 15  1  0  0  0
 11 12  1  0  0  0
 11 97  1  0  0  0
 12 13  2  0  0  0
 12 98  1  0  0  0
 13 14  1  0  0  0
 13 31  1  0  0  0
 14 15  2  0  0  0
 14 99  1  0  0  0
 15100  1  0  0  0
 16 17  2  0  0  0
 16 21  1  0  0  0
 16 31  1  0  0  0
 17 18  1  0  0  0
 17101  1  0  0  0
 18 19  2  0  0  0
 18102  1  0  0  0
 19 20  1  0  0  0
 19 24  1  0  0  0
 20 21  2  0  0  0
 20103  1  0  0  0
 21 23  1  0  0  0
 22 28  1  0  0  0
 22 32  2  0  0  0
 26 27  1  0  0  0
 28104  1  0  0  0
 28105  1  0  0  0
 29106  1  0  0  0
 29107  1  0  0  0
 33 34  1  0  0  0
 33 66  1  0  0  0
 33 70  2  0  0  0
 34 36  1  0  0  0
 34 59  1  0  0  0
 34108  1  0  0  0
 35 44  2  0  0  0
 35 45  1  0  0  0
 35 68  1  0  0  0
 36 56  1  0  0  0
 36109  1  0  0  0
 37 39  1  0  0  0
 37 47  1  0  0  0
 37 66  1  0  0  0
 37110  1  0  0  0
 38 43  2  0  0  0
 38 46  1  0  0  0
 38 47  1  0  0  0
 39 64  1  0  0  0
 39 67  2  0  0  0
 40 52  1  0  0  0
 40 53  2  0  0  0
 40 58  1  0  0  0
 41111  1  0  0  0
 41112  1  0  0  0
 41113  1  0  0  0
 41 48  1  0  0  0
 42 43  1  0  0  0
 42 66  1  0  0  0
 42114  1  0  0  0
 42115  1  0  0  0
 43 44  1  0  0  0
 44116  1  0  0  0
 45 46  2  0  0  0
 45117  1  0  0  0
 46118  1  0  0  0
 47119  1  0  0  0
 47120  1  0  0  0
 48 56  1  0  0  0
 48 65  1  0  0  0
 48121  1  0  0  0
 49 50  1  0  0  0
 49 53  1  0  0  0
 49 64  1  0  0  0
 49122  1  0  0  0
 50 51  1  0  0  0
 50123  1  0  0  0
 50124  1  0  0  0
 51 52  1  0  0  0
 51125  1  0  0  0
 51126  1  0  0  0
 52127  1  0  0  0
 52128  1  0  0  0
 53 54  1  0  0  0
 54 55  2  0  0  0
 54129  1  0  0  0
 55 57  1  0  0  0
 55130  1  0  0  0
 56 69  2  0  0  0
 57 58  2  0  0  0
 57131  1  0  0  0
 58132  1  0  0  0
 59 60  1  0  0  0
 59 61  1  0  0  0
 59 62  1  0  0  0
 60133  1  0  0  0
 60134  1  0  0  0
 60135  1  0  0  0
 61136  1  0  0  0
 61137  1  0  0  0
 61138  1  0  0  0
 62139  1  0  0  0
 62140  1  0  0  0
 62141  1  0  0  0
 63 65  1  0  0  0
 63142  1  0  0  0
 63143  1  0  0  0
 63144  1  0  0  0
 64145  1  0  0  0
 65146  1  0  0  0
 68 83  1  0  0  0
 71 72  2  0  0  0
 71 74  1  0  0  0
 71147  1  0  0  0
 72 75  1  0  0  0
 72148  1  0  0  0
 73 75  2  0  0  0
 73 76  1  0  0  0
 73149  1  0  0  0
 74 76  2  0  0  0
 74 78  1  0  0  0
 75 85  1  0  0  0
 76 87  1  0  0  0
 77 78  2  0  0  0
 77 79  1  0  0  0
 77150  1  0  0  0
 78 80  1  0  0  0
 79 81  1  0  0  0
 79151  1  0  0  0
 79152  1  0  0  0
 80 82  1  0  0  0
 80153  1  0  0  0
 80154  1  0  0  0
 81 83  1  0  0  0
 81155  1  0  0  0
 81156  1  0  0  0
 82 83  1  0  0  0
 82157  1  0  0  0
 82158  1  0  0  0
 83159  1  0  0  0
 84 86  1  0  0  0
 84160  1  0  0  0
 84161  1  0  0  0
 84162  1  0  0  0
 85 86  1  0  0  0
 85163  1  0  0  0
 85164  1  0  0  0
M  ISO  4   1 100  68 101  83 101  86 100
M  END
> <chiral flag>
0

> <version>
0

> <s_m_source_file>
/data/baiqing/PycharmProjects/Reinvent-master-3.2/result/LINK_invent/BTK/process_docking_weight1_custom_product_contain_oxygen_bond_distance_aromatic_linkinvent_7_9_3/rearranged_h_0020.sdf

> <i_m_source_file_index>
32

> <r_mmod_Potential_Energy-OPLS-2005>
206.515594482422

> <r_mmod_Stretch_Energy-OPLS-2005>
35.5034370422363

> <r_mmod_Bend_Energy-OPLS-2005>
132.753845214844

> <r_mmod_Torsional_Energy-OPLS-2005>
322.904937744141

> <r_mmod_Improper_Torsional_Energy-OPLS-2005>
15.3287267684937

> <r_mmod_Van_der_Waal_Energy-OPLS-2005>
170.408020019531

> <r_mmod_Electrostatic_Energy-OPLS-2005>
-304.544982910156

> <r_mmod_Solvation_Energy-OPLS-2005>
-180.359680175781

> <b_mmod_Minimization_Converged-OPLS-2005>
0

> <r_mmod_RMS_Derivative-OPLS-2005>
3.91002345085144

$$$$
32
                    3D
 Structure written by MMmdl.
164172  0  0  1  0            999 V2000
  -30.8014  -14.5268   20.5729 C   0  0  0  0  0  0
  -30.4309  -12.3394   19.4739 C   0  0  0  0  0  0
  -29.5274  -12.5018   18.2372 C   0  0  0  0  0  0
  -28.0492  -12.3301   18.6419 C   0  0  0  0  0  0
  -27.6656  -13.2044   19.8652 C   0  0  2  0  0  0
  -28.7138  -13.0607   21.0020 C   0  0  0  0  0  0
  -25.2616  -13.8098   20.5679 C   0  0  0  0  0  0
  -24.1873  -13.0398   20.9169 C   0  0  0  0  0  0
  -24.6403  -11.6870   20.8672 C   0  0  0  0  0  0
  -23.9040  -10.4267   21.0347 C   0  0  0  0  0  0
  -24.3595   -9.4183   21.9132 C   0  0  0  0  0  0
  -23.6266   -8.2216   22.0705 C   0  0  0  0  0  0
  -22.4239   -8.0260   21.3529 C   0  0  0  0  0  0
  -21.9880   -9.0215   20.4618 C   0  0  0  0  0  0
  -22.7194  -10.2099   20.3017 C   0  0  0  0  0  0
  -21.6833   -6.0717   22.5260 C   0  0  0  0  0  0
  -21.4003   -6.5619   23.8200 C   0  0  0  0  0  0
  -21.3683   -5.6781   24.9176 C   0  0  0  0  0  0
  -21.6067   -4.3043   24.7232 C   0  0  0  0  0  0
  -21.8810   -3.8124   23.4348 C   0  0  0  0  0  0
  -21.9176   -4.6939   22.3399 C   0  0  0  0  0  0
  -22.7878  -13.5185   21.1889 C   0  0  0  0  0  0
  -22.1650   -4.2110   21.0980 F   0  0  0  0  0  0
  -21.5642   -3.4533   25.7748 F   0  0  0  0  0  0
  -30.0431  -13.3847   20.4518 N   0  0  0  0  0  0
  -26.3070  -12.9289   20.3315 N   0  0  0  0  0  0
  -25.9349  -11.6453   20.5719 N   0  0  0  0  0  0
  -22.0545  -12.8137   22.0440 N   0  0  0  0  0  0
  -25.4324  -15.1825   20.4113 N   0  0  0  0  0  0
  -31.9147  -14.5610   20.0481 O   0  0  0  0  0  0
  -21.6613   -6.8855   21.4228 O   0  0  0  0  0  0
  -22.3548  -14.5502   20.6748 O   0  0  0  0  0  0
  -24.6186  -31.8642   23.2021 C   0  0  0  0  0  0
  -25.9083  -32.4766   23.8343 C   0  0  1  0  0  0
  -27.2123  -27.4028   20.0976 C   0  0  0  0  0  0
  -25.5904  -33.8560   24.2295 N   0  0  0  0  0  0
  -23.4066  -30.4892   21.5468 C   0  0  2  0  0  0
  -24.8427  -28.9576   20.1159 C   0  0  0  0  0  0
  -22.7432  -29.4655   22.4967 C   0  0  0  0  0  0
  -18.0277  -28.1376   22.8468 C   0  0  0  0  0  0
  -24.1509  -36.7315   23.2640 C   0  0  0  0  0  0
  -25.9413  -30.8240   21.3607 C   0  0  0  0  0  0
  -26.0113  -29.4621   20.7003 C   0  0  0  0  0  0
  -27.2003  -28.6943   20.6762 C   0  0  0  0  0  0
  -26.0111  -26.9094   19.5301 C   0  0  0  0  0  0
  -24.8393  -27.6836   19.5280 C   0  0  0  0  0  0
  -23.6117  -29.8266   20.1604 C   0  0  0  0  0  0
  -25.4112  -36.3052   24.0337 C   0  0  1  0  0  0
  -20.5872  -28.3679   23.1281 C   0  0  2  0  0  0
  -20.6794  -26.9413   22.5395 C   0  0  0  0  0  0
  -19.5773  -26.6388   21.5194 C   0  0  0  0  0  0
  -18.1942  -26.7922   22.1592 C   0  0  0  0  0  0
  -19.1523  -28.8842   23.2876 C   0  0  0  0  0  0
  -18.9454  -30.1429   23.8917 C   0  0  0  0  0  0
  -17.6456  -30.6584   24.0552 C   0  0  0  0  0  0
  -25.9043  -34.9421   23.5113 C   0  0  0  0  0  0
  -16.5349  -29.9089   23.6313 C   0  0  0  0  0  0
  -16.7262  -28.6496   23.0363 C   0  0  0  0  0  0
  -26.4482  -31.6520   25.0664 C   0  0  0  0  0  0
  -25.3715  -31.3607   26.1378 C   0  0  0  0  0  0
  -27.0316  -30.2926   24.6122 C   0  0  0  0  0  0
  -27.6103  -32.4203   25.7373 C   0  0  0  0  0  0
  -27.5585  -37.1757   24.8456 C   0  0  0  0  0  0
  -21.4171  -29.3039   22.3705 N   0  0  0  0  0  0
  -26.4283  -37.3726   23.9411 N   0  0  0  0  0  0
  -24.6743  -31.0758   22.0931 N   0  0  0  0  0  0
  -23.4179  -28.8194   23.3044 O   0  0  0  0  0  0
  -28.3915  -26.6763   20.1070 O   0  0  0  0  0  0
  -26.5612  -34.8873   22.4683 O   0  0  0  0  0  0
  -23.5362  -32.1403   23.7396 O   0  0  0  0  0  0
  -28.8866  -18.3783   22.7134 C   0  0  0  0  0  0
  -28.6638  -19.7716   22.7817 C   0  0  0  0  0  0
  -28.3928  -19.8636   20.3802 C   0  0  0  0  0  0
  -28.8522  -17.7024   21.4755 C   0  0  0  0  0  0
  -28.3891  -20.5445   21.6260 C   0  0  0  0  0  0
  -28.5992  -18.4619   20.3090 C   0  0  0  0  0  0
  -27.2238  -22.2818   22.8896 C   0  0  0  0  0  0
  -29.0350  -16.1690   21.4267 C   0  0  0  0  0  0
  -28.0322  -24.3370   20.9164 C   0  0  0  0  0  0
  -28.0933  -22.8131   20.5801 C   0  0  0  0  0  0
  -31.4905  -16.5309   21.7810 C   0  0  0  0  0  0
  -28.4042  -25.2798   19.7418 C   0  0  0  0  0  0
  -32.1056  -17.4309   20.6717 C   0  0  0  0  0  0
  -28.0990  -21.9335   21.7648 N   0  0  0  0  0  0
  -30.4124  -15.6131   21.3178 N   0  0  0  0  0  0
  -28.5481  -17.8404   19.1057 F   0  0  0  0  0  0
  -33.3086  -16.9855   20.3085 F   0  0  0  0  0  0
  -31.3446  -17.5127   19.5812 F   0  0  0  0  0  0
  -32.2676  -18.6678   21.1409 F   0  0  0  0  0  0
  -31.4819  -12.3805   19.1819 H   0  0  0  0  0  0
  -30.3155  -11.3458   19.9107 H   0  0  0  0  0  0
  -29.8020  -11.7714   17.4724 H   0  0  0  0  0  0
  -29.6908  -13.4877   17.7964 H   0  0  0  0  0  0
  -27.8952  -11.2773   18.8895 H   0  0  0  0  0  0
  -27.4051  -12.5546   17.7915 H   0  0  0  0  0  0
  -27.6759  -14.2242   19.4872 H   0  0  0  0  0  0
  -28.7101  -12.0353   21.3757 H   0  0  0  0  0  0
  -28.4618  -13.6557   21.8751 H   0  0  0  0  0  0
  -25.2750   -9.5636   22.4719 H   0  0  0  0  0  0
  -23.9963   -7.4580   22.7405 H   0  0  0  0  0  0
  -21.0815   -8.8733   19.8904 H   0  0  0  0  0  0
  -22.3650  -10.9634   19.6131 H   0  0  0  0  0  0
  -21.1985   -7.6128   23.9691 H   0  0  0  0  0  0
  -21.1542   -6.0522   25.9083 H   0  0  0  0  0  0
  -22.0573   -2.7576   23.2864 H   0  0  0  0  0  0
  -22.4172  -11.9793   22.4816 H   0  0  0  0  0  0
  -21.1152  -13.1115   22.2679 H   0  0  0  0  0  0
  -24.6579  -15.8304   20.5041 H   0  0  0  0  0  0
  -26.2779  -15.6199   20.0688 H   0  0  0  0  0  0
  -26.7181  -32.5419   23.1136 H   0  0  0  0  0  0
  -24.9993  -33.9688   25.0378 H   0  0  0  0  0  0
  -22.7006  -31.3092   21.4050 H   0  0  0  0  0  0
  -23.3692  -35.9707   23.3271 H   0  0  0  0  0  0
  -24.3656  -36.8930   22.2063 H   0  0  0  0  0  0
  -23.7332  -37.6556   23.6661 H   0  0  0  0  0  0
  -26.0788  -31.5925   20.5973 H   0  0  0  0  0  0
  -26.8193  -30.8549   21.9940 H   0  0  0  0  0  0
  -28.1108  -29.0844   21.1129 H   0  0  0  0  0  0
  -25.9345  -25.9252   19.0977 H   0  0  0  0  0  0
  -23.9339  -27.2828   19.0931 H   0  0  0  0  0  0
  -23.7188  -30.5947   19.3926 H   0  0  0  0  0  0
  -22.7362  -29.2447   19.8681 H   0  0  0  0  0  0
  -25.1271  -36.1899   25.0825 H   0  0  0  0  0  0
  -20.9950  -28.3267   24.1403 H   0  0  0  0  0  0
  -20.5731  -26.2295   23.3596 H   0  0  0  0  0  0
  -21.6674  -26.7498   22.1174 H   0  0  0  0  0  0
  -19.6962  -25.6310   21.1210 H   0  0  0  0  0  0
  -19.6712  -27.3215   20.6742 H   0  0  0  0  0  0
  -17.4233  -26.6642   21.3991 H   0  0  0  0  0  0
  -18.0344  -26.0062   22.8986 H   0  0  0  0  0  0
  -19.7940  -30.7203   24.2336 H   0  0  0  0  0  0
  -17.5035  -31.6272   24.5140 H   0  0  0  0  0  0
  -15.5361  -30.3019   23.7628 H   0  0  0  0  0  0
  -15.8655  -28.0811   22.7124 H   0  0  0  0  0  0
  -24.5858  -30.7021   25.7651 H   0  0  0  0  0  0
  -24.8906  -32.2743   26.4861 H   0  0  0  0  0  0
  -25.7986  -30.8679   27.0112 H   0  0  0  0  0  0
  -26.2987  -29.6761   24.0881 H   0  0  0  0  0  0
  -27.8949  -30.4161   23.9608 H   0  0  0  0  0  0
  -27.3709  -29.7078   25.4685 H   0  0  0  0  0  0
  -27.2821  -33.3504   26.2009 H   0  0  0  0  0  0
  -28.3825  -32.6756   25.0091 H   0  0  0  0  0  0
  -28.0894  -31.8296   26.5202 H   0  0  0  0  0  0
  -28.2597  -38.0061   24.7458 H   0  0  0  0  0  0
  -28.1077  -36.2591   24.6269 H   0  0  0  0  0  0
  -27.2334  -37.1395   25.8869 H   0  0  0  0  0  0
  -20.9394  -29.8709   21.6846 H   0  0  0  0  0  0
  -26.0157  -38.2789   24.1430 H   0  0  0  0  0  0
  -29.0864  -17.8260   23.6229 H   0  0  0  0  0  0
  -28.6955  -20.2503   23.7486 H   0  0  0  0  0  0
  -28.2050  -20.3890   19.4568 H   0  0  0  0  0  0
  -27.7562  -22.8675   23.6452 H   0  0  0  0  0  0
  -26.7925  -21.4118   23.3907 H   0  0  0  0  0  0
  -26.3758  -22.8687   22.5368 H   0  0  0  0  0  0
  -28.4343  -15.8123   20.5994 H   0  0  0  0  0  0
  -28.5661  -15.7659   22.3240 H   0  0  0  0  0  0
  -28.7078  -24.5496   21.7454 H   0  0  0  0  0  0
  -27.0299  -24.5897   21.2690 H   0  0  0  0  0  0
  -29.0010  -22.6194   20.0053 H   0  0  0  0  0  0
  -27.2494  -22.5442   19.9408 H   0  0  0  0  0  0
  -31.1464  -17.1403   22.6115 H   0  0  0  0  0  0
  -32.2935  -15.9609   22.2496 H   0  0  0  0  0  0
  -27.8092  -25.0784   18.8536 H   0  0  0  0  0  0
  -29.4280  -25.0513   19.4444 H   0  0  0  0  0  0
  1 25  1  0  0  0
  1 30  2  0  0  0
  1 85  1  0  0  0
  2  3  1  0  0  0
  2 25  1  0  0  0
  2 90  1  0  0  0
  2 91  1  0  0  0
  3  4  1  0  0  0
  3 92  1  0  0  0
  3 93  1  0  0  0
  4  5  1  0  0  0
  4 94  1  0  0  0
  4 95  1  0  0  0
  5  6  1  0  0  0
  5 26  1  0  0  0
  5 96  1  0  0  0
  6 25  1  0  0  0
  6 97  1  0  0  0
  6 98  1  0  0  0
  7  8  2  0  0  0
  7 26  1  0  0  0
  7 29  1  0  0  0
  8  9  1  0  0  0
  8 22  1  0  0  0
  9 10  1  0  0  0
  9 27  2  0  0  0
 10 11  2  0  0  0
 10 15  1  0  0  0
 11 12  1  0  0  0
 11 99  1  0  0  0
 12 13  2  0  0  0
 12100  1  0  0  0
 13 14  1  0  0  0
 13 31  1  0  0  0
 14 15  2  0  0  0
 14101  1  0  0  0
 15102  1  0  0  0
 16 17  2  0  0  0
 16 21  1  0  0  0
 16 31  1  0  0  0
 17 18  1  0  0  0
 17103  1  0  0  0
 18 19  2  0  0  0
 18104  1  0  0  0
 19 20  1  0  0  0
 19 24  1  0  0  0
 20 21  2  0  0  0
 20105  1  0  0  0
 21 23  1  0  0  0
 22 28  1  0  0  0
 22 32  2  0  0  0
 26 27  1  0  0  0
 28106  1  0  0  0
 28107  1  0  0  0
 29108  1  0  0  0
 29109  1  0  0  0
 33 34  1  0  0  0
 33 66  1  0  0  0
 33 70  2  0  0  0
 34 36  1  0  0  0
 34 59  1  0  0  0
 34110  1  0  0  0
 35 44  2  0  0  0
 35 45  1  0  0  0
 35 68  1  0  0  0
 36 56  1  0  0  0
 36111  1  0  0  0
 37 39  1  0  0  0
 37 47  1  0  0  0
 37 66  1  0  0  0
 37112  1  0  0  0
 38 43  2  0  0  0
 38 46  1  0  0  0
 38 47  1  0  0  0
 39 64  1  0  0  0
 39 67  2  0  0  0
 40 52  1  0  0  0
 40 53  2  0  0  0
 40 58  1  0  0  0
 41113  1  0  0  0
 41114  1  0  0  0
 41115  1  0  0  0
 41 48  1  0  0  0
 42 43  1  0  0  0
 42 66  1  0  0  0
 42116  1  0  0  0
 42117  1  0  0  0
 43 44  1  0  0  0
 44118  1  0  0  0
 45 46  2  0  0  0
 45119  1  0  0  0
 46120  1  0  0  0
 47121  1  0  0  0
 47122  1  0  0  0
 48 56  1  0  0  0
 48 65  1  0  0  0
 48123  1  0  0  0
 49 50  1  0  0  0
 49 53  1  0  0  0
 49 64  1  0  0  0
 49124  1  0  0  0
 50 51  1  0  0  0
 50125  1  0  0  0
 50126  1  0  0  0
 51 52  1  0  0  0
 51127  1  0  0  0
 51128  1  0  0  0
 52129  1  0  0  0
 52130  1  0  0  0
 53 54  1  0  0  0
 54 55  2  0  0  0
 54131  1  0  0  0
 55 57  1  0  0  0
 55132  1  0  0  0
 56 69  2  0  0  0
 57 58  2  0  0  0
 57133  1  0  0  0
 58134  1  0  0  0
 59 60  1  0  0  0
 59 61  1  0  0  0
 59 62  1  0  0  0
 60135  1  0  0  0
 60136  1  0  0  0
 60137  1  0  0  0
 61138  1  0  0  0
 61139  1  0  0  0
 61140  1  0  0  0
 62141  1  0  0  0
 62142  1  0  0  0
 62143  1  0  0  0
 63 65  1  0  0  0
 63144  1  0  0  0
 63145  1  0  0  0
 63146  1  0  0  0
 64147  1  0  0  0
 65148  1  0  0  0
 68 82  1  0  0  0
 71 72  2  0  0  0
 71 74  1  0  0  0
 71149  1  0  0  0
 72 75  1  0  0  0
 72150  1  0  0  0
 73 75  2  0  0  0
 73 76  1  0  0  0
 73151  1  0  0  0
 74 76  2  0  0  0
 74 78  1  0  0  0
 75 84  1  0  0  0
 76 86  1  0  0  0
 77 84  1  0  0  0
 77152  1  0  0  0
 77153  1  0  0  0
 77154  1  0  0  0
 78 85  1  0  0  0
 78155  1  0  0  0
 78156  1  0  0  0
 79 80  1  0  0  0
 79 82  1  0  0  0
 79157  1  0  0  0
 79158  1  0  0  0
 80 84  1  0  0  0
 80159  1  0  0  0
 80160  1  0  0  0
 81 83  1  0  0  0
 81 85  1  0  0  0
 81161  1  0  0  0
 81162  1  0  0  0
 82163  1  0  0  0
 82164  1  0  0  0
 83 87  1  0  0  0
 83 88  1  0  0  0
 83 89  1  0  0  0
M  ISO  4   1 100  68 101  82 101  85 100
M  END
> <chiral flag>
0

> <version>
0

> <s_m_source_file>
/data/baiqing/PycharmProjects/Reinvent-master-3.2/result/LINK_invent/BTK/process_docking_weight1_custom_product_contain_oxygen_bond_distance_aromatic_linkinvent_7_9_3/rearranged_h_0020.sdf

> <i_m_source_file_index>
33

> <r_mmod_Potential_Energy-OPLS-2005>
58.8967170715332

> <r_mmod_Stretch_Energy-OPLS-2005>
54.6419906616211

> <r_mmod_Bend_Energy-OPLS-2005>
145.502059936523

> <r_mmod_Torsional_Energy-OPLS-2005>
262.415191650391

> <r_mmod_Improper_Torsional_Energy-OPLS-2005>
4.66627550125122

> <r_mmod_Van_der_Waal_Energy-OPLS-2005>
175.362762451172

> <r_mmod_Electrostatic_Energy-OPLS-2005>
-396.957427978516

> <r_mmod_Solvation_Energy-OPLS-2005>
-211.950149536133

> <b_mmod_Minimization_Converged-OPLS-2005>
0

> <r_mmod_RMS_Derivative-OPLS-2005>
5.71828126907349

$$$$
33
                    3D
 Structure written by MMmdl.
162170  0  0  1  0            999 V2000
  -30.7139  -14.4299   20.6125 C   0  0  0  0  0  0
  -30.4224  -12.2945   19.4124 C   0  0  0  0  0  0
  -29.4900  -12.5123   18.2033 C   0  0  0  0  0  0
  -28.0119  -12.3722   18.6164 C   0  0  0  0  0  0
  -27.6646  -13.2015   19.8819 C   0  0  2  0  0  0
  -28.7043  -12.9524   20.9980 C   0  0  0  0  0  0
  -25.2590  -13.8151   20.5693 C   0  0  0  0  0  0
  -24.1834  -13.0436   20.9182 C   0  0  0  0  0  0
  -24.6383  -11.6901   20.8740 C   0  0  0  0  0  0
  -23.9053  -10.4290   21.0409 C   0  0  0  0  0  0
  -24.3614   -9.4205   21.9183 C   0  0  0  0  0  0
  -23.6289   -8.2243   22.0752 C   0  0  0  0  0  0
  -22.4271   -8.0282   21.3546 C   0  0  0  0  0  0
  -21.9903   -9.0254   20.4651 C   0  0  0  0  0  0
  -22.7233  -10.2130   20.3059 C   0  0  0  0  0  0
  -21.6849   -6.0738   22.5285 C   0  0  0  0  0  0
  -21.4012   -6.5641   23.8219 C   0  0  0  0  0  0
  -21.3656   -5.6796   24.9184 C   0  0  0  0  0  0
  -21.6040   -4.3055   24.7231 C   0  0  0  0  0  0
  -21.8813   -3.8150   23.4352 C   0  0  0  0  0  0
  -21.9190   -4.6969   22.3409 C   0  0  0  0  0  0
  -22.7858  -13.5236   21.1847 C   0  0  0  0  0  0
  -22.1653   -4.2158   21.0981 F   0  0  0  0  0  0
  -21.5638   -3.4527   25.7734 F   0  0  0  0  0  0
  -30.0417  -13.2579   20.4564 N   0  0  0  0  0  0
  -26.3032  -12.9318   20.3400 N   0  0  0  0  0  0
  -25.9311  -11.6481   20.5787 N   0  0  0  0  0  0
  -22.0507  -12.8228   22.0416 N   0  0  0  0  0  0
  -25.4317  -15.1875   20.4099 N   0  0  0  0  0  0
  -31.8033  -14.6506   20.0746 O   0  0  0  0  0  0
  -21.6638   -6.8880   21.4244 O   0  0  0  0  0  0
  -22.3536  -14.5540   20.6704 O   0  0  0  0  0  0
  -24.6121  -31.8700   23.2126 C   0  0  0  0  0  0
  -25.9028  -32.4833   23.8411 C   0  0  1  0  0  0
  -27.2382  -27.4588   20.0747 C   0  0  0  0  0  0
  -25.5893  -33.8632   24.2338 N   0  0  0  0  0  0
  -23.3987  -30.4943   21.5526 C   0  0  2  0  0  0
  -24.8443  -28.9626   20.1168 C   0  0  0  0  0  0
  -22.7391  -29.4668   22.5000 C   0  0  0  0  0  0
  -18.0268  -28.1372   22.8493 C   0  0  0  0  0  0
  -24.1487  -36.7322   23.2638 C   0  0  0  0  0  0
  -25.9261  -30.8380   21.3662 C   0  0  0  0  0  0
  -26.0026  -29.4726   20.7163 C   0  0  0  0  0  0
  -27.1985  -28.7211   20.7060 C   0  0  0  0  0  0
  -26.0547  -26.9490   19.4930 C   0  0  0  0  0  0
  -24.8623  -27.6955   19.5105 C   0  0  0  0  0  0
  -23.6062  -29.8281   20.1667 C   0  0  0  0  0  0
  -25.4108  -36.3120   24.0337 C   0  0  1  0  0  0
  -20.5856  -28.3656   23.1325 C   0  0  2  0  0  0
  -20.6759  -26.9396   22.5418 C   0  0  0  0  0  0
  -19.5741  -26.6385   21.5210 C   0  0  0  0  0  0
  -18.1918  -26.7922   22.1619 C   0  0  0  0  0  0
  -19.1517  -28.8832   23.2907 C   0  0  0  0  0  0
  -18.9448  -30.1437   23.8917 C   0  0  0  0  0  0
  -17.6450  -30.6580   24.0567 C   0  0  0  0  0  0
  -25.9032  -34.9482   23.5135 C   0  0  0  0  0  0
  -16.5342  -29.9083   23.6324 C   0  0  0  0  0  0
  -16.7258  -28.6500   23.0346 C   0  0  0  0  0  0
  -26.4468  -31.6603   25.0727 C   0  0  0  0  0  0
  -25.3745  -31.3706   26.1484 C   0  0  0  0  0  0
  -27.0291  -30.3045   24.6091 C   0  0  0  0  0  0
  -27.6051  -32.4317   25.7481 C   0  0  0  0  0  0
  -27.5584  -37.1815   24.8464 C   0  0  0  0  0  0
  -21.4124  -29.3030   22.3737 N   0  0  0  0  0  0
  -26.4299  -37.3799   23.9404 N   0  0  0  0  0  0
  -24.6635  -31.0814   22.1022 N   0  0  0  0  0  0
  -23.4174  -28.8209   23.3035 O   0  0  0  0  0  0
  -28.4157  -26.7441   20.0616 O   0  0  0  0  0  0
  -26.5592  -34.8928   22.4693 O   0  0  0  0  0  0
  -23.5319  -32.1448   23.7531 O   0  0  0  0  0  0
  -29.3283  -18.9945   20.8083 C   0  0  0  0  0  0
  -29.1672  -17.5975   20.9185 C   0  0  0  0  0  0
  -31.6782  -18.7604   21.3984 C   0  0  0  0  0  0
  -30.5902  -19.5862   21.0317 C   0  0  0  0  0  0
  -30.2645  -16.7684   21.2401 C   0  0  0  0  0  0
  -31.5200  -17.3632   21.5125 C   0  0  0  0  0  0
  -31.8260  -20.7616   18.6483 C   0  0  0  0  0  0
  -30.7802  -21.0987   20.8771 C   0  0  0  0  0  0
  -29.8378  -23.8867   19.4546 C   0  0  0  0  0  0
  -30.0664  -25.3283   18.9448 C   0  0  0  0  0  0
  -31.1090  -23.0166   19.3211 C   0  0  0  0  0  0
  -28.7849  -26.1679   18.8097 C   0  0  0  0  0  0
  -30.0535  -15.3646   21.3167 N   0  0  0  0  0  0
  -30.8639  -21.5514   19.4596 N   0  3  1  0  0  0
  -32.5724  -16.6087   21.9107 F   0  0  0  0  0  0
  -31.4655  -12.3966   19.1079 H   0  0  0  0  0  0
  -30.3247  -11.2763   19.7926 H   0  0  0  0  0  0
  -29.7261  -11.7985   17.4129 H   0  0  0  0  0  0
  -29.6601  -13.5044   17.7805 H   0  0  0  0  0  0
  -27.8192  -11.3147   18.8017 H   0  0  0  0  0  0
  -27.3609  -12.6569   17.7897 H   0  0  0  0  0  0
  -27.7188  -14.2542   19.6030 H   0  0  0  0  0  0
  -28.6733  -11.9077   21.3107 H   0  0  0  0  0  0
  -28.4595  -13.5234   21.8945 H   0  0  0  0  0  0
  -25.2767   -9.5672   22.4748 H   0  0  0  0  0  0
  -23.9998   -7.4625   22.7463 H   0  0  0  0  0  0
  -21.0839   -8.8771   19.8956 H   0  0  0  0  0  0
  -22.3700  -10.9663   19.6160 H   0  0  0  0  0  0
  -21.1997   -7.6149   23.9720 H   0  0  0  0  0  0
  -21.1486   -6.0534   25.9087 H   0  0  0  0  0  0
  -22.0597   -2.7614   23.2854 H   0  0  0  0  0  0
  -22.4113  -11.9880   22.4798 H   0  0  0  0  0  0
  -21.1129  -13.1263   22.2622 H   0  0  0  0  0  0
  -24.6660  -15.8444   20.5161 H   0  0  0  0  0  0
  -26.2830  -15.6232   20.0811 H   0  0  0  0  0  0
  -26.7095  -32.5555   23.1176 H   0  0  0  0  0  0
  -25.0050  -33.9801   25.0487 H   0  0  0  0  0  0
  -22.6864  -31.3106   21.4152 H   0  0  0  0  0  0
  -23.3740  -35.9666   23.3321 H   0  0  0  0  0  0
  -24.3580  -36.8911   22.2046 H   0  0  0  0  0  0
  -23.7252  -37.6539   23.6635 H   0  0  0  0  0  0
  -26.0378  -31.6038   20.5973 H   0  0  0  0  0  0
  -26.8146  -30.8913   21.9836 H   0  0  0  0  0  0
  -28.0941  -29.1134   21.1672 H   0  0  0  0  0  0
  -26.0310  -25.9704   19.0374 H   0  0  0  0  0  0
  -23.9673  -27.2901   19.0587 H   0  0  0  0  0  0
  -23.7139  -30.6036   19.4075 H   0  0  0  0  0  0
  -22.7306  -29.2474   19.8708 H   0  0  0  0  0  0
  -25.1286  -36.1990   25.0830 H   0  0  0  0  0  0
  -20.9945  -28.3215   24.1445 H   0  0  0  0  0  0
  -20.5659  -26.2262   23.3600 H   0  0  0  0  0  0
  -21.6631  -26.7439   22.1213 H   0  0  0  0  0  0
  -19.6902  -25.6299   21.1230 H   0  0  0  0  0  0
  -19.6684  -27.3206   20.6749 H   0  0  0  0  0  0
  -17.4188  -26.6670   21.4020 H   0  0  0  0  0  0
  -18.0319  -26.0055   22.9010 H   0  0  0  0  0  0
  -19.7924  -30.7249   24.2293 H   0  0  0  0  0  0
  -17.5006  -31.6263   24.5161 H   0  0  0  0  0  0
  -15.5344  -30.2995   23.7636 H   0  0  0  0  0  0
  -15.8657  -28.0829   22.7049 H   0  0  0  0  0  0
  -24.5908  -30.7063   25.7823 H   0  0  0  0  0  0
  -24.8952  -32.2863   26.4955 H   0  0  0  0  0  0
  -25.8108  -30.8857   27.0226 H   0  0  0  0  0  0
  -26.2826  -29.6810   24.1158 H   0  0  0  0  0  0
  -27.4074  -29.7277   25.4541 H   0  0  0  0  0  0
  -27.8657  -30.4362   23.9227 H   0  0  0  0  0  0
  -27.2676  -33.3605   26.2095 H   0  0  0  0  0  0
  -28.3842  -32.6897   25.0294 H   0  0  0  0  0  0
  -28.0742  -31.8421   26.5368 H   0  0  0  0  0  0
  -28.2611  -38.0102   24.7502 H   0  0  0  0  0  0
  -28.1069  -36.2634   24.6302 H   0  0  0  0  0  0
  -27.2300  -37.1478   25.8867 H   0  0  0  0  0  0
  -20.9274  -29.8762   21.6974 H   0  0  0  0  0  0
  -26.0191  -38.2880   24.1399 H   0  0  0  0  0  0
  -28.4765  -19.6067   20.5437 H   0  0  0  0  0  0
  -28.1939  -17.1663   20.7333 H   0  0  0  0  0  0
  -32.6481  -19.1929   21.5987 H   0  0  0  0  0  0
  -31.5460  -19.7093   18.5972 H   0  0  0  0  0  0
  -32.8340  -20.8265   19.0597 H   0  0  0  0  0  0
  -31.8588  -21.1132   17.6170 H   0  0  0  0  0  0
  -31.6853  -21.3987   21.4074 H   0  0  0  0  0  0
  -29.9561  -21.6091   21.3772 H   0  0  0  0  0  0
  -29.0326  -23.4365   18.8725 H   0  0  0  0  0  0
  -29.4957  -23.9103   20.4899 H   0  0  0  0  0  0
  -30.5147  -25.2729   17.9512 H   0  0  0  0  0  0
  -30.7930  -25.8492   19.5700 H   0  0  0  0  0  0
  -31.8779  -23.3432   20.0231 H   0  0  0  0  0  0
  -31.5252  -23.2048   18.3299 H   0  0  0  0  0  0
  -28.0031  -25.5481   18.3725 H   0  0  0  0  0  0
  -28.9638  -26.9846   18.1082 H   0  0  0  0  0  0
  -29.1520  -15.0667   21.6534 H   0  0  0  0  0  0
  -29.9620  -21.3708   19.0466 H   0  0  0  0  0  0
  1 25  1  0  0  0
  1 30  2  0  0  0
  1 83  1  0  0  0
  2  3  1  0  0  0
  2 25  1  0  0  0
  2 86  1  0  0  0
  2 87  1  0  0  0
  3  4  1  0  0  0
  3 88  1  0  0  0
  3 89  1  0  0  0
  4  5  1  0  0  0
  4 90  1  0  0  0
  4 91  1  0  0  0
  5  6  1  0  0  0
  5 26  1  0  0  0
  5 92  1  0  0  0
  6 25  1  0  0  0
  6 93  1  0  0  0
  6 94  1  0  0  0
  7  8  2  0  0  0
  7 26  1  0  0  0
  7 29  1  0  0  0
  8  9  1  0  0  0
  8 22  1  0  0  0
  9 10  1  0  0  0
  9 27  2  0  0  0
 10 11  2  0  0  0
 10 15  1  0  0  0
 11 12  1  0  0  0
 11 95  1  0  0  0
 12 13  2  0  0  0
 12 96  1  0  0  0
 13 14  1  0  0  0
 13 31  1  0  0  0
 14 15  2  0  0  0
 14 97  1  0  0  0
 15 98  1  0  0  0
 16 17  2  0  0  0
 16 21  1  0  0  0
 16 31  1  0  0  0
 17 18  1  0  0  0
 17 99  1  0  0  0
 18 19  2  0  0  0
 18100  1  0  0  0
 19 20  1  0  0  0
 19 24  1  0  0  0
 20 21  2  0  0  0
 20101  1  0  0  0
 21 23  1  0  0  0
 22 28  1  0  0  0
 22 32  2  0  0  0
 26 27  1  0  0  0
 28102  1  0  0  0
 28103  1  0  0  0
 29104  1  0  0  0
 29105  1  0  0  0
 33 34  1  0  0  0
 33 66  1  0  0  0
 33 70  2  0  0  0
 34 36  1  0  0  0
 34 59  1  0  0  0
 34106  1  0  0  0
 35 44  2  0  0  0
 35 45  1  0  0  0
 35 68  1  0  0  0
 36 56  1  0  0  0
 36107  1  0  0  0
 37 39  1  0  0  0
 37 47  1  0  0  0
 37 66  1  0  0  0
 37108  1  0  0  0
 38 43  2  0  0  0
 38 46  1  0  0  0
 38 47  1  0  0  0
 39 64  1  0  0  0
 39 67  2  0  0  0
 40 52  1  0  0  0
 40 53  2  0  0  0
 40 58  1  0  0  0
 41109  1  0  0  0
 41110  1  0  0  0
 41111  1  0  0  0
 41 48  1  0  0  0
 42 43  1  0  0  0
 42 66  1  0  0  0
 42112  1  0  0  0
 42113  1  0  0  0
 43 44  1  0  0  0
 44114  1  0  0  0
 45 46  2  0  0  0
 45115  1  0  0  0
 46116  1  0  0  0
 47117  1  0  0  0
 47118  1  0  0  0
 48 56  1  0  0  0
 48 65  1  0  0  0
 48119  1  0  0  0
 49 50  1  0  0  0
 49 53  1  0  0  0
 49 64  1  0  0  0
 49120  1  0  0  0
 50 51  1  0  0  0
 50121  1  0  0  0
 50122  1  0  0  0
 51 52  1  0  0  0
 51123  1  0  0  0
 51124  1  0  0  0
 52125  1  0  0  0
 52126  1  0  0  0
 53 54  1  0  0  0
 54 55  2  0  0  0
 54127  1  0  0  0
 55 57  1  0  0  0
 55128  1  0  0  0
 56 69  2  0  0  0
 57 58  2  0  0  0
 57129  1  0  0  0
 58130  1  0  0  0
 59 60  1  0  0  0
 59 61  1  0  0  0
 59 62  1  0  0  0
 60131  1  0  0  0
 60132  1  0  0  0
 60133  1  0  0  0
 61134  1  0  0  0
 61135  1  0  0  0
 61136  1  0  0  0
 62137  1  0  0  0
 62138  1  0  0  0
 62139  1  0  0  0
 63 65  1  0  0  0
 63140  1  0  0  0
 63141  1  0  0  0
 63142  1  0  0  0
 64143  1  0  0  0
 65144  1  0  0  0
 68 82  1  0  0  0
 71 72  2  0  0  0
 71 74  1  0  0  0
 71145  1  0  0  0
 72 75  1  0  0  0
 72146  1  0  0  0
 73 74  2  0  0  0
 73 76  1  0  0  0
 73147  1  0  0  0
 74 78  1  0  0  0
 75 76  2  0  0  0
 75 83  1  0  0  0
 76 85  1  0  0  0
 77148  1  0  0  0
 77149  1  0  0  0
 77150  1  0  0  0
 77 84  1  0  0  0
 78 84  1  0  0  0
 78151  1  0  0  0
 78152  1  0  0  0
 79 80  1  0  0  0
 79 81  1  0  0  0
 79153  1  0  0  0
 79154  1  0  0  0
 80 82  1  0  0  0
 80155  1  0  0  0
 80156  1  0  0  0
 81 84  1  0  0  0
 81157  1  0  0  0
 81158  1  0  0  0
 82159  1  0  0  0
 82160  1  0  0  0
 83161  1  0  0  0
 84162  1  0  0  0
M  CHG  1  84   1
M  ISO  4   1 100  68 101  82 101  83 100
M  END
> <chiral flag>
0

> <version>
0

> <s_m_source_file>
/data/baiqing/PycharmProjects/Reinvent-master-3.2/result/LINK_invent/BTK/process_docking_weight1_custom_product_contain_oxygen_bond_distance_aromatic_linkinvent_7_9_3/rearranged_h_0020.sdf

> <i_m_source_file_index>
34

> <r_mmod_Potential_Energy-OPLS-2005>
-215.96516418457

> <r_mmod_Stretch_Energy-OPLS-2005>
34.9511604309082

> <r_mmod_Bend_Energy-OPLS-2005>
91.0711059570312

> <r_mmod_Torsional_Energy-OPLS-2005>
232.096221923828

> <r_mmod_Improper_Torsional_Energy-OPLS-2005>
3.85159063339233

> <r_mmod_Van_der_Waal_Energy-OPLS-2005>
157.925033569336

> <r_mmod_Electrostatic_Energy-OPLS-2005>
-286.344177246094

> <r_mmod_Solvation_Energy-OPLS-2005>
-458.044189453125

> <b_mmod_Minimization_Converged-OPLS-2005>
0

> <r_mmod_RMS_Derivative-OPLS-2005>
1.0323075056076

$$$$
34
                    3D
 Structure written by MMmdl.
171179  0  0  1  0            999 V2000
  -30.7502  -14.4903   20.4805 C   0  0  0  0  0  0
  -30.4134  -12.3028   19.4320 C   0  0  0  0  0  0
  -29.4869  -12.4624   18.2106 C   0  0  0  0  0  0
  -28.0137  -12.3216   18.6305 C   0  0  0  0  0  0
  -27.6514  -13.1905   19.8681 C   0  0  2  0  0  0
  -28.7081  -13.0794   20.9869 C   0  0  0  0  0  0
  -25.2510  -13.8098   20.5818 C   0  0  0  0  0  0
  -24.1742  -13.0379   20.9314 C   0  0  0  0  0  0
  -24.6312  -11.6891   20.8859 C   0  0  0  0  0  0
  -23.8984  -10.4285   21.0488 C   0  0  0  0  0  0
  -24.3556   -9.4186   21.9244 C   0  0  0  0  0  0
  -23.6252   -8.2200   22.0782 C   0  0  0  0  0  0
  -22.4261   -8.0248   21.3540 C   0  0  0  0  0  0
  -21.9874   -9.0191   20.4642 C   0  0  0  0  0  0
  -22.7180  -10.2101   20.3075 C   0  0  0  0  0  0
  -21.6824   -6.0731   22.5291 C   0  0  0  0  0  0
  -21.3994   -6.5634   23.8224 C   0  0  0  0  0  0
  -21.3695   -5.6798   24.9192 C   0  0  0  0  0  0
  -21.6071   -4.3050   24.7245 C   0  0  0  0  0  0
  -21.8829   -3.8141   23.4355 C   0  0  0  0  0  0
  -21.9185   -4.6961   22.3416 C   0  0  0  0  0  0
  -22.7768  -13.5193   21.1917 C   0  0  0  0  0  0
  -22.1620   -4.2142   21.0987 F   0  0  0  0  0  0
  -21.5645   -3.4539   25.7746 F   0  0  0  0  0  0
  -30.0241  -13.3427   20.3949 N   0  0  0  0  0  0
  -26.2959  -12.9280   20.3404 N   0  0  0  0  0  0
  -25.9220  -11.6471   20.5809 N   0  0  0  0  0  0
  -22.0349  -12.8249   22.0476 N   0  0  0  0  0  0
  -25.4153  -15.1811   20.4373 N   0  0  0  0  0  0
  -31.9655  -14.5154   20.2780 O   0  0  0  0  0  0
  -21.6593   -6.8852   21.4264 O   0  0  0  0  0  0
  -22.3487  -14.5495   20.6712 O   0  0  0  0  0  0
  -24.6169  -31.8697   23.2096 C   0  0  0  0  0  0
  -25.9021  -32.4820   23.8416 C   0  0  1  0  0  0
  -27.2210  -27.4393   20.0594 C   0  0  0  0  0  0
  -25.5897  -33.8626   24.2375 N   0  0  0  0  0  0
  -23.4023  -30.4997   21.5466 C   0  0  2  0  0  0
  -24.8428  -28.9644   20.1047 C   0  0  0  0  0  0
  -22.7379  -29.4750   22.4963 C   0  0  0  0  0  0
  -18.0290  -28.1302   22.8584 C   0  0  0  0  0  0
  -24.1458  -36.7344   23.2657 C   0  0  0  0  0  0
  -25.9352  -30.8321   21.3571 C   0  0  0  0  0  0
  -26.0080  -29.4690   20.6991 C   0  0  0  0  0  0
  -27.2061  -28.7143   20.6660 C   0  0  0  0  0  0
  -26.0449  -26.9535   19.4527 C   0  0  0  0  0  0
  -24.8573  -27.7085   19.4732 C   0  0  0  0  0  0
  -23.6075  -29.8375   20.1605 C   0  0  0  0  0  0
  -25.4083  -36.3143   24.0348 C   0  0  1  0  0  0
  -20.5878  -28.3842   23.1303 C   0  0  2  0  0  0
  -20.6888  -26.9498   22.5643 C   0  0  0  0  0  0
  -19.5819  -26.6144   21.5642 C   0  0  0  0  0  0
  -18.2057  -26.7688   22.2147 C   0  0  0  0  0  0
  -19.1488  -28.8925   23.2806 C   0  0  0  0  0  0
  -18.9323  -30.1609   23.8603 C   0  0  0  0  0  0
  -17.6284  -30.6650   24.0308 C   0  0  0  0  0  0
  -25.9001  -34.9482   23.5182 C   0  0  0  0  0  0
  -16.5274  -29.8980   23.6146 C   0  0  0  0  0  0
  -16.7273  -28.6324   23.0362 C   0  0  0  0  0  0
  -26.4432  -31.6603   25.0733 C   0  0  0  0  0  0
  -25.3750  -31.3650   26.1518 C   0  0  0  0  0  0
  -27.0270  -30.3065   24.6078 C   0  0  0  0  0  0
  -27.5994  -32.4362   25.7483 C   0  0  0  0  0  0
  -27.5566  -37.1816   24.8461 C   0  0  0  0  0  0
  -21.4134  -29.3165   22.3656 N   0  0  0  0  0  0
  -26.4274  -37.3816   23.9408 N   0  0  0  0  0  0
  -24.6709  -31.0780   22.0998 N   0  0  0  0  0  0
  -23.4115  -28.8292   23.3042 O   0  0  0  0  0  0
  -28.3769  -26.6933   20.0105 O   0  0  0  0  0  0
  -26.5561  -34.8921   22.4719 O   0  0  0  0  0  0
  -23.5349  -32.1478   23.7455 O   0  0  0  0  0  0
  -27.9524  -17.6404   21.5995 C   0  0  0  0  0  0
  -28.8752  -20.1960   20.8878 C   0  0  0  0  0  0
  -29.3300  -17.8354   21.3875 C   0  0  0  0  0  0
  -27.4877  -19.9874   21.0430 C   0  0  0  0  0  0
  -29.7910  -19.1372   21.0801 C   0  0  0  0  0  0
  -27.0410  -18.6991   21.4230 C   0  0  0  0  0  0
  -27.8679  -16.4518   18.2080 C   0  0  0  0  0  0
  -25.8052  -23.1013   21.9630 C   0  0  0  0  0  0
  -30.2719  -16.6314   21.4165 C   0  0  0  0  0  0
  -26.4387  -21.0647   20.7404 C   0  0  0  0  0  0
  -29.2479  -17.0926   18.2834 C   0  0  0  0  0  0
  -28.3906  -24.1642   19.8977 C   0  0  0  0  0  0
  -30.3591  -16.2718   18.9829 C   0  0  0  0  0  0
  -27.0873  -23.3184   19.8417 C   0  0  0  0  0  0
  -28.3548  -25.4593   20.7474 C   0  0  0  0  0  0
  -30.0702  -15.6559   20.3138 N   0  0  0  0  0  0
  -26.8121  -22.4808   21.0586 N   0  3  1  0  0  0
  -31.1106  -19.3709   20.8998 F   0  0  0  0  0  0
  -25.7205  -18.4574   21.5863 F   0  0  0  0  0  0
  -31.4536  -12.3860   19.1161 H   0  0  0  0  0  0
  -30.3086  -11.3121   19.8755 H   0  0  0  0  0  0
  -29.7336  -11.7217   17.4473 H   0  0  0  0  0  0
  -29.6448  -13.4380   17.7548 H   0  0  0  0  0  0
  -27.8404  -11.2673   18.8558 H   0  0  0  0  0  0
  -27.3577  -12.5587   17.7917 H   0  0  0  0  0  0
  -27.6759  -14.2122   19.5293 H   0  0  0  0  0  0
  -28.6881  -12.0845   21.4298 H   0  0  0  0  0  0
  -28.4899  -13.7805   21.7936 H   0  0  0  0  0  0
  -25.2708   -9.5615   22.4801 H   0  0  0  0  0  0
  -23.9989   -7.4608   22.7496 H   0  0  0  0  0  0
  -21.0800   -8.8687   19.8937 H   0  0  0  0  0  0
  -22.3666  -10.9612   19.6134 H   0  0  0  0  0  0
  -21.1952   -7.6139   23.9705 H   0  0  0  0  0  0
  -21.1500   -6.0529   25.9096 H   0  0  0  0  0  0
  -22.0580   -2.7612   23.2859 H   0  0  0  0  0  0
  -22.3876  -11.9862   22.4848 H   0  0  0  0  0  0
  -21.0950  -13.1330   22.2573 H   0  0  0  0  0  0
  -24.6723  -15.8480   20.6063 H   0  0  0  0  0  0
  -26.2794  -15.6144   20.1424 H   0  0  0  0  0  0
  -26.7123  -32.5500   23.1210 H   0  0  0  0  0  0
  -24.9933  -33.9785   25.0455 H   0  0  0  0  0  0
  -22.7026  -31.3263   21.4105 H   0  0  0  0  0  0
  -23.3701  -35.9695   23.3344 H   0  0  0  0  0  0
  -24.3541  -36.8928   22.2067 H   0  0  0  0  0  0
  -23.7207  -37.6558   23.6652 H   0  0  0  0  0  0
  -26.0429  -31.6036   20.5954 H   0  0  0  0  0  0
  -26.8296  -30.8904   21.9652 H   0  0  0  0  0  0
  -28.1181  -29.1052   21.0971 H   0  0  0  0  0  0
  -26.0564  -26.0169   18.9197 H   0  0  0  0  0  0
  -23.9688  -27.3360   18.9748 H   0  0  0  0  0  0
  -23.7122  -30.6206   19.4102 H   0  0  0  0  0  0
  -22.7351  -29.2518   19.8631 H   0  0  0  0  0  0
  -25.1264  -36.2004   25.0842 H   0  0  0  0  0  0
  -20.9897  -28.3671   24.1477 H   0  0  0  0  0  0
  -20.6137  -26.2467   23.3954 H   0  0  0  0  0  0
  -21.6627  -26.7687   22.1166 H   0  0  0  0  0  0
  -19.6656  -27.2689   20.6951 H   0  0  0  0  0  0
  -19.6994  -25.5872   21.2277 H   0  0  0  0  0  0
  -17.4292  -26.5874   21.4705 H   0  0  0  0  0  0
  -18.0749  -26.0117   22.9918 H   0  0  0  0  0  0
  -19.7729  -30.7556   24.1853 H   0  0  0  0  0  0
  -17.4732  -31.6321   24.4940 H   0  0  0  0  0  0
  -15.5228  -30.2735   23.7431 H   0  0  0  0  0  0
  -15.8692  -28.0479   22.7243 H   0  0  0  0  0  0
  -24.5927  -30.6977   25.7892 H   0  0  0  0  0  0
  -24.8923  -32.2768   26.5054 H   0  0  0  0  0  0
  -25.8154  -30.8803   27.0236 H   0  0  0  0  0  0
  -26.2785  -29.6800   24.1204 H   0  0  0  0  0  0
  -27.4167  -29.7296   25.4467 H   0  0  0  0  0  0
  -27.8577  -30.4450   23.9153 H   0  0  0  0  0  0
  -27.2601  -33.3655   26.2088 H   0  0  0  0  0  0
  -28.3765  -32.6935   25.0287 H   0  0  0  0  0  0
  -28.0714  -31.8480   26.5369 H   0  0  0  0  0  0
  -28.2595  -38.0108   24.7496 H   0  0  0  0  0  0
  -28.1060  -36.2617   24.6316 H   0  0  0  0  0  0
  -27.2297  -37.1543   25.8878 H   0  0  0  0  0  0
  -20.9375  -29.8754   21.6690 H   0  0  0  0  0  0
  -26.0166  -38.2898   24.1400 H   0  0  0  0  0  0
  -27.5764  -16.6616   21.8627 H   0  0  0  0  0  0
  -29.2576  -21.1578   20.5783 H   0  0  0  0  0  0
  -27.8762  -15.5159   17.6497 H   0  0  0  0  0  0
  -27.1539  -17.1118   17.7148 H   0  0  0  0  0  0
  -27.4909  -16.2969   19.2126 H   0  0  0  0  0  0
  -25.9710  -24.1646   22.1268 H   0  0  0  0  0  0
  -25.8337  -22.6189   22.9416 H   0  0  0  0  0  0
  -24.7963  -22.9910   21.5656 H   0  0  0  0  0  0
  -30.1438  -16.1357   22.3823 H   0  0  0  0  0  0
  -31.3102  -16.9725   21.4056 H   0  0  0  0  0  0
  -25.5602  -20.7911   21.3292 H   0  0  0  0  0  0
  -26.1062  -20.9635   19.7061 H   0  0  0  0  0  0
  -29.1473  -18.0685   18.7537 H   0  0  0  0  0  0
  -29.5833  -17.3069   17.2697 H   0  0  0  0  0  0
  -28.6905  -24.4119   18.8757 H   0  0  0  0  0  0
  -29.1991  -23.5271   20.2586 H   0  0  0  0  0  0
  -30.6585  -15.5040   18.2607 H   0  0  0  0  0  0
  -31.2473  -16.8990   19.0791 H   0  0  0  0  0  0
  -27.1943  -22.6633   18.9753 H   0  0  0  0  0  0
  -26.2310  -23.9482   19.6053 H   0  0  0  0  0  0
  -29.2447  -25.4788   21.3776 H   0  0  0  0  0  0
  -27.5260  -25.4375   21.4457 H   0  0  0  0  0  0
  -27.6639  -22.4329   21.5918 H   0  0  0  0  0  0
  1 25  1  0  0  0
  1 30  2  0  0  0
  1 86  1  0  0  0
  2  3  1  0  0  0
  2 25  1  0  0  0
  2 90  1  0  0  0
  2 91  1  0  0  0
  3  4  1  0  0  0
  3 92  1  0  0  0
  3 93  1  0  0  0
  4  5  1  0  0  0
  4 94  1  0  0  0
  4 95  1  0  0  0
  5  6  1  0  0  0
  5 26  1  0  0  0
  5 96  1  0  0  0
  6 25  1  0  0  0
  6 97  1  0  0  0
  6 98  1  0  0  0
  7  8  2  0  0  0
  7 26  1  0  0  0
  7 29  1  0  0  0
  8  9  1  0  0  0
  8 22  1  0  0  0
  9 10  1  0  0  0
  9 27  2  0  0  0
 10 11  2  0  0  0
 10 15  1  0  0  0
 11 12  1  0  0  0
 11 99  1  0  0  0
 12 13  2  0  0  0
 12100  1  0  0  0
 13 14  1  0  0  0
 13 31  1  0  0  0
 14 15  2  0  0  0
 14101  1  0  0  0
 15102  1  0  0  0
 16 17  2  0  0  0
 16 21  1  0  0  0
 16 31  1  0  0  0
 17 18  1  0  0  0
 17103  1  0  0  0
 18 19  2  0  0  0
 18104  1  0  0  0
 19 20  1  0  0  0
 19 24  1  0  0  0
 20 21  2  0  0  0
 20105  1  0  0  0
 21 23  1  0  0  0
 22 28  1  0  0  0
 22 32  2  0  0  0
 26 27  1  0  0  0
 28106  1  0  0  0
 28107  1  0  0  0
 29108  1  0  0  0
 29109  1  0  0  0
 33 34  1  0  0  0
 33 66  1  0  0  0
 33 70  2  0  0  0
 34 36  1  0  0  0
 34 59  1  0  0  0
 34110  1  0  0  0
 35 44  2  0  0  0
 35 45  1  0  0  0
 35 68  1  0  0  0
 36 56  1  0  0  0
 36111  1  0  0  0
 37 39  1  0  0  0
 37 47  1  0  0  0
 37 66  1  0  0  0
 37112  1  0  0  0
 38 43  2  0  0  0
 38 46  1  0  0  0
 38 47  1  0  0  0
 39 64  1  0  0  0
 39 67  2  0  0  0
 40 52  1  0  0  0
 40 53  2  0  0  0
 40 58  1  0  0  0
 41113  1  0  0  0
 41114  1  0  0  0
 41115  1  0  0  0
 41 48  1  0  0  0
 42 43  1  0  0  0
 42 66  1  0  0  0
 42116  1  0  0  0
 42117  1  0  0  0
 43 44  1  0  0  0
 44118  1  0  0  0
 45 46  2  0  0  0
 45119  1  0  0  0
 46120  1  0  0  0
 47121  1  0  0  0
 47122  1  0  0  0
 48 56  1  0  0  0
 48 65  1  0  0  0
 48123  1  0  0  0
 49 50  1  0  0  0
 49 53  1  0  0  0
 49 64  1  0  0  0
 49124  1  0  0  0
 50 51  1  0  0  0
 50125  1  0  0  0
 50126  1  0  0  0
 51 52  1  0  0  0
 51127  1  0  0  0
 51128  1  0  0  0
 52129  1  0  0  0
 52130  1  0  0  0
 53 54  1  0  0  0
 54 55  2  0  0  0
 54131  1  0  0  0
 55 57  1  0  0  0
 55132  1  0  0  0
 56 69  2  0  0  0
 57 58  2  0  0  0
 57133  1  0  0  0
 58134  1  0  0  0
 59 60  1  0  0  0
 59 61  1  0  0  0
 59 62  1  0  0  0
 60135  1  0  0  0
 60136  1  0  0  0
 60137  1  0  0  0
 61138  1  0  0  0
 61139  1  0  0  0
 61140  1  0  0  0
 62141  1  0  0  0
 62142  1  0  0  0
 62143  1  0  0  0
 63 65  1  0  0  0
 63144  1  0  0  0
 63145  1  0  0  0
 63146  1  0  0  0
 64147  1  0  0  0
 65148  1  0  0  0
 68 85  1  0  0  0
 71 73  2  0  0  0
 71 76  1  0  0  0
 71149  1  0  0  0
 72 74  1  0  0  0
 72 75  2  0  0  0
 72150  1  0  0  0
 73 75  1  0  0  0
 73 79  1  0  0  0
 74 76  2  0  0  0
 74 80  1  0  0  0
 75 88  1  0  0  0
 76 89  1  0  0  0
 77 81  1  0  0  0
 77151  1  0  0  0
 77152  1  0  0  0
 77153  1  0  0  0
 78154  1  0  0  0
 78155  1  0  0  0
 78156  1  0  0  0
 78 87  1  0  0  0
 79 86  1  0  0  0
 79157  1  0  0  0
 79158  1  0  0  0
 80 87  1  0  0  0
 80159  1  0  0  0
 80160  1  0  0  0
 81 83  1  0  0  0
 81161  1  0  0  0
 81162  1  0  0  0
 82 84  1  0  0  0
 82 85  1  0  0  0
 82163  1  0  0  0
 82164  1  0  0  0
 83 86  1  0  0  0
 83165  1  0  0  0
 83166  1  0  0  0
 84 87  1  0  0  0
 84167  1  0  0  0
 84168  1  0  0  0
 85169  1  0  0  0
 85170  1  0  0  0
 87171  1  0  0  0
M  CHG  1  87   1
M  ISO  4   1 100  68 101  85 101  86 100
M  END
> <chiral flag>
0

> <version>
0

> <s_m_source_file>
/data/baiqing/PycharmProjects/Reinvent-master-3.2/result/LINK_invent/BTK/process_docking_weight1_custom_product_contain_oxygen_bond_distance_aromatic_linkinvent_7_9_3/rearranged_h_0020.sdf

> <i_m_source_file_index>
35

> <r_mmod_Potential_Energy-OPLS-2005>
65.9291076660156

> <r_mmod_Stretch_Energy-OPLS-2005>
44.0422210693359

> <r_mmod_Bend_Energy-OPLS-2005>
132.023361206055

> <r_mmod_Torsional_Energy-OPLS-2005>
354.421875

> <r_mmod_Improper_Torsional_Energy-OPLS-2005>
19.8733062744141

> <r_mmod_Van_der_Waal_Energy-OPLS-2005>
144.506256103516

> <r_mmod_Electrostatic_Energy-OPLS-2005>
-231.871200561523

> <r_mmod_Solvation_Energy-OPLS-2005>
-428.536468505859

> <b_mmod_Minimization_Converged-OPLS-2005>
0

> <r_mmod_RMS_Derivative-OPLS-2005>
7.57213020324707

$$$$
36
                    3D
 Structure written by MMmdl.
161170  0  0  1  0            999 V2000
  -30.6383  -14.7911   20.4733 C   0  0  0  0  0  0
  -30.4629  -12.4982   19.4739 C   0  0  0  0  0  0
  -29.5354  -12.5277   18.2402 C   0  0  0  0  0  0
  -28.0498  -12.3812   18.6311 C   0  0  0  0  0  0
  -27.6541  -13.2444   19.8565 C   0  0  2  0  0  0
  -28.7069  -13.0962   20.9645 C   0  0  0  0  0  0
  -25.2442  -13.8136   20.5465 C   0  0  0  0  0  0
  -24.1797  -13.0374   20.9172 C   0  0  0  0  0  0
  -24.6493  -11.6915   20.8801 C   0  0  0  0  0  0
  -23.9139  -10.4304   21.0425 C   0  0  0  0  0  0
  -24.3638   -9.4220   21.9218 C   0  0  0  0  0  0
  -23.6296   -8.2257   22.0757 C   0  0  0  0  0  0
  -22.4286   -8.0314   21.3542 C   0  0  0  0  0  0
  -21.9959   -9.0301   20.4634 C   0  0  0  0  0  0
  -22.7314  -10.2168   20.3058 C   0  0  0  0  0  0
  -21.6858   -6.0768   22.5283 C   0  0  0  0  0  0
  -21.4025   -6.5642   23.8237 C   0  0  0  0  0  0
  -21.3651   -5.6763   24.9182 C   0  0  0  0  0  0
  -21.6019   -4.3041   24.7196 C   0  0  0  0  0  0
  -21.8839   -3.8168   23.4320 C   0  0  0  0  0  0
  -21.9202   -4.7004   22.3397 C   0  0  0  0  0  0
  -22.7811  -13.5155   21.1825 C   0  0  0  0  0  0
  -22.1640   -4.2200   21.0968 F   0  0  0  0  0  0
  -21.5611   -3.4518   25.7705 F   0  0  0  0  0  0
  -30.0017  -13.5529   20.4157 N   0  0  0  0  0  0
  -26.2995  -12.9432   20.3265 N   0  0  0  0  0  0
  -25.9446  -11.6575   20.5859 N   0  0  0  0  0  0
  -22.0448  -12.8143   22.0394 N   0  0  0  0  0  0
  -25.3853  -15.1752   20.3330 N   0  0  0  0  0  0
  -31.8044  -14.8450   20.0663 O   0  0  0  0  0  0
  -21.6636   -6.8920   21.4244 O   0  0  0  0  0  0
  -22.3506  -14.5458   20.6674 O   0  0  0  0  0  0
  -24.6161  -31.8626   23.2050 C   0  0  0  0  0  0
  -25.9025  -32.4781   23.8361 C   0  0  1  0  0  0
  -27.1988  -27.2747   20.1644 C   0  0  0  0  0  0
  -25.5942  -33.8595   24.2327 N   0  0  0  0  0  0
  -23.4107  -30.4846   21.5494 C   0  0  2  0  0  0
  -24.8617  -28.9409   20.1149 C   0  0  0  0  0  0
  -22.7400  -29.4595   22.4917 C   0  0  0  0  0  0
  -18.0257  -28.1329   22.8556 C   0  0  0  0  0  0
  -24.1458  -36.7189   23.2634 C   0  0  0  0  0  0
  -25.9510  -30.7886   21.3761 C   0  0  0  0  0  0
  -26.0320  -29.4056   20.7313 C   0  0  0  0  0  0
  -27.2039  -28.5828   20.7572 C   0  0  0  0  0  0
  -26.0220  -26.8797   19.4986 C   0  0  0  0  0  0
  -24.8613  -27.6834   19.4914 C   0  0  0  0  0  0
  -23.6278  -29.8291   20.1602 C   0  0  0  0  0  0
  -25.4102  -36.3044   24.0336 C   0  0  1  0  0  0
  -20.5854  -28.3668   23.1309 C   0  0  2  0  0  0
  -20.6813  -26.9399   22.5408 C   0  0  0  0  0  0
  -19.5776  -26.6373   21.5225 C   0  0  0  0  0  0
  -18.1928  -26.7891   22.1628 C   0  0  0  0  0  0
  -19.1511  -28.8821   23.2927 C   0  0  0  0  0  0
  -18.9439  -30.1445   23.8909 C   0  0  0  0  0  0
  -17.6435  -30.6565   24.0564 C   0  0  0  0  0  0
  -25.9045  -34.9422   23.5129 C   0  0  0  0  0  0
  -16.5332  -29.9067   23.6323 C   0  0  0  0  0  0
  -16.7233  -28.6463   23.0386 C   0  0  0  0  0  0
  -26.4484  -31.6543   25.0671 C   0  0  0  0  0  0
  -25.3768  -31.3520   26.1417 C   0  0  0  0  0  0
  -27.0296  -30.3008   24.5987 C   0  0  0  0  0  0
  -27.6047  -32.4305   25.7402 C   0  0  0  0  0  0
  -27.5537  -37.1744   24.8516 C   0  0  0  0  0  0
  -21.4136  -29.3008   22.3673 N   0  0  0  0  0  0
  -26.4233  -37.3785   23.9489 N   0  0  0  0  0  0
  -24.6788  -31.0620   22.1021 N   0  0  0  0  0  0
  -23.4152  -28.8092   23.2934 O   0  0  0  0  0  0
  -28.2708  -26.3629   20.2036 O   0  0  0  0  0  0
  -26.5537  -34.8871   22.4620 O   0  0  0  0  0  0
  -23.5342  -32.1411   23.7393 O   0  0  0  0  0  0
  -28.6713  -19.5618   18.0372 C   0  0  0  0  0  0
  -28.5096  -15.3947   24.2364 C   0  0  0  0  0  0
  -28.5399  -20.8296   18.6445 C   0  0  0  0  0  0
  -29.2889  -18.4837   18.7078 C   0  0  0  0  0  0
  -29.4211  -15.4216   23.1672 C   0  0  0  0  0  0
  -27.2354  -15.9791   24.0879 C   0  0  0  0  0  0
  -29.5984  -19.9256   20.6386 C   0  0  0  0  0  0
  -27.7940  -16.6144   21.7971 C   0  0  0  0  0  0
  -28.9644  -21.0586   19.9752 C   0  0  0  0  0  0
  -29.7694  -18.6175   20.0270 C   0  0  0  0  0  0
  -29.0549  -15.9927   21.9273 C   0  0  0  0  0  0
  -26.8850  -16.6022   22.8751 C   0  0  0  0  0  0
  -28.7076  -22.4434   20.6090 C   0  0  0  0  0  0
  -28.3927  -23.6704   20.0408 C   0  0  0  0  0  0
  -30.5695  -17.3976   20.6665 C   0  0  0  0  0  0
  -27.9882  -25.0100   20.7888 C   0  0  0  0  0  0
  -29.9857  -15.9872   20.8549 N   0  0  0  0  0  0
  -25.6681  -17.1837   22.7430 F   0  0  0  0  0  0
  -31.4951  -12.6416   19.1531 H   0  0  0  0  0  0
  -30.4598  -11.5135   19.9475 H   0  0  0  0  0  0
  -29.8195  -11.7354   17.5458 H   0  0  0  0  0  0
  -29.6970  -13.4709   17.7110 H   0  0  0  0  0  0
  -27.8659  -11.3339   18.8558 H   0  0  0  0  0  0
  -27.4221  -12.6339   17.7781 H   0  0  0  0  0  0
  -27.6757  -14.2892   19.5457 H   0  0  0  0  0  0
  -28.7798  -12.0492   21.2713 H   0  0  0  0  0  0
  -28.3751  -13.6032   21.8557 H   0  0  0  0  0  0
  -25.2758   -9.5701   22.4835 H   0  0  0  0  0  0
  -23.9989   -7.4657   22.7474 H   0  0  0  0  0  0
  -21.0903   -8.8845   19.8935 H   0  0  0  0  0  0
  -22.3780  -10.9711   19.6178 H   0  0  0  0  0  0
  -21.2002   -7.6137   23.9776 H   0  0  0  0  0  0
  -21.1399   -6.0460   25.9078 H   0  0  0  0  0  0
  -22.0598   -2.7638   23.2800 H   0  0  0  0  0  0
  -22.4012  -11.9743   22.4677 H   0  0  0  0  0  0
  -21.1101  -13.1224   22.2615 H   0  0  0  0  0  0
  -24.6084  -15.8188   20.4374 H   0  0  0  0  0  0
  -26.1941  -15.5955   19.8959 H   0  0  0  0  0  0
  -26.7031  -32.5511   23.1041 H   0  0  0  0  0  0
  -25.0415  -33.9856   25.0693 H   0  0  0  0  0  0
  -22.6971  -31.3003   21.4189 H   0  0  0  0  0  0
  -23.3821  -35.9420   23.3275 H   0  0  0  0  0  0
  -24.3522  -36.8855   22.2048 H   0  0  0  0  0  0
  -23.7117  -37.6332   23.6688 H   0  0  0  0  0  0
  -26.0576  -31.5477   20.5984 H   0  0  0  0  0  0
  -26.8365  -30.8676   21.9898 H   0  0  0  0  0  0
  -28.0865  -28.9199   21.2844 H   0  0  0  0  0  0
  -25.9954  -25.9132   19.0112 H   0  0  0  0  0  0
  -23.9638  -27.3174   19.0124 H   0  0  0  0  0  0
  -23.7382  -30.6193   19.4152 H   0  0  0  0  0  0
  -22.7461  -29.2626   19.8556 H   0  0  0  0  0  0
  -25.1252  -36.1860   25.0820 H   0  0  0  0  0  0
  -20.9974  -28.3289   24.1407 H   0  0  0  0  0  0
  -20.5857  -26.2234   23.3593 H   0  0  0  0  0  0
  -21.6674  -26.7528   22.1097 H   0  0  0  0  0  0
  -19.7011  -25.6302   21.1256 H   0  0  0  0  0  0
  -19.6738  -27.3206   20.6768 H   0  0  0  0  0  0
  -17.4230  -26.6665   21.3977 H   0  0  0  0  0  0
  -18.0309  -25.9943   22.8917 H   0  0  0  0  0  0
  -19.7908  -30.7295   24.2249 H   0  0  0  0  0  0
  -17.4980  -31.6249   24.5162 H   0  0  0  0  0  0
  -15.5362  -30.2987   23.7663 H   0  0  0  0  0  0
  -15.8601  -28.0812   22.7094 H   0  0  0  0  0  0
  -24.6092  -30.6685   25.7773 H   0  0  0  0  0  0
  -24.8725  -32.2554   26.4834 H   0  0  0  0  0  0
  -25.8169  -30.8780   27.0204 H   0  0  0  0  0  0
  -26.2772  -29.6766   24.1158 H   0  0  0  0  0  0
  -27.4256  -29.7217   25.4354 H   0  0  0  0  0  0
  -27.8532  -30.4359   23.8978 H   0  0  0  0  0  0
  -27.2760  -33.3821   26.1569 H   0  0  0  0  0  0
  -28.3999  -32.6518   25.0265 H   0  0  0  0  0  0
  -28.0479  -31.8668   26.5617 H   0  0  0  0  0  0
  -28.2537  -38.0042   24.7599 H   0  0  0  0  0  0
  -28.1044  -36.2582   24.6344 H   0  0  0  0  0  0
  -27.2230  -37.1369   25.8902 H   0  0  0  0  0  0
  -20.9275  -29.8718   21.6903 H   0  0  0  0  0  0
  -26.0100  -38.2821   24.1641 H   0  0  0  0  0  0
  -28.2927  -19.4191   17.0331 H   0  0  0  0  0  0
  -28.7873  -14.9151   25.1655 H   0  0  0  0  0  0
  -28.0825  -21.6221   18.0645 H   0  0  0  0  0  0
  -29.4166  -17.5470   18.1815 H   0  0  0  0  0  0
  -30.3929  -14.9661   23.2841 H   0  0  0  0  0  0
  -26.5389  -15.9602   24.9105 H   0  0  0  0  0  0
  -29.9647  -20.0608   21.6479 H   0  0  0  0  0  0
  -27.5117  -17.1025   20.8721 H   0  0  0  0  0  0
  -28.7134  -22.4110   21.6918 H   0  0  0  0  0  0
  -28.3544  -23.7362   18.9631 H   0  0  0  0  0  0
  -30.8915  -17.7278   21.6603 H   0  0  0  0  0  0
  -31.5028  -17.3339   20.1073 H   0  0  0  0  0  0
  -28.4532  -24.9809   21.7759 H   0  0  0  0  0  0
  -26.9204  -24.9273   20.9957 H   0  0  0  0  0  0
  1 25  1  0  0  0
  1 30  2  0  0  0
  1 87  1  0  0  0
  2  3  1  0  0  0
  2 25  1  0  0  0
  2 89  1  0  0  0
  2 90  1  0  0  0
  3  4  1  0  0  0
  3 91  1  0  0  0
  3 92  1  0  0  0
  4  5  1  0  0  0
  4 93  1  0  0  0
  4 94  1  0  0  0
  5  6  1  0  0  0
  5 26  1  0  0  0
  5 95  1  0  0  0
  6 25  1  0  0  0
  6 96  1  0  0  0
  6 97  1  0  0  0
  7  8  2  0  0  0
  7 26  1  0  0  0
  7 29  1  0  0  0
  8  9  1  0  0  0
  8 22  1  0  0  0
  9 10  1  0  0  0
  9 27  2  0  0  0
 10 11  2  0  0  0
 10 15  1  0  0  0
 11 12  1  0  0  0
 11 98  1  0  0  0
 12 13  2  0  0  0
 12 99  1  0  0  0
 13 14  1  0  0  0
 13 31  1  0  0  0
 14 15  2  0  0  0
 14100  1  0  0  0
 15101  1  0  0  0
 16 17  2  0  0  0
 16 21  1  0  0  0
 16 31  1  0  0  0
 17 18  1  0  0  0
 17102  1  0  0  0
 18 19  2  0  0  0
 18103  1  0  0  0
 19 20  1  0  0  0
 19 24  1  0  0  0
 20 21  2  0  0  0
 20104  1  0  0  0
 21 23  1  0  0  0
 22 28  1  0  0  0
 22 32  2  0  0  0
 26 27  1  0  0  0
 28105  1  0  0  0
 28106  1  0  0  0
 29107  1  0  0  0
 29108  1  0  0  0
 33 34  1  0  0  0
 33 66  1  0  0  0
 33 70  2  0  0  0
 34 36  1  0  0  0
 34 59  1  0  0  0
 34109  1  0  0  0
 35 44  2  0  0  0
 35 45  1  0  0  0
 35 68  1  0  0  0
 36 56  1  0  0  0
 36110  1  0  0  0
 37 39  1  0  0  0
 37 47  1  0  0  0
 37 66  1  0  0  0
 37111  1  0  0  0
 38 43  2  0  0  0
 38 46  1  0  0  0
 38 47  1  0  0  0
 39 64  1  0  0  0
 39 67  2  0  0  0
 40 52  1  0  0  0
 40 53  2  0  0  0
 40 58  1  0  0  0
 41112  1  0  0  0
 41113  1  0  0  0
 41114  1  0  0  0
 41 48  1  0  0  0
 42 43  1  0  0  0
 42 66  1  0  0  0
 42115  1  0  0  0
 42116  1  0  0  0
 43 44  1  0  0  0
 44117  1  0  0  0
 45 46  2  0  0  0
 45118  1  0  0  0
 46119  1  0  0  0
 47120  1  0  0  0
 47121  1  0  0  0
 48 56  1  0  0  0
 48 65  1  0  0  0
 48122  1  0  0  0
 49 50  1  0  0  0
 49 53  1  0  0  0
 49 64  1  0  0  0
 49123  1  0  0  0
 50 51  1  0  0  0
 50124  1  0  0  0
 50125  1  0  0  0
 51 52  1  0  0  0
 51126  1  0  0  0
 51127  1  0  0  0
 52128  1  0  0  0
 52129  1  0  0  0
 53 54  1  0  0  0
 54 55  2  0  0  0
 54130  1  0  0  0
 55 57  1  0  0  0
 55131  1  0  0  0
 56 69  2  0  0  0
 57 58  2  0  0  0
 57132  1  0  0  0
 58133  1  0  0  0
 59 60  1  0  0  0
 59 61  1  0  0  0
 59 62  1  0  0  0
 60134  1  0  0  0
 60135  1  0  0  0
 60136  1  0  0  0
 61137  1  0  0  0
 61138  1  0  0  0
 61139  1  0  0  0
 62140  1  0  0  0
 62141  1  0  0  0
 62142  1  0  0  0
 63 65  1  0  0  0
 63143  1  0  0  0
 63144  1  0  0  0
 63145  1  0  0  0
 64146  1  0  0  0
 65147  1  0  0  0
 68 86  1  0  0  0
 71 73  2  0  0  0
 71 74  1  0  0  0
 71148  1  0  0  0
 72 75  2  0  0  0
 72 76  1  0  0  0
 72149  1  0  0  0
 73 79  1  0  0  0
 73150  1  0  0  0
 74 80  2  0  0  0
 74151  1  0  0  0
 75 81  1  0  0  0
 75152  1  0  0  0
 76 82  2  0  0  0
 76153  1  0  0  0
 77 79  2  0  0  0
 77 80  1  0  0  0
 77154  1  0  0  0
 78 81  2  0  0  0
 78 82  1  0  0  0
 78155  1  0  0  0
 79 83  1  0  0  0
 80 85  1  0  0  0
 81 87  1  0  0  0
 82 88  1  0  0  0
 83 84  2  0  0  0
 83156  1  0  0  0
 84 86  1  0  0  0
 84157  1  0  0  0
 85 87  1  0  0  0
 85158  1  0  0  0
 85159  1  0  0  0
 86160  1  0  0  0
 86161  1  0  0  0
M  ISO  4   1 100  68 101  86 101  87 100
M  END
> <chiral flag>
0

> <version>
0

> <s_m_source_file>
/data/baiqing/PycharmProjects/Reinvent-master-3.2/result/LINK_invent/BTK/process_docking_weight1_custom_product_contain_oxygen_bond_distance_aromatic_linkinvent_7_9_3/rearranged_h_0020.sdf

> <i_m_source_file_index>
36

> <r_mmod_Potential_Energy-OPLS-2005>
358.144805908203

> <r_mmod_Stretch_Energy-OPLS-2005>
128.259292602539

> <r_mmod_Bend_Energy-OPLS-2005>
177.089263916016

> <r_mmod_Torsional_Energy-OPLS-2005>
284.776916503906

> <r_mmod_Improper_Torsional_Energy-OPLS-2005>
6.51611661911011

> <r_mmod_Van_der_Waal_Energy-OPLS-2005>
162.292678833008

> <r_mmod_Electrostatic_Energy-OPLS-2005>
-306.288269042969

> <r_mmod_Solvation_Energy-OPLS-2005>
-183.162857055664

> <b_mmod_Minimization_Converged-OPLS-2005>
0

> <r_mmod_RMS_Derivative-OPLS-2005>
8.65408992767334

$$$$
37
                    3D
 Structure written by MMmdl.
155164  0  0  1  0            999 V2000
  -30.6925  -14.5053   20.5886 C   0  0  0  0  0  0
  -30.4385  -12.3368   19.4263 C   0  0  0  0  0  0
  -29.4966  -12.5280   18.2181 C   0  0  0  0  0  0
  -28.0238  -12.3765   18.6364 C   0  0  0  0  0  0
  -27.6694  -13.2165   19.8888 C   0  0  2  0  0  0
  -28.7163  -13.0002   21.0087 C   0  0  0  0  0  0
  -25.2593  -13.8170   20.5576 C   0  0  0  0  0  0
  -24.1878  -13.0454   20.9169 C   0  0  0  0  0  0
  -24.6460  -11.6918   20.8761 C   0  0  0  0  0  0
  -23.9091  -10.4317   21.0416 C   0  0  0  0  0  0
  -24.3634   -9.4211   21.9193 C   0  0  0  0  0  0
  -23.6289   -8.2261   22.0767 C   0  0  0  0  0  0
  -22.4287   -8.0299   21.3545 C   0  0  0  0  0  0
  -21.9918   -9.0276   20.4662 C   0  0  0  0  0  0
  -22.7258  -10.2147   20.3054 C   0  0  0  0  0  0
  -21.6877   -6.0734   22.5270 C   0  0  0  0  0  0
  -21.3997   -6.5632   23.8213 C   0  0  0  0  0  0
  -21.3673   -5.6794   24.9168 C   0  0  0  0  0  0
  -21.6041   -4.3040   24.7215 C   0  0  0  0  0  0
  -21.8825   -3.8148   23.4355 C   0  0  0  0  0  0
  -21.9178   -4.6970   22.3396 C   0  0  0  0  0  0
  -22.7882  -13.5229   21.1833 C   0  0  0  0  0  0
  -22.1665   -4.2143   21.0983 F   0  0  0  0  0  0
  -21.5638   -3.4531   25.7742 F   0  0  0  0  0  0
  -30.0552  -13.3053   20.4645 N   0  0  0  0  0  0
  -26.3104  -12.9378   20.3468 N   0  0  0  0  0  0
  -25.9425  -11.6530   20.5903 N   0  0  0  0  0  0
  -22.0497  -12.8241   22.0394 N   0  0  0  0  0  0
  -25.4201  -15.1857   20.3700 N   0  0  0  0  0  0
  -31.7452  -14.7847   20.0010 O   0  0  0  0  0  0
  -21.6649   -6.8895   21.4248 O   0  0  0  0  0  0
  -22.3570  -14.5536   20.6687 O   0  0  0  0  0  0
  -24.6211  -31.8625   23.2132 C   0  0  0  0  0  0
  -25.9101  -32.4788   23.8388 C   0  0  1  0  0  0
  -27.2117  -27.3720   20.0839 C   0  0  0  0  0  0
  -25.5959  -33.8598   24.2336 N   0  0  0  0  0  0
  -23.4075  -30.4937   21.5564 C   0  0  2  0  0  0
  -24.8419  -28.9520   20.1186 C   0  0  0  0  0  0
  -22.7437  -29.4659   22.5007 C   0  0  0  0  0  0
  -18.0293  -28.1314   22.8688 C   0  0  0  0  0  0
  -24.1489  -36.7286   23.2634 C   0  0  0  0  0  0
  -25.9467  -30.8061   21.3777 C   0  0  0  0  0  0
  -26.0127  -29.4404   20.7108 C   0  0  0  0  0  0
  -27.2005  -28.6621   20.6822 C   0  0  0  0  0  0
  -26.0074  -26.9055   19.5072 C   0  0  0  0  0  0
  -24.8373  -27.6837   19.5236 C   0  0  0  0  0  0
  -23.6107  -29.8271   20.1725 C   0  0  0  0  0  0
  -25.4113  -36.3091   24.0321 C   0  0  1  0  0  0
  -20.5914  -28.3584   23.1205 C   0  0  2  0  0  0
  -20.6862  -26.9443   22.5001 C   0  0  0  0  0  0
  -19.5512  -26.6422   21.5142 C   0  0  0  0  0  0
  -18.1904  -26.7780   22.2006 C   0  0  0  0  0  0
  -19.1609  -28.8781   23.2894 C   0  0  0  0  0  0
  -18.9586  -30.1457   23.8787 C   0  0  0  0  0  0
  -17.6615  -30.6635   24.0523 C   0  0  0  0  0  0
  -25.9045  -34.9451   23.5113 C   0  0  0  0  0  0
  -16.5458  -29.9122   23.6461 C   0  0  0  0  0  0
  -16.7311  -28.6467   23.0605 C   0  0  0  0  0  0
  -26.4494  -31.6608   25.0758 C   0  0  0  0  0  0
  -25.3762  -31.3732   26.1508 C   0  0  0  0  0  0
  -27.0346  -30.3031   24.6238 C   0  0  0  0  0  0
  -27.6037  -32.4339   25.7535 C   0  0  0  0  0  0
  -27.5578  -37.1793   24.8469 C   0  0  0  0  0  0
  -21.4176  -29.3063   22.3773 N   0  0  0  0  0  0
  -26.4302  -37.3776   23.9387 N   0  0  0  0  0  0
  -24.6772  -31.0695   22.1050 N   0  0  0  0  0  0
  -23.4191  -28.8174   23.3042 O   0  0  0  0  0  0
  -28.3725  -26.6038   20.0896 O   0  0  0  0  0  0
  -26.5582  -34.8880   22.4661 O   0  0  0  0  0  0
  -23.5398  -32.1445   23.7498 O   0  0  0  0  0  0
  -30.3451  -17.7284   20.4838 C   0  0  0  0  0  0
  -28.6855  -19.4106   21.2338 C   0  0  0  0  0  0
  -29.6972  -16.7116   21.2451 C   0  0  0  0  0  0
  -29.8444  -19.0656   20.4868 C   0  0  0  0  0  0
  -28.0092  -18.3629   21.9118 C   0  0  0  0  0  0
  -28.5166  -17.0514   21.9266 C   0  0  0  0  0  0
  -28.9055  -23.2844   21.0840 C   0  0  0  0  0  0
  -27.5340  -22.6943   19.6747 C   0  0  0  0  0  0
  -27.8598  -24.0809   20.2722 C   0  0  2  0  0  0
  -28.2305  -20.8574   21.5738 C   0  0  0  0  0  0
  -28.3955  -25.2931   19.4457 C   0  0  0  0  0  0
  -28.3735  -22.0636   20.7174 N   0  0  0  0  0  0
  -30.1181  -15.3572   21.4496 N   0  0  0  0  0  0
  -29.7857  -23.5570   21.8782 O   0  0  0  0  0  0
  -30.4999  -20.0203   19.7904 F   0  0  0  0  0  0
  -26.8782  -18.6156   22.6043 F   0  0  0  0  0  0
  -27.8802  -16.0923   22.6413 F   0  0  0  0  0  0
  -31.4802  -12.4544   19.1202 H   0  0  0  0  0  0
  -30.3523  -11.3266   19.8308 H   0  0  0  0  0  0
  -29.7403  -11.8006   17.4423 H   0  0  0  0  0  0
  -29.6504  -13.5154   17.7803 H   0  0  0  0  0  0
  -27.8429  -11.3207   18.8330 H   0  0  0  0  0  0
  -27.3670  -12.6504   17.8132 H   0  0  0  0  0  0
  -27.7185  -14.2671   19.5974 H   0  0  0  0  0  0
  -28.7087  -11.9689   21.3673 H   0  0  0  0  0  0
  -28.4605  -13.5985   21.8887 H   0  0  0  0  0  0
  -25.2778   -9.5676   22.4774 H   0  0  0  0  0  0
  -24.0002   -7.4639   22.7476 H   0  0  0  0  0  0
  -21.0857   -8.8804   19.8949 H   0  0  0  0  0  0
  -22.3736  -10.9695   19.6167 H   0  0  0  0  0  0
  -21.1987   -7.6140   23.9716 H   0  0  0  0  0  0
  -21.1496   -6.0511   25.9076 H   0  0  0  0  0  0
  -22.0591   -2.7605   23.2843 H   0  0  0  0  0  0
  -22.4104  -11.9940   22.4852 H   0  0  0  0  0  0
  -21.1112  -13.1281   22.2588 H   0  0  0  0  0  0
  -24.6241  -15.8156   20.3857 H   0  0  0  0  0  0
  -26.2516  -15.6128   19.9885 H   0  0  0  0  0  0
  -26.7169  -32.5459   23.1123 H   0  0  0  0  0  0
  -25.0157  -33.9757   25.0517 H   0  0  0  0  0  0
  -22.6981  -31.3134   21.4192 H   0  0  0  0  0  0
  -23.3753  -35.9625   23.3338 H   0  0  0  0  0  0
  -24.3607  -36.8865   22.2050 H   0  0  0  0  0  0
  -23.7229  -37.6487   23.6635 H   0  0  0  0  0  0
  -26.0832  -31.5838   20.6237 H   0  0  0  0  0  0
  -26.8246  -30.8353   22.0140 H   0  0  0  0  0  0
  -28.1061  -29.0445   21.1362 H   0  0  0  0  0  0
  -25.9286  -25.9271   19.0641 H   0  0  0  0  0  0
  -23.9304  -27.2834   19.0911 H   0  0  0  0  0  0
  -23.7196  -30.5984   19.4098 H   0  0  0  0  0  0
  -22.7328  -29.2442   19.8860 H   0  0  0  0  0  0
  -25.1302  -36.1956   25.0818 H   0  0  0  0  0  0
  -21.0014  -28.2946   24.1308 H   0  0  0  0  0  0
  -20.6274  -26.2119   23.3057 H   0  0  0  0  0  0
  -21.6574  -26.7777   22.0320 H   0  0  0  0  0  0
  -19.6585  -25.6365   21.1077 H   0  0  0  0  0  0
  -19.6094  -27.3324   20.6698 H   0  0  0  0  0  0
  -17.3877  -26.6179   21.4783 H   0  0  0  0  0  0
  -18.0734  -26.0073   22.9638 H   0  0  0  0  0  0
  -19.8115  -30.7320   24.1925 H   0  0  0  0  0  0
  -17.5277  -31.6393   24.4993 H   0  0  0  0  0  0
  -15.5485  -30.3077   23.7837 H   0  0  0  0  0  0
  -15.8680  -28.0728   22.7542 H   0  0  0  0  0  0
  -24.5894  -30.7119   25.7873 H   0  0  0  0  0  0
  -24.9000  -32.2895   26.4995 H   0  0  0  0  0  0
  -25.8108  -30.8872   27.0253 H   0  0  0  0  0  0
  -26.2948  -29.6749   24.1254 H   0  0  0  0  0  0
  -27.4030  -29.7303   25.4764 H   0  0  0  0  0  0
  -27.8825  -30.4313   23.9499 H   0  0  0  0  0  0
  -27.2622  -33.3595   26.2159 H   0  0  0  0  0  0
  -28.3817  -32.6959   25.0370 H   0  0  0  0  0  0
  -28.0732  -31.8450   26.5412 H   0  0  0  0  0  0
  -28.2616  -38.0077   24.7515 H   0  0  0  0  0  0
  -28.1052  -36.2595   24.6324 H   0  0  0  0  0  0
  -27.2289  -37.1488   25.8877 H   0  0  0  0  0  0
  -20.9296  -29.8916   21.7121 H   0  0  0  0  0  0
  -26.0192  -38.2859   24.1385 H   0  0  0  0  0  0
  -31.2467  -17.5080   19.9273 H   0  0  0  0  0  0
  -27.8999  -22.5568   18.6561 H   0  0  0  0  0  0
  -26.4774  -22.4337   19.7306 H   0  0  0  0  0  0
  -27.0113  -24.3823   20.8844 H   0  0  0  0  0  0
  -28.7640  -21.0784   22.4961 H   0  0  0  0  0  0
  -27.1831  -20.8407   21.8605 H   0  0  0  0  0  0
  -27.9100  -25.3389   18.4680 H   0  0  0  0  0  0
  -29.4387  -25.1066   19.1947 H   0  0  0  0  0  0
  -29.5034  -14.8585   22.0795 H   0  0  0  0  0  0
  1 25  1  0  0  0
  1 30  2  0  0  0
  1 83  1  0  0  0
  2  3  1  0  0  0
  2 25  1  0  0  0
  2 88  1  0  0  0
  2 89  1  0  0  0
  3  4  1  0  0  0
  3 90  1  0  0  0
  3 91  1  0  0  0
  4  5  1  0  0  0
  4 92  1  0  0  0
  4 93  1  0  0  0
  5  6  1  0  0  0
  5 26  1  0  0  0
  5 94  1  0  0  0
  6 25  1  0  0  0
  6 95  1  0  0  0
  6 96  1  0  0  0
  7  8  2  0  0  0
  7 26  1  0  0  0
  7 29  1  0  0  0
  8  9  1  0  0  0
  8 22  1  0  0  0
  9 10  1  0  0  0
  9 27  2  0  0  0
 10 11  2  0  0  0
 10 15  1  0  0  0
 11 12  1  0  0  0
 11 97  1  0  0  0
 12 13  2  0  0  0
 12 98  1  0  0  0
 13 14  1  0  0  0
 13 31  1  0  0  0
 14 15  2  0  0  0
 14 99  1  0  0  0
 15100  1  0  0  0
 16 17  2  0  0  0
 16 21  1  0  0  0
 16 31  1  0  0  0
 17 18  1  0  0  0
 17101  1  0  0  0
 18 19  2  0  0  0
 18102  1  0  0  0
 19 20  1  0  0  0
 19 24  1  0  0  0
 20 21  2  0  0  0
 20103  1  0  0  0
 21 23  1  0  0  0
 22 28  1  0  0  0
 22 32  2  0  0  0
 26 27  1  0  0  0
 28104  1  0  0  0
 28105  1  0  0  0
 29106  1  0  0  0
 29107  1  0  0  0
 33 34  1  0  0  0
 33 66  1  0  0  0
 33 70  2  0  0  0
 34 36  1  0  0  0
 34 59  1  0  0  0
 34108  1  0  0  0
 35 44  2  0  0  0
 35 45  1  0  0  0
 35 68  1  0  0  0
 36 56  1  0  0  0
 36109  1  0  0  0
 37 39  1  0  0  0
 37 47  1  0  0  0
 37 66  1  0  0  0
 37110  1  0  0  0
 38 43  2  0  0  0
 38 46  1  0  0  0
 38 47  1  0  0  0
 39 64  1  0  0  0
 39 67  2  0  0  0
 40 52  1  0  0  0
 40 53  2  0  0  0
 40 58  1  0  0  0
 41111  1  0  0  0
 41112  1  0  0  0
 41113  1  0  0  0
 41 48  1  0  0  0
 42 43  1  0  0  0
 42 66  1  0  0  0
 42114  1  0  0  0
 42115  1  0  0  0
 43 44  1  0  0  0
 44116  1  0  0  0
 45 46  2  0  0  0
 45117  1  0  0  0
 46118  1  0  0  0
 47119  1  0  0  0
 47120  1  0  0  0
 48 56  1  0  0  0
 48 65  1  0  0  0
 48121  1  0  0  0
 49 50  1  0  0  0
 49 53  1  0  0  0
 49 64  1  0  0  0
 49122  1  0  0  0
 50 51  1  0  0  0
 50123  1  0  0  0
 50124  1  0  0  0
 51 52  1  0  0  0
 51125  1  0  0  0
 51126  1  0  0  0
 52127  1  0  0  0
 52128  1  0  0  0
 53 54  1  0  0  0
 54 55  2  0  0  0
 54129  1  0  0  0
 55 57  1  0  0  0
 55130  1  0  0  0
 56 69  2  0  0  0
 57 58  2  0  0  0
 57131  1  0  0  0
 58132  1  0  0  0
 59 60  1  0  0  0
 59 61  1  0  0  0
 59 62  1  0  0  0
 60133  1  0  0  0
 60134  1  0  0  0
 60135  1  0  0  0
 61136  1  0  0  0
 61137  1  0  0  0
 61138  1  0  0  0
 62139  1  0  0  0
 62140  1  0  0  0
 62141  1  0  0  0
 63 65  1  0  0  0
 63142  1  0  0  0
 63143  1  0  0  0
 63144  1  0  0  0
 64145  1  0  0  0
 65146  1  0  0  0
 68 81  1  0  0  0
 71 73  2  0  0  0
 71 74  1  0  0  0
 71147  1  0  0  0
 72 74  2  0  0  0
 72 75  1  0  0  0
 72 80  1  0  0  0
 73 76  1  0  0  0
 73 83  1  0  0  0
 74 85  1  0  0  0
 75 76  2  0  0  0
 75 86  1  0  0  0
 76 87  1  0  0  0
 77 79  1  0  0  0
 77 82  1  0  0  0
 77 84  2  0  0  0
 78 79  1  0  0  0
 78 82  1  0  0  0
 78148  1  0  0  0
 78149  1  0  0  0
 79 81  1  0  0  0
 79150  1  0  0  0
 80 82  1  0  0  0
 80151  1  0  0  0
 80152  1  0  0  0
 81153  1  0  0  0
 81154  1  0  0  0
 83155  1  0  0  0
M  ISO  4   1 100  68 101  81 101  83 100
M  END
> <chiral flag>
0

> <version>
0

> <s_m_source_file>
/data/baiqing/PycharmProjects/Reinvent-master-3.2/result/LINK_invent/BTK/process_docking_weight1_custom_product_contain_oxygen_bond_distance_aromatic_linkinvent_7_9_3/rearranged_h_0020.sdf

> <i_m_source_file_index>
37

> <r_mmod_Potential_Energy-OPLS-2005>
17.0190715789795

> <r_mmod_Stretch_Energy-OPLS-2005>
49.9442100524902

> <r_mmod_Bend_Energy-OPLS-2005>
151.745071411133

> <r_mmod_Torsional_Energy-OPLS-2005>
245.938812255859

> <r_mmod_Improper_Torsional_Energy-OPLS-2005>
9.94040584564209

> <r_mmod_Van_der_Waal_Energy-OPLS-2005>
143.815872192383

> <r_mmod_Electrostatic_Energy-OPLS-2005>
-383.838470458984

> <r_mmod_Solvation_Energy-OPLS-2005>
-222.577331542969

> <b_mmod_Minimization_Converged-OPLS-2005>
0

> <r_mmod_RMS_Derivative-OPLS-2005>
10.2347507476807

$$$$
38
                    3D
 Structure written by MMmdl.
152160  0  0  1  0            999 V2000
  -30.6092  -14.7086   20.4522 C   0  0  0  0  0  0
  -30.4278  -12.4202   19.4983 C   0  0  0  0  0  0
  -29.5196  -12.5109   18.2515 C   0  0  0  0  0  0
  -28.0438  -12.3317   18.6551 C   0  0  0  0  0  0
  -27.6450  -13.2308   19.8583 C   0  0  2  0  0  0
  -28.6802  -13.1464   21.0050 C   0  0  0  0  0  0
  -25.2513  -13.8187   20.5710 C   0  0  0  0  0  0
  -24.1815  -13.0418   20.9215 C   0  0  0  0  0  0
  -24.6409  -11.6900   20.8739 C   0  0  0  0  0  0
  -23.9081  -10.4272   21.0407 C   0  0  0  0  0  0
  -24.3632   -9.4175   21.9169 C   0  0  0  0  0  0
  -23.6301   -8.2215   22.0741 C   0  0  0  0  0  0
  -22.4273   -8.0266   21.3544 C   0  0  0  0  0  0
  -21.9918   -9.0235   20.4636 C   0  0  0  0  0  0
  -22.7256  -10.2110   20.3047 C   0  0  0  0  0  0
  -21.6841   -6.0742   22.5277 C   0  0  0  0  0  0
  -21.4015   -6.5647   23.8211 C   0  0  0  0  0  0
  -21.3663   -5.6797   24.9166 C   0  0  0  0  0  0
  -21.6038   -4.3060   24.7222 C   0  0  0  0  0  0
  -21.8811   -3.8149   23.4343 C   0  0  0  0  0  0
  -21.9184   -4.6969   22.3395 C   0  0  0  0  0  0
  -22.7839  -13.5189   21.1904 C   0  0  0  0  0  0
  -22.1666   -4.2148   21.0977 F   0  0  0  0  0  0
  -21.5610   -3.4540   25.7734 F   0  0  0  0  0  0
  -29.9955  -13.4785   20.4409 N   0  0  0  0  0  0
  -26.2943  -12.9399   20.3266 N   0  0  0  0  0  0
  -25.9340  -11.6533   20.5731 N   0  0  0  0  0  0
  -22.0521  -12.8141   22.0464 N   0  0  0  0  0  0
  -25.4163  -15.1917   20.4178 N   0  0  0  0  0  0
  -31.7810  -14.8163   20.0774 O   0  0  0  0  0  0
  -21.6621   -6.8875   21.4244 O   0  0  0  0  0  0
  -22.3496  -14.5490   20.6751 O   0  0  0  0  0  0
  -24.6316  -31.8530   23.2029 C   0  0  0  0  0  0
  -25.9162  -32.4737   23.8307 C   0  0  1  0  0  0
  -27.2108  -27.2692   20.1151 C   0  0  0  0  0  0
  -25.5950  -33.8539   24.2244 N   0  0  0  0  0  0
  -23.4242  -30.4845   21.5432 C   0  0  2  0  0  0
  -24.8697  -28.9389   20.1047 C   0  0  0  0  0  0
  -22.7461  -29.4615   22.4875 C   0  0  0  0  0  0
  -18.0299  -28.1393   22.8487 C   0  0  0  0  0  0
  -24.1494  -36.7289   23.2639 C   0  0  0  0  0  0
  -25.9702  -30.7719   21.3768 C   0  0  0  0  0  0
  -26.0409  -29.3937   20.7227 C   0  0  0  0  0  0
  -27.2117  -28.5688   20.7249 C   0  0  0  0  0  0
  -26.0205  -26.8963   19.4452 C   0  0  0  0  0  0
  -24.8636  -27.6980   19.4549 C   0  0  0  0  0  0
  -23.6405  -29.8260   20.1561 C   0  0  0  0  0  0
  -25.4111  -36.3051   24.0322 C   0  0  1  0  0  0
  -20.5896  -28.3736   23.1273 C   0  0  2  0  0  0
  -20.6833  -26.9419   22.5497 C   0  0  0  0  0  0
  -19.5825  -26.6330   21.5325 C   0  0  0  0  0  0
  -18.1999  -26.7898   22.1705 C   0  0  0  0  0  0
  -19.1536  -28.8884   23.2861 C   0  0  0  0  0  0
  -18.9442  -30.1490   23.8861 C   0  0  0  0  0  0
  -17.6437  -30.6592   24.0536 C   0  0  0  0  0  0
  -25.9056  -34.9429   23.5081 C   0  0  0  0  0  0
  -16.5333  -29.9081   23.6309 C   0  0  0  0  0  0
  -16.7279  -28.6500   23.0325 C   0  0  0  0  0  0
  -26.4540  -31.6559   25.0684 C   0  0  0  0  0  0
  -25.3780  -31.3697   26.1418 C   0  0  0  0  0  0
  -27.0373  -30.2978   24.6136 C   0  0  0  0  0  0
  -27.6086  -32.4278   25.7464 C   0  0  0  0  0  0
  -27.5568  -37.1799   24.8462 C   0  0  0  0  0  0
  -21.4173  -29.3053   22.3610 N   0  0  0  0  0  0
  -26.4274  -37.3764   23.9416 N   0  0  0  0  0  0
  -24.6958  -31.0528   22.0976 N   0  0  0  0  0  0
  -23.4159  -28.8143   23.2966 O   0  0  0  0  0  0
  -28.2964  -26.3623   20.1903 O   0  0  0  0  0  0
  -26.5630  -34.8914   22.4644 O   0  0  0  0  0  0
  -23.5477  -32.1300   23.7382 O   0  0  0  0  0  0
  -30.1603  -17.2087   18.6721 C   0  0  0  0  0  0
  -29.7963  -19.6365   18.5928 C   0  0  0  0  0  0
  -29.8845  -17.1567   20.0601 C   0  0  0  0  0  0
  -29.5173  -19.6984   19.9777 C   0  0  0  0  0  0
  -30.1057  -18.4192   17.9551 C   0  0  0  0  0  0
  -29.5523  -18.4266   20.6922 C   0  0  0  0  0  0
  -28.9667  -23.6922   20.4357 C   0  0  0  0  0  0
  -28.6555  -22.1963   19.8976 C   0  0  0  0  0  0
  -28.0564  -24.9102   19.8824 C   0  0  0  0  0  0
  -29.8505  -15.8304   20.7270 N   0  0  0  0  0  0
  -29.2512  -20.9859   20.5966 N   0  0  0  0  0  0
  -30.3516  -18.4134   16.6227 F   0  0  0  0  0  0
  -29.2608  -18.4283   22.0168 F   0  0  0  0  0  0
  -31.4783  -12.5146   19.2145 H   0  0  0  0  0  0
  -30.3319  -11.4416   19.9701 H   0  0  0  0  0  0
  -29.8089  -11.7570   17.5178 H   0  0  0  0  0  0
  -29.6541  -13.4771   17.7641 H   0  0  0  0  0  0
  -27.9098  -11.2826   18.9266 H   0  0  0  0  0  0
  -27.3896  -12.5163   17.8030 H   0  0  0  0  0  0
  -27.6475  -14.2563   19.4879 H   0  0  0  0  0  0
  -28.6948  -12.1475   21.4436 H   0  0  0  0  0  0
  -28.4169  -13.8279   21.8163 H   0  0  0  0  0  0
  -25.2797   -9.5613   22.4738 H   0  0  0  0  0  0
  -23.9979   -7.4601   22.7476 H   0  0  0  0  0  0
  -21.0827   -8.8772   19.8972 H   0  0  0  0  0  0
  -22.3721  -10.9651   19.6145 H   0  0  0  0  0  0
  -21.2033   -7.6158   23.9707 H   0  0  0  0  0  0
  -21.1503   -6.0534   25.9062 H   0  0  0  0  0  0
  -22.0596   -2.7615   23.2835 H   0  0  0  0  0  0
  -22.4169  -11.9787   22.4799 H   0  0  0  0  0  0
  -21.1161  -13.1154   22.2771 H   0  0  0  0  0  0
  -24.6366  -15.8355   20.4991 H   0  0  0  0  0  0
  -26.2564  -15.6371   20.0732 H   0  0  0  0  0  0
  -26.7212  -32.5400   23.1030 H   0  0  0  0  0  0
  -25.0081  -33.9646   25.0378 H   0  0  0  0  0  0
  -22.7210  -31.3083   21.4053 H   0  0  0  0  0  0
  -23.3731  -35.9649   23.3286 H   0  0  0  0  0  0
  -24.3589  -36.8923   22.2057 H   0  0  0  0  0  0
  -23.7279  -37.6499   23.6673 H   0  0  0  0  0  0
  -26.0954  -31.5284   20.5998 H   0  0  0  0  0  0
  -26.8561  -30.8289   21.9972 H   0  0  0  0  0  0
  -28.1071  -28.9047   21.2318 H   0  0  0  0  0  0
  -25.9461  -25.9625   18.9075 H   0  0  0  0  0  0
  -23.9697  -27.3550   18.9528 H   0  0  0  0  0  0
  -23.7595  -30.6060   19.4015 H   0  0  0  0  0  0
  -22.7597  -29.2576   19.8534 H   0  0  0  0  0  0
  -25.1304  -36.1862   25.0812 H   0  0  0  0  0  0
  -20.9967  -28.3363   24.1402 H   0  0  0  0  0  0
  -20.5761  -26.2315   23.3725 H   0  0  0  0  0  0
  -21.6717  -26.7478   22.1334 H   0  0  0  0  0  0
  -19.7007  -25.6202   21.1455 H   0  0  0  0  0  0
  -19.6842  -27.3089   20.6816 H   0  0  0  0  0  0
  -17.4281  -26.6544   21.4101 H   0  0  0  0  0  0
  -18.0430  -26.0105   22.9187 H   0  0  0  0  0  0
  -19.7896  -30.7361   24.2224 H   0  0  0  0  0  0
  -17.4981  -31.6274   24.5135 H   0  0  0  0  0  0
  -15.5334  -30.2986   23.7643 H   0  0  0  0  0  0
  -15.8681  -28.0827   22.7017 H   0  0  0  0  0  0
  -24.5989  -30.7002   25.7768 H   0  0  0  0  0  0
  -24.8937  -32.2857   26.4796 H   0  0  0  0  0  0
  -25.8114  -30.8923   27.0211 H   0  0  0  0  0  0
  -26.2935  -29.6706   24.1210 H   0  0  0  0  0  0
  -27.4130  -29.7254   25.4626 H   0  0  0  0  0  0
  -27.8781  -30.4259   23.9317 H   0  0  0  0  0  0
  -27.2709  -33.3587   26.2025 H   0  0  0  0  0  0
  -28.3927  -32.6795   25.0316 H   0  0  0  0  0  0
  -28.0716  -31.8384   26.5391 H   0  0  0  0  0  0
  -28.2593  -38.0088   24.7506 H   0  0  0  0  0  0
  -28.1048  -36.2620   24.6276 H   0  0  0  0  0  0
  -27.2296  -37.1457   25.8868 H   0  0  0  0  0  0
  -20.9350  -29.8612   21.6688 H   0  0  0  0  0  0
  -26.0127  -38.2832   24.1386 H   0  0  0  0  0  0
  -30.3894  -16.3080   18.1223 H   0  0  0  0  0  0
  -29.7978  -20.5245   17.9821 H   0  0  0  0  0  0
  -30.0081  -23.9179   20.2053 H   0  0  0  0  0  0
  -28.8985  -23.6990   21.5236 H   0  0  0  0  0  0
  -27.5746  -22.0486   19.9207 H   0  0  0  0  0  0
  -28.9168  -22.1846   18.8402 H   0  0  0  0  0  0
  -27.0557  -24.6525   20.2269 H   0  0  0  0  0  0
  -28.0240  -24.8290   18.7937 H   0  0  0  0  0  0
  -29.0225  -15.6593   21.2795 H   0  0  0  0  0  0
  -29.0528  -20.9227   21.5944 H   0  0  0  0  0  0
  1 25  1  0  0  0
  1 30  2  0  0  0
  1 80  1  0  0  0
  2  3  1  0  0  0
  2 25  1  0  0  0
  2 84  1  0  0  0
  2 85  1  0  0  0
  3  4  1  0  0  0
  3 86  1  0  0  0
  3 87  1  0  0  0
  4  5  1  0  0  0
  4 88  1  0  0  0
  4 89  1  0  0  0
  5  6  1  0  0  0
  5 26  1  0  0  0
  5 90  1  0  0  0
  6 25  1  0  0  0
  6 91  1  0  0  0
  6 92  1  0  0  0
  7  8  2  0  0  0
  7 26  1  0  0  0
  7 29  1  0  0  0
  8  9  1  0  0  0
  8 22  1  0  0  0
  9 10  1  0  0  0
  9 27  2  0  0  0
 10 11  2  0  0  0
 10 15  1  0  0  0
 11 12  1  0  0  0
 11 93  1  0  0  0
 12 13  2  0  0  0
 12 94  1  0  0  0
 13 14  1  0  0  0
 13 31  1  0  0  0
 14 15  2  0  0  0
 14 95  1  0  0  0
 15 96  1  0  0  0
 16 17  2  0  0  0
 16 21  1  0  0  0
 16 31  1  0  0  0
 17 18  1  0  0  0
 17 97  1  0  0  0
 18 19  2  0  0  0
 18 98  1  0  0  0
 19 20  1  0  0  0
 19 24  1  0  0  0
 20 21  2  0  0  0
 20 99  1  0  0  0
 21 23  1  0  0  0
 22 28  1  0  0  0
 22 32  2  0  0  0
 26 27  1  0  0  0
 28100  1  0  0  0
 28101  1  0  0  0
 29102  1  0  0  0
 29103  1  0  0  0
 33 34  1  0  0  0
 33 66  1  0  0  0
 33 70  2  0  0  0
 34 36  1  0  0  0
 34 59  1  0  0  0
 34104  1  0  0  0
 35 44  2  0  0  0
 35 45  1  0  0  0
 35 68  1  0  0  0
 36 56  1  0  0  0
 36105  1  0  0  0
 37 39  1  0  0  0
 37 47  1  0  0  0
 37 66  1  0  0  0
 37106  1  0  0  0
 38 43  2  0  0  0
 38 46  1  0  0  0
 38 47  1  0  0  0
 39 64  1  0  0  0
 39 67  2  0  0  0
 40 52  1  0  0  0
 40 53  2  0  0  0
 40 58  1  0  0  0
 41107  1  0  0  0
 41108  1  0  0  0
 41109  1  0  0  0
 41 48  1  0  0  0
 42 43  1  0  0  0
 42 66  1  0  0  0
 42110  1  0  0  0
 42111  1  0  0  0
 43 44  1  0  0  0
 44112  1  0  0  0
 45 46  2  0  0  0
 45113  1  0  0  0
 46114  1  0  0  0
 47115  1  0  0  0
 47116  1  0  0  0
 48 56  1  0  0  0
 48 65  1  0  0  0
 48117  1  0  0  0
 49 50  1  0  0  0
 49 53  1  0  0  0
 49 64  1  0  0  0
 49118  1  0  0  0
 50 51  1  0  0  0
 50119  1  0  0  0
 50120  1  0  0  0
 51 52  1  0  0  0
 51121  1  0  0  0
 51122  1  0  0  0
 52123  1  0  0  0
 52124  1  0  0  0
 53 54  1  0  0  0
 54 55  2  0  0  0
 54125  1  0  0  0
 55 57  1  0  0  0
 55126  1  0  0  0
 56 69  2  0  0  0
 57 58  2  0  0  0
 57127  1  0  0  0
 58128  1  0  0  0
 59 60  1  0  0  0
 59 61  1  0  0  0
 59 62  1  0  0  0
 60129  1  0  0  0
 60130  1  0  0  0
 60131  1  0  0  0
 61132  1  0  0  0
 61133  1  0  0  0
 61134  1  0  0  0
 62135  1  0  0  0
 62136  1  0  0  0
 62137  1  0  0  0
 63 65  1  0  0  0
 63138  1  0  0  0
 63139  1  0  0  0
 63140  1  0  0  0
 64141  1  0  0  0
 65142  1  0  0  0
 68 79  1  0  0  0
 71 73  2  0  0  0
 71 75  1  0  0  0
 71143  1  0  0  0
 72 74  1  0  0  0
 72 75  2  0  0  0
 72144  1  0  0  0
 73 76  1  0  0  0
 73 80  1  0  0  0
 74 76  2  0  0  0
 74 81  1  0  0  0
 75 82  1  0  0  0
 76 83  1  0  0  0
 77 78  1  0  0  0
 77 79  1  0  0  0
 77145  1  0  0  0
 77146  1  0  0  0
 78 81  1  0  0  0
 78147  1  0  0  0
 78148  1  0  0  0
 79149  1  0  0  0
 79150  1  0  0  0
 80151  1  0  0  0
 81152  1  0  0  0
M  ISO  4   1 100  68 101  79 101  80 100
M  END
> <chiral flag>
0

> <version>
0

> <s_m_source_file>
/data/baiqing/PycharmProjects/Reinvent-master-3.2/result/LINK_invent/BTK/process_docking_weight1_custom_product_contain_oxygen_bond_distance_aromatic_linkinvent_7_9_3/rearranged_h_0020.sdf

> <i_m_source_file_index>
38

> <r_mmod_Potential_Energy-OPLS-2005>
201.890594482422

> <r_mmod_Stretch_Energy-OPLS-2005>
116.858673095703

> <r_mmod_Bend_Energy-OPLS-2005>
157.572952270508

> <r_mmod_Torsional_Energy-OPLS-2005>
228.71467590332

> <r_mmod_Improper_Torsional_Energy-OPLS-2005>
6.8513445854187

> <r_mmod_Van_der_Waal_Energy-OPLS-2005>
145.279556274414

> <r_mmod_Electrostatic_Energy-OPLS-2005>
-315.329956054688

> <r_mmod_Solvation_Energy-OPLS-2005>
-215.915100097656

> <b_mmod_Minimization_Converged-OPLS-2005>
0

> <r_mmod_RMS_Derivative-OPLS-2005>
3.80539059638977

$$$$
39
                    3D
 Structure written by MMmdl.
161169  0  0  1  0            999 V2000
  -30.8063  -14.4409   20.6560 C   0  0  0  0  0  0
  -30.3939  -12.3157   19.4563 C   0  0  0  0  0  0
  -29.4933  -12.5400   18.2247 C   0  0  0  0  0  0
  -28.0154  -12.3705   18.6153 C   0  0  0  0  0  0
  -27.6528  -13.2080   19.8680 C   0  0  2  0  0  0
  -28.6824  -12.9983   20.9982 C   0  0  0  0  0  0
  -25.2537  -13.8155   20.5658 C   0  0  0  0  0  0
  -24.1800  -13.0431   20.9135 C   0  0  0  0  0  0
  -24.6351  -11.6898   20.8676 C   0  0  0  0  0  0
  -23.9036  -10.4290   21.0364 C   0  0  0  0  0  0
  -24.3592   -9.4234   21.9160 C   0  0  0  0  0  0
  -23.6271   -8.2277   22.0762 C   0  0  0  0  0  0
  -22.4257   -8.0298   21.3546 C   0  0  0  0  0  0
  -21.9875   -9.0265   20.4650 C   0  0  0  0  0  0
  -22.7198  -10.2139   20.3039 C   0  0  0  0  0  0
  -21.6846   -6.0739   22.5280 C   0  0  0  0  0  0
  -21.4028   -6.5644   23.8216 C   0  0  0  0  0  0
  -21.3672   -5.6792   24.9171 C   0  0  0  0  0  0
  -21.6052   -4.3057   24.7216 C   0  0  0  0  0  0
  -21.8813   -3.8150   23.4334 C   0  0  0  0  0  0
  -21.9194   -4.6970   22.3396 C   0  0  0  0  0  0
  -22.7838  -13.5260   21.1830 C   0  0  0  0  0  0
  -22.1656   -4.2157   21.0972 F   0  0  0  0  0  0
  -21.5629   -3.4545   25.7730 F   0  0  0  0  0  0
  -30.0290  -13.3198   20.4819 N   0  0  0  0  0  0
  -26.2947  -12.9320   20.3270 N   0  0  0  0  0  0
  -25.9268  -11.6474   20.5675 N   0  0  0  0  0  0
  -22.0473  -12.8271   22.0393 N   0  0  0  0  0  0
  -25.4241  -15.1880   20.4165 N   0  0  0  0  0  0
  -31.8838  -14.5311   20.0528 O   0  0  0  0  0  0
  -21.6637   -6.8881   21.4240 O   0  0  0  0  0  0
  -22.3546  -14.5583   20.6694 O   0  0  0  0  0  0
  -24.6126  -31.8701   23.2104 C   0  0  0  0  0  0
  -25.9051  -32.4813   23.8400 C   0  0  1  0  0  0
  -27.2510  -27.4492   20.0950 C   0  0  0  0  0  0
  -25.5966  -33.8616   24.2346 N   0  0  0  0  0  0
  -23.3981  -30.4900   21.5485 C   0  0  2  0  0  0
  -24.8493  -28.9559   20.1187 C   0  0  0  0  0  0
  -22.7391  -29.4638   22.4989 C   0  0  0  0  0  0
  -18.0254  -28.1399   22.8496 C   0  0  0  0  0  0
  -24.1485  -36.7215   23.2643 C   0  0  0  0  0  0
  -25.9275  -30.8410   21.3604 C   0  0  0  0  0  0
  -26.0074  -29.4754   20.7070 C   0  0  0  0  0  0
  -27.2061  -28.7321   20.6879 C   0  0  0  0  0  0
  -26.0669  -26.9324   19.5180 C   0  0  0  0  0  0
  -24.8731  -27.6830   19.5241 C   0  0  0  0  0  0
  -23.6091  -29.8191   20.1631 C   0  0  0  0  0  0
  -25.4132  -36.3090   24.0339 C   0  0  1  0  0  0
  -20.5842  -28.3640   23.1346 C   0  0  2  0  0  0
  -20.6739  -26.9386   22.5414 C   0  0  0  0  0  0
  -19.5737  -26.6398   21.5204 C   0  0  0  0  0  0
  -18.1915  -26.7954   22.1614 C   0  0  0  0  0  0
  -19.1503  -28.8839   23.2909 C   0  0  0  0  0  0
  -18.9453  -30.1460   23.8895 C   0  0  0  0  0  0
  -17.6464  -30.6609   24.0580 C   0  0  0  0  0  0
  -25.9088  -34.9466   23.5126 C   0  0  0  0  0  0
  -16.5342  -29.9141   23.6332 C   0  0  0  0  0  0
  -16.7239  -28.6550   23.0345 C   0  0  0  0  0  0
  -26.4499  -31.6559   25.0715 C   0  0  0  0  0  0
  -25.3781  -31.3609   26.1463 C   0  0  0  0  0  0
  -27.0306  -30.3018   24.6058 C   0  0  0  0  0  0
  -27.6088  -32.4228   25.7512 C   0  0  0  0  0  0
  -27.5579  -37.1772   24.8505 C   0  0  0  0  0  0
  -21.4117  -29.2995   22.3747 N   0  0  0  0  0  0
  -26.4307  -37.3791   23.9435 N   0  0  0  0  0  0
  -24.6629  -31.0854   22.0965 N   0  0  0  0  0  0
  -23.4166  -28.8173   23.3023 O   0  0  0  0  0  0
  -28.4706  -26.7992   20.0946 O   0  0  0  0  0  0
  -26.5622  -34.8928   22.4668 O   0  0  0  0  0  0
  -23.5319  -32.1398   23.7535 O   0  0  0  0  0  0
  -30.3551  -18.7805   22.6159 C   0  0  0  0  0  0
  -29.9595  -18.8911   20.2265 C   0  0  0  0  0  0
  -29.8311  -20.0814   22.7618 C   0  0  0  0  0  0
  -29.4581  -20.2037   20.3721 C   0  0  0  0  0  0
  -30.4165  -18.1624   21.3494 C   0  0  0  0  0  0
  -29.3796  -20.8229   21.6444 C   0  0  0  0  0  0
  -27.8668  -22.2685   22.8739 C   0  0  0  0  0  0
  -29.6876  -15.4497   22.6520 C   0  0  0  0  0  0
  -31.1228  -16.8134   21.1668 C   0  0  0  0  0  0
  -28.6103  -24.5288   21.0262 C   0  0  0  0  0  0
  -28.8306  -23.0368   20.6670 C   0  0  0  0  0  0
  -28.5950  -25.4140   19.7657 C   0  0  0  0  0  0
  -28.8804  -22.1354   21.8249 N   0  0  0  0  0  0
  -30.3634  -15.5365   21.3509 N   0  0  0  0  0  0
  -31.4424  -12.3557   19.1590 H   0  0  0  0  0  0
  -30.2572  -11.3061   19.8494 H   0  0  0  0  0  0
  -29.7605  -11.8459   17.4269 H   0  0  0  0  0  0
  -29.6513  -13.5433   17.8228 H   0  0  0  0  0  0
  -27.8399  -11.3109   18.8084 H   0  0  0  0  0  0
  -27.3697  -12.6390   17.7778 H   0  0  0  0  0  0
  -27.6930  -14.2565   19.5726 H   0  0  0  0  0  0
  -28.6581  -11.9598   21.3338 H   0  0  0  0  0  0
  -28.3640  -13.5543   21.8690 H   0  0  0  0  0  0
  -25.2735   -9.5730   22.4723 H   0  0  0  0  0  0
  -23.9989   -7.4674   22.7481 H   0  0  0  0  0  0
  -21.0814   -8.8765   19.8956 H   0  0  0  0  0  0
  -22.3637  -10.9672   19.6147 H   0  0  0  0  0  0
  -21.2030   -7.6150   23.9720 H   0  0  0  0  0  0
  -21.1500   -6.0519   25.9072 H   0  0  0  0  0  0
  -22.0579   -2.7617   23.2825 H   0  0  0  0  0  0
  -22.4045  -11.9916   22.4769 H   0  0  0  0  0  0
  -21.1107  -13.1343   22.2595 H   0  0  0  0  0  0
  -24.6580  -15.8404   20.5457 H   0  0  0  0  0  0
  -26.2936  -15.6425   20.1644 H   0  0  0  0  0  0
  -26.7126  -32.5500   23.1163 H   0  0  0  0  0  0
  -25.0205  -33.9799   25.0558 H   0  0  0  0  0  0
  -22.6835  -31.3017   21.4047 H   0  0  0  0  0  0
  -23.3809  -35.9486   23.3377 H   0  0  0  0  0  0
  -24.3574  -36.8749   22.2045 H   0  0  0  0  0  0
  -23.7186  -37.6419   23.6595 H   0  0  0  0  0  0
  -26.0608  -31.6109   20.5985 H   0  0  0  0  0  0
  -26.8091  -30.8833   21.9857 H   0  0  0  0  0  0
  -28.1011  -29.1419   21.1325 H   0  0  0  0  0  0
  -26.0271  -25.9608   19.0518 H   0  0  0  0  0  0
  -23.9777  -27.2737   19.0767 H   0  0  0  0  0  0
  -23.7156  -30.5876   19.3975 H   0  0  0  0  0  0
  -22.7354  -29.2365   19.8651 H   0  0  0  0  0  0
  -25.1324  -36.1941   25.0833 H   0  0  0  0  0  0
  -20.9929  -28.3199   24.1469 H   0  0  0  0  0  0
  -20.5683  -26.2223   23.3574 H   0  0  0  0  0  0
  -21.6618  -26.7467   22.1208 H   0  0  0  0  0  0
  -19.6907  -25.6327   21.1213 H   0  0  0  0  0  0
  -19.6721  -27.3236   20.6760 H   0  0  0  0  0  0
  -17.4182  -26.6664   21.4016 H   0  0  0  0  0  0
  -18.0325  -26.0094   22.9013 H   0  0  0  0  0  0
  -19.7923  -30.7272   24.2255 H   0  0  0  0  0  0
  -17.5030  -31.6302   24.5183 H   0  0  0  0  0  0
  -15.5356  -30.3077   23.7672 H   0  0  0  0  0  0
  -15.8599  -28.0912   22.7064 H   0  0  0  0  0  0
  -24.5991  -30.6939   25.7787 H   0  0  0  0  0  0
  -24.8931  -32.2713   26.4962 H   0  0  0  0  0  0
  -25.8175  -30.8730   27.0170 H   0  0  0  0  0  0
  -26.2792  -29.6810   24.1166 H   0  0  0  0  0  0
  -27.4159  -29.7247   25.4476 H   0  0  0  0  0  0
  -27.8631  -30.4378   23.9156 H   0  0  0  0  0  0
  -27.2763  -33.3526   26.2145 H   0  0  0  0  0  0
  -28.3935  -32.6789   25.0379 H   0  0  0  0  0  0
  -28.0734  -31.8285   26.5410 H   0  0  0  0  0  0
  -28.2662  -38.0017   24.7568 H   0  0  0  0  0  0
  -28.1012  -36.2560   24.6325 H   0  0  0  0  0  0
  -27.2279  -37.1422   25.8907 H   0  0  0  0  0  0
  -20.9265  -29.8620   21.6898 H   0  0  0  0  0  0
  -26.0186  -38.2857   24.1474 H   0  0  0  0  0  0
  -30.7436  -18.2769   23.4888 H   0  0  0  0  0  0
  -30.0321  -18.4728   19.2321 H   0  0  0  0  0  0
  -29.8052  -20.5196   23.7487 H   0  0  0  0  0  0
  -29.1396  -20.7236   19.4822 H   0  0  0  0  0  0
  -27.4389  -21.3103   23.1725 H   0  0  0  0  0  0
  -27.0316  -22.8851   22.5437 H   0  0  0  0  0  0
  -28.2963  -22.7425   23.7559 H   0  0  0  0  0  0
  -29.8628  -14.4913   23.1442 H   0  0  0  0  0  0
  -28.6157  -15.6159   22.5369 H   0  0  0  0  0  0
  -30.0415  -16.1980   23.3540 H   0  0  0  0  0  0
  -31.9780  -16.7963   21.8453 H   0  0  0  0  0  0
  -31.5529  -16.8680   20.1636 H   0  0  0  0  0  0
  -29.4025  -24.8670   21.6973 H   0  0  0  0  0  0
  -27.6734  -24.6751   21.5629 H   0  0  0  0  0  0
  -29.7715  -22.9527   20.1178 H   0  0  0  0  0  0
  -28.0473  -22.7043   19.9844 H   0  0  0  0  0  0
  -27.8687  -25.0565   19.0387 H   0  0  0  0  0  0
  -29.5583  -25.3080   19.2670 H   0  0  0  0  0  0
  1 25  1  0  0  0
  1 30  2  0  0  0
  1 84  1  0  0  0
  2  3  1  0  0  0
  2 25  1  0  0  0
  2 85  1  0  0  0
  2 86  1  0  0  0
  3  4  1  0  0  0
  3 87  1  0  0  0
  3 88  1  0  0  0
  4  5  1  0  0  0
  4 89  1  0  0  0
  4 90  1  0  0  0
  5  6  1  0  0  0
  5 26  1  0  0  0
  5 91  1  0  0  0
  6 25  1  0  0  0
  6 92  1  0  0  0
  6 93  1  0  0  0
  7  8  2  0  0  0
  7 26  1  0  0  0
  7 29  1  0  0  0
  8  9  1  0  0  0
  8 22  1  0  0  0
  9 10  1  0  0  0
  9 27  2  0  0  0
 10 11  2  0  0  0
 10 15  1  0  0  0
 11 12  1  0  0  0
 11 94  1  0  0  0
 12 13  2  0  0  0
 12 95  1  0  0  0
 13 14  1  0  0  0
 13 31  1  0  0  0
 14 15  2  0  0  0
 14 96  1  0  0  0
 15 97  1  0  0  0
 16 17  2  0  0  0
 16 21  1  0  0  0
 16 31  1  0  0  0
 17 18  1  0  0  0
 17 98  1  0  0  0
 18 19  2  0  0  0
 18 99  1  0  0  0
 19 20  1  0  0  0
 19 24  1  0  0  0
 20 21  2  0  0  0
 20100  1  0  0  0
 21 23  1  0  0  0
 22 28  1  0  0  0
 22 32  2  0  0  0
 26 27  1  0  0  0
 28101  1  0  0  0
 28102  1  0  0  0
 29103  1  0  0  0
 29104  1  0  0  0
 33 34  1  0  0  0
 33 66  1  0  0  0
 33 70  2  0  0  0
 34 36  1  0  0  0
 34 59  1  0  0  0
 34105  1  0  0  0
 35 44  2  0  0  0
 35 45  1  0  0  0
 35 68  1  0  0  0
 36 56  1  0  0  0
 36106  1  0  0  0
 37 39  1  0  0  0
 37 47  1  0  0  0
 37 66  1  0  0  0
 37107  1  0  0  0
 38 43  2  0  0  0
 38 46  1  0  0  0
 38 47  1  0  0  0
 39 64  1  0  0  0
 39 67  2  0  0  0
 40 52  1  0  0  0
 40 53  2  0  0  0
 40 58  1  0  0  0
 41108  1  0  0  0
 41109  1  0  0  0
 41110  1  0  0  0
 41 48  1  0  0  0
 42 43  1  0  0  0
 42 66  1  0  0  0
 42111  1  0  0  0
 42112  1  0  0  0
 43 44  1  0  0  0
 44113  1  0  0  0
 45 46  2  0  0  0
 45114  1  0  0  0
 46115  1  0  0  0
 47116  1  0  0  0
 47117  1  0  0  0
 48 56  1  0  0  0
 48 65  1  0  0  0
 48118  1  0  0  0
 49 50  1  0  0  0
 49 53  1  0  0  0
 49 64  1  0  0  0
 49119  1  0  0  0
 50 51  1  0  0  0
 50120  1  0  0  0
 50121  1  0  0  0
 51 52  1  0  0  0
 51122  1  0  0  0
 51123  1  0  0  0
 52124  1  0  0  0
 52125  1  0  0  0
 53 54  1  0  0  0
 54 55  2  0  0  0
 54126  1  0  0  0
 55 57  1  0  0  0
 55127  1  0  0  0
 56 69  2  0  0  0
 57 58  2  0  0  0
 57128  1  0  0  0
 58129  1  0  0  0
 59 60  1  0  0  0
 59 61  1  0  0  0
 59 62  1  0  0  0
 60130  1  0  0  0
 60131  1  0  0  0
 60132  1  0  0  0
 61133  1  0  0  0
 61134  1  0  0  0
 61135  1  0  0  0
 62136  1  0  0  0
 62137  1  0  0  0
 62138  1  0  0  0
 63 65  1  0  0  0
 63139  1  0  0  0
 63140  1  0  0  0
 63141  1  0  0  0
 64142  1  0  0  0
 65143  1  0  0  0
 68 82  1  0  0  0
 71 73  2  0  0  0
 71 75  1  0  0  0
 71144  1  0  0  0
 72 74  1  0  0  0
 72 75  2  0  0  0
 72145  1  0  0  0
 73 76  1  0  0  0
 73146  1  0  0  0
 74 76  2  0  0  0
 74147  1  0  0  0
 75 79  1  0  0  0
 76 83  1  0  0  0
 77 83  1  0  0  0
 77148  1  0  0  0
 77149  1  0  0  0
 77150  1  0  0  0
 78 84  1  0  0  0
 78151  1  0  0  0
 78152  1  0  0  0
 78153  1  0  0  0
 79 84  1  0  0  0
 79154  1  0  0  0
 79155  1  0  0  0
 80 81  1  0  0  0
 80 82  1  0  0  0
 80156  1  0  0  0
 80157  1  0  0  0
 81 83  1  0  0  0
 81158  1  0  0  0
 81159  1  0  0  0
 82160  1  0  0  0
 82161  1  0  0  0
M  ISO  4   1 100  68 101  82 101  84 100
M  END
> <chiral flag>
0

> <version>
0

> <s_m_source_file>
/data/baiqing/PycharmProjects/Reinvent-master-3.2/result/LINK_invent/BTK/process_docking_weight1_custom_product_contain_oxygen_bond_distance_aromatic_linkinvent_7_9_3/rearranged_h_0020.sdf

> <i_m_source_file_index>
39

> <r_mmod_Potential_Energy-OPLS-2005>
100.385414123535

> <r_mmod_Stretch_Energy-OPLS-2005>
46.212100982666

> <r_mmod_Bend_Energy-OPLS-2005>
142.126251220703

> <r_mmod_Torsional_Energy-OPLS-2005>
238.704498291016

> <r_mmod_Improper_Torsional_Energy-OPLS-2005>
7.92415904998779

> <r_mmod_Van_der_Waal_Energy-OPLS-2005>
180.791030883789

> <r_mmod_Electrostatic_Energy-OPLS-2005>
-317.921661376953

> <r_mmod_Solvation_Energy-OPLS-2005>
-212.284820556641

> <b_mmod_Minimization_Converged-OPLS-2005>
0

> <r_mmod_RMS_Derivative-OPLS-2005>
4.60344171524048

$$$$
40
                    3D
 Structure written by MMmdl.
152160  0  0  1  0            999 V2000
  -30.6277  -14.6294   20.4980 C   0  0  0  0  0  0
  -30.4393  -12.3863   19.4469 C   0  0  0  0  0  0
  -29.5055  -12.5053   18.2216 C   0  0  0  0  0  0
  -28.0285  -12.3459   18.6359 C   0  0  0  0  0  0
  -27.6541  -13.2160   19.8655 C   0  0  2  0  0  0
  -28.7016  -13.0646   20.9922 C   0  0  0  0  0  0
  -25.2555  -13.8160   20.5693 C   0  0  0  0  0  0
  -24.1817  -13.0421   20.9157 C   0  0  0  0  0  0
  -24.6395  -11.6897   20.8725 C   0  0  0  0  0  0
  -23.9064  -10.4284   21.0397 C   0  0  0  0  0  0
  -24.3615   -9.4204   21.9180 C   0  0  0  0  0  0
  -23.6289   -8.2240   22.0753 C   0  0  0  0  0  0
  -22.4272   -8.0276   21.3542 C   0  0  0  0  0  0
  -21.9905   -9.0249   20.4644 C   0  0  0  0  0  0
  -22.7234  -10.2127   20.3051 C   0  0  0  0  0  0
  -21.6852   -6.0733   22.5278 C   0  0  0  0  0  0
  -21.4014   -6.5638   23.8210 C   0  0  0  0  0  0
  -21.3659   -5.6792   24.9172 C   0  0  0  0  0  0
  -21.6044   -4.3054   24.7225 C   0  0  0  0  0  0
  -21.8821   -3.8146   23.4346 C   0  0  0  0  0  0
  -21.9193   -4.6961   22.3401 C   0  0  0  0  0  0
  -22.7841  -13.5216   21.1834 C   0  0  0  0  0  0
  -22.1661   -4.2147   21.0979 F   0  0  0  0  0  0
  -21.5628   -3.4539   25.7739 F   0  0  0  0  0  0
  -30.0177  -13.4048   20.4273 N   0  0  0  0  0  0
  -26.3000  -12.9352   20.3351 N   0  0  0  0  0  0
  -25.9331  -11.6503   20.5768 N   0  0  0  0  0  0
  -22.0496  -12.8212   22.0402 N   0  0  0  0  0  0
  -25.4226  -15.1887   20.4187 N   0  0  0  0  0  0
  -31.7924  -14.7913   20.1228 O   0  0  0  0  0  0
  -21.6635   -6.8875   21.4240 O   0  0  0  0  0  0
  -22.3519  -14.5526   20.6692 O   0  0  0  0  0  0
  -24.6256  -31.8613   23.2042 C   0  0  0  0  0  0
  -25.9109  -32.4785   23.8365 C   0  0  1  0  0  0
  -27.2232  -27.3290   20.1086 C   0  0  0  0  0  0
  -25.5933  -33.8586   24.2291 N   0  0  0  0  0  0
  -23.4180  -30.4863   21.5473 C   0  0  2  0  0  0
  -24.8629  -28.9457   20.1112 C   0  0  0  0  0  0
  -22.7474  -29.4628   22.4946 C   0  0  0  0  0  0
  -18.0285  -28.1374   22.8480 C   0  0  0  0  0  0
  -24.1490  -36.7293   23.2640 C   0  0  0  0  0  0
  -25.9589  -30.7951   21.3736 C   0  0  0  0  0  0
  -26.0329  -29.4238   20.7145 C   0  0  0  0  0  0
  -27.2164  -28.6275   20.7037 C   0  0  0  0  0  0
  -26.0263  -26.9047   19.4828 C   0  0  0  0  0  0
  -24.8609  -27.6905   19.4878 C   0  0  0  0  0  0
  -23.6312  -29.8251   20.1612 C   0  0  0  0  0  0
  -25.4113  -36.3087   24.0330 C   0  0  1  0  0  0
  -20.5885  -28.3682   23.1280 C   0  0  2  0  0  0
  -20.6774  -26.9406   22.5402 C   0  0  0  0  0  0
  -19.5751  -26.6379   21.5201 C   0  0  0  0  0  0
  -18.1932  -26.7917   22.1615 C   0  0  0  0  0  0
  -19.1536  -28.8844   23.2874 C   0  0  0  0  0  0
  -18.9464  -30.1446   23.8892 C   0  0  0  0  0  0
  -17.6467  -30.6582   24.0558 C   0  0  0  0  0  0
  -25.9051  -34.9457   23.5108 C   0  0  0  0  0  0
  -16.5356  -29.9082   23.6326 C   0  0  0  0  0  0
  -16.7273  -28.6496   23.0348 C   0  0  0  0  0  0
  -26.4501  -31.6587   25.0726 C   0  0  0  0  0  0
  -25.3739  -31.3713   26.1458 C   0  0  0  0  0  0
  -27.0345  -30.3016   24.6159 C   0  0  0  0  0  0
  -27.6067  -32.4318   25.7496 C   0  0  0  0  0  0
  -27.5579  -37.1803   24.8467 C   0  0  0  0  0  0
  -21.4188  -29.3043   22.3685 N   0  0  0  0  0  0
  -26.4293  -37.3780   23.9410 N   0  0  0  0  0  0
  -24.6864  -31.0636   22.0986 N   0  0  0  0  0  0
  -23.4203  -28.8165   23.3020 O   0  0  0  0  0  0
  -28.3431  -26.4819   20.1555 O   0  0  0  0  0  0
  -26.5619  -34.8922   22.4674 O   0  0  0  0  0  0
  -23.5423  -32.1409   23.7375 O   0  0  0  0  0  0
  -31.1103  -19.2766   20.4270 C   0  0  0  0  0  0
  -31.1197  -17.8533   20.5200 C   0  0  0  0  0  0
  -28.7132  -19.3054   20.6227 C   0  0  0  0  0  0
  -29.9150  -20.0452   20.4791 C   0  0  0  0  0  0
  -29.9168  -17.1190   20.6787 C   0  0  0  0  0  0
  -28.7196  -17.8819   20.7251 C   0  0  0  0  0  0
  -29.2531  -23.9849   20.3327 C   0  0  0  0  0  0
  -28.8666  -22.4388   20.2474 C   0  0  0  0  0  0
  -28.1050  -25.0290   20.0068 C   0  0  0  0  0  0
  -29.8093  -15.6712   20.8318 N   0  0  0  0  0  0
  -29.9954  -21.4759   20.4049 N   0  0  0  0  0  0
  -27.5437  -17.2241   20.8723 F   0  0  0  0  0  0
  -31.4799  -12.5120   19.1429 H   0  0  0  0  0  0
  -30.3743  -11.3902   19.8869 H   0  0  0  0  0  0
  -29.7662  -11.7539   17.4750 H   0  0  0  0  0  0
  -29.6483  -13.4750   17.7417 H   0  0  0  0  0  0
  -27.8644  -11.2928   18.8671 H   0  0  0  0  0  0
  -27.3725  -12.5775   17.7959 H   0  0  0  0  0  0
  -27.6710  -14.2517   19.5258 H   0  0  0  0  0  0
  -28.7123  -12.0412   21.3706 H   0  0  0  0  0  0
  -28.4518  -13.6935   21.8479 H   0  0  0  0  0  0
  -25.2763   -9.5681   22.4751 H   0  0  0  0  0  0
  -23.9996   -7.4636   22.7478 H   0  0  0  0  0  0
  -21.0833   -8.8769   19.8954 H   0  0  0  0  0  0
  -22.3693  -10.9665   19.6158 H   0  0  0  0  0  0
  -21.2008   -7.6149   23.9713 H   0  0  0  0  0  0
  -21.1478   -6.0523   25.9076 H   0  0  0  0  0  0
  -22.0601   -2.7609   23.2847 H   0  0  0  0  0  0
  -22.4116  -11.9870   22.4781 H   0  0  0  0  0  0
  -21.1120  -13.1242   22.2625 H   0  0  0  0  0  0
  -24.6604  -15.8384   20.5728 H   0  0  0  0  0  0
  -26.2973  -15.6603   20.2196 H   0  0  0  0  0  0
  -26.7179  -32.5458   23.1117 H   0  0  0  0  0  0
  -25.0095  -33.9729   25.0447 H   0  0  0  0  0  0
  -22.7109  -31.3064   21.4068 H   0  0  0  0  0  0
  -23.3753  -35.9627   23.3306 H   0  0  0  0  0  0
  -24.3582  -36.8908   22.2055 H   0  0  0  0  0  0
  -23.7242  -37.6495   23.6658 H   0  0  0  0  0  0
  -26.0889  -31.5599   20.6067 H   0  0  0  0  0  0
  -26.8400  -30.8430   22.0016 H   0  0  0  0  0  0
  -28.1140  -28.9900   21.1854 H   0  0  0  0  0  0
  -25.9544  -25.9489   18.9873 H   0  0  0  0  0  0
  -23.9646  -27.3180   19.0110 H   0  0  0  0  0  0
  -23.7505  -30.6036   19.4066 H   0  0  0  0  0  0
  -22.7508  -29.2556   19.8578 H   0  0  0  0  0  0
  -25.1291  -36.1944   25.0822 H   0  0  0  0  0  0
  -20.9971  -28.3255   24.1404 H   0  0  0  0  0  0
  -20.5668  -26.2296   23.3603 H   0  0  0  0  0  0
  -21.6645  -26.7435   22.1199 H   0  0  0  0  0  0
  -19.6917  -25.6290   21.1229 H   0  0  0  0  0  0
  -19.6684  -27.3194   20.6733 H   0  0  0  0  0  0
  -17.4198  -26.6658   21.4021 H   0  0  0  0  0  0
  -18.0337  -26.0057   22.9010 H   0  0  0  0  0  0
  -19.7946  -30.7253   24.2264 H   0  0  0  0  0  0
  -17.5028  -31.6262   24.5162 H   0  0  0  0  0  0
  -15.5356  -30.2986   23.7653 H   0  0  0  0  0  0
  -15.8670  -28.0816   22.7070 H   0  0  0  0  0  0
  -24.5922  -30.7050   25.7791 H   0  0  0  0  0  0
  -24.8919  -32.2874   26.4884 H   0  0  0  0  0  0
  -25.8072  -30.8897   27.0232 H   0  0  0  0  0  0
  -26.2909  -29.6764   24.1201 H   0  0  0  0  0  0
  -27.4083  -29.7271   25.4645 H   0  0  0  0  0  0
  -27.8763  -30.4318   23.9352 H   0  0  0  0  0  0
  -27.2684  -33.3624   26.2068 H   0  0  0  0  0  0
  -28.3882  -32.6867   25.0323 H   0  0  0  0  0  0
  -28.0732  -31.8443   26.5415 H   0  0  0  0  0  0
  -28.2600  -38.0099   24.7512 H   0  0  0  0  0  0
  -28.1070  -36.2628   24.6294 H   0  0  0  0  0  0
  -27.2294  -37.1454   25.8870 H   0  0  0  0  0  0
  -20.9367  -29.8783   21.6908 H   0  0  0  0  0  0
  -26.0173  -38.2855   24.1415 H   0  0  0  0  0  0
  -32.0603  -19.7811   20.3182 H   0  0  0  0  0  0
  -32.0688  -17.3390   20.4825 H   0  0  0  0  0  0
  -27.7649  -19.8187   20.6717 H   0  0  0  0  0  0
  -30.0827  -24.1818   19.6530 H   0  0  0  0  0  0
  -29.6322  -24.1934   21.3336 H   0  0  0  0  0  0
  -28.3951  -22.2470   19.2820 H   0  0  0  0  0  0
  -28.1087  -22.2219   21.0019 H   0  0  0  0  0  0
  -27.8088  -24.8426   18.9741 H   0  0  0  0  0  0
  -27.2483  -24.7622   20.6286 H   0  0  0  0  0  0
  -28.8812  -15.3714   21.0895 H   0  0  0  0  0  0
  -30.9277  -21.8702   20.2977 H   0  0  0  0  0  0
  1 25  1  0  0  0
  1 30  2  0  0  0
  1 80  1  0  0  0
  2  3  1  0  0  0
  2 25  1  0  0  0
  2 83  1  0  0  0
  2 84  1  0  0  0
  3  4  1  0  0  0
  3 85  1  0  0  0
  3 86  1  0  0  0
  4  5  1  0  0  0
  4 87  1  0  0  0
  4 88  1  0  0  0
  5  6  1  0  0  0
  5 26  1  0  0  0
  5 89  1  0  0  0
  6 25  1  0  0  0
  6 90  1  0  0  0
  6 91  1  0  0  0
  7  8  2  0  0  0
  7 26  1  0  0  0
  7 29  1  0  0  0
  8  9  1  0  0  0
  8 22  1  0  0  0
  9 10  1  0  0  0
  9 27  2  0  0  0
 10 11  2  0  0  0
 10 15  1  0  0  0
 11 12  1  0  0  0
 11 92  1  0  0  0
 12 13  2  0  0  0
 12 93  1  0  0  0
 13 14  1  0  0  0
 13 31  1  0  0  0
 14 15  2  0  0  0
 14 94  1  0  0  0
 15 95  1  0  0  0
 16 17  2  0  0  0
 16 21  1  0  0  0
 16 31  1  0  0  0
 17 18  1  0  0  0
 17 96  1  0  0  0
 18 19  2  0  0  0
 18 97  1  0  0  0
 19 20  1  0  0  0
 19 24  1  0  0  0
 20 21  2  0  0  0
 20 98  1  0  0  0
 21 23  1  0  0  0
 22 28  1  0  0  0
 22 32  2  0  0  0
 26 27  1  0  0  0
 28 99  1  0  0  0
 28100  1  0  0  0
 29101  1  0  0  0
 29102  1  0  0  0
 33 34  1  0  0  0
 33 66  1  0  0  0
 33 70  2  0  0  0
 34 36  1  0  0  0
 34 59  1  0  0  0
 34103  1  0  0  0
 35 44  2  0  0  0
 35 45  1  0  0  0
 35 68  1  0  0  0
 36 56  1  0  0  0
 36104  1  0  0  0
 37 39  1  0  0  0
 37 47  1  0  0  0
 37 66  1  0  0  0
 37105  1  0  0  0
 38 43  2  0  0  0
 38 46  1  0  0  0
 38 47  1  0  0  0
 39 64  1  0  0  0
 39 67  2  0  0  0
 40 52  1  0  0  0
 40 53  2  0  0  0
 40 58  1  0  0  0
 41106  1  0  0  0
 41107  1  0  0  0
 41108  1  0  0  0
 41 48  1  0  0  0
 42 43  1  0  0  0
 42 66  1  0  0  0
 42109  1  0  0  0
 42110  1  0  0  0
 43 44  1  0  0  0
 44111  1  0  0  0
 45 46  2  0  0  0
 45112  1  0  0  0
 46113  1  0  0  0
 47114  1  0  0  0
 47115  1  0  0  0
 48 56  1  0  0  0
 48 65  1  0  0  0
 48116  1  0  0  0
 49 50  1  0  0  0
 49 53  1  0  0  0
 49 64  1  0  0  0
 49117  1  0  0  0
 50 51  1  0  0  0
 50118  1  0  0  0
 50119  1  0  0  0
 51 52  1  0  0  0
 51120  1  0  0  0
 51121  1  0  0  0
 52122  1  0  0  0
 52123  1  0  0  0
 53 54  1  0  0  0
 54 55  2  0  0  0
 54124  1  0  0  0
 55 57  1  0  0  0
 55125  1  0  0  0
 56 69  2  0  0  0
 57 58  2  0  0  0
 57126  1  0  0  0
 58127  1  0  0  0
 59 60  1  0  0  0
 59 61  1  0  0  0
 59 62  1  0  0  0
 60128  1  0  0  0
 60129  1  0  0  0
 60130  1  0  0  0
 61131  1  0  0  0
 61132  1  0  0  0
 61133  1  0  0  0
 62134  1  0  0  0
 62135  1  0  0  0
 62136  1  0  0  0
 63 65  1  0  0  0
 63137  1  0  0  0
 63138  1  0  0  0
 63139  1  0  0  0
 64140  1  0  0  0
 65141  1  0  0  0
 68 79  1  0  0  0
 71 72  2  0  0  0
 71 74  1  0  0  0
 71142  1  0  0  0
 72 75  1  0  0  0
 72143  1  0  0  0
 73 74  2  0  0  0
 73 76  1  0  0  0
 73144  1  0  0  0
 74 81  1  0  0  0
 75 76  2  0  0  0
 75 80  1  0  0  0
 76 82  1  0  0  0
 77 78  1  0  0  0
 77 79  1  0  0  0
 77145  1  0  0  0
 77146  1  0  0  0
 78 81  1  0  0  0
 78147  1  0  0  0
 78148  1  0  0  0
 79149  1  0  0  0
 79150  1  0  0  0
 80151  1  0  0  0
 81152  1  0  0  0
M  ISO  4   1 100  68 101  79 101  80 100
M  END
> <chiral flag>
0

> <version>
0

> <s_m_source_file>
/data/baiqing/PycharmProjects/Reinvent-master-3.2/result/LINK_invent/BTK/process_docking_weight1_custom_product_contain_oxygen_bond_distance_aromatic_linkinvent_7_9_3/rearranged_h_0020.sdf

> <i_m_source_file_index>
40

> <r_mmod_Potential_Energy-OPLS-2005>
-1.59744024276733

> <r_mmod_Stretch_Energy-OPLS-2005>
71.6558456420898

> <r_mmod_Bend_Energy-OPLS-2005>
143.812271118164

> <r_mmod_Torsional_Energy-OPLS-2005>
200.10888671875

> <r_mmod_Improper_Torsional_Energy-OPLS-2005>
4.6348934173584

> <r_mmod_Van_der_Waal_Energy-OPLS-2005>
145.609085083008

> <r_mmod_Electrostatic_Energy-OPLS-2005>
-403.753173828125

> <r_mmod_Solvation_Energy-OPLS-2005>
-208.76188659668

> <b_mmod_Minimization_Converged-OPLS-2005>
0

> <r_mmod_RMS_Derivative-OPLS-2005>
0.584842085838318

$$$$
41
                    3D
 Structure written by MMmdl.
166175  0  0  1  0            999 V2000
  -30.6956  -14.4370   20.5870 C   0  0  0  0  0  0
  -30.4295  -12.2768   19.4170 C   0  0  0  0  0  0
  -29.5001  -12.5010   18.2037 C   0  0  0  0  0  0
  -28.0167  -12.3741   18.6103 C   0  0  0  0  0  0
  -27.6662  -13.2015   19.8755 C   0  0  2  0  0  0
  -28.7091  -12.9634   20.9932 C   0  0  0  0  0  0
  -25.2622  -13.8142   20.5682 C   0  0  0  0  0  0
  -24.1867  -13.0434   20.9178 C   0  0  0  0  0  0
  -24.6409  -11.6895   20.8728 C   0  0  0  0  0  0
  -23.9066  -10.4287   21.0397 C   0  0  0  0  0  0
  -24.3622   -9.4200   21.9179 C   0  0  0  0  0  0
  -23.6296   -8.2237   22.0742 C   0  0  0  0  0  0
  -22.4277   -8.0273   21.3531 C   0  0  0  0  0  0
  -21.9901   -9.0251   20.4642 C   0  0  0  0  0  0
  -22.7234  -10.2132   20.3048 C   0  0  0  0  0  0
  -21.6844   -6.0742   22.5275 C   0  0  0  0  0  0
  -21.4018   -6.5646   23.8210 C   0  0  0  0  0  0
  -21.3665   -5.6797   24.9170 C   0  0  0  0  0  0
  -21.6045   -4.3058   24.7218 C   0  0  0  0  0  0
  -21.8823   -3.8158   23.4339 C   0  0  0  0  0  0
  -21.9187   -4.6974   22.3399 C   0  0  0  0  0  0
  -22.7888  -13.5234   21.1839 C   0  0  0  0  0  0
  -22.1662   -4.2166   21.0974 F   0  0  0  0  0  0
  -21.5619   -3.4546   25.7732 F   0  0  0  0  0  0
  -30.0476  -13.2463   20.4516 N   0  0  0  0  0  0
  -26.3054  -12.9305   20.3363 N   0  0  0  0  0  0
  -25.9332  -11.6470   20.5744 N   0  0  0  0  0  0
  -22.0528  -12.8231   22.0390 N   0  0  0  0  0  0
  -25.4342  -15.1862   20.4083 N   0  0  0  0  0  0
  -31.8135  -14.6321   20.0900 O   0  0  0  0  0  0
  -21.6635   -6.8876   21.4230 O   0  0  0  0  0  0
  -22.3576  -14.5541   20.6688 O   0  0  0  0  0  0
  -24.6120  -31.8714   23.2116 C   0  0  0  0  0  0
  -25.9029  -32.4832   23.8416 C   0  0  1  0  0  0
  -27.2391  -27.4569   20.0733 C   0  0  0  0  0  0
  -25.5904  -33.8633   24.2341 N   0  0  0  0  0  0
  -23.3989  -30.4957   21.5533 C   0  0  2  0  0  0
  -24.8415  -28.9643   20.1176 C   0  0  0  0  0  0
  -22.7399  -29.4680   22.5004 C   0  0  0  0  0  0
  -18.0267  -28.1383   22.8488 C   0  0  0  0  0  0
  -24.1482  -36.7313   23.2636 C   0  0  0  0  0  0
  -25.9266  -30.8385   21.3642 C   0  0  0  0  0  0
  -26.0012  -29.4744   20.7114 C   0  0  0  0  0  0
  -27.1975  -28.7251   20.6922 C   0  0  0  0  0  0
  -26.0551  -26.9598   19.4775 C   0  0  0  0  0  0
  -24.8621  -27.7026   19.5027 C   0  0  0  0  0  0
  -23.6029  -29.8283   20.1679 C   0  0  0  0  0  0
  -25.4103  -36.3116   24.0336 C   0  0  1  0  0  0
  -20.5860  -28.3669   23.1315 C   0  0  2  0  0  0
  -20.6753  -26.9415   22.5403 C   0  0  0  0  0  0
  -19.5725  -26.6395   21.5203 C   0  0  0  0  0  0
  -18.1908  -26.7928   22.1626 C   0  0  0  0  0  0
  -19.1520  -28.8840   23.2902 C   0  0  0  0  0  0
  -18.9455  -30.1441   23.8915 C   0  0  0  0  0  0
  -17.6458  -30.6585   24.0567 C   0  0  0  0  0  0
  -25.9028  -34.9479   23.5130 C   0  0  0  0  0  0
  -16.5349  -29.9090   23.6325 C   0  0  0  0  0  0
  -16.7259  -28.6508   23.0340 C   0  0  0  0  0  0
  -26.4459  -31.6598   25.0731 C   0  0  0  0  0  0
  -25.3717  -31.3720   26.1476 C   0  0  0  0  0  0
  -27.0278  -30.3036   24.6106 C   0  0  0  0  0  0
  -27.6054  -32.4314   25.7485 C   0  0  0  0  0  0
  -27.5575  -37.1814   24.8470 C   0  0  0  0  0  0
  -21.4137  -29.3038   22.3728 N   0  0  0  0  0  0
  -26.4287  -37.3801   23.9411 N   0  0  0  0  0  0
  -24.6644  -31.0819   22.1020 N   0  0  0  0  0  0
  -23.4170  -28.8212   23.3038 O   0  0  0  0  0  0
  -28.4430  -26.7790   20.0747 O   0  0  0  0  0  0
  -26.5602  -34.8928   22.4702 O   0  0  0  0  0  0
  -23.5319  -32.1486   23.7507 O   0  0  0  0  0  0
  -28.1503  -19.8448   21.4800 C   0  0  0  0  0  0
  -27.8205  -21.2112   21.3795 C   0  0  0  0  0  0
  -28.6259  -21.2449   19.0857 C   0  0  0  0  0  0
  -28.6841  -19.1607   20.3683 C   0  0  0  0  0  0
  -28.0142  -21.9103   20.1667 C   0  0  0  0  0  0
  -28.9551  -19.8781   19.1816 C   0  0  0  0  0  0
  -26.2058  -24.2805   21.6770 C   0  0  0  0  0  0
  -27.6808  -24.6466   21.8663 C   0  0  0  0  0  0
  -26.1610  -23.4454   20.3909 C   0  0  0  0  0  0
  -28.3668  -24.2944   20.5370 C   0  0  2  0  0  0
  -31.2989  -17.5175   20.2819 C   0  0  0  0  0  0
  -28.8132  -17.6405   20.3961 C   0  0  0  0  0  0
  -29.9297  -15.5992   21.2793 C   0  0  0  0  0  0
  -28.5359  -25.4625   19.5198 C   0  0  0  0  0  0
  -27.5450  -23.2234   19.9789 N   0  0  0  0  0  0
  -30.0645  -17.0742   20.9861 N   0  3  1  0  0  0
  -29.4863  -19.2407   18.1104 F   0  0  0  0  0  0
  -31.4748  -12.3701   19.1195 H   0  0  0  0  0  0
  -30.3190  -11.2614   19.8003 H   0  0  0  0  0  0
  -29.7329  -11.7821   17.4172 H   0  0  0  0  0  0
  -29.6815  -13.4903   17.7791 H   0  0  0  0  0  0
  -27.8106  -11.3176   18.7889 H   0  0  0  0  0  0
  -27.3732  -12.6725   17.7806 H   0  0  0  0  0  0
  -27.7125  -14.2518   19.5893 H   0  0  0  0  0  0
  -28.6702  -11.9266   21.3314 H   0  0  0  0  0  0
  -28.4794  -13.5631   21.8750 H   0  0  0  0  0  0
  -25.2766   -9.5688   22.4762 H   0  0  0  0  0  0
  -24.0009   -7.4625   22.7459 H   0  0  0  0  0  0
  -21.0826   -8.8774   19.8961 H   0  0  0  0  0  0
  -22.3679  -10.9676   19.6165 H   0  0  0  0  0  0
  -21.2030   -7.6159   23.9721 H   0  0  0  0  0  0
  -21.1470   -6.0527   25.9073 H   0  0  0  0  0  0
  -22.0600   -2.7625   23.2826 H   0  0  0  0  0  0
  -22.4129  -11.9879   22.4766 H   0  0  0  0  0  0
  -21.1141  -13.1235   22.2592 H   0  0  0  0  0  0
  -24.6570  -15.8324   20.4955 H   0  0  0  0  0  0
  -26.2630  -15.6154   20.0235 H   0  0  0  0  0  0
  -26.7093  -32.5541   23.1181 H   0  0  0  0  0  0
  -25.0067  -33.9816   25.0490 H   0  0  0  0  0  0
  -22.6879  -31.3124   21.4155 H   0  0  0  0  0  0
  -23.3732  -35.9653   23.3314 H   0  0  0  0  0  0
  -24.3582  -36.8911   22.2046 H   0  0  0  0  0  0
  -23.7226  -37.6527   23.6634 H   0  0  0  0  0  0
  -26.0396  -31.6032   20.5948 H   0  0  0  0  0  0
  -26.8157  -30.8922   21.9809 H   0  0  0  0  0  0
  -28.0950  -29.1208   21.1478 H   0  0  0  0  0  0
  -26.0171  -26.0054   18.9822 H   0  0  0  0  0  0
  -23.9710  -27.3032   19.0391 H   0  0  0  0  0  0
  -23.7091  -30.6043   19.4086 H   0  0  0  0  0  0
  -22.7264  -29.2487   19.8710 H   0  0  0  0  0  0
  -25.1266  -36.2006   25.0824 H   0  0  0  0  0  0
  -20.9965  -28.3227   24.1432 H   0  0  0  0  0  0
  -20.5659  -26.2292   23.3588 H   0  0  0  0  0  0
  -21.6626  -26.7453   22.1204 H   0  0  0  0  0  0
  -19.6905  -25.6318   21.1207 H   0  0  0  0  0  0
  -19.6648  -27.3217   20.6740 H   0  0  0  0  0  0
  -17.4183  -26.6670   21.4023 H   0  0  0  0  0  0
  -18.0326  -26.0066   22.9023 H   0  0  0  0  0  0
  -19.7933  -30.7248   24.2293 H   0  0  0  0  0  0
  -17.5017  -31.6266   24.5176 H   0  0  0  0  0  0
  -15.5353  -30.3001   23.7631 H   0  0  0  0  0  0
  -15.8659  -28.0829   22.7043 H   0  0  0  0  0  0
  -24.5886  -30.7073   25.7813 H   0  0  0  0  0  0
  -24.8899  -32.2878   26.4917 H   0  0  0  0  0  0
  -25.8052  -30.8895   27.0241 H   0  0  0  0  0  0
  -26.2829  -29.6834   24.1100 H   0  0  0  0  0  0
  -27.3979  -29.7242   25.4572 H   0  0  0  0  0  0
  -27.8693  -30.4342   23.9293 H   0  0  0  0  0  0
  -27.2685  -33.3601   26.2105 H   0  0  0  0  0  0
  -28.3834  -32.6901   25.0289 H   0  0  0  0  0  0
  -28.0754  -31.8411   26.5367 H   0  0  0  0  0  0
  -28.2618  -38.0091   24.7516 H   0  0  0  0  0  0
  -28.1047  -36.2632   24.6294 H   0  0  0  0  0  0
  -27.2304  -37.1465   25.8878 H   0  0  0  0  0  0
  -20.9302  -29.8779   21.6965 H   0  0  0  0  0  0
  -26.0182  -38.2880   24.1417 H   0  0  0  0  0  0
  -27.9289  -19.3170   22.3971 H   0  0  0  0  0  0
  -27.3635  -21.6982   22.2288 H   0  0  0  0  0  0
  -28.7906  -21.7651   18.1530 H   0  0  0  0  0  0
  -25.5794  -25.1681   21.5876 H   0  0  0  0  0  0
  -25.8363  -23.7143   22.5320 H   0  0  0  0  0  0
  -28.0966  -24.0178   22.6539 H   0  0  0  0  0  0
  -27.8340  -25.6759   22.1916 H   0  0  0  0  0  0
  -25.6292  -23.9741   19.6000 H   0  0  0  0  0  0
  -25.6172  -22.5125   20.5504 H   0  0  0  0  0  0
  -29.3647  -23.9154   20.7664 H   0  0  0  0  0  0
  -31.3687  -18.6053   20.2602 H   0  0  0  0  0  0
  -31.3256  -17.1617   19.2513 H   0  0  0  0  0  0
  -32.1972  -17.1648   20.7887 H   0  0  0  0  0  0
  -28.6748  -17.2724   19.3774 H   0  0  0  0  0  0
  -27.9616  -17.2563   20.9593 H   0  0  0  0  0  0
  -30.8349  -15.6401   21.8854 H   0  0  0  0  0  0
  -29.6807  -15.5528   20.2188 H   0  0  0  0  0  0
  -27.9307  -25.3306   18.6249 H   0  0  0  0  0  0
  -29.5496  -25.3923   19.1255 H   0  0  0  0  0  0
  -30.1322  -17.4940   21.9003 H   0  0  0  0  0  0
  1 25  1  0  0  0
  1 30  2  0  0  0
  1 83  1  0  0  0
  2  3  1  0  0  0
  2 25  1  0  0  0
  2 88  1  0  0  0
  2 89  1  0  0  0
  3  4  1  0  0  0
  3 90  1  0  0  0
  3 91  1  0  0  0
  4  5  1  0  0  0
  4 92  1  0  0  0
  4 93  1  0  0  0
  5  6  1  0  0  0
  5 26  1  0  0  0
  5 94  1  0  0  0
  6 25  1  0  0  0
  6 95  1  0  0  0
  6 96  1  0  0  0
  7  8  2  0  0  0
  7 26  1  0  0  0
  7 29  1  0  0  0
  8  9  1  0  0  0
  8 22  1  0  0  0
  9 10  1  0  0  0
  9 27  2  0  0  0
 10 11  2  0  0  0
 10 15  1  0  0  0
 11 12  1  0  0  0
 11 97  1  0  0  0
 12 13  2  0  0  0
 12 98  1  0  0  0
 13 14  1  0  0  0
 13 31  1  0  0  0
 14 15  2  0  0  0
 14 99  1  0  0  0
 15100  1  0  0  0
 16 17  2  0  0  0
 16 21  1  0  0  0
 16 31  1  0  0  0
 17 18  1  0  0  0
 17101  1  0  0  0
 18 19  2  0  0  0
 18102  1  0  0  0
 19 20  1  0  0  0
 19 24  1  0  0  0
 20 21  2  0  0  0
 20103  1  0  0  0
 21 23  1  0  0  0
 22 28  1  0  0  0
 22 32  2  0  0  0
 26 27  1  0  0  0
 28104  1  0  0  0
 28105  1  0  0  0
 29106  1  0  0  0
 29107  1  0  0  0
 33 34  1  0  0  0
 33 66  1  0  0  0
 33 70  2  0  0  0
 34 36  1  0  0  0
 34 59  1  0  0  0
 34108  1  0  0  0
 35 44  2  0  0  0
 35 45  1  0  0  0
 35 68  1  0  0  0
 36 56  1  0  0  0
 36109  1  0  0  0
 37 39  1  0  0  0
 37 47  1  0  0  0
 37 66  1  0  0  0
 37110  1  0  0  0
 38 43  2  0  0  0
 38 46  1  0  0  0
 38 47  1  0  0  0
 39 64  1  0  0  0
 39 67  2  0  0  0
 40 52  1  0  0  0
 40 53  2  0  0  0
 40 58  1  0  0  0
 41111  1  0  0  0
 41112  1  0  0  0
 41113  1  0  0  0
 41 48  1  0  0  0
 42 43  1  0  0  0
 42 66  1  0  0  0
 42114  1  0  0  0
 42115  1  0  0  0
 43 44  1  0  0  0
 44116  1  0  0  0
 45 46  2  0  0  0
 45117  1  0  0  0
 46118  1  0  0  0
 47119  1  0  0  0
 47120  1  0  0  0
 48 56  1  0  0  0
 48 65  1  0  0  0
 48121  1  0  0  0
 49 50  1  0  0  0
 49 53  1  0  0  0
 49 64  1  0  0  0
 49122  1  0  0  0
 50 51  1  0  0  0
 50123  1  0  0  0
 50124  1  0  0  0
 51 52  1  0  0  0
 51125  1  0  0  0
 51126  1  0  0  0
 52127  1  0  0  0
 52128  1  0  0  0
 53 54  1  0  0  0
 54 55  2  0  0  0
 54129  1  0  0  0
 55 57  1  0  0  0
 55130  1  0  0  0
 56 69  2  0  0  0
 57 58  2  0  0  0
 57131  1  0  0  0
 58132  1  0  0  0
 59 60  1  0  0  0
 59 61  1  0  0  0
 59 62  1  0  0  0
 60133  1  0  0  0
 60134  1  0  0  0
 60135  1  0  0  0
 61136  1  0  0  0
 61137  1  0  0  0
 61138  1  0  0  0
 62139  1  0  0  0
 62140  1  0  0  0
 62141  1  0  0  0
 63 65  1  0  0  0
 63142  1  0  0  0
 63143  1  0  0  0
 63144  1  0  0  0
 64145  1  0  0  0
 65146  1  0  0  0
 68 84  1  0  0  0
 71 72  2  0  0  0
 71 74  1  0  0  0
 71147  1  0  0  0
 72 75  1  0  0  0
 72148  1  0  0  0
 73 75  2  0  0  0
 73 76  1  0  0  0
 73149  1  0  0  0
 74 76  2  0  0  0
 74 82  1  0  0  0
 75 85  1  0  0  0
 76 87  1  0  0  0
 77 78  1  0  0  0
 77 79  1  0  0  0
 77150  1  0  0  0
 77151  1  0  0  0
 78 80  1  0  0  0
 78152  1  0  0  0
 78153  1  0  0  0
 79 85  1  0  0  0
 79154  1  0  0  0
 79155  1  0  0  0
 80 84  1  0  0  0
 80 85  1  0  0  0
 80156  1  0  0  0
 81157  1  0  0  0
 81158  1  0  0  0
 81159  1  0  0  0
 81 86  1  0  0  0
 82 86  1  0  0  0
 82160  1  0  0  0
 82161  1  0  0  0
 83 86  1  0  0  0
 83162  1  0  0  0
 83163  1  0  0  0
 84164  1  0  0  0
 84165  1  0  0  0
 86166  1  0  0  0
M  CHG  1  86   1
M  ISO  4   1 100  68 101  83 100  84 101
M  END
> <chiral flag>
0

> <version>
0

> <s_m_source_file>
/data/baiqing/PycharmProjects/Reinvent-master-3.2/result/LINK_invent/BTK/process_docking_weight1_custom_product_contain_oxygen_bond_distance_aromatic_linkinvent_7_9_3/rearranged_h_0020.sdf

> <i_m_source_file_index>
41

> <r_mmod_Potential_Energy-OPLS-2005>
85.3458099365234

> <r_mmod_Stretch_Energy-OPLS-2005>
39.0210952758789

> <r_mmod_Bend_Energy-OPLS-2005>
342.984558105469

> <r_mmod_Torsional_Energy-OPLS-2005>
280.1416015625

> <r_mmod_Improper_Torsional_Energy-OPLS-2005>
9.22126197814941

> <r_mmod_Van_der_Waal_Energy-OPLS-2005>
169.717193603516

> <r_mmod_Electrostatic_Energy-OPLS-2005>
-319.854858398438

> <r_mmod_Solvation_Energy-OPLS-2005>
-445.980316162109

> <b_mmod_Minimization_Converged-OPLS-2005>
0

> <r_mmod_RMS_Derivative-OPLS-2005>
2.04159832000732

$$$$
42
                    3D
 Structure written by MMmdl.
152160  0  0  1  0            999 V2000
  -30.5315  -14.9197   20.4245 C   0  0  0  0  0  0
  -30.4482  -12.5650   19.4964 C   0  0  0  0  0  0
  -29.5243  -12.5345   18.2556 C   0  0  0  0  0  0
  -28.0578  -12.3210   18.6745 C   0  0  0  0  0  0
  -27.6392  -13.2433   19.8483 C   0  0  2  0  0  0
  -28.6822  -13.2420   20.9878 C   0  0  0  0  0  0
  -25.2499  -13.8197   20.5690 C   0  0  0  0  0  0
  -24.1799  -13.0434   20.9189 C   0  0  0  0  0  0
  -24.6412  -11.6924   20.8754 C   0  0  0  0  0  0
  -23.9093  -10.4295   21.0423 C   0  0  0  0  0  0
  -24.3640   -9.4204   21.9196 C   0  0  0  0  0  0
  -23.6304   -8.2245   22.0765 C   0  0  0  0  0  0
  -22.4283   -8.0292   21.3555 C   0  0  0  0  0  0
  -21.9932   -9.0266   20.4650 C   0  0  0  0  0  0
  -22.7269  -10.2140   20.3063 C   0  0  0  0  0  0
  -21.6854   -6.0751   22.5277 C   0  0  0  0  0  0
  -21.4013   -6.5652   23.8208 C   0  0  0  0  0  0
  -21.3655   -5.6804   24.9168 C   0  0  0  0  0  0
  -21.6047   -4.3066   24.7216 C   0  0  0  0  0  0
  -21.8817   -3.8160   23.4336 C   0  0  0  0  0  0
  -21.9190   -4.6980   22.3396 C   0  0  0  0  0  0
  -22.7816  -13.5218   21.1850 C   0  0  0  0  0  0
  -22.1660   -4.2171   21.0971 F   0  0  0  0  0  0
  -21.5628   -3.4545   25.7727 F   0  0  0  0  0  0
  -29.9683  -13.6471   20.4012 N   0  0  0  0  0  0
  -26.2942  -12.9422   20.3287 N   0  0  0  0  0  0
  -25.9350  -11.6564   20.5767 N   0  0  0  0  0  0
  -22.0466  -12.8208   22.0405 N   0  0  0  0  0  0
  -25.4170  -15.1916   20.4097 N   0  0  0  0  0  0
  -31.7164  -15.0330   20.0913 O   0  0  0  0  0  0
  -21.6638   -6.8895   21.4242 O   0  0  0  0  0  0
  -22.3500  -14.5527   20.6702 O   0  0  0  0  0  0
  -24.6408  -31.8444   23.1918 C   0  0  0  0  0  0
  -25.9202  -32.4697   23.8275 C   0  0  1  0  0  0
  -27.2177  -27.1572   20.1374 C   0  0  0  0  0  0
  -25.5965  -33.8504   24.2201 N   0  0  0  0  0  0
  -23.4420  -30.4690   21.5345 C   0  0  2  0  0  0
  -24.8889  -28.8981   20.1094 C   0  0  0  0  0  0
  -22.7570  -29.4562   22.4855 C   0  0  0  0  0  0
  -18.0305  -28.1400   22.8434 C   0  0  0  0  0  0
  -24.1494  -36.7258   23.2648 C   0  0  0  0  0  0
  -25.9963  -30.7272   21.3851 C   0  0  0  0  0  0
  -26.0648  -29.3400   20.7253 C   0  0  0  0  0  0
  -27.2244  -28.4832   20.7292 C   0  0  0  0  0  0
  -26.0111  -26.8117   19.4854 C   0  0  0  0  0  0
  -24.8732  -27.6451   19.4813 C   0  0  0  0  0  0
  -23.6683  -29.8023   20.1515 C   0  0  0  0  0  0
  -25.4115  -36.3034   24.0332 C   0  0  1  0  0  0
  -20.5911  -28.3717   23.1231 C   0  0  2  0  0  0
  -20.6788  -26.9422   22.5407 C   0  0  0  0  0  0
  -19.5772  -26.6375   21.5202 C   0  0  0  0  0  0
  -18.1948  -26.7931   22.1593 C   0  0  0  0  0  0
  -19.1559  -28.8867   23.2821 C   0  0  0  0  0  0
  -18.9490  -30.1457   23.8853 C   0  0  0  0  0  0
  -17.6491  -30.6582   24.0550 C   0  0  0  0  0  0
  -25.9077  -34.9415   23.5076 C   0  0  0  0  0  0
  -16.5376  -29.9077   23.6335 C   0  0  0  0  0  0
  -16.7292  -28.6516   23.0320 C   0  0  0  0  0  0
  -26.4532  -31.6550   25.0707 C   0  0  0  0  0  0
  -25.3729  -31.3746   26.1414 C   0  0  0  0  0  0
  -27.0411  -30.2958   24.6268 C   0  0  0  0  0  0
  -27.6050  -32.4319   25.7484 C   0  0  0  0  0  0
  -27.5576  -37.1770   24.8465 C   0  0  0  0  0  0
  -21.4267  -29.3053   22.3628 N   0  0  0  0  0  0
  -26.4266  -37.3756   23.9437 N   0  0  0  0  0  0
  -24.7128  -31.0335   22.0927 N   0  0  0  0  0  0
  -23.4234  -28.8125   23.2999 O   0  0  0  0  0  0
  -28.2958  -26.2098   20.2416 O   0  0  0  0  0  0
  -26.5653  -34.8923   22.4646 O   0  0  0  0  0  0
  -23.5541  -32.1287   23.7173 O   0  0  0  0  0  0
  -30.5032  -19.7735   19.5581 C   0  0  0  0  0  0
  -30.6280  -18.3394   19.7425 C   0  0  0  0  0  0
  -28.5898  -19.8432   20.9119 C   0  0  0  0  0  0
  -29.4868  -20.6414   20.1244 C   0  0  0  0  0  0
  -29.7148  -17.5549   20.5096 C   0  0  0  0  0  0
  -28.6912  -18.3967   21.0848 C   0  0  0  0  0  0
  -30.6146  -22.5805   19.1388 C   0  0  0  0  0  0
  -28.6711  -23.3200   20.5236 C   0  0  0  0  0  0
  -28.3157  -24.7551   19.7015 C   0  0  0  0  0  0
  -29.6997  -16.0332   20.6859 N   0  0  0  0  0  0
  -29.4243  -22.1222   19.8616 N   0  0  0  0  0  0
  -27.4825  -17.6234   22.0480 Cl  0  0  0  0  0  0
  -31.4831  -12.7217   19.1880 H   0  0  0  0  0  0
  -30.4329  -11.6045   20.0134 H   0  0  0  0  0  0
  -29.8369  -11.7468   17.5693 H   0  0  0  0  0  0
  -29.6142  -13.4727   17.7049 H   0  0  0  0  0  0
  -27.9509  -11.2780   18.9749 H   0  0  0  0  0  0
  -27.3924  -12.4618   17.8223 H   0  0  0  0  0  0
  -27.6117  -14.2509   19.4329 H   0  0  0  0  0  0
  -28.7579  -12.2585   21.4531 H   0  0  0  0  0  0
  -28.3840  -13.9314   21.7791 H   0  0  0  0  0  0
  -25.2784   -9.5678   22.4770 H   0  0  0  0  0  0
  -24.0011   -7.4639   22.7492 H   0  0  0  0  0  0
  -21.0863   -8.8797   19.8953 H   0  0  0  0  0  0
  -22.3740  -10.9688   19.6177 H   0  0  0  0  0  0
  -21.2006   -7.6161   23.9724 H   0  0  0  0  0  0
  -21.1479   -6.0526   25.9074 H   0  0  0  0  0  0
  -22.0601   -2.7625   23.2823 H   0  0  0  0  0  0
  -22.4083  -11.9862   22.4782 H   0  0  0  0  0  0
  -21.1092  -13.1249   22.2640 H   0  0  0  0  0  0
  -24.6566  -15.8478   20.5418 H   0  0  0  0  0  0
  -26.2751  -15.6391   20.1180 H   0  0  0  0  0  0
  -26.7259  -32.5298   23.0995 H   0  0  0  0  0  0
  -25.0109  -33.9611   25.0345 H   0  0  0  0  0  0
  -22.7412  -31.2941   21.3836 H   0  0  0  0  0  0
  -23.3771  -35.9570   23.3263 H   0  0  0  0  0  0
  -24.3592  -36.8925   22.2077 H   0  0  0  0  0  0
  -23.7247  -37.6448   23.6694 H   0  0  0  0  0  0
  -26.1508  -31.4854   20.6149 H   0  0  0  0  0  0
  -26.8689  -30.7734   22.0255 H   0  0  0  0  0  0
  -28.1169  -28.8166   21.2403 H   0  0  0  0  0  0
  -25.8880  -25.8604   18.9980 H   0  0  0  0  0  0
  -23.9721  -27.2959   18.9972 H   0  0  0  0  0  0
  -23.8151  -30.5802   19.4009 H   0  0  0  0  0  0
  -22.7804  -29.2549   19.8314 H   0  0  0  0  0  0
  -25.1298  -36.1849   25.0825 H   0  0  0  0  0  0
  -20.9958  -28.3293   24.1367 H   0  0  0  0  0  0
  -20.5675  -26.2332   23.3628 H   0  0  0  0  0  0
  -21.6654  -26.7431   22.1211 H   0  0  0  0  0  0
  -19.6952  -25.6290   21.1234 H   0  0  0  0  0  0
  -19.6716  -27.3169   20.6725 H   0  0  0  0  0  0
  -17.4226  -26.6661   21.3997 H   0  0  0  0  0  0
  -18.0331  -26.0094   22.9007 H   0  0  0  0  0  0
  -19.7986  -30.7263   24.2197 H   0  0  0  0  0  0
  -17.5070  -31.6257   24.5168 H   0  0  0  0  0  0
  -15.5381  -30.2966   23.7708 H   0  0  0  0  0  0
  -15.8694  -28.0846   22.7015 H   0  0  0  0  0  0
  -24.5924  -30.7064   25.7753 H   0  0  0  0  0  0
  -24.8902  -32.2934   26.4749 H   0  0  0  0  0  0
  -25.8011  -30.9001   27.0245 H   0  0  0  0  0  0
  -26.3037  -29.6657   24.1273 H   0  0  0  0  0  0
  -27.4070  -29.7286   25.4832 H   0  0  0  0  0  0
  -27.8905  -30.4234   23.9551 H   0  0  0  0  0  0
  -27.2642  -33.3654   26.1959 H   0  0  0  0  0  0
  -28.3883  -32.6794   25.0316 H   0  0  0  0  0  0
  -28.0663  -31.8512   26.5480 H   0  0  0  0  0  0
  -28.2542  -38.0114   24.7540 H   0  0  0  0  0  0
  -28.1124  -36.2643   24.6214 H   0  0  0  0  0  0
  -27.2310  -37.1324   25.8872 H   0  0  0  0  0  0
  -20.9483  -29.8812   21.6847 H   0  0  0  0  0  0
  -26.0140  -38.2819   24.1458 H   0  0  0  0  0  0
  -31.2620  -20.1918   18.9159 H   0  0  0  0  0  0
  -31.4497  -17.8373   19.2531 H   0  0  0  0  0  0
  -27.7650  -20.3416   21.3999 H   0  0  0  0  0  0
  -30.5966  -22.2336   18.1045 H   0  0  0  0  0  0
  -31.5269  -22.2202   19.6163 H   0  0  0  0  0  0
  -30.7209  -23.6624   19.1102 H   0  0  0  0  0  0
  -27.7335  -22.9367   20.9286 H   0  0  0  0  0  0
  -29.2560  -23.5946   21.4012 H   0  0  0  0  0  0
  -27.4028  -24.5412   19.1562 H   0  0  0  0  0  0
  -29.0363  -24.8498   18.8927 H   0  0  0  0  0  0
  -28.8146  -15.7186   21.0554 H   0  0  0  0  0  0
  1 25  1  0  0  0
  1 30  2  0  0  0
  1 80  1  0  0  0
  2  3  1  0  0  0
  2 25  1  0  0  0
  2 83  1  0  0  0
  2 84  1  0  0  0
  3  4  1  0  0  0
  3 85  1  0  0  0
  3 86  1  0  0  0
  4  5  1  0  0  0
  4 87  1  0  0  0
  4 88  1  0  0  0
  5  6  1  0  0  0
  5 26  1  0  0  0
  5 89  1  0  0  0
  6 25  1  0  0  0
  6 90  1  0  0  0
  6 91  1  0  0  0
  7  8  2  0  0  0
  7 26  1  0  0  0
  7 29  1  0  0  0
  8  9  1  0  0  0
  8 22  1  0  0  0
  9 10  1  0  0  0
  9 27  2  0  0  0
 10 11  2  0  0  0
 10 15  1  0  0  0
 11 12  1  0  0  0
 11 92  1  0  0  0
 12 13  2  0  0  0
 12 93  1  0  0  0
 13 14  1  0  0  0
 13 31  1  0  0  0
 14 15  2  0  0  0
 14 94  1  0  0  0
 15 95  1  0  0  0
 16 17  2  0  0  0
 16 21  1  0  0  0
 16 31  1  0  0  0
 17 18  1  0  0  0
 17 96  1  0  0  0
 18 19  2  0  0  0
 18 97  1  0  0  0
 19 20  1  0  0  0
 19 24  1  0  0  0
 20 21  2  0  0  0
 20 98  1  0  0  0
 21 23  1  0  0  0
 22 28  1  0  0  0
 22 32  2  0  0  0
 26 27  1  0  0  0
 28 99  1  0  0  0
 28100  1  0  0  0
 29101  1  0  0  0
 29102  1  0  0  0
 33 34  1  0  0  0
 33 66  1  0  0  0
 33 70  2  0  0  0
 34 36  1  0  0  0
 34 59  1  0  0  0
 34103  1  0  0  0
 35 44  2  0  0  0
 35 45  1  0  0  0
 35 68  1  0  0  0
 36 56  1  0  0  0
 36104  1  0  0  0
 37 39  1  0  0  0
 37 47  1  0  0  0
 37 66  1  0  0  0
 37105  1  0  0  0
 38 43  2  0  0  0
 38 46  1  0  0  0
 38 47  1  0  0  0
 39 64  1  0  0  0
 39 67  2  0  0  0
 40 52  1  0  0  0
 40 53  2  0  0  0
 40 58  1  0  0  0
 41106  1  0  0  0
 41107  1  0  0  0
 41108  1  0  0  0
 41 48  1  0  0  0
 42 43  1  0  0  0
 42 66  1  0  0  0
 42109  1  0  0  0
 42110  1  0  0  0
 43 44  1  0  0  0
 44111  1  0  0  0
 45 46  2  0  0  0
 45112  1  0  0  0
 46113  1  0  0  0
 47114  1  0  0  0
 47115  1  0  0  0
 48 56  1  0  0  0
 48 65  1  0  0  0
 48116  1  0  0  0
 49 50  1  0  0  0
 49 53  1  0  0  0
 49 64  1  0  0  0
 49117  1  0  0  0
 50 51  1  0  0  0
 50118  1  0  0  0
 50119  1  0  0  0
 51 52  1  0  0  0
 51120  1  0  0  0
 51121  1  0  0  0
 52122  1  0  0  0
 52123  1  0  0  0
 53 54  1  0  0  0
 54 55  2  0  0  0
 54124  1  0  0  0
 55 57  1  0  0  0
 55125  1  0  0  0
 56 69  2  0  0  0
 57 58  2  0  0  0
 57126  1  0  0  0
 58127  1  0  0  0
 59 60  1  0  0  0
 59 61  1  0  0  0
 59 62  1  0  0  0
 60128  1  0  0  0
 60129  1  0  0  0
 60130  1  0  0  0
 61131  1  0  0  0
 61132  1  0  0  0
 61133  1  0  0  0
 62134  1  0  0  0
 62135  1  0  0  0
 62136  1  0  0  0
 63 65  1  0  0  0
 63137  1  0  0  0
 63138  1  0  0  0
 63139  1  0  0  0
 64140  1  0  0  0
 65141  1  0  0  0
 68 79  1  0  0  0
 71 72  2  0  0  0
 71 74  1  0  0  0
 71142  1  0  0  0
 72 75  1  0  0  0
 72143  1  0  0  0
 73 74  2  0  0  0
 73 76  1  0  0  0
 73144  1  0  0  0
 74 81  1  0  0  0
 75 76  2  0  0  0
 75 80  1  0  0  0
 76 82  1  0  0  0
 77 81  1  0  0  0
 77145  1  0  0  0
 77146  1  0  0  0
 77147  1  0  0  0
 78 79  1  0  0  0
 78 81  1  0  0  0
 78148  1  0  0  0
 78149  1  0  0  0
 79150  1  0  0  0
 79151  1  0  0  0
 80152  1  0  0  0
M  ISO  4   1 100  68 101  79 101  80 100
M  END
> <chiral flag>
0

> <version>
0

> <s_m_source_file>
/data/baiqing/PycharmProjects/Reinvent-master-3.2/result/LINK_invent/BTK/process_docking_weight1_custom_product_contain_oxygen_bond_distance_aromatic_linkinvent_7_9_3/rearranged_h_0020.sdf

> <i_m_source_file_index>
42

> <r_mmod_Potential_Energy-OPLS-2005>
419.340576171875

> <r_mmod_Stretch_Energy-OPLS-2005>
224.835601806641

> <r_mmod_Bend_Energy-OPLS-2005>
284.150177001953

> <r_mmod_Torsional_Energy-OPLS-2005>
203.694259643555

> <r_mmod_Improper_Torsional_Energy-OPLS-2005>
4.58849811553955

> <r_mmod_Van_der_Waal_Energy-OPLS-2005>
145.18830871582

> <r_mmod_Electrostatic_Energy-OPLS-2005>
-388.833129882812

> <r_mmod_Solvation_Energy-OPLS-2005>
-225.778060913086

> <b_mmod_Minimization_Converged-OPLS-2005>
0

> <r_mmod_RMS_Derivative-OPLS-2005>
2.39382147789001

$$$$
43
                    3D
 Structure written by MMmdl.
155163  0  0  1  0            999 V2000
  -30.6326  -14.6268   20.4990 C   0  0  0  0  0  0
  -30.4419  -12.3792   19.4581 C   0  0  0  0  0  0
  -29.5086  -12.4887   18.2303 C   0  0  0  0  0  0
  -28.0313  -12.3347   18.6442 C   0  0  0  0  0  0
  -27.6552  -13.2126   19.8663 C   0  0  2  0  0  0
  -28.7020  -13.0652   20.9961 C   0  0  0  0  0  0
  -25.2556  -13.8167   20.5693 C   0  0  0  0  0  0
  -24.1814  -13.0428   20.9182 C   0  0  0  0  0  0
  -24.6381  -11.6901   20.8741 C   0  0  0  0  0  0
  -23.9057  -10.4283   21.0409 C   0  0  0  0  0  0
  -24.3607   -9.4195   21.9180 C   0  0  0  0  0  0
  -23.6269   -8.2237   22.0757 C   0  0  0  0  0  0
  -22.4255   -8.0279   21.3541 C   0  0  0  0  0  0
  -21.9892   -9.0266   20.4660 C   0  0  0  0  0  0
  -22.7235  -10.2134   20.3064 C   0  0  0  0  0  0
  -21.6852   -6.0731   22.5280 C   0  0  0  0  0  0
  -21.4028   -6.5641   23.8216 C   0  0  0  0  0  0
  -21.3654   -5.6789   24.9173 C   0  0  0  0  0  0
  -21.6039   -4.3054   24.7222 C   0  0  0  0  0  0
  -21.8819   -3.8143   23.4348 C   0  0  0  0  0  0
  -21.9191   -4.6958   22.3402 C   0  0  0  0  0  0
  -22.7834  -13.5223   21.1848 C   0  0  0  0  0  0
  -22.1647   -4.2145   21.0977 F   0  0  0  0  0  0
  -21.5620   -3.4536   25.7730 F   0  0  0  0  0  0
  -30.0205  -13.4022   20.4338 N   0  0  0  0  0  0
  -26.2983  -12.9347   20.3333 N   0  0  0  0  0  0
  -25.9309  -11.6501   20.5760 N   0  0  0  0  0  0
  -22.0473  -12.8245   22.0417 N   0  0  0  0  0  0
  -25.4269  -15.1901   20.4150 N   0  0  0  0  0  0
  -31.7884  -14.7897   20.0977 O   0  0  0  0  0  0
  -21.6627   -6.8873   21.4237 O   0  0  0  0  0  0
  -22.3527  -14.5536   20.6709 O   0  0  0  0  0  0
  -24.6249  -31.8623   23.2067 C   0  0  0  0  0  0
  -25.9100  -32.4787   23.8383 C   0  0  1  0  0  0
  -27.2184  -27.3350   20.1024 C   0  0  0  0  0  0
  -25.5909  -33.8593   24.2278 N   0  0  0  0  0  0
  -23.4173  -30.4902   21.5501 C   0  0  2  0  0  0
  -24.8606  -28.9506   20.1156 C   0  0  0  0  0  0
  -22.7466  -29.4657   22.4962 C   0  0  0  0  0  0
  -18.0290  -28.1398   22.8501 C   0  0  0  0  0  0
  -24.1482  -36.7302   23.2644 C   0  0  0  0  0  0
  -25.9614  -30.7969   21.3800 C   0  0  0  0  0  0
  -26.0337  -29.4297   20.7135 C   0  0  0  0  0  0
  -27.2174  -28.6349   20.6933 C   0  0  0  0  0  0
  -26.0167  -26.9063   19.4910 C   0  0  0  0  0  0
  -24.8533  -27.6932   19.4999 C   0  0  0  0  0  0
  -23.6302  -29.8298   20.1650 C   0  0  0  0  0  0
  -25.4106  -36.3087   24.0323 C   0  0  1  0  0  0
  -20.5886  -28.3693   23.1292 C   0  0  2  0  0  0
  -20.6774  -26.9418   22.5417 C   0  0  0  0  0  0
  -19.5744  -26.6390   21.5225 C   0  0  0  0  0  0
  -18.1923  -26.7942   22.1635 C   0  0  0  0  0  0
  -19.1537  -28.8861   23.2893 C   0  0  0  0  0  0
  -18.9465  -30.1472   23.8907 C   0  0  0  0  0  0
  -17.6460  -30.6594   24.0578 C   0  0  0  0  0  0
  -25.9041  -34.9453   23.5093 C   0  0  0  0  0  0
  -16.5356  -29.9096   23.6342 C   0  0  0  0  0  0
  -16.7275  -28.6516   23.0359 C   0  0  0  0  0  0
  -26.4471  -31.6619   25.0769 C   0  0  0  0  0  0
  -25.3698  -31.3792   26.1507 C   0  0  0  0  0  0
  -27.0332  -30.3036   24.6269 C   0  0  0  0  0  0
  -27.6029  -32.4384   25.7506 C   0  0  0  0  0  0
  -27.5573  -37.1803   24.8457 C   0  0  0  0  0  0
  -21.4183  -29.3051   22.3690 N   0  0  0  0  0  0
  -26.4284  -37.3783   23.9401 N   0  0  0  0  0  0
  -24.6867  -31.0656   22.1012 N   0  0  0  0  0  0
  -23.4192  -28.8190   23.3035 O   0  0  0  0  0  0
  -28.3432  -26.4967   20.1254 O   0  0  0  0  0  0
  -26.5619  -34.8918   22.4665 O   0  0  0  0  0  0
  -23.5413  -32.1417   23.7400 O   0  0  0  0  0  0
  -30.9542  -17.8187   20.0648 C   0  0  0  0  0  0
  -30.9410  -19.2402   19.9659 C   0  0  0  0  0  0
  -28.8714  -17.9237   21.2475 C   0  0  0  0  0  0
  -29.9192  -17.1169   20.7297 C   0  0  0  0  0  0
  -29.9197  -20.0685   20.5238 C   0  0  0  0  0  0
  -28.8552  -19.3473   21.1577 C   0  0  0  0  0  0
  -31.4076  -22.0110   20.7229 C   0  0  0  0  0  0
  -29.3104  -24.0377   20.2257 C   0  0  0  0  0  0
  -28.9607  -22.5206   20.5795 C   0  0  0  0  0  0
  -28.0951  -25.0406   20.1517 C   0  0  0  0  0  0
  -29.8332  -15.6645   20.8927 N   0  0  0  0  0  0
  -30.0588  -21.5115   20.4439 N   0  0  0  0  0  0
  -27.5025  -20.1384   21.8939 Cl  0  0  0  0  0  0
  -31.4841  -12.4964   19.1550 H   0  0  0  0  0  0
  -30.3731  -11.3875   19.9090 H   0  0  0  0  0  0
  -29.7700  -11.7283   17.4936 H   0  0  0  0  0  0
  -29.6560  -13.4515   17.7405 H   0  0  0  0  0  0
  -27.8716  -11.2833   18.8875 H   0  0  0  0  0  0
  -27.3744  -12.5575   17.8019 H   0  0  0  0  0  0
  -27.6775  -14.2476   19.5237 H   0  0  0  0  0  0
  -28.7075  -12.0417   21.3751 H   0  0  0  0  0  0
  -28.4513  -13.6937   21.8518 H   0  0  0  0  0  0
  -25.2753   -9.5663   22.4751 H   0  0  0  0  0  0
  -23.9978   -7.4628   22.7482 H   0  0  0  0  0  0
  -21.0809   -8.8815   19.8969 H   0  0  0  0  0  0
  -22.3703  -10.9683   19.6188 H   0  0  0  0  0  0
  -21.2040   -7.6150   23.9726 H   0  0  0  0  0  0
  -21.1464   -6.0512   25.9079 H   0  0  0  0  0  0
  -22.0598   -2.7604   23.2855 H   0  0  0  0  0  0
  -22.4083  -11.9923   22.4845 H   0  0  0  0  0  0
  -21.1116  -13.1337   22.2638 H   0  0  0  0  0  0
  -24.6596  -15.8450   20.5299 H   0  0  0  0  0  0
  -26.2680  -15.6286   20.0644 H   0  0  0  0  0  0
  -26.7169  -32.5434   23.1133 H   0  0  0  0  0  0
  -25.0031  -33.9747   25.0404 H   0  0  0  0  0  0
  -22.7110  -31.3112   21.4100 H   0  0  0  0  0  0
  -23.3734  -35.9647   23.3319 H   0  0  0  0  0  0
  -24.3584  -36.8923   22.2060 H   0  0  0  0  0  0
  -23.7255  -37.6509   23.6674 H   0  0  0  0  0  0
  -26.1015  -31.5683   20.6218 H   0  0  0  0  0  0
  -26.8376  -30.8336   22.0161 H   0  0  0  0  0  0
  -28.1197  -29.0010   21.1612 H   0  0  0  0  0  0
  -25.9327  -25.9541   18.9925 H   0  0  0  0  0  0
  -23.9537  -27.3195   19.0307 H   0  0  0  0  0  0
  -23.7491  -30.6082   19.4107 H   0  0  0  0  0  0
  -22.7490  -29.2614   19.8617 H   0  0  0  0  0  0
  -25.1290  -36.1935   25.0818 H   0  0  0  0  0  0
  -20.9984  -28.3276   24.1413 H   0  0  0  0  0  0
  -20.5690  -26.2302   23.3617 H   0  0  0  0  0  0
  -21.6637  -26.7458   22.1199 H   0  0  0  0  0  0
  -19.6896  -25.6300   21.1260 H   0  0  0  0  0  0
  -19.6674  -27.3195   20.6749 H   0  0  0  0  0  0
  -17.4190  -26.6711   21.4047 H   0  0  0  0  0  0
  -18.0310  -26.0084   22.9023 H   0  0  0  0  0  0
  -19.7937  -30.7297   24.2265 H   0  0  0  0  0  0
  -17.5013  -31.6272   24.5180 H   0  0  0  0  0  0
  -15.5357  -30.2994   23.7669 H   0  0  0  0  0  0
  -15.8677  -28.0845   22.7057 H   0  0  0  0  0  0
  -24.5819  -30.7196   25.7848 H   0  0  0  0  0  0
  -24.8944  -32.2978   26.4963 H   0  0  0  0  0  0
  -25.8011  -30.8940   27.0270 H   0  0  0  0  0  0
  -26.2940  -29.6788   24.1243 H   0  0  0  0  0  0
  -27.3949  -29.7315   25.4823 H   0  0  0  0  0  0
  -27.8840  -30.4316   23.9574 H   0  0  0  0  0  0
  -27.2616  -33.3670   26.2095 H   0  0  0  0  0  0
  -28.3800  -32.6985   25.0307 H   0  0  0  0  0  0
  -28.0735  -31.8520   26.5403 H   0  0  0  0  0  0
  -28.2590  -38.0097   24.7491 H   0  0  0  0  0  0
  -28.1065  -36.2628   24.6286 H   0  0  0  0  0  0
  -27.2300  -37.1467   25.8863 H   0  0  0  0  0  0
  -20.9355  -29.8768   21.6899 H   0  0  0  0  0  0
  -26.0160  -38.2857   24.1403 H   0  0  0  0  0  0
  -31.7801  -17.2859   19.6158 H   0  0  0  0  0  0
  -31.7646  -19.6977   19.4360 H   0  0  0  0  0  0
  -28.0424  -17.4446   21.7488 H   0  0  0  0  0  0
  -32.1278  -21.2397   20.9973 H   0  0  0  0  0  0
  -31.3928  -22.7138   21.5567 H   0  0  0  0  0  0
  -31.8007  -22.5363   19.8507 H   0  0  0  0  0  0
  -29.8279  -24.0732   19.2662 H   0  0  0  0  0  0
  -30.0125  -24.4258   20.9628 H   0  0  0  0  0  0
  -28.1230  -22.1980   19.9589 H   0  0  0  0  0  0
  -28.6089  -22.5068   21.6121 H   0  0  0  0  0  0
  -27.4352  -24.8344   20.9952 H   0  0  0  0  0  0
  -27.5578  -24.7420   19.2539 H   0  0  0  0  0  0
  -28.9587  -15.3410   21.2757 H   0  0  0  0  0  0
  1 25  1  0  0  0
  1 30  2  0  0  0
  1 81  1  0  0  0
  2  3  1  0  0  0
  2 25  1  0  0  0
  2 84  1  0  0  0
  2 85  1  0  0  0
  3  4  1  0  0  0
  3 86  1  0  0  0
  3 87  1  0  0  0
  4  5  1  0  0  0
  4 88  1  0  0  0
  4 89  1  0  0  0
  5  6  1  0  0  0
  5 26  1  0  0  0
  5 90  1  0  0  0
  6 25  1  0  0  0
  6 91  1  0  0  0
  6 92  1  0  0  0
  7  8  2  0  0  0
  7 26  1  0  0  0
  7 29  1  0  0  0
  8  9  1  0  0  0
  8 22  1  0  0  0
  9 10  1  0  0  0
  9 27  2  0  0  0
 10 11  2  0  0  0
 10 15  1  0  0  0
 11 12  1  0  0  0
 11 93  1  0  0  0
 12 13  2  0  0  0
 12 94  1  0  0  0
 13 14  1  0  0  0
 13 31  1  0  0  0
 14 15  2  0  0  0
 14 95  1  0  0  0
 15 96  1  0  0  0
 16 17  2  0  0  0
 16 21  1  0  0  0
 16 31  1  0  0  0
 17 18  1  0  0  0
 17 97  1  0  0  0
 18 19  2  0  0  0
 18 98  1  0  0  0
 19 20  1  0  0  0
 19 24  1  0  0  0
 20 21  2  0  0  0
 20 99  1  0  0  0
 21 23  1  0  0  0
 22 28  1  0  0  0
 22 32  2  0  0  0
 26 27  1  0  0  0
 28100  1  0  0  0
 28101  1  0  0  0
 29102  1  0  0  0
 29103  1  0  0  0
 33 34  1  0  0  0
 33 66  1  0  0  0
 33 70  2  0  0  0
 34 36  1  0  0  0
 34 59  1  0  0  0
 34104  1  0  0  0
 35 44  2  0  0  0
 35 45  1  0  0  0
 35 68  1  0  0  0
 36 56  1  0  0  0
 36105  1  0  0  0
 37 39  1  0  0  0
 37 47  1  0  0  0
 37 66  1  0  0  0
 37106  1  0  0  0
 38 43  2  0  0  0
 38 46  1  0  0  0
 38 47  1  0  0  0
 39 64  1  0  0  0
 39 67  2  0  0  0
 40 52  1  0  0  0
 40 53  2  0  0  0
 40 58  1  0  0  0
 41107  1  0  0  0
 41108  1  0  0  0
 41109  1  0  0  0
 41 48  1  0  0  0
 42 43  1  0  0  0
 42 66  1  0  0  0
 42110  1  0  0  0
 42111  1  0  0  0
 43 44  1  0  0  0
 44112  1  0  0  0
 45 46  2  0  0  0
 45113  1  0  0  0
 46114  1  0  0  0
 47115  1  0  0  0
 47116  1  0  0  0
 48 56  1  0  0  0
 48 65  1  0  0  0
 48117  1  0  0  0
 49 50  1  0  0  0
 49 53  1  0  0  0
 49 64  1  0  0  0
 49118  1  0  0  0
 50 51  1  0  0  0
 50119  1  0  0  0
 50120  1  0  0  0
 51 52  1  0  0  0
 51121  1  0  0  0
 51122  1  0  0  0
 52123  1  0  0  0
 52124  1  0  0  0
 53 54  1  0  0  0
 54 55  2  0  0  0
 54125  1  0  0  0
 55 57  1  0  0  0
 55126  1  0  0  0
 56 69  2  0  0  0
 57 58  2  0  0  0
 57127  1  0  0  0
 58128  1  0  0  0
 59 60  1  0  0  0
 59 61  1  0  0  0
 59 62  1  0  0  0
 60129  1  0  0  0
 60130  1  0  0  0
 60131  1  0  0  0
 61132  1  0  0  0
 61133  1  0  0  0
 61134  1  0  0  0
 62135  1  0  0  0
 62136  1  0  0  0
 62137  1  0  0  0
 63 65  1  0  0  0
 63138  1  0  0  0
 63139  1  0  0  0
 63140  1  0  0  0
 64141  1  0  0  0
 65142  1  0  0  0
 68 80  1  0  0  0
 71 72  2  0  0  0
 71 74  1  0  0  0
 71143  1  0  0  0
 72 75  1  0  0  0
 72144  1  0  0  0
 73 74  2  0  0  0
 73 76  1  0  0  0
 73145  1  0  0  0
 74 81  1  0  0  0
 75 76  2  0  0  0
 75 82  1  0  0  0
 76 83  1  0  0  0
 77 82  1  0  0  0
 77146  1  0  0  0
 77147  1  0  0  0
 77148  1  0  0  0
 78 79  1  0  0  0
 78 80  1  0  0  0
 78149  1  0  0  0
 78150  1  0  0  0
 79 82  1  0  0  0
 79151  1  0  0  0
 79152  1  0  0  0
 80153  1  0  0  0
 80154  1  0  0  0
 81155  1  0  0  0
M  ISO  4   1 100  68 101  80 101  81 100
M  END
> <chiral flag>
0

> <version>
0

> <s_m_source_file>
/data/baiqing/PycharmProjects/Reinvent-master-3.2/result/LINK_invent/BTK/process_docking_weight1_custom_product_contain_oxygen_bond_distance_aromatic_linkinvent_7_9_3/rearranged_h_0020.sdf

> <i_m_source_file_index>
43

> <r_mmod_Potential_Energy-OPLS-2005>
96.2130355834961

> <r_mmod_Stretch_Energy-OPLS-2005>
77.1825332641602

> <r_mmod_Bend_Energy-OPLS-2005>
151.108978271484

> <r_mmod_Torsional_Energy-OPLS-2005>
215.141036987305

> <r_mmod_Improper_Torsional_Energy-OPLS-2005>
4.90351581573486

> <r_mmod_Van_der_Waal_Energy-OPLS-2005>
160.893203735352

> <r_mmod_Electrostatic_Energy-OPLS-2005>
-334.150909423828

> <r_mmod_Solvation_Energy-OPLS-2005>
-222.021881103516

> <b_mmod_Minimization_Converged-OPLS-2005>
0

> <r_mmod_RMS_Derivative-OPLS-2005>
2.50880789756775

$$$$
44
                    3D
 Structure written by MMmdl.
161170  0  0  1  0            999 V2000
  -30.7103  -14.5236   20.5672 C   0  0  0  0  0  0
  -30.4143  -12.3493   19.4229 C   0  0  0  0  0  0
  -29.4863  -12.5057   18.2009 C   0  0  0  0  0  0
  -28.0081  -12.3594   18.6159 C   0  0  0  0  0  0
  -27.6514  -13.2027   19.8697 C   0  0  2  0  0  0
  -28.7019  -12.9806   20.9824 C   0  0  0  0  0  0
  -25.2544  -13.8140   20.5677 C   0  0  0  0  0  0
  -24.1804  -13.0421   20.9191 C   0  0  0  0  0  0
  -24.6354  -11.6891   20.8731 C   0  0  0  0  0  0
  -23.9025  -10.4286   21.0401 C   0  0  0  0  0  0
  -24.3593   -9.4217   21.9184 C   0  0  0  0  0  0
  -23.6283   -8.2247   22.0756 C   0  0  0  0  0  0
  -22.4268   -8.0273   21.3540 C   0  0  0  0  0  0
  -21.9883   -9.0244   20.4647 C   0  0  0  0  0  0
  -22.7198  -10.2128   20.3056 C   0  0  0  0  0  0
  -21.6853   -6.0731   22.5280 C   0  0  0  0  0  0
  -21.4017   -6.5638   23.8213 C   0  0  0  0  0  0
  -21.3658   -5.6789   24.9172 C   0  0  0  0  0  0
  -21.6044   -4.3053   24.7224 C   0  0  0  0  0  0
  -21.8823   -3.8146   23.4345 C   0  0  0  0  0  0
  -21.9196   -4.6961   22.3402 C   0  0  0  0  0  0
  -22.7840  -13.5239   21.1856 C   0  0  0  0  0  0
  -22.1663   -4.2139   21.0982 F   0  0  0  0  0  0
  -21.5625   -3.4541   25.7741 F   0  0  0  0  0  0
  -30.0019  -13.3604   20.4205 N   0  0  0  0  0  0
  -26.2967  -12.9300   20.3361 N   0  0  0  0  0  0
  -25.9279  -11.6465   20.5770 N   0  0  0  0  0  0
  -22.0476  -12.8235   22.0414 N   0  0  0  0  0  0
  -25.4241  -15.1851   20.4073 N   0  0  0  0  0  0
  -31.8901  -14.5497   20.2022 O   0  0  0  0  0  0
  -21.6639   -6.8866   21.4238 O   0  0  0  0  0  0
  -22.3536  -14.5547   20.6705 O   0  0  0  0  0  0
  -24.6128  -31.8686   23.2069 C   0  0  0  0  0  0
  -25.9035  -32.4813   23.8378 C   0  0  1  0  0  0
  -27.2276  -27.4242   20.0958 C   0  0  0  0  0  0
  -25.5907  -33.8611   24.2331 N   0  0  0  0  0  0
  -23.4035  -30.4891   21.5464 C   0  0  2  0  0  0
  -24.8487  -28.9569   20.1099 C   0  0  0  0  0  0
  -22.7394  -29.4661   22.4959 C   0  0  0  0  0  0
  -18.0284  -28.1383   22.8422 C   0  0  0  0  0  0
  -24.1482  -36.7321   23.2636 C   0  0  0  0  0  0
  -25.9340  -30.8305   21.3614 C   0  0  0  0  0  0
  -26.0079  -29.4621   20.7114 C   0  0  0  0  0  0
  -27.1994  -28.7013   20.7062 C   0  0  0  0  0  0
  -26.0526  -26.9430   19.4740 C   0  0  0  0  0  0
  -24.8656  -27.6964   19.4911 C   0  0  0  0  0  0
  -23.6132  -29.8230   20.1603 C   0  0  0  0  0  0
  -25.4101  -36.3098   24.0325 C   0  0  1  0  0  0
  -20.5862  -28.3653   23.1295 C   0  0  2  0  0  0
  -20.6767  -26.9368   22.5464 C   0  0  0  0  0  0
  -19.5817  -26.6332   21.5187 C   0  0  0  0  0  0
  -18.1917  -26.7971   22.1426 C   0  0  0  0  0  0
  -19.1521  -28.8813   23.2909 C   0  0  0  0  0  0
  -18.9433  -30.1408   23.8952 C   0  0  0  0  0  0
  -17.6437  -30.6554   24.0591 C   0  0  0  0  0  0
  -25.9030  -34.9465   23.5122 C   0  0  0  0  0  0
  -16.5334  -29.9075   23.6293 C   0  0  0  0  0  0
  -16.7273  -28.6513   23.0267 C   0  0  0  0  0  0
  -26.4489  -31.6588   25.0700 C   0  0  0  0  0  0
  -25.3748  -31.3705   26.1455 C   0  0  0  0  0  0
  -27.0301  -30.3025   24.6063 C   0  0  0  0  0  0
  -27.6033  -32.4298   25.7472 C   0  0  0  0  0  0
  -27.5575  -37.1815   24.8461 C   0  0  0  0  0  0
  -21.4123  -29.3005   22.3671 N   0  0  0  0  0  0
  -26.4288  -37.3782   23.9396 N   0  0  0  0  0  0
  -24.6676  -31.0767   22.0982 N   0  0  0  0  0  0
  -23.4144  -28.8260   23.3076 O   0  0  0  0  0  0
  -28.3953  -26.6876   20.1398 O   0  0  0  0  0  0
  -26.5588  -34.8926   22.4674 O   0  0  0  0  0  0
  -23.5327  -32.1443   23.7477 O   0  0  0  0  0  0
  -27.8424  -19.4807   23.0377 C   0  0  0  0  0  0
  -27.7352  -18.0330   20.6399 C   0  0  0  0  0  0
  -27.1741  -20.0425   21.9255 C   0  0  0  0  0  0
  -28.3834  -17.4542   21.7574 C   0  0  0  0  0  0
  -27.1450  -19.3126   20.7177 C   0  0  0  0  0  0
  -28.4396  -18.2018   22.9580 C   0  0  0  0  0  0
  -28.1170  -23.2673   21.6791 C   0  0  0  0  0  0
  -26.3149  -23.6495   20.7322 C   0  0  0  0  0  0
  -27.5026  -24.5520   21.0765 C   0  0  2  0  0  0
  -30.7195  -16.9602   20.2617 C   0  0  0  0  0  0
  -26.3770  -21.3412   22.0779 C   0  0  0  0  0  0
  -28.9410  -16.0143   21.6835 C   0  0  0  0  0  0
  -28.3315  -25.2546   19.9780 C   0  0  0  0  0  0
  -26.9365  -22.5769   21.5251 N   0  0  0  0  0  0
  -30.0548  -15.7249   20.7397 N   0  0  0  0  0  0
  -29.1646  -22.9448   22.1956 O   0  0  0  0  0  0
  -26.5056  -19.8184   19.6369 F   0  0  0  0  0  0
  -29.0382  -17.6833   24.0569 F   0  0  0  0  0  0
  -31.4546  -12.4490   19.1100 H   0  0  0  0  0  0
  -30.3329  -11.3437   19.8382 H   0  0  0  0  0  0
  -29.7340  -11.7661   17.4371 H   0  0  0  0  0  0
  -29.6440  -13.4849   17.7459 H   0  0  0  0  0  0
  -27.8256  -11.3026   18.8162 H   0  0  0  0  0  0
  -27.3538  -12.6266   17.7849 H   0  0  0  0  0  0
  -27.6871  -14.2453   19.5560 H   0  0  0  0  0  0
  -28.7141  -11.9268   21.2627 H   0  0  0  0  0  0
  -28.4715  -13.4803   21.9189 H   0  0  0  0  0  0
  -25.2740   -9.5700   22.4750 H   0  0  0  0  0  0
  -24.0000   -7.4638   22.7471 H   0  0  0  0  0  0
  -21.0817   -8.8756   19.8949 H   0  0  0  0  0  0
  -22.3658  -10.9666   19.6165 H   0  0  0  0  0  0
  -21.2014   -7.6148   23.9709 H   0  0  0  0  0  0
  -21.1471   -6.0522   25.9068 H   0  0  0  0  0  0
  -22.0602   -2.7608   23.2853 H   0  0  0  0  0  0
  -22.4091  -11.9893   22.4792 H   0  0  0  0  0  0
  -21.1092  -13.1253   22.2613 H   0  0  0  0  0  0
  -24.6555  -15.8364   20.5198 H   0  0  0  0  0  0
  -26.2742  -15.6261   20.0851 H   0  0  0  0  0  0
  -26.7104  -32.5532   23.1136 H   0  0  0  0  0  0
  -25.0037  -33.9776   25.0462 H   0  0  0  0  0  0
  -22.6953  -31.3060   21.4015 H   0  0  0  0  0  0
  -23.3727  -35.9676   23.3301 H   0  0  0  0  0  0
  -24.3588  -36.8946   22.2058 H   0  0  0  0  0  0
  -23.7272  -37.6536   23.6657 H   0  0  0  0  0  0
  -26.0395  -31.5921   20.5878 H   0  0  0  0  0  0
  -26.8237  -30.8895   21.9754 H   0  0  0  0  0  0
  -28.0888  -29.0862   21.1846 H   0  0  0  0  0  0
  -26.0324  -25.9894   18.9681 H   0  0  0  0  0  0
  -23.9770  -27.3040   19.0166 H   0  0  0  0  0  0
  -23.7296  -30.5976   19.4022 H   0  0  0  0  0  0
  -22.7420  -29.2383   19.8575 H   0  0  0  0  0  0
  -25.1284  -36.1948   25.0820 H   0  0  0  0  0  0
  -20.9970  -28.3291   24.1416 H   0  0  0  0  0  0
  -20.5567  -26.2253   23.3648 H   0  0  0  0  0  0
  -21.6687  -26.7379   22.1355 H   0  0  0  0  0  0
  -19.7002  -25.6215   21.1227 H   0  0  0  0  0  0
  -19.6832  -27.3098   20.6705 H   0  0  0  0  0  0
  -17.4296  -26.6876   21.3707 H   0  0  0  0  0  0
  -18.0060  -26.0046   22.8667 H   0  0  0  0  0  0
  -19.7870  -30.7209   24.2423 H   0  0  0  0  0  0
  -17.4965  -31.6199   24.5268 H   0  0  0  0  0  0
  -15.5326  -30.2949   23.7637 H   0  0  0  0  0  0
  -15.8693  -28.0875   22.6845 H   0  0  0  0  0  0
  -24.5908  -30.7078   25.7811 H   0  0  0  0  0  0
  -24.8974  -32.2875   26.4908 H   0  0  0  0  0  0
  -25.8119  -30.8875   27.0204 H   0  0  0  0  0  0
  -26.2852  -29.6788   24.1120 H   0  0  0  0  0  0
  -27.4102  -29.7261   25.4515 H   0  0  0  0  0  0
  -27.8669  -30.4367   23.9187 H   0  0  0  0  0  0
  -27.2637  -33.3576   26.2089 H   0  0  0  0  0  0
  -28.3833  -32.6902   25.0292 H   0  0  0  0  0  0
  -28.0706  -31.8389   26.5372 H   0  0  0  0  0  0
  -28.2586  -38.0118   24.7483 H   0  0  0  0  0  0
  -28.1075  -36.2641   24.6292 H   0  0  0  0  0  0
  -27.2291  -37.1470   25.8870 H   0  0  0  0  0  0
  -20.9295  -29.8547   21.6760 H   0  0  0  0  0  0
  -26.0164  -38.2849   24.1415 H   0  0  0  0  0  0
  -27.8624  -20.0115   23.9796 H   0  0  0  0  0  0
  -27.6681  -17.4866   19.7106 H   0  0  0  0  0  0
  -26.2304  -23.4159   19.6691 H   0  0  0  0  0  0
  -25.3649  -24.0142   21.1260 H   0  0  0  0  0  0
  -27.2285  -25.2446   21.8722 H   0  0  0  0  0  0
  -30.0845  -17.4855   19.5504 H   0  0  0  0  0  0
  -31.6649  -16.8226   19.7380 H   0  0  0  0  0  0
  -30.9346  -17.6331   21.0933 H   0  0  0  0  0  0
  -26.1652  -21.5156   23.1332 H   0  0  0  0  0  0
  -25.4005  -21.1846   21.6157 H   0  0  0  0  0  0
  -28.0611  -15.4458   21.4087 H   0  0  0  0  0  0
  -29.2291  -15.6752   22.6790 H   0  0  0  0  0  0
  -27.9804  -24.9930   18.9800 H   0  0  0  0  0  0
  -29.3618  -24.9006   20.0070 H   0  0  0  0  0  0
  1 25  1  0  0  0
  1 30  2  0  0  0
  1 85  1  0  0  0
  2  3  1  0  0  0
  2 25  1  0  0  0
  2 89  1  0  0  0
  2 90  1  0  0  0
  3  4  1  0  0  0
  3 91  1  0  0  0
  3 92  1  0  0  0
  4  5  1  0  0  0
  4 93  1  0  0  0
  4 94  1  0  0  0
  5  6  1  0  0  0
  5 26  1  0  0  0
  5 95  1  0  0  0
  6 25  1  0  0  0
  6 96  1  0  0  0
  6 97  1  0  0  0
  7  8  2  0  0  0
  7 26  1  0  0  0
  7 29  1  0  0  0
  8  9  1  0  0  0
  8 22  1  0  0  0
  9 10  1  0  0  0
  9 27  2  0  0  0
 10 11  2  0  0  0
 10 15  1  0  0  0
 11 12  1  0  0  0
 11 98  1  0  0  0
 12 13  2  0  0  0
 12 99  1  0  0  0
 13 14  1  0  0  0
 13 31  1  0  0  0
 14 15  2  0  0  0
 14100  1  0  0  0
 15101  1  0  0  0
 16 17  2  0  0  0
 16 21  1  0  0  0
 16 31  1  0  0  0
 17 18  1  0  0  0
 17102  1  0  0  0
 18 19  2  0  0  0
 18103  1  0  0  0
 19 20  1  0  0  0
 19 24  1  0  0  0
 20 21  2  0  0  0
 20104  1  0  0  0
 21 23  1  0  0  0
 22 28  1  0  0  0
 22 32  2  0  0  0
 26 27  1  0  0  0
 28105  1  0  0  0
 28106  1  0  0  0
 29107  1  0  0  0
 29108  1  0  0  0
 33 34  1  0  0  0
 33 66  1  0  0  0
 33 70  2  0  0  0
 34 36  1  0  0  0
 34 59  1  0  0  0
 34109  1  0  0  0
 35 44  2  0  0  0
 35 45  1  0  0  0
 35 68  1  0  0  0
 36 56  1  0  0  0
 36110  1  0  0  0
 37 39  1  0  0  0
 37 47  1  0  0  0
 37 66  1  0  0  0
 37111  1  0  0  0
 38 43  2  0  0  0
 38 46  1  0  0  0
 38 47  1  0  0  0
 39 64  1  0  0  0
 39 67  2  0  0  0
 40 52  1  0  0  0
 40 53  2  0  0  0
 40 58  1  0  0  0
 41112  1  0  0  0
 41113  1  0  0  0
 41114  1  0  0  0
 41 48  1  0  0  0
 42 43  1  0  0  0
 42 66  1  0  0  0
 42115  1  0  0  0
 42116  1  0  0  0
 43 44  1  0  0  0
 44117  1  0  0  0
 45 46  2  0  0  0
 45118  1  0  0  0
 46119  1  0  0  0
 47120  1  0  0  0
 47121  1  0  0  0
 48 56  1  0  0  0
 48 65  1  0  0  0
 48122  1  0  0  0
 49 50  1  0  0  0
 49 53  1  0  0  0
 49 64  1  0  0  0
 49123  1  0  0  0
 50 51  1  0  0  0
 50124  1  0  0  0
 50125  1  0  0  0
 51 52  1  0  0  0
 51126  1  0  0  0
 51127  1  0  0  0
 52128  1  0  0  0
 52129  1  0  0  0
 53 54  1  0  0  0
 54 55  2  0  0  0
 54130  1  0  0  0
 55 57  1  0  0  0
 55131  1  0  0  0
 56 69  2  0  0  0
 57 58  2  0  0  0
 57132  1  0  0  0
 58133  1  0  0  0
 59 60  1  0  0  0
 59 61  1  0  0  0
 59 62  1  0  0  0
 60134  1  0  0  0
 60135  1  0  0  0
 60136  1  0  0  0
 61137  1  0  0  0
 61138  1  0  0  0
 61139  1  0  0  0
 62140  1  0  0  0
 62141  1  0  0  0
 62142  1  0  0  0
 63 65  1  0  0  0
 63143  1  0  0  0
 63144  1  0  0  0
 63145  1  0  0  0
 64146  1  0  0  0
 65147  1  0  0  0
 68 83  1  0  0  0
 71 73  2  0  0  0
 71 76  1  0  0  0
 71148  1  0  0  0
 72 74  1  0  0  0
 72 75  2  0  0  0
 72149  1  0  0  0
 73 75  1  0  0  0
 73 81  1  0  0  0
 74 76  2  0  0  0
 74 82  1  0  0  0
 75 87  1  0  0  0
 76 88  1  0  0  0
 77 79  1  0  0  0
 77 84  1  0  0  0
 77 86  2  0  0  0
 78 79  1  0  0  0
 78 84  1  0  0  0
 78150  1  0  0  0
 78151  1  0  0  0
 79 83  1  0  0  0
 79152  1  0  0  0
 80 85  1  0  0  0
 80153  1  0  0  0
 80154  1  0  0  0
 80155  1  0  0  0
 81 84  1  0  0  0
 81156  1  0  0  0
 81157  1  0  0  0
 82 85  1  0  0  0
 82158  1  0  0  0
 82159  1  0  0  0
 83160  1  0  0  0
 83161  1  0  0  0
M  ISO  4   1 100  68 101  83 101  85 100
M  END
> <chiral flag>
0

> <version>
0

> <s_m_source_file>
/data/baiqing/PycharmProjects/Reinvent-master-3.2/result/LINK_invent/BTK/process_docking_weight1_custom_product_contain_oxygen_bond_distance_aromatic_linkinvent_7_9_3/rearranged_h_0020.sdf

> <i_m_source_file_index>
44

> <r_mmod_Potential_Energy-OPLS-2005>
89.6853256225586

> <r_mmod_Stretch_Energy-OPLS-2005>
46.9164848327637

> <r_mmod_Bend_Energy-OPLS-2005>
131.103591918945

> <r_mmod_Torsional_Energy-OPLS-2005>
270.348236083984

> <r_mmod_Improper_Torsional_Energy-OPLS-2005>
12.7269716262817

> <r_mmod_Van_der_Waal_Energy-OPLS-2005>
162.080383300781

> <r_mmod_Electrostatic_Energy-OPLS-2005>
-340.096649169922

> <r_mmod_Solvation_Energy-OPLS-2005>
-216.056137084961

> <b_mmod_Minimization_Converged-OPLS-2005>
0

> <r_mmod_RMS_Derivative-OPLS-2005>
3.8665509223938

$$$$
45
                    3D
 Structure written by MMmdl.
157165  0  0  1  0            999 V2000
  -30.6953  -14.4756   20.5545 C   0  0  0  0  0  0
  -30.4210  -12.3042   19.4230 C   0  0  0  0  0  0
  -29.4932  -12.4997   18.2057 C   0  0  0  0  0  0
  -28.0141  -12.3576   18.6191 C   0  0  0  0  0  0
  -27.6568  -13.2011   19.8722 C   0  0  2  0  0  0
  -28.6997  -12.9943   20.9934 C   0  0  0  0  0  0
  -25.2580  -13.8139   20.5696 C   0  0  0  0  0  0
  -24.1822  -13.0430   20.9184 C   0  0  0  0  0  0
  -24.6365  -11.6894   20.8734 C   0  0  0  0  0  0
  -23.9028  -10.4290   21.0404 C   0  0  0  0  0  0
  -24.3593   -9.4214   21.9182 C   0  0  0  0  0  0
  -23.6288   -8.2239   22.0748 C   0  0  0  0  0  0
  -22.4269   -8.0273   21.3542 C   0  0  0  0  0  0
  -21.9894   -9.0235   20.4644 C   0  0  0  0  0  0
  -22.7203  -10.2124   20.3052 C   0  0  0  0  0  0
  -21.6851   -6.0727   22.5282 C   0  0  0  0  0  0
  -21.4007   -6.5629   23.8216 C   0  0  0  0  0  0
  -21.3658   -5.6779   24.9175 C   0  0  0  0  0  0
  -21.6051   -4.3044   24.7224 C   0  0  0  0  0  0
  -21.8823   -3.8137   23.4344 C   0  0  0  0  0  0
  -21.9194   -4.6954   22.3400 C   0  0  0  0  0  0
  -22.7851  -13.5243   21.1845 C   0  0  0  0  0  0
  -22.1668   -4.2142   21.0980 F   0  0  0  0  0  0
  -21.5633   -3.4531   25.7738 F   0  0  0  0  0  0
  -30.0278  -13.2948   20.4366 N   0  0  0  0  0  0
  -26.2995  -12.9292   20.3362 N   0  0  0  0  0  0
  -25.9291  -11.6460   20.5763 N   0  0  0  0  0  0
  -22.0474  -12.8253   22.0405 N   0  0  0  0  0  0
  -25.4315  -15.1855   20.4108 N   0  0  0  0  0  0
  -31.8456  -14.6323   20.1315 O   0  0  0  0  0  0
  -21.6633   -6.8871   21.4244 O   0  0  0  0  0  0
  -22.3550  -14.5556   20.6698 O   0  0  0  0  0  0
  -24.6127  -31.8676   23.2099 C   0  0  0  0  0  0
  -25.9023  -32.4823   23.8390 C   0  0  1  0  0  0
  -27.2366  -27.4432   20.1048 C   0  0  0  0  0  0
  -25.5885  -33.8619   24.2325 N   0  0  0  0  0  0
  -23.4005  -30.4905   21.5491 C   0  0  2  0  0  0
  -24.8475  -28.9526   20.1165 C   0  0  0  0  0  0
  -22.7401  -29.4659   22.4987 C   0  0  0  0  0  0
  -18.0272  -28.1378   22.8494 C   0  0  0  0  0  0
  -24.1480  -36.7305   23.2641 C   0  0  0  0  0  0
  -25.9270  -30.8378   21.3599 C   0  0  0  0  0  0
  -26.0055  -29.4726   20.7074 C   0  0  0  0  0  0
  -27.2047  -28.7276   20.6906 C   0  0  0  0  0  0
  -26.0629  -26.9300   19.5129 C   0  0  0  0  0  0
  -24.8703  -27.6808   19.5152 C   0  0  0  0  0  0
  -23.6090  -29.8192   20.1644 C   0  0  0  0  0  0
  -25.4103  -36.3110   24.0346 C   0  0  1  0  0  0
  -20.5860  -28.3658   23.1325 C   0  0  2  0  0  0
  -20.6761  -26.9396   22.5420 C   0  0  0  0  0  0
  -19.5740  -26.6387   21.5215 C   0  0  0  0  0  0
  -18.1920  -26.7930   22.1624 C   0  0  0  0  0  0
  -19.1520  -28.8836   23.2910 C   0  0  0  0  0  0
  -18.9452  -30.1443   23.8918 C   0  0  0  0  0  0
  -17.6456  -30.6585   24.0570 C   0  0  0  0  0  0
  -25.9027  -34.9478   23.5137 C   0  0  0  0  0  0
  -16.5344  -29.9093   23.6325 C   0  0  0  0  0  0
  -16.7264  -28.6508   23.0347 C   0  0  0  0  0  0
  -26.4473  -31.6606   25.0711 C   0  0  0  0  0  0
  -25.3763  -31.3701   26.1479 C   0  0  0  0  0  0
  -27.0311  -30.3060   24.6068 C   0  0  0  0  0  0
  -27.6042  -32.4341   25.7468 C   0  0  0  0  0  0
  -27.5584  -37.1801   24.8466 C   0  0  0  0  0  0
  -21.4131  -29.3026   22.3732 N   0  0  0  0  0  0
  -26.4287  -37.3797   23.9423 N   0  0  0  0  0  0
  -24.6652  -31.0791   22.0987 N   0  0  0  0  0  0
  -23.4183  -28.8203   23.3026 O   0  0  0  0  0  0
  -28.4196  -26.7393   20.0971 O   0  0  0  0  0  0
  -26.5584  -34.8933   22.4695 O   0  0  0  0  0  0
  -23.5323  -32.1417   23.7506 O   0  0  0  0  0  0
  -30.4334  -18.9732   19.9283 C   0  0  0  0  0  0
  -30.1316  -20.3482   20.0274 C   0  0  0  0  0  0
  -28.1047  -18.4313   20.3458 C   0  0  0  0  0  0
  -29.4174  -18.0023   20.0504 C   0  0  0  0  0  0
  -28.8011  -20.7890   20.2477 C   0  0  0  0  0  0
  -27.8016  -19.8077   20.4453 C   0  0  0  0  0  0
  -29.7671  -16.0276   22.1912 C   0  0  0  0  0  0
  -29.7150  -16.5349   19.7187 C   0  0  0  0  0  0
  -28.6548  -24.4186   19.3104 C   0  0  0  0  0  0
  -28.3828  -25.3623   20.4984 C   0  0  0  0  0  0
  -29.3227  -23.0716   19.6723 C   0  0  0  0  0  0
  -29.9146  -15.5552   20.8125 N   0  0  0  0  0  0
  -28.4222  -22.1249   20.2560 O   0  0  0  0  0  0
  -26.5238  -20.1897   20.6858 F   0  0  0  0  0  0
  -31.4656  -12.4012   19.1212 H   0  0  0  0  0  0
  -30.3199  -11.2949   19.8259 H   0  0  0  0  0  0
  -29.7357  -11.7741   17.4282 H   0  0  0  0  0  0
  -29.6593  -13.4855   17.7676 H   0  0  0  0  0  0
  -27.8288  -11.3015   18.8207 H   0  0  0  0  0  0
  -27.3616  -12.6262   17.7874 H   0  0  0  0  0  0
  -27.6925  -14.2454   19.5686 H   0  0  0  0  0  0
  -28.6769  -11.9650   21.3541 H   0  0  0  0  0  0
  -28.4635  -13.6148   21.8578 H   0  0  0  0  0  0
  -25.2736   -9.5704   22.4754 H   0  0  0  0  0  0
  -24.0009   -7.4627   22.7461 H   0  0  0  0  0  0
  -21.0821   -8.8731   19.8953 H   0  0  0  0  0  0
  -22.3645  -10.9652   19.6159 H   0  0  0  0  0  0
  -21.1989   -7.6133   23.9723 H   0  0  0  0  0  0
  -21.1483   -6.0502   25.9083 H   0  0  0  0  0  0
  -22.0605   -2.7599   23.2837 H   0  0  0  0  0  0
  -22.4070  -11.9916   22.4812 H   0  0  0  0  0  0
  -21.1092  -13.1297   22.2586 H   0  0  0  0  0  0
  -24.6698  -15.8445   20.5267 H   0  0  0  0  0  0
  -26.2921  -15.6194   20.1054 H   0  0  0  0  0  0
  -26.7089  -32.5539   23.1151 H   0  0  0  0  0  0
  -25.0071  -33.9783   25.0496 H   0  0  0  0  0  0
  -22.6887  -31.3069   21.4087 H   0  0  0  0  0  0
  -23.3751  -35.9627   23.3309 H   0  0  0  0  0  0
  -24.3576  -36.8907   22.2053 H   0  0  0  0  0  0
  -23.7221  -37.6509   23.6649 H   0  0  0  0  0  0
  -26.0373  -31.6053   20.5923 H   0  0  0  0  0  0
  -26.8154  -30.8902   21.9777 H   0  0  0  0  0  0
  -28.1032  -29.1293   21.1388 H   0  0  0  0  0  0
  -26.0673  -25.9576   19.0416 H   0  0  0  0  0  0
  -23.9795  -27.2766   19.0544 H   0  0  0  0  0  0
  -23.7185  -30.5926   19.4030 H   0  0  0  0  0  0
  -22.7337  -29.2379   19.8688 H   0  0  0  0  0  0
  -25.1280  -36.1972   25.0837 H   0  0  0  0  0  0
  -20.9959  -28.3217   24.1445 H   0  0  0  0  0  0
  -20.5659  -26.2264   23.3603 H   0  0  0  0  0  0
  -21.6631  -26.7440   22.1213 H   0  0  0  0  0  0
  -19.6900  -25.6303   21.1229 H   0  0  0  0  0  0
  -19.6688  -27.3211   20.6756 H   0  0  0  0  0  0
  -17.4195  -26.6684   21.4020 H   0  0  0  0  0  0
  -18.0318  -26.0066   22.9011 H   0  0  0  0  0  0
  -19.7929  -30.7252   24.2294 H   0  0  0  0  0  0
  -17.5015  -31.6271   24.5167 H   0  0  0  0  0  0
  -15.5349  -30.3004   23.7641 H   0  0  0  0  0  0
  -15.8661  -28.0840   22.7047 H   0  0  0  0  0  0
  -24.5914  -30.7069   25.7828 H   0  0  0  0  0  0
  -24.8984  -32.2854   26.4978 H   0  0  0  0  0  0
  -25.8139  -30.8837   27.0205 H   0  0  0  0  0  0
  -26.2839  -29.6801   24.1172 H   0  0  0  0  0  0
  -27.4158  -29.7312   25.4502 H   0  0  0  0  0  0
  -27.8640  -30.4400   23.9160 H   0  0  0  0  0  0
  -27.2647  -33.3624   26.2078 H   0  0  0  0  0  0
  -28.3830  -32.6937   25.0284 H   0  0  0  0  0  0
  -28.0743  -31.8458   26.5358 H   0  0  0  0  0  0
  -28.2595  -38.0104   24.7539 H   0  0  0  0  0  0
  -28.1085  -36.2642   24.6260 H   0  0  0  0  0  0
  -27.2307  -37.1410   25.8867 H   0  0  0  0  0  0
  -20.9283  -29.8759   21.6965 H   0  0  0  0  0  0
  -26.0179  -38.2871   24.1446 H   0  0  0  0  0  0
  -31.4473  -18.6699   19.7048 H   0  0  0  0  0  0
  -30.9407  -21.0517   19.8979 H   0  0  0  0  0  0
  -27.3078  -17.7099   20.4472 H   0  0  0  0  0  0
  -28.7732  -16.4472   22.3511 H   0  0  0  0  0  0
  -30.5082  -16.7957   22.4164 H   0  0  0  0  0  0
  -29.8992  -15.2205   22.9147 H   0  0  0  0  0  0
  -30.5738  -16.5304   19.0429 H   0  0  0  0  0  0
  -28.8884  -16.1714   19.1075 H   0  0  0  0  0  0
  -29.3381  -24.9338   18.6348 H   0  0  0  0  0  0
  -27.7442  -24.2511   18.7353 H   0  0  0  0  0  0
  -29.1747  -25.2430   21.2381 H   0  0  0  0  0  0
  -27.4572  -25.0920   21.0102 H   0  0  0  0  0  0
  -30.1714  -23.2382   20.3381 H   0  0  0  0  0  0
  -29.7225  -22.6590   18.7443 H   0  0  0  0  0  0
  1 25  1  0  0  0
  1 30  2  0  0  0
  1 82  1  0  0  0
  2  3  1  0  0  0
  2 25  1  0  0  0
  2 85  1  0  0  0
  2 86  1  0  0  0
  3  4  1  0  0  0
  3 87  1  0  0  0
  3 88  1  0  0  0
  4  5  1  0  0  0
  4 89  1  0  0  0
  4 90  1  0  0  0
  5  6  1  0  0  0
  5 26  1  0  0  0
  5 91  1  0  0  0
  6 25  1  0  0  0
  6 92  1  0  0  0
  6 93  1  0  0  0
  7  8  2  0  0  0
  7 26  1  0  0  0
  7 29  1  0  0  0
  8  9  1  0  0  0
  8 22  1  0  0  0
  9 10  1  0  0  0
  9 27  2  0  0  0
 10 11  2  0  0  0
 10 15  1  0  0  0
 11 12  1  0  0  0
 11 94  1  0  0  0
 12 13  2  0  0  0
 12 95  1  0  0  0
 13 14  1  0  0  0
 13 31  1  0  0  0
 14 15  2  0  0  0
 14 96  1  0  0  0
 15 97  1  0  0  0
 16 17  2  0  0  0
 16 21  1  0  0  0
 16 31  1  0  0  0
 17 18  1  0  0  0
 17 98  1  0  0  0
 18 19  2  0  0  0
 18 99  1  0  0  0
 19 20  1  0  0  0
 19 24  1  0  0  0
 20 21  2  0  0  0
 20100  1  0  0  0
 21 23  1  0  0  0
 22 28  1  0  0  0
 22 32  2  0  0  0
 26 27  1  0  0  0
 28101  1  0  0  0
 28102  1  0  0  0
 29103  1  0  0  0
 29104  1  0  0  0
 33 34  1  0  0  0
 33 66  1  0  0  0
 33 70  2  0  0  0
 34 36  1  0  0  0
 34 59  1  0  0  0
 34105  1  0  0  0
 35 44  2  0  0  0
 35 45  1  0  0  0
 35 68  1  0  0  0
 36 56  1  0  0  0
 36106  1  0  0  0
 37 39  1  0  0  0
 37 47  1  0  0  0
 37 66  1  0  0  0
 37107  1  0  0  0
 38 43  2  0  0  0
 38 46  1  0  0  0
 38 47  1  0  0  0
 39 64  1  0  0  0
 39 67  2  0  0  0
 40 52  1  0  0  0
 40 53  2  0  0  0
 40 58  1  0  0  0
 41108  1  0  0  0
 41109  1  0  0  0
 41110  1  0  0  0
 41 48  1  0  0  0
 42 43  1  0  0  0
 42 66  1  0  0  0
 42111  1  0  0  0
 42112  1  0  0  0
 43 44  1  0  0  0
 44113  1  0  0  0
 45 46  2  0  0  0
 45114  1  0  0  0
 46115  1  0  0  0
 47116  1  0  0  0
 47117  1  0  0  0
 48 56  1  0  0  0
 48 65  1  0  0  0
 48118  1  0  0  0
 49 50  1  0  0  0
 49 53  1  0  0  0
 49 64  1  0  0  0
 49119  1  0  0  0
 50 51  1  0  0  0
 50120  1  0  0  0
 50121  1  0  0  0
 51 52  1  0  0  0
 51122  1  0  0  0
 51123  1  0  0  0
 52124  1  0  0  0
 52125  1  0  0  0
 53 54  1  0  0  0
 54 55  2  0  0  0
 54126  1  0  0  0
 55 57  1  0  0  0
 55127  1  0  0  0
 56 69  2  0  0  0
 57 58  2  0  0  0
 57128  1  0  0  0
 58129  1  0  0  0
 59 60  1  0  0  0
 59 61  1  0  0  0
 59 62  1  0  0  0
 60130  1  0  0  0
 60131  1  0  0  0
 60132  1  0  0  0
 61133  1  0  0  0
 61134  1  0  0  0
 61135  1  0  0  0
 62136  1  0  0  0
 62137  1  0  0  0
 62138  1  0  0  0
 63 65  1  0  0  0
 63139  1  0  0  0
 63140  1  0  0  0
 63141  1  0  0  0
 64142  1  0  0  0
 65143  1  0  0  0
 68 80  1  0  0  0
 71 72  2  0  0  0
 71 74  1  0  0  0
 71144  1  0  0  0
 72 75  1  0  0  0
 72145  1  0  0  0
 73 74  2  0  0  0
 73 76  1  0  0  0
 73146  1  0  0  0
 74 78  1  0  0  0
 75 76  2  0  0  0
 75 83  1  0  0  0
 76 84  1  0  0  0
 77 82  1  0  0  0
 77147  1  0  0  0
 77148  1  0  0  0
 77149  1  0  0  0
 78 82  1  0  0  0
 78150  1  0  0  0
 78151  1  0  0  0
 79 80  1  0  0  0
 79 81  1  0  0  0
 79152  1  0  0  0
 79153  1  0  0  0
 80154  1  0  0  0
 80155  1  0  0  0
 81 83  1  0  0  0
 81156  1  0  0  0
 81157  1  0  0  0
M  ISO  4   1 100  68 101  80 101  82 100
M  END
> <chiral flag>
0

> <version>
0

> <s_m_source_file>
/data/baiqing/PycharmProjects/Reinvent-master-3.2/result/LINK_invent/BTK/process_docking_weight1_custom_product_contain_oxygen_bond_distance_aromatic_linkinvent_7_9_3/rearranged_h_0020.sdf

> <i_m_source_file_index>
45

> <r_mmod_Potential_Energy-OPLS-2005>
127.763984680176

> <r_mmod_Stretch_Energy-OPLS-2005>
37.9584197998047

> <r_mmod_Bend_Energy-OPLS-2005>
103.055686950684

> <r_mmod_Torsional_Energy-OPLS-2005>
302.603088378906

> <r_mmod_Improper_Torsional_Energy-OPLS-2005>
11.7451877593994

> <r_mmod_Van_der_Waal_Energy-OPLS-2005>
151.135299682617

> <r_mmod_Electrostatic_Energy-OPLS-2005>
-297.491760253906

> <r_mmod_Solvation_Energy-OPLS-2005>
-194.516677856445

> <b_mmod_Minimization_Converged-OPLS-2005>
0

> <r_mmod_RMS_Derivative-OPLS-2005>
1.17501842975616

$$$$
46
                    3D
 Structure written by MMmdl.
163172  0  0  1  0            999 V2000
  -30.6063  -14.7342   20.4667 C   0  0  0  0  0  0
  -30.4347  -12.4516   19.4620 C   0  0  0  0  0  0
  -29.5081  -12.5055   18.2277 C   0  0  0  0  0  0
  -28.0342  -12.3292   18.6442 C   0  0  0  0  0  0
  -27.6398  -13.2281   19.8465 C   0  0  2  0  0  0
  -28.6862  -13.1564   20.9794 C   0  0  0  0  0  0
  -25.2494  -13.8176   20.5685 C   0  0  0  0  0  0
  -24.1793  -13.0425   20.9216 C   0  0  0  0  0  0
  -24.6385  -11.6906   20.8752 C   0  0  0  0  0  0
  -23.9062  -10.4285   21.0412 C   0  0  0  0  0  0
  -24.3615   -9.4200   21.9187 C   0  0  0  0  0  0
  -23.6289   -8.2236   22.0754 C   0  0  0  0  0  0
  -22.4271   -8.0277   21.3544 C   0  0  0  0  0  0
  -21.9907   -9.0251   20.4647 C   0  0  0  0  0  0
  -22.7237  -10.2128   20.3057 C   0  0  0  0  0  0
  -21.6851   -6.0732   22.5277 C   0  0  0  0  0  0
  -21.4015   -6.5636   23.8211 C   0  0  0  0  0  0
  -21.3659   -5.6789   24.9173 C   0  0  0  0  0  0
  -21.6044   -4.3051   24.7224 C   0  0  0  0  0  0
  -21.8819   -3.8143   23.4346 C   0  0  0  0  0  0
  -21.9192   -4.6960   22.3401 C   0  0  0  0  0  0
  -22.7814  -13.5211   21.1873 C   0  0  0  0  0  0
  -22.1661   -4.2146   21.0979 F   0  0  0  0  0  0
  -21.5629   -3.4535   25.7737 F   0  0  0  0  0  0
  -29.9848  -13.5092   20.3930 N   0  0  0  0  0  0
  -26.2921  -12.9383   20.3257 N   0  0  0  0  0  0
  -25.9311  -11.6530   20.5738 N   0  0  0  0  0  0
  -22.0457  -12.8207   22.0429 N   0  0  0  0  0  0
  -25.4146  -15.1898   20.4077 N   0  0  0  0  0  0
  -31.8045  -14.8300   20.1833 O   0  0  0  0  0  0
  -21.6636   -6.8874   21.4239 O   0  0  0  0  0  0
  -22.3502  -14.5517   20.6715 O   0  0  0  0  0  0
  -24.6291  -31.8554   23.1972 C   0  0  0  0  0  0
  -25.9122  -32.4757   23.8319 C   0  0  1  0  0  0
  -27.2266  -27.2781   20.1409 C   0  0  0  0  0  0
  -25.5921  -33.8557   24.2249 N   0  0  0  0  0  0
  -23.4253  -30.4748   21.5405 C   0  0  2  0  0  0
  -24.8731  -28.9123   20.1192 C   0  0  0  0  0  0
  -22.7486  -29.4602   22.4930 C   0  0  0  0  0  0
  -18.0287  -28.1386   22.8486 C   0  0  0  0  0  0
  -24.1488  -36.7285   23.2641 C   0  0  0  0  0  0
  -25.9671  -30.7755   21.3707 C   0  0  0  0  0  0
  -26.0425  -29.3953   20.7203 C   0  0  0  0  0  0
  -27.2248  -28.5929   20.7117 C   0  0  0  0  0  0
  -26.0351  -26.8438   19.5268 C   0  0  0  0  0  0
  -24.8727  -27.6440   19.5121 C   0  0  0  0  0  0
  -23.6434  -29.7995   20.1598 C   0  0  0  0  0  0
  -25.4116  -36.3071   24.0326 C   0  0  1  0  0  0
  -20.5887  -28.3692   23.1280 C   0  0  2  0  0  0
  -20.6774  -26.9413   22.5412 C   0  0  0  0  0  0
  -19.5752  -26.6383   21.5213 C   0  0  0  0  0  0
  -18.1931  -26.7927   22.1623 C   0  0  0  0  0  0
  -19.1540  -28.8856   23.2876 C   0  0  0  0  0  0
  -18.9462  -30.1457   23.8894 C   0  0  0  0  0  0
  -17.6462  -30.6588   24.0562 C   0  0  0  0  0  0
  -25.9054  -34.9441   23.5093 C   0  0  0  0  0  0
  -16.5353  -29.9086   23.6330 C   0  0  0  0  0  0
  -16.7274  -28.6503   23.0353 C   0  0  0  0  0  0
  -26.4497  -31.6583   25.0708 C   0  0  0  0  0  0
  -25.3724  -31.3731   26.1432 C   0  0  0  0  0  0
  -27.0351  -30.3005   24.6184 C   0  0  0  0  0  0
  -27.6047  -32.4329   25.7484 C   0  0  0  0  0  0
  -27.5578  -37.1799   24.8465 C   0  0  0  0  0  0
  -21.4197  -29.3042   22.3673 N   0  0  0  0  0  0
  -26.4291  -37.3769   23.9407 N   0  0  0  0  0  0
  -24.6929  -31.0532   22.0933 N   0  0  0  0  0  0
  -23.4193  -28.8152   23.3032 O   0  0  0  0  0  0
  -28.3552  -26.4403   20.1190 O   0  0  0  0  0  0
  -26.5630  -34.8917   22.4665 O   0  0  0  0  0  0
  -23.5447  -32.1366   23.7281 O   0  0  0  0  0  0
  -31.6296  -18.9738   21.7649 C   0  0  0  0  0  0
  -30.7856  -20.0371   21.3907 C   0  0  0  0  0  0
  -31.3113  -17.6369   21.4603 C   0  0  0  0  0  0
  -29.5935  -19.8196   20.6642 C   0  0  0  0  0  0
  -29.2660  -18.4191   20.3836 C   0  0  0  0  0  0
  -30.1230  -17.2991   20.7768 C   0  0  0  0  0  0
  -29.9679  -23.0286   17.9572 C   0  0  0  0  0  0
  -28.9809  -24.1212   18.3422 C   0  0  0  0  0  0
  -30.4830  -22.5445   19.3080 C   0  0  0  0  0  0
  -28.4267  -23.7186   19.7276 C   0  0  2  0  0  0
  -27.9699  -18.1183   19.6472 C   0  0  0  0  0  0
  -28.6967  -21.0964   20.2661 C   0  0  0  0  0  0
  -28.3070  -25.0413   20.6615 C   0  0  0  0  0  0
  -29.8002  -15.8591   20.5941 N   0  0  0  0  0  0
  -29.3004  -22.5206   20.2033 N   0  3  1  0  0  0
  -31.4743  -12.5843   19.1572 H   0  0  0  0  0  0
  -30.3853  -11.4739   19.9436 H   0  0  0  0  0  0
  -29.7894  -11.7343   17.5096 H   0  0  0  0  0  0
  -29.6328  -13.4605   17.7147 H   0  0  0  0  0  0
  -27.8914  -11.2805   18.9074 H   0  0  0  0  0  0
  -27.3759  -12.5218   17.7963 H   0  0  0  0  0  0
  -27.6329  -14.2495   19.4659 H   0  0  0  0  0  0
  -28.7214  -12.1568   21.4149 H   0  0  0  0  0  0
  -28.4246  -13.8354   21.7929 H   0  0  0  0  0  0
  -25.2763   -9.5674   22.4758 H   0  0  0  0  0  0
  -23.9999   -7.4625   22.7470 H   0  0  0  0  0  0
  -21.0839   -8.8770   19.8951 H   0  0  0  0  0  0
  -22.3700  -10.9667   19.6164 H   0  0  0  0  0  0
  -21.2010   -7.6144   23.9712 H   0  0  0  0  0  0
  -21.1481   -6.0520   25.9075 H   0  0  0  0  0  0
  -22.0600   -2.7606   23.2845 H   0  0  0  0  0  0
  -22.4074  -11.9876   22.4833 H   0  0  0  0  0  0
  -21.1071  -13.1229   22.2624 H   0  0  0  0  0  0
  -24.6378  -15.8341   20.5084 H   0  0  0  0  0  0
  -26.2433  -15.6269   20.0310 H   0  0  0  0  0  0
  -26.7190  -32.5418   23.1064 H   0  0  0  0  0  0
  -25.0062  -33.9690   25.0391 H   0  0  0  0  0  0
  -22.7212  -31.2958   21.3908 H   0  0  0  0  0  0
  -23.3751  -35.9618   23.3302 H   0  0  0  0  0  0
  -24.3577  -36.8911   22.2056 H   0  0  0  0  0  0
  -23.7243  -37.6485   23.6669 H   0  0  0  0  0  0
  -26.0989  -31.5341   20.5978 H   0  0  0  0  0  0
  -26.8468  -30.8300   22.0007 H   0  0  0  0  0  0
  -28.1287  -28.9659   21.1728 H   0  0  0  0  0  0
  -26.0011  -25.8721   19.0546 H   0  0  0  0  0  0
  -23.9756  -27.2690   19.0388 H   0  0  0  0  0  0
  -23.7686  -30.5707   19.3989 H   0  0  0  0  0  0
  -22.7621  -29.2309   19.8575 H   0  0  0  0  0  0
  -25.1300  -36.1916   25.0819 H   0  0  0  0  0  0
  -20.9978  -28.3269   24.1401 H   0  0  0  0  0  0
  -20.5674  -26.2303   23.3614 H   0  0  0  0  0  0
  -21.6644  -26.7440   22.1209 H   0  0  0  0  0  0
  -19.6914  -25.6292   21.1247 H   0  0  0  0  0  0
  -19.6688  -27.3189   20.6739 H   0  0  0  0  0  0
  -17.4201  -26.6674   21.4025 H   0  0  0  0  0  0
  -18.0330  -26.0070   22.9020 H   0  0  0  0  0  0
  -19.7939  -30.7273   24.2263 H   0  0  0  0  0  0
  -17.5017  -31.6269   24.5163 H   0  0  0  0  0  0
  -15.5354  -30.2988   23.7656 H   0  0  0  0  0  0
  -15.8673  -28.0820   22.7073 H   0  0  0  0  0  0
  -24.5890  -30.7092   25.7758 H   0  0  0  0  0  0
  -24.8926  -32.2903   26.4858 H   0  0  0  0  0  0
  -25.8039  -30.8902   27.0209 H   0  0  0  0  0  0
  -26.2934  -29.6744   24.1212 H   0  0  0  0  0  0
  -27.4046  -29.7274   25.4698 H   0  0  0  0  0  0
  -27.8799  -30.4287   23.9413 H   0  0  0  0  0  0
  -27.2646  -33.3627   26.2054 H   0  0  0  0  0  0
  -28.3860  -32.6896   25.0319 H   0  0  0  0  0  0
  -28.0715  -31.8465   26.5408 H   0  0  0  0  0  0
  -28.2598  -38.0094   24.7510 H   0  0  0  0  0  0
  -28.1071  -36.2626   24.6295 H   0  0  0  0  0  0
  -27.2296  -37.1454   25.8868 H   0  0  0  0  0  0
  -20.9383  -29.8756   21.6869 H   0  0  0  0  0  0
  -26.0169  -38.2844   24.1403 H   0  0  0  0  0  0
  -32.5385  -19.1871   22.3104 H   0  0  0  0  0  0
  -31.0837  -21.0369   21.6720 H   0  0  0  0  0  0
  -31.9895  -16.8656   21.7966 H   0  0  0  0  0  0
  -30.7660  -23.3882   17.3066 H   0  0  0  0  0  0
  -29.4535  -22.2185   17.4385 H   0  0  0  0  0  0
  -28.1920  -24.2505   17.5999 H   0  0  0  0  0  0
  -29.5231  -25.0662   18.3990 H   0  0  0  0  0  0
  -31.2033  -23.2621   19.7040 H   0  0  0  0  0  0
  -31.0048  -21.5927   19.2145 H   0  0  0  0  0  0
  -27.4154  -23.3380   19.5790 H   0  0  0  0  0  0
  -27.1599  -18.7581   19.9975 H   0  0  0  0  0  0
  -27.6436  -17.0903   19.7916 H   0  0  0  0  0  0
  -28.0986  -18.2811   18.5768 H   0  0  0  0  0  0
  -27.8581  -21.1282   20.9621 H   0  0  0  0  0  0
  -28.2583  -20.8926   19.2890 H   0  0  0  0  0  0
  -29.1464  -25.0066   21.3560 H   0  0  0  0  0  0
  -27.4295  -24.9394   21.3015 H   0  0  0  0  0  0
  -28.8163  -15.6441   20.5861 H   0  0  0  0  0  0
  -29.6190  -22.7158   21.1414 H   0  0  0  0  0  0
  1 25  1  0  0  0
  1 30  2  0  0  0
  1 84  1  0  0  0
  2  3  1  0  0  0
  2 25  1  0  0  0
  2 86  1  0  0  0
  2 87  1  0  0  0
  3  4  1  0  0  0
  3 88  1  0  0  0
  3 89  1  0  0  0
  4  5  1  0  0  0
  4 90  1  0  0  0
  4 91  1  0  0  0
  5  6  1  0  0  0
  5 26  1  0  0  0
  5 92  1  0  0  0
  6 25  1  0  0  0
  6 93  1  0  0  0
  6 94  1  0  0  0
  7  8  2  0  0  0
  7 26  1  0  0  0
  7 29  1  0  0  0
  8  9  1  0  0  0
  8 22  1  0  0  0
  9 10  1  0  0  0
  9 27  2  0  0  0
 10 11  2  0  0  0
 10 15  1  0  0  0
 11 12  1  0  0  0
 11 95  1  0  0  0
 12 13  2  0  0  0
 12 96  1  0  0  0
 13 14  1  0  0  0
 13 31  1  0  0  0
 14 15  2  0  0  0
 14 97  1  0  0  0
 15 98  1  0  0  0
 16 17  2  0  0  0
 16 21  1  0  0  0
 16 31  1  0  0  0
 17 18  1  0  0  0
 17 99  1  0  0  0
 18 19  2  0  0  0
 18100  1  0  0  0
 19 20  1  0  0  0
 19 24  1  0  0  0
 20 21  2  0  0  0
 20101  1  0  0  0
 21 23  1  0  0  0
 22 28  1  0  0  0
 22 32  2  0  0  0
 26 27  1  0  0  0
 28102  1  0  0  0
 28103  1  0  0  0
 29104  1  0  0  0
 29105  1  0  0  0
 33 34  1  0  0  0
 33 66  1  0  0  0
 33 70  2  0  0  0
 34 36  1  0  0  0
 34 59  1  0  0  0
 34106  1  0  0  0
 35 44  2  0  0  0
 35 45  1  0  0  0
 35 68  1  0  0  0
 36 56  1  0  0  0
 36107  1  0  0  0
 37 39  1  0  0  0
 37 47  1  0  0  0
 37 66  1  0  0  0
 37108  1  0  0  0
 38 43  2  0  0  0
 38 46  1  0  0  0
 38 47  1  0  0  0
 39 64  1  0  0  0
 39 67  2  0  0  0
 40 52  1  0  0  0
 40 53  2  0  0  0
 40 58  1  0  0  0
 41109  1  0  0  0
 41110  1  0  0  0
 41111  1  0  0  0
 41 48  1  0  0  0
 42 43  1  0  0  0
 42 66  1  0  0  0
 42112  1  0  0  0
 42113  1  0  0  0
 43 44  1  0  0  0
 44114  1  0  0  0
 45 46  2  0  0  0
 45115  1  0  0  0
 46116  1  0  0  0
 47117  1  0  0  0
 47118  1  0  0  0
 48 56  1  0  0  0
 48 65  1  0  0  0
 48119  1  0  0  0
 49 50  1  0  0  0
 49 53  1  0  0  0
 49 64  1  0  0  0
 49120  1  0  0  0
 50 51  1  0  0  0
 50121  1  0  0  0
 50122  1  0  0  0
 51 52  1  0  0  0
 51123  1  0  0  0
 51124  1  0  0  0
 52125  1  0  0  0
 52126  1  0  0  0
 53 54  1  0  0  0
 54 55  2  0  0  0
 54127  1  0  0  0
 55 57  1  0  0  0
 55128  1  0  0  0
 56 69  2  0  0  0
 57 58  2  0  0  0
 57129  1  0  0  0
 58130  1  0  0  0
 59 60  1  0  0  0
 59 61  1  0  0  0
 59 62  1  0  0  0
 60131  1  0  0  0
 60132  1  0  0  0
 60133  1  0  0  0
 61134  1  0  0  0
 61135  1  0  0  0
 61136  1  0  0  0
 62137  1  0  0  0
 62138  1  0  0  0
 62139  1  0  0  0
 63 65  1  0  0  0
 63140  1  0  0  0
 63141  1  0  0  0
 63142  1  0  0  0
 64143  1  0  0  0
 65144  1  0  0  0
 68 83  1  0  0  0
 71 72  2  0  0  0
 71 73  1  0  0  0
 71145  1  0  0  0
 72 74  1  0  0  0
 72146  1  0  0  0
 73 76  2  0  0  0
 73147  1  0  0  0
 74 75  2  0  0  0
 74 82  1  0  0  0
 75 76  1  0  0  0
 75 81  1  0  0  0
 76 84  1  0  0  0
 77 78  1  0  0  0
 77 79  1  0  0  0
 77148  1  0  0  0
 77149  1  0  0  0
 78 80  1  0  0  0
 78150  1  0  0  0
 78151  1  0  0  0
 79 85  1  0  0  0
 79152  1  0  0  0
 79153  1  0  0  0
 80 83  1  0  0  0
 80 85  1  0  0  0
 80154  1  0  0  0
 81155  1  0  0  0
 81156  1  0  0  0
 81157  1  0  0  0
 82158  1  0  0  0
 82159  1  0  0  0
 82 85  1  0  0  0
 83160  1  0  0  0
 83161  1  0  0  0
 84162  1  0  0  0
 85163  1  0  0  0
M  CHG  1  85   1
M  ISO  4   1 100  68 101  83 101  84 100
M  END
> <chiral flag>
0

> <version>
0

> <s_m_source_file>
/data/baiqing/PycharmProjects/Reinvent-master-3.2/result/LINK_invent/BTK/process_docking_weight1_custom_product_contain_oxygen_bond_distance_aromatic_linkinvent_7_9_3/rearranged_h_0020.sdf

> <i_m_source_file_index>
46

> <r_mmod_Potential_Energy-OPLS-2005>
168.834350585938

> <r_mmod_Stretch_Energy-OPLS-2005>
129.370910644531

> <r_mmod_Bend_Energy-OPLS-2005>
186.814849853516

> <r_mmod_Torsional_Energy-OPLS-2005>
312.731750488281

> <r_mmod_Improper_Torsional_Energy-OPLS-2005>
6.68568658828735

> <r_mmod_Van_der_Waal_Energy-OPLS-2005>
131.968536376953

> <r_mmod_Electrostatic_Energy-OPLS-2005>
-242.380493164062

> <r_mmod_Solvation_Energy-OPLS-2005>
-431.279663085938

> <b_mmod_Minimization_Converged-OPLS-2005>
0

> <r_mmod_RMS_Derivative-OPLS-2005>
0.418024390935898

$$$$
47
                    3D
 Structure written by MMmdl.
153161  0  0  1  0            999 V2000
  -30.6312  -14.5931   20.5344 C   0  0  0  0  0  0
  -30.4420  -12.3673   19.4346 C   0  0  0  0  0  0
  -29.5080  -12.5208   18.2123 C   0  0  0  0  0  0
  -28.0267  -12.3721   18.6192 C   0  0  0  0  0  0
  -27.6612  -13.2135   19.8715 C   0  0  2  0  0  0
  -28.7089  -13.0094   20.9909 C   0  0  0  0  0  0
  -25.2578  -13.8164   20.5653 C   0  0  0  0  0  0
  -24.1851  -13.0438   20.9191 C   0  0  0  0  0  0
  -24.6417  -11.6903   20.8734 C   0  0  0  0  0  0
  -23.9075  -10.4296   21.0409 C   0  0  0  0  0  0
  -24.3617   -9.4204   21.9186 C   0  0  0  0  0  0
  -23.6300   -8.2236   22.0747 C   0  0  0  0  0  0
  -22.4275   -8.0282   21.3544 C   0  0  0  0  0  0
  -21.9915   -9.0250   20.4642 C   0  0  0  0  0  0
  -22.7246  -10.2139   20.3056 C   0  0  0  0  0  0
  -21.6851   -6.0739   22.5287 C   0  0  0  0  0  0
  -21.4009   -6.5642   23.8218 C   0  0  0  0  0  0
  -21.3665   -5.6788   24.9183 C   0  0  0  0  0  0
  -21.6038   -4.3052   24.7232 C   0  0  0  0  0  0
  -21.8822   -3.8150   23.4350 C   0  0  0  0  0  0
  -21.9191   -4.6963   22.3404 C   0  0  0  0  0  0
  -22.7868  -13.5231   21.1850 C   0  0  0  0  0  0
  -22.1659   -4.2150   21.0985 F   0  0  0  0  0  0
  -21.5632   -3.4530   25.7741 F   0  0  0  0  0  0
  -30.0316  -13.3637   20.4428 N   0  0  0  0  0  0
  -26.3027  -12.9342   20.3341 N   0  0  0  0  0  0
  -25.9343  -11.6497   20.5757 N   0  0  0  0  0  0
  -22.0499  -12.8216   22.0404 N   0  0  0  0  0  0
  -25.4272  -15.1885   20.4009 N   0  0  0  0  0  0
  -31.7636  -14.8033   20.0877 O   0  0  0  0  0  0
  -21.6650   -6.8876   21.4243 O   0  0  0  0  0  0
  -22.3542  -14.5530   20.6706 O   0  0  0  0  0  0
  -24.6175  -31.8634   23.1999 C   0  0  0  0  0  0
  -25.9041  -32.4797   23.8329 C   0  0  1  0  0  0
  -27.2509  -27.3636   20.1271 C   0  0  0  0  0  0
  -25.5878  -33.8584   24.2293 N   0  0  0  0  0  0
  -23.4119  -30.4825   21.5407 C   0  0  2  0  0  0
  -24.8627  -28.9267   20.1179 C   0  0  0  0  0  0
  -22.7422  -29.4661   22.4947 C   0  0  0  0  0  0
  -18.0304  -28.1382   22.8532 C   0  0  0  0  0  0
  -24.1477  -36.7282   23.2648 C   0  0  0  0  0  0
  -25.9422  -30.8097   21.3563 C   0  0  0  0  0  0
  -26.0230  -29.4298   20.7205 C   0  0  0  0  0  0
  -27.2183  -28.6619   20.7117 C   0  0  0  0  0  0
  -26.0695  -26.8895   19.5148 C   0  0  0  0  0  0
  -24.8863  -27.6610   19.5041 C   0  0  0  0  0  0
  -23.6243  -29.7998   20.1597 C   0  0  0  0  0  0
  -25.4101  -36.3089   24.0357 C   0  0  1  0  0  0
  -20.5899  -28.3670   23.1327 C   0  0  2  0  0  0
  -20.6780  -26.9396   22.5432 C   0  0  0  0  0  0
  -19.5762  -26.6389   21.5233 C   0  0  0  0  0  0
  -18.1948  -26.7944   22.1636 C   0  0  0  0  0  0
  -19.1559  -28.8850   23.2930 C   0  0  0  0  0  0
  -18.9471  -30.1464   23.8924 C   0  0  0  0  0  0
  -17.6473  -30.6592   24.0590 C   0  0  0  0  0  0
  -25.9035  -34.9469   23.5127 C   0  0  0  0  0  0
  -16.5370  -29.9096   23.6327 C   0  0  0  0  0  0
  -16.7301  -28.6511   23.0350 C   0  0  0  0  0  0
  -26.4457  -31.6575   25.0664 C   0  0  0  0  0  0
  -25.3703  -31.3710   26.1399 C   0  0  0  0  0  0
  -27.0250  -30.3026   24.5993 C   0  0  0  0  0  0
  -27.6054  -32.4259   25.7415 C   0  0  0  0  0  0
  -27.5582  -37.1800   24.8484 C   0  0  0  0  0  0
  -21.4151  -29.3039   22.3692 N   0  0  0  0  0  0
  -26.4295  -37.3778   23.9427 N   0  0  0  0  0  0
  -24.6761  -31.0683   22.0904 N   0  0  0  0  0  0
  -23.4169  -28.8224   23.3030 O   0  0  0  0  0  0
  -28.4357  -26.6317   20.0770 O   0  0  0  0  0  0
  -26.5606  -34.8941   22.4695 O   0  0  0  0  0  0
  -23.5362  -32.1383   23.7407 O   0  0  0  0  0  0
  -28.5418  -17.6326   21.2788 C   0  0  0  0  0  0
  -30.8042  -17.8924   20.4789 C   0  0  0  0  0  0
  -28.3561  -19.0403   21.2600 C   0  0  0  0  0  0
  -30.6244  -19.3145   20.4770 C   0  0  0  0  0  0
  -29.7642  -17.0196   20.9108 C   0  0  0  0  0  0
  -29.4010  -19.9156   20.8870 C   0  0  0  0  0  0
  -28.1872  -24.0979   19.5058 C   0  0  0  0  0  0
  -28.5219  -25.2383   20.5327 C   0  0  0  0  0  0
  -28.8934  -22.6658   19.5127 C   0  0  0  0  0  0
  -29.8337  -15.5716   21.0497 N   0  0  0  0  0  0
  -27.9704  -21.9665   21.9420 O   0  0  0  0  0  0
  -30.4492  -22.2773   21.6687 O   0  0  0  0  0  0
  -29.1816  -21.7578   21.1274 S   0  0  0  0  0  0
  -31.4836  -12.4937   19.1351 H   0  0  0  0  0  0
  -30.3713  -11.3579   19.8466 H   0  0  0  0  0  0
  -29.7640  -11.7854   17.4487 H   0  0  0  0  0  0
  -29.6640  -13.4986   17.7526 H   0  0  0  0  0  0
  -27.8442  -11.3158   18.8200 H   0  0  0  0  0  0
  -27.3794  -12.6400   17.7831 H   0  0  0  0  0  0
  -27.6966  -14.2600   19.5657 H   0  0  0  0  0  0
  -28.7082  -11.9674   21.3175 H   0  0  0  0  0  0
  -28.4553  -13.5897   21.8780 H   0  0  0  0  0  0
  -25.2765   -9.5682   22.4753 H   0  0  0  0  0  0
  -24.0012   -7.4626   22.7457 H   0  0  0  0  0  0
  -21.0843   -8.8774   19.8943 H   0  0  0  0  0  0
  -22.3705  -10.9674   19.6154 H   0  0  0  0  0  0
  -21.1997   -7.6142   23.9724 H   0  0  0  0  0  0
  -21.1485   -6.0521   25.9091 H   0  0  0  0  0  0
  -22.0594   -2.7604   23.2856 H   0  0  0  0  0  0
  -22.4113  -11.9879   22.4799 H   0  0  0  0  0  0
  -21.1110  -13.1235   22.2594 H   0  0  0  0  0  0
  -24.6450  -15.8318   20.4676 H   0  0  0  0  0  0
  -26.2576  -15.6152   20.0100 H   0  0  0  0  0  0
  -26.7101  -32.5502   23.1083 H   0  0  0  0  0  0
  -25.0011  -33.9716   25.0435 H   0  0  0  0  0  0
  -22.7081  -31.3044   21.3950 H   0  0  0  0  0  0
  -23.3751  -35.9597   23.3307 H   0  0  0  0  0  0
  -24.3598  -36.8883   22.2060 H   0  0  0  0  0  0
  -23.7208  -37.6488   23.6647 H   0  0  0  0  0  0
  -26.0490  -31.5605   20.5721 H   0  0  0  0  0  0
  -26.8330  -30.8808   21.9678 H   0  0  0  0  0  0
  -28.1148  -29.0594   21.1675 H   0  0  0  0  0  0
  -26.0655  -25.9308   19.0197 H   0  0  0  0  0  0
  -24.0002  -27.2814   19.0117 H   0  0  0  0  0  0
  -23.7297  -30.5677   19.3916 H   0  0  0  0  0  0
  -22.7468  -29.2155   19.8735 H   0  0  0  0  0  0
  -25.1280  -36.1935   25.0853 H   0  0  0  0  0  0
  -21.0051  -28.3231   24.1424 H   0  0  0  0  0  0
  -20.5667  -26.2276   23.3620 H   0  0  0  0  0  0
  -21.6648  -26.7408   22.1229 H   0  0  0  0  0  0
  -19.6893  -25.6301   21.1235 H   0  0  0  0  0  0
  -19.6694  -27.3228   20.6778 H   0  0  0  0  0  0
  -17.4209  -26.6749   21.4018 H   0  0  0  0  0  0
  -18.0328  -26.0086   22.9028 H   0  0  0  0  0  0
  -19.7949  -30.7322   24.2250 H   0  0  0  0  0  0
  -17.5019  -31.6270   24.5196 H   0  0  0  0  0  0
  -15.5365  -30.3004   23.7634 H   0  0  0  0  0  0
  -15.8716  -28.0853   22.7002 H   0  0  0  0  0  0
  -24.5880  -30.7066   25.7738 H   0  0  0  0  0  0
  -24.8889  -32.2876   26.4816 H   0  0  0  0  0  0
  -25.8034  -30.8887   27.0170 H   0  0  0  0  0  0
  -26.2763  -29.6820   24.1063 H   0  0  0  0  0  0
  -27.4081  -29.7229   25.4399 H   0  0  0  0  0  0
  -27.8572  -30.4388   23.9085 H   0  0  0  0  0  0
  -27.2732  -33.3610   26.1931 H   0  0  0  0  0  0
  -28.3884  -32.6698   25.0227 H   0  0  0  0  0  0
  -28.0652  -31.8371   26.5355 H   0  0  0  0  0  0
  -28.2610  -38.0086   24.7523 H   0  0  0  0  0  0
  -28.1060  -36.2626   24.6297 H   0  0  0  0  0  0
  -27.2326  -37.1442   25.8897 H   0  0  0  0  0  0
  -20.9296  -29.8743   21.6913 H   0  0  0  0  0  0
  -26.0172  -38.2859   24.1422 H   0  0  0  0  0  0
  -27.7183  -17.0168   21.6117 H   0  0  0  0  0  0
  -31.7605  -17.4837   20.1820 H   0  0  0  0  0  0
  -27.4159  -19.4540   21.5948 H   0  0  0  0  0  0
  -31.4499  -19.9543   20.2018 H   0  0  0  0  0  0
  -28.3862  -24.5140   18.5184 H   0  0  0  0  0  0
  -27.1083  -23.9459   19.5254 H   0  0  0  0  0  0
  -29.5632  -25.1095   20.8306 H   0  0  0  0  0  0
  -27.9434  -25.1127   21.4488 H   0  0  0  0  0  0
  -29.8655  -22.7229   19.0270 H   0  0  0  0  0  0
  -28.3006  -21.9958   18.8913 H   0  0  0  0  0  0
  -29.0055  -15.1669   21.4587 H   0  0  0  0  0  0
  1 25  1  0  0  0
  1 30  2  0  0  0
  1 80  1  0  0  0
  2  3  1  0  0  0
  2 25  1  0  0  0
  2 84  1  0  0  0
  2 85  1  0  0  0
  3  4  1  0  0  0
  3 86  1  0  0  0
  3 87  1  0  0  0
  4  5  1  0  0  0
  4 88  1  0  0  0
  4 89  1  0  0  0
  5  6  1  0  0  0
  5 26  1  0  0  0
  5 90  1  0  0  0
  6 25  1  0  0  0
  6 91  1  0  0  0
  6 92  1  0  0  0
  7  8  2  0  0  0
  7 26  1  0  0  0
  7 29  1  0  0  0
  8  9  1  0  0  0
  8 22  1  0  0  0
  9 10  1  0  0  0
  9 27  2  0  0  0
 10 11  2  0  0  0
 10 15  1  0  0  0
 11 12  1  0  0  0
 11 93  1  0  0  0
 12 13  2  0  0  0
 12 94  1  0  0  0
 13 14  1  0  0  0
 13 31  1  0  0  0
 14 15  2  0  0  0
 14 95  1  0  0  0
 15 96  1  0  0  0
 16 17  2  0  0  0
 16 21  1  0  0  0
 16 31  1  0  0  0
 17 18  1  0  0  0
 17 97  1  0  0  0
 18 19  2  0  0  0
 18 98  1  0  0  0
 19 20  1  0  0  0
 19 24  1  0  0  0
 20 21  2  0  0  0
 20 99  1  0  0  0
 21 23  1  0  0  0
 22 28  1  0  0  0
 22 32  2  0  0  0
 26 27  1  0  0  0
 28100  1  0  0  0
 28101  1  0  0  0
 29102  1  0  0  0
 29103  1  0  0  0
 33 34  1  0  0  0
 33 66  1  0  0  0
 33 70  2  0  0  0
 34 36  1  0  0  0
 34 59  1  0  0  0
 34104  1  0  0  0
 35 44  2  0  0  0
 35 45  1  0  0  0
 35 68  1  0  0  0
 36 56  1  0  0  0
 36105  1  0  0  0
 37 39  1  0  0  0
 37 47  1  0  0  0
 37 66  1  0  0  0
 37106  1  0  0  0
 38 43  2  0  0  0
 38 46  1  0  0  0
 38 47  1  0  0  0
 39 64  1  0  0  0
 39 67  2  0  0  0
 40 52  1  0  0  0
 40 53  2  0  0  0
 40 58  1  0  0  0
 41107  1  0  0  0
 41108  1  0  0  0
 41109  1  0  0  0
 41 48  1  0  0  0
 42 43  1  0  0  0
 42 66  1  0  0  0
 42110  1  0  0  0
 42111  1  0  0  0
 43 44  1  0  0  0
 44112  1  0  0  0
 45 46  2  0  0  0
 45113  1  0  0  0
 46114  1  0  0  0
 47115  1  0  0  0
 47116  1  0  0  0
 48 56  1  0  0  0
 48 65  1  0  0  0
 48117  1  0  0  0
 49 50  1  0  0  0
 49 53  1  0  0  0
 49 64  1  0  0  0
 49118  1  0  0  0
 50 51  1  0  0  0
 50119  1  0  0  0
 50120  1  0  0  0
 51 52  1  0  0  0
 51121  1  0  0  0
 51122  1  0  0  0
 52123  1  0  0  0
 52124  1  0  0  0
 53 54  1  0  0  0
 54 55  2  0  0  0
 54125  1  0  0  0
 55 57  1  0  0  0
 55126  1  0  0  0
 56 69  2  0  0  0
 57 58  2  0  0  0
 57127  1  0  0  0
 58128  1  0  0  0
 59 60  1  0  0  0
 59 61  1  0  0  0
 59 62  1  0  0  0
 60129  1  0  0  0
 60130  1  0  0  0
 60131  1  0  0  0
 61132  1  0  0  0
 61133  1  0  0  0
 61134  1  0  0  0
 62135  1  0  0  0
 62136  1  0  0  0
 62137  1  0  0  0
 63 65  1  0  0  0
 63138  1  0  0  0
 63139  1  0  0  0
 63140  1  0  0  0
 64141  1  0  0  0
 65142  1  0  0  0
 68 78  1  0  0  0
 71 73  2  0  0  0
 71 75  1  0  0  0
 71143  1  0  0  0
 72 74  1  0  0  0
 72 75  2  0  0  0
 72144  1  0  0  0
 73 76  1  0  0  0
 73145  1  0  0  0
 74 76  2  0  0  0
 74146  1  0  0  0
 75 80  1  0  0  0
 76 83  1  0  0  0
 77 78  1  0  0  0
 77 79  1  0  0  0
 77147  1  0  0  0
 77148  1  0  0  0
 78149  1  0  0  0
 78150  1  0  0  0
 79151  1  0  0  0
 79152  1  0  0  0
 79 83  1  0  0  0
 80153  1  0  0  0
 81 83  2  0  0  0
 82 83  2  0  0  0
M  ISO  4   1 100  68 101  78 101  80 100
M  END
> <chiral flag>
0

> <version>
0

> <s_m_source_file>
/data/baiqing/PycharmProjects/Reinvent-master-3.2/result/LINK_invent/BTK/process_docking_weight1_custom_product_contain_oxygen_bond_distance_aromatic_linkinvent_7_9_3/rearranged_h_0020.sdf

> <i_m_source_file_index>
47

> <r_mmod_Potential_Energy-OPLS-2005>
-102.342254638672

> <r_mmod_Stretch_Energy-OPLS-2005>
68.071662902832

> <r_mmod_Bend_Energy-OPLS-2005>
162.267913818359

> <r_mmod_Torsional_Energy-OPLS-2005>
225.94953918457

> <r_mmod_Improper_Torsional_Energy-OPLS-2005>
4.73133945465088

> <r_mmod_Van_der_Waal_Energy-OPLS-2005>
127.482345581055

> <r_mmod_Electrostatic_Energy-OPLS-2005>
-460.654815673828

> <r_mmod_Solvation_Energy-OPLS-2005>
-258.451812744141

> <b_mmod_Minimization_Converged-OPLS-2005>
0

> <r_mmod_RMS_Derivative-OPLS-2005>
3.50130939483643

$$$$
48
                    3D
 Structure written by MMmdl.
161170  0  0  1  0            999 V2000
  -30.7525  -14.4563   20.6135 C   0  0  0  0  0  0
  -30.4172  -12.3197   19.4147 C   0  0  0  0  0  0
  -29.4879  -12.5082   18.2004 C   0  0  0  0  0  0
  -28.0140  -12.3485   18.6184 C   0  0  0  0  0  0
  -27.6562  -13.1963   19.8661 C   0  0  2  0  0  0
  -28.7026  -13.0067   20.9897 C   0  0  0  0  0  0
  -25.2587  -13.8129   20.5676 C   0  0  0  0  0  0
  -24.1837  -13.0423   20.9190 C   0  0  0  0  0  0
  -24.6376  -11.6885   20.8741 C   0  0  0  0  0  0
  -23.9038  -10.4283   21.0410 C   0  0  0  0  0  0
  -24.3597   -9.4201   21.9185 C   0  0  0  0  0  0
  -23.6280   -8.2236   22.0754 C   0  0  0  0  0  0
  -22.4264   -8.0274   21.3545 C   0  0  0  0  0  0
  -21.9894   -9.0244   20.4645 C   0  0  0  0  0  0
  -22.7215  -10.2124   20.3056 C   0  0  0  0  0  0
  -21.6847   -6.0730   22.5279 C   0  0  0  0  0  0
  -21.4007   -6.5633   23.8211 C   0  0  0  0  0  0
  -21.3661   -5.6789   24.9174 C   0  0  0  0  0  0
  -21.6047   -4.3050   24.7227 C   0  0  0  0  0  0
  -21.8820   -3.8141   23.4347 C   0  0  0  0  0  0
  -21.9190   -4.6958   22.3403 C   0  0  0  0  0  0
  -22.7865  -13.5238   21.1847 C   0  0  0  0  0  0
  -22.1662   -4.2144   21.0979 F   0  0  0  0  0  0
  -21.5634   -3.4535   25.7742 F   0  0  0  0  0  0
  -30.0347  -13.3086   20.4372 N   0  0  0  0  0  0
  -26.3000  -12.9269   20.3335 N   0  0  0  0  0  0
  -25.9297  -11.6446   20.5760 N   0  0  0  0  0  0
  -22.0496  -12.8241   22.0400 N   0  0  0  0  0  0
  -25.4305  -15.1847   20.4069 N   0  0  0  0  0  0
  -31.8551  -14.6308   20.0845 O   0  0  0  0  0  0
  -21.6629   -6.8873   21.4241 O   0  0  0  0  0  0
  -22.3562  -14.5547   20.6690 O   0  0  0  0  0  0
  -24.6143  -31.8688   23.2115 C   0  0  0  0  0  0
  -25.9031  -32.4827   23.8414 C   0  0  1  0  0  0
  -27.2288  -27.4287   20.0931 C   0  0  0  0  0  0
  -25.5887  -33.8625   24.2341 N   0  0  0  0  0  0
  -23.4029  -30.4943   21.5525 C   0  0  2  0  0  0
  -24.8483  -28.9665   20.1127 C   0  0  0  0  0  0
  -22.7408  -29.4664   22.4985 C   0  0  0  0  0  0
  -18.0266  -28.1382   22.8494 C   0  0  0  0  0  0
  -24.1485  -36.7319   23.2638 C   0  0  0  0  0  0
  -25.9341  -30.8339   21.3660 C   0  0  0  0  0  0
  -26.0114  -29.4704   20.7081 C   0  0  0  0  0  0
  -27.2058  -28.7106   20.6927 C   0  0  0  0  0  0
  -26.0443  -26.9505   19.4815 C   0  0  0  0  0  0
  -24.8602  -27.7064   19.4957 C   0  0  0  0  0  0
  -23.6108  -29.8327   20.1653 C   0  0  0  0  0  0
  -25.4106  -36.3115   24.0340 C   0  0  1  0  0  0
  -20.5858  -28.3672   23.1315 C   0  0  2  0  0  0
  -20.6762  -26.9409   22.5416 C   0  0  0  0  0  0
  -19.5739  -26.6392   21.5214 C   0  0  0  0  0  0
  -18.1916  -26.7932   22.1624 C   0  0  0  0  0  0
  -19.1516  -28.8839   23.2905 C   0  0  0  0  0  0
  -18.9442  -30.1449   23.8913 C   0  0  0  0  0  0
  -17.6447  -30.6587   24.0567 C   0  0  0  0  0  0
  -25.9032  -34.9475   23.5139 C   0  0  0  0  0  0
  -16.5337  -29.9090   23.6326 C   0  0  0  0  0  0
  -16.7257  -28.6512   23.0346 C   0  0  0  0  0  0
  -26.4461  -31.6602   25.0737 C   0  0  0  0  0  0
  -25.3720  -31.3688   26.1478 C   0  0  0  0  0  0
  -27.0305  -30.3049   24.6121 C   0  0  0  0  0  0
  -27.6047  -32.4317   25.7475 C   0  0  0  0  0  0
  -27.5584  -37.1810   24.8464 C   0  0  0  0  0  0
  -21.4133  -29.3039   22.3723 N   0  0  0  0  0  0
  -26.4298  -37.3795   23.9408 N   0  0  0  0  0  0
  -24.6689  -31.0790   22.1019 N   0  0  0  0  0  0
  -23.4179  -28.8197   23.3021 O   0  0  0  0  0  0
  -28.3835  -26.6657   20.1297 O   0  0  0  0  0  0
  -26.5595  -34.8916   22.4703 O   0  0  0  0  0  0
  -23.5336  -32.1438   23.7506 O   0  0  0  0  0  0
  -30.0364  -18.3377   19.8423 C   0  0  0  0  0  0
  -30.1676  -19.7393   19.7137 C   0  0  0  0  0  0
  -29.1041  -20.0352   21.8698 C   0  0  0  0  0  0
  -29.4089  -17.7730   20.9729 C   0  0  0  0  0  0
  -29.6733  -20.6231   20.7089 C   0  0  0  0  0  0
  -28.9640  -18.6367   21.9971 C   0  0  0  0  0  0
  -29.0235  -23.0198   21.1228 C   0  0  0  0  0  0
  -30.5025  -24.1820   19.6302 C   0  0  0  0  0  0
  -30.6347  -22.6539   19.5092 C   0  0  0  0  0  0
  -29.4017  -24.4343   20.6637 C   0  0  1  0  0  0
  -31.1374  -15.9574   22.4813 C   0  0  0  0  0  0
  -29.1387  -16.2633   21.0467 C   0  0  0  0  0  0
  -28.1882  -25.2366   20.1278 C   0  0  0  0  0  0
  -29.7647  -22.0581   20.5238 N   0  0  0  0  0  0
  -30.2516  -15.3846   21.4645 N   0  0  0  0  0  0
  -28.1289  -22.8421   21.9562 O   0  0  0  0  0  0
  -28.3782  -18.1268   23.1070 F   0  0  0  0  0  0
  -31.4606  -12.4117   19.1079 H   0  0  0  0  0  0
  -30.3191  -11.3106   19.8183 H   0  0  0  0  0  0
  -29.7351  -11.7854   17.4217 H   0  0  0  0  0  0
  -29.6445  -13.4958   17.7634 H   0  0  0  0  0  0
  -27.8409  -11.2920   18.8271 H   0  0  0  0  0  0
  -27.3567  -12.6048   17.7866 H   0  0  0  0  0  0
  -27.6791  -14.2305   19.5366 H   0  0  0  0  0  0
  -28.6858  -11.9776   21.3515 H   0  0  0  0  0  0
  -28.4549  -13.6206   21.8561 H   0  0  0  0  0  0
  -25.2743   -9.5681   22.4753 H   0  0  0  0  0  0
  -23.9996   -7.4626   22.7470 H   0  0  0  0  0  0
  -21.0830   -8.8755   19.8947 H   0  0  0  0  0  0
  -22.3675  -10.9663   19.6163 H   0  0  0  0  0  0
  -21.1992   -7.6141   23.9716 H   0  0  0  0  0  0
  -21.1487   -6.0515   25.9078 H   0  0  0  0  0  0
  -22.0597   -2.7605   23.2847 H   0  0  0  0  0  0
  -22.4107  -11.9909   22.4808 H   0  0  0  0  0  0
  -21.1107  -13.1266   22.2578 H   0  0  0  0  0  0
  -24.6611  -15.8367   20.5153 H   0  0  0  0  0  0
  -26.2757  -15.6253   20.0691 H   0  0  0  0  0  0
  -26.7106  -32.5540   23.1187 H   0  0  0  0  0  0
  -25.0013  -33.9790   25.0471 H   0  0  0  0  0  0
  -22.6914  -31.3113   21.4162 H   0  0  0  0  0  0
  -23.3738  -35.9662   23.3310 H   0  0  0  0  0  0
  -24.3577  -36.8929   22.2051 H   0  0  0  0  0  0
  -23.7248  -37.6532   23.6646 H   0  0  0  0  0  0
  -26.0481  -31.6030   20.6006 H   0  0  0  0  0  0
  -26.8209  -30.8851   21.9860 H   0  0  0  0  0  0
  -28.1027  -29.0936   21.1602 H   0  0  0  0  0  0
  -26.0120  -25.9902   18.9883 H   0  0  0  0  0  0
  -23.9668  -27.3149   19.0282 H   0  0  0  0  0  0
  -23.7201  -30.6105   19.4085 H   0  0  0  0  0  0
  -22.7338  -29.2551   19.8680 H   0  0  0  0  0  0
  -25.1282  -36.1989   25.0834 H   0  0  0  0  0  0
  -20.9949  -28.3246   24.1435 H   0  0  0  0  0  0
  -20.5679  -26.2277   23.3601 H   0  0  0  0  0  0
  -21.6634  -26.7462   22.1198 H   0  0  0  0  0  0
  -19.6900  -25.6307   21.1234 H   0  0  0  0  0  0
  -19.6675  -27.3209   20.6751 H   0  0  0  0  0  0
  -17.4185  -26.6669   21.4026 H   0  0  0  0  0  0
  -18.0319  -26.0076   22.9023 H   0  0  0  0  0  0
  -19.7918  -30.7263   24.2291 H   0  0  0  0  0  0
  -17.5000  -31.6265   24.5174 H   0  0  0  0  0  0
  -15.5343  -30.2999   23.7645 H   0  0  0  0  0  0
  -15.8655  -28.0846   22.7042 H   0  0  0  0  0  0
  -24.5896  -30.7043   25.7798 H   0  0  0  0  0  0
  -24.8894  -32.2829   26.4947 H   0  0  0  0  0  0
  -25.8064  -30.8831   27.0226 H   0  0  0  0  0  0
  -26.2866  -29.6792   24.1181 H   0  0  0  0  0  0
  -27.4094  -29.7302   25.4586 H   0  0  0  0  0  0
  -27.8686  -30.4381   23.9274 H   0  0  0  0  0  0
  -27.2699  -33.3622   26.2072 H   0  0  0  0  0  0
  -28.3826  -32.6876   25.0265 H   0  0  0  0  0  0
  -28.0754  -31.8429   26.5361 H   0  0  0  0  0  0
  -28.2605  -38.0105   24.7521 H   0  0  0  0  0  0
  -28.1084  -36.2640   24.6288 H   0  0  0  0  0  0
  -27.2299  -37.1464   25.8866 H   0  0  0  0  0  0
  -20.9292  -29.8781   21.6963 H   0  0  0  0  0  0
  -26.0191  -38.2878   24.1406 H   0  0  0  0  0  0
  -30.3906  -17.6970   19.0461 H   0  0  0  0  0  0
  -30.6312  -20.1183   18.8140 H   0  0  0  0  0  0
  -28.7489  -20.6406   22.6888 H   0  0  0  0  0  0
  -30.2661  -24.6289   18.6636 H   0  0  0  0  0  0
  -31.4408  -24.6262   19.9639 H   0  0  0  0  0  0
  -31.6683  -22.3362   19.6528 H   0  0  0  0  0  0
  -30.3144  -22.3351   18.5162 H   0  0  0  0  0  0
  -29.8135  -24.9467   21.5332 H   0  0  0  0  0  0
  -30.5640  -16.4468   23.2689 H   0  0  0  0  0  0
  -31.8127  -16.6922   22.0403 H   0  0  0  0  0  0
  -31.7450  -15.1842   22.9550 H   0  0  0  0  0  0
  -28.7957  -15.9843   20.0515 H   0  0  0  0  0  0
  -28.2926  -16.0796   21.7093 H   0  0  0  0  0  0
  -27.3208  -25.0025   20.7486 H   0  0  0  0  0  0
  -27.9511  -24.8994   19.1178 H   0  0  0  0  0  0
  1 25  1  0  0  0
  1 30  2  0  0  0
  1 85  1  0  0  0
  2  3  1  0  0  0
  2 25  1  0  0  0
  2 88  1  0  0  0
  2 89  1  0  0  0
  3  4  1  0  0  0
  3 90  1  0  0  0
  3 91  1  0  0  0
  4  5  1  0  0  0
  4 92  1  0  0  0
  4 93  1  0  0  0
  5  6  1  0  0  0
  5 26  1  0  0  0
  5 94  1  0  0  0
  6 25  1  0  0  0
  6 95  1  0  0  0
  6 96  1  0  0  0
  7  8  2  0  0  0
  7 26  1  0  0  0
  7 29  1  0  0  0
  8  9  1  0  0  0
  8 22  1  0  0  0
  9 10  1  0  0  0
  9 27  2  0  0  0
 10 11  2  0  0  0
 10 15  1  0  0  0
 11 12  1  0  0  0
 11 97  1  0  0  0
 12 13  2  0  0  0
 12 98  1  0  0  0
 13 14  1  0  0  0
 13 31  1  0  0  0
 14 15  2  0  0  0
 14 99  1  0  0  0
 15100  1  0  0  0
 16 17  2  0  0  0
 16 21  1  0  0  0
 16 31  1  0  0  0
 17 18  1  0  0  0
 17101  1  0  0  0
 18 19  2  0  0  0
 18102  1  0  0  0
 19 20  1  0  0  0
 19 24  1  0  0  0
 20 21  2  0  0  0
 20103  1  0  0  0
 21 23  1  0  0  0
 22 28  1  0  0  0
 22 32  2  0  0  0
 26 27  1  0  0  0
 28104  1  0  0  0
 28105  1  0  0  0
 29106  1  0  0  0
 29107  1  0  0  0
 33 34  1  0  0  0
 33 66  1  0  0  0
 33 70  2  0  0  0
 34 36  1  0  0  0
 34 59  1  0  0  0
 34108  1  0  0  0
 35 44  2  0  0  0
 35 45  1  0  0  0
 35 68  1  0  0  0
 36 56  1  0  0  0
 36109  1  0  0  0
 37 39  1  0  0  0
 37 47  1  0  0  0
 37 66  1  0  0  0
 37110  1  0  0  0
 38 43  2  0  0  0
 38 46  1  0  0  0
 38 47  1  0  0  0
 39 64  1  0  0  0
 39 67  2  0  0  0
 40 52  1  0  0  0
 40 53  2  0  0  0
 40 58  1  0  0  0
 41111  1  0  0  0
 41112  1  0  0  0
 41113  1  0  0  0
 41 48  1  0  0  0
 42 43  1  0  0  0
 42 66  1  0  0  0
 42114  1  0  0  0
 42115  1  0  0  0
 43 44  1  0  0  0
 44116  1  0  0  0
 45 46  2  0  0  0
 45117  1  0  0  0
 46118  1  0  0  0
 47119  1  0  0  0
 47120  1  0  0  0
 48 56  1  0  0  0
 48 65  1  0  0  0
 48121  1  0  0  0
 49 50  1  0  0  0
 49 53  1  0  0  0
 49 64  1  0  0  0
 49122  1  0  0  0
 50 51  1  0  0  0
 50123  1  0  0  0
 50124  1  0  0  0
 51 52  1  0  0  0
 51125  1  0  0  0
 51126  1  0  0  0
 52127  1  0  0  0
 52128  1  0  0  0
 53 54  1  0  0  0
 54 55  2  0  0  0
 54129  1  0  0  0
 55 57  1  0  0  0
 55130  1  0  0  0
 56 69  2  0  0  0
 57 58  2  0  0  0
 57131  1  0  0  0
 58132  1  0  0  0
 59 60  1  0  0  0
 59 61  1  0  0  0
 59 62  1  0  0  0
 60133  1  0  0  0
 60134  1  0  0  0
 60135  1  0  0  0
 61136  1  0  0  0
 61137  1  0  0  0
 61138  1  0  0  0
 62139  1  0  0  0
 62140  1  0  0  0
 62141  1  0  0  0
 63 65  1  0  0  0
 63142  1  0  0  0
 63143  1  0  0  0
 63144  1  0  0  0
 64145  1  0  0  0
 65146  1  0  0  0
 68 83  1  0  0  0
 71 72  2  0  0  0
 71 74  1  0  0  0
 71147  1  0  0  0
 72 75  1  0  0  0
 72148  1  0  0  0
 73 75  2  0  0  0
 73 76  1  0  0  0
 73149  1  0  0  0
 74 76  2  0  0  0
 74 82  1  0  0  0
 75 84  1  0  0  0
 76 87  1  0  0  0
 77 80  1  0  0  0
 77 84  1  0  0  0
 77 86  2  0  0  0
 78 79  1  0  0  0
 78 80  1  0  0  0
 78150  1  0  0  0
 78151  1  0  0  0
 79 84  1  0  0  0
 79152  1  0  0  0
 79153  1  0  0  0
 80 83  1  0  0  0
 80154  1  0  0  0
 81 85  1  0  0  0
 81155  1  0  0  0
 81156  1  0  0  0
 81157  1  0  0  0
 82 85  1  0  0  0
 82158  1  0  0  0
 82159  1  0  0  0
 83160  1  0  0  0
 83161  1  0  0  0
M  ISO  4   1 100  68 101  83 101  85 100
M  END
> <chiral flag>
0

> <version>
0

> <s_m_source_file>
/data/baiqing/PycharmProjects/Reinvent-master-3.2/result/LINK_invent/BTK/process_docking_weight1_custom_product_contain_oxygen_bond_distance_aromatic_linkinvent_7_9_3/rearranged_h_0020.sdf

> <i_m_source_file_index>
48

> <r_mmod_Potential_Energy-OPLS-2005>
182.768402099609

> <r_mmod_Stretch_Energy-OPLS-2005>
43.0162696838379

> <r_mmod_Bend_Energy-OPLS-2005>
118.329208374023

> <r_mmod_Torsional_Energy-OPLS-2005>
325.864135742188

> <r_mmod_Improper_Torsional_Energy-OPLS-2005>
4.27418804168701

> <r_mmod_Van_der_Waal_Energy-OPLS-2005>
163.007476806641

> <r_mmod_Electrostatic_Energy-OPLS-2005>
-281.102447509766

> <r_mmod_Solvation_Energy-OPLS-2005>
-204.320556640625

> <b_mmod_Minimization_Converged-OPLS-2005>
0

> <r_mmod_RMS_Derivative-OPLS-2005>
0.936644494533539

$$$$
49
                    3D
 Structure written by MMmdl.
170178  0  0  1  0            999 V2000
  -30.7282  -14.5189   20.5778 C   0  0  0  0  0  0
  -30.4207  -12.3443   19.4272 C   0  0  0  0  0  0
  -29.4922  -12.4822   18.2042 C   0  0  0  0  0  0
  -28.0188  -12.3116   18.6219 C   0  0  0  0  0  0
  -27.6444  -13.1823   19.8471 C   0  0  2  0  0  0
  -28.6943  -13.0456   20.9788 C   0  0  0  0  0  0
  -25.2529  -13.8079   20.5688 C   0  0  0  0  0  0
  -24.1782  -13.0376   20.9197 C   0  0  0  0  0  0
  -24.6326  -11.6859   20.8715 C   0  0  0  0  0  0
  -23.9009  -10.4256   21.0396 C   0  0  0  0  0  0
  -24.3581   -9.4194   21.9183 C   0  0  0  0  0  0
  -23.6267   -8.2224   22.0740 C   0  0  0  0  0  0
  -22.4239   -8.0271   21.3545 C   0  0  0  0  0  0
  -21.9863   -9.0232   20.4639 C   0  0  0  0  0  0
  -22.7197  -10.2097   20.3032 C   0  0  0  0  0  0
  -21.6849   -6.0726   22.5287 C   0  0  0  0  0  0
  -21.4025   -6.5632   23.8220 C   0  0  0  0  0  0
  -21.3644   -5.6778   24.9179 C   0  0  0  0  0  0
  -21.6033   -4.3040   24.7223 C   0  0  0  0  0  0
  -21.8830   -3.8144   23.4344 C   0  0  0  0  0  0
  -21.9195   -4.6960   22.3403 C   0  0  0  0  0  0
  -22.7822  -13.5211   21.1864 C   0  0  0  0  0  0
  -22.1652   -4.2150   21.0977 F   0  0  0  0  0  0
  -21.5619   -3.4506   25.7722 F   0  0  0  0  0  0
  -30.0173  -13.3620   20.4165 N   0  0  0  0  0  0
  -26.2918  -12.9209   20.3240 N   0  0  0  0  0  0
  -25.9219  -11.6395   20.5692 N   0  0  0  0  0  0
  -22.0454  -12.8201   22.0410 N   0  0  0  0  0  0
  -25.4140  -15.1799   20.4187 N   0  0  0  0  0  0
  -31.8845  -14.6249   20.1592 O   0  0  0  0  0  0
  -21.6626   -6.8860   21.4252 O   0  0  0  0  0  0
  -22.3527  -14.5525   20.6727 O   0  0  0  0  0  0
  -24.6139  -31.8684   23.2102 C   0  0  0  0  0  0
  -25.9035  -32.4826   23.8402 C   0  0  1  0  0  0
  -27.2478  -27.4444   20.1115 C   0  0  0  0  0  0
  -25.5897  -33.8625   24.2336 N   0  0  0  0  0  0
  -23.4030  -30.4892   21.5495 C   0  0  2  0  0  0
  -24.8553  -28.9551   20.1169 C   0  0  0  0  0  0
  -22.7417  -29.4648   22.4994 C   0  0  0  0  0  0
  -18.0270  -28.1380   22.8500 C   0  0  0  0  0  0
  -24.1481  -36.7314   23.2634 C   0  0  0  0  0  0
  -25.9282  -30.8374   21.3627 C   0  0  0  0  0  0
  -26.0101  -29.4688   20.7208 C   0  0  0  0  0  0
  -27.2080  -28.7194   20.7263 C   0  0  0  0  0  0
  -26.0831  -26.9524   19.4894 C   0  0  0  0  0  0
  -24.8850  -27.6930   19.4986 C   0  0  0  0  0  0
  -23.6130  -29.8170   20.1648 C   0  0  0  0  0  0
  -25.4096  -36.3117   24.0345 C   0  0  1  0  0  0
  -20.5865  -28.3654   23.1329 C   0  0  2  0  0  0
  -20.6763  -26.9393   22.5412 C   0  0  0  0  0  0
  -19.5739  -26.6389   21.5214 C   0  0  0  0  0  0
  -18.1916  -26.7929   22.1623 C   0  0  0  0  0  0
  -19.1520  -28.8836   23.2911 C   0  0  0  0  0  0
  -18.9451  -30.1448   23.8913 C   0  0  0  0  0  0
  -17.6449  -30.6587   24.0558 C   0  0  0  0  0  0
  -25.9032  -34.9482   23.5136 C   0  0  0  0  0  0
  -16.5340  -29.9084   23.6330 C   0  0  0  0  0  0
  -16.7259  -28.6505   23.0345 C   0  0  0  0  0  0
  -26.4471  -31.6603   25.0722 C   0  0  0  0  0  0
  -25.3749  -31.3696   26.1477 C   0  0  0  0  0  0
  -27.0287  -30.3051   24.6067 C   0  0  0  0  0  0
  -27.6051  -32.4311   25.7490 C   0  0  0  0  0  0
  -27.5585  -37.1796   24.8452 C   0  0  0  0  0  0
  -21.4142  -29.3021   22.3740 N   0  0  0  0  0  0
  -26.4276  -37.3810   23.9432 N   0  0  0  0  0  0
  -24.6663  -31.0796   22.0997 N   0  0  0  0  0  0
  -23.4191  -28.8197   23.3046 O   0  0  0  0  0  0
  -28.3688  -26.6421   20.0736 O   0  0  0  0  0  0
  -26.5584  -34.8939   22.4693 O   0  0  0  0  0  0
  -23.5333  -32.1425   23.7503 O   0  0  0  0  0  0
  -29.8022  -18.5502   22.9384 C   0  0  0  0  0  0
  -29.6848  -19.9507   22.8232 C   0  0  0  0  0  0
  -30.8068  -17.8447   22.2390 C   0  0  0  0  0  0
  -30.5786  -20.6909   22.0108 C   0  0  0  0  0  0
  -31.7465  -18.5819   21.4859 C   0  0  0  0  0  0
  -31.6271  -19.9868   21.3680 C   0  0  0  0  0  0
  -30.1954  -17.4668   18.6948 C   0  0  0  0  0  0
  -27.7107  -17.1729   18.5749 C   0  0  0  0  0  0
  -30.8358  -16.3079   22.2790 C   0  0  0  0  0  0
  -28.9577  -24.1138   21.8010 C   0  0  0  0  0  0
  -29.9103  -25.2691   21.4209 C   0  0  0  0  0  0
  -29.5988  -22.9523   22.5964 C   0  0  0  0  0  0
  -28.9451  -16.2585   20.6024 C   0  0  0  0  0  0
  -29.2069  -26.6366   21.2295 C   0  0  0  0  0  0
  -29.0223  -16.5502   19.0763 C   0  0  0  0  0  0
  -30.4612  -22.0835   21.7910 N   0  0  0  0  0  0
  -30.1233  -15.5762   21.1953 N   0  0  0  0  0  0
  -32.7546  -17.9396   20.8483 F   0  0  0  0  0  0
  -32.5223  -20.6658   20.6098 F   0  0  0  0  0  0
  -31.4623  -12.4433   19.1165 H   0  0  0  0  0  0
  -30.3349  -11.3462   19.8591 H   0  0  0  0  0  0
  -29.7515  -11.7360   17.4525 H   0  0  0  0  0  0
  -29.6398  -13.4532   17.7292 H   0  0  0  0  0  0
  -27.8619  -11.2587   18.8526 H   0  0  0  0  0  0
  -27.3615  -12.5370   17.7808 H   0  0  0  0  0  0
  -27.6404  -14.1925   19.4575 H   0  0  0  0  0  0
  -28.6969  -12.0289   21.3736 H   0  0  0  0  0  0
  -28.4415  -13.6805   21.8291 H   0  0  0  0  0  0
  -25.2721   -9.5680   22.4770 H   0  0  0  0  0  0
  -23.9989   -7.4596   22.7422 H   0  0  0  0  0  0
  -21.0799   -8.8753   19.8939 H   0  0  0  0  0  0
  -22.3679  -10.9630   19.6126 H   0  0  0  0  0  0
  -21.2035   -7.6141   23.9723 H   0  0  0  0  0  0
  -21.1438   -6.0506   25.9078 H   0  0  0  0  0  0
  -22.0616   -2.7610   23.2843 H   0  0  0  0  0  0
  -22.4074  -11.9893   22.4844 H   0  0  0  0  0  0
  -21.1065  -13.1217   22.2574 H   0  0  0  0  0  0
  -24.6356  -15.8207   20.5281 H   0  0  0  0  0  0
  -26.2581  -15.6339   20.0968 H   0  0  0  0  0  0
  -26.7113  -32.5562   23.1182 H   0  0  0  0  0  0
  -25.0077  -33.9785   25.0502 H   0  0  0  0  0  0
  -22.6912  -31.3053   21.4078 H   0  0  0  0  0  0
  -23.3754  -35.9630   23.3268 H   0  0  0  0  0  0
  -24.3598  -36.8947   22.2055 H   0  0  0  0  0  0
  -23.7213  -37.6505   23.6662 H   0  0  0  0  0  0
  -26.0333  -31.5961   20.5864 H   0  0  0  0  0  0
  -26.8190  -30.8995   21.9759 H   0  0  0  0  0  0
  -28.0939  -29.1229   21.1959 H   0  0  0  0  0  0
  -26.1020  -25.9835   19.0109 H   0  0  0  0  0  0
  -24.0007  -27.2901   19.0244 H   0  0  0  0  0  0
  -23.7174  -30.5890   19.4013 H   0  0  0  0  0  0
  -22.7392  -29.2312   19.8721 H   0  0  0  0  0  0
  -25.1267  -36.1966   25.0833 H   0  0  0  0  0  0
  -20.9953  -28.3197   24.1455 H   0  0  0  0  0  0
  -20.5663  -26.2261   23.3592 H   0  0  0  0  0  0
  -21.6632  -26.7422   22.1203 H   0  0  0  0  0  0
  -19.6888  -25.6303   21.1237 H   0  0  0  0  0  0
  -19.6688  -27.3206   20.6751 H   0  0  0  0  0  0
  -17.4190  -26.6683   21.4018 H   0  0  0  0  0  0
  -18.0297  -26.0061   22.9003 H   0  0  0  0  0  0
  -19.7935  -30.7256   24.2277 H   0  0  0  0  0  0
  -17.5007  -31.6269   24.5152 H   0  0  0  0  0  0
  -15.5335  -30.2979   23.7659 H   0  0  0  0  0  0
  -15.8664  -28.0821   22.7047 H   0  0  0  0  0  0
  -24.5921  -30.7043   25.7818 H   0  0  0  0  0  0
  -24.8946  -32.2846   26.4951 H   0  0  0  0  0  0
  -25.8118  -30.8855   27.0219 H   0  0  0  0  0  0
  -26.2809  -29.6828   24.1132 H   0  0  0  0  0  0
  -27.4078  -29.7268   25.4502 H   0  0  0  0  0  0
  -27.8641  -30.4380   23.9188 H   0  0  0  0  0  0
  -27.2678  -33.3608   26.2085 H   0  0  0  0  0  0
  -28.3864  -32.6866   25.0321 H   0  0  0  0  0  0
  -28.0711  -31.8417   26.5396 H   0  0  0  0  0  0
  -28.2552  -38.0140   24.7578 H   0  0  0  0  0  0
  -28.1129  -36.2683   24.6168 H   0  0  0  0  0  0
  -27.2326  -37.1294   25.8853 H   0  0  0  0  0  0
  -20.9306  -29.8765   21.6973 H   0  0  0  0  0  0
  -26.0159  -38.2875   24.1476 H   0  0  0  0  0  0
  -29.0770  -18.0123   23.5324 H   0  0  0  0  0  0
  -28.8716  -20.4145   23.3572 H   0  0  0  0  0  0
  -30.2164  -17.6437   17.6181 H   0  0  0  0  0  0
  -31.1577  -17.0298   18.9599 H   0  0  0  0  0  0
  -30.1140  -18.4391   19.1826 H   0  0  0  0  0  0
  -27.7966  -17.4978   17.5371 H   0  0  0  0  0  0
  -27.4280  -18.0437   19.1673 H   0  0  0  0  0  0
  -26.8884  -16.4614   18.6142 H   0  0  0  0  0  0
  -30.3898  -15.9872   23.2202 H   0  0  0  0  0  0
  -31.8794  -15.9933   22.3464 H   0  0  0  0  0  0
  -28.4425  -23.7385   20.9154 H   0  0  0  0  0  0
  -28.1705  -24.5251   22.4347 H   0  0  0  0  0  0
  -30.4776  -25.0043   20.5280 H   0  0  0  0  0  0
  -30.6444  -25.3881   22.2183 H   0  0  0  0  0  0
  -28.7782  -22.3941   23.0399 H   0  0  0  0  0  0
  -30.1735  -23.3473   23.4360 H   0  0  0  0  0  0
  -28.0604  -15.6865   20.8555 H   0  0  0  0  0  0
  -28.7191  -17.1998   21.0889 H   0  0  0  0  0  0
  -29.9560  -27.4202   21.1154 H   0  0  0  0  0  0
  -28.6384  -26.8706   22.1320 H   0  0  0  0  0  0
  -29.1578  -15.6189   18.5272 H   0  0  0  0  0  0
  -31.2117  -22.5244   21.2656 H   0  0  0  0  0  0
  1 25  1  0  0  0
  1 30  2  0  0  0
  1 87  1  0  0  0
  2  3  1  0  0  0
  2 25  1  0  0  0
  2 90  1  0  0  0
  2 91  1  0  0  0
  3  4  1  0  0  0
  3 92  1  0  0  0
  3 93  1  0  0  0
  4  5  1  0  0  0
  4 94  1  0  0  0
  4 95  1  0  0  0
  5  6  1  0  0  0
  5 26  1  0  0  0
  5 96  1  0  0  0
  6 25  1  0  0  0
  6 97  1  0  0  0
  6 98  1  0  0  0
  7  8  2  0  0  0
  7 26  1  0  0  0
  7 29  1  0  0  0
  8  9  1  0  0  0
  8 22  1  0  0  0
  9 10  1  0  0  0
  9 27  2  0  0  0
 10 11  2  0  0  0
 10 15  1  0  0  0
 11 12  1  0  0  0
 11 99  1  0  0  0
 12 13  2  0  0  0
 12100  1  0  0  0
 13 14  1  0  0  0
 13 31  1  0  0  0
 14 15  2  0  0  0
 14101  1  0  0  0
 15102  1  0  0  0
 16 17  2  0  0  0
 16 21  1  0  0  0
 16 31  1  0  0  0
 17 18  1  0  0  0
 17103  1  0  0  0
 18 19  2  0  0  0
 18104  1  0  0  0
 19 20  1  0  0  0
 19 24  1  0  0  0
 20 21  2  0  0  0
 20105  1  0  0  0
 21 23  1  0  0  0
 22 28  1  0  0  0
 22 32  2  0  0  0
 26 27  1  0  0  0
 28106  1  0  0  0
 28107  1  0  0  0
 29108  1  0  0  0
 29109  1  0  0  0
 33 34  1  0  0  0
 33 66  1  0  0  0
 33 70  2  0  0  0
 34 36  1  0  0  0
 34 59  1  0  0  0
 34110  1  0  0  0
 35 44  2  0  0  0
 35 45  1  0  0  0
 35 68  1  0  0  0
 36 56  1  0  0  0
 36111  1  0  0  0
 37 39  1  0  0  0
 37 47  1  0  0  0
 37 66  1  0  0  0
 37112  1  0  0  0
 38 43  2  0  0  0
 38 46  1  0  0  0
 38 47  1  0  0  0
 39 64  1  0  0  0
 39 67  2  0  0  0
 40 52  1  0  0  0
 40 53  2  0  0  0
 40 58  1  0  0  0
 41113  1  0  0  0
 41114  1  0  0  0
 41115  1  0  0  0
 41 48  1  0  0  0
 42 43  1  0  0  0
 42 66  1  0  0  0
 42116  1  0  0  0
 42117  1  0  0  0
 43 44  1  0  0  0
 44118  1  0  0  0
 45 46  2  0  0  0
 45119  1  0  0  0
 46120  1  0  0  0
 47121  1  0  0  0
 47122  1  0  0  0
 48 56  1  0  0  0
 48 65  1  0  0  0
 48123  1  0  0  0
 49 50  1  0  0  0
 49 53  1  0  0  0
 49 64  1  0  0  0
 49124  1  0  0  0
 50 51  1  0  0  0
 50125  1  0  0  0
 50126  1  0  0  0
 51 52  1  0  0  0
 51127  1  0  0  0
 51128  1  0  0  0
 52129  1  0  0  0
 52130  1  0  0  0
 53 54  1  0  0  0
 54 55  2  0  0  0
 54131  1  0  0  0
 55 57  1  0  0  0
 55132  1  0  0  0
 56 69  2  0  0  0
 57 58  2  0  0  0
 57133  1  0  0  0
 58134  1  0  0  0
 59 60  1  0  0  0
 59 61  1  0  0  0
 59 62  1  0  0  0
 60135  1  0  0  0
 60136  1  0  0  0
 60137  1  0  0  0
 61138  1  0  0  0
 61139  1  0  0  0
 61140  1  0  0  0
 62141  1  0  0  0
 62142  1  0  0  0
 62143  1  0  0  0
 63 65  1  0  0  0
 63144  1  0  0  0
 63145  1  0  0  0
 63146  1  0  0  0
 64147  1  0  0  0
 65148  1  0  0  0
 68 84  1  0  0  0
 71 72  2  0  0  0
 71 73  1  0  0  0
 71149  1  0  0  0
 72 74  1  0  0  0
 72150  1  0  0  0
 73 75  2  0  0  0
 73 79  1  0  0  0
 74 76  2  0  0  0
 74 86  1  0  0  0
 75 76  1  0  0  0
 75 88  1  0  0  0
 76 89  1  0  0  0
 77151  1  0  0  0
 77152  1  0  0  0
 77153  1  0  0  0
 77 85  1  0  0  0
 78 85  1  0  0  0
 78154  1  0  0  0
 78155  1  0  0  0
 78156  1  0  0  0
 79 87  1  0  0  0
 79157  1  0  0  0
 79158  1  0  0  0
 80 81  1  0  0  0
 80 82  1  0  0  0
 80159  1  0  0  0
 80160  1  0  0  0
 81 84  1  0  0  0
 81161  1  0  0  0
 81162  1  0  0  0
 82 86  1  0  0  0
 82163  1  0  0  0
 82164  1  0  0  0
 83 85  1  0  0  0
 83 87  1  0  0  0
 83165  1  0  0  0
 83166  1  0  0  0
 84167  1  0  0  0
 84168  1  0  0  0
 85169  1  0  0  0
 86170  1  0  0  0
M  ISO  4   1 100  68 101  84 101  87 100
M  END
> <chiral flag>
0

> <version>
0

> <s_m_source_file>
/data/baiqing/PycharmProjects/Reinvent-master-3.2/result/LINK_invent/BTK/process_docking_weight1_custom_product_contain_oxygen_bond_distance_aromatic_linkinvent_7_9_3/rearranged_h_0020.sdf

> <i_m_source_file_index>
49

> <r_mmod_Potential_Energy-OPLS-2005>
168.588394165039

> <r_mmod_Stretch_Energy-OPLS-2005>
43.6160850524902

> <r_mmod_Bend_Energy-OPLS-2005>
124.101676940918

> <r_mmod_Torsional_Energy-OPLS-2005>
296.222106933594

> <r_mmod_Improper_Torsional_Energy-OPLS-2005>
3.31205248832703

> <r_mmod_Van_der_Waal_Energy-OPLS-2005>
152.922103881836

> <r_mmod_Electrostatic_Energy-OPLS-2005>
-281.751068115234

> <r_mmod_Solvation_Energy-OPLS-2005>
-189.211639404297

> <b_mmod_Minimization_Converged-OPLS-2005>
0

> <r_mmod_RMS_Derivative-OPLS-2005>
2.09079098701477

$$$$
50
                    3D
 Structure written by MMmdl.
158166  0  0  1  0            999 V2000
  -30.7657  -14.3998   20.7011 C   0  0  0  0  0  0
  -30.4162  -12.3185   19.4005 C   0  0  0  0  0  0
  -29.4859  -12.5393   18.1937 C   0  0  0  0  0  0
  -28.0117  -12.3787   18.6082 C   0  0  0  0  0  0
  -27.6613  -13.2071   19.8703 C   0  0  2  0  0  0
  -28.6964  -12.9789   20.9911 C   0  0  0  0  0  0
  -25.2596  -13.8167   20.5650 C   0  0  0  0  0  0
  -24.1841  -13.0448   20.9160 C   0  0  0  0  0  0
  -24.6393  -11.6916   20.8718 C   0  0  0  0  0  0
  -23.9060  -10.4303   21.0405 C   0  0  0  0  0  0
  -24.3618   -9.4222   21.9186 C   0  0  0  0  0  0
  -23.6300   -8.2256   22.0754 C   0  0  0  0  0  0
  -22.4284   -8.0288   21.3545 C   0  0  0  0  0  0
  -21.9923   -9.0255   20.4640 C   0  0  0  0  0  0
  -22.7238  -10.2141   20.3049 C   0  0  0  0  0  0
  -21.6848   -6.0744   22.5278 C   0  0  0  0  0  0
  -21.4012   -6.5640   23.8215 C   0  0  0  0  0  0
  -21.3663   -5.6794   24.9176 C   0  0  0  0  0  0
  -21.6046   -4.3058   24.7225 C   0  0  0  0  0  0
  -21.8819   -3.8149   23.4348 C   0  0  0  0  0  0
  -21.9191   -4.6969   22.3404 C   0  0  0  0  0  0
  -22.7869  -13.5253   21.1837 C   0  0  0  0  0  0
  -22.1660   -4.2156   21.0978 F   0  0  0  0  0  0
  -21.5639   -3.4545   25.7743 F   0  0  0  0  0  0
  -30.0408  -13.2700   20.4583 N   0  0  0  0  0  0
  -26.3014  -12.9334   20.3319 N   0  0  0  0  0  0
  -25.9311  -11.6494   20.5726 N   0  0  0  0  0  0
  -22.0510  -12.8236   22.0383 N   0  0  0  0  0  0
  -25.4360  -15.1883   20.4067 N   0  0  0  0  0  0
  -31.7714  -14.7040   20.0491 O   0  0  0  0  0  0
  -21.6643   -6.8888   21.4237 O   0  0  0  0  0  0
  -22.3551  -14.5560   20.6690 O   0  0  0  0  0  0
  -24.6142  -31.8674   23.2100 C   0  0  0  0  0  0
  -25.9033  -32.4824   23.8399 C   0  0  1  0  0  0
  -27.2350  -27.4379   20.0973 C   0  0  0  0  0  0
  -25.5887  -33.8622   24.2330 N   0  0  0  0  0  0
  -23.4022  -30.4880   21.5513 C   0  0  2  0  0  0
  -24.8496  -28.9513   20.1185 C   0  0  0  0  0  0
  -22.7400  -29.4649   22.5014 C   0  0  0  0  0  0
  -18.0263  -28.1368   22.8503 C   0  0  0  0  0  0
  -24.1483  -36.7311   23.2639 C   0  0  0  0  0  0
  -25.9304  -30.8337   21.3627 C   0  0  0  0  0  0
  -26.0099  -29.4675   20.7112 C   0  0  0  0  0  0
  -27.2097  -28.7191   20.6940 C   0  0  0  0  0  0
  -26.0613  -26.9304   19.5059 C   0  0  0  0  0  0
  -24.8700  -27.6814   19.5133 C   0  0  0  0  0  0
  -23.6096  -29.8159   20.1676 C   0  0  0  0  0  0
  -25.4108  -36.3120   24.0344 C   0  0  1  0  0  0
  -20.5850  -28.3650   23.1326 C   0  0  2  0  0  0
  -20.6747  -26.9387   22.5419 C   0  0  0  0  0  0
  -19.5726  -26.6374   21.5216 C   0  0  0  0  0  0
  -18.1899  -26.7918   22.1624 C   0  0  0  0  0  0
  -19.1512  -28.8830   23.2909 C   0  0  0  0  0  0
  -18.9443  -30.1446   23.8907 C   0  0  0  0  0  0
  -17.6447  -30.6584   24.0565 C   0  0  0  0  0  0
  -25.9043  -34.9480   23.5142 C   0  0  0  0  0  0
  -16.5342  -29.9080   23.6339 C   0  0  0  0  0  0
  -16.7255  -28.6493   23.0368 C   0  0  0  0  0  0
  -26.4467  -31.6605   25.0728 C   0  0  0  0  0  0
  -25.3736  -31.3668   26.1467 C   0  0  0  0  0  0
  -27.0319  -30.3057   24.6099 C   0  0  0  0  0  0
  -27.6024  -32.4332   25.7507 C   0  0  0  0  0  0
  -27.5602  -37.1795   24.8462 C   0  0  0  0  0  0
  -21.4127  -29.3026   22.3750 N   0  0  0  0  0  0
  -26.4293  -37.3810   23.9440 N   0  0  0  0  0  0
  -24.6670  -31.0772   22.0998 N   0  0  0  0  0  0
  -23.4168  -28.8195   23.3062 O   0  0  0  0  0  0
  -28.3861  -26.6845   20.0792 O   0  0  0  0  0  0
  -26.5621  -34.8932   22.4711 O   0  0  0  0  0  0
  -23.5334  -32.1427   23.7493 O   0  0  0  0  0  0
  -29.8333  -18.6977   22.8750 C   0  0  0  0  0  0
  -30.2178  -17.3439   22.8684 C   0  0  0  0  0  0
  -29.1004  -18.5096   20.5747 C   0  0  0  0  0  0
  -29.2703  -19.2996   21.7356 C   0  0  0  0  0  0
  -30.0380  -16.5267   21.7231 C   0  0  0  0  0  0
  -29.4636  -17.1379   20.5703 C   0  0  0  0  0  0
  -30.7256  -14.5247   23.0891 C   0  0  0  0  0  0
  -28.6202  -23.0270   21.2972 C   0  0  0  0  0  0
  -28.5251  -24.1833   20.2695 C   0  0  0  0  0  0
  -28.7690  -21.5867   20.7407 C   0  0  0  0  0  0
  -28.3776  -25.5587   20.9712 C   0  0  0  0  0  0
  -28.8736  -20.6449   21.8559 N   0  0  0  0  0  0
  -30.3932  -15.1233   21.7847 N   0  0  0  0  0  0
  -29.2123  -16.4097   19.4548 F   0  0  0  0  0  0
  -31.4594  -12.4248   19.0979 H   0  0  0  0  0  0
  -30.3204  -11.2980   19.7743 H   0  0  0  0  0  0
  -29.7304  -11.8398   17.3931 H   0  0  0  0  0  0
  -29.6454  -13.5395   17.7868 H   0  0  0  0  0  0
  -27.8281  -11.3200   18.7946 H   0  0  0  0  0  0
  -27.3561  -12.6603   17.7828 H   0  0  0  0  0  0
  -27.7095  -14.2570   19.5816 H   0  0  0  0  0  0
  -28.6621  -11.9468   21.3411 H   0  0  0  0  0  0
  -28.4293  -13.5895   21.8536 H   0  0  0  0  0  0
  -25.2758   -9.5705   22.4758 H   0  0  0  0  0  0
  -24.0017   -7.4651   22.7477 H   0  0  0  0  0  0
  -21.0860   -8.8765   19.8939 H   0  0  0  0  0  0
  -22.3700  -10.9679   19.6154 H   0  0  0  0  0  0
  -21.2002   -7.6145   23.9722 H   0  0  0  0  0  0
  -21.1482   -6.0522   25.9079 H   0  0  0  0  0  0
  -22.0596   -2.7613   23.2849 H   0  0  0  0  0  0
  -22.4136  -11.9909   22.4783 H   0  0  0  0  0  0
  -21.1118  -13.1245   22.2571 H   0  0  0  0  0  0
  -24.6781  -15.8537   20.5154 H   0  0  0  0  0  0
  -26.3001  -15.6185   20.1009 H   0  0  0  0  0  0
  -26.7106  -32.5549   23.1167 H   0  0  0  0  0  0
  -25.0029  -33.9790   25.0467 H   0  0  0  0  0  0
  -22.6916  -31.3049   21.4098 H   0  0  0  0  0  0
  -23.3779  -35.9606   23.3241 H   0  0  0  0  0  0
  -24.3592  -36.8998   22.2068 H   0  0  0  0  0  0
  -23.7184  -37.6465   23.6706 H   0  0  0  0  0  0
  -26.0418  -31.5986   20.5936 H   0  0  0  0  0  0
  -26.8179  -30.8883   21.9810 H   0  0  0  0  0  0
  -28.1081  -29.1149   21.1471 H   0  0  0  0  0  0
  -26.0707  -25.9536   19.0437 H   0  0  0  0  0  0
  -23.9780  -27.2751   19.0570 H   0  0  0  0  0  0
  -23.7137  -30.5875   19.4045 H   0  0  0  0  0  0
  -22.7347  -29.2321   19.8764 H   0  0  0  0  0  0
  -25.1269  -36.1987   25.0834 H   0  0  0  0  0  0
  -20.9934  -28.3204   24.1450 H   0  0  0  0  0  0
  -20.5652  -26.2253   23.3596 H   0  0  0  0  0  0
  -21.6620  -26.7419   22.1226 H   0  0  0  0  0  0
  -19.6883  -25.6285   21.1239 H   0  0  0  0  0  0
  -19.6665  -27.3195   20.6752 H   0  0  0  0  0  0
  -17.4172  -26.6688   21.4015 H   0  0  0  0  0  0
  -18.0280  -26.0045   22.9000 H   0  0  0  0  0  0
  -19.7920  -30.7266   24.2268 H   0  0  0  0  0  0
  -17.4999  -31.6268   24.5149 H   0  0  0  0  0  0
  -15.5341  -30.2987   23.7659 H   0  0  0  0  0  0
  -15.8646  -28.0818   22.7086 H   0  0  0  0  0  0
  -24.5924  -30.7010   25.7781 H   0  0  0  0  0  0
  -24.8917  -32.2805   26.4950 H   0  0  0  0  0  0
  -25.8100  -30.8803   27.0200 H   0  0  0  0  0  0
  -26.2864  -29.6802   24.1173 H   0  0  0  0  0  0
  -27.4117  -29.7308   25.4556 H   0  0  0  0  0  0
  -27.8682  -30.4392   23.9232 H   0  0  0  0  0  0
  -27.2629  -33.3624   26.2092 H   0  0  0  0  0  0
  -28.3836  -32.6903   25.0343 H   0  0  0  0  0  0
  -28.0686  -31.8456   26.5424 H   0  0  0  0  0  0
  -28.2551  -38.0159   24.7638 H   0  0  0  0  0  0
  -28.1174  -36.2705   24.6142 H   0  0  0  0  0  0
  -27.2337  -37.1268   25.8861 H   0  0  0  0  0  0
  -20.9287  -29.8770   21.6991 H   0  0  0  0  0  0
  -26.0179  -38.2872   24.1514 H   0  0  0  0  0  0
  -29.9749  -19.2710   23.7811 H   0  0  0  0  0  0
  -30.6466  -16.9557   23.7795 H   0  0  0  0  0  0
  -28.6532  -18.9301   19.6864 H   0  0  0  0  0  0
  -31.6829  -14.9014   23.4520 H   0  0  0  0  0  0
  -30.8025  -13.4359   23.0538 H   0  0  0  0  0  0
  -29.9567  -14.7536   23.8273 H   0  0  0  0  0  0
  -27.7350  -23.0658   21.9334 H   0  0  0  0  0  0
  -29.4662  -23.2336   21.9543 H   0  0  0  0  0  0
  -27.6783  -24.0187   19.6028 H   0  0  0  0  0  0
  -29.4175  -24.1888   19.6433 H   0  0  0  0  0  0
  -29.6570  -21.5122   20.1103 H   0  0  0  0  0  0
  -27.9072  -21.3326   20.1212 H   0  0  0  0  0  0
  -29.2127  -25.6974   21.6582 H   0  0  0  0  0  0
  -27.4821  -25.5511   21.5976 H   0  0  0  0  0  0
  -28.9867  -21.0655   22.7749 H   0  0  0  0  0  0
  1 25  1  0  0  0
  1 30  2  0  0  0
  1 83  1  0  0  0
  2  3  1  0  0  0
  2 25  1  0  0  0
  2 85  1  0  0  0
  2 86  1  0  0  0
  3  4  1  0  0  0
  3 87  1  0  0  0
  3 88  1  0  0  0
  4  5  1  0  0  0
  4 89  1  0  0  0
  4 90  1  0  0  0
  5  6  1  0  0  0
  5 26  1  0  0  0
  5 91  1  0  0  0
  6 25  1  0  0  0
  6 92  1  0  0  0
  6 93  1  0  0  0
  7  8  2  0  0  0
  7 26  1  0  0  0
  7 29  1  0  0  0
  8  9  1  0  0  0
  8 22  1  0  0  0
  9 10  1  0  0  0
  9 27  2  0  0  0
 10 11  2  0  0  0
 10 15  1  0  0  0
 11 12  1  0  0  0
 11 94  1  0  0  0
 12 13  2  0  0  0
 12 95  1  0  0  0
 13 14  1  0  0  0
 13 31  1  0  0  0
 14 15  2  0  0  0
 14 96  1  0  0  0
 15 97  1  0  0  0
 16 17  2  0  0  0
 16 21  1  0  0  0
 16 31  1  0  0  0
 17 18  1  0  0  0
 17 98  1  0  0  0
 18 19  2  0  0  0
 18 99  1  0  0  0
 19 20  1  0  0  0
 19 24  1  0  0  0
 20 21  2  0  0  0
 20100  1  0  0  0
 21 23  1  0  0  0
 22 28  1  0  0  0
 22 32  2  0  0  0
 26 27  1  0  0  0
 28101  1  0  0  0
 28102  1  0  0  0
 29103  1  0  0  0
 29104  1  0  0  0
 33 34  1  0  0  0
 33 66  1  0  0  0
 33 70  2  0  0  0
 34 36  1  0  0  0
 34 59  1  0  0  0
 34105  1  0  0  0
 35 44  2  0  0  0
 35 45  1  0  0  0
 35 68  1  0  0  0
 36 56  1  0  0  0
 36106  1  0  0  0
 37 39  1  0  0  0
 37 47  1  0  0  0
 37 66  1  0  0  0
 37107  1  0  0  0
 38 43  2  0  0  0
 38 46  1  0  0  0
 38 47  1  0  0  0
 39 64  1  0  0  0
 39 67  2  0  0  0
 40 52  1  0  0  0
 40 53  2  0  0  0
 40 58  1  0  0  0
 41108  1  0  0  0
 41109  1  0  0  0
 41110  1  0  0  0
 41 48  1  0  0  0
 42 43  1  0  0  0
 42 66  1  0  0  0
 42111  1  0  0  0
 42112  1  0  0  0
 43 44  1  0  0  0
 44113  1  0  0  0
 45 46  2  0  0  0
 45114  1  0  0  0
 46115  1  0  0  0
 47116  1  0  0  0
 47117  1  0  0  0
 48 56  1  0  0  0
 48 65  1  0  0  0
 48118  1  0  0  0
 49 50  1  0  0  0
 49 53  1  0  0  0
 49 64  1  0  0  0
 49119  1  0  0  0
 50 51  1  0  0  0
 50120  1  0  0  0
 50121  1  0  0  0
 51 52  1  0  0  0
 51122  1  0  0  0
 51123  1  0  0  0
 52124  1  0  0  0
 52125  1  0  0  0
 53 54  1  0  0  0
 54 55  2  0  0  0
 54126  1  0  0  0
 55 57  1  0  0  0
 55127  1  0  0  0
 56 69  2  0  0  0
 57 58  2  0  0  0
 57128  1  0  0  0
 58129  1  0  0  0
 59 60  1  0  0  0
 59 61  1  0  0  0
 59 62  1  0  0  0
 60130  1  0  0  0
 60131  1  0  0  0
 60132  1  0  0  0
 61133  1  0  0  0
 61134  1  0  0  0
 61135  1  0  0  0
 62136  1  0  0  0
 62137  1  0  0  0
 62138  1  0  0  0
 63 65  1  0  0  0
 63139  1  0  0  0
 63140  1  0  0  0
 63141  1  0  0  0
 64142  1  0  0  0
 65143  1  0  0  0
 68 81  1  0  0  0
 71 72  2  0  0  0
 71 74  1  0  0  0
 71144  1  0  0  0
 72 75  1  0  0  0
 72145  1  0  0  0
 73 74  2  0  0  0
 73 76  1  0  0  0
 73146  1  0  0  0
 74 82  1  0  0  0
 75 76  2  0  0  0
 75 83  1  0  0  0
 76 84  1  0  0  0
 77 83  1  0  0  0
 77147  1  0  0  0
 77148  1  0  0  0
 77149  1  0  0  0
 78 79  1  0  0  0
 78 80  1  0  0  0
 78150  1  0  0  0
 78151  1  0  0  0
 79 81  1  0  0  0
 79152  1  0  0  0
 79153  1  0  0  0
 80 82  1  0  0  0
 80154  1  0  0  0
 80155  1  0  0  0
 81156  1  0  0  0
 81157  1  0  0  0
 82158  1  0  0  0
M  ISO  4   1 100  68 101  81 101  83 100
M  END
> <chiral flag>
0

> <version>
0

> <s_m_source_file>
/data/baiqing/PycharmProjects/Reinvent-master-3.2/result/LINK_invent/BTK/process_docking_weight1_custom_product_contain_oxygen_bond_distance_aromatic_linkinvent_7_9_3/rearranged_h_0020.sdf

> <i_m_source_file_index>
50

> <r_mmod_Potential_Energy-OPLS-2005>
74.3653793334961

> <r_mmod_Stretch_Energy-OPLS-2005>
41.1148338317871

> <r_mmod_Bend_Energy-OPLS-2005>
109.211280822754

> <r_mmod_Torsional_Energy-OPLS-2005>
292.225158691406

> <r_mmod_Improper_Torsional_Energy-OPLS-2005>
4.42761898040771

> <r_mmod_Van_der_Waal_Energy-OPLS-2005>
154.805450439453

> <r_mmod_Electrostatic_Energy-OPLS-2005>
-340.940155029297

> <r_mmod_Solvation_Energy-OPLS-2005>
-195.39485168457

> <b_mmod_Minimization_Converged-OPLS-2005>
0

> <r_mmod_RMS_Derivative-OPLS-2005>
1.46040761470795

$$$$
51
                    3D
 Structure written by MMmdl.
162171  0  0  1  0            999 V2000
  -30.7503  -14.4604   20.6273 C   0  0  0  0  0  0
  -30.4108  -12.3262   19.4191 C   0  0  0  0  0  0
  -29.4820  -12.5115   18.2042 C   0  0  0  0  0  0
  -28.0101  -12.3520   18.6238 C   0  0  0  0  0  0
  -27.6550  -13.2035   19.8694 C   0  0  2  0  0  0
  -28.6979  -13.0090   20.9943 C   0  0  0  0  0  0
  -25.2569  -13.8155   20.5687 C   0  0  0  0  0  0
  -24.1819  -13.0433   20.9185 C   0  0  0  0  0  0
  -24.6372  -11.6901   20.8743 C   0  0  0  0  0  0
  -23.9040  -10.4289   21.0412 C   0  0  0  0  0  0
  -24.3598   -9.4208   21.9189 C   0  0  0  0  0  0
  -23.6281   -8.2240   22.0755 C   0  0  0  0  0  0
  -22.4268   -8.0274   21.3540 C   0  0  0  0  0  0
  -21.9896   -9.0245   20.4644 C   0  0  0  0  0  0
  -22.7216  -10.2130   20.3058 C   0  0  0  0  0  0
  -21.6848   -6.0730   22.5277 C   0  0  0  0  0  0
  -21.4012   -6.5636   23.8210 C   0  0  0  0  0  0
  -21.3661   -5.6789   24.9172 C   0  0  0  0  0  0
  -21.6045   -4.3051   24.7223 C   0  0  0  0  0  0
  -21.8820   -3.8143   23.4345 C   0  0  0  0  0  0
  -21.9192   -4.6958   22.3401 C   0  0  0  0  0  0
  -22.7847  -13.5239   21.1847 C   0  0  0  0  0  0
  -22.1660   -4.2144   21.0978 F   0  0  0  0  0  0
  -21.5630   -3.4537   25.7739 F   0  0  0  0  0  0
  -30.0311  -13.3132   20.4472 N   0  0  0  0  0  0
  -26.2988  -12.9314   20.3354 N   0  0  0  0  0  0
  -25.9299  -11.6480   20.5777 N   0  0  0  0  0  0
  -22.0488  -12.8234   22.0407 N   0  0  0  0  0  0
  -25.4285  -15.1872   20.4086 N   0  0  0  0  0  0
  -31.8214  -14.6551   20.0419 O   0  0  0  0  0  0
  -21.6635   -6.8872   21.4238 O   0  0  0  0  0  0
  -22.3540  -14.5548   20.6701 O   0  0  0  0  0  0
  -24.6176  -31.8662   23.2106 C   0  0  0  0  0  0
  -25.9064  -32.4805   23.8396 C   0  0  1  0  0  0
  -27.2264  -27.4069   20.0958 C   0  0  0  0  0  0
  -25.5920  -33.8605   24.2320 N   0  0  0  0  0  0
  -23.4047  -30.4926   21.5520 C   0  0  2  0  0  0
  -24.8491  -28.9625   20.1102 C   0  0  0  0  0  0
  -22.7424  -29.4646   22.4978 C   0  0  0  0  0  0
  -18.0272  -28.1371   22.8476 C   0  0  0  0  0  0
  -24.1482  -36.7312   23.2634 C   0  0  0  0  0  0
  -25.9376  -30.8222   21.3702 C   0  0  0  0  0  0
  -26.0122  -29.4572   20.7130 C   0  0  0  0  0  0
  -27.2013  -28.6870   20.7048 C   0  0  0  0  0  0
  -26.0421  -26.9475   19.4678 C   0  0  0  0  0  0
  -24.8609  -27.7077   19.4840 C   0  0  0  0  0  0
  -23.6133  -29.8318   20.1640 C   0  0  0  0  0  0
  -25.4104  -36.3097   24.0330 C   0  0  1  0  0  0
  -20.5862  -28.3657   23.1305 C   0  0  2  0  0  0
  -20.6758  -26.9388   22.5413 C   0  0  0  0  0  0
  -19.5743  -26.6378   21.5200 C   0  0  0  0  0  0
  -18.1918  -26.7914   22.1608 C   0  0  0  0  0  0
  -19.1521  -28.8832   23.2884 C   0  0  0  0  0  0
  -18.9454  -30.1441   23.8887 C   0  0  0  0  0  0
  -17.6456  -30.6575   24.0561 C   0  0  0  0  0  0
  -25.9043  -34.9462   23.5121 C   0  0  0  0  0  0
  -16.5345  -29.9079   23.6325 C   0  0  0  0  0  0
  -16.7262  -28.6500   23.0337 C   0  0  0  0  0  0
  -26.4486  -31.6593   25.0732 C   0  0  0  0  0  0
  -25.3750  -31.3706   26.1481 C   0  0  0  0  0  0
  -27.0328  -30.3030   24.6136 C   0  0  0  0  0  0
  -27.6049  -32.4326   25.7501 C   0  0  0  0  0  0
  -27.5577  -37.1806   24.8461 C   0  0  0  0  0  0
  -21.4149  -29.3027   22.3719 N   0  0  0  0  0  0
  -26.4287  -37.3787   23.9406 N   0  0  0  0  0  0
  -24.6714  -31.0749   22.1019 N   0  0  0  0  0  0
  -23.4187  -28.8176   23.3020 O   0  0  0  0  0  0
  -28.3820  -26.6379   20.1428 O   0  0  0  0  0  0
  -26.5596  -34.8910   22.4679 O   0  0  0  0  0  0
  -23.5368  -32.1433   23.7490 O   0  0  0  0  0  0
  -29.5142  -18.4336   20.1446 C   0  0  0  0  0  0
  -29.6198  -19.8458   20.0932 C   0  0  0  0  0  0
  -29.6880  -19.9255   22.5068 C   0  0  0  0  0  0
  -29.4604  -17.7507   21.3814 C   0  0  0  0  0  0
  -29.6953  -20.6260   21.2738 C   0  0  0  0  0  0
  -29.5500  -18.5206   22.5637 C   0  0  0  0  0  0
  -29.2699  -24.2470   22.0333 C   0  0  0  0  0  0
  -29.8606  -22.8814   22.4114 C   0  0  0  0  0  0
  -29.2279  -22.8255   20.1013 C   0  0  0  0  0  0
  -29.3409  -24.3183   20.5033 C   0  0  1  0  0  0
  -31.3572  -15.7500   22.5773 C   0  0  0  0  0  0
  -29.1967  -16.2307   21.4331 C   0  0  0  0  0  0
  -28.2511  -25.2233   19.8668 C   0  0  0  0  0  0
  -29.7776  -22.0466   21.2147 N   0  0  0  0  0  0
  -30.3512  -15.3139   21.6043 N   0  0  0  0  0  0
  -29.4732  -17.9183   23.7743 F   0  0  0  0  0  0
  -31.4538  -12.4161   19.1109 H   0  0  0  0  0  0
  -30.3124  -11.3169   19.8219 H   0  0  0  0  0  0
  -29.7270  -11.7861   17.4277 H   0  0  0  0  0  0
  -29.6360  -13.4979   17.7643 H   0  0  0  0  0  0
  -27.8376  -11.2959   18.8361 H   0  0  0  0  0  0
  -27.3496  -12.6050   17.7934 H   0  0  0  0  0  0
  -27.6854  -14.2411   19.5440 H   0  0  0  0  0  0
  -28.6796  -11.9789   21.3522 H   0  0  0  0  0  0
  -28.4466  -13.6176   21.8624 H   0  0  0  0  0  0
  -25.2744   -9.5690   22.4762 H   0  0  0  0  0  0
  -23.9990   -7.4637   22.7480 H   0  0  0  0  0  0
  -21.0825   -8.8760   19.8954 H   0  0  0  0  0  0
  -22.3670  -10.9668   19.6167 H   0  0  0  0  0  0
  -21.2005   -7.6144   23.9710 H   0  0  0  0  0  0
  -21.1483   -6.0521   25.9075 H   0  0  0  0  0  0
  -22.0599   -2.7606   23.2847 H   0  0  0  0  0  0
  -22.4096  -11.9886   22.4780 H   0  0  0  0  0  0
  -21.1120  -13.1282   22.2639 H   0  0  0  0  0  0
  -24.6583  -15.8393   20.5110 H   0  0  0  0  0  0
  -26.2750  -15.6267   20.0718 H   0  0  0  0  0  0
  -26.7130  -32.5498   23.1152 H   0  0  0  0  0  0
  -25.0071  -33.9760   25.0467 H   0  0  0  0  0  0
  -22.6936  -31.3102   21.4163 H   0  0  0  0  0  0
  -23.3732  -35.9659   23.3307 H   0  0  0  0  0  0
  -24.3576  -36.8929   22.2049 H   0  0  0  0  0  0
  -23.7257  -37.6524   23.6654 H   0  0  0  0  0  0
  -26.0580  -31.5891   20.6038 H   0  0  0  0  0  0
  -26.8230  -30.8711   21.9927 H   0  0  0  0  0  0
  -28.0955  -29.0605   21.1840 H   0  0  0  0  0  0
  -26.0010  -25.9974   18.9561 H   0  0  0  0  0  0
  -23.9694  -27.3245   19.0060 H   0  0  0  0  0  0
  -23.7235  -30.6103   19.4079 H   0  0  0  0  0  0
  -22.7355  -29.2561   19.8640 H   0  0  0  0  0  0
  -25.1282  -36.1951   25.0825 H   0  0  0  0  0  0
  -20.9939  -28.3219   24.1435 H   0  0  0  0  0  0
  -20.5651  -26.2259   23.3598 H   0  0  0  0  0  0
  -21.6631  -26.7429   22.1213 H   0  0  0  0  0  0
  -19.6901  -25.6293   21.1224 H   0  0  0  0  0  0
  -19.6683  -27.3188   20.6725 H   0  0  0  0  0  0
  -17.4183  -26.6653   21.4012 H   0  0  0  0  0  0
  -18.0327  -26.0054   22.9004 H   0  0  0  0  0  0
  -19.7936  -30.7256   24.2244 H   0  0  0  0  0  0
  -17.5018  -31.6251   24.5171 H   0  0  0  0  0  0
  -15.5349  -30.2979   23.7666 H   0  0  0  0  0  0
  -15.8656  -28.0835   22.7037 H   0  0  0  0  0  0
  -24.5922  -30.7049   25.7830 H   0  0  0  0  0  0
  -24.8938  -32.2863   26.4928 H   0  0  0  0  0  0
  -25.8107  -30.8884   27.0241 H   0  0  0  0  0  0
  -26.2884  -29.6779   24.1187 H   0  0  0  0  0  0
  -27.4087  -29.7279   25.4610 H   0  0  0  0  0  0
  -27.8727  -30.4340   23.9306 H   0  0  0  0  0  0
  -27.2656  -33.3620   26.2087 H   0  0  0  0  0  0
  -28.3858  -32.6900   25.0334 H   0  0  0  0  0  0
  -28.0716  -31.8447   26.5417 H   0  0  0  0  0  0
  -28.2590  -38.0107   24.7510 H   0  0  0  0  0  0
  -28.1076  -36.2636   24.6284 H   0  0  0  0  0  0
  -27.2292  -37.1462   25.8864 H   0  0  0  0  0  0
  -20.9305  -29.8785   21.6975 H   0  0  0  0  0  0
  -26.0166  -38.2860   24.1419 H   0  0  0  0  0  0
  -29.4370  -17.8796   19.2197 H   0  0  0  0  0  0
  -29.6399  -20.3204   19.1228 H   0  0  0  0  0  0
  -29.7570  -20.4447   23.4486 H   0  0  0  0  0  0
  -29.7909  -25.0742   22.5171 H   0  0  0  0  0  0
  -28.2294  -24.2843   22.3616 H   0  0  0  0  0  0
  -29.3094  -22.4740   23.2594 H   0  0  0  0  0  0
  -30.9067  -22.9810   22.7073 H   0  0  0  0  0  0
  -29.7656  -22.6352   19.1710 H   0  0  0  0  0  0
  -28.1844  -22.5444   19.9461 H   0  0  0  0  0  0
  -30.3288  -24.6780   20.2126 H   0  0  0  0  0  0
  -30.8950  -15.9925   23.5328 H   0  0  0  0  0  0
  -31.8992  -16.6243   22.2150 H   0  0  0  0  0  0
  -32.0891  -14.9648   22.7758 H   0  0  0  0  0  0
  -28.6473  -15.9742   20.5287 H   0  0  0  0  0  0
  -28.4996  -16.0402   22.2498 H   0  0  0  0  0  0
  -27.2974  -24.8422   20.2352 H   0  0  0  0  0  0
  -28.2525  -25.0871   18.7842 H   0  0  0  0  0  0
  1 25  1  0  0  0
  1 30  2  0  0  0
  1 85  1  0  0  0
  2  3  1  0  0  0
  2 25  1  0  0  0
  2 87  1  0  0  0
  2 88  1  0  0  0
  3  4  1  0  0  0
  3 89  1  0  0  0
  3 90  1  0  0  0
  4  5  1  0  0  0
  4 91  1  0  0  0
  4 92  1  0  0  0
  5  6  1  0  0  0
  5 26  1  0  0  0
  5 93  1  0  0  0
  6 25  1  0  0  0
  6 94  1  0  0  0
  6 95  1  0  0  0
  7  8  2  0  0  0
  7 26  1  0  0  0
  7 29  1  0  0  0
  8  9  1  0  0  0
  8 22  1  0  0  0
  9 10  1  0  0  0
  9 27  2  0  0  0
 10 11  2  0  0  0
 10 15  1  0  0  0
 11 12  1  0  0  0
 11 96  1  0  0  0
 12 13  2  0  0  0
 12 97  1  0  0  0
 13 14  1  0  0  0
 13 31  1  0  0  0
 14 15  2  0  0  0
 14 98  1  0  0  0
 15 99  1  0  0  0
 16 17  2  0  0  0
 16 21  1  0  0  0
 16 31  1  0  0  0
 17 18  1  0  0  0
 17100  1  0  0  0
 18 19  2  0  0  0
 18101  1  0  0  0
 19 20  1  0  0  0
 19 24  1  0  0  0
 20 21  2  0  0  0
 20102  1  0  0  0
 21 23  1  0  0  0
 22 28  1  0  0  0
 22 32  2  0  0  0
 26 27  1  0  0  0
 28103  1  0  0  0
 28104  1  0  0  0
 29105  1  0  0  0
 29106  1  0  0  0
 33 34  1  0  0  0
 33 66  1  0  0  0
 33 70  2  0  0  0
 34 36  1  0  0  0
 34 59  1  0  0  0
 34107  1  0  0  0
 35 44  2  0  0  0
 35 45  1  0  0  0
 35 68  1  0  0  0
 36 56  1  0  0  0
 36108  1  0  0  0
 37 39  1  0  0  0
 37 47  1  0  0  0
 37 66  1  0  0  0
 37109  1  0  0  0
 38 43  2  0  0  0
 38 46  1  0  0  0
 38 47  1  0  0  0
 39 64  1  0  0  0
 39 67  2  0  0  0
 40 52  1  0  0  0
 40 53  2  0  0  0
 40 58  1  0  0  0
 41110  1  0  0  0
 41111  1  0  0  0
 41112  1  0  0  0
 41 48  1  0  0  0
 42 43  1  0  0  0
 42 66  1  0  0  0
 42113  1  0  0  0
 42114  1  0  0  0
 43 44  1  0  0  0
 44115  1  0  0  0
 45 46  2  0  0  0
 45116  1  0  0  0
 46117  1  0  0  0
 47118  1  0  0  0
 47119  1  0  0  0
 48 56  1  0  0  0
 48 65  1  0  0  0
 48120  1  0  0  0
 49 50  1  0  0  0
 49 53  1  0  0  0
 49 64  1  0  0  0
 49121  1  0  0  0
 50 51  1  0  0  0
 50122  1  0  0  0
 50123  1  0  0  0
 51 52  1  0  0  0
 51124  1  0  0  0
 51125  1  0  0  0
 52126  1  0  0  0
 52127  1  0  0  0
 53 54  1  0  0  0
 54 55  2  0  0  0
 54128  1  0  0  0
 55 57  1  0  0  0
 55129  1  0  0  0
 56 69  2  0  0  0
 57 58  2  0  0  0
 57130  1  0  0  0
 58131  1  0  0  0
 59 60  1  0  0  0
 59 61  1  0  0  0
 59 62  1  0  0  0
 60132  1  0  0  0
 60133  1  0  0  0
 60134  1  0  0  0
 61135  1  0  0  0
 61136  1  0  0  0
 61137  1  0  0  0
 62138  1  0  0  0
 62139  1  0  0  0
 62140  1  0  0  0
 63 65  1  0  0  0
 63141  1  0  0  0
 63142  1  0  0  0
 63143  1  0  0  0
 64144  1  0  0  0
 65145  1  0  0  0
 68 83  1  0  0  0
 71 72  2  0  0  0
 71 74  1  0  0  0
 71146  1  0  0  0
 72 75  1  0  0  0
 72147  1  0  0  0
 73 75  2  0  0  0
 73 76  1  0  0  0
 73148  1  0  0  0
 74 76  2  0  0  0
 74 82  1  0  0  0
 75 84  1  0  0  0
 76 86  1  0  0  0
 77 78  1  0  0  0
 77 80  1  0  0  0
 77149  1  0  0  0
 77150  1  0  0  0
 78 84  1  0  0  0
 78151  1  0  0  0
 78152  1  0  0  0
 79 80  1  0  0  0
 79 84  1  0  0  0
 79153  1  0  0  0
 79154  1  0  0  0
 80 83  1  0  0  0
 80155  1  0  0  0
 81 85  1  0  0  0
 81156  1  0  0  0
 81157  1  0  0  0
 81158  1  0  0  0
 82 85  1  0  0  0
 82159  1  0  0  0
 82160  1  0  0  0
 83161  1  0  0  0
 83162  1  0  0  0
M  ISO  4   1 100  68 101  83 101  85 100
M  END
> <chiral flag>
0

> <version>
0

> <s_m_source_file>
/data/baiqing/PycharmProjects/Reinvent-master-3.2/result/LINK_invent/BTK/process_docking_weight1_custom_product_contain_oxygen_bond_distance_aromatic_linkinvent_7_9_3/rearranged_h_0020.sdf

> <i_m_source_file_index>
51

> <r_mmod_Potential_Energy-OPLS-2005>
177.601593017578

> <r_mmod_Stretch_Energy-OPLS-2005>
44.8051261901855

> <r_mmod_Bend_Energy-OPLS-2005>
140.920883178711

> <r_mmod_Torsional_Energy-OPLS-2005>
318.423889160156

> <r_mmod_Improper_Torsional_Energy-OPLS-2005>
7.2211971282959

> <r_mmod_Van_der_Waal_Energy-OPLS-2005>
158.589126586914

> <r_mmod_Electrostatic_Energy-OPLS-2005>
-293.203277587891

> <r_mmod_Solvation_Energy-OPLS-2005>
-214.374557495117

> <b_mmod_Minimization_Converged-OPLS-2005>
0

> <r_mmod_RMS_Derivative-OPLS-2005>
1.09947180747986

$$$$
52
                    3D
 Structure written by MMmdl.
158166  0  0  1  0            999 V2000
  -30.6445  -14.6604   20.5996 C   0  0  0  0  0  0
  -30.4296  -12.4384   19.4619 C   0  0  0  0  0  0
  -29.5113  -12.5690   18.2276 C   0  0  0  0  0  0
  -28.0338  -12.3805   18.6276 C   0  0  0  0  0  0
  -27.6490  -13.2306   19.8657 C   0  0  2  0  0  0
  -28.6836  -13.0735   20.9961 C   0  0  0  0  0  0
  -25.2539  -13.8180   20.5754 C   0  0  0  0  0  0
  -24.1804  -13.0425   20.9163 C   0  0  0  0  0  0
  -24.6396  -11.6900   20.8666 C   0  0  0  0  0  0
  -23.9062  -10.4287   21.0347 C   0  0  0  0  0  0
  -24.3659   -9.4200   21.9104 C   0  0  0  0  0  0
  -23.6339   -8.2230   22.0685 C   0  0  0  0  0  0
  -22.4288   -8.0286   21.3516 C   0  0  0  0  0  0
  -21.9878   -9.0257   20.4633 C   0  0  0  0  0  0
  -22.7199  -10.2141   20.3034 C   0  0  0  0  0  0
  -21.6865   -6.0744   22.5277 C   0  0  0  0  0  0
  -21.4022   -6.5645   23.8204 C   0  0  0  0  0  0
  -21.3655   -5.6798   24.9167 C   0  0  0  0  0  0
  -21.6040   -4.3064   24.7217 C   0  0  0  0  0  0
  -21.8799   -3.8150   23.4337 C   0  0  0  0  0  0
  -21.9180   -4.6965   22.3398 C   0  0  0  0  0  0
  -22.7837  -13.5213   21.1884 C   0  0  0  0  0  0
  -22.1657   -4.2149   21.0985 F   0  0  0  0  0  0
  -21.5648   -3.4557   25.7738 F   0  0  0  0  0  0
  -30.0010  -13.4486   20.4582 N   0  0  0  0  0  0
  -26.2967  -12.9391   20.3294 N   0  0  0  0  0  0
  -25.9325  -11.6513   20.5636 N   0  0  0  0  0  0
  -22.0577  -12.8222   22.0544 N   0  0  0  0  0  0
  -25.4241  -15.1924   20.4432 N   0  0  0  0  0  0
  -31.7419  -14.8414   20.0601 O   0  0  0  0  0  0
  -21.6643   -6.8893   21.4239 O   0  0  0  0  0  0
  -22.3453  -14.5490   20.6732 O   0  0  0  0  0  0
  -24.6267  -31.8599   23.2008 C   0  0  0  0  0  0
  -25.9107  -32.4782   23.8340 C   0  0  1  0  0  0
  -27.2282  -27.3216   20.1255 C   0  0  0  0  0  0
  -25.5929  -33.8583   24.2272 N   0  0  0  0  0  0
  -23.4189  -30.4816   21.5427 C   0  0  2  0  0  0
  -24.8675  -28.9287   20.1151 C   0  0  0  0  0  0
  -22.7468  -29.4630   22.4936 C   0  0  0  0  0  0
  -18.0285  -28.1397   22.8480 C   0  0  0  0  0  0
  -24.1475  -36.7291   23.2634 C   0  0  0  0  0  0
  -25.9568  -30.7931   21.3667 C   0  0  0  0  0  0
  -26.0348  -29.4174   20.7144 C   0  0  0  0  0  0
  -27.2223  -28.6271   20.7044 C   0  0  0  0  0  0
  -26.0409  -26.8758   19.5098 C   0  0  0  0  0  0
  -24.8719  -27.6648   19.5020 C   0  0  0  0  0  0
  -23.6342  -29.8099   20.1598 C   0  0  0  0  0  0
  -25.4103  -36.3091   24.0325 C   0  0  1  0  0  0
  -20.5889  -28.3704   23.1286 C   0  0  2  0  0  0
  -20.6771  -26.9430   22.5418 C   0  0  0  0  0  0
  -19.5748  -26.6397   21.5215 C   0  0  0  0  0  0
  -18.1924  -26.7938   22.1626 C   0  0  0  0  0  0
  -19.1536  -28.8863   23.2880 C   0  0  0  0  0  0
  -18.9464  -30.1468   23.8901 C   0  0  0  0  0  0
  -17.6461  -30.6596   24.0572 C   0  0  0  0  0  0
  -25.9047  -34.9460   23.5100 C   0  0  0  0  0  0
  -16.5355  -29.9097   23.6325 C   0  0  0  0  0  0
  -16.7272  -28.6517   23.0337 C   0  0  0  0  0  0
  -26.4498  -31.6604   25.0705 C   0  0  0  0  0  0
  -25.3738  -31.3778   26.1446 C   0  0  0  0  0  0
  -27.0318  -30.3020   24.6153 C   0  0  0  0  0  0
  -27.6064  -32.4332   25.7471 C   0  0  0  0  0  0
  -27.5579  -37.1804   24.8467 C   0  0  0  0  0  0
  -21.4180  -29.3054   22.3666 N   0  0  0  0  0  0
  -26.4283  -37.3782   23.9415 N   0  0  0  0  0  0
  -24.6857  -31.0610   22.0950 N   0  0  0  0  0  0
  -23.4185  -28.8191   23.3031 O   0  0  0  0  0  0
  -28.3509  -26.4868   20.1218 O   0  0  0  0  0  0
  -26.5610  -34.8928   22.4664 O   0  0  0  0  0  0
  -23.5431  -32.1401   23.7348 O   0  0  0  0  0  0
  -29.7564  -19.5404   21.4015 C   0  0  0  0  0  0
  -30.0514  -18.1917   21.7667 C   0  0  0  0  0  0
  -29.0416  -18.7627   19.2545 C   0  0  0  0  0  0
  -29.2343  -19.8715   20.1291 C   0  0  0  0  0  0
  -29.8399  -17.0671   20.9046 C   0  0  0  0  0  0
  -29.3285  -17.4076   19.6208 C   0  0  0  0  0  0
  -28.8119  -15.8073   23.5639 C   0  0  0  0  0  0
  -28.6505  -23.8420   19.8146 C   0  0  0  0  0  0
  -30.1181  -15.4369   22.8207 C   0  0  0  0  0  0
  -28.7877  -22.4300   20.5660 C   0  0  0  0  0  0
  -28.2115  -25.1171   20.6708 C   0  0  0  0  0  0
  -28.9231  -21.2126   19.7023 N   0  0  0  0  0  0
  -30.0583  -15.6662   21.3565 N   0  0  0  0  0  0
  -29.0630  -16.4187   18.7316 F   0  0  0  0  0  0
  -31.4752  -12.5592   19.1723 H   0  0  0  0  0  0
  -30.3614  -11.4375   19.8915 H   0  0  0  0  0  0
  -29.7926  -11.8472   17.4608 H   0  0  0  0  0  0
  -29.6430  -13.5571   17.7815 H   0  0  0  0  0  0
  -27.8793  -11.3223   18.8370 H   0  0  0  0  0  0
  -27.3831  -12.6286   17.7876 H   0  0  0  0  0  0
  -27.6676  -14.2717   19.5453 H   0  0  0  0  0  0
  -28.7049  -12.0473   21.3660 H   0  0  0  0  0  0
  -28.3906  -13.6801   21.8453 H   0  0  0  0  0  0
  -25.2843   -9.5696   22.4610 H   0  0  0  0  0  0
  -24.0077   -7.4622   22.7382 H   0  0  0  0  0  0
  -21.0757   -8.8803   19.9002 H   0  0  0  0  0  0
  -22.3629  -10.9695   19.6171 H   0  0  0  0  0  0
  -21.2027   -7.6158   23.9706 H   0  0  0  0  0  0
  -21.1510   -6.0555   25.9067 H   0  0  0  0  0  0
  -22.0581   -2.7610   23.2862 H   0  0  0  0  0  0
  -22.4340  -11.9984   22.5003 H   0  0  0  0  0  0
  -21.1238  -13.1257   22.2894 H   0  0  0  0  0  0
  -24.6750  -15.8470   20.6373 H   0  0  0  0  0  0
  -26.3095  -15.6437   20.2524 H   0  0  0  0  0  0
  -26.7173  -32.5466   23.1089 H   0  0  0  0  0  0
  -25.0088  -33.9719   25.0429 H   0  0  0  0  0  0
  -22.7130  -31.3024   21.3962 H   0  0  0  0  0  0
  -23.3739  -35.9623   23.3298 H   0  0  0  0  0  0
  -24.3576  -36.8900   22.2052 H   0  0  0  0  0  0
  -23.7206  -37.6491   23.6634 H   0  0  0  0  0  0
  -26.0760  -31.5510   20.5912 H   0  0  0  0  0  0
  -26.8417  -30.8553   21.9870 H   0  0  0  0  0  0
  -28.1221  -29.0004   21.1724 H   0  0  0  0  0  0
  -26.0144  -25.9033   19.0388 H   0  0  0  0  0  0
  -23.9787  -27.2852   19.0268 H   0  0  0  0  0  0
  -23.7573  -30.5812   19.3992 H   0  0  0  0  0  0
  -22.7538  -29.2410   19.8573 H   0  0  0  0  0  0
  -25.1273  -36.1949   25.0812 H   0  0  0  0  0  0
  -20.9994  -28.3294   24.1407 H   0  0  0  0  0  0
  -20.5671  -26.2320   23.3627 H   0  0  0  0  0  0
  -21.6637  -26.7453   22.1224 H   0  0  0  0  0  0
  -19.6910  -25.6308   21.1241 H   0  0  0  0  0  0
  -19.6680  -27.3206   20.6745 H   0  0  0  0  0  0
  -17.4201  -26.6691   21.4027 H   0  0  0  0  0  0
  -18.0333  -26.0079   22.9020 H   0  0  0  0  0  0
  -19.7938  -30.7279   24.2277 H   0  0  0  0  0  0
  -17.5015  -31.6282   24.5183 H   0  0  0  0  0  0
  -15.5359  -30.3009   23.7643 H   0  0  0  0  0  0
  -15.8669  -28.0853   22.7040 H   0  0  0  0  0  0
  -24.5910  -30.7100   25.7819 H   0  0  0  0  0  0
  -24.8934  -32.2967   26.4831 H   0  0  0  0  0  0
  -25.8096  -30.9020   27.0240 H   0  0  0  0  0  0
  -26.2895  -29.6782   24.1153 H   0  0  0  0  0  0
  -27.3979  -29.7262   25.4668 H   0  0  0  0  0  0
  -27.8769  -30.4294   23.9378 H   0  0  0  0  0  0
  -27.2691  -33.3647   26.2024 H   0  0  0  0  0  0
  -28.3894  -32.6867   25.0312 H   0  0  0  0  0  0
  -28.0680  -31.8455   26.5415 H   0  0  0  0  0  0
  -28.2607  -38.0092   24.7516 H   0  0  0  0  0  0
  -28.1058  -36.2632   24.6277 H   0  0  0  0  0  0
  -27.2308  -37.1438   25.8870 H   0  0  0  0  0  0
  -20.9366  -29.8772   21.6864 H   0  0  0  0  0  0
  -26.0167  -38.2848   24.1438 H   0  0  0  0  0  0
  -29.9356  -20.3221   22.1257 H   0  0  0  0  0  0
  -30.4386  -18.0502   22.7629 H   0  0  0  0  0  0
  -28.6478  -18.9402   18.2646 H   0  0  0  0  0  0
  -27.9337  -15.3170   23.1464 H   0  0  0  0  0  0
  -28.6040  -16.8762   23.5630 H   0  0  0  0  0  0
  -28.8750  -15.5015   24.6080 H   0  0  0  0  0  0
  -27.9370  -23.7424   18.9960 H   0  0  0  0  0  0
  -29.6094  -24.0661   19.3455 H   0  0  0  0  0  0
  -30.3485  -14.3941   23.0513 H   0  0  0  0  0  0
  -30.9596  -15.9897   23.2418 H   0  0  0  0  0  0
  -27.9128  -22.2882   21.2026 H   0  0  0  0  0  0
  -29.6434  -22.4818   21.2425 H   0  0  0  0  0  0
  -28.8151  -25.1131   21.5782 H   0  0  0  0  0  0
  -27.1922  -24.9544   21.0235 H   0  0  0  0  0  0
  -28.4588  -21.2816   18.7976 H   0  0  0  0  0  0
  1 25  1  0  0  0
  1 30  2  0  0  0
  1 83  1  0  0  0
  2  3  1  0  0  0
  2 25  1  0  0  0
  2 85  1  0  0  0
  2 86  1  0  0  0
  3  4  1  0  0  0
  3 87  1  0  0  0
  3 88  1  0  0  0
  4  5  1  0  0  0
  4 89  1  0  0  0
  4 90  1  0  0  0
  5  6  1  0  0  0
  5 26  1  0  0  0
  5 91  1  0  0  0
  6 25  1  0  0  0
  6 92  1  0  0  0
  6 93  1  0  0  0
  7  8  2  0  0  0
  7 26  1  0  0  0
  7 29  1  0  0  0
  8  9  1  0  0  0
  8 22  1  0  0  0
  9 10  1  0  0  0
  9 27  2  0  0  0
 10 11  2  0  0  0
 10 15  1  0  0  0
 11 12  1  0  0  0
 11 94  1  0  0  0
 12 13  2  0  0  0
 12 95  1  0  0  0
 13 14  1  0  0  0
 13 31  1  0  0  0
 14 15  2  0  0  0
 14 96  1  0  0  0
 15 97  1  0  0  0
 16 17  2  0  0  0
 16 21  1  0  0  0
 16 31  1  0  0  0
 17 18  1  0  0  0
 17 98  1  0  0  0
 18 19  2  0  0  0
 18 99  1  0  0  0
 19 20  1  0  0  0
 19 24  1  0  0  0
 20 21  2  0  0  0
 20100  1  0  0  0
 21 23  1  0  0  0
 22 28  1  0  0  0
 22 32  2  0  0  0
 26 27  1  0  0  0
 28101  1  0  0  0
 28102  1  0  0  0
 29103  1  0  0  0
 29104  1  0  0  0
 33 34  1  0  0  0
 33 66  1  0  0  0
 33 70  2  0  0  0
 34 36  1  0  0  0
 34 59  1  0  0  0
 34105  1  0  0  0
 35 44  2  0  0  0
 35 45  1  0  0  0
 35 68  1  0  0  0
 36 56  1  0  0  0
 36106  1  0  0  0
 37 39  1  0  0  0
 37 47  1  0  0  0
 37 66  1  0  0  0
 37107  1  0  0  0
 38 43  2  0  0  0
 38 46  1  0  0  0
 38 47  1  0  0  0
 39 64  1  0  0  0
 39 67  2  0  0  0
 40 52  1  0  0  0
 40 53  2  0  0  0
 40 58  1  0  0  0
 41108  1  0  0  0
 41109  1  0  0  0
 41110  1  0  0  0
 41 48  1  0  0  0
 42 43  1  0  0  0
 42 66  1  0  0  0
 42111  1  0  0  0
 42112  1  0  0  0
 43 44  1  0  0  0
 44113  1  0  0  0
 45 46  2  0  0  0
 45114  1  0  0  0
 46115  1  0  0  0
 47116  1  0  0  0
 47117  1  0  0  0
 48 56  1  0  0  0
 48 65  1  0  0  0
 48118  1  0  0  0
 49 50  1  0  0  0
 49 53  1  0  0  0
 49 64  1  0  0  0
 49119  1  0  0  0
 50 51  1  0  0  0
 50120  1  0  0  0
 50121  1  0  0  0
 51 52  1  0  0  0
 51122  1  0  0  0
 51123  1  0  0  0
 52124  1  0  0  0
 52125  1  0  0  0
 53 54  1  0  0  0
 54 55  2  0  0  0
 54126  1  0  0  0
 55 57  1  0  0  0
 55127  1  0  0  0
 56 69  2  0  0  0
 57 58  2  0  0  0
 57128  1  0  0  0
 58129  1  0  0  0
 59 60  1  0  0  0
 59 61  1  0  0  0
 59 62  1  0  0  0
 60130  1  0  0  0
 60131  1  0  0  0
 60132  1  0  0  0
 61133  1  0  0  0
 61134  1  0  0  0
 61135  1  0  0  0
 62136  1  0  0  0
 62137  1  0  0  0
 62138  1  0  0  0
 63 65  1  0  0  0
 63139  1  0  0  0
 63140  1  0  0  0
 63141  1  0  0  0
 64142  1  0  0  0
 65143  1  0  0  0
 68 81  1  0  0  0
 71 72  2  0  0  0
 71 74  1  0  0  0
 71144  1  0  0  0
 72 75  1  0  0  0
 72145  1  0  0  0
 73 74  2  0  0  0
 73 76  1  0  0  0
 73146  1  0  0  0
 74 82  1  0  0  0
 75 76  2  0  0  0
 75 83  1  0  0  0
 76 84  1  0  0  0
 77 79  1  0  0  0
 77147  1  0  0  0
 77148  1  0  0  0
 77149  1  0  0  0
 78 80  1  0  0  0
 78 81  1  0  0  0
 78150  1  0  0  0
 78151  1  0  0  0
 79 83  1  0  0  0
 79152  1  0  0  0
 79153  1  0  0  0
 80 82  1  0  0  0
 80154  1  0  0  0
 80155  1  0  0  0
 81156  1  0  0  0
 81157  1  0  0  0
 82158  1  0  0  0
M  ISO  4   1 100  68 101  81 101  83 100
M  END
> <chiral flag>
0

> <version>
0

> <s_m_source_file>
/data/baiqing/PycharmProjects/Reinvent-master-3.2/result/LINK_invent/BTK/process_docking_weight1_custom_product_contain_oxygen_bond_distance_aromatic_linkinvent_7_9_3/rearranged_h_0020.sdf

> <i_m_source_file_index>
52

> <r_mmod_Potential_Energy-OPLS-2005>
235.262619018555

> <r_mmod_Stretch_Energy-OPLS-2005>
93.0974884033203

> <r_mmod_Bend_Energy-OPLS-2005>
152.493255615234

> <r_mmod_Torsional_Energy-OPLS-2005>
289.569030761719

> <r_mmod_Improper_Torsional_Energy-OPLS-2005>
4.26654529571533

> <r_mmod_Van_der_Waal_Energy-OPLS-2005>
143.16552734375

> <r_mmod_Electrostatic_Energy-OPLS-2005>
-296.416778564453

> <r_mmod_Solvation_Energy-OPLS-2005>
-200.164276123047

> <b_mmod_Minimization_Converged-OPLS-2005>
0

> <r_mmod_RMS_Derivative-OPLS-2005>
3.27062654495239

$$$$
53
                    3D
 Structure written by MMmdl.
161169  0  0  1  0            999 V2000
  -29.0055  -17.8915   20.3741 C   0  0  0  0  0  0
  -29.9100  -14.8455   19.5689 C   0  0  0  0  0  0
  -29.4959  -13.5740   18.5854 C   0  0  0  0  0  0
  -28.3549  -12.6982   19.0916 C   0  0  0  0  0  0
  -27.5062  -13.6793   19.8921 C   0  0  2  0  0  0
  -28.2307  -14.7784   20.8671 C   0  0  0  0  0  0
  -25.1491  -13.8920   20.6078 C   0  0  0  0  0  0
  -24.1356  -13.0528   20.9407 C   0  0  0  0  0  0
  -24.6641  -11.7246   20.8724 C   0  0  0  0  0  0
  -23.9463  -10.4388   21.0252 C   0  0  0  0  0  0
  -24.3868   -9.4293   21.9105 C   0  0  0  0  0  0
  -23.6446   -8.2361   22.0734 C   0  0  0  0  0  0
  -22.4420   -8.0377   21.3539 C   0  0  0  0  0  0
  -22.0136   -9.0361   20.4617 C   0  0  0  0  0  0
  -22.7566  -10.2192   20.2966 C   0  0  0  0  0  0
  -21.6914   -6.0792   22.5271 C   0  0  0  0  0  0
  -21.4062   -6.5671   23.8211 C   0  0  0  0  0  0
  -21.3675   -5.6810   24.9165 C   0  0  0  0  0  0
  -21.6041   -4.3070   24.7206 C   0  0  0  0  0  0
  -21.8817   -3.8173   23.4322 C   0  0  0  0  0  0
  -21.9211   -4.7005   22.3385 C   0  0  0  0  0  0
  -22.7290  -13.4912   21.1977 C   0  0  0  0  0  0
  -22.1666   -4.2181   21.0964 F   0  0  0  0  0  0
  -21.5617   -3.4550   25.7715 F   0  0  0  0  0  0
  -28.8859  -16.0995   20.1791 N   0  0  0  0  0  0
  -26.2533  -13.1111   20.3927 N   0  0  0  0  0  0
  -25.9755  -11.7749   20.5707 N   0  0  0  0  0  0
  -22.0121  -12.7810   22.0576 N   0  0  0  0  0  0
  -25.2231  -15.2708   20.4301 N   0  0  0  0  0  0
  -30.2836  -17.5324   20.3441 O   0  0  0  0  0  0
  -21.6737   -6.8982   21.4251 O   0  0  0  0  0  0
  -22.2836  -14.5164   20.6824 O   0  0  0  0  0  0
  -24.7500  -31.4944   23.0162 C   0  0  0  0  0  0
  -25.9426  -32.2971   23.6959 C   0  0  1  0  0  0
  -28.2595  -26.2514   19.8890 C   0  0  0  0  0  0
  -25.5448  -33.7028   24.0560 N   0  0  0  0  0  0
  -23.6588  -29.7046   21.5571 C   0  0  2  0  0  0
  -24.9980  -26.9482   20.6359 C   0  0  0  0  0  0
  -22.7493  -29.2468   22.6567 C   0  0  0  0  0  0
  -18.0046  -28.1445   22.8390 C   0  0  0  0  0  0
  -24.1449  -36.6593   23.2741 C   0  0  0  0  0  0
  -26.0848  -29.5443   21.6482 C   0  0  0  0  0  0
  -26.1733  -27.8115   21.4446 C   0  0  0  0  0  0
  -27.6850  -27.2390   21.1622 C   0  0  0  0  0  0
  -27.4047  -25.3803   18.7411 C   0  0  0  0  0  0
  -25.7589  -25.4963   18.7222 C   0  0  0  0  0  0
  -23.8417  -28.3306   20.6320 C   0  0  0  0  0  0
  -25.4168  -36.2089   24.0140 C   0  0  1  0  0  0
  -20.5462  -28.3428   23.1693 C   0  0  2  0  0  0
  -20.6301  -26.9081   22.5938 C   0  0  0  0  0  0
  -19.5615  -26.6288   21.5360 C   0  0  0  0  0  0
  -18.1672  -26.8014   22.1454 C   0  0  0  0  0  0
  -19.1273  -28.8858   23.2876 C   0  0  0  0  0  0
  -18.9312  -30.1466   23.8899 C   0  0  0  0  0  0
  -17.6336  -30.6656   24.0540 C   0  0  0  0  0  0
  -25.9160  -34.8492   23.4492 C   0  0  0  0  0  0
  -16.5209  -29.9193   23.6255 C   0  0  0  0  0  0
  -16.7067  -28.6613   23.0239 C   0  0  0  0  0  0
  -26.4654  -31.6088   25.0255 C   0  0  0  0  0  0
  -25.3576  -31.3789   26.0832 C   0  0  0  0  0  0
  -27.1051  -30.2440   24.7169 C   0  0  0  0  0  0
  -27.5747  -32.4608   25.6928 C   0  0  0  0  0  0
  -27.5456  -37.1350   24.8459 C   0  0  0  0  0  0
  -21.4308  -29.2347   22.4326 N   0  0  0  0  0  0
  -26.4156  -37.3056   23.9370 N   0  0  0  0  0  0
  -24.8727  -30.3688   22.1272 N   0  0  0  0  0  0
  -23.2809  -28.7364   23.6364 O   0  0  0  0  0  0
  -28.9940  -26.9347   18.9251 O   0  0  0  0  0  0
  -26.6341  -34.8479   22.4490 O   0  0  0  0  0  0
  -23.6379  -31.9303   23.3844 O   0  0  0  0  0  0
  -24.6140  -24.5834   20.5397 C   0  0  0  0  0  0
  -23.5159  -25.4291   19.4382 C   0  0  0  0  0  0
  -25.0897  -27.7878   18.3555 C   0  0  0  0  0  0
  -26.3407  -24.9505   20.7178 C   0  0  0  0  0  0
  -23.8378  -26.7709   18.3454 C   0  0  0  0  0  0
  -26.4652  -27.4569   19.1484 C   0  0  0  0  0  0
  -22.0110  -27.9879   16.5864 C   0  0  0  0  0  0
  -27.5235  -22.4342   20.5790 C   0  0  0  0  0  0
  -27.1032  -27.2738   16.5016 C   0  0  0  0  0  0
  -22.9938  -26.9408   16.0201 C   0  0  0  0  0  0
  -25.5959  -26.4526   16.2161 C   0  0  0  0  0  0
  -28.5897  -26.9970   17.3680 C   0  0  0  0  0  0
  -28.1326  -19.8586   20.4679 N   0  0  0  0  0  0
  -24.1349  -26.6423   16.8968 N   0  0  0  0  0  0
  -27.3253  -28.5387   19.0939 F   0  0  0  0  0  0
  -30.6258  -15.3991   18.9627 H   0  0  0  0  0  0
  -30.5630  -14.4773   20.3646 H   0  0  0  0  0  0
  -30.3710  -12.9572   18.3764 H   0  0  0  0  0  0
  -29.2008  -13.9873   17.6196 H   0  0  0  0  0  0
  -28.7335  -11.9139   19.7478 H   0  0  0  0  0  0
  -27.8050  -12.2232   18.2770 H   0  0  0  0  0  0
  -27.1506  -14.3142   19.0767 H   0  0  0  0  0  0
  -28.8725  -14.2868   21.6029 H   0  0  0  0  0  0
  -27.4796  -15.2009   21.5313 H   0  0  0  0  0  0
  -25.2969   -9.5755   22.4758 H   0  0  0  0  0  0
  -24.0098   -7.4780   22.7515 H   0  0  0  0  0  0
  -21.1056   -8.8930   19.8936 H   0  0  0  0  0  0
  -22.4006  -10.9724   19.6074 H   0  0  0  0  0  0
  -21.2077   -7.6184   23.9725 H   0  0  0  0  0  0
  -21.1488   -6.0535   25.9067 H   0  0  0  0  0  0
  -22.0574   -2.7635   23.2816 H   0  0  0  0  0  0
  -22.3911  -11.9548   22.4971 H   0  0  0  0  0  0
  -21.0676  -13.0647   22.2784 H   0  0  0  0  0  0
  -24.4179  -15.8805   20.5192 H   0  0  0  0  0  0
  -26.0590  -15.7520   20.1248 H   0  0  0  0  0  0
  -26.7567  -32.3263   22.9691 H   0  0  0  0  0  0
  -24.8814  -33.7794   24.8134 H   0  0  0  0  0  0
  -23.1194  -30.4573   20.9779 H   0  0  0  0  0  0
  -23.3728  -35.8890   23.3199 H   0  0  0  0  0  0
  -24.3442  -36.8605   22.2199 H   0  0  0  0  0  0
  -23.7237  -37.5629   23.7173 H   0  0  0  0  0  0
  -26.2729  -29.9562   20.6583 H   0  0  0  0  0  0
  -26.9739  -29.8488   22.1828 H   0  0  0  0  0  0
  -28.4523  -27.9037   21.5315 H   0  0  0  0  0  0
  -27.8978  -24.7293   18.0282 H   0  0  0  0  0  0
  -25.2436  -24.8117   18.0471 H   0  0  0  0  0  0
  -23.6582  -28.8541   19.7020 H   0  0  0  0  0  0
  -22.8978  -27.7877   20.6904 H   0  0  0  0  0  0
  -25.1504  -36.0564   25.0621 H   0  0  0  0  0  0
  -20.8976  -28.2917   24.2023 H   0  0  0  0  0  0
  -20.4587  -26.2128   23.4167 H   0  0  0  0  0  0
  -21.6273  -26.6621   22.2272 H   0  0  0  0  0  0
  -19.6736  -25.6204   21.1363 H   0  0  0  0  0  0
  -19.6906  -27.3154   20.6991 H   0  0  0  0  0  0
  -17.4100  -26.6969   21.3670 H   0  0  0  0  0  0
  -17.9745  -26.0129   22.8736 H   0  0  0  0  0  0
  -19.7832  -30.7171   24.2377 H   0  0  0  0  0  0
  -17.4921  -31.6331   24.5173 H   0  0  0  0  0  0
  -15.5225  -30.3130   23.7576 H   0  0  0  0  0  0
  -15.8449  -28.0993   22.6889 H   0  0  0  0  0  0
  -24.5795  -30.7038   25.7259 H   0  0  0  0  0  0
  -24.8722  -32.3130   26.3658 H   0  0  0  0  0  0
  -25.7589  -30.9391   26.9965 H   0  0  0  0  0  0
  -26.3862  -29.5177   24.3373 H   0  0  0  0  0  0
  -27.5209  -29.7965   25.6201 H   0  0  0  0  0  0
  -27.9394  -30.3364   24.0212 H   0  0  0  0  0  0
  -27.1925  -33.4095   26.0705 H   0  0  0  0  0  0
  -28.3738  -32.6895   24.9873 H   0  0  0  0  0  0
  -28.0264  -31.9464   26.5413 H   0  0  0  0  0  0
  -28.2337  -37.9753   24.7462 H   0  0  0  0  0  0
  -28.1071  -36.2235   24.6345 H   0  0  0  0  0  0
  -27.2156  -37.1003   25.8858 H   0  0  0  0  0  0
  -21.0713  -29.6673   21.5946 H   0  0  0  0  0  0
  -25.9808  -38.2021   24.1372 H   0  0  0  0  0  0
  -24.2668  -23.6448   20.9411 H   0  0  0  0  0  0
  -22.5813  -24.9165   19.2694 H   0  0  0  0  0  0
  -25.0731  -28.6691   17.7302 H   0  0  0  0  0  0
  -21.2873  -28.2954   15.8314 H   0  0  0  0  0  0
  -22.5318  -28.8885   16.9126 H   0  0  0  0  0  0
  -21.4384  -27.5988   17.4295 H   0  0  0  0  0  0
  -28.2159  -22.6406   21.3952 H   0  0  0  0  0  0
  -28.0800  -22.6745   19.6740 H   0  0  0  0  0  0
  -26.8895  -28.3377   16.5841 H   0  0  0  0  0  0
  -27.5051  -27.2365   15.4883 H   0  0  0  0  0  0
  -23.3624  -27.3181   15.0665 H   0  0  0  0  0  0
  -22.4582  -26.0188   15.7927 H   0  0  0  0  0  0
  -25.8139  -25.3867   16.1580 H   0  0  0  0  0  0
  -25.4005  -26.6605   15.1644 H   0  0  0  0  0  0
  -29.2266  -27.8092   17.0208 H   0  0  0  0  0  0
  -29.0726  -26.1391   16.8950 H   0  0  0  0  0  0
  -29.0997  -20.1425   20.5841 H   0  0  0  0  0  0
  1 25  1  0  0  0
  1 30  2  0  0  0
  1 83  1  0  0  0
  2  3  1  0  0  0
  2 25  1  0  0  0
  2 86  1  0  0  0
  2 87  1  0  0  0
  3  4  1  0  0  0
  3 88  1  0  0  0
  3 89  1  0  0  0
  4  5  1  0  0  0
  4 90  1  0  0  0
  4 91  1  0  0  0
  5  6  1  0  0  0
  5 26  1  0  0  0
  5 92  1  0  0  0
  6 25  1  0  0  0
  6 93  1  0  0  0
  6 94  1  0  0  0
  7  8  2  0  0  0
  7 26  1  0  0  0
  7 29  1  0  0  0
  8  9  1  0  0  0
  8 22  1  0  0  0
  9 10  1  0  0  0
  9 27  2  0  0  0
 10 11  2  0  0  0
 10 15  1  0  0  0
 11 12  1  0  0  0
 11 95  1  0  0  0
 12 13  2  0  0  0
 12 96  1  0  0  0
 13 14  1  0  0  0
 13 31  1  0  0  0
 14 15  2  0  0  0
 14 97  1  0  0  0
 15 98  1  0  0  0
 16 17  2  0  0  0
 16 21  1  0  0  0
 16 31  1  0  0  0
 17 18  1  0  0  0
 17 99  1  0  0  0
 18 19  2  0  0  0
 18100  1  0  0  0
 19 20  1  0  0  0
 19 24  1  0  0  0
 20 21  2  0  0  0
 20101  1  0  0  0
 21 23  1  0  0  0
 22 28  1  0  0  0
 22 32  2  0  0  0
 26 27  1  0  0  0
 28102  1  0  0  0
 28103  1  0  0  0
 29104  1  0  0  0
 29105  1  0  0  0
 33 34  1  0  0  0
 33 66  1  0  0  0
 33 70  2  0  0  0
 34 36  1  0  0  0
 34 59  1  0  0  0
 34106  1  0  0  0
 35 44  2  0  0  0
 35 45  1  0  0  0
 35 68  1  0  0  0
 36 56  1  0  0  0
 36107  1  0  0  0
 37 39  1  0  0  0
 37 47  1  0  0  0
 37 66  1  0  0  0
 37108  1  0  0  0
 38 43  2  0  0  0
 38 46  1  0  0  0
 38 47  1  0  0  0
 39 64  1  0  0  0
 39 67  2  0  0  0
 40 52  1  0  0  0
 40 53  2  0  0  0
 40 58  1  0  0  0
 41109  1  0  0  0
 41110  1  0  0  0
 41111  1  0  0  0
 41 48  1  0  0  0
 42 43  1  0  0  0
 42 66  1  0  0  0
 42112  1  0  0  0
 42113  1  0  0  0
 43 44  1  0  0  0
 44114  1  0  0  0
 45 46  2  0  0  0
 45115  1  0  0  0
 46116  1  0  0  0
 47117  1  0  0  0
 47118  1  0  0  0
 48 56  1  0  0  0
 48 65  1  0  0  0
 48119  1  0  0  0
 49 50  1  0  0  0
 49 53  1  0  0  0
 49 64  1  0  0  0
 49120  1  0  0  0
 50 51  1  0  0  0
 50121  1  0  0  0
 50122  1  0  0  0
 51 52  1  0  0  0
 51123  1  0  0  0
 51124  1  0  0  0
 52125  1  0  0  0
 52126  1  0  0  0
 53 54  1  0  0  0
 54 55  2  0  0  0
 54127  1  0  0  0
 55 57  1  0  0  0
 55128  1  0  0  0
 56 69  2  0  0  0
 57 58  2  0  0  0
 57129  1  0  0  0
 58130  1  0  0  0
 59 60  1  0  0  0
 59 61  1  0  0  0
 59 62  1  0  0  0
 60131  1  0  0  0
 60132  1  0  0  0
 60133  1  0  0  0
 61134  1  0  0  0
 61135  1  0  0  0
 61136  1  0  0  0
 62137  1  0  0  0
 62138  1  0  0  0
 62139  1  0  0  0
 63 65  1  0  0  0
 63140  1  0  0  0
 63141  1  0  0  0
 63142  1  0  0  0
 64143  1  0  0  0
 65144  1  0  0  0
 68 82  1  0  0  0
 71 72  2  0  0  0
 71 74  1  0  0  0
 71145  1  0  0  0
 72 75  1  0  0  0
 72146  1  0  0  0
 73 75  2  0  0  0
 73 76  1  0  0  0
 73147  1  0  0  0
 74 76  2  0  0  0
 74 78  1  0  0  0
 75 84  1  0  0  0
 76 85  1  0  0  0
 77 80  1  0  0  0
 77148  1  0  0  0
 77149  1  0  0  0
 77150  1  0  0  0
 78 83  1  0  0  0
 78151  1  0  0  0
 78152  1  0  0  0
 79 81  1  0  0  0
 79 82  1  0  0  0
 79153  1  0  0  0
 79154  1  0  0  0
 80 84  1  0  0  0
 80155  1  0  0  0
 80156  1  0  0  0
 81 84  1  0  0  0
 81157  1  0  0  0
 81158  1  0  0  0
 82159  1  0  0  0
 82160  1  0  0  0
 83161  1  0  0  0
M  ISO  4   1 100  68 101  82 101  83 100
M  END
> <chiral flag>
0

> <version>
0

> <s_m_source_file>
/data/baiqing/PycharmProjects/Reinvent-master-3.2/result/LINK_invent/BTK/process_docking_weight1_custom_product_contain_oxygen_bond_distance_aromatic_linkinvent_7_9_3/rearranged_h_0020.sdf

> <i_m_source_file_index>
53

> <r_mmod_Potential_Energy-OPLS-2005>
29952.01171875

> <r_mmod_Stretch_Energy-OPLS-2005>
15662.9404296875

> <r_mmod_Bend_Energy-OPLS-2005>
2058.1298828125

> <r_mmod_Torsional_Energy-OPLS-2005>
677.071105957031

> <r_mmod_Improper_Torsional_Energy-OPLS-2005>
104.926918029785

> <r_mmod_Van_der_Waal_Energy-OPLS-2005>
3973.8466796875

> <r_mmod_Electrostatic_Energy-OPLS-2005>
-370.511962890625

> <r_mmod_Solvation_Energy-OPLS-2005>
-247.971389770508

> <b_mmod_Minimization_Converged-OPLS-2005>
0

> <r_mmod_RMS_Derivative-OPLS-2005>
8.85596752166748

$$$$
54
                    3D
 Structure written by MMmdl.
161169  0  0  1  0            999 V2000
  -30.6981  -14.5877   20.3812 C   0  0  0  0  0  0
  -30.4340  -12.3278   19.4542 C   0  0  0  0  0  0
  -29.5061  -12.3818   18.2218 C   0  0  0  0  0  0
  -28.0255  -12.2925   18.6435 C   0  0  0  0  0  0
  -27.6485  -13.2156   19.8359 C   0  0  2  0  0  0
  -28.7041  -13.1433   20.9623 C   0  0  0  0  0  0
  -25.2575  -13.8140   20.5725 C   0  0  0  0  0  0
  -24.1818  -13.0412   20.9193 C   0  0  0  0  0  0
  -24.6392  -11.6898   20.8729 C   0  0  0  0  0  0
  -23.9052  -10.4284   21.0398 C   0  0  0  0  0  0
  -24.3608   -9.4206   21.9186 C   0  0  0  0  0  0
  -23.6294   -8.2238   22.0757 C   0  0  0  0  0  0
  -22.4279   -8.0274   21.3543 C   0  0  0  0  0  0
  -21.9900   -9.0237   20.4649 C   0  0  0  0  0  0
  -22.7218  -10.2124   20.3058 C   0  0  0  0  0  0
  -21.6866   -6.0734   22.5279 C   0  0  0  0  0  0
  -21.4026   -6.5635   23.8207 C   0  0  0  0  0  0
  -21.3666   -5.6788   24.9169 C   0  0  0  0  0  0
  -21.6039   -4.3052   24.7222 C   0  0  0  0  0  0
  -21.8818   -3.8139   23.4339 C   0  0  0  0  0  0
  -21.9190   -4.6957   22.3396 C   0  0  0  0  0  0
  -22.7850  -13.5230   21.1850 C   0  0  0  0  0  0
  -22.1667   -4.2145   21.0975 F   0  0  0  0  0  0
  -21.5622   -3.4528   25.7729 F   0  0  0  0  0  0
  -30.0168  -13.4065   20.3612 N   0  0  0  0  0  0
  -26.2992  -12.9332   20.3255 N   0  0  0  0  0  0
  -25.9321  -11.6489   20.5740 N   0  0  0  0  0  0
  -22.0496  -12.8230   22.0422 N   0  0  0  0  0  0
  -25.4252  -15.1838   20.4257 N   0  0  0  0  0  0
  -31.9268  -14.6228   20.2843 O   0  0  0  0  0  0
  -21.6650   -6.8867   21.4241 O   0  0  0  0  0  0
  -22.3530  -14.5532   20.6699 O   0  0  0  0  0  0
  -24.6149  -31.8710   23.2103 C   0  0  0  0  0  0
  -25.9060  -32.4833   23.8383 C   0  0  1  0  0  0
  -27.2154  -27.4193   20.1009 C   0  0  0  0  0  0
  -25.5915  -33.8619   24.2332 N   0  0  0  0  0  0
  -23.3970  -30.4977   21.5535 C   0  0  2  0  0  0
  -24.8358  -28.9641   20.1134 C   0  0  0  0  0  0
  -22.7396  -29.4699   22.5008 C   0  0  0  0  0  0
  -18.0267  -28.1399   22.8504 C   0  0  0  0  0  0
  -24.1478  -36.7283   23.2636 C   0  0  0  0  0  0
  -25.9254  -30.8356   21.3571 C   0  0  0  0  0  0
  -25.9997  -29.4681   20.7064 C   0  0  0  0  0  0
  -27.1905  -28.7052   20.6940 C   0  0  0  0  0  0
  -26.0265  -26.9338   19.5035 C   0  0  0  0  0  0
  -24.8456  -27.6968   19.5114 C   0  0  0  0  0  0
  -23.5982  -29.8330   20.1674 C   0  0  0  0  0  0
  -25.4110  -36.3110   24.0342 C   0  0  1  0  0  0
  -20.5856  -28.3681   23.1339 C   0  0  2  0  0  0
  -20.6771  -26.9426   22.5431 C   0  0  0  0  0  0
  -19.5749  -26.6421   21.5226 C   0  0  0  0  0  0
  -18.1921  -26.7960   22.1624 C   0  0  0  0  0  0
  -19.1521  -28.8859   23.2911 C   0  0  0  0  0  0
  -18.9453  -30.1461   23.8921 C   0  0  0  0  0  0
  -17.6461  -30.6614   24.0584 C   0  0  0  0  0  0
  -25.9038  -34.9473   23.5134 C   0  0  0  0  0  0
  -16.5342  -29.9119   23.6345 C   0  0  0  0  0  0
  -16.7259  -28.6527   23.0381 C   0  0  0  0  0  0
  -26.4486  -31.6598   25.0694 C   0  0  0  0  0  0
  -25.3741  -31.3719   26.1442 C   0  0  0  0  0  0
  -27.0311  -30.3046   24.6054 C   0  0  0  0  0  0
  -27.6088  -32.4306   25.7450 C   0  0  0  0  0  0
  -27.5571  -37.1794   24.8482 C   0  0  0  0  0  0
  -21.4129  -29.3041   22.3724 N   0  0  0  0  0  0
  -26.4297  -37.3802   23.9414 N   0  0  0  0  0  0
  -24.6647  -31.0808   22.0998 N   0  0  0  0  0  0
  -23.4173  -28.8268   23.3076 O   0  0  0  0  0  0
  -28.3895  -26.6853   20.1383 O   0  0  0  0  0  0
  -26.5606  -34.8925   22.4698 O   0  0  0  0  0  0
  -23.5357  -32.1473   23.7516 O   0  0  0  0  0  0
  -30.7804  -18.8450   21.7409 C   0  0  0  0  0  0
  -30.8346  -17.4925   21.3281 C   0  0  0  0  0  0
  -28.7102  -19.1449   20.5588 C   0  0  0  0  0  0
  -29.7405  -19.7291   21.3381 C   0  0  0  0  0  0
  -29.8427  -16.9404   20.4849 C   0  0  0  0  0  0
  -28.7590  -17.7956   20.1316 C   0  0  0  0  0  0
  -30.1521  -15.7592   18.3805 C   0  0  0  0  0  0
  -31.0999  -21.6400   22.0056 C   0  0  0  0  0  0
  -28.6100  -23.4308   21.7201 C   0  0  0  0  0  0
  -27.6844  -24.4025   20.9385 C   0  0  0  0  0  0
  -28.8357  -22.0612   21.0094 C   0  0  0  0  0  0
  -28.3612  -25.2734   19.8397 C   0  0  0  0  0  0
  -30.0109  -15.6457   19.8497 N   0  0  0  0  0  0
  -29.7624  -21.1218   21.6852 N   0  0  0  0  0  0
  -27.4694  -17.2476   19.1191 Cl  0  0  0  0  0  0
  -31.4787  -12.4221   19.1478 H   0  0  0  0  0  0
  -30.3561  -11.3650   19.9605 H   0  0  0  0  0  0
  -29.7427  -11.5539   17.5518 H   0  0  0  0  0  0
  -29.6824  -13.2787   17.6358 H   0  0  0  0  0  0
  -27.8522  -11.2538   18.9242 H   0  0  0  0  0  0
  -27.3759  -12.4871   17.7906 H   0  0  0  0  0  0
  -27.6428  -14.2331   19.4458 H   0  0  0  0  0  0
  -28.6983  -12.1589   21.4325 H   0  0  0  0  0  0
  -28.4838  -13.8721   21.7448 H   0  0  0  0  0  0
  -25.2746   -9.5705   22.4771 H   0  0  0  0  0  0
  -23.9996   -7.4642   22.7504 H   0  0  0  0  0  0
  -21.0807   -8.8750   19.8986 H   0  0  0  0  0  0
  -22.3647  -10.9662   19.6178 H   0  0  0  0  0  0
  -21.2045   -7.6146   23.9709 H   0  0  0  0  0  0
  -21.1495   -6.0521   25.9068 H   0  0  0  0  0  0
  -22.0599   -2.7603   23.2834 H   0  0  0  0  0  0
  -22.4107  -11.9864   22.4756 H   0  0  0  0  0  0
  -21.1145  -13.1300   22.2701 H   0  0  0  0  0  0
  -24.6568  -15.8362   20.5215 H   0  0  0  0  0  0
  -26.2735  -15.6250   20.0896 H   0  0  0  0  0  0
  -26.7106  -32.5542   23.1122 H   0  0  0  0  0  0
  -25.0040  -33.9779   25.0464 H   0  0  0  0  0  0
  -22.6821  -31.3144   21.4246 H   0  0  0  0  0  0
  -23.3745  -35.9611   23.3347 H   0  0  0  0  0  0
  -24.3546  -36.8851   22.2038 H   0  0  0  0  0  0
  -23.7237  -37.6497   23.6620 H   0  0  0  0  0  0
  -26.0275  -31.5991   20.5837 H   0  0  0  0  0  0
  -26.8202  -30.8984   21.9653 H   0  0  0  0  0  0
  -28.0864  -29.0933   21.1560 H   0  0  0  0  0  0
  -25.9748  -25.9631   19.0340 H   0  0  0  0  0  0
  -23.9468  -27.2991   19.0598 H   0  0  0  0  0  0
  -23.7021  -30.6110   19.4099 H   0  0  0  0  0  0
  -22.7159  -29.2582   19.8774 H   0  0  0  0  0  0
  -25.1294  -36.1959   25.0842 H   0  0  0  0  0  0
  -20.9948  -28.3260   24.1463 H   0  0  0  0  0  0
  -20.5720  -26.2286   23.3609 H   0  0  0  0  0  0
  -21.6636  -26.7525   22.1187 H   0  0  0  0  0  0
  -19.6908  -25.6351   21.1220 H   0  0  0  0  0  0
  -19.6675  -27.3265   20.6783 H   0  0  0  0  0  0
  -17.4194  -26.6733   21.4008 H   0  0  0  0  0  0
  -18.0281  -26.0103   22.9019 H   0  0  0  0  0  0
  -19.7931  -30.7280   24.2287 H   0  0  0  0  0  0
  -17.5026  -31.6298   24.5191 H   0  0  0  0  0  0
  -15.5348  -30.3047   23.7674 H   0  0  0  0  0  0
  -15.8645  -28.0858   22.7121 H   0  0  0  0  0  0
  -24.5909  -30.7080   25.7768 H   0  0  0  0  0  0
  -24.8924  -32.2879   26.4873 H   0  0  0  0  0  0
  -25.8069  -30.8882   27.0208 H   0  0  0  0  0  0
  -26.2830  -29.6788   24.1167 H   0  0  0  0  0  0
  -27.4161  -29.7313   25.4499 H   0  0  0  0  0  0
  -27.8634  -30.4386   23.9141 H   0  0  0  0  0  0
  -27.2730  -33.3598   26.2076 H   0  0  0  0  0  0
  -28.3858  -32.6889   25.0237 H   0  0  0  0  0  0
  -28.0803  -31.8390   26.5310 H   0  0  0  0  0  0
  -28.2653  -38.0031   24.7497 H   0  0  0  0  0  0
  -28.1003  -36.2565   24.6368 H   0  0  0  0  0  0
  -27.2260  -37.1527   25.8879 H   0  0  0  0  0  0
  -20.9272  -29.8660   21.6862 H   0  0  0  0  0  0
  -26.0172  -38.2874   24.1428 H   0  0  0  0  0  0
  -31.6001  -19.1906   22.3528 H   0  0  0  0  0  0
  -31.7018  -16.9149   21.6108 H   0  0  0  0  0  0
  -27.8618  -19.7204   20.2270 H   0  0  0  0  0  0
  -30.3673  -16.7817   18.0674 H   0  0  0  0  0  0
  -29.2338  -15.4572   17.8786 H   0  0  0  0  0  0
  -30.9645  -15.1568   17.9650 H   0  0  0  0  0  0
  -31.1499  -22.7245   22.0568 H   0  0  0  0  0  0
  -31.8160  -21.3412   21.2387 H   0  0  0  0  0  0
  -31.4581  -21.2729   22.9688 H   0  0  0  0  0  0
  -28.1573  -23.2361   22.6938 H   0  0  0  0  0  0
  -29.5347  -23.9641   21.9336 H   0  0  0  0  0  0
  -26.8772  -23.8219   20.4876 H   0  0  0  0  0  0
  -27.1920  -25.0642   21.6518 H   0  0  0  0  0  0
  -29.1890  -22.2329   19.9912 H   0  0  0  0  0  0
  -27.8466  -21.6127   20.9327 H   0  0  0  0  0  0
  -29.3917  -24.9461   19.7008 H   0  0  0  0  0  0
  -27.8967  -25.1015   18.8695 H   0  0  0  0  0  0
  1 25  1  0  0  0
  1 30  2  0  0  0
  1 83  1  0  0  0
  2  3  1  0  0  0
  2 25  1  0  0  0
  2 86  1  0  0  0
  2 87  1  0  0  0
  3  4  1  0  0  0
  3 88  1  0  0  0
  3 89  1  0  0  0
  4  5  1  0  0  0
  4 90  1  0  0  0
  4 91  1  0  0  0
  5  6  1  0  0  0
  5 26  1  0  0  0
  5 92  1  0  0  0
  6 25  1  0  0  0
  6 93  1  0  0  0
  6 94  1  0  0  0
  7  8  2  0  0  0
  7 26  1  0  0  0
  7 29  1  0  0  0
  8  9  1  0  0  0
  8 22  1  0  0  0
  9 10  1  0  0  0
  9 27  2  0  0  0
 10 11  2  0  0  0
 10 15  1  0  0  0
 11 12  1  0  0  0
 11 95  1  0  0  0
 12 13  2  0  0  0
 12 96  1  0  0  0
 13 14  1  0  0  0
 13 31  1  0  0  0
 14 15  2  0  0  0
 14 97  1  0  0  0
 15 98  1  0  0  0
 16 17  2  0  0  0
 16 21  1  0  0  0
 16 31  1  0  0  0
 17 18  1  0  0  0
 17 99  1  0  0  0
 18 19  2  0  0  0
 18100  1  0  0  0
 19 20  1  0  0  0
 19 24  1  0  0  0
 20 21  2  0  0  0
 20101  1  0  0  0
 21 23  1  0  0  0
 22 28  1  0  0  0
 22 32  2  0  0  0
 26 27  1  0  0  0
 28102  1  0  0  0
 28103  1  0  0  0
 29104  1  0  0  0
 29105  1  0  0  0
 33 34  1  0  0  0
 33 66  1  0  0  0
 33 70  2  0  0  0
 34 36  1  0  0  0
 34 59  1  0  0  0
 34106  1  0  0  0
 35 44  2  0  0  0
 35 45  1  0  0  0
 35 68  1  0  0  0
 36 56  1  0  0  0
 36107  1  0  0  0
 37 39  1  0  0  0
 37 47  1  0  0  0
 37 66  1  0  0  0
 37108  1  0  0  0
 38 43  2  0  0  0
 38 46  1  0  0  0
 38 47  1  0  0  0
 39 64  1  0  0  0
 39 67  2  0  0  0
 40 52  1  0  0  0
 40 53  2  0  0  0
 40 58  1  0  0  0
 41109  1  0  0  0
 41110  1  0  0  0
 41111  1  0  0  0
 41 48  1  0  0  0
 42 43  1  0  0  0
 42 66  1  0  0  0
 42112  1  0  0  0
 42113  1  0  0  0
 43 44  1  0  0  0
 44114  1  0  0  0
 45 46  2  0  0  0
 45115  1  0  0  0
 46116  1  0  0  0
 47117  1  0  0  0
 47118  1  0  0  0
 48 56  1  0  0  0
 48 65  1  0  0  0
 48119  1  0  0  0
 49 50  1  0  0  0
 49 53  1  0  0  0
 49 64  1  0  0  0
 49120  1  0  0  0
 50 51  1  0  0  0
 50121  1  0  0  0
 50122  1  0  0  0
 51 52  1  0  0  0
 51123  1  0  0  0
 51124  1  0  0  0
 52125  1  0  0  0
 52126  1  0  0  0
 53 54  1  0  0  0
 54 55  2  0  0  0
 54127  1  0  0  0
 55 57  1  0  0  0
 55128  1  0  0  0
 56 69  2  0  0  0
 57 58  2  0  0  0
 57129  1  0  0  0
 58130  1  0  0  0
 59 60  1  0  0  0
 59 61  1  0  0  0
 59 62  1  0  0  0
 60131  1  0  0  0
 60132  1  0  0  0
 60133  1  0  0  0
 61134  1  0  0  0
 61135  1  0  0  0
 61136  1  0  0  0
 62137  1  0  0  0
 62138  1  0  0  0
 62139  1  0  0  0
 63 65  1  0  0  0
 63140  1  0  0  0
 63141  1  0  0  0
 63142  1  0  0  0
 64143  1  0  0  0
 65144  1  0  0  0
 68 82  1  0  0  0
 71 72  2  0  0  0
 71 74  1  0  0  0
 71145  1  0  0  0
 72 75  1  0  0  0
 72146  1  0  0  0
 73 74  2  0  0  0
 73 76  1  0  0  0
 73147  1  0  0  0
 74 84  1  0  0  0
 75 76  2  0  0  0
 75 83  1  0  0  0
 76 85  1  0  0  0
 77 83  1  0  0  0
 77148  1  0  0  0
 77149  1  0  0  0
 77150  1  0  0  0
 78 84  1  0  0  0
 78151  1  0  0  0
 78152  1  0  0  0
 78153  1  0  0  0
 79 80  1  0  0  0
 79 81  1  0  0  0
 79154  1  0  0  0
 79155  1  0  0  0
 80 82  1  0  0  0
 80156  1  0  0  0
 80157  1  0  0  0
 81 84  1  0  0  0
 81158  1  0  0  0
 81159  1  0  0  0
 82160  1  0  0  0
 82161  1  0  0  0
M  ISO  4   1 100  68 101  82 101  83 100
M  END
> <chiral flag>
0

> <version>
0

> <s_m_source_file>
/data/baiqing/PycharmProjects/Reinvent-master-3.2/result/LINK_invent/BTK/process_docking_weight1_custom_product_contain_oxygen_bond_distance_aromatic_linkinvent_7_9_3/rearranged_h_0020.sdf

> <i_m_source_file_index>
54

> <r_mmod_Potential_Energy-OPLS-2005>
203.81103515625

> <r_mmod_Stretch_Energy-OPLS-2005>
52.1541633605957

> <r_mmod_Bend_Energy-OPLS-2005>
129.406326293945

> <r_mmod_Torsional_Energy-OPLS-2005>
311.836669921875

> <r_mmod_Improper_Torsional_Energy-OPLS-2005>
30.2740516662598

> <r_mmod_Van_der_Waal_Energy-OPLS-2005>
173.398040771484

> <r_mmod_Electrostatic_Energy-OPLS-2005>
-334.212524414062

> <r_mmod_Solvation_Energy-OPLS-2005>
-204.023040771484

> <b_mmod_Minimization_Converged-OPLS-2005>
0

> <r_mmod_RMS_Derivative-OPLS-2005>
3.53143787384033

$$$$
55
                    3D
 Structure written by MMmdl.
152161  0  0  1  0            999 V2000
  -30.5924  -14.7339   20.4665 C   0  0  0  0  0  0
  -30.4443  -12.4437   19.4750 C   0  0  0  0  0  0
  -29.5170  -12.5131   18.2397 C   0  0  0  0  0  0
  -28.0430  -12.3354   18.6525 C   0  0  0  0  0  0
  -27.6518  -13.2245   19.8619 C   0  0  2  0  0  0
  -28.6968  -13.1269   20.9965 C   0  0  0  0  0  0
  -25.2580  -13.8186   20.5711 C   0  0  0  0  0  0
  -24.1851  -13.0446   20.9215 C   0  0  0  0  0  0
  -24.6419  -11.6916   20.8757 C   0  0  0  0  0  0
  -23.9075  -10.4298   21.0421 C   0  0  0  0  0  0
  -24.3625   -9.4207   21.9195 C   0  0  0  0  0  0
  -23.6294   -8.2244   22.0758 C   0  0  0  0  0  0
  -22.4282   -8.0293   21.3546 C   0  0  0  0  0  0
  -21.9916   -9.0278   20.4656 C   0  0  0  0  0  0
  -22.7241  -10.2156   20.3063 C   0  0  0  0  0  0
  -21.6856   -6.0743   22.5279 C   0  0  0  0  0  0
  -21.4024   -6.5648   23.8216 C   0  0  0  0  0  0
  -21.3652   -5.6798   24.9173 C   0  0  0  0  0  0
  -21.6034   -4.3060   24.7223 C   0  0  0  0  0  0
  -21.8815   -3.8150   23.4347 C   0  0  0  0  0  0
  -21.9202   -4.6968   22.3402 C   0  0  0  0  0  0
  -22.7869  -13.5243   21.1847 C   0  0  0  0  0  0
  -22.1664   -4.2150   21.0973 F   0  0  0  0  0  0
  -21.5614   -3.4546   25.7733 F   0  0  0  0  0  0
  -30.0047  -13.4873   20.4276 N   0  0  0  0  0  0
  -26.2999  -12.9370   20.3334 N   0  0  0  0  0  0
  -25.9356  -11.6520   20.5786 N   0  0  0  0  0  0
  -22.0497  -12.8266   22.0408 N   0  0  0  0  0  0
  -25.4308  -15.1910   20.4110 N   0  0  0  0  0  0
  -31.7608  -14.8825   20.0947 O   0  0  0  0  0  0
  -21.6636   -6.8899   21.4244 O   0  0  0  0  0  0
  -22.3560  -14.5544   20.6679 O   0  0  0  0  0  0
  -24.6302  -31.8553   23.1964 C   0  0  0  0  0  0
  -25.9123  -32.4757   23.8319 C   0  0  1  0  0  0
  -27.2300  -27.2689   20.1231 C   0  0  0  0  0  0
  -25.5933  -33.8561   24.2243 N   0  0  0  0  0  0
  -23.4275  -30.4758   21.5386 C   0  0  2  0  0  0
  -24.8761  -28.9191   20.1096 C   0  0  0  0  0  0
  -22.7502  -29.4595   22.4895 C   0  0  0  0  0  0
  -18.0294  -28.1381   22.8477 C   0  0  0  0  0  0
  -24.1486  -36.7283   23.2636 C   0  0  0  0  0  0
  -25.9724  -30.7687   21.3757 C   0  0  0  0  0  0
  -26.0455  -29.3903   20.7185 C   0  0  0  0  0  0
  -27.2223  -28.5775   20.7129 C   0  0  0  0  0  0
  -26.0313  -26.8545   19.5000 C   0  0  0  0  0  0
  -24.8737  -27.6589   19.4919 C   0  0  0  0  0  0
  -23.6457  -29.8048   20.1556 C   0  0  0  0  0  0
  -25.4113  -36.3061   24.0321 C   0  0  1  0  0  0
  -20.5890  -28.3687   23.1265 C   0  0  2  0  0  0
  -20.6770  -26.9406   22.5402 C   0  0  0  0  0  0
  -19.5748  -26.6368   21.5206 C   0  0  0  0  0  0
  -18.1931  -26.7921   22.1620 C   0  0  0  0  0  0
  -19.1543  -28.8856   23.2862 C   0  0  0  0  0  0
  -18.9465  -30.1456   23.8880 C   0  0  0  0  0  0
  -17.6464  -30.6583   24.0553 C   0  0  0  0  0  0
  -25.9060  -34.9444   23.5084 C   0  0  0  0  0  0
  -16.5358  -29.9077   23.6333 C   0  0  0  0  0  0
  -16.7281  -28.6498   23.0356 C   0  0  0  0  0  0
  -26.4499  -31.6594   25.0718 C   0  0  0  0  0  0
  -25.3727  -31.3768   26.1450 C   0  0  0  0  0  0
  -27.0353  -30.3010   24.6224 C   0  0  0  0  0  0
  -27.6031  -32.4366   25.7491 C   0  0  0  0  0  0
  -27.5581  -37.1784   24.8455 C   0  0  0  0  0  0
  -21.4205  -29.3036   22.3652 N   0  0  0  0  0  0
  -26.4277  -37.3766   23.9416 N   0  0  0  0  0  0
  -24.6954  -31.0516   22.0933 N   0  0  0  0  0  0
  -23.4218  -28.8144   23.2990 O   0  0  0  0  0  0
  -28.3471  -26.4053   20.1898 O   0  0  0  0  0  0
  -26.5628  -34.8918   22.4651 O   0  0  0  0  0  0
  -23.5453  -32.1371   23.7263 O   0  0  0  0  0  0
  -30.6799  -19.4136   19.6397 C   0  0  0  0  0  0
  -28.5157  -19.4476   20.6518 C   0  0  0  0  0  0
  -30.8136  -18.0095   19.9203 C   0  0  0  0  0  0
  -28.6477  -18.0456   20.9335 C   0  0  0  0  0  0
  -29.5189  -20.1850   19.9663 C   0  0  0  0  0  0
  -29.7815  -17.2613   20.5531 C   0  0  0  0  0  0
  -29.6382  -24.1886   19.7165 C   0  0  0  0  0  0
  -27.7280  -23.7460   20.3026 C   0  0  0  0  0  0
  -28.3070  -25.0202   19.6091 C   0  0  1  0  0  0
  -29.2920  -21.6251   19.3074 C   0  0  0  0  0  0
  -28.9739  -22.9776   19.9453 N   0  0  0  0  0  0
  -29.7700  -15.7963   20.7996 N   0  0  0  0  0  0
  -30.8164  -24.4076   19.5135 O   0  0  0  0  0  0
  -31.4842  -12.5769   19.1732 H   0  0  0  0  0  0
  -30.3936  -11.4589   19.9437 H   0  0  0  0  0  0
  -29.7942  -11.7480   17.5145 H   0  0  0  0  0  0
  -29.6447  -13.4725   17.7365 H   0  0  0  0  0  0
  -27.9007  -11.2850   18.9098 H   0  0  0  0  0  0
  -27.3842  -12.5323   17.8057 H   0  0  0  0  0  0
  -27.6526  -14.2510   19.4953 H   0  0  0  0  0  0
  -28.7288  -12.1174   21.4080 H   0  0  0  0  0  0
  -28.4301  -13.7785   21.8296 H   0  0  0  0  0  0
  -25.2768   -9.5667   22.4774 H   0  0  0  0  0  0
  -23.9994   -7.4631   22.7478 H   0  0  0  0  0  0
  -21.0837   -8.8804   19.8972 H   0  0  0  0  0  0
  -22.3700  -10.9710   19.6174 H   0  0  0  0  0  0
  -21.2020   -7.6159   23.9721 H   0  0  0  0  0  0
  -21.1471   -6.0528   25.9079 H   0  0  0  0  0  0
  -22.0599   -2.7612   23.2845 H   0  0  0  0  0  0
  -22.4108  -11.9944   22.4827 H   0  0  0  0  0  0
  -21.1115  -13.1319   22.2587 H   0  0  0  0  0  0
  -24.6614  -15.8453   20.5060 H   0  0  0  0  0  0
  -26.2706  -15.6202   20.0441 H   0  0  0  0  0  0
  -26.7185  -32.5408   23.1054 H   0  0  0  0  0  0
  -25.0075  -33.9696   25.0387 H   0  0  0  0  0  0
  -22.7221  -31.2960   21.3893 H   0  0  0  0  0  0
  -23.3745  -35.9614   23.3279 H   0  0  0  0  0  0
  -24.3567  -36.8938   22.2051 H   0  0  0  0  0  0
  -23.7251  -37.6480   23.6686 H   0  0  0  0  0  0
  -26.1128  -31.5299   20.6071 H   0  0  0  0  0  0
  -26.8485  -30.8168   22.0109 H   0  0  0  0  0  0
  -28.1196  -28.9349   21.1982 H   0  0  0  0  0  0
  -25.9506  -25.8832   19.0359 H   0  0  0  0  0  0
  -23.9747  -27.2876   19.0186 H   0  0  0  0  0  0
  -23.7700  -30.5790   19.3982 H   0  0  0  0  0  0
  -22.7659  -29.2358   19.8494 H   0  0  0  0  0  0
  -25.1294  -36.1890   25.0809 H   0  0  0  0  0  0
  -20.9977  -28.3264   24.1386 H   0  0  0  0  0  0
  -20.5644  -26.2311   23.3606 H   0  0  0  0  0  0
  -21.6643  -26.7408   22.1214 H   0  0  0  0  0  0
  -19.6901  -25.6272   21.1253 H   0  0  0  0  0  0
  -19.6691  -27.3158   20.6714 H   0  0  0  0  0  0
  -17.4198  -26.6668   21.4022 H   0  0  0  0  0  0
  -18.0331  -26.0068   22.9018 H   0  0  0  0  0  0
  -19.7943  -30.7270   24.2246 H   0  0  0  0  0  0
  -17.5024  -31.6261   24.5153 H   0  0  0  0  0  0
  -15.5357  -30.2975   23.7664 H   0  0  0  0  0  0
  -15.8681  -28.0807   22.7077 H   0  0  0  0  0  0
  -24.5840  -30.7191   25.7785 H   0  0  0  0  0  0
  -24.8994  -32.2958   26.4915 H   0  0  0  0  0  0
  -25.8037  -30.8901   27.0206 H   0  0  0  0  0  0
  -26.2944  -29.6751   24.1240 H   0  0  0  0  0  0
  -27.4012  -29.7291   25.4757 H   0  0  0  0  0  0
  -27.8832  -30.4270   23.9489 H   0  0  0  0  0  0
  -27.2586  -33.3634   26.2084 H   0  0  0  0  0  0
  -28.3822  -32.6997   25.0329 H   0  0  0  0  0  0
  -28.0725  -31.8513   26.5402 H   0  0  0  0  0  0
  -28.2573  -38.0103   24.7527 H   0  0  0  0  0  0
  -28.1104  -36.2640   24.6237 H   0  0  0  0  0  0
  -27.2311  -37.1380   25.8858 H   0  0  0  0  0  0
  -20.9400  -29.8790   21.6880 H   0  0  0  0  0  0
  -26.0155  -38.2833   24.1436 H   0  0  0  0  0  0
  -31.4800  -19.8931   19.0908 H   0  0  0  0  0  0
  -27.5878  -19.9415   20.9052 H   0  0  0  0  0  0
  -31.7143  -17.5036   19.5997 H   0  0  0  0  0  0
  -27.8189  -17.5532   21.4247 H   0  0  0  0  0  0
  -26.8156  -23.3747   19.8321 H   0  0  0  0  0  0
  -27.5807  -23.8669   21.3782 H   0  0  0  0  0  0
  -27.9865  -25.0752   18.5681 H   0  0  0  0  0  0
  -28.4865  -21.4710   18.5897 H   0  0  0  0  0  0
  -30.1636  -21.7994   18.6738 H   0  0  0  0  0  0
  -28.8981  -15.4640   21.1821 H   0  0  0  0  0  0
  1 25  1  0  0  0
  1 30  2  0  0  0
  1 82  1  0  0  0
  2  3  1  0  0  0
  2 25  1  0  0  0
  2 84  1  0  0  0
  2 85  1  0  0  0
  3  4  1  0  0  0
  3 86  1  0  0  0
  3 87  1  0  0  0
  4  5  1  0  0  0
  4 88  1  0  0  0
  4 89  1  0  0  0
  5  6  1  0  0  0
  5 26  1  0  0  0
  5 90  1  0  0  0
  6 25  1  0  0  0
  6 91  1  0  0  0
  6 92  1  0  0  0
  7  8  2  0  0  0
  7 26  1  0  0  0
  7 29  1  0  0  0
  8  9  1  0  0  0
  8 22  1  0  0  0
  9 10  1  0  0  0
  9 27  2  0  0  0
 10 11  2  0  0  0
 10 15  1  0  0  0
 11 12  1  0  0  0
 11 93  1  0  0  0
 12 13  2  0  0  0
 12 94  1  0  0  0
 13 14  1  0  0  0
 13 31  1  0  0  0
 14 15  2  0  0  0
 14 95  1  0  0  0
 15 96  1  0  0  0
 16 17  2  0  0  0
 16 21  1  0  0  0
 16 31  1  0  0  0
 17 18  1  0  0  0
 17 97  1  0  0  0
 18 19  2  0  0  0
 18 98  1  0  0  0
 19 20  1  0  0  0
 19 24  1  0  0  0
 20 21  2  0  0  0
 20 99  1  0  0  0
 21 23  1  0  0  0
 22 28  1  0  0  0
 22 32  2  0  0  0
 26 27  1  0  0  0
 28100  1  0  0  0
 28101  1  0  0  0
 29102  1  0  0  0
 29103  1  0  0  0
 33 34  1  0  0  0
 33 66  1  0  0  0
 33 70  2  0  0  0
 34 36  1  0  0  0
 34 59  1  0  0  0
 34104  1  0  0  0
 35 44  2  0  0  0
 35 45  1  0  0  0
 35 68  1  0  0  0
 36 56  1  0  0  0
 36105  1  0  0  0
 37 39  1  0  0  0
 37 47  1  0  0  0
 37 66  1  0  0  0
 37106  1  0  0  0
 38 43  2  0  0  0
 38 46  1  0  0  0
 38 47  1  0  0  0
 39 64  1  0  0  0
 39 67  2  0  0  0
 40 52  1  0  0  0
 40 53  2  0  0  0
 40 58  1  0  0  0
 41107  1  0  0  0
 41108  1  0  0  0
 41109  1  0  0  0
 41 48  1  0  0  0
 42 43  1  0  0  0
 42 66  1  0  0  0
 42110  1  0  0  0
 42111  1  0  0  0
 43 44  1  0  0  0
 44112  1  0  0  0
 45 46  2  0  0  0
 45113  1  0  0  0
 46114  1  0  0  0
 47115  1  0  0  0
 47116  1  0  0  0
 48 56  1  0  0  0
 48 65  1  0  0  0
 48117  1  0  0  0
 49 50  1  0  0  0
 49 53  1  0  0  0
 49 64  1  0  0  0
 49118  1  0  0  0
 50 51  1  0  0  0
 50119  1  0  0  0
 50120  1  0  0  0
 51 52  1  0  0  0
 51121  1  0  0  0
 51122  1  0  0  0
 52123  1  0  0  0
 52124  1  0  0  0
 53 54  1  0  0  0
 54 55  2  0  0  0
 54125  1  0  0  0
 55 57  1  0  0  0
 55126  1  0  0  0
 56 69  2  0  0  0
 57 58  2  0  0  0
 57127  1  0  0  0
 58128  1  0  0  0
 59 60  1  0  0  0
 59 61  1  0  0  0
 59 62  1  0  0  0
 60129  1  0  0  0
 60130  1  0  0  0
 60131  1  0  0  0
 61132  1  0  0  0
 61133  1  0  0  0
 61134  1  0  0  0
 62135  1  0  0  0
 62136  1  0  0  0
 62137  1  0  0  0
 63 65  1  0  0  0
 63138  1  0  0  0
 63139  1  0  0  0
 63140  1  0  0  0
 64141  1  0  0  0
 65142  1  0  0  0
 68 79  1  0  0  0
 71 73  2  0  0  0
 71 75  1  0  0  0
 71143  1  0  0  0
 72 74  1  0  0  0
 72 75  2  0  0  0
 72144  1  0  0  0
 73 76  1  0  0  0
 73145  1  0  0  0
 74 76  2  0  0  0
 74146  1  0  0  0
 75 80  1  0  0  0
 76 82  1  0  0  0
 77 79  1  0  0  0
 77 81  1  0  0  0
 77 83  2  0  0  0
 78 79  1  0  0  0
 78 81  1  0  0  0
 78147  1  0  0  0
 78148  1  0  0  0
 79149  1  0  0  0
 80 81  1  0  0  0
 80150  1  0  0  0
 80151  1  0  0  0
 82152  1  0  0  0
M  ISO  4   1 100  68 101  79 101  82 100
M  END
> <chiral flag>
0

> <version>
0

> <s_m_source_file>
/data/baiqing/PycharmProjects/Reinvent-master-3.2/result/LINK_invent/BTK/process_docking_weight1_custom_product_contain_oxygen_bond_distance_aromatic_linkinvent_7_9_3/rearranged_h_0020.sdf

> <i_m_source_file_index>
55

> <r_mmod_Potential_Energy-OPLS-2005>
180.61003112793

> <r_mmod_Stretch_Energy-OPLS-2005>
107.505950927734

> <r_mmod_Bend_Energy-OPLS-2005>
203.961364746094

> <r_mmod_Torsional_Energy-OPLS-2005>
247.532455444336

> <r_mmod_Improper_Torsional_Energy-OPLS-2005>
9.42050838470459

> <r_mmod_Van_der_Waal_Energy-OPLS-2005>
133.082641601562

> <r_mmod_Electrostatic_Energy-OPLS-2005>
-354.251373291016

> <r_mmod_Solvation_Energy-OPLS-2005>
-244.983764648438

> <b_mmod_Minimization_Converged-OPLS-2005>
0

> <r_mmod_RMS_Derivative-OPLS-2005>
2.34611630439758

$$$$
56
                    3D
 Structure written by MMmdl.
161169  0  0  1  0            999 V2000
  -30.7333  -14.4821   20.6417 C   0  0  0  0  0  0
  -30.4179  -12.3401   19.4260 C   0  0  0  0  0  0
  -29.4936  -12.5212   18.2072 C   0  0  0  0  0  0
  -28.0187  -12.3595   18.6200 C   0  0  0  0  0  0
  -27.6562  -13.2103   19.8640 C   0  0  2  0  0  0
  -28.6906  -13.0193   20.9915 C   0  0  0  0  0  0
  -25.2581  -13.8168   20.5650 C   0  0  0  0  0  0
  -24.1838  -13.0442   20.9165 C   0  0  0  0  0  0
  -24.6393  -11.6909   20.8709 C   0  0  0  0  0  0
  -23.9063  -10.4290   21.0387 C   0  0  0  0  0  0
  -24.3610   -9.4203   21.9167 C   0  0  0  0  0  0
  -23.6282   -8.2245   22.0749 C   0  0  0  0  0  0
  -22.4269   -8.0280   21.3538 C   0  0  0  0  0  0
  -21.9906   -9.0262   20.4644 C   0  0  0  0  0  0
  -22.7235  -10.2137   20.3047 C   0  0  0  0  0  0
  -21.6847   -6.0729   22.5281 C   0  0  0  0  0  0
  -21.4014   -6.5637   23.8216 C   0  0  0  0  0  0
  -21.3668   -5.6788   24.9180 C   0  0  0  0  0  0
  -21.6041   -4.3051   24.7225 C   0  0  0  0  0  0
  -21.8817   -3.8146   23.4342 C   0  0  0  0  0  0
  -21.9179   -4.6959   22.3398 C   0  0  0  0  0  0
  -22.7868  -13.5253   21.1847 C   0  0  0  0  0  0
  -22.1646   -4.2147   21.0977 F   0  0  0  0  0  0
  -21.5620   -3.4536   25.7735 F   0  0  0  0  0  0
  -30.0303  -13.3243   20.4541 N   0  0  0  0  0  0
  -26.2995  -12.9335   20.3290 N   0  0  0  0  0  0
  -25.9313  -11.6489   20.5717 N   0  0  0  0  0  0
  -22.0504  -12.8254   22.0415 N   0  0  0  0  0  0
  -25.4324  -15.1885   20.4077 N   0  0  0  0  0  0
  -31.7894  -14.7119   20.0441 O   0  0  0  0  0  0
  -21.6636   -6.8873   21.4238 O   0  0  0  0  0  0
  -22.3562  -14.5572   20.6707 O   0  0  0  0  0  0
  -24.6167  -31.8687   23.2129 C   0  0  0  0  0  0
  -25.9042  -32.4836   23.8435 C   0  0  1  0  0  0
  -27.2282  -27.4025   20.0967 C   0  0  0  0  0  0
  -25.5905  -33.8636   24.2389 N   0  0  0  0  0  0
  -23.4072  -30.4927   21.5562 C   0  0  2  0  0  0
  -24.8516  -28.9607   20.1152 C   0  0  0  0  0  0
  -22.7425  -29.4661   22.5015 C   0  0  0  0  0  0
  -18.0289  -28.1388   22.8466 C   0  0  0  0  0  0
  -24.1481  -36.7295   23.2638 C   0  0  0  0  0  0
  -25.9397  -30.8247   21.3733 C   0  0  0  0  0  0
  -26.0158  -29.4589   20.7125 C   0  0  0  0  0  0
  -27.2065  -28.6899   20.6950 C   0  0  0  0  0  0
  -26.0443  -26.9354   19.4790 C   0  0  0  0  0  0
  -24.8625  -27.7003   19.4950 C   0  0  0  0  0  0
  -23.6163  -29.8315   20.1693 C   0  0  0  0  0  0
  -25.4103  -36.3129   24.0361 C   0  0  1  0  0  0
  -20.5871  -28.3683   23.1312 C   0  0  2  0  0  0
  -20.6798  -26.9427   22.5388 C   0  0  0  0  0  0
  -19.5785  -26.6398   21.5173 C   0  0  0  0  0  0
  -18.1957  -26.7945   22.1572 C   0  0  0  0  0  0
  -19.1527  -28.8851   23.2905 C   0  0  0  0  0  0
  -18.9444  -30.1446   23.8939 C   0  0  0  0  0  0
  -17.6440  -30.6573   24.0587 C   0  0  0  0  0  0
  -25.9027  -34.9488   23.5177 C   0  0  0  0  0  0
  -16.5341  -29.9076   23.6326 C   0  0  0  0  0  0
  -16.7275  -28.6506   23.0325 C   0  0  0  0  0  0
  -26.4473  -31.6602   25.0751 C   0  0  0  0  0  0
  -25.3735  -31.3686   26.1497 C   0  0  0  0  0  0
  -27.0313  -30.3043   24.6128 C   0  0  0  0  0  0
  -27.6075  -32.4317   25.7478 C   0  0  0  0  0  0
  -27.5596  -37.1801   24.8479 C   0  0  0  0  0  0
  -21.4150  -29.3071   22.3744 N   0  0  0  0  0  0
  -26.4304  -37.3802   23.9418 N   0  0  0  0  0  0
  -24.6736  -31.0759   22.1054 N   0  0  0  0  0  0
  -23.4164  -28.8176   23.3063 O   0  0  0  0  0  0
  -28.3896  -26.6422   20.1409 O   0  0  0  0  0  0
  -26.5576  -34.8925   22.4727 O   0  0  0  0  0  0
  -23.5352  -32.1462   23.7494 O   0  0  0  0  0  0
  -28.7168  -17.2887   21.8423 C   0  0  0  0  0  0
  -28.4274  -18.6706   21.7743 C   0  0  0  0  0  0
  -30.7161  -17.6418   20.5311 C   0  0  0  0  0  0
  -29.8861  -16.7498   21.2607 C   0  0  0  0  0  0
  -29.2926  -19.5837   21.1206 C   0  0  0  0  0  0
  -30.4244  -19.0326   20.4583 C   0  0  0  0  0  0
  -30.4240  -15.0355   22.9619 C   0  0  0  0  0  0
  -28.4041  -21.4793   22.4149 C   0  0  0  0  0  0
  -29.9177  -23.0713   19.9648 C   0  0  0  0  0  0
  -29.4553  -24.4350   20.5807 C   0  0  0  0  0  0
  -28.9835  -21.8225   19.9896 C   0  0  0  0  0  0
  -28.3214  -25.2196   19.8620 C   0  0  0  0  0  0
  -30.2313  -15.3725   21.5443 N   0  0  0  0  0  0
  -29.0653  -20.9928   21.2047 N   0  0  0  0  0  0
  -31.2866  -19.8490   19.8004 F   0  0  0  0  0  0
  -31.4622  -12.4418   19.1232 H   0  0  0  0  0  0
  -30.3231  -11.3282   19.8268 H   0  0  0  0  0  0
  -29.7463  -11.8006   17.4272 H   0  0  0  0  0  0
  -29.6502  -13.5106   17.7726 H   0  0  0  0  0  0
  -27.8479  -11.3044   18.8339 H   0  0  0  0  0  0
  -27.3621  -12.6098   17.7860 H   0  0  0  0  0  0
  -27.6904  -14.2539   19.5517 H   0  0  0  0  0  0
  -28.6747  -11.9926   21.3625 H   0  0  0  0  0  0
  -28.4092  -13.6440   21.8392 H   0  0  0  0  0  0
  -25.2757   -9.5676   22.4733 H   0  0  0  0  0  0
  -23.9970   -7.4647   22.7476 H   0  0  0  0  0  0
  -21.0833   -8.8796   19.8957 H   0  0  0  0  0  0
  -22.3701  -10.9668   19.6157 H   0  0  0  0  0  0
  -21.2026   -7.6153   23.9730 H   0  0  0  0  0  0
  -21.1491   -6.0512   25.9086 H   0  0  0  0  0  0
  -22.0594   -2.7608   23.2840 H   0  0  0  0  0  0
  -22.4083  -11.9902   22.4802 H   0  0  0  0  0  0
  -21.1126  -13.1283   22.2624 H   0  0  0  0  0  0
  -24.6776  -15.8516   20.5420 H   0  0  0  0  0  0
  -26.2946  -15.6257   20.1079 H   0  0  0  0  0  0
  -26.7104  -32.5539   23.1188 H   0  0  0  0  0  0
  -25.0089  -33.9813   25.0560 H   0  0  0  0  0  0
  -22.6953  -31.3101   21.4224 H   0  0  0  0  0  0
  -23.3777  -35.9597   23.3318 H   0  0  0  0  0  0
  -24.3585  -36.8865   22.2049 H   0  0  0  0  0  0
  -23.7184  -37.6492   23.6621 H   0  0  0  0  0  0
  -26.0611  -31.5964   20.6130 H   0  0  0  0  0  0
  -26.8249  -30.8699   21.9974 H   0  0  0  0  0  0
  -28.1059  -29.0738   21.1577 H   0  0  0  0  0  0
  -26.0097  -25.9787   18.9786 H   0  0  0  0  0  0
  -23.9670  -27.3168   19.0267 H   0  0  0  0  0  0
  -23.7268  -30.6141   19.4175 H   0  0  0  0  0  0
  -22.7371  -29.2578   19.8705 H   0  0  0  0  0  0
  -25.1264  -36.2032   25.0857 H   0  0  0  0  0  0
  -20.9934  -28.3243   24.1450 H   0  0  0  0  0  0
  -20.5728  -26.2278   23.3564 H   0  0  0  0  0  0
  -21.6688  -26.7484   22.1201 H   0  0  0  0  0  0
  -19.6965  -25.6324   21.1176 H   0  0  0  0  0  0
  -19.6739  -27.3214   20.6714 H   0  0  0  0  0  0
  -17.4241  -26.6710   21.3950 H   0  0  0  0  0  0
  -18.0316  -26.0077   22.8951 H   0  0  0  0  0  0
  -19.7901  -30.7261   24.2346 H   0  0  0  0  0  0
  -17.4969  -31.6237   24.5205 H   0  0  0  0  0  0
  -15.5337  -30.2970   23.7653 H   0  0  0  0  0  0
  -15.8680  -28.0834   22.7017 H   0  0  0  0  0  0
  -24.5924  -30.7020   25.7824 H   0  0  0  0  0  0
  -24.8898  -32.2819   26.4967 H   0  0  0  0  0  0
  -25.8075  -30.8838   27.0247 H   0  0  0  0  0  0
  -26.2863  -29.6795   24.1182 H   0  0  0  0  0  0
  -27.4084  -29.7288   25.4595 H   0  0  0  0  0  0
  -27.8703  -30.4381   23.9296 H   0  0  0  0  0  0
  -27.2740  -33.3620   26.2088 H   0  0  0  0  0  0
  -28.3834  -32.6860   25.0247 H   0  0  0  0  0  0
  -28.0804  -31.8414   26.5337 H   0  0  0  0  0  0
  -28.2631  -38.0081   24.7522 H   0  0  0  0  0  0
  -28.1067  -36.2613   24.6316 H   0  0  0  0  0  0
  -27.2308  -37.1467   25.8878 H   0  0  0  0  0  0
  -20.9342  -29.8779   21.6938 H   0  0  0  0  0  0
  -26.0219  -38.2894   24.1402 H   0  0  0  0  0  0
  -28.0462  -16.6434   22.3915 H   0  0  0  0  0  0
  -27.5344  -19.0205   22.2691 H   0  0  0  0  0  0
  -31.6285  -17.2890   20.0732 H   0  0  0  0  0  0
  -29.7514  -15.5861   23.6183 H   0  0  0  0  0  0
  -31.4434  -15.2775   23.2628 H   0  0  0  0  0  0
  -30.2669  -13.9749   23.1661 H   0  0  0  0  0  0
  -28.6776  -20.8850   23.2890 H   0  0  0  0  0  0
  -27.3190  -21.4469   22.3086 H   0  0  0  0  0  0
  -28.6901  -22.5050   22.6391 H   0  0  0  0  0  0
  -30.8707  -22.7886   20.4168 H   0  0  0  0  0  0
  -30.1648  -23.2721   18.9211 H   0  0  0  0  0  0
  -30.3351  -25.0806   20.5772 H   0  0  0  0  0  0
  -29.2059  -24.3230   21.6335 H   0  0  0  0  0  0
  -29.2356  -21.1979   19.1298 H   0  0  0  0  0  0
  -27.9499  -22.1335   19.8243 H   0  0  0  0  0  0
  -27.3762  -24.7872   20.1950 H   0  0  0  0  0  0
  -28.3867  -25.0802   18.7824 H   0  0  0  0  0  0
  1 25  1  0  0  0
  1 30  2  0  0  0
  1 83  1  0  0  0
  2  3  1  0  0  0
  2 25  1  0  0  0
  2 86  1  0  0  0
  2 87  1  0  0  0
  3  4  1  0  0  0
  3 88  1  0  0  0
  3 89  1  0  0  0
  4  5  1  0  0  0
  4 90  1  0  0  0
  4 91  1  0  0  0
  5  6  1  0  0  0
  5 26  1  0  0  0
  5 92  1  0  0  0
  6 25  1  0  0  0
  6 93  1  0  0  0
  6 94  1  0  0  0
  7  8  2  0  0  0
  7 26  1  0  0  0
  7 29  1  0  0  0
  8  9  1  0  0  0
  8 22  1  0  0  0
  9 10  1  0  0  0
  9 27  2  0  0  0
 10 11  2  0  0  0
 10 15  1  0  0  0
 11 12  1  0  0  0
 11 95  1  0  0  0
 12 13  2  0  0  0
 12 96  1  0  0  0
 13 14  1  0  0  0
 13 31  1  0  0  0
 14 15  2  0  0  0
 14 97  1  0  0  0
 15 98  1  0  0  0
 16 17  2  0  0  0
 16 21  1  0  0  0
 16 31  1  0  0  0
 17 18  1  0  0  0
 17 99  1  0  0  0
 18 19  2  0  0  0
 18100  1  0  0  0
 19 20  1  0  0  0
 19 24  1  0  0  0
 20 21  2  0  0  0
 20101  1  0  0  0
 21 23  1  0  0  0
 22 28  1  0  0  0
 22 32  2  0  0  0
 26 27  1  0  0  0
 28102  1  0  0  0
 28103  1  0  0  0
 29104  1  0  0  0
 29105  1  0  0  0
 33 34  1  0  0  0
 33 66  1  0  0  0
 33 70  2  0  0  0
 34 36  1  0  0  0
 34 59  1  0  0  0
 34106  1  0  0  0
 35 44  2  0  0  0
 35 45  1  0  0  0
 35 68  1  0  0  0
 36 56  1  0  0  0
 36107  1  0  0  0
 37 39  1  0  0  0
 37 47  1  0  0  0
 37 66  1  0  0  0
 37108  1  0  0  0
 38 43  2  0  0  0
 38 46  1  0  0  0
 38 47  1  0  0  0
 39 64  1  0  0  0
 39 67  2  0  0  0
 40 52  1  0  0  0
 40 53  2  0  0  0
 40 58  1  0  0  0
 41109  1  0  0  0
 41110  1  0  0  0
 41111  1  0  0  0
 41 48  1  0  0  0
 42 43  1  0  0  0
 42 66  1  0  0  0
 42112  1  0  0  0
 42113  1  0  0  0
 43 44  1  0  0  0
 44114  1  0  0  0
 45 46  2  0  0  0
 45115  1  0  0  0
 46116  1  0  0  0
 47117  1  0  0  0
 47118  1  0  0  0
 48 56  1  0  0  0
 48 65  1  0  0  0
 48119  1  0  0  0
 49 50  1  0  0  0
 49 53  1  0  0  0
 49 64  1  0  0  0
 49120  1  0  0  0
 50 51  1  0  0  0
 50121  1  0  0  0
 50122  1  0  0  0
 51 52  1  0  0  0
 51123  1  0  0  0
 51124  1  0  0  0
 52125  1  0  0  0
 52126  1  0  0  0
 53 54  1  0  0  0
 54 55  2  0  0  0
 54127  1  0  0  0
 55 57  1  0  0  0
 55128  1  0  0  0
 56 69  2  0  0  0
 57 58  2  0  0  0
 57129  1  0  0  0
 58130  1  0  0  0
 59 60  1  0  0  0
 59 61  1  0  0  0
 59 62  1  0  0  0
 60131  1  0  0  0
 60132  1  0  0  0
 60133  1  0  0  0
 61134  1  0  0  0
 61135  1  0  0  0
 61136  1  0  0  0
 62137  1  0  0  0
 62138  1  0  0  0
 62139  1  0  0  0
 63 65  1  0  0  0
 63140  1  0  0  0
 63141  1  0  0  0
 63142  1  0  0  0
 64143  1  0  0  0
 65144  1  0  0  0
 68 82  1  0  0  0
 71 72  2  0  0  0
 71 74  1  0  0  0
 71145  1  0  0  0
 72 75  1  0  0  0
 72146  1  0  0  0
 73 74  2  0  0  0
 73 76  1  0  0  0
 73147  1  0  0  0
 74 83  1  0  0  0
 75 76  2  0  0  0
 75 84  1  0  0  0
 76 85  1  0  0  0
 77 83  1  0  0  0
 77148  1  0  0  0
 77149  1  0  0  0
 77150  1  0  0  0
 78 84  1  0  0  0
 78151  1  0  0  0
 78152  1  0  0  0
 78153  1  0  0  0
 79 80  1  0  0  0
 79 81  1  0  0  0
 79154  1  0  0  0
 79155  1  0  0  0
 80 82  1  0  0  0
 80156  1  0  0  0
 80157  1  0  0  0
 81 84  1  0  0  0
 81158  1  0  0  0
 81159  1  0  0  0
 82160  1  0  0  0
 82161  1  0  0  0
M  ISO  4   1 100  68 101  82 101  83 100
M  END
> <chiral flag>
0

> <version>
0

> <s_m_source_file>
/data/baiqing/PycharmProjects/Reinvent-master-3.2/result/LINK_invent/BTK/process_docking_weight1_custom_product_contain_oxygen_bond_distance_aromatic_linkinvent_7_9_3/rearranged_h_0020.sdf

> <i_m_source_file_index>
56

> <r_mmod_Potential_Energy-OPLS-2005>
201.151718139648

> <r_mmod_Stretch_Energy-OPLS-2005>
51.0957946777344

> <r_mmod_Bend_Energy-OPLS-2005>
125.207275390625

> <r_mmod_Torsional_Energy-OPLS-2005>
321.016387939453

> <r_mmod_Improper_Torsional_Energy-OPLS-2005>
4.57832813262939

> <r_mmod_Van_der_Waal_Energy-OPLS-2005>
155.775680541992

> <r_mmod_Electrostatic_Energy-OPLS-2005>
-274.113708496094

> <r_mmod_Solvation_Energy-OPLS-2005>
-198.665161132812

> <b_mmod_Minimization_Converged-OPLS-2005>
0

> <r_mmod_RMS_Derivative-OPLS-2005>
2.61330032348633

$$$$
57
                    3D
 Structure written by MMmdl.
158167  0  0  1  0            999 V2000
  -30.7379  -14.4290   20.6336 C   0  0  0  0  0  0
  -30.4161  -12.3074   19.4048 C   0  0  0  0  0  0
  -29.4865  -12.5203   18.1950 C   0  0  0  0  0  0
  -28.0080  -12.3835   18.6088 C   0  0  0  0  0  0
  -27.6621  -13.2096   19.8769 C   0  0  2  0  0  0
  -28.7032  -12.9707   20.9914 C   0  0  0  0  0  0
  -25.2580  -13.8176   20.5687 C   0  0  0  0  0  0
  -24.1830  -13.0448   20.9171 C   0  0  0  0  0  0
  -24.6393  -11.6915   20.8729 C   0  0  0  0  0  0
  -23.9071  -10.4298   21.0405 C   0  0  0  0  0  0
  -24.3618   -9.4213   21.9187 C   0  0  0  0  0  0
  -23.6293   -8.2247   22.0758 C   0  0  0  0  0  0
  -22.4274   -8.0283   21.3545 C   0  0  0  0  0  0
  -21.9911   -9.0260   20.4646 C   0  0  0  0  0  0
  -22.7247  -10.2140   20.3051 C   0  0  0  0  0  0
  -21.6853   -6.0741   22.5280 C   0  0  0  0  0  0
  -21.4016   -6.5643   23.8218 C   0  0  0  0  0  0
  -21.3660   -5.6792   24.9178 C   0  0  0  0  0  0
  -21.6040   -4.3055   24.7224 C   0  0  0  0  0  0
  -21.8819   -3.8149   23.4346 C   0  0  0  0  0  0
  -21.9196   -4.6969   22.3402 C   0  0  0  0  0  0
  -22.7852  -13.5238   21.1847 C   0  0  0  0  0  0
  -22.1657   -4.2155   21.0978 F   0  0  0  0  0  0
  -21.5633   -3.4537   25.7740 F   0  0  0  0  0  0
  -30.0350  -13.2792   20.4407 N   0  0  0  0  0  0
  -26.3020  -12.9348   20.3381 N   0  0  0  0  0  0
  -25.9320  -11.6506   20.5768 N   0  0  0  0  0  0
  -22.0490  -12.8209   22.0383 N   0  0  0  0  0  0
  -25.4309  -15.1896   20.4117 N   0  0  0  0  0  0
  -31.8227  -14.6506   20.0872 O   0  0  0  0  0  0
  -21.6635   -6.8880   21.4242 O   0  0  0  0  0  0
  -22.3544  -14.5561   20.6727 O   0  0  0  0  0  0
  -24.6174  -31.8684   23.2120 C   0  0  0  0  0  0
  -25.9065  -32.4829   23.8414 C   0  0  1  0  0  0
  -27.2203  -27.4198   20.0872 C   0  0  0  0  0  0
  -25.5918  -33.8630   24.2339 N   0  0  0  0  0  0
  -23.4035  -30.4981   21.5530 C   0  0  2  0  0  0
  -24.8449  -28.9698   20.1131 C   0  0  0  0  0  0
  -22.7414  -29.4687   22.4981 C   0  0  0  0  0  0
  -18.0277  -28.1379   22.8499 C   0  0  0  0  0  0
  -24.1482  -36.7308   23.2637 C   0  0  0  0  0  0
  -25.9361  -30.8324   21.3638 C   0  0  0  0  0  0
  -26.0115  -29.4677   20.7067 C   0  0  0  0  0  0
  -27.2046  -28.7041   20.6857 C   0  0  0  0  0  0
  -26.0291  -26.9479   19.4834 C   0  0  0  0  0  0
  -24.8500  -27.7104   19.4970 C   0  0  0  0  0  0
  -23.6102  -29.8392   20.1652 C   0  0  0  0  0  0
  -25.4102  -36.3109   24.0331 C   0  0  1  0  0  0
  -20.5873  -28.3678   23.1310 C   0  0  2  0  0  0
  -20.6777  -26.9415   22.5406 C   0  0  0  0  0  0
  -19.5755  -26.6401   21.5206 C   0  0  0  0  0  0
  -18.1930  -26.7929   22.1619 C   0  0  0  0  0  0
  -19.1528  -28.8844   23.2908 C   0  0  0  0  0  0
  -18.9457  -30.1448   23.8928 C   0  0  0  0  0  0
  -17.6459  -30.6592   24.0582 C   0  0  0  0  0  0
  -25.9038  -34.9480   23.5124 C   0  0  0  0  0  0
  -16.5353  -29.9093   23.6336 C   0  0  0  0  0  0
  -16.7265  -28.6505   23.0361 C   0  0  0  0  0  0
  -26.4481  -31.6602   25.0737 C   0  0  0  0  0  0
  -25.3748  -31.3692   26.1487 C   0  0  0  0  0  0
  -27.0292  -30.3048   24.6084 C   0  0  0  0  0  0
  -27.6075  -32.4309   25.7494 C   0  0  0  0  0  0
  -27.5573  -37.1817   24.8469 C   0  0  0  0  0  0
  -21.4143  -29.3052   22.3715 N   0  0  0  0  0  0
  -26.4285  -37.3798   23.9412 N   0  0  0  0  0  0
  -24.6717  -31.0792   22.1017 N   0  0  0  0  0  0
  -23.4186  -28.8218   23.3013 O   0  0  0  0  0  0
  -28.3685  -26.6449   20.1108 O   0  0  0  0  0  0
  -26.5599  -34.8929   22.4683 O   0  0  0  0  0  0
  -23.5365  -32.1430   23.7509 O   0  0  0  0  0  0
  -29.4323  -18.6055   22.1264 C   0  0  0  0  0  0
  -31.2038  -18.4586   20.4831 C   0  0  0  0  0  0
  -29.1975  -19.9489   21.7547 C   0  0  0  0  0  0
  -30.9715  -19.8025   20.1152 C   0  0  0  0  0  0
  -30.4621  -17.8581   21.5189 C   0  0  0  0  0  0
  -29.9885  -20.5965   20.7656 C   0  0  0  0  0  0
  -29.0826  -22.9519   21.0116 C   0  0  0  0  0  0
  -30.3257  -24.1090   19.3232 C   0  0  0  0  0  0
  -30.7408  -22.6342   19.4409 C   0  0  0  0  0  0
  -29.4012  -24.3720   20.5129 C   0  0  1  0  0  0
  -30.8531  -16.4793   22.0549 C   0  0  0  0  0  0
  -28.1451  -25.2185   20.1781 C   0  0  0  0  0  0
  -29.8642  -22.0070   20.4324 N   0  0  0  0  0  0
  -30.1741  -15.3261   21.4581 N   0  0  0  0  0  0
  -28.1969  -22.7624   21.8506 O   0  0  0  0  0  0
  -31.4605  -12.4033   19.1028 H   0  0  0  0  0  0
  -30.3138  -11.2923   19.7912 H   0  0  0  0  0  0
  -29.7218  -11.8026   17.4083 H   0  0  0  0  0  0
  -29.6590  -13.5098   17.7686 H   0  0  0  0  0  0
  -27.8087  -11.3268   18.7883 H   0  0  0  0  0  0
  -27.3599  -12.6788   17.7826 H   0  0  0  0  0  0
  -27.7124  -14.2624   19.5976 H   0  0  0  0  0  0
  -28.6772  -11.9287   21.3140 H   0  0  0  0  0  0
  -28.4586  -13.5504   21.8811 H   0  0  0  0  0  0
  -25.2767   -9.5694   22.4763 H   0  0  0  0  0  0
  -24.0010   -7.4638   22.7473 H   0  0  0  0  0  0
  -21.0847   -8.8777   19.8944 H   0  0  0  0  0  0
  -22.3713  -10.9674   19.6150 H   0  0  0  0  0  0
  -21.2001   -7.6151   23.9724 H   0  0  0  0  0  0
  -21.1481   -6.0522   25.9084 H   0  0  0  0  0  0
  -22.0596   -2.7612   23.2845 H   0  0  0  0  0  0
  -22.4083  -11.9845   22.4738 H   0  0  0  0  0  0
  -21.1110  -13.1236   22.2602 H   0  0  0  0  0  0
  -24.6706  -15.8502   20.5297 H   0  0  0  0  0  0
  -26.2946  -15.6284   20.1163 H   0  0  0  0  0  0
  -26.7125  -32.5534   23.1173 H   0  0  0  0  0  0
  -25.0110  -33.9803   25.0512 H   0  0  0  0  0  0
  -22.6929  -31.3165   21.4175 H   0  0  0  0  0  0
  -23.3745  -35.9642   23.3306 H   0  0  0  0  0  0
  -24.3582  -36.8911   22.2051 H   0  0  0  0  0  0
  -23.7233  -37.6514   23.6645 H   0  0  0  0  0  0
  -26.0455  -31.5967   20.5931 H   0  0  0  0  0  0
  -26.8253  -30.8873   21.9798 H   0  0  0  0  0  0
  -28.1057  -29.0847   21.1471 H   0  0  0  0  0  0
  -25.9797  -25.9898   18.9893 H   0  0  0  0  0  0
  -23.9534  -27.3260   19.0313 H   0  0  0  0  0  0
  -23.7225  -30.6189   19.4111 H   0  0  0  0  0  0
  -22.7312  -29.2655   19.8652 H   0  0  0  0  0  0
  -25.1267  -36.1976   25.0821 H   0  0  0  0  0  0
  -20.9980  -28.3239   24.1423 H   0  0  0  0  0  0
  -20.5691  -26.2281   23.3588 H   0  0  0  0  0  0
  -21.6643  -26.7455   22.1199 H   0  0  0  0  0  0
  -19.6925  -25.6314   21.1236 H   0  0  0  0  0  0
  -19.6703  -27.3223   20.6745 H   0  0  0  0  0  0
  -17.4204  -26.6702   21.4013 H   0  0  0  0  0  0
  -18.0331  -26.0039   22.8983 H   0  0  0  0  0  0
  -19.7931  -30.7267   24.2313 H   0  0  0  0  0  0
  -17.5011  -31.6282   24.5165 H   0  0  0  0  0  0
  -15.5356  -30.3019   23.7631 H   0  0  0  0  0  0
  -15.8661  -28.0837   22.7070 H   0  0  0  0  0  0
  -24.5946  -30.6996   25.7839 H   0  0  0  0  0  0
  -24.8906  -32.2824   26.4957 H   0  0  0  0  0  0
  -25.8113  -30.8873   27.0243 H   0  0  0  0  0  0
  -26.2807  -29.6842   24.1135 H   0  0  0  0  0  0
  -27.4061  -29.7258   25.4525 H   0  0  0  0  0  0
  -27.8649  -30.4369   23.9206 H   0  0  0  0  0  0
  -27.2738  -33.3655   26.2017 H   0  0  0  0  0  0
  -28.3926  -32.6780   25.0334 H   0  0  0  0  0  0
  -28.0677  -31.8443   26.5455 H   0  0  0  0  0  0
  -28.2605  -38.0105   24.7507 H   0  0  0  0  0  0
  -28.1050  -36.2631   24.6291 H   0  0  0  0  0  0
  -27.2298  -37.1476   25.8880 H   0  0  0  0  0  0
  -20.9306  -29.8759   21.6927 H   0  0  0  0  0  0
  -26.0163  -38.2873   24.1419 H   0  0  0  0  0  0
  -28.8460  -18.1663   22.9224 H   0  0  0  0  0  0
  -31.9963  -17.9035   19.9982 H   0  0  0  0  0  0
  -28.4153  -20.4670   22.2862 H   0  0  0  0  0  0
  -31.6034  -20.2169   19.3430 H   0  0  0  0  0  0
  -29.8044  -24.2727   18.3786 H   0  0  0  0  0  0
  -31.1906  -24.7724   19.3299 H   0  0  0  0  0  0
  -31.7765  -22.5569   19.7748 H   0  0  0  0  0  0
  -30.6578  -22.1349   18.4748 H   0  0  0  0  0  0
  -29.9586  -24.8517   21.3181 H   0  0  0  0  0  0
  -30.6499  -16.4558   23.1261 H   0  0  0  0  0  0
  -31.9367  -16.3718   21.9756 H   0  0  0  0  0  0
  -27.3813  -25.0370   20.9375 H   0  0  0  0  0  0
  -27.7413  -24.8550   19.2335 H   0  0  0  0  0  0
  -29.2658  -15.0900   21.8269 H   0  0  0  0  0  0
  1 25  1  0  0  0
  1 30  2  0  0  0
  1 84  1  0  0  0
  2  3  1  0  0  0
  2 25  1  0  0  0
  2 86  1  0  0  0
  2 87  1  0  0  0
  3  4  1  0  0  0
  3 88  1  0  0  0
  3 89  1  0  0  0
  4  5  1  0  0  0
  4 90  1  0  0  0
  4 91  1  0  0  0
  5  6  1  0  0  0
  5 26  1  0  0  0
  5 92  1  0  0  0
  6 25  1  0  0  0
  6 93  1  0  0  0
  6 94  1  0  0  0
  7  8  2  0  0  0
  7 26  1  0  0  0
  7 29  1  0  0  0
  8  9  1  0  0  0
  8 22  1  0  0  0
  9 10  1  0  0  0
  9 27  2  0  0  0
 10 11  2  0  0  0
 10 15  1  0  0  0
 11 12  1  0  0  0
 11 95  1  0  0  0
 12 13  2  0  0  0
 12 96  1  0  0  0
 13 14  1  0  0  0
 13 31  1  0  0  0
 14 15  2  0  0  0
 14 97  1  0  0  0
 15 98  1  0  0  0
 16 17  2  0  0  0
 16 21  1  0  0  0
 16 31  1  0  0  0
 17 18  1  0  0  0
 17 99  1  0  0  0
 18 19  2  0  0  0
 18100  1  0  0  0
 19 20  1  0  0  0
 19 24  1  0  0  0
 20 21  2  0  0  0
 20101  1  0  0  0
 21 23  1  0  0  0
 22 28  1  0  0  0
 22 32  2  0  0  0
 26 27  1  0  0  0
 28102  1  0  0  0
 28103  1  0  0  0
 29104  1  0  0  0
 29105  1  0  0  0
 33 34  1  0  0  0
 33 66  1  0  0  0
 33 70  2  0  0  0
 34 36  1  0  0  0
 34 59  1  0  0  0
 34106  1  0  0  0
 35 44  2  0  0  0
 35 45  1  0  0  0
 35 68  1  0  0  0
 36 56  1  0  0  0
 36107  1  0  0  0
 37 39  1  0  0  0
 37 47  1  0  0  0
 37 66  1  0  0  0
 37108  1  0  0  0
 38 43  2  0  0  0
 38 46  1  0  0  0
 38 47  1  0  0  0
 39 64  1  0  0  0
 39 67  2  0  0  0
 40 52  1  0  0  0
 40 53  2  0  0  0
 40 58  1  0  0  0
 41109  1  0  0  0
 41110  1  0  0  0
 41111  1  0  0  0
 41 48  1  0  0  0
 42 43  1  0  0  0
 42 66  1  0  0  0
 42112  1  0  0  0
 42113  1  0  0  0
 43 44  1  0  0  0
 44114  1  0  0  0
 45 46  2  0  0  0
 45115  1  0  0  0
 46116  1  0  0  0
 47117  1  0  0  0
 47118  1  0  0  0
 48 56  1  0  0  0
 48 65  1  0  0  0
 48119  1  0  0  0
 49 50  1  0  0  0
 49 53  1  0  0  0
 49 64  1  0  0  0
 49120  1  0  0  0
 50 51  1  0  0  0
 50121  1  0  0  0
 50122  1  0  0  0
 51 52  1  0  0  0
 51123  1  0  0  0
 51124  1  0  0  0
 52125  1  0  0  0
 52126  1  0  0  0
 53 54  1  0  0  0
 54 55  2  0  0  0
 54127  1  0  0  0
 55 57  1  0  0  0
 55128  1  0  0  0
 56 69  2  0  0  0
 57 58  2  0  0  0
 57129  1  0  0  0
 58130  1  0  0  0
 59 60  1  0  0  0
 59 61  1  0  0  0
 59 62  1  0  0  0
 60131  1  0  0  0
 60132  1  0  0  0
 60133  1  0  0  0
 61134  1  0  0  0
 61135  1  0  0  0
 61136  1  0  0  0
 62137  1  0  0  0
 62138  1  0  0  0
 62139  1  0  0  0
 63 65  1  0  0  0
 63140  1  0  0  0
 63141  1  0  0  0
 63142  1  0  0  0
 64143  1  0  0  0
 65144  1  0  0  0
 68 82  1  0  0  0
 71 73  2  0  0  0
 71 75  1  0  0  0
 71145  1  0  0  0
 72 74  1  0  0  0
 72 75  2  0  0  0
 72146  1  0  0  0
 73 76  1  0  0  0
 73147  1  0  0  0
 74 76  2  0  0  0
 74148  1  0  0  0
 75 81  1  0  0  0
 76 83  1  0  0  0
 77 80  1  0  0  0
 77 83  1  0  0  0
 77 85  2  0  0  0
 78 79  1  0  0  0
 78 80  1  0  0  0
 78149  1  0  0  0
 78150  1  0  0  0
 79 83  1  0  0  0
 79151  1  0  0  0
 79152  1  0  0  0
 80 82  1  0  0  0
 80153  1  0  0  0
 81 84  1  0  0  0
 81154  1  0  0  0
 81155  1  0  0  0
 82156  1  0  0  0
 82157  1  0  0  0
 84158  1  0  0  0
M  ISO  4   1 100  68 101  82 101  84 100
M  END
> <chiral flag>
0

> <version>
0

> <s_m_source_file>
/data/baiqing/PycharmProjects/Reinvent-master-3.2/result/LINK_invent/BTK/process_docking_weight1_custom_product_contain_oxygen_bond_distance_aromatic_linkinvent_7_9_3/rearranged_h_0020.sdf

> <i_m_source_file_index>
57

> <r_mmod_Potential_Energy-OPLS-2005>
-10.4178504943848

> <r_mmod_Stretch_Energy-OPLS-2005>
42.4960060119629

> <r_mmod_Bend_Energy-OPLS-2005>
119.43684387207

> <r_mmod_Torsional_Energy-OPLS-2005>
252.716003417969

> <r_mmod_Improper_Torsional_Energy-OPLS-2005>
2.46667122840881

> <r_mmod_Van_der_Waal_Energy-OPLS-2005>
166.132186889648

> <r_mmod_Electrostatic_Energy-OPLS-2005>
-386.572265625

> <r_mmod_Solvation_Energy-OPLS-2005>
-219.113037109375

> <b_mmod_Minimization_Converged-OPLS-2005>
0

> <r_mmod_RMS_Derivative-OPLS-2005>
1.47806560993195

$$$$
58
                    3D
 Structure written by MMmdl.
155164  0  0  1  0            999 V2000
  -30.6218  -14.6379   20.5086 C   0  0  0  0  0  0
  -30.4433  -12.3922   19.4553 C   0  0  0  0  0  0
  -29.5102  -12.5047   18.2287 C   0  0  0  0  0  0
  -28.0344  -12.3374   18.6433 C   0  0  0  0  0  0
  -27.6559  -13.2131   19.8668 C   0  0  2  0  0  0
  -28.7001  -13.0647   20.9971 C   0  0  0  0  0  0
  -25.2573  -13.8165   20.5690 C   0  0  0  0  0  0
  -24.1832  -13.0437   20.9192 C   0  0  0  0  0  0
  -24.6396  -11.6905   20.8751 C   0  0  0  0  0  0
  -23.9063  -10.4288   21.0411 C   0  0  0  0  0  0
  -24.3618   -9.4204   21.9189 C   0  0  0  0  0  0
  -23.6291   -8.2243   22.0760 C   0  0  0  0  0  0
  -22.4274   -8.0277   21.3548 C   0  0  0  0  0  0
  -21.9910   -9.0252   20.4653 C   0  0  0  0  0  0
  -22.7239  -10.2129   20.3057 C   0  0  0  0  0  0
  -21.6847   -6.0732   22.5279 C   0  0  0  0  0  0
  -21.4003   -6.5635   23.8212 C   0  0  0  0  0  0
  -21.3662   -5.6791   24.9177 C   0  0  0  0  0  0
  -21.6045   -4.3053   24.7226 C   0  0  0  0  0  0
  -21.8817   -3.8142   23.4347 C   0  0  0  0  0  0
  -21.9191   -4.6958   22.3403 C   0  0  0  0  0  0
  -22.7856  -13.5239   21.1851 C   0  0  0  0  0  0
  -22.1659   -4.2146   21.0979 F   0  0  0  0  0  0
  -21.5639   -3.4536   25.7742 F   0  0  0  0  0  0
  -30.0176  -13.4096   20.4370 N   0  0  0  0  0  0
  -26.3002  -12.9338   20.3340 N   0  0  0  0  0  0
  -25.9322  -11.6494   20.5779 N   0  0  0  0  0  0
  -22.0490  -12.8236   22.0406 N   0  0  0  0  0  0
  -25.4298  -15.1888   20.4095 N   0  0  0  0  0  0
  -31.7786  -14.8083   20.1122 O   0  0  0  0  0  0
  -21.6638   -6.8874   21.4241 O   0  0  0  0  0  0
  -22.3550  -14.5555   20.6714 O   0  0  0  0  0  0
  -24.6256  -31.8595   23.2014 C   0  0  0  0  0  0
  -25.9108  -32.4783   23.8336 C   0  0  1  0  0  0
  -27.2325  -27.3252   20.1137 C   0  0  0  0  0  0
  -25.5928  -33.8581   24.2258 N   0  0  0  0  0  0
  -23.4199  -30.4830   21.5442 C   0  0  2  0  0  0
  -24.8674  -28.9387   20.1110 C   0  0  0  0  0  0
  -22.7475  -29.4625   22.4935 C   0  0  0  0  0  0
  -18.0291  -28.1390   22.8490 C   0  0  0  0  0  0
  -24.1479  -36.7274   23.2638 C   0  0  0  0  0  0
  -25.9597  -30.7928   21.3706 C   0  0  0  0  0  0
  -26.0362  -29.4201   20.7141 C   0  0  0  0  0  0
  -27.2214  -28.6258   20.7048 C   0  0  0  0  0  0
  -26.0376  -26.8981   19.4861 C   0  0  0  0  0  0
  -24.8696  -27.6826   19.4876 C   0  0  0  0  0  0
  -23.6344  -29.8170   20.1603 C   0  0  0  0  0  0
  -25.4109  -36.3076   24.0327 C   0  0  1  0  0  0
  -20.5896  -28.3691   23.1277 C   0  0  2  0  0  0
  -20.6776  -26.9416   22.5397 C   0  0  0  0  0  0
  -19.5753  -26.6391   21.5205 C   0  0  0  0  0  0
  -18.1934  -26.7934   22.1623 C   0  0  0  0  0  0
  -19.1546  -28.8858   23.2880 C   0  0  0  0  0  0
  -18.9478  -30.1468   23.8886 C   0  0  0  0  0  0
  -17.6480  -30.6590   24.0581 C   0  0  0  0  0  0
  -25.9055  -34.9455   23.5090 C   0  0  0  0  0  0
  -16.5366  -29.9097   23.6342 C   0  0  0  0  0  0
  -16.7281  -28.6518   23.0352 C   0  0  0  0  0  0
  -26.4494  -31.6595   25.0703 C   0  0  0  0  0  0
  -25.3728  -31.3743   26.1431 C   0  0  0  0  0  0
  -27.0348  -30.3032   24.6133 C   0  0  0  0  0  0
  -27.6042  -32.4349   25.7479 C   0  0  0  0  0  0
  -27.5575  -37.1793   24.8478 C   0  0  0  0  0  0
  -21.4189  -29.3046   22.3677 N   0  0  0  0  0  0
  -26.4277  -37.3781   23.9431 N   0  0  0  0  0  0
  -24.6870  -31.0613   22.0961 N   0  0  0  0  0  0
  -23.4201  -28.8168   23.3013 O   0  0  0  0  0  0
  -28.3544  -26.4791   20.1660 O   0  0  0  0  0  0
  -26.5629  -34.8936   22.4663 O   0  0  0  0  0  0
  -23.5417  -32.1388   23.7343 O   0  0  0  0  0  0
  -28.6928  -19.3192   20.9354 C   0  0  0  0  0  0
  -28.7337  -17.9009   21.0717 C   0  0  0  0  0  0
  -30.9921  -17.8727   20.2779 C   0  0  0  0  0  0
  -29.7995  -20.0807   20.4601 C   0  0  0  0  0  0
  -29.8762  -17.1276   20.7396 C   0  0  0  0  0  0
  -30.9591  -19.2961   20.1463 C   0  0  0  0  0  0
  -28.8191  -22.4768   20.6912 C   0  0  0  0  0  0
  -30.3915  -23.7682   19.4773 C   0  0  0  0  0  0
  -30.8626  -22.3107   19.6813 C   0  0  0  0  0  0
  -29.2424  -23.9689   20.4644 C   0  0  1  0  0  0
  -28.1254  -25.0205   20.0289 C   0  0  0  0  0  0
  -29.7636  -21.5606   20.3010 N   0  0  0  0  0  0
  -29.8092  -15.6714   20.8950 N   0  0  0  0  0  0
  -27.7255  -22.2068   21.1947 O   0  0  0  0  0  0
  -32.0954  -19.8918   19.7131 F   0  0  0  0  0  0
  -31.4841  -12.5223   19.1528 H   0  0  0  0  0  0
  -30.3841  -11.3959   19.8966 H   0  0  0  0  0  0
  -29.7762  -11.7505   17.4864 H   0  0  0  0  0  0
  -29.6481  -13.4730   17.7447 H   0  0  0  0  0  0
  -27.8817  -11.2850   18.8859 H   0  0  0  0  0  0
  -27.3744  -12.5524   17.8023 H   0  0  0  0  0  0
  -27.6757  -14.2487   19.5253 H   0  0  0  0  0  0
  -28.7115  -12.0417   21.3767 H   0  0  0  0  0  0
  -28.4428  -13.6909   21.8526 H   0  0  0  0  0  0
  -25.2760   -9.5677   22.4770 H   0  0  0  0  0  0
  -23.9994   -7.4631   22.7476 H   0  0  0  0  0  0
  -21.0843   -8.8768   19.8955 H   0  0  0  0  0  0
  -22.3699  -10.9670   19.6168 H   0  0  0  0  0  0
  -21.1980   -7.6143   23.9714 H   0  0  0  0  0  0
  -21.1491   -6.0522   25.9083 H   0  0  0  0  0  0
  -22.0595   -2.7603   23.2848 H   0  0  0  0  0  0
  -22.4082  -11.9880   22.4775 H   0  0  0  0  0  0
  -21.1119  -13.1283   22.2627 H   0  0  0  0  0  0
  -24.6588  -15.8405   20.5079 H   0  0  0  0  0  0
  -26.2740  -15.6247   20.0614 H   0  0  0  0  0  0
  -26.7170  -32.5456   23.1077 H   0  0  0  0  0  0
  -25.0116  -33.9736   25.0431 H   0  0  0  0  0  0
  -22.7141  -31.3036   21.4007 H   0  0  0  0  0  0
  -23.3760  -35.9590   23.3293 H   0  0  0  0  0  0
  -24.3565  -36.8890   22.2052 H   0  0  0  0  0  0
  -23.7205  -37.6461   23.6661 H   0  0  0  0  0  0
  -26.0872  -31.5552   20.6008 H   0  0  0  0  0  0
  -26.8402  -30.8437   21.9985 H   0  0  0  0  0  0
  -28.1179  -28.9926   21.1855 H   0  0  0  0  0  0
  -25.9751  -25.9408   18.9919 H   0  0  0  0  0  0
  -23.9756  -27.3073   19.0088 H   0  0  0  0  0  0
  -23.7542  -30.5931   19.4033 H   0  0  0  0  0  0
  -22.7546  -29.2459   19.8571 H   0  0  0  0  0  0
  -25.1282  -36.1903   25.0815 H   0  0  0  0  0  0
  -20.9993  -28.3247   24.1397 H   0  0  0  0  0  0
  -20.5675  -26.2304   23.3596 H   0  0  0  0  0  0
  -21.6645  -26.7443   22.1190 H   0  0  0  0  0  0
  -19.6917  -25.6302   21.1237 H   0  0  0  0  0  0
  -19.6684  -27.3202   20.6736 H   0  0  0  0  0  0
  -17.4203  -26.6693   21.4025 H   0  0  0  0  0  0
  -18.0335  -26.0061   22.9004 H   0  0  0  0  0  0
  -19.7961  -30.7298   24.2220 H   0  0  0  0  0  0
  -17.5043  -31.6271   24.5188 H   0  0  0  0  0  0
  -15.5370  -30.3013   23.7673 H   0  0  0  0  0  0
  -15.8676  -28.0853   22.7055 H   0  0  0  0  0  0
  -24.5902  -30.7089   25.7764 H   0  0  0  0  0  0
  -24.8937  -32.2925   26.4844 H   0  0  0  0  0  0
  -25.8049  -30.8931   27.0215 H   0  0  0  0  0  0
  -26.2919  -29.6778   24.1169 H   0  0  0  0  0  0
  -27.4091  -29.7273   25.4607 H   0  0  0  0  0  0
  -27.8755  -30.4343   23.9318 H   0  0  0  0  0  0
  -27.2630  -33.3660   26.2018 H   0  0  0  0  0  0
  -28.3867  -32.6893   25.0319 H   0  0  0  0  0  0
  -28.0688  -31.8506   26.5427 H   0  0  0  0  0  0
  -28.2583  -38.0104   24.7550 H   0  0  0  0  0  0
  -28.1074  -36.2637   24.6254 H   0  0  0  0  0  0
  -27.2309  -37.1368   25.8886 H   0  0  0  0  0  0
  -20.9359  -29.8787   21.6905 H   0  0  0  0  0  0
  -26.0144  -38.2841   24.1475 H   0  0  0  0  0  0
  -27.7698  -19.8063   21.2068 H   0  0  0  0  0  0
  -27.8469  -17.4031   21.4406 H   0  0  0  0  0  0
  -31.9073  -17.3635   20.0159 H   0  0  0  0  0  0
  -30.0375  -23.8998   18.4538 H   0  0  0  0  0  0
  -31.1996  -24.4830   19.6357 H   0  0  0  0  0  0
  -31.7276  -22.2858   20.3463 H   0  0  0  0  0  0
  -31.1560  -21.8727   18.7266 H   0  0  0  0  0  0
  -29.6506  -24.2932   21.4219 H   0  0  0  0  0  0
  -27.2345  -24.7818   20.6121 H   0  0  0  0  0  0
  -27.8708  -24.8153   18.9884 H   0  0  0  0  0  0
  -28.9202  -15.3348   21.2328 H   0  0  0  0  0  0
  1 25  1  0  0  0
  1 30  2  0  0  0
  1 83  1  0  0  0
  2  3  1  0  0  0
  2 25  1  0  0  0
  2 86  1  0  0  0
  2 87  1  0  0  0
  3  4  1  0  0  0
  3 88  1  0  0  0
  3 89  1  0  0  0
  4  5  1  0  0  0
  4 90  1  0  0  0
  4 91  1  0  0  0
  5  6  1  0  0  0
  5 26  1  0  0  0
  5 92  1  0  0  0
  6 25  1  0  0  0
  6 93  1  0  0  0
  6 94  1  0  0  0
  7  8  2  0  0  0
  7 26  1  0  0  0
  7 29  1  0  0  0
  8  9  1  0  0  0
  8 22  1  0  0  0
  9 10  1  0  0  0
  9 27  2  0  0  0
 10 11  2  0  0  0
 10 15  1  0  0  0
 11 12  1  0  0  0
 11 95  1  0  0  0
 12 13  2  0  0  0
 12 96  1  0  0  0
 13 14  1  0  0  0
 13 31  1  0  0  0
 14 15  2  0  0  0
 14 97  1  0  0  0
 15 98  1  0  0  0
 16 17  2  0  0  0
 16 21  1  0  0  0
 16 31  1  0  0  0
 17 18  1  0  0  0
 17 99  1  0  0  0
 18 19  2  0  0  0
 18100  1  0  0  0
 19 20  1  0  0  0
 19 24  1  0  0  0
 20 21  2  0  0  0
 20101  1  0  0  0
 21 23  1  0  0  0
 22 28  1  0  0  0
 22 32  2  0  0  0
 26 27  1  0  0  0
 28102  1  0  0  0
 28103  1  0  0  0
 29104  1  0  0  0
 29105  1  0  0  0
 33 34  1  0  0  0
 33 66  1  0  0  0
 33 70  2  0  0  0
 34 36  1  0  0  0
 34 59  1  0  0  0
 34106  1  0  0  0
 35 44  2  0  0  0
 35 45  1  0  0  0
 35 68  1  0  0  0
 36 56  1  0  0  0
 36107  1  0  0  0
 37 39  1  0  0  0
 37 47  1  0  0  0
 37 66  1  0  0  0
 37108  1  0  0  0
 38 43  2  0  0  0
 38 46  1  0  0  0
 38 47  1  0  0  0
 39 64  1  0  0  0
 39 67  2  0  0  0
 40 52  1  0  0  0
 40 53  2  0  0  0
 40 58  1  0  0  0
 41109  1  0  0  0
 41110  1  0  0  0
 41111  1  0  0  0
 41 48  1  0  0  0
 42 43  1  0  0  0
 42 66  1  0  0  0
 42112  1  0  0  0
 42113  1  0  0  0
 43 44  1  0  0  0
 44114  1  0  0  0
 45 46  2  0  0  0
 45115  1  0  0  0
 46116  1  0  0  0
 47117  1  0  0  0
 47118  1  0  0  0
 48 56  1  0  0  0
 48 65  1  0  0  0
 48119  1  0  0  0
 49 50  1  0  0  0
 49 53  1  0  0  0
 49 64  1  0  0  0
 49120  1  0  0  0
 50 51  1  0  0  0
 50121  1  0  0  0
 50122  1  0  0  0
 51 52  1  0  0  0
 51123  1  0  0  0
 51124  1  0  0  0
 52125  1  0  0  0
 52126  1  0  0  0
 53 54  1  0  0  0
 54 55  2  0  0  0
 54127  1  0  0  0
 55 57  1  0  0  0
 55128  1  0  0  0
 56 69  2  0  0  0
 57 58  2  0  0  0
 57129  1  0  0  0
 58130  1  0  0  0
 59 60  1  0  0  0
 59 61  1  0  0  0
 59 62  1  0  0  0
 60131  1  0  0  0
 60132  1  0  0  0
 60133  1  0  0  0
 61134  1  0  0  0
 61135  1  0  0  0
 61136  1  0  0  0
 62137  1  0  0  0
 62138  1  0  0  0
 62139  1  0  0  0
 63 65  1  0  0  0
 63140  1  0  0  0
 63141  1  0  0  0
 63142  1  0  0  0
 64143  1  0  0  0
 65144  1  0  0  0
 68 81  1  0  0  0
 71 72  2  0  0  0
 71 74  1  0  0  0
 71145  1  0  0  0
 72 75  1  0  0  0
 72146  1  0  0  0
 73 75  2  0  0  0
 73 76  1  0  0  0
 73147  1  0  0  0
 74 76  2  0  0  0
 74 82  1  0  0  0
 75 83  1  0  0  0
 76 85  1  0  0  0
 77 80  1  0  0  0
 77 82  1  0  0  0
 77 84  2  0  0  0
 78 79  1  0  0  0
 78 80  1  0  0  0
 78148  1  0  0  0
 78149  1  0  0  0
 79 82  1  0  0  0
 79150  1  0  0  0
 79151  1  0  0  0
 80 81  1  0  0  0
 80152  1  0  0  0
 81153  1  0  0  0
 81154  1  0  0  0
 83155  1  0  0  0
M  ISO  4   1 100  68 101  81 101  83 100
M  END
> <chiral flag>
0

> <version>
0

> <s_m_source_file>
/data/baiqing/PycharmProjects/Reinvent-master-3.2/result/LINK_invent/BTK/process_docking_weight1_custom_product_contain_oxygen_bond_distance_aromatic_linkinvent_7_9_3/rearranged_h_0020.sdf

> <i_m_source_file_index>
58

> <r_mmod_Potential_Energy-OPLS-2005>
135.948196411133

> <r_mmod_Stretch_Energy-OPLS-2005>
83.4098434448242

> <r_mmod_Bend_Energy-OPLS-2005>
168.991851806641

> <r_mmod_Torsional_Energy-OPLS-2005>
252.532943725586

> <r_mmod_Improper_Torsional_Energy-OPLS-2005>
3.93975591659546

> <r_mmod_Van_der_Waal_Energy-OPLS-2005>
152.924697875977

> <r_mmod_Electrostatic_Energy-OPLS-2005>
-359.209838867188

> <r_mmod_Solvation_Energy-OPLS-2005>
-213.683441162109

> <b_mmod_Minimization_Converged-OPLS-2005>
0

> <r_mmod_RMS_Derivative-OPLS-2005>
1.26658821105957

$$$$
59
                    3D
 Structure written by MMmdl.
153161  0  0  1  0            999 V2000
  -30.6312  -14.5931   20.5344 C   0  0  0  0  0  0
  -30.4420  -12.3673   19.4346 C   0  0  0  0  0  0
  -29.5080  -12.5208   18.2123 C   0  0  0  0  0  0
  -28.0267  -12.3721   18.6192 C   0  0  0  0  0  0
  -27.6612  -13.2135   19.8715 C   0  0  2  0  0  0
  -28.7089  -13.0094   20.9909 C   0  0  0  0  0  0
  -25.2578  -13.8164   20.5653 C   0  0  0  0  0  0
  -24.1851  -13.0438   20.9191 C   0  0  0  0  0  0
  -24.6417  -11.6903   20.8734 C   0  0  0  0  0  0
  -23.9075  -10.4296   21.0409 C   0  0  0  0  0  0
  -24.3617   -9.4204   21.9186 C   0  0  0  0  0  0
  -23.6300   -8.2236   22.0747 C   0  0  0  0  0  0
  -22.4275   -8.0282   21.3544 C   0  0  0  0  0  0
  -21.9915   -9.0250   20.4642 C   0  0  0  0  0  0
  -22.7246  -10.2139   20.3056 C   0  0  0  0  0  0
  -21.6851   -6.0739   22.5287 C   0  0  0  0  0  0
  -21.4009   -6.5642   23.8218 C   0  0  0  0  0  0
  -21.3665   -5.6788   24.9183 C   0  0  0  0  0  0
  -21.6038   -4.3052   24.7232 C   0  0  0  0  0  0
  -21.8822   -3.8150   23.4350 C   0  0  0  0  0  0
  -21.9191   -4.6963   22.3404 C   0  0  0  0  0  0
  -22.7868  -13.5231   21.1850 C   0  0  0  0  0  0
  -22.1659   -4.2150   21.0985 F   0  0  0  0  0  0
  -21.5632   -3.4530   25.7741 F   0  0  0  0  0  0
  -30.0316  -13.3637   20.4428 N   0  0  0  0  0  0
  -26.3027  -12.9342   20.3341 N   0  0  0  0  0  0
  -25.9343  -11.6497   20.5757 N   0  0  0  0  0  0
  -22.0499  -12.8216   22.0404 N   0  0  0  0  0  0
  -25.4272  -15.1885   20.4009 N   0  0  0  0  0  0
  -31.7636  -14.8033   20.0877 O   0  0  0  0  0  0
  -21.6650   -6.8876   21.4243 O   0  0  0  0  0  0
  -22.3542  -14.5530   20.6706 O   0  0  0  0  0  0
  -24.6175  -31.8634   23.1999 C   0  0  0  0  0  0
  -25.9041  -32.4797   23.8329 C   0  0  1  0  0  0
  -27.2509  -27.3636   20.1271 C   0  0  0  0  0  0
  -25.5878  -33.8584   24.2293 N   0  0  0  0  0  0
  -23.4119  -30.4825   21.5407 C   0  0  2  0  0  0
  -24.8627  -28.9267   20.1179 C   0  0  0  0  0  0
  -22.7422  -29.4661   22.4947 C   0  0  0  0  0  0
  -18.0304  -28.1382   22.8532 C   0  0  0  0  0  0
  -24.1477  -36.7282   23.2648 C   0  0  0  0  0  0
  -25.9422  -30.8097   21.3563 C   0  0  0  0  0  0
  -26.0230  -29.4298   20.7205 C   0  0  0  0  0  0
  -27.2183  -28.6619   20.7117 C   0  0  0  0  0  0
  -26.0695  -26.8895   19.5148 C   0  0  0  0  0  0
  -24.8863  -27.6610   19.5041 C   0  0  0  0  0  0
  -23.6243  -29.7998   20.1597 C   0  0  0  0  0  0
  -25.4101  -36.3089   24.0357 C   0  0  1  0  0  0
  -20.5899  -28.3670   23.1327 C   0  0  2  0  0  0
  -20.6780  -26.9396   22.5432 C   0  0  0  0  0  0
  -19.5762  -26.6389   21.5233 C   0  0  0  0  0  0
  -18.1948  -26.7944   22.1636 C   0  0  0  0  0  0
  -19.1559  -28.8850   23.2930 C   0  0  0  0  0  0
  -18.9471  -30.1464   23.8924 C   0  0  0  0  0  0
  -17.6473  -30.6592   24.0590 C   0  0  0  0  0  0
  -25.9035  -34.9469   23.5127 C   0  0  0  0  0  0
  -16.5370  -29.9096   23.6327 C   0  0  0  0  0  0
  -16.7301  -28.6511   23.0350 C   0  0  0  0  0  0
  -26.4457  -31.6575   25.0664 C   0  0  0  0  0  0
  -25.3703  -31.3710   26.1399 C   0  0  0  0  0  0
  -27.0250  -30.3026   24.5993 C   0  0  0  0  0  0
  -27.6054  -32.4259   25.7415 C   0  0  0  0  0  0
  -27.5582  -37.1800   24.8484 C   0  0  0  0  0  0
  -21.4151  -29.3039   22.3692 N   0  0  0  0  0  0
  -26.4295  -37.3778   23.9427 N   0  0  0  0  0  0
  -24.6761  -31.0683   22.0904 N   0  0  0  0  0  0
  -23.4169  -28.8224   23.3030 O   0  0  0  0  0  0
  -28.4357  -26.6317   20.0770 O   0  0  0  0  0  0
  -26.5606  -34.8941   22.4695 O   0  0  0  0  0  0
  -23.5362  -32.1383   23.7407 O   0  0  0  0  0  0
  -28.5418  -17.6326   21.2788 C   0  0  0  0  0  0
  -30.8042  -17.8924   20.4789 C   0  0  0  0  0  0
  -28.3561  -19.0403   21.2600 C   0  0  0  0  0  0
  -30.6244  -19.3145   20.4770 C   0  0  0  0  0  0
  -29.7642  -17.0196   20.9108 C   0  0  0  0  0  0
  -29.4010  -19.9156   20.8870 C   0  0  0  0  0  0
  -28.1872  -24.0979   19.5058 C   0  0  0  0  0  0
  -28.5219  -25.2383   20.5327 C   0  0  0  0  0  0
  -28.8934  -22.6658   19.5127 C   0  0  0  0  0  0
  -29.8337  -15.5716   21.0497 N   0  0  0  0  0  0
  -27.9704  -21.9665   21.9420 O   0  0  0  0  0  0
  -30.4492  -22.2773   21.6687 O   0  0  0  0  0  0
  -29.1816  -21.7578   21.1274 S   0  0  0  0  0  0
  -31.4836  -12.4937   19.1351 H   0  0  0  0  0  0
  -30.3713  -11.3579   19.8466 H   0  0  0  0  0  0
  -29.7640  -11.7854   17.4487 H   0  0  0  0  0  0
  -29.6640  -13.4986   17.7526 H   0  0  0  0  0  0
  -27.8442  -11.3158   18.8200 H   0  0  0  0  0  0
  -27.3794  -12.6400   17.7831 H   0  0  0  0  0  0
  -27.6966  -14.2600   19.5657 H   0  0  0  0  0  0
  -28.7082  -11.9674   21.3175 H   0  0  0  0  0  0
  -28.4553  -13.5897   21.8780 H   0  0  0  0  0  0
  -25.2765   -9.5682   22.4753 H   0  0  0  0  0  0
  -24.0012   -7.4626   22.7457 H   0  0  0  0  0  0
  -21.0843   -8.8774   19.8943 H   0  0  0  0  0  0
  -22.3705  -10.9674   19.6154 H   0  0  0  0  0  0
  -21.1997   -7.6142   23.9724 H   0  0  0  0  0  0
  -21.1485   -6.0521   25.9091 H   0  0  0  0  0  0
  -22.0594   -2.7604   23.2856 H   0  0  0  0  0  0
  -22.4113  -11.9879   22.4799 H   0  0  0  0  0  0
  -21.1110  -13.1235   22.2594 H   0  0  0  0  0  0
  -24.6450  -15.8318   20.4676 H   0  0  0  0  0  0
  -26.2576  -15.6152   20.0100 H   0  0  0  0  0  0
  -26.7101  -32.5502   23.1083 H   0  0  0  0  0  0
  -25.0011  -33.9716   25.0435 H   0  0  0  0  0  0
  -22.7081  -31.3044   21.3950 H   0  0  0  0  0  0
  -23.3751  -35.9597   23.3307 H   0  0  0  0  0  0
  -24.3598  -36.8883   22.2060 H   0  0  0  0  0  0
  -23.7208  -37.6488   23.6647 H   0  0  0  0  0  0
  -26.0490  -31.5605   20.5721 H   0  0  0  0  0  0
  -26.8330  -30.8808   21.9678 H   0  0  0  0  0  0
  -28.1148  -29.0594   21.1675 H   0  0  0  0  0  0
  -26.0655  -25.9308   19.0197 H   0  0  0  0  0  0
  -24.0002  -27.2814   19.0117 H   0  0  0  0  0  0
  -23.7297  -30.5677   19.3916 H   0  0  0  0  0  0
  -22.7468  -29.2155   19.8735 H   0  0  0  0  0  0
  -25.1280  -36.1935   25.0853 H   0  0  0  0  0  0
  -21.0051  -28.3231   24.1424 H   0  0  0  0  0  0
  -20.5667  -26.2276   23.3620 H   0  0  0  0  0  0
  -21.6648  -26.7408   22.1229 H   0  0  0  0  0  0
  -19.6893  -25.6301   21.1235 H   0  0  0  0  0  0
  -19.6694  -27.3228   20.6778 H   0  0  0  0  0  0
  -17.4209  -26.6749   21.4018 H   0  0  0  0  0  0
  -18.0328  -26.0086   22.9028 H   0  0  0  0  0  0
  -19.7949  -30.7322   24.2250 H   0  0  0  0  0  0
  -17.5019  -31.6270   24.5196 H   0  0  0  0  0  0
  -15.5365  -30.3004   23.7634 H   0  0  0  0  0  0
  -15.8716  -28.0853   22.7002 H   0  0  0  0  0  0
  -24.5880  -30.7066   25.7738 H   0  0  0  0  0  0
  -24.8889  -32.2876   26.4816 H   0  0  0  0  0  0
  -25.8034  -30.8887   27.0170 H   0  0  0  0  0  0
  -26.2763  -29.6820   24.1063 H   0  0  0  0  0  0
  -27.4081  -29.7229   25.4399 H   0  0  0  0  0  0
  -27.8572  -30.4388   23.9085 H   0  0  0  0  0  0
  -27.2732  -33.3610   26.1931 H   0  0  0  0  0  0
  -28.3884  -32.6698   25.0227 H   0  0  0  0  0  0
  -28.0652  -31.8371   26.5355 H   0  0  0  0  0  0
  -28.2610  -38.0086   24.7523 H   0  0  0  0  0  0
  -28.1060  -36.2626   24.6297 H   0  0  0  0  0  0
  -27.2326  -37.1442   25.8897 H   0  0  0  0  0  0
  -20.9296  -29.8743   21.6913 H   0  0  0  0  0  0
  -26.0172  -38.2859   24.1422 H   0  0  0  0  0  0
  -27.7183  -17.0168   21.6117 H   0  0  0  0  0  0
  -31.7605  -17.4837   20.1820 H   0  0  0  0  0  0
  -27.4159  -19.4540   21.5948 H   0  0  0  0  0  0
  -31.4499  -19.9543   20.2018 H   0  0  0  0  0  0
  -28.3862  -24.5140   18.5184 H   0  0  0  0  0  0
  -27.1083  -23.9459   19.5254 H   0  0  0  0  0  0
  -29.5632  -25.1095   20.8306 H   0  0  0  0  0  0
  -27.9434  -25.1127   21.4488 H   0  0  0  0  0  0
  -29.8655  -22.7229   19.0270 H   0  0  0  0  0  0
  -28.3006  -21.9958   18.8913 H   0  0  0  0  0  0
  -29.0055  -15.1669   21.4587 H   0  0  0  0  0  0
  1 25  1  0  0  0
  1 30  2  0  0  0
  1 80  1  0  0  0
  2  3  1  0  0  0
  2 25  1  0  0  0
  2 84  1  0  0  0
  2 85  1  0  0  0
  3  4  1  0  0  0
  3 86  1  0  0  0
  3 87  1  0  0  0
  4  5  1  0  0  0
  4 88  1  0  0  0
  4 89  1  0  0  0
  5  6  1  0  0  0
  5 26  1  0  0  0
  5 90  1  0  0  0
  6 25  1  0  0  0
  6 91  1  0  0  0
  6 92  1  0  0  0
  7  8  2  0  0  0
  7 26  1  0  0  0
  7 29  1  0  0  0
  8  9  1  0  0  0
  8 22  1  0  0  0
  9 10  1  0  0  0
  9 27  2  0  0  0
 10 11  2  0  0  0
 10 15  1  0  0  0
 11 12  1  0  0  0
 11 93  1  0  0  0
 12 13  2  0  0  0
 12 94  1  0  0  0
 13 14  1  0  0  0
 13 31  1  0  0  0
 14 15  2  0  0  0
 14 95  1  0  0  0
 15 96  1  0  0  0
 16 17  2  0  0  0
 16 21  1  0  0  0
 16 31  1  0  0  0
 17 18  1  0  0  0
 17 97  1  0  0  0
 18 19  2  0  0  0
 18 98  1  0  0  0
 19 20  1  0  0  0
 19 24  1  0  0  0
 20 21  2  0  0  0
 20 99  1  0  0  0
 21 23  1  0  0  0
 22 28  1  0  0  0
 22 32  2  0  0  0
 26 27  1  0  0  0
 28100  1  0  0  0
 28101  1  0  0  0
 29102  1  0  0  0
 29103  1  0  0  0
 33 34  1  0  0  0
 33 66  1  0  0  0
 33 70  2  0  0  0
 34 36  1  0  0  0
 34 59  1  0  0  0
 34104  1  0  0  0
 35 44  2  0  0  0
 35 45  1  0  0  0
 35 68  1  0  0  0
 36 56  1  0  0  0
 36105  1  0  0  0
 37 39  1  0  0  0
 37 47  1  0  0  0
 37 66  1  0  0  0
 37106  1  0  0  0
 38 43  2  0  0  0
 38 46  1  0  0  0
 38 47  1  0  0  0
 39 64  1  0  0  0
 39 67  2  0  0  0
 40 52  1  0  0  0
 40 53  2  0  0  0
 40 58  1  0  0  0
 41107  1  0  0  0
 41108  1  0  0  0
 41109  1  0  0  0
 41 48  1  0  0  0
 42 43  1  0  0  0
 42 66  1  0  0  0
 42110  1  0  0  0
 42111  1  0  0  0
 43 44  1  0  0  0
 44112  1  0  0  0
 45 46  2  0  0  0
 45113  1  0  0  0
 46114  1  0  0  0
 47115  1  0  0  0
 47116  1  0  0  0
 48 56  1  0  0  0
 48 65  1  0  0  0
 48117  1  0  0  0
 49 50  1  0  0  0
 49 53  1  0  0  0
 49 64  1  0  0  0
 49118  1  0  0  0
 50 51  1  0  0  0
 50119  1  0  0  0
 50120  1  0  0  0
 51 52  1  0  0  0
 51121  1  0  0  0
 51122  1  0  0  0
 52123  1  0  0  0
 52124  1  0  0  0
 53 54  1  0  0  0
 54 55  2  0  0  0
 54125  1  0  0  0
 55 57  1  0  0  0
 55126  1  0  0  0
 56 69  2  0  0  0
 57 58  2  0  0  0
 57127  1  0  0  0
 58128  1  0  0  0
 59 60  1  0  0  0
 59 61  1  0  0  0
 59 62  1  0  0  0
 60129  1  0  0  0
 60130  1  0  0  0
 60131  1  0  0  0
 61132  1  0  0  0
 61133  1  0  0  0
 61134  1  0  0  0
 62135  1  0  0  0
 62136  1  0  0  0
 62137  1  0  0  0
 63 65  1  0  0  0
 63138  1  0  0  0
 63139  1  0  0  0
 63140  1  0  0  0
 64141  1  0  0  0
 65142  1  0  0  0
 68 78  1  0  0  0
 71 73  2  0  0  0
 71 75  1  0  0  0
 71143  1  0  0  0
 72 74  1  0  0  0
 72 75  2  0  0  0
 72144  1  0  0  0
 73 76  1  0  0  0
 73145  1  0  0  0
 74 76  2  0  0  0
 74146  1  0  0  0
 75 80  1  0  0  0
 76 83  1  0  0  0
 77 78  1  0  0  0
 77 79  1  0  0  0
 77147  1  0  0  0
 77148  1  0  0  0
 78149  1  0  0  0
 78150  1  0  0  0
 79151  1  0  0  0
 79152  1  0  0  0
 79 83  1  0  0  0
 80153  1  0  0  0
 81 83  2  0  0  0
 82 83  2  0  0  0
M  ISO  4   1 100  68 101  78 101  80 100
M  END
> <chiral flag>
0

> <version>
0

> <s_m_source_file>
/data/baiqing/PycharmProjects/Reinvent-master-3.2/result/LINK_invent/BTK/process_docking_weight1_custom_product_contain_oxygen_bond_distance_aromatic_linkinvent_7_9_3/rearranged_h_0020.sdf

> <i_m_source_file_index>
59

> <r_mmod_Potential_Energy-OPLS-2005>
-102.342254638672

> <r_mmod_Stretch_Energy-OPLS-2005>
68.071662902832

> <r_mmod_Bend_Energy-OPLS-2005>
162.267913818359

> <r_mmod_Torsional_Energy-OPLS-2005>
225.94953918457

> <r_mmod_Improper_Torsional_Energy-OPLS-2005>
4.73133945465088

> <r_mmod_Van_der_Waal_Energy-OPLS-2005>
127.482345581055

> <r_mmod_Electrostatic_Energy-OPLS-2005>
-460.654815673828

> <r_mmod_Solvation_Energy-OPLS-2005>
-258.451812744141

> <b_mmod_Minimization_Converged-OPLS-2005>
0

> <r_mmod_RMS_Derivative-OPLS-2005>
3.50130939483643

$$$$
60
                    3D
 Structure written by MMmdl.
167177  0  0  1  0            999 V2000
  -30.7268  -14.4175   20.6059 C   0  0  0  0  0  0
  -30.4216  -12.2841   19.4143 C   0  0  0  0  0  0
  -29.4937  -12.5119   18.2039 C   0  0  0  0  0  0
  -28.0142  -12.3771   18.6160 C   0  0  0  0  0  0
  -27.6667  -13.2052   19.8829 C   0  0  2  0  0  0
  -28.7065  -12.9548   20.9992 C   0  0  0  0  0  0
  -25.2568  -13.8138   20.5657 C   0  0  0  0  0  0
  -24.1812  -13.0412   20.9108 C   0  0  0  0  0  0
  -24.6386  -11.6891   20.8700 C   0  0  0  0  0  0
  -23.9058  -10.4280   21.0386 C   0  0  0  0  0  0
  -24.3610   -9.4203   21.9174 C   0  0  0  0  0  0
  -23.6283   -8.2244   22.0756 C   0  0  0  0  0  0
  -22.4265   -8.0281   21.3550 C   0  0  0  0  0  0
  -21.9894   -9.0251   20.4649 C   0  0  0  0  0  0
  -22.7226  -10.2123   20.3045 C   0  0  0  0  0  0
  -21.6849   -6.0733   22.5282 C   0  0  0  0  0  0
  -21.4013   -6.5635   23.8216 C   0  0  0  0  0  0
  -21.3657   -5.6789   24.9176 C   0  0  0  0  0  0
  -21.6041   -4.3052   24.7228 C   0  0  0  0  0  0
  -21.8820   -3.8144   23.4348 C   0  0  0  0  0  0
  -21.9191   -4.6961   22.3403 C   0  0  0  0  0  0
  -22.7841  -13.5223   21.1799 C   0  0  0  0  0  0
  -22.1660   -4.2147   21.0981 F   0  0  0  0  0  0
  -21.5625   -3.4536   25.7740 F   0  0  0  0  0  0
  -30.0473  -13.2493   20.4585 N   0  0  0  0  0  0
  -26.3049  -12.9331   20.3415 N   0  0  0  0  0  0
  -25.9325  -11.6485   20.5774 N   0  0  0  0  0  0
  -22.0487  -12.8238   22.0378 N   0  0  0  0  0  0
  -25.4227  -15.1849   20.4140 N   0  0  0  0  0  0
  -31.8201  -14.6297   20.0740 O   0  0  0  0  0  0
  -21.6633   -6.8877   21.4247 O   0  0  0  0  0  0
  -22.3523  -14.5539   20.6666 O   0  0  0  0  0  0
  -24.6115  -31.8695   23.2101 C   0  0  0  0  0  0
  -25.9021  -32.4828   23.8390 C   0  0  1  0  0  0
  -27.2427  -27.4663   20.0987 C   0  0  0  0  0  0
  -25.5882  -33.8623   24.2325 N   0  0  0  0  0  0
  -23.3985  -30.4904   21.5504 C   0  0  2  0  0  0
  -24.8476  -28.9546   20.1180 C   0  0  0  0  0  0
  -22.7392  -29.4663   22.5010 C   0  0  0  0  0  0
  -18.0269  -28.1376   22.8497 C   0  0  0  0  0  0
  -24.1486  -36.7325   23.2638 C   0  0  0  0  0  0
  -25.9225  -30.8460   21.3566 C   0  0  0  0  0  0
  -26.0039  -29.4803   20.7088 C   0  0  0  0  0  0
  -27.2065  -28.7433   20.6943 C   0  0  0  0  0  0
  -26.0743  -26.9397   19.5106 C   0  0  0  0  0  0
  -24.8762  -27.6819   19.5170 C   0  0  0  0  0  0
  -23.6055  -29.8159   20.1669 C   0  0  0  0  0  0
  -25.4104  -36.3116   24.0338 C   0  0  1  0  0  0
  -20.5855  -28.3656   23.1332 C   0  0  2  0  0  0
  -20.6755  -26.9394   22.5424 C   0  0  0  0  0  0
  -19.5735  -26.6384   21.5215 C   0  0  0  0  0  0
  -18.1912  -26.7926   22.1626 C   0  0  0  0  0  0
  -19.1517  -28.8833   23.2914 C   0  0  0  0  0  0
  -18.9446  -30.1441   23.8919 C   0  0  0  0  0  0
  -17.6447  -30.6582   24.0568 C   0  0  0  0  0  0
  -25.9030  -34.9479   23.5132 C   0  0  0  0  0  0
  -16.5339  -29.9084   23.6325 C   0  0  0  0  0  0
  -16.7258  -28.6502   23.0347 C   0  0  0  0  0  0
  -26.4467  -31.6598   25.0705 C   0  0  0  0  0  0
  -25.3747  -31.3695   26.1467 C   0  0  0  0  0  0
  -27.0293  -30.3043   24.6060 C   0  0  0  0  0  0
  -27.6055  -32.4309   25.7462 C   0  0  0  0  0  0
  -27.5580  -37.1814   24.8462 C   0  0  0  0  0  0
  -21.4124  -29.3028   22.3748 N   0  0  0  0  0  0
  -26.4293  -37.3797   23.9405 N   0  0  0  0  0  0
  -24.6623  -31.0819   22.0985 N   0  0  0  0  0  0
  -23.4179  -28.8213   23.3044 O   0  0  0  0  0  0
  -28.4170  -26.7582   20.0792 O   0  0  0  0  0  0
  -26.5596  -34.8930   22.4696 O   0  0  0  0  0  0
  -23.5316  -32.1432   23.7518 O   0  0  0  0  0  0
  -32.5385  -25.0317   22.3315 C   0  0  0  0  0  0
  -31.7649  -26.1137   22.7813 C   0  0  0  0  0  0
  -31.1114  -18.8579   20.3273 C   0  0  0  0  0  0
  -31.9868  -24.1054   21.4282 C   0  0  0  0  0  0
  -30.4443  -26.2660   22.3216 C   0  0  0  0  0  0
  -31.2219  -17.5045   20.7252 C   0  0  0  0  0  0
  -29.8283  -19.4327   20.2322 C   0  0  0  0  0  0
  -28.6947  -18.6917   20.5467 C   0  0  0  0  0  0
  -30.6569  -24.2404   20.9634 C   0  0  0  0  0  0
  -29.8747  -25.3456   21.4131 C   0  0  0  0  0  0
  -30.0595  -16.7352   21.0025 C   0  0  0  0  0  0
  -28.7882  -17.3457   20.9417 C   0  0  0  0  0  0
  -27.4357  -19.4876   20.3392 C   0  0  0  0  0  0
  -27.9230  -20.7729   19.6255 C   0  0  0  0  0  0
  -29.4742  -20.8142   19.7244 C   0  0  1  0  0  0
  -30.1541  -23.1870   19.9768 C   0  0  0  0  0  0
  -28.4456  -25.6376   20.9604 C   0  0  0  0  0  0
  -30.0931  -15.3535   21.3268 N   0  0  0  0  0  0
  -29.9459  -21.8777   20.6343 N   0  3  0  0  0  0
  -27.6761  -16.6253   21.2153 F   0  0  0  0  0  0
  -31.4669  -12.3744   19.1132 H   0  0  0  0  0  0
  -30.3121  -11.2670   19.7929 H   0  0  0  0  0  0
  -29.7261  -11.7979   17.4125 H   0  0  0  0  0  0
  -29.6713  -13.5026   17.7829 H   0  0  0  0  0  0
  -27.8179  -11.3203   18.8001 H   0  0  0  0  0  0
  -27.3661  -12.6660   17.7878 H   0  0  0  0  0  0
  -27.7193  -14.2580   19.6042 H   0  0  0  0  0  0
  -28.6704  -11.9120   21.3173 H   0  0  0  0  0  0
  -28.4639  -13.5324   21.8919 H   0  0  0  0  0  0
  -25.2756   -9.5678   22.4745 H   0  0  0  0  0  0
  -23.9991   -7.4635   22.7477 H   0  0  0  0  0  0
  -21.0823   -8.8768   19.8959 H   0  0  0  0  0  0
  -22.3688  -10.9659   19.6150 H   0  0  0  0  0  0
  -21.2008   -7.6144   23.9719 H   0  0  0  0  0  0
  -21.1474   -6.0517   25.9078 H   0  0  0  0  0  0
  -22.0600   -2.7608   23.2851 H   0  0  0  0  0  0
  -22.4091  -11.9901   22.4777 H   0  0  0  0  0  0
  -21.1115  -13.1293   22.2592 H   0  0  0  0  0  0
  -24.6688  -15.8362   20.5969 H   0  0  0  0  0  0
  -26.3286  -15.6410   20.3614 H   0  0  0  0  0  0
  -26.7098  -32.5560   23.1166 H   0  0  0  0  0  0
  -25.0025  -33.9785   25.0464 H   0  0  0  0  0  0
  -22.6854  -31.3054   21.4092 H   0  0  0  0  0  0
  -23.3734  -35.9674   23.3319 H   0  0  0  0  0  0
  -24.3579  -36.8923   22.2049 H   0  0  0  0  0  0
  -23.7255  -37.6543   23.6642 H   0  0  0  0  0  0
  -26.0256  -31.6108   20.5852 H   0  0  0  0  0  0
  -26.8134  -30.9050   21.9701 H   0  0  0  0  0  0
  -28.1039  -29.1470   21.1423 H   0  0  0  0  0  0
  -26.0946  -25.9648   19.0441 H   0  0  0  0  0  0
  -23.9868  -27.2702   19.0602 H   0  0  0  0  0  0
  -23.7069  -30.5867   19.4022 H   0  0  0  0  0  0
  -22.7316  -29.2296   19.8767 H   0  0  0  0  0  0
  -25.1279  -36.1989   25.0831 H   0  0  0  0  0  0
  -20.9948  -28.3217   24.1451 H   0  0  0  0  0  0
  -20.5654  -26.2257   23.3605 H   0  0  0  0  0  0
  -21.6629  -26.7436   22.1217 H   0  0  0  0  0  0
  -19.6889  -25.6301   21.1225 H   0  0  0  0  0  0
  -19.6672  -27.3211   20.6759 H   0  0  0  0  0  0
  -17.4182  -26.6687   21.4026 H   0  0  0  0  0  0
  -18.0304  -26.0061   22.9012 H   0  0  0  0  0  0
  -19.7921  -30.7254   24.2296 H   0  0  0  0  0  0
  -17.5001  -31.6265   24.5165 H   0  0  0  0  0  0
  -15.5340  -30.2991   23.7637 H   0  0  0  0  0  0
  -15.8659  -28.0826   22.7050 H   0  0  0  0  0  0
  -24.5905  -30.7062   25.7802 H   0  0  0  0  0  0
  -24.8958  -32.2849   26.4951 H   0  0  0  0  0  0
  -25.8108  -30.8832   27.0201 H   0  0  0  0  0  0
  -26.2821  -29.6803   24.1143 H   0  0  0  0  0  0
  -27.4102  -29.7282   25.4503 H   0  0  0  0  0  0
  -27.8638  -30.4365   23.9169 H   0  0  0  0  0  0
  -27.2685  -33.3593   26.2086 H   0  0  0  0  0  0
  -28.3840  -32.6895   25.0271 H   0  0  0  0  0  0
  -28.0755  -31.8404   26.5339 H   0  0  0  0  0  0
  -28.2611  -38.0099   24.7497 H   0  0  0  0  0  0
  -28.1062  -36.2630   24.6298 H   0  0  0  0  0  0
  -27.2301  -37.1487   25.8868 H   0  0  0  0  0  0
  -20.9278  -29.8746   21.6974 H   0  0  0  0  0  0
  -26.0188  -38.2881   24.1389 H   0  0  0  0  0  0
  -33.5575  -24.9136   22.6753 H   0  0  0  0  0  0
  -32.1854  -26.8316   23.4723 H   0  0  0  0  0  0
  -31.9979  -19.4233   20.0742 H   0  0  0  0  0  0
  -32.6049  -23.2855   21.0879 H   0  0  0  0  0  0
  -29.8618  -27.1098   22.6659 H   0  0  0  0  0  0
  -32.2038  -17.0567   20.7844 H   0  0  0  0  0  0
  -26.9864  -19.7123   21.3072 H   0  0  0  0  0  0
  -26.7089  -18.9351   19.7426 H   0  0  0  0  0  0
  -27.4249  -21.6715   19.9913 H   0  0  0  0  0  0
  -27.6590  -20.6881   18.5706 H   0  0  0  0  0  0
  -29.9232  -20.9366   18.7363 H   0  0  0  0  0  0
  -30.9096  -23.0738   19.1973 H   0  0  0  0  0  0
  -29.2527  -23.4998   19.4544 H   0  0  0  0  0  0
  -27.8619  -25.8505   21.8590 H   0  0  0  0  0  0
  -27.9566  -24.7821   20.5001 H   0  0  0  0  0  0
  -29.2424  -15.0147   21.7505 H   0  0  0  0  0  0
  -30.8311  -21.5845   21.0106 H   0  0  0  0  0  0
  -29.3081  -21.9708   21.4060 H   0  0  0  0  0  0
  1 25  1  0  0  0
  1 30  2  0  0  0
  1 88  1  0  0  0
  2  3  1  0  0  0
  2 25  1  0  0  0
  2 91  1  0  0  0
  2 92  1  0  0  0
  3  4  1  0  0  0
  3 93  1  0  0  0
  3 94  1  0  0  0
  4  5  1  0  0  0
  4 95  1  0  0  0
  4 96  1  0  0  0
  5  6  1  0  0  0
  5 26  1  0  0  0
  5 97  1  0  0  0
  6 25  1  0  0  0
  6 98  1  0  0  0
  6 99  1  0  0  0
  7  8  2  0  0  0
  7 26  1  0  0  0
  7 29  1  0  0  0
  8  9  1  0  0  0
  8 22  1  0  0  0
  9 10  1  0  0  0
  9 27  2  0  0  0
 10 11  2  0  0  0
 10 15  1  0  0  0
 11 12  1  0  0  0
 11100  1  0  0  0
 12 13  2  0  0  0
 12101  1  0  0  0
 13 14  1  0  0  0
 13 31  1  0  0  0
 14 15  2  0  0  0
 14102  1  0  0  0
 15103  1  0  0  0
 16 17  2  0  0  0
 16 21  1  0  0  0
 16 31  1  0  0  0
 17 18  1  0  0  0
 17104  1  0  0  0
 18 19  2  0  0  0
 18105  1  0  0  0
 19 20  1  0  0  0
 19 24  1  0  0  0
 20 21  2  0  0  0
 20106  1  0  0  0
 21 23  1  0  0  0
 22 28  1  0  0  0
 22 32  2  0  0  0
 26 27  1  0  0  0
 28107  1  0  0  0
 28108  1  0  0  0
 29109  1  0  0  0
 29110  1  0  0  0
 33 34  1  0  0  0
 33 66  1  0  0  0
 33 70  2  0  0  0
 34 36  1  0  0  0
 34 59  1  0  0  0
 34111  1  0  0  0
 35 44  2  0  0  0
 35 45  1  0  0  0
 35 68  1  0  0  0
 36 56  1  0  0  0
 36112  1  0  0  0
 37 39  1  0  0  0
 37 47  1  0  0  0
 37 66  1  0  0  0
 37113  1  0  0  0
 38 43  2  0  0  0
 38 46  1  0  0  0
 38 47  1  0  0  0
 39 64  1  0  0  0
 39 67  2  0  0  0
 40 52  1  0  0  0
 40 53  2  0  0  0
 40 58  1  0  0  0
 41114  1  0  0  0
 41115  1  0  0  0
 41116  1  0  0  0
 41 48  1  0  0  0
 42 43  1  0  0  0
 42 66  1  0  0  0
 42117  1  0  0  0
 42118  1  0  0  0
 43 44  1  0  0  0
 44119  1  0  0  0
 45 46  2  0  0  0
 45120  1  0  0  0
 46121  1  0  0  0
 47122  1  0  0  0
 47123  1  0  0  0
 48 56  1  0  0  0
 48 65  1  0  0  0
 48124  1  0  0  0
 49 50  1  0  0  0
 49 53  1  0  0  0
 49 64  1  0  0  0
 49125  1  0  0  0
 50 51  1  0  0  0
 50126  1  0  0  0
 50127  1  0  0  0
 51 52  1  0  0  0
 51128  1  0  0  0
 51129  1  0  0  0
 52130  1  0  0  0
 52131  1  0  0  0
 53 54  1  0  0  0
 54 55  2  0  0  0
 54132  1  0  0  0
 55 57  1  0  0  0
 55133  1  0  0  0
 56 69  2  0  0  0
 57 58  2  0  0  0
 57134  1  0  0  0
 58135  1  0  0  0
 59 60  1  0  0  0
 59 61  1  0  0  0
 59 62  1  0  0  0
 60136  1  0  0  0
 60137  1  0  0  0
 60138  1  0  0  0
 61139  1  0  0  0
 61140  1  0  0  0
 61141  1  0  0  0
 62142  1  0  0  0
 62143  1  0  0  0
 62144  1  0  0  0
 63 65  1  0  0  0
 63145  1  0  0  0
 63146  1  0  0  0
 63147  1  0  0  0
 64148  1  0  0  0
 65149  1  0  0  0
 68 87  1  0  0  0
 71 72  2  0  0  0
 71 74  1  0  0  0
 71150  1  0  0  0
 72 75  1  0  0  0
 72151  1  0  0  0
 73 76  2  0  0  0
 73 77  1  0  0  0
 73152  1  0  0  0
 74 79  2  0  0  0
 74153  1  0  0  0
 75 80  2  0  0  0
 75154  1  0  0  0
 76 81  1  0  0  0
 76155  1  0  0  0
 77 78  2  0  0  0
 77 85  1  0  0  0
 78 82  1  0  0  0
 78 83  1  0  0  0
 79 80  1  0  0  0
 79 86  1  0  0  0
 80 87  1  0  0  0
 81 82  2  0  0  0
 81 88  1  0  0  0
 82 90  1  0  0  0
 83 84  1  0  0  0
 83156  1  0  0  0
 83157  1  0  0  0
 84 85  1  0  0  0
 84158  1  0  0  0
 84159  1  0  0  0
 85 89  1  0  0  0
 85160  1  0  0  0
 86 89  1  0  0  0
 86161  1  0  0  0
 86162  1  0  0  0
 87163  1  0  0  0
 87164  1  0  0  0
 88165  1  0  0  0
 89166  1  0  0  0
 89167  1  0  0  0
M  CHG  1  89   1
M  ISO  4   1 100  68 101  87 101  88 100
M  END
> <chiral flag>
0

> <version>
0

> <s_m_source_file>
/data/baiqing/PycharmProjects/Reinvent-master-3.2/result/LINK_invent/BTK/process_docking_weight1_custom_product_contain_oxygen_bond_distance_aromatic_linkinvent_7_9_3/rearranged_h_0020.sdf

> <i_m_source_file_index>
60

> <r_mmod_Potential_Energy-OPLS-2005>
-238.531875610352

> <r_mmod_Stretch_Energy-OPLS-2005>
36.3718452453613

> <r_mmod_Bend_Energy-OPLS-2005>
130.264312744141

> <r_mmod_Torsional_Energy-OPLS-2005>
267.053771972656

> <r_mmod_Improper_Torsional_Energy-OPLS-2005>
5.81167125701904

> <r_mmod_Van_der_Waal_Energy-OPLS-2005>
161.093048095703

> <r_mmod_Electrostatic_Energy-OPLS-2005>
-380.587951660156

> <r_mmod_Solvation_Energy-OPLS-2005>
-466.493896484375

> <b_mmod_Minimization_Converged-OPLS-2005>
0

> <r_mmod_RMS_Derivative-OPLS-2005>
0.81926441192627

$$$$
61
                    3D
 Structure written by MMmdl.
159167  0  0  1  0            999 V2000
  -30.6987  -14.4884   20.5506 C   0  0  0  0  0  0
  -30.4251  -12.3115   19.4278 C   0  0  0  0  0  0
  -29.4970  -12.4989   18.2096 C   0  0  0  0  0  0
  -28.0183  -12.3556   18.6223 C   0  0  0  0  0  0
  -27.6592  -13.2023   19.8726 C   0  0  2  0  0  0
  -28.7037  -13.0043   20.9955 C   0  0  0  0  0  0
  -25.2568  -13.8130   20.5693 C   0  0  0  0  0  0
  -24.1820  -13.0414   20.9186 C   0  0  0  0  0  0
  -24.6378  -11.6888   20.8734 C   0  0  0  0  0  0
  -23.9045  -10.4281   21.0398 C   0  0  0  0  0  0
  -24.3604   -9.4203   21.9179 C   0  0  0  0  0  0
  -23.6283   -8.2238   22.0752 C   0  0  0  0  0  0
  -22.4264   -8.0277   21.3542 C   0  0  0  0  0  0
  -21.9893   -9.0248   20.4644 C   0  0  0  0  0  0
  -22.7218  -10.2128   20.3050 C   0  0  0  0  0  0
  -21.6849   -6.0732   22.5275 C   0  0  0  0  0  0
  -21.4014   -6.5637   23.8210 C   0  0  0  0  0  0
  -21.3659   -5.6790   24.9171 C   0  0  0  0  0  0
  -21.6043   -4.3052   24.7222 C   0  0  0  0  0  0
  -21.8820   -3.8144   23.4344 C   0  0  0  0  0  0
  -21.9192   -4.6961   22.3399 C   0  0  0  0  0  0
  -22.7845  -13.5226   21.1843 C   0  0  0  0  0  0
  -22.1659   -4.2147   21.0975 F   0  0  0  0  0  0
  -21.5629   -3.4535   25.7735 F   0  0  0  0  0  0
  -30.0340  -13.3056   20.4388 N   0  0  0  0  0  0
  -26.3006  -12.9304   20.3357 N   0  0  0  0  0  0
  -25.9305  -11.6467   20.5767 N   0  0  0  0  0  0
  -22.0480  -12.8235   22.0406 N   0  0  0  0  0  0
  -25.4235  -15.1844   20.4127 N   0  0  0  0  0  0
  -31.8375  -14.6550   20.1061 O   0  0  0  0  0  0
  -21.6633   -6.8873   21.4237 O   0  0  0  0  0  0
  -22.3537  -14.5536   20.6692 O   0  0  0  0  0  0
  -24.6161  -31.8680   23.2103 C   0  0  0  0  0  0
  -25.9052  -32.4822   23.8398 C   0  0  1  0  0  0
  -27.2351  -27.4242   20.0911 C   0  0  0  0  0  0
  -25.5909  -33.8620   24.2333 N   0  0  0  0  0  0
  -23.4038  -30.4925   21.5515 C   0  0  2  0  0  0
  -24.8491  -28.9598   20.1133 C   0  0  0  0  0  0
  -22.7415  -29.4661   22.4993 C   0  0  0  0  0  0
  -18.0272  -28.1381   22.8497 C   0  0  0  0  0  0
  -24.1485  -36.7312   23.2638 C   0  0  0  0  0  0
  -25.9344  -30.8302   21.3647 C   0  0  0  0  0  0
  -26.0109  -29.4647   20.7097 C   0  0  0  0  0  0
  -27.2049  -28.7051   20.6944 C   0  0  0  0  0  0
  -26.0510  -26.9427   19.4812 C   0  0  0  0  0  0
  -24.8653  -27.6984   19.4961 C   0  0  0  0  0  0
  -23.6118  -29.8271   20.1653 C   0  0  0  0  0  0
  -25.4105  -36.3111   24.0340 C   0  0  1  0  0  0
  -20.5864  -28.3670   23.1317 C   0  0  2  0  0  0
  -20.6762  -26.9408   22.5418 C   0  0  0  0  0  0
  -19.5739  -26.6391   21.5216 C   0  0  0  0  0  0
  -18.1918  -26.7928   22.1629 C   0  0  0  0  0  0
  -19.1521  -28.8841   23.2905 C   0  0  0  0  0  0
  -18.9450  -30.1447   23.8916 C   0  0  0  0  0  0
  -17.6452  -30.6586   24.0567 C   0  0  0  0  0  0
  -25.9036  -34.9476   23.5130 C   0  0  0  0  0  0
  -16.5344  -29.9090   23.6325 C   0  0  0  0  0  0
  -16.7260  -28.6505   23.0351 C   0  0  0  0  0  0
  -26.4477  -31.6596   25.0723 C   0  0  0  0  0  0
  -25.3745  -31.3698   26.1472 C   0  0  0  0  0  0
  -27.0305  -30.3038   24.6098 C   0  0  0  0  0  0
  -27.6055  -32.4314   25.7481 C   0  0  0  0  0  0
  -27.5578  -37.1813   24.8468 C   0  0  0  0  0  0
  -21.4142  -29.3037   22.3725 N   0  0  0  0  0  0
  -26.4294  -37.3793   23.9410 N   0  0  0  0  0  0
  -24.6700  -31.0773   22.1007 N   0  0  0  0  0  0
  -23.4181  -28.8204   23.3038 O   0  0  0  0  0  0
  -28.4067  -26.6847   20.1205 O   0  0  0  0  0  0
  -26.5593  -34.8926   22.4690 O   0  0  0  0  0  0
  -23.5352  -32.1438   23.7491 O   0  0  0  0  0  0
  -31.6775  -18.8772   21.0733 C   0  0  0  0  0  0
  -29.6342  -19.0509   19.7754 C   0  0  0  0  0  0
  -30.8057  -19.6571   20.2770 C   0  0  0  0  0  0
  -30.2534  -16.8982   20.7921 C   0  0  0  0  0  0
  -31.4042  -17.5161   21.3366 C   0  0  0  0  0  0
  -29.3592  -17.6883   20.0282 C   0  0  0  0  0  0
  -30.4755  -21.8918   22.1455 C   0  0  0  0  0  0
  -31.1834  -21.0947   19.8783 C   0  0  0  0  0  0
  -29.5428  -24.4943   20.4034 C   0  0  0  0  0  0
  -29.4891  -22.9622   20.1246 C   0  0  0  0  0  0
  -28.3170  -25.2695   19.8655 C   0  0  0  0  0  0
  -29.9672  -15.5155   21.0207 N   0  0  0  0  0  0
  -30.6470  -22.2184   20.7094 N   0  3  1  0  0  0
  -32.2530  -16.8121   22.1246 F   0  0  0  0  0  0
  -27.9343  -16.9956   19.3434 Cl  0  0  0  0  0  0
  -31.4697  -12.4082   19.1266 H   0  0  0  0  0  0
  -30.3268  -11.3052   19.8377 H   0  0  0  0  0  0
  -29.7411  -11.7699   17.4358 H   0  0  0  0  0  0
  -29.6624  -13.4821   17.7659 H   0  0  0  0  0  0
  -27.8331  -11.3003   18.8260 H   0  0  0  0  0  0
  -27.3682  -12.6215   17.7879 H   0  0  0  0  0  0
  -27.6952  -14.2436   19.5608 H   0  0  0  0  0  0
  -28.6835  -11.9741   21.3544 H   0  0  0  0  0  0
  -28.4666  -13.6200   21.8642 H   0  0  0  0  0  0
  -25.2750   -9.5687   22.4751 H   0  0  0  0  0  0
  -23.9992   -7.4631   22.7474 H   0  0  0  0  0  0
  -21.0823   -8.8766   19.8954 H   0  0  0  0  0  0
  -22.3672  -10.9669   19.6163 H   0  0  0  0  0  0
  -21.2008   -7.6146   23.9713 H   0  0  0  0  0  0
  -21.1479   -6.0518   25.9074 H   0  0  0  0  0  0
  -22.0600   -2.7607   23.2839 H   0  0  0  0  0  0
  -22.4089  -11.9909   22.4823 H   0  0  0  0  0  0
  -21.1098  -13.1272   22.2597 H   0  0  0  0  0  0
  -24.6501  -15.8314   20.5146 H   0  0  0  0  0  0
  -26.2647  -15.6307   20.0658 H   0  0  0  0  0  0
  -26.7122  -32.5529   23.1161 H   0  0  0  0  0  0
  -25.0071  -33.9782   25.0485 H   0  0  0  0  0  0
  -22.6925  -31.3097   21.4133 H   0  0  0  0  0  0
  -23.3744  -35.9650   23.3314 H   0  0  0  0  0  0
  -24.3578  -36.8910   22.2050 H   0  0  0  0  0  0
  -23.7240  -37.6525   23.6639 H   0  0  0  0  0  0
  -26.0485  -31.5965   20.5968 H   0  0  0  0  0  0
  -26.8218  -30.8823   21.9837 H   0  0  0  0  0  0
  -28.1014  -29.0921   21.1595 H   0  0  0  0  0  0
  -26.0194  -25.9848   18.9837 H   0  0  0  0  0  0
  -23.9742  -27.3054   19.0262 H   0  0  0  0  0  0
  -23.7199  -30.6031   19.4064 H   0  0  0  0  0  0
  -22.7348  -29.2486   19.8696 H   0  0  0  0  0  0
  -25.1280  -36.1981   25.0835 H   0  0  0  0  0  0
  -20.9958  -28.3240   24.1436 H   0  0  0  0  0  0
  -20.5672  -26.2281   23.3608 H   0  0  0  0  0  0
  -21.6632  -26.7455   22.1206 H   0  0  0  0  0  0
  -19.6900  -25.6308   21.1233 H   0  0  0  0  0  0
  -19.6673  -27.3211   20.6754 H   0  0  0  0  0  0
  -17.4190  -26.6684   21.4029 H   0  0  0  0  0  0
  -18.0314  -26.0066   22.9021 H   0  0  0  0  0  0
  -19.7926  -30.7258   24.2298 H   0  0  0  0  0  0
  -17.5007  -31.6270   24.5166 H   0  0  0  0  0  0
  -15.5345  -30.2998   23.7636 H   0  0  0  0  0  0
  -15.8662  -28.0827   22.7059 H   0  0  0  0  0  0
  -24.5918  -30.7046   25.7807 H   0  0  0  0  0  0
  -24.8939  -32.2852   26.4936 H   0  0  0  0  0  0
  -25.8105  -30.8857   27.0220 H   0  0  0  0  0  0
  -26.2847  -29.6803   24.1156 H   0  0  0  0  0  0
  -27.4076  -29.7271   25.4553 H   0  0  0  0  0  0
  -27.8680  -30.4352   23.9243 H   0  0  0  0  0  0
  -27.2676  -33.3601   26.2092 H   0  0  0  0  0  0
  -28.3845  -32.6898   25.0297 H   0  0  0  0  0  0
  -28.0746  -31.8423   26.5371 H   0  0  0  0  0  0
  -28.2610  -38.0097   24.7505 H   0  0  0  0  0  0
  -28.1060  -36.2631   24.6306 H   0  0  0  0  0  0
  -27.2297  -37.1479   25.8872 H   0  0  0  0  0  0
  -20.9307  -29.8761   21.6947 H   0  0  0  0  0  0
  -26.0185  -38.2874   24.1404 H   0  0  0  0  0  0
  -32.5819  -19.3110   21.4754 H   0  0  0  0  0  0
  -28.9532  -19.6191   19.1580 H   0  0  0  0  0  0
  -30.2504  -22.7845   22.7280 H   0  0  0  0  0  0
  -31.3875  -21.4587   22.5576 H   0  0  0  0  0  0
  -29.6622  -21.1815   22.2980 H   0  0  0  0  0  0
  -30.9613  -21.2446   18.8212 H   0  0  0  0  0  0
  -32.2705  -21.1649   19.9348 H   0  0  0  0  0  0
  -30.4463  -24.9123   19.9584 H   0  0  0  0  0  0
  -29.6175  -24.6762   21.4753 H   0  0  0  0  0  0
  -29.4607  -22.8250   19.0432 H   0  0  0  0  0  0
  -28.5583  -22.5343   20.4995 H   0  0  0  0  0  0
  -28.2190  -25.1075   18.7909 H   0  0  0  0  0  0
  -27.4295  -24.8507   20.3434 H   0  0  0  0  0  0
  -29.0085  -15.2912   21.2316 H   0  0  0  0  0  0
  -31.4029  -22.8859   20.6782 H   0  0  0  0  0  0
  1 25  1  0  0  0
  1 30  2  0  0  0
  1 82  1  0  0  0
  2  3  1  0  0  0
  2 25  1  0  0  0
  2 86  1  0  0  0
  2 87  1  0  0  0
  3  4  1  0  0  0
  3 88  1  0  0  0
  3 89  1  0  0  0
  4  5  1  0  0  0
  4 90  1  0  0  0
  4 91  1  0  0  0
  5  6  1  0  0  0
  5 26  1  0  0  0
  5 92  1  0  0  0
  6 25  1  0  0  0
  6 93  1  0  0  0
  6 94  1  0  0  0
  7  8  2  0  0  0
  7 26  1  0  0  0
  7 29  1  0  0  0
  8  9  1  0  0  0
  8 22  1  0  0  0
  9 10  1  0  0  0
  9 27  2  0  0  0
 10 11  2  0  0  0
 10 15  1  0  0  0
 11 12  1  0  0  0
 11 95  1  0  0  0
 12 13  2  0  0  0
 12 96  1  0  0  0
 13 14  1  0  0  0
 13 31  1  0  0  0
 14 15  2  0  0  0
 14 97  1  0  0  0
 15 98  1  0  0  0
 16 17  2  0  0  0
 16 21  1  0  0  0
 16 31  1  0  0  0
 17 18  1  0  0  0
 17 99  1  0  0  0
 18 19  2  0  0  0
 18100  1  0  0  0
 19 20  1  0  0  0
 19 24  1  0  0  0
 20 21  2  0  0  0
 20101  1  0  0  0
 21 23  1  0  0  0
 22 28  1  0  0  0
 22 32  2  0  0  0
 26 27  1  0  0  0
 28102  1  0  0  0
 28103  1  0  0  0
 29104  1  0  0  0
 29105  1  0  0  0
 33 34  1  0  0  0
 33 66  1  0  0  0
 33 70  2  0  0  0
 34 36  1  0  0  0
 34 59  1  0  0  0
 34106  1  0  0  0
 35 44  2  0  0  0
 35 45  1  0  0  0
 35 68  1  0  0  0
 36 56  1  0  0  0
 36107  1  0  0  0
 37 39  1  0  0  0
 37 47  1  0  0  0
 37 66  1  0  0  0
 37108  1  0  0  0
 38 43  2  0  0  0
 38 46  1  0  0  0
 38 47  1  0  0  0
 39 64  1  0  0  0
 39 67  2  0  0  0
 40 52  1  0  0  0
 40 53  2  0  0  0
 40 58  1  0  0  0
 41109  1  0  0  0
 41110  1  0  0  0
 41111  1  0  0  0
 41 48  1  0  0  0
 42 43  1  0  0  0
 42 66  1  0  0  0
 42112  1  0  0  0
 42113  1  0  0  0
 43 44  1  0  0  0
 44114  1  0  0  0
 45 46  2  0  0  0
 45115  1  0  0  0
 46116  1  0  0  0
 47117  1  0  0  0
 47118  1  0  0  0
 48 56  1  0  0  0
 48 65  1  0  0  0
 48119  1  0  0  0
 49 50  1  0  0  0
 49 53  1  0  0  0
 49 64  1  0  0  0
 49120  1  0  0  0
 50 51  1  0  0  0
 50121  1  0  0  0
 50122  1  0  0  0
 51 52  1  0  0  0
 51123  1  0  0  0
 51124  1  0  0  0
 52125  1  0  0  0
 52126  1  0  0  0
 53 54  1  0  0  0
 54 55  2  0  0  0
 54127  1  0  0  0
 55 57  1  0  0  0
 55128  1  0  0  0
 56 69  2  0  0  0
 57 58  2  0  0  0
 57129  1  0  0  0
 58130  1  0  0  0
 59 60  1  0  0  0
 59 61  1  0  0  0
 59 62  1  0  0  0
 60131  1  0  0  0
 60132  1  0  0  0
 60133  1  0  0  0
 61134  1  0  0  0
 61135  1  0  0  0
 61136  1  0  0  0
 62137  1  0  0  0
 62138  1  0  0  0
 62139  1  0  0  0
 63 65  1  0  0  0
 63140  1  0  0  0
 63141  1  0  0  0
 63142  1  0  0  0
 64143  1  0  0  0
 65144  1  0  0  0
 68 81  1  0  0  0
 71 73  2  0  0  0
 71 75  1  0  0  0
 71145  1  0  0  0
 72 73  1  0  0  0
 72 76  2  0  0  0
 72146  1  0  0  0
 73 78  1  0  0  0
 74 75  2  0  0  0
 74 76  1  0  0  0
 74 82  1  0  0  0
 75 84  1  0  0  0
 76 85  1  0  0  0
 77147  1  0  0  0
 77148  1  0  0  0
 77149  1  0  0  0
 77 83  1  0  0  0
 78 83  1  0  0  0
 78150  1  0  0  0
 78151  1  0  0  0
 79 80  1  0  0  0
 79 81  1  0  0  0
 79152  1  0  0  0
 79153  1  0  0  0
 80 83  1  0  0  0
 80154  1  0  0  0
 80155  1  0  0  0
 81156  1  0  0  0
 81157  1  0  0  0
 82158  1  0  0  0
 83159  1  0  0  0
M  CHG  1  83   1
M  ISO  4   1 100  68 101  81 101  82 100
M  END
> <chiral flag>
0

> <version>
0

> <s_m_source_file>
/data/baiqing/PycharmProjects/Reinvent-master-3.2/result/LINK_invent/BTK/process_docking_weight1_custom_product_contain_oxygen_bond_distance_aromatic_linkinvent_7_9_3/rearranged_h_0020.sdf

> <i_m_source_file_index>
61

> <r_mmod_Potential_Energy-OPLS-2005>
-261.401000976562

> <r_mmod_Stretch_Energy-OPLS-2005>
39.9568405151367

> <r_mmod_Bend_Energy-OPLS-2005>
100.499900817871

> <r_mmod_Torsional_Energy-OPLS-2005>
227.203674316406

> <r_mmod_Improper_Torsional_Energy-OPLS-2005>
5.51556396484375

> <r_mmod_Van_der_Waal_Energy-OPLS-2005>
151.979568481445

> <r_mmod_Electrostatic_Energy-OPLS-2005>
-328.409973144531

> <r_mmod_Solvation_Energy-OPLS-2005>
-473.361358642578

> <b_mmod_Minimization_Converged-OPLS-2005>
0

> <r_mmod_RMS_Derivative-OPLS-2005>
0.771903216838837

$$$$
62
                    3D
 Structure written by MMmdl.
171179  0  0  1  0            999 V2000
  -30.6828  -14.4941   20.4879 C   0  0  0  0  0  0
  -30.4249  -12.2918   19.4330 C   0  0  0  0  0  0
  -29.4945  -12.4301   18.2077 C   0  0  0  0  0  0
  -28.0103  -12.3415   18.6179 C   0  0  0  0  0  0
  -27.6552  -13.2049   19.8585 C   0  0  2  0  0  0
  -28.6979  -13.0232   20.9825 C   0  0  0  0  0  0
  -25.2611  -13.8164   20.5687 C   0  0  0  0  0  0
  -24.1854  -13.0457   20.9175 C   0  0  0  0  0  0
  -24.6398  -11.6920   20.8739 C   0  0  0  0  0  0
  -23.9070  -10.4309   21.0407 C   0  0  0  0  0  0
  -24.3631   -9.4224   21.9176 C   0  0  0  0  0  0
  -23.6317   -8.2249   22.0738 C   0  0  0  0  0  0
  -22.4300   -8.0283   21.3521 C   0  0  0  0  0  0
  -21.9932   -9.0260   20.4628 C   0  0  0  0  0  0
  -22.7253  -10.2144   20.3050 C   0  0  0  0  0  0
  -21.6864   -6.0750   22.5281 C   0  0  0  0  0  0
  -21.4014   -6.5651   23.8215 C   0  0  0  0  0  0
  -21.3652   -5.6796   24.9175 C   0  0  0  0  0  0
  -21.6041   -4.3058   24.7220 C   0  0  0  0  0  0
  -21.8825   -3.8156   23.4341 C   0  0  0  0  0  0
  -21.9198   -4.6978   22.3403 C   0  0  0  0  0  0
  -22.7884  -13.5263   21.1831 C   0  0  0  0  0  0
  -22.1671   -4.2167   21.0983 F   0  0  0  0  0  0
  -21.5628   -3.4538   25.7728 F   0  0  0  0  0  0
  -30.0213  -13.3093   20.4144 N   0  0  0  0  0  0
  -26.3009  -12.9315   20.3318 N   0  0  0  0  0  0
  -25.9317  -11.6487   20.5769 N   0  0  0  0  0  0
  -22.0521  -12.8246   22.0379 N   0  0  0  0  0  0
  -25.4400  -15.1871   20.4113 N   0  0  0  0  0  0
  -31.8816  -14.6004   20.2117 O   0  0  0  0  0  0
  -21.6647   -6.8887   21.4237 O   0  0  0  0  0  0
  -22.3573  -14.5566   20.6676 O   0  0  0  0  0  0
  -24.6118  -31.8682   23.2093 C   0  0  0  0  0  0
  -25.9013  -32.4819   23.8388 C   0  0  1  0  0  0
  -27.2349  -27.4464   20.1095 C   0  0  0  0  0  0
  -25.5860  -33.8616   24.2322 N   0  0  0  0  0  0
  -23.3999  -30.4902   21.5492 C   0  0  2  0  0  0
  -24.8461  -28.9524   20.1177 C   0  0  0  0  0  0
  -22.7396  -29.4654   22.4989 C   0  0  0  0  0  0
  -18.0263  -28.1384   22.8484 C   0  0  0  0  0  0
  -24.1478  -36.7332   23.2640 C   0  0  0  0  0  0
  -25.9239  -30.8423   21.3548 C   0  0  0  0  0  0
  -26.0040  -29.4745   20.7086 C   0  0  0  0  0  0
  -27.2031  -28.7308   20.6940 C   0  0  0  0  0  0
  -26.0646  -26.9323   19.5126 C   0  0  0  0  0  0
  -24.8717  -27.6815   19.5141 C   0  0  0  0  0  0
  -23.6067  -29.8165   20.1652 C   0  0  0  0  0  0
  -25.4095  -36.3124   24.0345 C   0  0  1  0  0  0
  -20.5853  -28.3659   23.1323 C   0  0  2  0  0  0
  -20.6752  -26.9394   22.5418 C   0  0  0  0  0  0
  -19.5738  -26.6388   21.5207 C   0  0  0  0  0  0
  -18.1917  -26.7930   22.1623 C   0  0  0  0  0  0
  -19.1511  -28.8841   23.2905 C   0  0  0  0  0  0
  -18.9443  -30.1445   23.8910 C   0  0  0  0  0  0
  -17.6443  -30.6583   24.0564 C   0  0  0  0  0  0
  -25.9016  -34.9476   23.5144 C   0  0  0  0  0  0
  -16.5334  -29.9087   23.6320 C   0  0  0  0  0  0
  -16.7252  -28.6512   23.0335 C   0  0  0  0  0  0
  -26.4446  -31.6587   25.0704 C   0  0  0  0  0  0
  -25.3721  -31.3684   26.1464 C   0  0  0  0  0  0
  -27.0249  -30.3031   24.6045 C   0  0  0  0  0  0
  -27.6040  -32.4281   25.7456 C   0  0  0  0  0  0
  -27.5580  -37.1814   24.8457 C   0  0  0  0  0  0
  -21.4120  -29.3039   22.3739 N   0  0  0  0  0  0
  -26.4283  -37.3805   23.9412 N   0  0  0  0  0  0
  -24.6642  -31.0810   22.0970 N   0  0  0  0  0  0
  -23.4171  -28.8199   23.3028 O   0  0  0  0  0  0
  -28.4113  -26.7367   20.0998 O   0  0  0  0  0  0
  -26.5599  -34.8925   22.4710 O   0  0  0  0  0  0
  -23.5321  -32.1400   23.7505 O   0  0  0  0  0  0
  -28.8453  -17.6571   21.3787 C   0  0  0  0  0  0
  -28.7570  -18.0270   23.7794 C   0  0  0  0  0  0
  -29.7334  -15.9692   22.8849 C   0  0  0  0  0  0
  -28.4995  -18.4862   22.4710 C   0  0  0  0  0  0
  -29.4895  -16.3955   21.5546 C   0  0  0  0  0  0
  -29.3677  -16.7747   23.9818 C   0  0  0  0  0  0
  -30.8685  -17.2970   18.8093 C   0  0  0  0  0  0
  -29.0653  -24.6073   18.4136 C   0  0  0  0  0  0
  -29.7860  -21.2141   22.9394 C   0  0  0  0  0  0
  -27.8374  -19.8550   22.2401 C   0  0  0  0  0  0
  -28.9823  -22.9498   20.3281 C   0  0  0  0  0  0
  -29.8100  -16.2026   19.0597 C   0  0  0  0  0  0
  -28.1284  -22.1862   21.3759 C   0  0  0  0  0  0
  -28.4031  -25.4472   20.7302 C   0  0  0  0  0  0
  -28.3613  -24.2519   19.7386 C   0  0  1  0  0  0
  -29.8854  -15.5975   20.4103 N   0  0  0  0  0  0
  -28.7950  -20.9385   21.8677 N   0  3  1  0  0  0
  -29.6153  -16.3459   25.2420 F   0  0  0  0  0  0
  -31.4677  -12.3951   19.1247 H   0  0  0  0  0  0
  -30.3391  -11.2964   19.8707 H   0  0  0  0  0  0
  -29.7202  -11.6430   17.4867 H   0  0  0  0  0  0
  -29.6831  -13.3655   17.6848 H   0  0  0  0  0  0
  -27.7968  -11.2933   18.8290 H   0  0  0  0  0  0
  -27.3713  -12.6109   17.7752 H   0  0  0  0  0  0
  -27.6820  -14.2455   19.5352 H   0  0  0  0  0  0
  -28.6725  -12.0031   21.3704 H   0  0  0  0  0  0
  -28.4739  -13.6754   21.8261 H   0  0  0  0  0  0
  -25.2778   -9.5708   22.4746 H   0  0  0  0  0  0
  -24.0030   -7.4647   22.7464 H   0  0  0  0  0  0
  -21.0857   -8.8797   19.8942 H   0  0  0  0  0  0
  -22.3718  -10.9690   19.6164 H   0  0  0  0  0  0
  -21.2003   -7.6157   23.9728 H   0  0  0  0  0  0
  -21.1462   -6.0518   25.9077 H   0  0  0  0  0  0
  -22.0606   -2.7622   23.2838 H   0  0  0  0  0  0
  -22.4149  -11.9927   22.4797 H   0  0  0  0  0  0
  -21.1121  -13.1250   22.2530 H   0  0  0  0  0  0
  -24.6863  -15.8549   20.5307 H   0  0  0  0  0  0
  -26.3096  -15.6157   20.1218 H   0  0  0  0  0  0
  -26.7096  -32.5532   23.1169 H   0  0  0  0  0  0
  -24.9974  -33.9770   25.0447 H   0  0  0  0  0  0
  -22.6887  -31.3071   21.4093 H   0  0  0  0  0  0
  -23.3729  -35.9674   23.3291 H   0  0  0  0  0  0
  -24.3586  -36.8950   22.2058 H   0  0  0  0  0  0
  -23.7226  -37.6537   23.6645 H   0  0  0  0  0  0
  -26.0250  -31.6066   20.5829 H   0  0  0  0  0  0
  -26.8171  -30.9046   21.9651 H   0  0  0  0  0  0
  -28.1009  -29.1340   21.1420 H   0  0  0  0  0  0
  -26.0777  -25.9649   19.0333 H   0  0  0  0  0  0
  -23.9833  -27.2786   19.0470 H   0  0  0  0  0  0
  -23.7112  -30.5871   19.4013 H   0  0  0  0  0  0
  -22.7309  -29.2349   19.8721 H   0  0  0  0  0  0
  -25.1268  -36.2007   25.0842 H   0  0  0  0  0  0
  -20.9952  -28.3228   24.1444 H   0  0  0  0  0  0
  -20.5643  -26.2261   23.3607 H   0  0  0  0  0  0
  -21.6625  -26.7439   22.1226 H   0  0  0  0  0  0
  -19.6896  -25.6307   21.1223 H   0  0  0  0  0  0
  -19.6691  -27.3212   20.6758 H   0  0  0  0  0  0
  -17.4193  -26.6663   21.4029 H   0  0  0  0  0  0
  -18.0328  -26.0072   22.9027 H   0  0  0  0  0  0
  -19.7917  -30.7254   24.2287 H   0  0  0  0  0  0
  -17.5002  -31.6259   24.5169 H   0  0  0  0  0  0
  -15.5336  -30.2998   23.7642 H   0  0  0  0  0  0
  -15.8653  -28.0844   22.7034 H   0  0  0  0  0  0
  -24.5913  -30.7005   25.7812 H   0  0  0  0  0  0
  -24.8883  -32.2829   26.4906 H   0  0  0  0  0  0
  -25.8097  -30.8871   27.0221 H   0  0  0  0  0  0
  -26.2785  -29.6832   24.1074 H   0  0  0  0  0  0
  -27.3995  -29.7231   25.4486 H   0  0  0  0  0  0
  -27.8624  -30.4345   23.9191 H   0  0  0  0  0  0
  -27.2692  -33.3578   26.2068 H   0  0  0  0  0  0
  -28.3838  -32.6840   25.0271 H   0  0  0  0  0  0
  -28.0716  -31.8367   26.5339 H   0  0  0  0  0  0
  -28.2602  -38.0113   24.7524 H   0  0  0  0  0  0
  -28.1077  -36.2647   24.6260 H   0  0  0  0  0  0
  -27.2300  -37.1442   25.8861 H   0  0  0  0  0  0
  -20.9275  -29.8760   21.6968 H   0  0  0  0  0  0
  -26.0181  -38.2885   24.1418 H   0  0  0  0  0  0
  -28.6143  -18.0328   20.3952 H   0  0  0  0  0  0
  -28.4913  -18.6296   24.6364 H   0  0  0  0  0  0
  -30.2115  -15.0241   23.0974 H   0  0  0  0  0  0
  -30.6407  -17.8510   17.8985 H   0  0  0  0  0  0
  -31.8628  -16.8668   18.6826 H   0  0  0  0  0  0
  -30.9294  -18.0178   19.6232 H   0  0  0  0  0  0
  -28.9785  -23.7971   17.6880 H   0  0  0  0  0  0
  -30.1272  -24.8057   18.5622 H   0  0  0  0  0  0
  -28.6241  -25.4900   17.9496 H   0  0  0  0  0  0
  -30.3759  -20.3285   23.1769 H   0  0  0  0  0  0
  -29.2972  -21.5433   23.8574 H   0  0  0  0  0  0
  -30.4908  -21.9901   22.6434 H   0  0  0  0  0  0
  -27.2810  -20.1529   23.1303 H   0  0  0  0  0  0
  -27.0916  -19.7358   21.4522 H   0  0  0  0  0  0
  -29.1662  -22.2582   19.5041 H   0  0  0  0  0  0
  -29.9683  -23.1808   20.7335 H   0  0  0  0  0  0
  -29.9274  -15.4441   18.2864 H   0  0  0  0  0  0
  -28.8071  -16.5852   18.8776 H   0  0  0  0  0  0
  -27.1787  -21.9375   20.9015 H   0  0  0  0  0  0
  -27.8785  -22.8326   22.2190 H   0  0  0  0  0  0
  -29.3247  -25.3993   21.3110 H   0  0  0  0  0  0
  -27.5947  -25.3648   21.4603 H   0  0  0  0  0  0
  -27.3174  -24.0532   19.4926 H   0  0  0  0  0  0
  -29.3110  -20.5711   21.0839 H   0  0  0  0  0  0
  1 25  1  0  0  0
  1 30  2  0  0  0
  1 86  1  0  0  0
  2  3  1  0  0  0
  2 25  1  0  0  0
  2 89  1  0  0  0
  2 90  1  0  0  0
  3  4  1  0  0  0
  3 91  1  0  0  0
  3 92  1  0  0  0
  4  5  1  0  0  0
  4 93  1  0  0  0
  4 94  1  0  0  0
  5  6  1  0  0  0
  5 26  1  0  0  0
  5 95  1  0  0  0
  6 25  1  0  0  0
  6 96  1  0  0  0
  6 97  1  0  0  0
  7  8  2  0  0  0
  7 26  1  0  0  0
  7 29  1  0  0  0
  8  9  1  0  0  0
  8 22  1  0  0  0
  9 10  1  0  0  0
  9 27  2  0  0  0
 10 11  2  0  0  0
 10 15  1  0  0  0
 11 12  1  0  0  0
 11 98  1  0  0  0
 12 13  2  0  0  0
 12 99  1  0  0  0
 13 14  1  0  0  0
 13 31  1  0  0  0
 14 15  2  0  0  0
 14100  1  0  0  0
 15101  1  0  0  0
 16 17  2  0  0  0
 16 21  1  0  0  0
 16 31  1  0  0  0
 17 18  1  0  0  0
 17102  1  0  0  0
 18 19  2  0  0  0
 18103  1  0  0  0
 19 20  1  0  0  0
 19 24  1  0  0  0
 20 21  2  0  0  0
 20104  1  0  0  0
 21 23  1  0  0  0
 22 28  1  0  0  0
 22 32  2  0  0  0
 26 27  1  0  0  0
 28105  1  0  0  0
 28106  1  0  0  0
 29107  1  0  0  0
 29108  1  0  0  0
 33 34  1  0  0  0
 33 66  1  0  0  0
 33 70  2  0  0  0
 34 36  1  0  0  0
 34 59  1  0  0  0
 34109  1  0  0  0
 35 44  2  0  0  0
 35 45  1  0  0  0
 35 68  1  0  0  0
 36 56  1  0  0  0
 36110  1  0  0  0
 37 39  1  0  0  0
 37 47  1  0  0  0
 37 66  1  0  0  0
 37111  1  0  0  0
 38 43  2  0  0  0
 38 46  1  0  0  0
 38 47  1  0  0  0
 39 64  1  0  0  0
 39 67  2  0  0  0
 40 52  1  0  0  0
 40 53  2  0  0  0
 40 58  1  0  0  0
 41112  1  0  0  0
 41113  1  0  0  0
 41114  1  0  0  0
 41 48  1  0  0  0
 42 43  1  0  0  0
 42 66  1  0  0  0
 42115  1  0  0  0
 42116  1  0  0  0
 43 44  1  0  0  0
 44117  1  0  0  0
 45 46  2  0  0  0
 45118  1  0  0  0
 46119  1  0  0  0
 47120  1  0  0  0
 47121  1  0  0  0
 48 56  1  0  0  0
 48 65  1  0  0  0
 48122  1  0  0  0
 49 50  1  0  0  0
 49 53  1  0  0  0
 49 64  1  0  0  0
 49123  1  0  0  0
 50 51  1  0  0  0
 50124  1  0  0  0
 50125  1  0  0  0
 51 52  1  0  0  0
 51126  1  0  0  0
 51127  1  0  0  0
 52128  1  0  0  0
 52129  1  0  0  0
 53 54  1  0  0  0
 54 55  2  0  0  0
 54130  1  0  0  0
 55 57  1  0  0  0
 55131  1  0  0  0
 56 69  2  0  0  0
 57 58  2  0  0  0
 57132  1  0  0  0
 58133  1  0  0  0
 59 60  1  0  0  0
 59 61  1  0  0  0
 59 62  1  0  0  0
 60134  1  0  0  0
 60135  1  0  0  0
 60136  1  0  0  0
 61137  1  0  0  0
 61138  1  0  0  0
 61139  1  0  0  0
 62140  1  0  0  0
 62141  1  0  0  0
 62142  1  0  0  0
 63 65  1  0  0  0
 63143  1  0  0  0
 63144  1  0  0  0
 63145  1  0  0  0
 64146  1  0  0  0
 65147  1  0  0  0
 68 84  1  0  0  0
 71 74  2  0  0  0
 71 75  1  0  0  0
 71148  1  0  0  0
 72 74  1  0  0  0
 72 76  2  0  0  0
 72149  1  0  0  0
 73 75  2  0  0  0
 73 76  1  0  0  0
 73150  1  0  0  0
 74 80  1  0  0  0
 75 86  1  0  0  0
 76 88  1  0  0  0
 77 82  1  0  0  0
 77151  1  0  0  0
 77152  1  0  0  0
 77153  1  0  0  0
 78154  1  0  0  0
 78155  1  0  0  0
 78156  1  0  0  0
 78 85  1  0  0  0
 79157  1  0  0  0
 79158  1  0  0  0
 79159  1  0  0  0
 79 87  1  0  0  0
 80 87  1  0  0  0
 80160  1  0  0  0
 80161  1  0  0  0
 81 83  1  0  0  0
 81 85  1  0  0  0
 81162  1  0  0  0
 81163  1  0  0  0
 82 86  1  0  0  0
 82164  1  0  0  0
 82165  1  0  0  0
 83 87  1  0  0  0
 83166  1  0  0  0
 83167  1  0  0  0
 84 85  1  0  0  0
 84168  1  0  0  0
 84169  1  0  0  0
 85170  1  0  0  0
 87171  1  0  0  0
M  CHG  1  87   1
M  ISO  4   1 100  68 101  84 101  86 100
M  END
> <chiral flag>
0

> <version>
0

> <s_m_source_file>
/data/baiqing/PycharmProjects/Reinvent-master-3.2/result/LINK_invent/BTK/process_docking_weight1_custom_product_contain_oxygen_bond_distance_aromatic_linkinvent_7_9_3/rearranged_h_0020.sdf

> <i_m_source_file_index>
62

> <r_mmod_Potential_Energy-OPLS-2005>
49.0085372924805

> <r_mmod_Stretch_Energy-OPLS-2005>
44.605411529541

> <r_mmod_Bend_Energy-OPLS-2005>
103.210258483887

> <r_mmod_Torsional_Energy-OPLS-2005>
306.512084960938

> <r_mmod_Improper_Torsional_Energy-OPLS-2005>
14.7421503067017

> <r_mmod_Van_der_Waal_Energy-OPLS-2005>
150.940063476562

> <r_mmod_Electrostatic_Energy-OPLS-2005>
-148.19091796875

> <r_mmod_Solvation_Energy-OPLS-2005>
-443.001007080078

> <b_mmod_Minimization_Converged-OPLS-2005>
0

> <r_mmod_RMS_Derivative-OPLS-2005>
2.02534484863281

$$$$
63
                    3D
 Structure written by MMmdl.
152160  0  0  1  0            999 V2000
  -30.6414  -14.7499   20.4113 C   0  0  0  0  0  0
  -30.4248  -12.4558   19.4571 C   0  0  0  0  0  0
  -29.5066  -12.5289   18.2177 C   0  0  0  0  0  0
  -28.0287  -12.3644   18.6256 C   0  0  0  0  0  0
  -27.6428  -13.2473   19.8431 C   0  0  2  0  0  0
  -28.6942  -13.1952   20.9737 C   0  0  0  0  0  0
  -25.2504  -13.8222   20.5695 C   0  0  0  0  0  0
  -24.1823  -13.0442   20.9236 C   0  0  0  0  0  0
  -24.6431  -11.6934   20.8727 C   0  0  0  0  0  0
  -23.9094  -10.4308   21.0393 C   0  0  0  0  0  0
  -24.3657   -9.4205   21.9156 C   0  0  0  0  0  0
  -23.6328   -8.2231   22.0713 C   0  0  0  0  0  0
  -22.4288   -8.0298   21.3524 C   0  0  0  0  0  0
  -21.9947   -9.0281   20.4630 C   0  0  0  0  0  0
  -22.7263  -10.2165   20.3044 C   0  0  0  0  0  0
  -21.6869   -6.0745   22.5271 C   0  0  0  0  0  0
  -21.4026   -6.5641   23.8222 C   0  0  0  0  0  0
  -21.3658   -5.6770   24.9169 C   0  0  0  0  0  0
  -21.6035   -4.3039   24.7213 C   0  0  0  0  0  0
  -21.8803   -3.8145   23.4322 C   0  0  0  0  0  0
  -21.9196   -4.6973   22.3394 C   0  0  0  0  0  0
  -22.7824  -13.5214   21.1856 C   0  0  0  0  0  0
  -22.1636   -4.2159   21.0960 F   0  0  0  0  0  0
  -21.5638   -3.4505   25.7724 F   0  0  0  0  0  0
  -29.9959  -13.5340   20.3816 N   0  0  0  0  0  0
  -26.2970  -12.9472   20.3284 N   0  0  0  0  0  0
  -25.9383  -11.6581   20.5720 N   0  0  0  0  0  0
  -22.0419  -12.8291   22.0440 N   0  0  0  0  0  0
  -25.4134  -15.1953   20.4032 N   0  0  0  0  0  0
  -31.8421  -14.7883   20.1433 O   0  0  0  0  0  0
  -21.6616   -6.8915   21.4245 O   0  0  0  0  0  0
  -22.3485  -14.5450   20.6588 O   0  0  0  0  0  0
  -24.6244  -31.8567   23.1983 C   0  0  0  0  0  0
  -25.9081  -32.4771   23.8333 C   0  0  1  0  0  0
  -27.2048  -27.2694   20.1636 C   0  0  0  0  0  0
  -25.5882  -33.8575   24.2232 N   0  0  0  0  0  0
  -23.4211  -30.4782   21.5397 C   0  0  2  0  0  0
  -24.8681  -28.9189   20.1146 C   0  0  0  0  0  0
  -22.7458  -29.4628   22.4916 C   0  0  0  0  0  0
  -18.0289  -28.1350   22.8471 C   0  0  0  0  0  0
  -24.1495  -36.7310   23.2637 C   0  0  0  0  0  0
  -25.9632  -30.7723   21.3769 C   0  0  0  0  0  0
  -26.0362  -29.3937   20.7262 C   0  0  0  0  0  0
  -27.2108  -28.5815   20.7370 C   0  0  0  0  0  0
  -26.0194  -26.8458   19.5304 C   0  0  0  0  0  0
  -24.8632  -27.6520   19.5059 C   0  0  0  0  0  0
  -23.6366  -29.8045   20.1573 C   0  0  0  0  0  0
  -25.4111  -36.3082   24.0322 C   0  0  1  0  0  0
  -20.5880  -28.3678   23.1254 C   0  0  2  0  0  0
  -20.6763  -26.9396   22.5404 C   0  0  0  0  0  0
  -19.5765  -26.6349   21.5183 C   0  0  0  0  0  0
  -18.1938  -26.7898   22.1587 C   0  0  0  0  0  0
  -19.1529  -28.8826   23.2864 C   0  0  0  0  0  0
  -18.9463  -30.1426   23.8878 C   0  0  0  0  0  0
  -17.6465  -30.6569   24.0539 C   0  0  0  0  0  0
  -25.9049  -34.9461   23.5094 C   0  0  0  0  0  0
  -16.5356  -29.9061   23.6314 C   0  0  0  0  0  0
  -16.7272  -28.6470   23.0348 C   0  0  0  0  0  0
  -26.4439  -31.6623   25.0752 C   0  0  0  0  0  0
  -25.3667  -31.3790   26.1495 C   0  0  0  0  0  0
  -27.0268  -30.3031   24.6243 C   0  0  0  0  0  0
  -27.5980  -32.4380   25.7526 C   0  0  0  0  0  0
  -27.5608  -37.1775   24.8421 C   0  0  0  0  0  0
  -21.4179  -29.3040   22.3645 N   0  0  0  0  0  0
  -26.4278  -37.3783   23.9447 N   0  0  0  0  0  0
  -24.6881  -31.0545   22.0936 N   0  0  0  0  0  0
  -23.4185  -28.8192   23.3001 O   0  0  0  0  0  0
  -28.3022  -26.3934   20.1774 O   0  0  0  0  0  0
  -26.5652  -34.8924   22.4683 O   0  0  0  0  0  0
  -23.5411  -32.1406   23.7305 O   0  0  0  0  0  0
  -29.2715  -18.4608   20.4688 C   0  0  0  0  0  0
  -31.4895  -17.7659   19.7953 C   0  0  0  0  0  0
  -30.8891  -20.1546   19.7962 C   0  0  0  0  0  0
  -30.2160  -17.3644   20.2766 C   0  0  0  0  0  0
  -29.5776  -19.8673   20.2270 C   0  0  0  0  0  0
  -31.8181  -19.1208   19.5644 C   0  0  0  0  0  0
  -28.3728  -23.6520   20.0560 C   0  0  0  0  0  0
  -28.8901  -22.3484   20.8663 C   0  0  0  0  0  0
  -28.1601  -25.0551   20.8334 C   0  0  0  0  0  0
  -29.8884  -15.9209   20.5260 N   0  0  0  0  0  0
  -28.6272  -20.9562   20.3224 N   0  0  0  0  0  0
  -33.3910  -19.5253   18.9707 Cl  0  0  0  0  0  0
  -31.4684  -12.5618   19.1556 H   0  0  0  0  0  0
  -30.3482  -11.4768   19.9326 H   0  0  0  0  0  0
  -29.7946  -11.7696   17.4896 H   0  0  0  0  0  0
  -29.6389  -13.4920   17.7222 H   0  0  0  0  0  0
  -27.8601  -11.3132   18.8536 H   0  0  0  0  0  0
  -27.3820  -12.5993   17.7777 H   0  0  0  0  0  0
  -27.6302  -14.2715   19.4677 H   0  0  0  0  0  0
  -28.7218  -12.2070   21.4314 H   0  0  0  0  0  0
  -28.4381  -13.9033   21.7646 H   0  0  0  0  0  0
  -25.2800   -9.5656   22.4725 H   0  0  0  0  0  0
  -24.0017   -7.4623   22.7440 H   0  0  0  0  0  0
  -21.0865   -8.8820   19.8999 H   0  0  0  0  0  0
  -22.3701  -10.9706   19.6159 H   0  0  0  0  0  0
  -21.2011   -7.6142   23.9739 H   0  0  0  0  0  0
  -21.1488   -6.0485   25.9086 H   0  0  0  0  0  0
  -22.0596   -2.7609   23.2794 H   0  0  0  0  0  0
  -22.3995  -12.0058   22.5037 H   0  0  0  0  0  0
  -21.0996  -13.1348   22.2446 H   0  0  0  0  0  0
  -24.6415  -15.8437   20.5146 H   0  0  0  0  0  0
  -26.2508  -15.6373   20.0460 H   0  0  0  0  0  0
  -26.7165  -32.5416   23.1089 H   0  0  0  0  0  0
  -24.9945  -33.9705   25.0321 H   0  0  0  0  0  0
  -22.7197  -31.3016   21.3920 H   0  0  0  0  0  0
  -23.3777  -35.9615   23.3189 H   0  0  0  0  0  0
  -24.3604  -36.9054   22.2075 H   0  0  0  0  0  0
  -23.7205  -37.6456   23.6739 H   0  0  0  0  0  0
  -26.1042  -31.5298   20.6059 H   0  0  0  0  0  0
  -26.8410  -30.8197   22.0095 H   0  0  0  0  0  0
  -28.1040  -28.9372   21.2330 H   0  0  0  0  0  0
  -25.9762  -25.8652   19.0771 H   0  0  0  0  0  0
  -23.9644  -27.2799   19.0348 H   0  0  0  0  0  0
  -23.7630  -30.5757   19.3961 H   0  0  0  0  0  0
  -22.7537  -29.2345   19.8589 H   0  0  0  0  0  0
  -25.1286  -36.1904   25.0805 H   0  0  0  0  0  0
  -20.9987  -28.3253   24.1362 H   0  0  0  0  0  0
  -20.5589  -26.2297   23.3606 H   0  0  0  0  0  0
  -21.6642  -26.7383   22.1236 H   0  0  0  0  0  0
  -19.6924  -25.6250   21.1224 H   0  0  0  0  0  0
  -19.6707  -27.3126   20.6685 H   0  0  0  0  0  0
  -17.4211  -26.6650   21.3981 H   0  0  0  0  0  0
  -18.0371  -26.0021   22.8972 H   0  0  0  0  0  0
  -19.7945  -30.7233   24.2243 H   0  0  0  0  0  0
  -17.5025  -31.6252   24.5142 H   0  0  0  0  0  0
  -15.5349  -30.2956   23.7629 H   0  0  0  0  0  0
  -15.8685  -28.0768   22.7075 H   0  0  0  0  0  0
  -24.5738  -30.7263   25.7824 H   0  0  0  0  0  0
  -24.8973  -32.2980   26.5015 H   0  0  0  0  0  0
  -25.7971  -30.8858   27.0224 H   0  0  0  0  0  0
  -26.2851  -29.6829   24.1184 H   0  0  0  0  0  0
  -27.3840  -29.7252   25.4784 H   0  0  0  0  0  0
  -27.8784  -30.4309   23.9553 H   0  0  0  0  0  0
  -27.2523  -33.3618   26.2174 H   0  0  0  0  0  0
  -28.3726  -32.7060   25.0336 H   0  0  0  0  0  0
  -28.0721  -31.8486   26.5380 H   0  0  0  0  0  0
  -28.2509  -38.0189   24.7631 H   0  0  0  0  0  0
  -28.1216  -36.2727   24.6011 H   0  0  0  0  0  0
  -27.2365  -37.1141   25.8822 H   0  0  0  0  0  0
  -20.9358  -29.8751   21.6842 H   0  0  0  0  0  0
  -26.0146  -38.2838   24.1522 H   0  0  0  0  0  0
  -28.2808  -18.2145   20.8183 H   0  0  0  0  0  0
  -32.2574  -17.0415   19.5782 H   0  0  0  0  0  0
  -31.1851  -21.1727   19.5842 H   0  0  0  0  0  0
  -27.4273  -23.4077   19.5720 H   0  0  0  0  0  0
  -29.0709  -23.8253   19.2381 H   0  0  0  0  0  0
  -28.4093  -22.3731   21.8466 H   0  0  0  0  0  0
  -29.9536  -22.4654   21.0760 H   0  0  0  0  0  0
  -28.8748  -25.0742   21.6557 H   0  0  0  0  0  0
  -27.1938  -25.0107   21.3410 H   0  0  0  0  0  0
  -28.9238  -15.7417   20.7638 H   0  0  0  0  0  0
  -27.6503  -20.6752   20.3513 H   0  0  0  0  0  0
  1 25  1  0  0  0
  1 30  2  0  0  0
  1 80  1  0  0  0
  2  3  1  0  0  0
  2 25  1  0  0  0
  2 83  1  0  0  0
  2 84  1  0  0  0
  3  4  1  0  0  0
  3 85  1  0  0  0
  3 86  1  0  0  0
  4  5  1  0  0  0
  4 87  1  0  0  0
  4 88  1  0  0  0
  5  6  1  0  0  0
  5 26  1  0  0  0
  5 89  1  0  0  0
  6 25  1  0  0  0
  6 90  1  0  0  0
  6 91  1  0  0  0
  7  8  2  0  0  0
  7 26  1  0  0  0
  7 29  1  0  0  0
  8  9  1  0  0  0
  8 22  1  0  0  0
  9 10  1  0  0  0
  9 27  2  0  0  0
 10 11  2  0  0  0
 10 15  1  0  0  0
 11 12  1  0  0  0
 11 92  1  0  0  0
 12 13  2  0  0  0
 12 93  1  0  0  0
 13 14  1  0  0  0
 13 31  1  0  0  0
 14 15  2  0  0  0
 14 94  1  0  0  0
 15 95  1  0  0  0
 16 17  2  0  0  0
 16 21  1  0  0  0
 16 31  1  0  0  0
 17 18  1  0  0  0
 17 96  1  0  0  0
 18 19  2  0  0  0
 18 97  1  0  0  0
 19 20  1  0  0  0
 19 24  1  0  0  0
 20 21  2  0  0  0
 20 98  1  0  0  0
 21 23  1  0  0  0
 22 28  1  0  0  0
 22 32  2  0  0  0
 26 27  1  0  0  0
 28 99  1  0  0  0
 28100  1  0  0  0
 29101  1  0  0  0
 29102  1  0  0  0
 33 34  1  0  0  0
 33 66  1  0  0  0
 33 70  2  0  0  0
 34 36  1  0  0  0
 34 59  1  0  0  0
 34103  1  0  0  0
 35 44  2  0  0  0
 35 45  1  0  0  0
 35 68  1  0  0  0
 36 56  1  0  0  0
 36104  1  0  0  0
 37 39  1  0  0  0
 37 47  1  0  0  0
 37 66  1  0  0  0
 37105  1  0  0  0
 38 43  2  0  0  0
 38 46  1  0  0  0
 38 47  1  0  0  0
 39 64  1  0  0  0
 39 67  2  0  0  0
 40 52  1  0  0  0
 40 53  2  0  0  0
 40 58  1  0  0  0
 41106  1  0  0  0
 41107  1  0  0  0
 41108  1  0  0  0
 41 48  1  0  0  0
 42 43  1  0  0  0
 42 66  1  0  0  0
 42109  1  0  0  0
 42110  1  0  0  0
 43 44  1  0  0  0
 44111  1  0  0  0
 45 46  2  0  0  0
 45112  1  0  0  0
 46113  1  0  0  0
 47114  1  0  0  0
 47115  1  0  0  0
 48 56  1  0  0  0
 48 65  1  0  0  0
 48116  1  0  0  0
 49 50  1  0  0  0
 49 53  1  0  0  0
 49 64  1  0  0  0
 49117  1  0  0  0
 50 51  1  0  0  0
 50118  1  0  0  0
 50119  1  0  0  0
 51 52  1  0  0  0
 51120  1  0  0  0
 51121  1  0  0  0
 52122  1  0  0  0
 52123  1  0  0  0
 53 54  1  0  0  0
 54 55  2  0  0  0
 54124  1  0  0  0
 55 57  1  0  0  0
 55125  1  0  0  0
 56 69  2  0  0  0
 57 58  2  0  0  0
 57126  1  0  0  0
 58127  1  0  0  0
 59 60  1  0  0  0
 59 61  1  0  0  0
 59 62  1  0  0  0
 60128  1  0  0  0
 60129  1  0  0  0
 60130  1  0  0  0
 61131  1  0  0  0
 61132  1  0  0  0
 61133  1  0  0  0
 62134  1  0  0  0
 62135  1  0  0  0
 62136  1  0  0  0
 63 65  1  0  0  0
 63137  1  0  0  0
 63138  1  0  0  0
 63139  1  0  0  0
 64140  1  0  0  0
 65141  1  0  0  0
 68 79  1  0  0  0
 71 74  2  0  0  0
 71 75  1  0  0  0
 71142  1  0  0  0
 72 74  1  0  0  0
 72 76  2  0  0  0
 72143  1  0  0  0
 73 75  2  0  0  0
 73 76  1  0  0  0
 73144  1  0  0  0
 74 80  1  0  0  0
 75 81  1  0  0  0
 76 82  1  0  0  0
 77 78  1  0  0  0
 77 79  1  0  0  0
 77145  1  0  0  0
 77146  1  0  0  0
 78 81  1  0  0  0
 78147  1  0  0  0
 78148  1  0  0  0
 79149  1  0  0  0
 79150  1  0  0  0
 80151  1  0  0  0
 81152  1  0  0  0
M  ISO  4   1 100  68 101  79 101  80 100
M  END
> <chiral flag>
0

> <version>
0

> <s_m_source_file>
/data/baiqing/PycharmProjects/Reinvent-master-3.2/result/LINK_invent/BTK/process_docking_weight1_custom_product_contain_oxygen_bond_distance_aromatic_linkinvent_7_9_3/rearranged_h_0020.sdf

> <i_m_source_file_index>
63

> <r_mmod_Potential_Energy-OPLS-2005>
229.836242675781

> <r_mmod_Stretch_Energy-OPLS-2005>
119.952850341797

> <r_mmod_Bend_Energy-OPLS-2005>
169.710510253906

> <r_mmod_Torsional_Energy-OPLS-2005>
243.683517456055

> <r_mmod_Improper_Torsional_Energy-OPLS-2005>
6.52648210525513

> <r_mmod_Van_der_Waal_Energy-OPLS-2005>
135.136184692383

> <r_mmod_Electrostatic_Energy-OPLS-2005>
-307.760528564453

> <r_mmod_Solvation_Energy-OPLS-2005>
-222.914962768555

> <b_mmod_Minimization_Converged-OPLS-2005>
0

> <r_mmod_RMS_Derivative-OPLS-2005>
5.33312892913818

$$$$
64
                    3D
 Structure written by MMmdl.
162171  0  0  1  0            999 V2000
  -30.5707  -14.9207   20.5189 C   0  0  0  0  0  0
  -30.4410  -12.5805   19.5151 C   0  0  0  0  0  0
  -29.5257  -12.5435   18.2683 C   0  0  0  0  0  0
  -28.0594  -12.3161   18.6794 C   0  0  0  0  0  0
  -27.6329  -13.2438   19.8438 C   0  0  2  0  0  0
  -28.6634  -13.2459   20.9903 C   0  0  0  0  0  0
  -25.2464  -13.8215   20.5699 C   0  0  0  0  0  0
  -24.1759  -13.0452   20.9188 C   0  0  0  0  0  0
  -24.6366  -11.6930   20.8721 C   0  0  0  0  0  0
  -23.9068  -10.4304   21.0402 C   0  0  0  0  0  0
  -24.3613   -9.4220   21.9179 C   0  0  0  0  0  0
  -23.6285   -8.2261   22.0758 C   0  0  0  0  0  0
  -22.4270   -8.0281   21.3548 C   0  0  0  0  0  0
  -21.9904   -9.0255   20.4658 C   0  0  0  0  0  0
  -22.7236  -10.2133   20.3061 C   0  0  0  0  0  0
  -21.6852   -6.0738   22.5286 C   0  0  0  0  0  0
  -21.4016   -6.5647   23.8220 C   0  0  0  0  0  0
  -21.3658   -5.6797   24.9179 C   0  0  0  0  0  0
  -21.6034   -4.3058   24.7233 C   0  0  0  0  0  0
  -21.8810   -3.8151   23.4351 C   0  0  0  0  0  0
  -21.9193   -4.6972   22.3413 C   0  0  0  0  0  0
  -22.7782  -13.5228   21.1874 C   0  0  0  0  0  0
  -22.1658   -4.2152   21.0990 F   0  0  0  0  0  0
  -21.5619   -3.4541   25.7746 F   0  0  0  0  0  0
  -29.9617  -13.6606   20.4301 N   0  0  0  0  0  0
  -26.2879  -12.9439   20.3224 N   0  0  0  0  0  0
  -25.9299  -11.6574   20.5718 N   0  0  0  0  0  0
  -22.0440  -12.8207   22.0433 N   0  0  0  0  0  0
  -25.4182  -15.1943   20.4181 N   0  0  0  0  0  0
  -31.6926  -15.0383   20.0112 O   0  0  0  0  0  0
  -21.6642   -6.8873   21.4244 O   0  0  0  0  0  0
  -22.3468  -14.5541   20.6741 O   0  0  0  0  0  0
  -24.6425  -31.8422   23.1870 C   0  0  0  0  0  0
  -25.9192  -32.4684   23.8260 C   0  0  1  0  0  0
  -27.2240  -27.1388   20.1842 C   0  0  0  0  0  0
  -25.5954  -33.8503   24.2173 N   0  0  0  0  0  0
  -23.4472  -30.4590   21.5312 C   0  0  2  0  0  0
  -24.9004  -28.8773   20.1202 C   0  0  0  0  0  0
  -22.7565  -29.4528   22.4857 C   0  0  0  0  0  0
  -18.0328  -28.1389   22.8482 C   0  0  0  0  0  0
  -24.1495  -36.7261   23.2644 C   0  0  0  0  0  0
  -26.0023  -30.7175   21.3872 C   0  0  0  0  0  0
  -26.0744  -29.3264   20.7390 C   0  0  0  0  0  0
  -27.2383  -28.4732   20.7520 C   0  0  0  0  0  0
  -26.0251  -26.7776   19.5358 C   0  0  0  0  0  0
  -24.8878  -27.6155   19.5034 C   0  0  0  0  0  0
  -23.6782  -29.7826   20.1532 C   0  0  0  0  0  0
  -25.4124  -36.3039   24.0312 C   0  0  1  0  0  0
  -20.5938  -28.3724   23.1256 C   0  0  2  0  0  0
  -20.6818  -26.9426   22.5423 C   0  0  0  0  0  0
  -19.5817  -26.6389   21.5195 C   0  0  0  0  0  0
  -18.1981  -26.7953   22.1572 C   0  0  0  0  0  0
  -19.1579  -28.8867   23.2854 C   0  0  0  0  0  0
  -18.9489  -30.1469   23.8883 C   0  0  0  0  0  0
  -17.6483  -30.6573   24.0562 C   0  0  0  0  0  0
  -25.9076  -34.9410   23.5055 C   0  0  0  0  0  0
  -16.5376  -29.9061   23.6334 C   0  0  0  0  0  0
  -16.7305  -28.6487   23.0358 C   0  0  0  0  0  0
  -26.4529  -31.6565   25.0708 C   0  0  0  0  0  0
  -25.3721  -31.3765   26.1409 C   0  0  0  0  0  0
  -27.0404  -30.2966   24.6289 C   0  0  0  0  0  0
  -27.6052  -32.4341   25.7503 C   0  0  0  0  0  0
  -27.5574  -37.1777   24.8464 C   0  0  0  0  0  0
  -21.4251  -29.3078   22.3639 N   0  0  0  0  0  0
  -26.4286  -37.3747   23.9410 N   0  0  0  0  0  0
  -24.7167  -31.0287   22.0908 N   0  0  0  0  0  0
  -23.4201  -28.8042   23.2982 O   0  0  0  0  0  0
  -28.3011  -26.1887   20.1801 O   0  0  0  0  0  0
  -26.5669  -34.8914   22.4632 O   0  0  0  0  0  0
  -23.5547  -32.1286   23.7092 O   0  0  0  0  0  0
  -29.3857  -19.8531   21.9992 C   0  0  0  0  0  0
  -29.7084  -18.4500   22.0912 C   0  0  0  0  0  0
  -29.1186  -19.6366   19.6832 C   0  0  0  0  0  0
  -29.0563  -20.5530   20.7998 C   0  0  0  0  0  0
  -29.7542  -17.5070   21.0007 C   0  0  0  0  0  0
  -29.4476  -18.2029   19.7704 C   0  0  0  0  0  0
  -26.3942  -22.2457   19.8795 C   0  0  0  0  0  0
  -27.4684  -22.9376   19.0268 C   0  0  0  0  0  0
  -27.1109  -21.8376   21.1779 C   0  0  0  0  0  0
  -28.5749  -23.2525   20.0349 C   0  0  1  0  0  0
  -29.9423  -23.4004   19.3609 C   0  0  0  0  0  0
  -30.0759  -15.6583   22.6984 C   0  0  0  0  0  0
  -28.1734  -24.7469   20.7423 C   0  0  0  0  0  0
  -28.5418  -21.9564   20.9022 N   0  0  0  0  0  0
  -29.9898  -15.9901   21.2605 N   0  0  0  0  0  0
  -29.4138  -17.4761   18.6285 F   0  0  0  0  0  0
  -31.4751  -12.7348   19.2039 H   0  0  0  0  0  0
  -30.4348  -11.6174   20.0300 H   0  0  0  0  0  0
  -29.8491  -11.7622   17.5788 H   0  0  0  0  0  0
  -29.6106  -13.4847   17.7257 H   0  0  0  0  0  0
  -27.9612  -11.2752   18.9891 H   0  0  0  0  0  0
  -27.3949  -12.4437   17.8241 H   0  0  0  0  0  0
  -27.6080  -14.2523   19.4299 H   0  0  0  0  0  0
  -28.7345  -12.2653   21.4618 H   0  0  0  0  0  0
  -28.3208  -13.9314   21.7641 H   0  0  0  0  0  0
  -25.2755   -9.5695   22.4752 H   0  0  0  0  0  0
  -23.9988   -7.4656   22.7478 H   0  0  0  0  0  0
  -21.0833   -8.8759   19.8972 H   0  0  0  0  0  0
  -22.3672  -10.9654   19.6164 H   0  0  0  0  0  0
  -21.2010   -7.6153   23.9716 H   0  0  0  0  0  0
  -21.1488   -6.0535   25.9080 H   0  0  0  0  0  0
  -22.0593   -2.7619   23.2852 H   0  0  0  0  0  0
  -22.4058  -11.9859   22.4796 H   0  0  0  0  0  0
  -21.1071  -13.1241   22.2688 H   0  0  0  0  0  0
  -24.6587  -15.8542   20.5480 H   0  0  0  0  0  0
  -26.2828  -15.6347   20.1296 H   0  0  0  0  0  0
  -26.7253  -32.5313   23.0982 H   0  0  0  0  0  0
  -25.0093  -33.9621   25.0318 H   0  0  0  0  0  0
  -22.7503  -31.2846   21.3719 H   0  0  0  0  0  0
  -23.3766  -35.9586   23.3297 H   0  0  0  0  0  0
  -24.3593  -36.8901   22.2065 H   0  0  0  0  0  0
  -23.7241  -37.6446   23.6693 H   0  0  0  0  0  0
  -26.1544  -31.4673   20.6096 H   0  0  0  0  0  0
  -26.8734  -30.7734   22.0276 H   0  0  0  0  0  0
  -28.1347  -28.8154   21.2516 H   0  0  0  0  0  0
  -25.9572  -25.8077   19.0648 H   0  0  0  0  0  0
  -23.9903  -27.2635   19.0121 H   0  0  0  0  0  0
  -23.8206  -30.5506   19.3930 H   0  0  0  0  0  0
  -22.7932  -29.2255   19.8419 H   0  0  0  0  0  0
  -25.1311  -36.1857   25.0802 H   0  0  0  0  0  0
  -21.0026  -28.3317   24.1385 H   0  0  0  0  0  0
  -20.5652  -26.2329   23.3628 H   0  0  0  0  0  0
  -21.6710  -26.7376   22.1312 H   0  0  0  0  0  0
  -19.6992  -25.6287   21.1248 H   0  0  0  0  0  0
  -19.6770  -27.3190   20.6720 H   0  0  0  0  0  0
  -18.0363  -26.0045   22.8909 H   0  0  0  0  0  0
  -17.4268  -26.6734   21.3952 H   0  0  0  0  0  0
  -19.7948  -30.7283   24.2280 H   0  0  0  0  0  0
  -17.5009  -31.6234   24.5183 H   0  0  0  0  0  0
  -15.5372  -30.2968   23.7665 H   0  0  0  0  0  0
  -15.8692  -28.0809   22.7098 H   0  0  0  0  0  0
  -24.5878  -30.7135   25.7733 H   0  0  0  0  0  0
  -24.8947  -32.2969   26.4788 H   0  0  0  0  0  0
  -25.8012  -30.8958   27.0211 H   0  0  0  0  0  0
  -26.3030  -29.6679   24.1288 H   0  0  0  0  0  0
  -27.4020  -29.7269   25.4858 H   0  0  0  0  0  0
  -27.8939  -30.4217   23.9621 H   0  0  0  0  0  0
  -27.2616  -33.3634   26.2061 H   0  0  0  0  0  0
  -28.3889  -32.6897   25.0363 H   0  0  0  0  0  0
  -28.0704  -31.8486   26.5441 H   0  0  0  0  0  0
  -28.2571  -38.0083   24.7510 H   0  0  0  0  0  0
  -28.1075  -36.2613   24.6286 H   0  0  0  0  0  0
  -27.2307  -37.1437   25.8867 H   0  0  0  0  0  0
  -20.9436  -29.8842   21.6870 H   0  0  0  0  0  0
  -26.0151  -38.2817   24.1398 H   0  0  0  0  0  0
  -29.3531  -20.4076   22.9259 H   0  0  0  0  0  0
  -29.8984  -18.1124   23.0976 H   0  0  0  0  0  0
  -28.8471  -20.0174   18.7103 H   0  0  0  0  0  0
  -25.9993  -21.3749   19.3546 H   0  0  0  0  0  0
  -25.5549  -22.9088   20.0954 H   0  0  0  0  0  0
  -27.1003  -23.8191   18.5005 H   0  0  0  0  0  0
  -27.8293  -22.2374   18.2726 H   0  0  0  0  0  0
  -26.8042  -20.8369   21.4887 H   0  0  0  0  0  0
  -26.8424  -22.5034   22.0000 H   0  0  0  0  0  0
  -29.9063  -24.1855   18.6049 H   0  0  0  0  0  0
  -30.2520  -22.4798   18.8628 H   0  0  0  0  0  0
  -30.7156  -23.6683   20.0814 H   0  0  0  0  0  0
  -30.9329  -16.1677   23.1434 H   0  0  0  0  0  0
  -30.2201  -14.6000   22.9269 H   0  0  0  0  0  0
  -29.1721  -15.9633   23.2279 H   0  0  0  0  0  0
  -28.8075  -24.7957   21.6279 H   0  0  0  0  0  0
  -27.1711  -24.6716   21.1620 H   0  0  0  0  0  0
  1 25  1  0  0  0
  1 30  2  0  0  0
  1 85  1  0  0  0
  2  3  1  0  0  0
  2 25  1  0  0  0
  2 87  1  0  0  0
  2 88  1  0  0  0
  3  4  1  0  0  0
  3 89  1  0  0  0
  3 90  1  0  0  0
  4  5  1  0  0  0
  4 91  1  0  0  0
  4 92  1  0  0  0
  5  6  1  0  0  0
  5 26  1  0  0  0
  5 93  1  0  0  0
  6 25  1  0  0  0
  6 94  1  0  0  0
  6 95  1  0  0  0
  7  8  2  0  0  0
  7 26  1  0  0  0
  7 29  1  0  0  0
  8  9  1  0  0  0
  8 22  1  0  0  0
  9 10  1  0  0  0
  9 27  2  0  0  0
 10 11  2  0  0  0
 10 15  1  0  0  0
 11 12  1  0  0  0
 11 96  1  0  0  0
 12 13  2  0  0  0
 12 97  1  0  0  0
 13 14  1  0  0  0
 13 31  1  0  0  0
 14 15  2  0  0  0
 14 98  1  0  0  0
 15 99  1  0  0  0
 16 17  2  0  0  0
 16 21  1  0  0  0
 16 31  1  0  0  0
 17 18  1  0  0  0
 17100  1  0  0  0
 18 19  2  0  0  0
 18101  1  0  0  0
 19 20  1  0  0  0
 19 24  1  0  0  0
 20 21  2  0  0  0
 20102  1  0  0  0
 21 23  1  0  0  0
 22 28  1  0  0  0
 22 32  2  0  0  0
 26 27  1  0  0  0
 28103  1  0  0  0
 28104  1  0  0  0
 29105  1  0  0  0
 29106  1  0  0  0
 33 34  1  0  0  0
 33 66  1  0  0  0
 33 70  2  0  0  0
 34 36  1  0  0  0
 34 59  1  0  0  0
 34107  1  0  0  0
 35 44  2  0  0  0
 35 45  1  0  0  0
 35 68  1  0  0  0
 36 56  1  0  0  0
 36108  1  0  0  0
 37 39  1  0  0  0
 37 47  1  0  0  0
 37 66  1  0  0  0
 37109  1  0  0  0
 38 43  2  0  0  0
 38 46  1  0  0  0
 38 47  1  0  0  0
 39 64  1  0  0  0
 39 67  2  0  0  0
 40 52  1  0  0  0
 40 53  2  0  0  0
 40 58  1  0  0  0
 41110  1  0  0  0
 41111  1  0  0  0
 41112  1  0  0  0
 41 48  1  0  0  0
 42 43  1  0  0  0
 42 66  1  0  0  0
 42113  1  0  0  0
 42114  1  0  0  0
 43 44  1  0  0  0
 44115  1  0  0  0
 45 46  2  0  0  0
 45116  1  0  0  0
 46117  1  0  0  0
 47118  1  0  0  0
 47119  1  0  0  0
 48 56  1  0  0  0
 48 65  1  0  0  0
 48120  1  0  0  0
 49 50  1  0  0  0
 49 53  1  0  0  0
 49 64  1  0  0  0
 49121  1  0  0  0
 50 51  1  0  0  0
 50122  1  0  0  0
 50123  1  0  0  0
 51 52  1  0  0  0
 51124  1  0  0  0
 51125  1  0  0  0
 52126  1  0  0  0
 52127  1  0  0  0
 53 54  1  0  0  0
 54 55  2  0  0  0
 54128  1  0  0  0
 55 57  1  0  0  0
 55129  1  0  0  0
 56 69  2  0  0  0
 57 58  2  0  0  0
 57130  1  0  0  0
 58131  1  0  0  0
 59 60  1  0  0  0
 59 61  1  0  0  0
 59 62  1  0  0  0
 60132  1  0  0  0
 60133  1  0  0  0
 60134  1  0  0  0
 61135  1  0  0  0
 61136  1  0  0  0
 61137  1  0  0  0
 62138  1  0  0  0
 62139  1  0  0  0
 62140  1  0  0  0
 63 65  1  0  0  0
 63141  1  0  0  0
 63142  1  0  0  0
 63143  1  0  0  0
 64144  1  0  0  0
 65145  1  0  0  0
 68 83  1  0  0  0
 71 72  2  0  0  0
 71 74  1  0  0  0
 71146  1  0  0  0
 72 75  1  0  0  0
 72147  1  0  0  0
 73 74  2  0  0  0
 73 76  1  0  0  0
 73148  1  0  0  0
 74 84  1  0  0  0
 75 76  2  0  0  0
 75 85  1  0  0  0
 76 86  1  0  0  0
 77 78  1  0  0  0
 77 79  1  0  0  0
 77149  1  0  0  0
 77150  1  0  0  0
 78 80  1  0  0  0
 78151  1  0  0  0
 78152  1  0  0  0
 79 84  1  0  0  0
 79153  1  0  0  0
 79154  1  0  0  0
 80 81  1  0  0  0
 80 83  1  0  0  0
 80 84  1  0  0  0
 81155  1  0  0  0
 81156  1  0  0  0
 81157  1  0  0  0
 82 85  1  0  0  0
 82158  1  0  0  0
 82159  1  0  0  0
 82160  1  0  0  0
 83161  1  0  0  0
 83162  1  0  0  0
M  ISO  4   1 100  68 101  83 101  85 100
M  END
> <chiral flag>
0

> <version>
0

> <s_m_source_file>
/data/baiqing/PycharmProjects/Reinvent-master-3.2/result/LINK_invent/BTK/process_docking_weight1_custom_product_contain_oxygen_bond_distance_aromatic_linkinvent_7_9_3/rearranged_h_0020.sdf

> <i_m_source_file_index>
64

> <r_mmod_Potential_Energy-OPLS-2005>
743.016174316406

> <r_mmod_Stretch_Energy-OPLS-2005>
245.121826171875

> <r_mmod_Bend_Energy-OPLS-2005>
343.400482177734

> <r_mmod_Torsional_Energy-OPLS-2005>
373.190521240234

> <r_mmod_Improper_Torsional_Energy-OPLS-2005>
10.7359657287598

> <r_mmod_Van_der_Waal_Energy-OPLS-2005>
138.353500366211

> <r_mmod_Electrostatic_Energy-OPLS-2005>
-344.438629150391

> <r_mmod_Solvation_Energy-OPLS-2005>
-199.107391357422

> <b_mmod_Minimization_Converged-OPLS-2005>
0

> <r_mmod_RMS_Derivative-OPLS-2005>
2.89550757408142

$$$$
65
                    3D
 Structure written by MMmdl.
156165  0  0  1  0            999 V2000
  -30.5503  -14.7830   20.4544 C   0  0  0  0  0  0
  -30.4509  -12.4779   19.4684 C   0  0  0  0  0  0
  -29.5171  -12.5169   18.2357 C   0  0  0  0  0  0
  -28.0428  -12.3289   18.6495 C   0  0  0  0  0  0
  -27.6446  -13.2227   19.8530 C   0  0  2  0  0  0
  -28.6916  -13.1389   20.9859 C   0  0  0  0  0  0
  -25.2526  -13.8165   20.5686 C   0  0  0  0  0  0
  -24.1811  -13.0423   20.9207 C   0  0  0  0  0  0
  -24.6395  -11.6900   20.8748 C   0  0  0  0  0  0
  -23.9068  -10.4284   21.0411 C   0  0  0  0  0  0
  -24.3618   -9.4200   21.9187 C   0  0  0  0  0  0
  -23.6291   -8.2238   22.0756 C   0  0  0  0  0  0
  -22.4272   -8.0279   21.3547 C   0  0  0  0  0  0
  -21.9909   -9.0254   20.4650 C   0  0  0  0  0  0
  -22.7241  -10.2131   20.3059 C   0  0  0  0  0  0
  -21.6850   -6.0736   22.5280 C   0  0  0  0  0  0
  -21.4013   -6.5640   23.8214 C   0  0  0  0  0  0
  -21.3658   -5.6792   24.9175 C   0  0  0  0  0  0
  -21.6043   -4.3055   24.7225 C   0  0  0  0  0  0
  -21.8819   -3.8147   23.4346 C   0  0  0  0  0  0
  -21.9191   -4.6963   22.3402 C   0  0  0  0  0  0
  -22.7835  -13.5215   21.1866 C   0  0  0  0  0  0
  -22.1660   -4.2150   21.0979 F   0  0  0  0  0  0
  -21.5631   -3.4540   25.7739 F   0  0  0  0  0  0
  -29.9898  -13.5227   20.4108 N   0  0  0  0  0  0
  -26.2949  -12.9354   20.3280 N   0  0  0  0  0  0
  -25.9322  -11.6507   20.5746 N   0  0  0  0  0  0
  -22.0477  -12.8210   22.0423 N   0  0  0  0  0  0
  -25.4199  -15.1890   20.4090 N   0  0  0  0  0  0
  -31.7364  -14.9436   20.1470 O   0  0  0  0  0  0
  -21.6636   -6.8878   21.4242 O   0  0  0  0  0  0
  -22.3522  -14.5521   20.6712 O   0  0  0  0  0  0
  -24.6338  -31.8519   23.1948 C   0  0  0  0  0  0
  -25.9152  -32.4738   23.8305 C   0  0  1  0  0  0
  -27.2270  -27.2411   20.1369 C   0  0  0  0  0  0
  -25.5933  -33.8540   24.2227 N   0  0  0  0  0  0
  -23.4318  -30.4723   21.5386 C   0  0  2  0  0  0
  -24.8800  -28.9098   20.1138 C   0  0  0  0  0  0
  -22.7513  -29.4586   22.4904 C   0  0  0  0  0  0
  -18.0294  -28.1391   22.8487 C   0  0  0  0  0  0
  -24.1489  -36.7276   23.2641 C   0  0  0  0  0  0
  -25.9785  -30.7606   21.3750 C   0  0  0  0  0  0
  -26.0529  -29.3801   20.7180 C   0  0  0  0  0  0
  -27.2300  -28.5617   20.7088 C   0  0  0  0  0  0
  -26.0267  -26.8342   19.5174 C   0  0  0  0  0  0
  -24.8732  -27.6461   19.5012 C   0  0  0  0  0  0
  -23.6516  -29.8000   20.1572 C   0  0  0  0  0  0
  -25.4119  -36.3058   24.0319 C   0  0  1  0  0  0
  -20.5899  -28.3703   23.1268 C   0  0  2  0  0  0
  -20.6780  -26.9418   22.5410 C   0  0  0  0  0  0
  -19.5753  -26.6384   21.5217 C   0  0  0  0  0  0
  -18.1934  -26.7932   22.1628 C   0  0  0  0  0  0
  -19.1549  -28.8865   23.2869 C   0  0  0  0  0  0
  -18.9467  -30.1468   23.8885 C   0  0  0  0  0  0
  -17.6465  -30.6589   24.0566 C   0  0  0  0  0  0
  -25.9062  -34.9432   23.5079 C   0  0  0  0  0  0
  -16.5357  -29.9085   23.6335 C   0  0  0  0  0  0
  -16.7282  -28.6505   23.0353 C   0  0  0  0  0  0
  -26.4508  -31.6578   25.0712 C   0  0  0  0  0  0
  -25.3721  -31.3735   26.1426 C   0  0  0  0  0  0
  -27.0365  -30.2993   24.6222 C   0  0  0  0  0  0
  -27.6052  -32.4331   25.7490 C   0  0  0  0  0  0
  -27.5578  -37.1793   24.8464 C   0  0  0  0  0  0
  -21.4217  -29.3043   22.3650 N   0  0  0  0  0  0
  -26.4290  -37.3763   23.9408 N   0  0  0  0  0  0
  -24.7006  -31.0468   22.0927 N   0  0  0  0  0  0
  -23.4201  -28.8136   23.3021 O   0  0  0  0  0  0
  -28.3389  -26.3615   20.1656 O   0  0  0  0  0  0
  -26.5638  -34.8916   22.4652 O   0  0  0  0  0  0
  -23.5485  -32.1346   23.7237 O   0  0  0  0  0  0
  -28.3775  -19.3736   19.7321 C   0  0  0  0  0  0
  -30.3917  -19.6879   20.9493 C   0  0  0  0  0  0
  -28.5522  -17.9499   19.8262 C   0  0  0  0  0  0
  -30.5848  -18.2555   21.0227 C   0  0  0  0  0  0
  -29.2786  -20.3220   20.3030 C   0  0  0  0  0  0
  -29.6604  -17.3200   20.4676 C   0  0  0  0  0  0
  -28.1524  -23.9373   19.0805 C   0  0  0  0  0  0
  -29.3478  -24.1978   21.1674 C   0  0  0  0  0  0
  -28.0354  -22.3708   19.3556 C   0  0  0  0  0  0
  -29.2672  -22.6265   21.4223 C   0  0  0  0  0  0
  -28.1830  -24.8612   20.3486 C   0  0  0  0  0  0
  -29.0915  -21.7782   20.2174 N   0  0  0  0  0  0
  -29.6620  -15.8363   20.6522 N   0  0  0  0  0  0
  -31.4861  -12.6369   19.1615 H   0  0  0  0  0  0
  -30.4249  -11.4966   19.9447 H   0  0  0  0  0  0
  -29.8048  -11.7470   17.5184 H   0  0  0  0  0  0
  -29.6316  -13.4717   17.7201 H   0  0  0  0  0  0
  -27.9053  -11.2787   18.9098 H   0  0  0  0  0  0
  -27.3842  -12.5199   17.8015 H   0  0  0  0  0  0
  -27.6389  -14.2452   19.4756 H   0  0  0  0  0  0
  -28.7388  -12.1287   21.3952 H   0  0  0  0  0  0
  -28.4196  -13.7887   21.8193 H   0  0  0  0  0  0
  -25.2764   -9.5673   22.4760 H   0  0  0  0  0  0
  -24.0001   -7.4627   22.7474 H   0  0  0  0  0  0
  -21.0843   -8.8774   19.8952 H   0  0  0  0  0  0
  -22.3705  -10.9672   19.6168 H   0  0  0  0  0  0
  -21.2004   -7.6148   23.9718 H   0  0  0  0  0  0
  -21.1482   -6.0523   25.9079 H   0  0  0  0  0  0
  -22.0598   -2.7609   23.2849 H   0  0  0  0  0  0
  -22.4092  -11.9871   22.4810 H   0  0  0  0  0  0
  -21.1097  -13.1241   22.2631 H   0  0  0  0  0  0
  -24.6454  -15.8355   20.5140 H   0  0  0  0  0  0
  -26.2531  -15.6298   20.0448 H   0  0  0  0  0  0
  -26.7220  -32.5380   23.1046 H   0  0  0  0  0  0
  -25.0074  -33.9669   25.0368 H   0  0  0  0  0  0
  -22.7298  -31.2951   21.3882 H   0  0  0  0  0  0
  -23.3756  -35.9603   23.3298 H   0  0  0  0  0  0
  -24.3576  -36.8911   22.2056 H   0  0  0  0  0  0
  -23.7239  -37.6470   23.6679 H   0  0  0  0  0  0
  -26.1188  -31.5205   20.6050 H   0  0  0  0  0  0
  -26.8550  -30.8105   22.0096 H   0  0  0  0  0  0
  -28.1321  -28.9218   21.1835 H   0  0  0  0  0  0
  -25.9621  -25.8645   19.0494 H   0  0  0  0  0  0
  -23.9742  -27.2782   19.0258 H   0  0  0  0  0  0
  -23.7777  -30.5729   19.3982 H   0  0  0  0  0  0
  -22.7696  -29.2331   19.8537 H   0  0  0  0  0  0
  -25.1305  -36.1896   25.0811 H   0  0  0  0  0  0
  -20.9992  -28.3286   24.1389 H   0  0  0  0  0  0
  -20.5684  -26.2313   23.3617 H   0  0  0  0  0  0
  -21.6647  -26.7437   22.1204 H   0  0  0  0  0  0
  -19.6913  -25.6294   21.1250 H   0  0  0  0  0  0
  -19.6692  -27.3193   20.6746 H   0  0  0  0  0  0
  -17.4203  -26.6688   21.4029 H   0  0  0  0  0  0
  -18.0328  -26.0074   22.9025 H   0  0  0  0  0  0
  -19.7942  -30.7292   24.2243 H   0  0  0  0  0  0
  -17.5016  -31.6266   24.5173 H   0  0  0  0  0  0
  -15.5356  -30.2982   23.7663 H   0  0  0  0  0  0
  -15.8684  -28.0822   22.7069 H   0  0  0  0  0  0
  -24.5899  -30.7084   25.7748 H   0  0  0  0  0  0
  -24.8912  -32.2908   26.4834 H   0  0  0  0  0  0
  -25.8027  -30.8919   27.0215 H   0  0  0  0  0  0
  -26.2958  -29.6728   24.1239 H   0  0  0  0  0  0
  -27.4029  -29.7271   25.4755 H   0  0  0  0  0  0
  -27.8841  -30.4262   23.9483 H   0  0  0  0  0  0
  -27.2651  -33.3639   26.2041 H   0  0  0  0  0  0
  -28.3874  -32.6879   25.0327 H   0  0  0  0  0  0
  -28.0710  -31.8477   26.5428 H   0  0  0  0  0  0
  -28.2588  -38.0096   24.7516 H   0  0  0  0  0  0
  -28.1080  -36.2627   24.6285 H   0  0  0  0  0  0
  -27.2294  -37.1433   25.8865 H   0  0  0  0  0  0
  -20.9408  -29.8752   21.6840 H   0  0  0  0  0  0
  -26.0163  -38.2831   24.1420 H   0  0  0  0  0  0
  -27.4959  -19.7267   19.2181 H   0  0  0  0  0  0
  -31.1435  -20.3122   21.4093 H   0  0  0  0  0  0
  -27.7849  -17.3273   19.3897 H   0  0  0  0  0  0
  -31.4465  -17.8811   21.5568 H   0  0  0  0  0  0
  -27.3260  -24.2326   18.4355 H   0  0  0  0  0  0
  -29.0521  -24.1202   18.4916 H   0  0  0  0  0  0
  -30.2903  -24.4145   20.6631 H   0  0  0  0  0  0
  -29.4191  -24.6983   22.1337 H   0  0  0  0  0  0
  -28.0374  -21.8543   18.3948 H   0  0  0  0  0  0
  -27.0646  -22.1620   19.8084 H   0  0  0  0  0  0
  -28.4359  -22.4227   22.0994 H   0  0  0  0  0  0
  -30.1666  -22.3158   21.9549 H   0  0  0  0  0  0
  -27.2609  -24.6981   20.9086 H   0  0  0  0  0  0
  -28.7375  -15.4653   20.8059 H   0  0  0  0  0  0
  1 25  1  0  0  0
  1 30  2  0  0  0
  1 83  1  0  0  0
  2  3  1  0  0  0
  2 25  1  0  0  0
  2 84  1  0  0  0
  2 85  1  0  0  0
  3  4  1  0  0  0
  3 86  1  0  0  0
  3 87  1  0  0  0
  4  5  1  0  0  0
  4 88  1  0  0  0
  4 89  1  0  0  0
  5  6  1  0  0  0
  5 26  1  0  0  0
  5 90  1  0  0  0
  6 25  1  0  0  0
  6 91  1  0  0  0
  6 92  1  0  0  0
  7  8  2  0  0  0
  7 26  1  0  0  0
  7 29  1  0  0  0
  8  9  1  0  0  0
  8 22  1  0  0  0
  9 10  1  0  0  0
  9 27  2  0  0  0
 10 11  2  0  0  0
 10 15  1  0  0  0
 11 12  1  0  0  0
 11 93  1  0  0  0
 12 13  2  0  0  0
 12 94  1  0  0  0
 13 14  1  0  0  0
 13 31  1  0  0  0
 14 15  2  0  0  0
 14 95  1  0  0  0
 15 96  1  0  0  0
 16 17  2  0  0  0
 16 21  1  0  0  0
 16 31  1  0  0  0
 17 18  1  0  0  0
 17 97  1  0  0  0
 18 19  2  0  0  0
 18 98  1  0  0  0
 19 20  1  0  0  0
 19 24  1  0  0  0
 20 21  2  0  0  0
 20 99  1  0  0  0
 21 23  1  0  0  0
 22 28  1  0  0  0
 22 32  2  0  0  0
 26 27  1  0  0  0
 28100  1  0  0  0
 28101  1  0  0  0
 29102  1  0  0  0
 29103  1  0  0  0
 33 34  1  0  0  0
 33 66  1  0  0  0
 33 70  2  0  0  0
 34 36  1  0  0  0
 34 59  1  0  0  0
 34104  1  0  0  0
 35 44  2  0  0  0
 35 45  1  0  0  0
 35 68  1  0  0  0
 36 56  1  0  0  0
 36105  1  0  0  0
 37 39  1  0  0  0
 37 47  1  0  0  0
 37 66  1  0  0  0
 37106  1  0  0  0
 38 43  2  0  0  0
 38 46  1  0  0  0
 38 47  1  0  0  0
 39 64  1  0  0  0
 39 67  2  0  0  0
 40 52  1  0  0  0
 40 53  2  0  0  0
 40 58  1  0  0  0
 41107  1  0  0  0
 41108  1  0  0  0
 41109  1  0  0  0
 41 48  1  0  0  0
 42 43  1  0  0  0
 42 66  1  0  0  0
 42110  1  0  0  0
 42111  1  0  0  0
 43 44  1  0  0  0
 44112  1  0  0  0
 45 46  2  0  0  0
 45113  1  0  0  0
 46114  1  0  0  0
 47115  1  0  0  0
 47116  1  0  0  0
 48 56  1  0  0  0
 48 65  1  0  0  0
 48117  1  0  0  0
 49 50  1  0  0  0
 49 53  1  0  0  0
 49 64  1  0  0  0
 49118  1  0  0  0
 50 51  1  0  0  0
 50119  1  0  0  0
 50120  1  0  0  0
 51 52  1  0  0  0
 51121  1  0  0  0
 51122  1  0  0  0
 52123  1  0  0  0
 52124  1  0  0  0
 53 54  1  0  0  0
 54 55  2  0  0  0
 54125  1  0  0  0
 55 57  1  0  0  0
 55126  1  0  0  0
 56 69  2  0  0  0
 57 58  2  0  0  0
 57127  1  0  0  0
 58128  1  0  0  0
 59 60  1  0  0  0
 59 61  1  0  0  0
 59 62  1  0  0  0
 60129  1  0  0  0
 60130  1  0  0  0
 60131  1  0  0  0
 61132  1  0  0  0
 61133  1  0  0  0
 61134  1  0  0  0
 62135  1  0  0  0
 62136  1  0  0  0
 62137  1  0  0  0
 63 65  1  0  0  0
 63138  1  0  0  0
 63139  1  0  0  0
 63140  1  0  0  0
 64141  1  0  0  0
 65142  1  0  0  0
 68 81  1  0  0  0
 71 73  2  0  0  0
 71 75  1  0  0  0
 71143  1  0  0  0
 72 74  1  0  0  0
 72 75  2  0  0  0
 72144  1  0  0  0
 73 76  1  0  0  0
 73145  1  0  0  0
 74 76  2  0  0  0
 74146  1  0  0  0
 75 82  1  0  0  0
 76 83  1  0  0  0
 77 79  1  0  0  0
 77 81  1  0  0  0
 77147  1  0  0  0
 77148  1  0  0  0
 78 80  1  0  0  0
 78 81  1  0  0  0
 78149  1  0  0  0
 78150  1  0  0  0
 79 82  1  0  0  0
 79151  1  0  0  0
 79152  1  0  0  0
 80 82  1  0  0  0
 80153  1  0  0  0
 80154  1  0  0  0
 81155  1  0  0  0
 83156  1  0  0  0
M  ISO  4   1 100  68 101  81 101  83 100
M  END
> <chiral flag>
0

> <version>
0

> <s_m_source_file>
/data/baiqing/PycharmProjects/Reinvent-master-3.2/result/LINK_invent/BTK/process_docking_weight1_custom_product_contain_oxygen_bond_distance_aromatic_linkinvent_7_9_3/rearranged_h_0020.sdf

> <i_m_source_file_index>
65

> <r_mmod_Potential_Energy-OPLS-2005>
190.801544189453

> <r_mmod_Stretch_Energy-OPLS-2005>
124.130180358887

> <r_mmod_Bend_Energy-OPLS-2005>
190.531784057617

> <r_mmod_Torsional_Energy-OPLS-2005>
259.040710449219

> <r_mmod_Improper_Torsional_Energy-OPLS-2005>
9.05308055877686

> <r_mmod_Van_der_Waal_Energy-OPLS-2005>
136.684219360352

> <r_mmod_Electrostatic_Energy-OPLS-2005>
-396.944183349609

> <r_mmod_Solvation_Energy-OPLS-2005>
-230.249862670898

> <b_mmod_Minimization_Converged-OPLS-2005>
0

> <r_mmod_RMS_Derivative-OPLS-2005>
0.348706066608429

$$$$
66
                    3D
 Structure written by MMmdl.
165174  0  0  1  0            999 V2000
  -30.7092  -14.4822   20.4905 C   0  0  0  0  0  0
  -30.4182  -12.2896   19.4290 C   0  0  0  0  0  0
  -29.4945  -12.4767   18.2084 C   0  0  0  0  0  0
  -28.0133  -12.3567   18.6217 C   0  0  0  0  0  0
  -27.6578  -13.2013   19.8760 C   0  0  2  0  0  0
  -28.7096  -13.0234   20.9945 C   0  0  0  0  0  0
  -25.2596  -13.8132   20.5717 C   0  0  0  0  0  0
  -24.1836  -13.0421   20.9203 C   0  0  0  0  0  0
  -24.6381  -11.6884   20.8762 C   0  0  0  0  0  0
  -23.9045  -10.4276   21.0416 C   0  0  0  0  0  0
  -24.3596   -9.4191   21.9189 C   0  0  0  0  0  0
  -23.6280   -8.2221   22.0752 C   0  0  0  0  0  0
  -22.4261   -8.0267   21.3542 C   0  0  0  0  0  0
  -21.9896   -9.0238   20.4643 C   0  0  0  0  0  0
  -22.7223  -10.2119   20.3056 C   0  0  0  0  0  0
  -21.6843   -6.0728   22.5282 C   0  0  0  0  0  0
  -21.4003   -6.5635   23.8215 C   0  0  0  0  0  0
  -21.3659   -5.6789   24.9179 C   0  0  0  0  0  0
  -21.6046   -4.3053   24.7229 C   0  0  0  0  0  0
  -21.8820   -3.8142   23.4351 C   0  0  0  0  0  0
  -21.9187   -4.6956   22.3405 C   0  0  0  0  0  0
  -22.7861  -13.5233   21.1853 C   0  0  0  0  0  0
  -22.1662   -4.2139   21.0984 F   0  0  0  0  0  0
  -21.5628   -3.4541   25.7741 F   0  0  0  0  0  0
  -30.0310  -13.3056   20.4160 N   0  0  0  0  0  0
  -26.3018  -12.9282   20.3422 N   0  0  0  0  0  0
  -25.9313  -11.6451   20.5827 N   0  0  0  0  0  0
  -22.0481  -12.8237   22.0401 N   0  0  0  0  0  0
  -25.4349  -15.1845   20.4115 N   0  0  0  0  0  0
  -31.9038  -14.5764   20.1925 O   0  0  0  0  0  0
  -21.6625   -6.8866   21.4241 O   0  0  0  0  0  0
  -22.3564  -14.5544   20.6700 O   0  0  0  0  0  0
  -24.6139  -31.8703   23.2130 C   0  0  0  0  0  0
  -25.9039  -32.4836   23.8414 C   0  0  1  0  0  0
  -27.2254  -27.4413   20.0926 C   0  0  0  0  0  0
  -25.5900  -33.8635   24.2341 N   0  0  0  0  0  0
  -23.4009  -30.4969   21.5536 C   0  0  2  0  0  0
  -24.8464  -28.9721   20.1103 C   0  0  0  0  0  0
  -22.7409  -29.4672   22.4992 C   0  0  0  0  0  0
  -18.0269  -28.1379   22.8494 C   0  0  0  0  0  0
  -24.1485  -36.7323   23.2639 C   0  0  0  0  0  0
  -25.9314  -30.8373   21.3672 C   0  0  0  0  0  0
  -26.0081  -29.4748   20.7108 C   0  0  0  0  0  0
  -27.2026  -28.7167   20.7009 C   0  0  0  0  0  0
  -26.0519  -26.9718   19.4569 C   0  0  0  0  0  0
  -24.8631  -27.7193   19.4792 C   0  0  0  0  0  0
  -23.6082  -29.8365   20.1657 C   0  0  0  0  0  0
  -25.4105  -36.3122   24.0340 C   0  0  1  0  0  0
  -20.5863  -28.3664   23.1319 C   0  0  2  0  0  0
  -20.6762  -26.9403   22.5415 C   0  0  0  0  0  0
  -19.5741  -26.6387   21.5213 C   0  0  0  0  0  0
  -18.1920  -26.7924   22.1624 C   0  0  0  0  0  0
  -19.1523  -28.8837   23.2904 C   0  0  0  0  0  0
  -18.9451  -30.1443   23.8913 C   0  0  0  0  0  0
  -17.6457  -30.6585   24.0566 C   0  0  0  0  0  0
  -25.9032  -34.9487   23.5134 C   0  0  0  0  0  0
  -16.5345  -29.9088   23.6329 C   0  0  0  0  0  0
  -16.7262  -28.6505   23.0349 C   0  0  0  0  0  0
  -26.4466  -31.6610   25.0738 C   0  0  0  0  0  0
  -25.3734  -31.3715   26.1487 C   0  0  0  0  0  0
  -27.0289  -30.3051   24.6107 C   0  0  0  0  0  0
  -27.6045  -32.4325   25.7499 C   0  0  0  0  0  0
  -27.5580  -37.1815   24.8465 C   0  0  0  0  0  0
  -21.4139  -29.3032   22.3724 N   0  0  0  0  0  0
  -26.4293  -37.3804   23.9409 N   0  0  0  0  0  0
  -24.6671  -31.0814   22.1028 N   0  0  0  0  0  0
  -23.4189  -28.8211   23.3023 O   0  0  0  0  0  0
  -28.3628  -26.6593   20.1335 O   0  0  0  0  0  0
  -26.5595  -34.8932   22.4696 O   0  0  0  0  0  0
  -23.5334  -32.1452   23.7529 O   0  0  0  0  0  0
  -28.4478  -18.6012   21.2492 C   0  0  0  0  0  0
  -30.8176  -18.5103   21.7681 C   0  0  0  0  0  0
  -28.5340  -19.9998   21.1009 C   0  0  0  0  0  0
  -30.9010  -19.9147   21.6282 C   0  0  0  0  0  0
  -29.5929  -17.8392   21.5580 C   0  0  0  0  0  0
  -29.7645  -20.6791   21.2708 C   0  0  0  0  0  0
  -30.3761  -24.3538   21.5347 C   0  0  0  0  0  0
  -30.9321  -22.9170   21.5658 C   0  0  0  0  0  0
  -28.7250  -22.8811   20.6237 C   0  0  0  0  0  0
  -29.2553  -24.3174   20.4843 C   0  0  1  0  0  0
  -28.6878  -16.5259   18.3999 C   0  0  0  0  0  0
  -29.5081  -16.3082   21.6031 C   0  0  0  0  0  0
  -28.1174  -25.3438   20.6656 C   0  0  0  0  0  0
  -30.0355  -16.3669   19.1206 C   0  0  0  0  0  0
  -29.8547  -22.0749   21.0599 N   0  0  0  0  0  0
  -29.9263  -15.5855   20.3781 N   0  0  0  0  0  0
  -31.4645  -12.3694   19.1285 H   0  0  0  0  0  0
  -30.3030  -11.2900   19.8502 H   0  0  0  0  0  0
  -29.7300  -11.7342   17.4444 H   0  0  0  0  0  0
  -29.6744  -13.4505   17.7513 H   0  0  0  0  0  0
  -27.8137  -11.3030   18.8210 H   0  0  0  0  0  0
  -27.3664  -12.6355   17.7892 H   0  0  0  0  0  0
  -27.6801  -14.2426   19.5713 H   0  0  0  0  0  0
  -28.6865  -12.0049   21.3848 H   0  0  0  0  0  0
  -28.4941  -13.6754   21.8407 H   0  0  0  0  0  0
  -25.2732   -9.5669   22.4775 H   0  0  0  0  0  0
  -23.9981   -7.4611   22.7468 H   0  0  0  0  0  0
  -21.0822   -8.8767   19.8956 H   0  0  0  0  0  0
  -22.3684  -10.9662   19.6169 H   0  0  0  0  0  0
  -21.1996   -7.6143   23.9720 H   0  0  0  0  0  0
  -21.1487   -6.0517   25.9083 H   0  0  0  0  0  0
  -22.0602   -2.7606   23.2851 H   0  0  0  0  0  0
  -22.4068  -11.9892   22.4804 H   0  0  0  0  0  0
  -21.1105  -13.1292   22.2594 H   0  0  0  0  0  0
  -24.6715  -15.8437   20.5185 H   0  0  0  0  0  0
  -26.2901  -15.6152   20.0850 H   0  0  0  0  0  0
  -26.7112  -32.5554   23.1183 H   0  0  0  0  0  0
  -25.0040  -33.9801   25.0477 H   0  0  0  0  0  0
  -22.6888  -31.3139   21.4193 H   0  0  0  0  0  0
  -23.3743  -35.9661   23.3313 H   0  0  0  0  0  0
  -24.3578  -36.8924   22.2051 H   0  0  0  0  0  0
  -23.7238  -37.6534   23.6640 H   0  0  0  0  0  0
  -26.0443  -31.6054   20.6006 H   0  0  0  0  0  0
  -26.8196  -30.8881   21.9854 H   0  0  0  0  0  0
  -28.0954  -29.0948   21.1793 H   0  0  0  0  0  0
  -26.0384  -26.0276   18.9322 H   0  0  0  0  0  0
  -23.9745  -27.3332   18.9986 H   0  0  0  0  0  0
  -23.7153  -30.6150   19.4095 H   0  0  0  0  0  0
  -22.7320  -29.2572   19.8685 H   0  0  0  0  0  0
  -25.1278  -36.1992   25.0833 H   0  0  0  0  0  0
  -20.9957  -28.3227   24.1439 H   0  0  0  0  0  0
  -20.5670  -26.2273   23.3599 H   0  0  0  0  0  0
  -21.6632  -26.7451   22.1204 H   0  0  0  0  0  0
  -19.6901  -25.6302   21.1229 H   0  0  0  0  0  0
  -19.6678  -27.3207   20.6752 H   0  0  0  0  0  0
  -17.4190  -26.6676   21.4025 H   0  0  0  0  0  0
  -18.0322  -26.0062   22.9016 H   0  0  0  0  0  0
  -19.7930  -30.7251   24.2289 H   0  0  0  0  0  0
  -17.5016  -31.6267   24.5166 H   0  0  0  0  0  0
  -15.5348  -30.2998   23.7646 H   0  0  0  0  0  0
  -15.8657  -28.0832   22.7055 H   0  0  0  0  0  0
  -24.5899  -30.7071   25.7822 H   0  0  0  0  0  0
  -24.8934  -32.2873   26.4950 H   0  0  0  0  0  0
  -25.8089  -30.8870   27.0236 H   0  0  0  0  0  0
  -26.2830  -29.6828   24.1150 H   0  0  0  0  0  0
  -27.4044  -29.7271   25.4561 H   0  0  0  0  0  0
  -27.8675  -30.4365   23.9264 H   0  0  0  0  0  0
  -27.2661  -33.3610   26.2112 H   0  0  0  0  0  0
  -28.3838  -32.6913   25.0319 H   0  0  0  0  0  0
  -28.0734  -31.8431   26.5388 H   0  0  0  0  0  0
  -28.2606  -38.0106   24.7511 H   0  0  0  0  0  0
  -28.1066  -36.2637   24.6287 H   0  0  0  0  0  0
  -27.2300  -37.1467   25.8870 H   0  0  0  0  0  0
  -20.9295  -29.8764   21.6957 H   0  0  0  0  0  0
  -26.0186  -38.2885   24.1407 H   0  0  0  0  0  0
  -27.4969  -18.1123   21.0918 H   0  0  0  0  0  0
  -31.7083  -17.9464   22.0087 H   0  0  0  0  0  0
  -27.6325  -20.5331   20.8377 H   0  0  0  0  0  0
  -31.8609  -20.3913   21.7678 H   0  0  0  0  0  0
  -31.1422  -25.0966   21.3089 H   0  0  0  0  0  0
  -29.9613  -24.6004   22.5131 H   0  0  0  0  0  0
  -31.2363  -22.6336   22.5751 H   0  0  0  0  0  0
  -31.8009  -22.8256   20.9119 H   0  0  0  0  0  0
  -28.3105  -22.5232   19.6794 H   0  0  0  0  0  0
  -27.9381  -22.8326   21.3787 H   0  0  0  0  0  0
  -29.6906  -24.4231   19.4893 H   0  0  0  0  0  0
  -28.7762  -17.2422   17.5828 H   0  0  0  0  0  0
  -27.9033  -16.8848   19.0649 H   0  0  0  0  0  0
  -28.3559  -15.5868   17.9582 H   0  0  0  0  0  0
  -28.4757  -16.0282   21.8162 H   0  0  0  0  0  0
  -30.0862  -15.9669   22.4647 H   0  0  0  0  0  0
  -27.8601  -25.4322   21.7223 H   0  0  0  0  0  0
  -27.2490  -24.8873   20.1959 H   0  0  0  0  0  0
  -30.4983  -17.3387   19.2842 H   0  0  0  0  0  0
  -30.7103  -15.8816   18.4114 H   0  0  0  0  0  0
  1 25  1  0  0  0
  1 30  2  0  0  0
  1 86  1  0  0  0
  2  3  1  0  0  0
  2 25  1  0  0  0
  2 87  1  0  0  0
  2 88  1  0  0  0
  3  4  1  0  0  0
  3 89  1  0  0  0
  3 90  1  0  0  0
  4  5  1  0  0  0
  4 91  1  0  0  0
  4 92  1  0  0  0
  5  6  1  0  0  0
  5 26  1  0  0  0
  5 93  1  0  0  0
  6 25  1  0  0  0
  6 94  1  0  0  0
  6 95  1  0  0  0
  7  8  2  0  0  0
  7 26  1  0  0  0
  7 29  1  0  0  0
  8  9  1  0  0  0
  8 22  1  0  0  0
  9 10  1  0  0  0
  9 27  2  0  0  0
 10 11  2  0  0  0
 10 15  1  0  0  0
 11 12  1  0  0  0
 11 96  1  0  0  0
 12 13  2  0  0  0
 12 97  1  0  0  0
 13 14  1  0  0  0
 13 31  1  0  0  0
 14 15  2  0  0  0
 14 98  1  0  0  0
 15 99  1  0  0  0
 16 17  2  0  0  0
 16 21  1  0  0  0
 16 31  1  0  0  0
 17 18  1  0  0  0
 17100  1  0  0  0
 18 19  2  0  0  0
 18101  1  0  0  0
 19 20  1  0  0  0
 19 24  1  0  0  0
 20 21  2  0  0  0
 20102  1  0  0  0
 21 23  1  0  0  0
 22 28  1  0  0  0
 22 32  2  0  0  0
 26 27  1  0  0  0
 28103  1  0  0  0
 28104  1  0  0  0
 29105  1  0  0  0
 29106  1  0  0  0
 33 34  1  0  0  0
 33 66  1  0  0  0
 33 70  2  0  0  0
 34 36  1  0  0  0
 34 59  1  0  0  0
 34107  1  0  0  0
 35 44  2  0  0  0
 35 45  1  0  0  0
 35 68  1  0  0  0
 36 56  1  0  0  0
 36108  1  0  0  0
 37 39  1  0  0  0
 37 47  1  0  0  0
 37 66  1  0  0  0
 37109  1  0  0  0
 38 43  2  0  0  0
 38 46  1  0  0  0
 38 47  1  0  0  0
 39 64  1  0  0  0
 39 67  2  0  0  0
 40 52  1  0  0  0
 40 53  2  0  0  0
 40 58  1  0  0  0
 41110  1  0  0  0
 41111  1  0  0  0
 41112  1  0  0  0
 41 48  1  0  0  0
 42 43  1  0  0  0
 42 66  1  0  0  0
 42113  1  0  0  0
 42114  1  0  0  0
 43 44  1  0  0  0
 44115  1  0  0  0
 45 46  2  0  0  0
 45116  1  0  0  0
 46117  1  0  0  0
 47118  1  0  0  0
 47119  1  0  0  0
 48 56  1  0  0  0
 48 65  1  0  0  0
 48120  1  0  0  0
 49 50  1  0  0  0
 49 53  1  0  0  0
 49 64  1  0  0  0
 49121  1  0  0  0
 50 51  1  0  0  0
 50122  1  0  0  0
 50123  1  0  0  0
 51 52  1  0  0  0
 51124  1  0  0  0
 51125  1  0  0  0
 52126  1  0  0  0
 52127  1  0  0  0
 53 54  1  0  0  0
 54 55  2  0  0  0
 54128  1  0  0  0
 55 57  1  0  0  0
 55129  1  0  0  0
 56 69  2  0  0  0
 57 58  2  0  0  0
 57130  1  0  0  0
 58131  1  0  0  0
 59 60  1  0  0  0
 59 61  1  0  0  0
 59 62  1  0  0  0
 60132  1  0  0  0
 60133  1  0  0  0
 60134  1  0  0  0
 61135  1  0  0  0
 61136  1  0  0  0
 61137  1  0  0  0
 62138  1  0  0  0
 62139  1  0  0  0
 62140  1  0  0  0
 63 65  1  0  0  0
 63141  1  0  0  0
 63142  1  0  0  0
 63143  1  0  0  0
 64144  1  0  0  0
 65145  1  0  0  0
 68 83  1  0  0  0
 71 73  2  0  0  0
 71 75  1  0  0  0
 71146  1  0  0  0
 72 74  1  0  0  0
 72 75  2  0  0  0
 72147  1  0  0  0
 73 76  1  0  0  0
 73148  1  0  0  0
 74 76  2  0  0  0
 74149  1  0  0  0
 75 82  1  0  0  0
 76 85  1  0  0  0
 77 78  1  0  0  0
 77 80  1  0  0  0
 77150  1  0  0  0
 77151  1  0  0  0
 78 85  1  0  0  0
 78152  1  0  0  0
 78153  1  0  0  0
 79 80  1  0  0  0
 79 85  1  0  0  0
 79154  1  0  0  0
 79155  1  0  0  0
 80 83  1  0  0  0
 80156  1  0  0  0
 81 84  1  0  0  0
 81157  1  0  0  0
 81158  1  0  0  0
 81159  1  0  0  0
 82 86  1  0  0  0
 82160  1  0  0  0
 82161  1  0  0  0
 83162  1  0  0  0
 83163  1  0  0  0
 84 86  1  0  0  0
 84164  1  0  0  0
 84165  1  0  0  0
M  ISO  4   1 100  68 101  83 101  86 100
M  END
> <chiral flag>
0

> <version>
0

> <s_m_source_file>
/data/baiqing/PycharmProjects/Reinvent-master-3.2/result/LINK_invent/BTK/process_docking_weight1_custom_product_contain_oxygen_bond_distance_aromatic_linkinvent_7_9_3/rearranged_h_0020.sdf

> <i_m_source_file_index>
66

> <r_mmod_Potential_Energy-OPLS-2005>
230.100692749023

> <r_mmod_Stretch_Energy-OPLS-2005>
39.1731109619141

> <r_mmod_Bend_Energy-OPLS-2005>
138.666625976562

> <r_mmod_Torsional_Energy-OPLS-2005>
361.252288818359

> <r_mmod_Improper_Torsional_Energy-OPLS-2005>
19.3590450286865

> <r_mmod_Van_der_Waal_Energy-OPLS-2005>
155.650756835938

> <r_mmod_Electrostatic_Energy-OPLS-2005>
-293.867126464844

> <r_mmod_Solvation_Energy-OPLS-2005>
-211.350143432617

> <b_mmod_Minimization_Converged-OPLS-2005>
0

> <r_mmod_RMS_Derivative-OPLS-2005>
0.991824507713318

$$$$
67
                    3D
 Structure written by MMmdl.
160169  0  0  1  0            999 V2000
  -30.6149  -14.6374   20.5045 C   0  0  0  0  0  0
  -30.4394  -12.3896   19.4543 C   0  0  0  0  0  0
  -29.5083  -12.5106   18.2259 C   0  0  0  0  0  0
  -28.0311  -12.3481   18.6378 C   0  0  0  0  0  0
  -27.6543  -13.2162   19.8682 C   0  0  2  0  0  0
  -28.6980  -13.0608   20.9981 C   0  0  0  0  0  0
  -25.2543  -13.8160   20.5690 C   0  0  0  0  0  0
  -24.1805  -13.0420   20.9164 C   0  0  0  0  0  0
  -24.6386  -11.6899   20.8734 C   0  0  0  0  0  0
  -23.9064  -10.4282   21.0403 C   0  0  0  0  0  0
  -24.3611   -9.4201   21.9187 C   0  0  0  0  0  0
  -23.6282   -8.2242   22.0765 C   0  0  0  0  0  0
  -22.4263   -8.0279   21.3552 C   0  0  0  0  0  0
  -21.9897   -9.0256   20.4655 C   0  0  0  0  0  0
  -22.7235  -10.2126   20.3057 C   0  0  0  0  0  0
  -21.6849   -6.0729   22.5281 C   0  0  0  0  0  0
  -21.4021   -6.5637   23.8213 C   0  0  0  0  0  0
  -21.3661   -5.6790   24.9178 C   0  0  0  0  0  0
  -21.6040   -4.3053   24.7225 C   0  0  0  0  0  0
  -21.8818   -3.8143   23.4349 C   0  0  0  0  0  0
  -21.9193   -4.6960   22.3404 C   0  0  0  0  0  0
  -22.7827  -13.5221   21.1831 C   0  0  0  0  0  0
  -22.1657   -4.2148   21.0981 F   0  0  0  0  0  0
  -21.5626   -3.4538   25.7740 F   0  0  0  0  0  0
  -30.0170  -13.4051   20.4399 N   0  0  0  0  0  0
  -26.2987  -12.9354   20.3342 N   0  0  0  0  0  0
  -25.9317  -11.6507   20.5756 N   0  0  0  0  0  0
  -22.0470  -12.8226   22.0400 N   0  0  0  0  0  0
  -25.4230  -15.1880   20.4155 N   0  0  0  0  0  0
  -31.7664  -14.8163   20.0971 O   0  0  0  0  0  0
  -21.6632   -6.8873   21.4243 O   0  0  0  0  0  0
  -22.3518  -14.5539   20.6700 O   0  0  0  0  0  0
  -24.6251  -31.8607   23.2028 C   0  0  0  0  0  0
  -25.9103  -32.4784   23.8356 C   0  0  1  0  0  0
  -27.2266  -27.3292   20.1197 C   0  0  0  0  0  0
  -25.5922  -33.8584   24.2286 N   0  0  0  0  0  0
  -23.4182  -30.4836   21.5458 C   0  0  2  0  0  0
  -24.8649  -28.9363   20.1151 C   0  0  0  0  0  0
  -22.7467  -29.4626   22.4949 C   0  0  0  0  0  0
  -18.0285  -28.1381   22.8489 C   0  0  0  0  0  0
  -24.1488  -36.7299   23.2639 C   0  0  0  0  0  0
  -25.9577  -30.7943   21.3713 C   0  0  0  0  0  0
  -26.0332  -29.4206   20.7174 C   0  0  0  0  0  0
  -27.2188  -28.6304   20.7076 C   0  0  0  0  0  0
  -26.0394  -26.8958   19.4885 C   0  0  0  0  0  0
  -24.8692  -27.6784   19.4923 C   0  0  0  0  0  0
  -23.6329  -29.8165   20.1619 C   0  0  0  0  0  0
  -25.4111  -36.3088   24.0332 C   0  0  1  0  0  0
  -20.5882  -28.3683   23.1290 C   0  0  2  0  0  0
  -20.6774  -26.9410   22.5410 C   0  0  0  0  0  0
  -19.5752  -26.6385   21.5210 C   0  0  0  0  0  0
  -18.1932  -26.7924   22.1623 C   0  0  0  0  0  0
  -19.1536  -28.8850   23.2887 C   0  0  0  0  0  0
  -18.9459  -30.1451   23.8907 C   0  0  0  0  0  0
  -17.6460  -30.6586   24.0561 C   0  0  0  0  0  0
  -25.9051  -34.9456   23.5111 C   0  0  0  0  0  0
  -16.5352  -29.9086   23.6324 C   0  0  0  0  0  0
  -16.7272  -28.6499   23.0353 C   0  0  0  0  0  0
  -26.4490  -31.6590   25.0724 C   0  0  0  0  0  0
  -25.3725  -31.3723   26.1455 C   0  0  0  0  0  0
  -27.0322  -30.3015   24.6160 C   0  0  0  0  0  0
  -27.6055  -32.4320   25.7492 C   0  0  0  0  0  0
  -27.5579  -37.1805   24.8466 C   0  0  0  0  0  0
  -21.4182  -29.3041   22.3690 N   0  0  0  0  0  0
  -26.4290  -37.3780   23.9411 N   0  0  0  0  0  0
  -24.6858  -31.0629   22.0969 N   0  0  0  0  0  0
  -23.4198  -28.8163   23.3023 O   0  0  0  0  0  0
  -28.3543  -26.5003   20.1241 O   0  0  0  0  0  0
  -26.5619  -34.8920   22.4677 O   0  0  0  0  0  0
  -23.5421  -32.1400   23.7369 O   0  0  0  0  0  0
  -30.6648  -19.2836   19.8620 C   0  0  0  0  0  0
  -30.8324  -17.8838   20.1054 C   0  0  0  0  0  0
  -28.4468  -19.2016   20.7873 C   0  0  0  0  0  0
  -29.4621  -19.9815   20.1758 C   0  0  0  0  0  0
  -29.7923  -17.1030   20.6774 C   0  0  0  0  0  0
  -28.6102  -17.8063   21.0274 C   0  0  0  0  0  0
  -31.5182  -23.4435   20.8479 C   0  0  0  0  0  0
  -30.6983  -24.6114   20.3097 C   0  0  0  0  0  0
  -30.4674  -22.5800   21.5396 C   0  0  0  0  0  0
  -29.2868  -24.0439   20.0372 C   0  0  2  0  0  0
  -29.2113  -21.4686   19.7011 C   0  0  0  0  0  0
  -28.1852  -25.0845   20.5308 C   0  0  0  0  0  0
  -29.8080  -15.6610   20.9191 N   0  0  0  0  0  0
  -29.2717  -22.6414   20.6687 N   0  3  1  0  0  0
  -27.5862  -17.1101   21.5770 F   0  0  0  0  0  0
  -31.4807  -12.5181   19.1542 H   0  0  0  0  0  0
  -30.3758  -11.3905   19.8891 H   0  0  0  0  0  0
  -29.7717  -11.7626   17.4762 H   0  0  0  0  0  0
  -29.6502  -13.4811   17.7477 H   0  0  0  0  0  0
  -27.8712  -11.2950   18.8712 H   0  0  0  0  0  0
  -27.3749  -12.5777   17.7973 H   0  0  0  0  0  0
  -27.6745  -14.2527   19.5309 H   0  0  0  0  0  0
  -28.7050  -12.0363   21.3732 H   0  0  0  0  0  0
  -28.4403  -13.6851   21.8551 H   0  0  0  0  0  0
  -25.2755   -9.5677   22.4764 H   0  0  0  0  0  0
  -23.9995   -7.4630   22.7479 H   0  0  0  0  0  0
  -21.0832   -8.8774   19.8955 H   0  0  0  0  0  0
  -22.3702  -10.9667   19.6165 H   0  0  0  0  0  0
  -21.2023   -7.6145   23.9721 H   0  0  0  0  0  0
  -21.1481   -6.0518   25.9081 H   0  0  0  0  0  0
  -22.0597   -2.7608   23.2845 H   0  0  0  0  0  0
  -22.4081  -11.9886   22.4788 H   0  0  0  0  0  0
  -21.1102  -13.1283   22.2628 H   0  0  0  0  0  0
  -24.6667  -15.8429   20.5771 H   0  0  0  0  0  0
  -26.3019  -15.6475   20.2152 H   0  0  0  0  0  0
  -26.7171  -32.5456   23.1107 H   0  0  0  0  0  0
  -25.0059  -33.9722   25.0425 H   0  0  0  0  0  0
  -22.7120  -31.3039   21.4023 H   0  0  0  0  0  0
  -23.3749  -35.9633   23.3299 H   0  0  0  0  0  0
  -24.3584  -36.8920   22.2054 H   0  0  0  0  0  0
  -23.7244  -37.6501   23.6662 H   0  0  0  0  0  0
  -26.0874  -31.5561   20.6011 H   0  0  0  0  0  0
  -26.8391  -30.8453   21.9988 H   0  0  0  0  0  0
  -28.1185  -29.0039   21.1771 H   0  0  0  0  0  0
  -26.0032  -25.9450   18.9770 H   0  0  0  0  0  0
  -23.9764  -27.3051   19.0100 H   0  0  0  0  0  0
  -23.7536  -30.5919   19.4046 H   0  0  0  0  0  0
  -22.7529  -29.2464   19.8594 H   0  0  0  0  0  0
  -25.1289  -36.1939   25.0824 H   0  0  0  0  0  0
  -20.9973  -28.3255   24.1413 H   0  0  0  0  0  0
  -20.5676  -26.2295   23.3606 H   0  0  0  0  0  0
  -21.6645  -26.7446   22.1206 H   0  0  0  0  0  0
  -19.6915  -25.6298   21.1241 H   0  0  0  0  0  0
  -19.6686  -27.3194   20.6738 H   0  0  0  0  0  0
  -17.4200  -26.6672   21.4024 H   0  0  0  0  0  0
  -18.0332  -26.0064   22.9017 H   0  0  0  0  0  0
  -19.7934  -30.7258   24.2291 H   0  0  0  0  0  0
  -17.5015  -31.6267   24.5157 H   0  0  0  0  0  0
  -15.5353  -30.2991   23.7640 H   0  0  0  0  0  0
  -15.8670  -28.0815   22.7074 H   0  0  0  0  0  0
  -24.5902  -30.7068   25.7787 H   0  0  0  0  0  0
  -24.8913  -32.2886   26.4885 H   0  0  0  0  0  0
  -25.8053  -30.8901   27.0227 H   0  0  0  0  0  0
  -26.2880  -29.6777   24.1192 H   0  0  0  0  0  0
  -27.4035  -29.7262   25.4652 H   0  0  0  0  0  0
  -27.8750  -30.4312   23.9364 H   0  0  0  0  0  0
  -27.2669  -33.3622   26.2068 H   0  0  0  0  0  0
  -28.3862  -32.6875   25.0315 H   0  0  0  0  0  0
  -28.0722  -31.8444   26.5407 H   0  0  0  0  0  0
  -28.2600  -38.0099   24.7510 H   0  0  0  0  0  0
  -28.1072  -36.2634   24.6290 H   0  0  0  0  0  0
  -27.2303  -37.1452   25.8870 H   0  0  0  0  0  0
  -20.9362  -29.8769   21.6902 H   0  0  0  0  0  0
  -26.0174  -38.2858   24.1401 H   0  0  0  0  0  0
  -31.4707  -19.8170   19.3761 H   0  0  0  0  0  0
  -31.7624  -17.4132   19.8192 H   0  0  0  0  0  0
  -27.4999  -19.6578   21.0372 H   0  0  0  0  0  0
  -32.3141  -23.7598   21.5233 H   0  0  0  0  0  0
  -31.9777  -22.8928   20.0260 H   0  0  0  0  0  0
  -31.1456  -25.0598   19.4213 H   0  0  0  0  0  0
  -30.6561  -25.3920   21.0712 H   0  0  0  0  0  0
  -30.2117  -23.0252   22.5022 H   0  0  0  0  0  0
  -30.8254  -21.5719   21.7484 H   0  0  0  0  0  0
  -29.1661  -23.9344   18.9581 H   0  0  0  0  0  0
  -28.2355  -21.4969   19.2149 H   0  0  0  0  0  0
  -29.9272  -21.6659   18.9023 H   0  0  0  0  0  0
  -28.1772  -25.0856   21.6219 H   0  0  0  0  0  0
  -27.2120  -24.6915   20.2422 H   0  0  0  0  0  0
  -28.9379  -15.3299   21.3073 H   0  0  0  0  0  0
  -28.4596  -22.5486   21.2622 H   0  0  0  0  0  0
  1 25  1  0  0  0
  1 30  2  0  0  0
  1 83  1  0  0  0
  2  3  1  0  0  0
  2 25  1  0  0  0
  2 86  1  0  0  0
  2 87  1  0  0  0
  3  4  1  0  0  0
  3 88  1  0  0  0
  3 89  1  0  0  0
  4  5  1  0  0  0
  4 90  1  0  0  0
  4 91  1  0  0  0
  5  6  1  0  0  0
  5 26  1  0  0  0
  5 92  1  0  0  0
  6 25  1  0  0  0
  6 93  1  0  0  0
  6 94  1  0  0  0
  7  8  2  0  0  0
  7 26  1  0  0  0
  7 29  1  0  0  0
  8  9  1  0  0  0
  8 22  1  0  0  0
  9 10  1  0  0  0
  9 27  2  0  0  0
 10 11  2  0  0  0
 10 15  1  0  0  0
 11 12  1  0  0  0
 11 95  1  0  0  0
 12 13  2  0  0  0
 12 96  1  0  0  0
 13 14  1  0  0  0
 13 31  1  0  0  0
 14 15  2  0  0  0
 14 97  1  0  0  0
 15 98  1  0  0  0
 16 17  2  0  0  0
 16 21  1  0  0  0
 16 31  1  0  0  0
 17 18  1  0  0  0
 17 99  1  0  0  0
 18 19  2  0  0  0
 18100  1  0  0  0
 19 20  1  0  0  0
 19 24  1  0  0  0
 20 21  2  0  0  0
 20101  1  0  0  0
 21 23  1  0  0  0
 22 28  1  0  0  0
 22 32  2  0  0  0
 26 27  1  0  0  0
 28102  1  0  0  0
 28103  1  0  0  0
 29104  1  0  0  0
 29105  1  0  0  0
 33 34  1  0  0  0
 33 66  1  0  0  0
 33 70  2  0  0  0
 34 36  1  0  0  0
 34 59  1  0  0  0
 34106  1  0  0  0
 35 44  2  0  0  0
 35 45  1  0  0  0
 35 68  1  0  0  0
 36 56  1  0  0  0
 36107  1  0  0  0
 37 39  1  0  0  0
 37 47  1  0  0  0
 37 66  1  0  0  0
 37108  1  0  0  0
 38 43  2  0  0  0
 38 46  1  0  0  0
 38 47  1  0  0  0
 39 64  1  0  0  0
 39 67  2  0  0  0
 40 52  1  0  0  0
 40 53  2  0  0  0
 40 58  1  0  0  0
 41109  1  0  0  0
 41110  1  0  0  0
 41111  1  0  0  0
 41 48  1  0  0  0
 42 43  1  0  0  0
 42 66  1  0  0  0
 42112  1  0  0  0
 42113  1  0  0  0
 43 44  1  0  0  0
 44114  1  0  0  0
 45 46  2  0  0  0
 45115  1  0  0  0
 46116  1  0  0  0
 47117  1  0  0  0
 47118  1  0  0  0
 48 56  1  0  0  0
 48 65  1  0  0  0
 48119  1  0  0  0
 49 50  1  0  0  0
 49 53  1  0  0  0
 49 64  1  0  0  0
 49120  1  0  0  0
 50 51  1  0  0  0
 50121  1  0  0  0
 50122  1  0  0  0
 51 52  1  0  0  0
 51123  1  0  0  0
 51124  1  0  0  0
 52125  1  0  0  0
 52126  1  0  0  0
 53 54  1  0  0  0
 54 55  2  0  0  0
 54127  1  0  0  0
 55 57  1  0  0  0
 55128  1  0  0  0
 56 69  2  0  0  0
 57 58  2  0  0  0
 57129  1  0  0  0
 58130  1  0  0  0
 59 60  1  0  0  0
 59 61  1  0  0  0
 59 62  1  0  0  0
 60131  1  0  0  0
 60132  1  0  0  0
 60133  1  0  0  0
 61134  1  0  0  0
 61135  1  0  0  0
 61136  1  0  0  0
 62137  1  0  0  0
 62138  1  0  0  0
 62139  1  0  0  0
 63 65  1  0  0  0
 63140  1  0  0  0
 63141  1  0  0  0
 63142  1  0  0  0
 64143  1  0  0  0
 65144  1  0  0  0
 68 82  1  0  0  0
 71 72  2  0  0  0
 71 74  1  0  0  0
 71145  1  0  0  0
 72 75  1  0  0  0
 72146  1  0  0  0
 73 74  2  0  0  0
 73 76  1  0  0  0
 73147  1  0  0  0
 74 81  1  0  0  0
 75 76  2  0  0  0
 75 83  1  0  0  0
 76 85  1  0  0  0
 77 78  1  0  0  0
 77 79  1  0  0  0
 77148  1  0  0  0
 77149  1  0  0  0
 78 80  1  0  0  0
 78150  1  0  0  0
 78151  1  0  0  0
 79 84  1  0  0  0
 79152  1  0  0  0
 79153  1  0  0  0
 80 82  1  0  0  0
 80 84  1  0  0  0
 80154  1  0  0  0
 81155  1  0  0  0
 81156  1  0  0  0
 81 84  1  0  0  0
 82157  1  0  0  0
 82158  1  0  0  0
 83159  1  0  0  0
 84160  1  0  0  0
M  CHG  1  84   1
M  ISO  4   1 100  68 101  82 101  83 100
M  END
> <chiral flag>
0

> <version>
0

> <s_m_source_file>
/data/baiqing/PycharmProjects/Reinvent-master-3.2/result/LINK_invent/BTK/process_docking_weight1_custom_product_contain_oxygen_bond_distance_aromatic_linkinvent_7_9_3/rearranged_h_0020.sdf

> <i_m_source_file_index>
67

> <r_mmod_Potential_Energy-OPLS-2005>
22.1129570007324

> <r_mmod_Stretch_Energy-OPLS-2005>
80.3119430541992

> <r_mmod_Bend_Energy-OPLS-2005>
163.003128051758

> <r_mmod_Torsional_Energy-OPLS-2005>
288.649932861328

> <r_mmod_Improper_Torsional_Energy-OPLS-2005>
4.53385353088379

> <r_mmod_Van_der_Waal_Energy-OPLS-2005>
137.763717651367

> <r_mmod_Electrostatic_Energy-OPLS-2005>
-263.133239746094

> <r_mmod_Solvation_Energy-OPLS-2005>
-433.199249267578

> <b_mmod_Minimization_Converged-OPLS-2005>
0

> <r_mmod_RMS_Derivative-OPLS-2005>
1.13686311244965

$$$$
68
                    3D
 Structure written by MMmdl.
156165  0  0  1  0            999 V2000
  -30.7049  -14.6067   20.4622 C   0  0  0  0  0  0
  -30.4155  -12.3512   19.4883 C   0  0  0  0  0  0
  -29.5095  -12.4591   18.2438 C   0  0  0  0  0  0
  -28.0302  -12.3271   18.6470 C   0  0  0  0  0  0
  -27.6498  -13.2306   19.8506 C   0  0  2  0  0  0
  -28.6878  -13.1493   20.9904 C   0  0  0  0  0  0
  -25.2571  -13.8242   20.5722 C   0  0  0  0  0  0
  -24.1825  -13.0473   20.9188 C   0  0  0  0  0  0
  -24.6417  -11.6956   20.8726 C   0  0  0  0  0  0
  -23.9085  -10.4321   21.0384 C   0  0  0  0  0  0
  -24.3640   -9.4237   21.9164 C   0  0  0  0  0  0
  -23.6317   -8.2270   22.0747 C   0  0  0  0  0  0
  -22.4291   -8.0301   21.3538 C   0  0  0  0  0  0
  -21.9917   -9.0269   20.4644 C   0  0  0  0  0  0
  -22.7246  -10.2154   20.3052 C   0  0  0  0  0  0
  -21.6871   -6.0741   22.5270 C   0  0  0  0  0  0
  -21.4013   -6.5637   23.8198 C   0  0  0  0  0  0
  -21.3669   -5.6796   24.9157 C   0  0  0  0  0  0
  -21.6058   -4.3054   24.7216 C   0  0  0  0  0  0
  -21.8828   -3.8150   23.4333 C   0  0  0  0  0  0
  -21.9191   -4.6964   22.3393 C   0  0  0  0  0  0
  -22.7845  -13.5244   21.1849 C   0  0  0  0  0  0
  -22.1671   -4.2171   21.0963 F   0  0  0  0  0  0
  -21.5631   -3.4528   25.7718 F   0  0  0  0  0  0
  -30.0151  -13.4219   20.4273 N   0  0  0  0  0  0
  -26.2989  -12.9446   20.3284 N   0  0  0  0  0  0
  -25.9341  -11.6588   20.5725 N   0  0  0  0  0  0
  -22.0515  -12.8210   22.0409 N   0  0  0  0  0  0
  -25.4331  -15.1960   20.4206 N   0  0  0  0  0  0
  -31.8702  -14.6631   20.0620 O   0  0  0  0  0  0
  -21.6657   -6.8890   21.4240 O   0  0  0  0  0  0
  -22.3499  -14.5522   20.6671 O   0  0  0  0  0  0
  -24.6262  -31.8629   23.2051 C   0  0  0  0  0  0
  -25.9111  -32.4795   23.8389 C   0  0  1  0  0  0
  -27.2117  -27.3251   20.1254 C   0  0  0  0  0  0
  -25.5940  -33.8594   24.2328 N   0  0  0  0  0  0
  -23.4188  -30.4885   21.5482 C   0  0  2  0  0  0
  -24.8645  -28.9541   20.1078 C   0  0  0  0  0  0
  -22.7474  -29.4632   22.4928 C   0  0  0  0  0  0
  -18.0292  -28.1385   22.8484 C   0  0  0  0  0  0
  -24.1486  -36.7292   23.2635 C   0  0  0  0  0  0
  -25.9605  -30.7986   21.3739 C   0  0  0  0  0  0
  -26.0342  -29.4277   20.7150 C   0  0  0  0  0  0
  -27.2132  -28.6249   20.7151 C   0  0  0  0  0  0
  -26.0238  -26.9130   19.4750 C   0  0  0  0  0  0
  -24.8618  -27.7031   19.4764 C   0  0  0  0  0  0
  -23.6334  -29.8340   20.1597 C   0  0  0  0  0  0
  -25.4106  -36.3085   24.0336 C   0  0  1  0  0  0
  -20.5892  -28.3688   23.1283 C   0  0  2  0  0  0
  -20.6792  -26.9413   22.5406 C   0  0  0  0  0  0
  -19.5768  -26.6383   21.5213 C   0  0  0  0  0  0
  -18.1944  -26.7931   22.1620 C   0  0  0  0  0  0
  -19.1543  -28.8851   23.2882 C   0  0  0  0  0  0
  -18.9460  -30.1450   23.8902 C   0  0  0  0  0  0
  -17.6461  -30.6588   24.0557 C   0  0  0  0  0  0
  -25.9035  -34.9453   23.5120 C   0  0  0  0  0  0
  -16.5354  -29.9082   23.6328 C   0  0  0  0  0  0
  -16.7276  -28.6500   23.0349 C   0  0  0  0  0  0
  -26.4512  -31.6580   25.0735 C   0  0  0  0  0  0
  -25.3758  -31.3704   26.1469 C   0  0  0  0  0  0
  -27.0348  -30.3012   24.6147 C   0  0  0  0  0  0
  -27.6092  -32.4295   25.7499 C   0  0  0  0  0  0
  -27.5583  -37.1793   24.8465 C   0  0  0  0  0  0
  -21.4187  -29.3050   22.3675 N   0  0  0  0  0  0
  -26.4291  -37.3778   23.9410 N   0  0  0  0  0  0
  -24.6876  -31.0643   22.1006 N   0  0  0  0  0  0
  -23.4202  -28.8166   23.2997 O   0  0  0  0  0  0
  -28.3026  -26.4475   20.2118 O   0  0  0  0  0  0
  -26.5584  -34.8914   22.4671 O   0  0  0  0  0  0
  -23.5427  -32.1427   23.7379 O   0  0  0  0  0  0
  -29.9487  -16.9448   19.7124 C   0  0  0  0  0  0
  -29.5432  -18.2916   19.9547 C   0  0  0  0  0  0
  -29.3406  -17.7566   22.2909 C   0  0  0  0  0  0
  -30.0542  -15.9685   20.7478 C   0  0  0  0  0  0
  -29.2396  -18.7371   21.2641 C   0  0  0  0  0  0
  -29.7377  -16.4112   22.0532 C   0  0  0  0  0  0
  -28.4649  -22.6513   21.4725 C   0  0  0  0  0  0
  -29.8511  -23.2691   19.6465 C   0  0  0  0  0  0
  -29.8474  -21.7278   19.8700 C   0  0  0  0  0  0
  -29.0289  -23.9198   20.7786 C   0  0  1  0  0  0
  -28.6722  -20.1504   21.6517 C   0  0  0  0  0  0
  -27.9544  -25.0140   20.3599 C   0  0  0  0  0  0
  -28.9636  -21.4775   21.0005 N   0  0  0  0  0  0
  -27.6633  -22.7333   22.4078 O   0  0  0  0  0  0
  -29.8558  -15.5638   23.1041 F   0  0  0  0  0  0
  -31.4635  -12.4075   19.1952 H   0  0  0  0  0  0
  -30.3008  -11.3760   19.9634 H   0  0  0  0  0  0
  -29.7659  -11.6744   17.5320 H   0  0  0  0  0  0
  -29.6763  -13.4080   17.7334 H   0  0  0  0  0  0
  -27.8591  -11.2789   18.8972 H   0  0  0  0  0  0
  -27.3842  -12.5408   17.7958 H   0  0  0  0  0  0
  -27.6591  -14.2531   19.4717 H   0  0  0  0  0  0
  -28.6731  -12.1647   21.4577 H   0  0  0  0  0  0
  -28.4402  -13.8639   21.7756 H   0  0  0  0  0  0
  -25.2791   -9.5715   22.4724 H   0  0  0  0  0  0
  -24.0049   -7.4653   22.7443 H   0  0  0  0  0  0
  -21.0865   -8.8763   19.8937 H   0  0  0  0  0  0
  -22.3692  -10.9680   19.6151 H   0  0  0  0  0  0
  -21.2012   -7.6144   23.9706 H   0  0  0  0  0  0
  -21.1486   -6.0516   25.9062 H   0  0  0  0  0  0
  -22.0601   -2.7616   23.2814 H   0  0  0  0  0  0
  -22.4153  -11.9890   22.4808 H   0  0  0  0  0  0
  -21.1122  -13.1190   22.2597 H   0  0  0  0  0  0
  -24.6851  -15.8645   20.5722 H   0  0  0  0  0  0
  -26.3092  -15.6334   20.1613 H   0  0  0  0  0  0
  -26.7177  -32.5474   23.1142 H   0  0  0  0  0  0
  -25.0136  -33.9772   25.0508 H   0  0  0  0  0  0
  -22.7111  -31.3083   21.4097 H   0  0  0  0  0  0
  -23.3756  -35.9615   23.3284 H   0  0  0  0  0  0
  -24.3594  -36.8924   22.2054 H   0  0  0  0  0  0
  -23.7231  -37.6492   23.6656 H   0  0  0  0  0  0
  -26.0855  -31.5638   20.6066 H   0  0  0  0  0  0
  -26.8452  -30.8507   21.9977 H   0  0  0  0  0  0
  -28.1082  -28.9788   21.2085 H   0  0  0  0  0  0
  -25.9574  -25.9644   18.9644 H   0  0  0  0  0  0
  -23.9677  -27.3405   18.9876 H   0  0  0  0  0  0
  -23.7535  -30.6181   19.4120 H   0  0  0  0  0  0
  -22.7537  -29.2663   19.8518 H   0  0  0  0  0  0
  -25.1277  -36.1952   25.0831 H   0  0  0  0  0  0
  -20.9990  -28.3267   24.1400 H   0  0  0  0  0  0
  -20.5721  -26.2285   23.3594 H   0  0  0  0  0  0
  -21.6653  -26.7461   22.1176 H   0  0  0  0  0  0
  -19.6929  -25.6294   21.1242 H   0  0  0  0  0  0
  -19.6718  -27.3187   20.6739 H   0  0  0  0  0  0
  -17.4213  -26.6673   21.4025 H   0  0  0  0  0  0
  -18.0348  -26.0082   22.9027 H   0  0  0  0  0  0
  -19.7926  -30.7269   24.2287 H   0  0  0  0  0  0
  -17.5003  -31.6272   24.5151 H   0  0  0  0  0  0
  -15.5351  -30.2979   23.7645 H   0  0  0  0  0  0
  -15.8676  -28.0810   22.7070 H   0  0  0  0  0  0
  -24.5932  -30.7056   25.7797 H   0  0  0  0  0  0
  -24.8943  -32.2855   26.4916 H   0  0  0  0  0  0
  -25.8093  -30.8868   27.0228 H   0  0  0  0  0  0
  -26.2906  -29.6764   24.1193 H   0  0  0  0  0  0
  -27.4106  -29.7266   25.4623 H   0  0  0  0  0  0
  -27.8745  -30.4334   23.9322 H   0  0  0  0  0  0
  -27.2739  -33.3602   26.2089 H   0  0  0  0  0  0
  -28.3897  -32.6841   25.0315 H   0  0  0  0  0  0
  -28.0757  -31.8397   26.5406 H   0  0  0  0  0  0
  -28.2578  -38.0114   24.7519 H   0  0  0  0  0  0
  -28.1097  -36.2635   24.6262 H   0  0  0  0  0  0
  -27.2294  -37.1407   25.8870 H   0  0  0  0  0  0
  -20.9348  -29.8773   21.6896 H   0  0  0  0  0  0
  -26.0169  -38.2848   24.1440 H   0  0  0  0  0  0
  -30.2034  -16.6592   18.7010 H   0  0  0  0  0  0
  -29.4606  -18.9712   19.1204 H   0  0  0  0  0  0
  -29.1097  -18.0347   23.3088 H   0  0  0  0  0  0
  -29.4297  -23.5104   18.6701 H   0  0  0  0  0  0
  -30.8725  -23.6518   19.6494 H   0  0  0  0  0  0
  -30.8484  -21.3510   20.0816 H   0  0  0  0  0  0
  -29.4720  -21.2196   18.9800 H   0  0  0  0  0  0
  -29.7050  -24.3670   21.5073 H   0  0  0  0  0  0
  -28.9471  -20.2942   22.6978 H   0  0  0  0  0  0
  -27.5874  -20.0386   21.6588 H   0  0  0  0  0  0
  -27.1574  -24.9719   21.1049 H   0  0  0  0  0  0
  -27.5109  -24.6522   19.4334 H   0  0  0  0  0  0
  1 25  1  0  0  0
  1 30  2  0  0  0
  1 74  1  0  0  0
  2  3  1  0  0  0
  2 25  1  0  0  0
  2 86  1  0  0  0
  2 87  1  0  0  0
  3  4  1  0  0  0
  3 88  1  0  0  0
  3 89  1  0  0  0
  4  5  1  0  0  0
  4 90  1  0  0  0
  4 91  1  0  0  0
  5  6  1  0  0  0
  5 26  1  0  0  0
  5 92  1  0  0  0
  6 25  1  0  0  0
  6 93  1  0  0  0
  6 94  1  0  0  0
  7  8  2  0  0  0
  7 26  1  0  0  0
  7 29  1  0  0  0
  8  9  1  0  0  0
  8 22  1  0  0  0
  9 10  1  0  0  0
  9 27  2  0  0  0
 10 11  2  0  0  0
 10 15  1  0  0  0
 11 12  1  0  0  0
 11 95  1  0  0  0
 12 13  2  0  0  0
 12 96  1  0  0  0
 13 14  1  0  0  0
 13 31  1  0  0  0
 14 15  2  0  0  0
 14 97  1  0  0  0
 15 98  1  0  0  0
 16 17  2  0  0  0
 16 21  1  0  0  0
 16 31  1  0  0  0
 17 18  1  0  0  0
 17 99  1  0  0  0
 18 19  2  0  0  0
 18100  1  0  0  0
 19 20  1  0  0  0
 19 24  1  0  0  0
 20 21  2  0  0  0
 20101  1  0  0  0
 21 23  1  0  0  0
 22 28  1  0  0  0
 22 32  2  0  0  0
 26 27  1  0  0  0
 28102  1  0  0  0
 28103  1  0  0  0
 29104  1  0  0  0
 29105  1  0  0  0
 33 34  1  0  0  0
 33 66  1  0  0  0
 33 70  2  0  0  0
 34 36  1  0  0  0
 34 59  1  0  0  0
 34106  1  0  0  0
 35 44  2  0  0  0
 35 45  1  0  0  0
 35 68  1  0  0  0
 36 56  1  0  0  0
 36107  1  0  0  0
 37 39  1  0  0  0
 37 47  1  0  0  0
 37 66  1  0  0  0
 37108  1  0  0  0
 38 43  2  0  0  0
 38 46  1  0  0  0
 38 47  1  0  0  0
 39 64  1  0  0  0
 39 67  2  0  0  0
 40 52  1  0  0  0
 40 53  2  0  0  0
 40 58  1  0  0  0
 41109  1  0  0  0
 41110  1  0  0  0
 41111  1  0  0  0
 41 48  1  0  0  0
 42 43  1  0  0  0
 42 66  1  0  0  0
 42112  1  0  0  0
 42113  1  0  0  0
 43 44  1  0  0  0
 44114  1  0  0  0
 45 46  2  0  0  0
 45115  1  0  0  0
 46116  1  0  0  0
 47117  1  0  0  0
 47118  1  0  0  0
 48 56  1  0  0  0
 48 65  1  0  0  0
 48119  1  0  0  0
 49 50  1  0  0  0
 49 53  1  0  0  0
 49 64  1  0  0  0
 49120  1  0  0  0
 50 51  1  0  0  0
 50121  1  0  0  0
 50122  1  0  0  0
 51 52  1  0  0  0
 51123  1  0  0  0
 51124  1  0  0  0
 52125  1  0  0  0
 52126  1  0  0  0
 53 54  1  0  0  0
 54 55  2  0  0  0
 54127  1  0  0  0
 55 57  1  0  0  0
 55128  1  0  0  0
 56 69  2  0  0  0
 57 58  2  0  0  0
 57129  1  0  0  0
 58130  1  0  0  0
 59 60  1  0  0  0
 59 61  1  0  0  0
 59 62  1  0  0  0
 60131  1  0  0  0
 60132  1  0  0  0
 60133  1  0  0  0
 61134  1  0  0  0
 61135  1  0  0  0
 61136  1  0  0  0
 62137  1  0  0  0
 62138  1  0  0  0
 62139  1  0  0  0
 63 65  1  0  0  0
 63140  1  0  0  0
 63141  1  0  0  0
 63142  1  0  0  0
 64143  1  0  0  0
 65144  1  0  0  0
 68 82  1  0  0  0
 71 72  2  0  0  0
 71 74  1  0  0  0
 71145  1  0  0  0
 72 75  1  0  0  0
 72146  1  0  0  0
 73 75  2  0  0  0
 73 76  1  0  0  0
 73147  1  0  0  0
 74 76  2  0  0  0
 75 81  1  0  0  0
 76 85  1  0  0  0
 77 80  1  0  0  0
 77 83  1  0  0  0
 77 84  2  0  0  0
 78 79  1  0  0  0
 78 80  1  0  0  0
 78148  1  0  0  0
 78149  1  0  0  0
 79 83  1  0  0  0
 79150  1  0  0  0
 79151  1  0  0  0
 80 82  1  0  0  0
 80152  1  0  0  0
 81 83  1  0  0  0
 81153  1  0  0  0
 81154  1  0  0  0
 82155  1  0  0  0
 82156  1  0  0  0
M  ISO  4   1 100  68 101  74 100  82 101
M  END
> <chiral flag>
0

> <version>
0

> <s_m_source_file>
/data/baiqing/PycharmProjects/Reinvent-master-3.2/result/LINK_invent/BTK/process_docking_weight1_custom_product_contain_oxygen_bond_distance_aromatic_linkinvent_7_9_3/rearranged_h_0020.sdf

> <i_m_source_file_index>
68

> <r_mmod_Potential_Energy-OPLS-2005>
185.517684936523

> <r_mmod_Stretch_Energy-OPLS-2005>
70.9544525146484

> <r_mmod_Bend_Energy-OPLS-2005>
176.064498901367

> <r_mmod_Torsional_Energy-OPLS-2005>
250.468948364258

> <r_mmod_Improper_Torsional_Energy-OPLS-2005>
6.46619081497192

> <r_mmod_Van_der_Waal_Energy-OPLS-2005>
139.550338745117

> <r_mmod_Electrostatic_Energy-OPLS-2005>
-296.924133300781

> <r_mmod_Solvation_Energy-OPLS-2005>
-212.694900512695

> <b_mmod_Minimization_Converged-OPLS-2005>
0

> <r_mmod_RMS_Derivative-OPLS-2005>
2.89994835853577

$$$$
69
                    3D
 Structure written by MMmdl.
162170  0  0  1  0            999 V2000
  -30.7472  -14.3801   20.6428 C   0  0  0  0  0  0
  -30.4161  -12.2801   19.3992 C   0  0  0  0  0  0
  -29.4874  -12.5253   18.1941 C   0  0  0  0  0  0
  -28.0096  -12.3843   18.6086 C   0  0  0  0  0  0
  -27.6683  -13.2016   19.8821 C   0  0  2  0  0  0
  -28.7052  -12.9406   20.9971 C   0  0  0  0  0  0
  -25.2615  -13.8153   20.5685 C   0  0  0  0  0  0
  -24.1855  -13.0434   20.9159 C   0  0  0  0  0  0
  -24.6394  -11.6899   20.8711 C   0  0  0  0  0  0
  -23.9053  -10.4289   21.0386 C   0  0  0  0  0  0
  -24.3606   -9.4208   21.9165 C   0  0  0  0  0  0
  -23.6290   -8.2242   22.0744 C   0  0  0  0  0  0
  -22.4274   -8.0278   21.3541 C   0  0  0  0  0  0
  -21.9901   -9.0248   20.4643 C   0  0  0  0  0  0
  -22.7224  -10.2125   20.3038 C   0  0  0  0  0  0
  -21.6858   -6.0724   22.5279 C   0  0  0  0  0  0
  -21.4015   -6.5622   23.8206 C   0  0  0  0  0  0
  -21.3653   -5.6777   24.9174 C   0  0  0  0  0  0
  -21.6044   -4.3048   24.7233 C   0  0  0  0  0  0
  -21.8824   -3.8140   23.4348 C   0  0  0  0  0  0
  -21.9196   -4.6949   22.3404 C   0  0  0  0  0  0
  -22.7882  -13.5235   21.1834 C   0  0  0  0  0  0
  -22.1672   -4.2133   21.0984 F   0  0  0  0  0  0
  -21.5620   -3.4530   25.7743 F   0  0  0  0  0  0
  -30.0469  -13.2313   20.4583 N   0  0  0  0  0  0
  -26.3056  -12.9318   20.3394 N   0  0  0  0  0  0
  -25.9319  -11.6471   20.5745 N   0  0  0  0  0  0
  -22.0524  -12.8223   22.0387 N   0  0  0  0  0  0
  -25.4379  -15.1868   20.4123 N   0  0  0  0  0  0
  -31.8150  -14.6107   20.0664 O   0  0  0  0  0  0
  -21.6644   -6.8869   21.4238 O   0  0  0  0  0  0
  -22.3565  -14.5544   20.6682 O   0  0  0  0  0  0
  -24.6125  -31.8701   23.2114 C   0  0  0  0  0  0
  -25.9030  -32.4831   23.8402 C   0  0  1  0  0  0
  -27.2415  -27.4613   20.0788 C   0  0  0  0  0  0
  -25.5896  -33.8622   24.2336 N   0  0  0  0  0  0
  -23.3978  -30.4942   21.5514 C   0  0  2  0  0  0
  -24.8430  -28.9590   20.1185 C   0  0  0  0  0  0
  -22.7400  -29.4674   22.5011 C   0  0  0  0  0  0
  -18.0255  -28.1375   22.8488 C   0  0  0  0  0  0
  -24.1486  -36.7310   23.2640 C   0  0  0  0  0  0
  -25.9249  -30.8415   21.3603 C   0  0  0  0  0  0
  -26.0014  -29.4770   20.7095 C   0  0  0  0  0  0
  -27.2001  -28.7338   20.6878 C   0  0  0  0  0  0
  -26.0578  -26.9449   19.4997 C   0  0  0  0  0  0
  -24.8639  -27.6895   19.5161 C   0  0  0  0  0  0
  -23.6044  -29.8230   20.1671 C   0  0  0  0  0  0
  -25.4099  -36.3114   24.0350 C   0  0  1  0  0  0
  -20.5849  -28.3660   23.1342 C   0  0  2  0  0  0
  -20.6746  -26.9401   22.5434 C   0  0  0  0  0  0
  -19.5738  -26.6388   21.5213 C   0  0  0  0  0  0
  -18.1905  -26.7931   22.1606 C   0  0  0  0  0  0
  -19.1505  -28.8832   23.2907 C   0  0  0  0  0  0
  -18.9438  -30.1434   23.8919 C   0  0  0  0  0  0
  -17.6443  -30.6589   24.0554 C   0  0  0  0  0  0
  -25.9033  -34.9481   23.5141 C   0  0  0  0  0  0
  -16.5327  -29.9092   23.6323 C   0  0  0  0  0  0
  -16.7246  -28.6503   23.0350 C   0  0  0  0  0  0
  -26.4461  -31.6599   25.0724 C   0  0  0  0  0  0
  -25.3742  -31.3715   26.1492 C   0  0  0  0  0  0
  -27.0254  -30.3037   24.6080 C   0  0  0  0  0  0
  -27.6056  -32.4305   25.7465 C   0  0  0  0  0  0
  -27.5593  -37.1786   24.8451 C   0  0  0  0  0  0
  -21.4129  -29.3033   22.3759 N   0  0  0  0  0  0
  -26.4278  -37.3806   23.9440 N   0  0  0  0  0  0
  -24.6633  -31.0831   22.0990 N   0  0  0  0  0  0
  -23.4195  -28.8221   23.3042 O   0  0  0  0  0  0
  -28.4451  -26.7885   20.0646 O   0  0  0  0  0  0
  -26.5599  -34.8942   22.4707 O   0  0  0  0  0  0
  -23.5327  -32.1430   23.7538 O   0  0  0  0  0  0
  -32.1244  -18.4749   21.6315 C   0  0  0  0  0  0
  -31.8248  -17.1000   21.6798 C   0  0  0  0  0  0
  -29.4558  -17.6046   21.3958 C   0  0  0  0  0  0
  -31.0950  -19.4190   21.4278 C   0  0  0  0  0  0
  -30.4925  -16.6554   21.5171 C   0  0  0  0  0  0
  -29.7572  -18.9800   21.3411 C   0  0  0  0  0  0
  -32.6161  -20.7568   19.1206 C   0  0  0  0  0  0
  -31.4229  -20.8994   21.2896 C   0  0  0  0  0  0
  -29.9592  -23.3414   19.7277 C   0  0  0  0  0  0
  -29.8819  -24.8729   19.8512 C   0  0  0  0  0  0
  -31.4084  -22.8164   19.7244 C   0  0  0  0  0  0
  -28.4488  -25.4074   19.7221 C   0  0  0  0  0  0
  -30.1711  -15.2747   21.4616 N   0  0  0  0  0  0
  -31.4743  -21.3384   19.8679 N   0  3  1  0  0  0
  -28.7611  -19.8809   21.1681 F   0  0  0  0  0  0
  -31.4601  -12.3732   19.0942 H   0  0  0  0  0  0
  -30.3062  -11.2583   19.7639 H   0  0  0  0  0  0
  -29.7193  -11.8254   17.3900 H   0  0  0  0  0  0
  -29.6642  -13.5230   17.7909 H   0  0  0  0  0  0
  -27.8112  -11.3267   18.7831 H   0  0  0  0  0  0
  -27.3588  -12.6831   17.7860 H   0  0  0  0  0  0
  -27.7281  -14.2565   19.6131 H   0  0  0  0  0  0
  -28.6656  -11.8961   21.3105 H   0  0  0  0  0  0
  -28.4596  -13.5142   21.8911 H   0  0  0  0  0  0
  -25.2756   -9.5692   22.4723 H   0  0  0  0  0  0
  -24.0002   -7.4638   22.7458 H   0  0  0  0  0  0
  -21.0825   -8.8767   19.8959 H   0  0  0  0  0  0
  -22.3679  -10.9656   19.6131 H   0  0  0  0  0  0
  -21.2010   -7.6131   23.9704 H   0  0  0  0  0  0
  -21.1461   -6.0513   25.9074 H   0  0  0  0  0  0
  -22.0605   -2.7602   23.2860 H   0  0  0  0  0  0
  -22.4128  -11.9866   22.4752 H   0  0  0  0  0  0
  -21.1151  -13.1265   22.2605 H   0  0  0  0  0  0
  -24.6796  -15.8507   20.5219 H   0  0  0  0  0  0
  -26.3022  -15.6188   20.1118 H   0  0  0  0  0  0
  -26.7108  -32.5553   23.1171 H   0  0  0  0  0  0
  -25.0053  -33.9775   25.0490 H   0  0  0  0  0  0
  -22.6849  -31.3093   21.4131 H   0  0  0  0  0  0
  -23.3777  -35.9608   23.3242 H   0  0  0  0  0  0
  -24.3600  -36.8974   22.2067 H   0  0  0  0  0  0
  -23.7202  -37.6485   23.6681 H   0  0  0  0  0  0
  -26.0368  -31.6075   20.5913 H   0  0  0  0  0  0
  -26.8147  -30.8932   21.9763 H   0  0  0  0  0  0
  -28.0974  -29.1349   21.1381 H   0  0  0  0  0  0
  -26.0357  -25.9757   19.0244 H   0  0  0  0  0  0
  -23.9716  -27.2807   19.0631 H   0  0  0  0  0  0
  -23.7113  -30.5936   19.4030 H   0  0  0  0  0  0
  -22.7305  -29.2375   19.8757 H   0  0  0  0  0  0
  -25.1267  -36.1954   25.0840 H   0  0  0  0  0  0
  -20.9930  -28.3211   24.1466 H   0  0  0  0  0  0
  -20.5638  -26.2268   23.3615 H   0  0  0  0  0  0
  -21.6617  -26.7449   22.1237 H   0  0  0  0  0  0
  -19.6899  -25.6300   21.1242 H   0  0  0  0  0  0
  -19.6703  -27.3201   20.6746 H   0  0  0  0  0  0
  -17.4201  -26.6713   21.3971 H   0  0  0  0  0  0
  -18.0272  -26.0057   22.8983 H   0  0  0  0  0  0
  -19.7912  -30.7220   24.2329 H   0  0  0  0  0  0
  -17.5010  -31.6279   24.5146 H   0  0  0  0  0  0
  -15.5332  -30.2997   23.7654 H   0  0  0  0  0  0
  -15.8640  -28.0831   22.7066 H   0  0  0  0  0  0
  -24.5926  -30.7028   25.7863 H   0  0  0  0  0  0
  -24.8913  -32.2868   26.4923 H   0  0  0  0  0  0
  -25.8118  -30.8925   27.0261 H   0  0  0  0  0  0
  -26.2754  -29.6833   24.1160 H   0  0  0  0  0  0
  -27.4042  -29.7247   25.4514 H   0  0  0  0  0  0
  -27.8599  -30.4341   23.9184 H   0  0  0  0  0  0
  -27.2694  -33.3615   26.2040 H   0  0  0  0  0  0
  -28.3848  -32.6840   25.0264 H   0  0  0  0  0  0
  -28.0744  -31.8432   26.5371 H   0  0  0  0  0  0
  -28.2566  -38.0131   24.7571 H   0  0  0  0  0  0
  -28.1122  -36.2664   24.6142 H   0  0  0  0  0  0
  -27.2340  -37.1293   25.8860 H   0  0  0  0  0  0
  -20.9298  -29.8751   21.6975 H   0  0  0  0  0  0
  -26.0163  -38.2875   24.1475 H   0  0  0  0  0  0
  -33.1537  -18.7939   21.7215 H   0  0  0  0  0  0
  -32.6297  -16.3893   21.8089 H   0  0  0  0  0  0
  -28.4275  -17.2879   21.2953 H   0  0  0  0  0  0
  -32.6184  -19.6672   19.1643 H   0  0  0  0  0  0
  -33.5682  -21.1139   19.5141 H   0  0  0  0  0  0
  -32.5654  -21.0246   18.0648 H   0  0  0  0  0  0
  -32.3710  -21.1215   21.7830 H   0  0  0  0  0  0
  -30.6641  -21.4618   21.8350 H   0  0  0  0  0  0
  -29.4610  -23.0243   18.8098 H   0  0  0  0  0  0
  -29.3905  -22.9003   20.5467 H   0  0  0  0  0  0
  -30.5110  -25.3433   19.0936 H   0  0  0  0  0  0
  -30.2912  -25.1710   20.8180 H   0  0  0  0  0  0
  -32.0003  -23.2874   20.5108 H   0  0  0  0  0  0
  -31.8707  -23.1240   18.7844 H   0  0  0  0  0  0
  -27.7833  -24.8610   20.3931 H   0  0  0  0  0  0
  -28.1001  -25.2579   18.6990 H   0  0  0  0  0  0
  -29.2738  -14.9963   21.8301 H   0  0  0  0  0  0
  -30.6456  -20.9771   19.4220 H   0  0  0  0  0  0
  1 25  1  0  0  0
  1 30  2  0  0  0
  1 83  1  0  0  0
  2  3  1  0  0  0
  2 25  1  0  0  0
  2 86  1  0  0  0
  2 87  1  0  0  0
  3  4  1  0  0  0
  3 88  1  0  0  0
  3 89  1  0  0  0
  4  5  1  0  0  0
  4 90  1  0  0  0
  4 91  1  0  0  0
  5  6  1  0  0  0
  5 26  1  0  0  0
  5 92  1  0  0  0
  6 25  1  0  0  0
  6 93  1  0  0  0
  6 94  1  0  0  0
  7  8  2  0  0  0
  7 26  1  0  0  0
  7 29  1  0  0  0
  8  9  1  0  0  0
  8 22  1  0  0  0
  9 10  1  0  0  0
  9 27  2  0  0  0
 10 11  2  0  0  0
 10 15  1  0  0  0
 11 12  1  0  0  0
 11 95  1  0  0  0
 12 13  2  0  0  0
 12 96  1  0  0  0
 13 14  1  0  0  0
 13 31  1  0  0  0
 14 15  2  0  0  0
 14 97  1  0  0  0
 15 98  1  0  0  0
 16 17  2  0  0  0
 16 21  1  0  0  0
 16 31  1  0  0  0
 17 18  1  0  0  0
 17 99  1  0  0  0
 18 19  2  0  0  0
 18100  1  0  0  0
 19 20  1  0  0  0
 19 24  1  0  0  0
 20 21  2  0  0  0
 20101  1  0  0  0
 21 23  1  0  0  0
 22 28  1  0  0  0
 22 32  2  0  0  0
 26 27  1  0  0  0
 28102  1  0  0  0
 28103  1  0  0  0
 29104  1  0  0  0
 29105  1  0  0  0
 33 34  1  0  0  0
 33 66  1  0  0  0
 33 70  2  0  0  0
 34 36  1  0  0  0
 34 59  1  0  0  0
 34106  1  0  0  0
 35 44  2  0  0  0
 35 45  1  0  0  0
 35 68  1  0  0  0
 36 56  1  0  0  0
 36107  1  0  0  0
 37 39  1  0  0  0
 37 47  1  0  0  0
 37 66  1  0  0  0
 37108  1  0  0  0
 38 43  2  0  0  0
 38 46  1  0  0  0
 38 47  1  0  0  0
 39 64  1  0  0  0
 39 67  2  0  0  0
 40 52  1  0  0  0
 40 53  2  0  0  0
 40 58  1  0  0  0
 41109  1  0  0  0
 41110  1  0  0  0
 41111  1  0  0  0
 41 48  1  0  0  0
 42 43  1  0  0  0
 42 66  1  0  0  0
 42112  1  0  0  0
 42113  1  0  0  0
 43 44  1  0  0  0
 44114  1  0  0  0
 45 46  2  0  0  0
 45115  1  0  0  0
 46116  1  0  0  0
 47117  1  0  0  0
 47118  1  0  0  0
 48 56  1  0  0  0
 48 65  1  0  0  0
 48119  1  0  0  0
 49 50  1  0  0  0
 49 53  1  0  0  0
 49 64  1  0  0  0
 49120  1  0  0  0
 50 51  1  0  0  0
 50121  1  0  0  0
 50122  1  0  0  0
 51 52  1  0  0  0
 51123  1  0  0  0
 51124  1  0  0  0
 52125  1  0  0  0
 52126  1  0  0  0
 53 54  1  0  0  0
 54 55  2  0  0  0
 54127  1  0  0  0
 55 57  1  0  0  0
 55128  1  0  0  0
 56 69  2  0  0  0
 57 58  2  0  0  0
 57129  1  0  0  0
 58130  1  0  0  0
 59 60  1  0  0  0
 59 61  1  0  0  0
 59 62  1  0  0  0
 60131  1  0  0  0
 60132  1  0  0  0
 60133  1  0  0  0
 61134  1  0  0  0
 61135  1  0  0  0
 61136  1  0  0  0
 62137  1  0  0  0
 62138  1  0  0  0
 62139  1  0  0  0
 63 65  1  0  0  0
 63140  1  0  0  0
 63141  1  0  0  0
 63142  1  0  0  0
 64143  1  0  0  0
 65144  1  0  0  0
 68 82  1  0  0  0
 71 72  2  0  0  0
 71 74  1  0  0  0
 71145  1  0  0  0
 72 75  1  0  0  0
 72146  1  0  0  0
 73 75  2  0  0  0
 73 76  1  0  0  0
 73147  1  0  0  0
 74 76  2  0  0  0
 74 78  1  0  0  0
 75 83  1  0  0  0
 76 85  1  0  0  0
 77148  1  0  0  0
 77149  1  0  0  0
 77150  1  0  0  0
 77 84  1  0  0  0
 78 84  1  0  0  0
 78151  1  0  0  0
 78152  1  0  0  0
 79 80  1  0  0  0
 79 81  1  0  0  0
 79153  1  0  0  0
 79154  1  0  0  0
 80 82  1  0  0  0
 80155  1  0  0  0
 80156  1  0  0  0
 81 84  1  0  0  0
 81157  1  0  0  0
 81158  1  0  0  0
 82159  1  0  0  0
 82160  1  0  0  0
 83161  1  0  0  0
 84162  1  0  0  0
M  CHG  1  84   1
M  ISO  4   1 100  68 101  82 101  83 100
M  END
> <chiral flag>
0

> <version>
0

> <s_m_source_file>
/data/baiqing/PycharmProjects/Reinvent-master-3.2/result/LINK_invent/BTK/process_docking_weight1_custom_product_contain_oxygen_bond_distance_aromatic_linkinvent_7_9_3/rearranged_h_0020.sdf

> <i_m_source_file_index>
69

> <r_mmod_Potential_Energy-OPLS-2005>
-201.806335449219

> <r_mmod_Stretch_Energy-OPLS-2005>
32.7205772399902

> <r_mmod_Bend_Energy-OPLS-2005>
90.1906814575195

> <r_mmod_Torsional_Energy-OPLS-2005>
211.121475219727

> <r_mmod_Improper_Torsional_Energy-OPLS-2005>
2.98164439201355

> <r_mmod_Van_der_Waal_Energy-OPLS-2005>
160.140701293945

> <r_mmod_Electrostatic_Energy-OPLS-2005>
-272.016815185547

> <r_mmod_Solvation_Energy-OPLS-2005>
-434.898956298828

> <b_mmod_Minimization_Converged-OPLS-2005>
0

> <r_mmod_RMS_Derivative-OPLS-2005>
1.85238325595856

$$$$
70
                    3D
 Structure written by MMmdl.
161170  0  0  1  0            999 V2000
  -30.7367  -14.4686   20.6075 C   0  0  0  0  0  0
  -30.4200  -12.3247   19.4135 C   0  0  0  0  0  0
  -29.4888  -12.5120   18.2001 C   0  0  0  0  0  0
  -28.0133  -12.3543   18.6161 C   0  0  0  0  0  0
  -27.6550  -13.1993   19.8660 C   0  0  2  0  0  0
  -28.7018  -13.0045   20.9874 C   0  0  0  0  0  0
  -25.2580  -13.8137   20.5674 C   0  0  0  0  0  0
  -24.1830  -13.0429   20.9196 C   0  0  0  0  0  0
  -24.6380  -11.6890   20.8750 C   0  0  0  0  0  0
  -23.9048  -10.4279   21.0412 C   0  0  0  0  0  0
  -24.3606   -9.4200   21.9187 C   0  0  0  0  0  0
  -23.6289   -8.2236   22.0753 C   0  0  0  0  0  0
  -22.4275   -8.0271   21.3541 C   0  0  0  0  0  0
  -21.9905   -9.0243   20.4642 C   0  0  0  0  0  0
  -22.7229  -10.2123   20.3053 C   0  0  0  0  0  0
  -21.6845   -6.0734   22.5284 C   0  0  0  0  0  0
  -21.4001   -6.5641   23.8220 C   0  0  0  0  0  0
  -21.3650   -5.6786   24.9181 C   0  0  0  0  0  0
  -21.6041   -4.3051   24.7227 C   0  0  0  0  0  0
  -21.8820   -3.8144   23.4350 C   0  0  0  0  0  0
  -21.9192   -4.6959   22.3408 C   0  0  0  0  0  0
  -22.7856  -13.5242   21.1860 C   0  0  0  0  0  0
  -22.1665   -4.2149   21.0985 F   0  0  0  0  0  0
  -21.5630   -3.4523   25.7733 F   0  0  0  0  0  0
  -30.0314  -13.3124   20.4342 N   0  0  0  0  0  0
  -26.2990  -12.9276   20.3337 N   0  0  0  0  0  0
  -25.9297  -11.6453   20.5759 N   0  0  0  0  0  0
  -22.0476  -12.8233   22.0398 N   0  0  0  0  0  0
  -25.4323  -15.1852   20.4033 N   0  0  0  0  0  0
  -31.8512  -14.6430   20.1029 O   0  0  0  0  0  0
  -21.6635   -6.8875   21.4242 O   0  0  0  0  0  0
  -22.3551  -14.5555   20.6712 O   0  0  0  0  0  0
  -24.6138  -31.8685   23.2112 C   0  0  0  0  0  0
  -25.9034  -32.4824   23.8402 C   0  0  1  0  0  0
  -27.2242  -27.4332   20.0979 C   0  0  0  0  0  0
  -25.5920  -33.8625   24.2332 N   0  0  0  0  0  0
  -23.4004  -30.4940   21.5520 C   0  0  2  0  0  0
  -24.8455  -28.9673   20.1103 C   0  0  0  0  0  0
  -22.7412  -29.4653   22.4989 C   0  0  0  0  0  0
  -18.0266  -28.1369   22.8496 C   0  0  0  0  0  0
  -24.1479  -36.7293   23.2640 C   0  0  0  0  0  0
  -25.9305  -30.8353   21.3635 C   0  0  0  0  0  0
  -26.0077  -29.4727   20.7067 C   0  0  0  0  0  0
  -27.2020  -28.7154   20.6939 C   0  0  0  0  0  0
  -26.0440  -26.9516   19.4828 C   0  0  0  0  0  0
  -24.8597  -27.7075   19.4918 C   0  0  0  0  0  0
  -23.6066  -29.8303   20.1649 C   0  0  0  0  0  0
  -25.4099  -36.3107   24.0351 C   0  0  1  0  0  0
  -20.5855  -28.3650   23.1320 C   0  0  2  0  0  0
  -20.6756  -26.9391   22.5414 C   0  0  0  0  0  0
  -19.5739  -26.6371   21.5209 C   0  0  0  0  0  0
  -18.1912  -26.7926   22.1609 C   0  0  0  0  0  0
  -19.1518  -28.8827   23.2903 C   0  0  0  0  0  0
  -18.9451  -30.1443   23.8898 C   0  0  0  0  0  0
  -17.6454  -30.6583   24.0560 C   0  0  0  0  0  0
  -25.9037  -34.9479   23.5127 C   0  0  0  0  0  0
  -16.5342  -29.9083   23.6342 C   0  0  0  0  0  0
  -16.7256  -28.6501   23.0358 C   0  0  0  0  0  0
  -26.4478  -31.6604   25.0724 C   0  0  0  0  0  0
  -25.3768  -31.3700   26.1491 C   0  0  0  0  0  0
  -27.0316  -30.3055   24.6080 C   0  0  0  0  0  0
  -27.6047  -32.4337   25.7490 C   0  0  0  0  0  0
  -27.5577  -37.1790   24.8462 C   0  0  0  0  0  0
  -21.4136  -29.3022   22.3738 N   0  0  0  0  0  0
  -26.4270  -37.3805   23.9441 N   0  0  0  0  0  0
  -24.6667  -31.0800   22.1006 N   0  0  0  0  0  0
  -23.4200  -28.8182   23.3010 O   0  0  0  0  0  0
  -28.3751  -26.6679   20.1414 O   0  0  0  0  0  0
  -26.5578  -34.8937   22.4675 O   0  0  0  0  0  0
  -23.5337  -32.1424   23.7525 O   0  0  0  0  0  0
  -30.3331  -18.3927   20.1153 C   0  0  0  0  0  0
  -28.4511  -18.6416   21.6188 C   0  0  0  0  0  0
  -30.4622  -19.7973   20.0506 C   0  0  0  0  0  0
  -28.5788  -20.0460   21.5529 C   0  0  0  0  0  0
  -29.3182  -17.7996   20.8931 C   0  0  0  0  0  0
  -29.5835  -20.6604   20.7570 C   0  0  0  0  0  0
  -29.0846  -23.0784   21.3021 C   0  0  0  0  0  0
  -30.3857  -24.2036   19.6234 C   0  0  0  0  0  0
  -30.6013  -22.6837   19.6059 C   0  0  0  0  0  0
  -29.4157  -24.4803   20.7725 C   0  0  1  0  0  0
  -30.9992  -16.0114   22.4691 C   0  0  0  0  0  0
  -29.0964  -16.2812   20.8885 C   0  0  0  0  0  0
  -28.1512  -25.2595   20.3430 C   0  0  0  0  0  0
  -29.7134  -22.0985   20.6112 N   0  0  0  0  0  0
  -30.1864  -15.4209   21.4014 N   0  0  0  0  0  0
  -28.3437  -22.9353   22.2791 O   0  0  0  0  0  0
  -31.4628  -12.4233   19.1066 H   0  0  0  0  0  0
  -30.3287  -11.3145   19.8162 H   0  0  0  0  0  0
  -29.7372  -11.7928   17.4180 H   0  0  0  0  0  0
  -29.6430  -13.5009   17.7650 H   0  0  0  0  0  0
  -27.8345  -11.2973   18.8184 H   0  0  0  0  0  0
  -27.3589  -12.6177   17.7842 H   0  0  0  0  0  0
  -27.6785  -14.2360   19.5415 H   0  0  0  0  0  0
  -28.6873  -11.9742   21.3443 H   0  0  0  0  0  0
  -28.4546  -13.6125   21.8573 H   0  0  0  0  0  0
  -25.2752   -9.5668   22.4764 H   0  0  0  0  0  0
  -23.9990   -7.4618   22.7462 H   0  0  0  0  0  0
  -21.0843   -8.8752   19.8949 H   0  0  0  0  0  0
  -22.3695  -10.9656   19.6153 H   0  0  0  0  0  0
  -21.1982   -7.6149   23.9721 H   0  0  0  0  0  0
  -21.1473   -6.0519   25.9085 H   0  0  0  0  0  0
  -22.0609   -2.7605   23.2835 H   0  0  0  0  0  0
  -22.4059  -11.9870   22.4770 H   0  0  0  0  0  0
  -21.1093  -13.1267   22.2602 H   0  0  0  0  0  0
  -24.6657  -15.8405   20.5066 H   0  0  0  0  0  0
  -26.2776  -15.6177   20.0542 H   0  0  0  0  0  0
  -26.7102  -32.5533   23.1168 H   0  0  0  0  0  0
  -25.0166  -33.9794   25.0541 H   0  0  0  0  0  0
  -22.6874  -31.3097   21.4155 H   0  0  0  0  0  0
  -23.3773  -35.9590   23.3271 H   0  0  0  0  0  0
  -24.3586  -36.8925   22.2057 H   0  0  0  0  0  0
  -23.7185  -37.6473   23.6668 H   0  0  0  0  0  0
  -26.0438  -31.6016   20.5963 H   0  0  0  0  0  0
  -26.8184  -30.8842   21.9829 H   0  0  0  0  0  0
  -28.0965  -29.0987   21.1658 H   0  0  0  0  0  0
  -26.0131  -25.9917   18.9890 H   0  0  0  0  0  0
  -23.9702  -27.3160   19.0186 H   0  0  0  0  0  0
  -23.7066  -30.6044   19.4031 H   0  0  0  0  0  0
  -22.7322  -29.2440   19.8751 H   0  0  0  0  0  0
  -25.1272  -36.1958   25.0845 H   0  0  0  0  0  0
  -20.9943  -28.3195   24.1446 H   0  0  0  0  0  0
  -20.5638  -26.2264   23.3598 H   0  0  0  0  0  0
  -21.6625  -26.7429   22.1204 H   0  0  0  0  0  0
  -19.6895  -25.6283   21.1227 H   0  0  0  0  0  0
  -19.6693  -27.3187   20.6750 H   0  0  0  0  0  0
  -17.4199  -26.6709   21.3989 H   0  0  0  0  0  0
  -18.0287  -26.0042   22.8973 H   0  0  0  0  0  0
  -19.7929  -30.7260   24.2244 H   0  0  0  0  0  0
  -17.5018  -31.6269   24.5149 H   0  0  0  0  0  0
  -15.5345  -30.2988   23.7676 H   0  0  0  0  0  0
  -15.8650  -28.0831   22.7066 H   0  0  0  0  0  0
  -24.5963  -30.7007   25.7851 H   0  0  0  0  0  0
  -24.8940  -32.2849   26.4935 H   0  0  0  0  0  0
  -25.8150  -30.8902   27.0251 H   0  0  0  0  0  0
  -26.2852  -29.6796   24.1175 H   0  0  0  0  0  0
  -27.4149  -29.7300   25.4513 H   0  0  0  0  0  0
  -27.8658  -30.4382   23.9187 H   0  0  0  0  0  0
  -27.2667  -33.3647   26.2052 H   0  0  0  0  0  0
  -28.3879  -32.6876   25.0335 H   0  0  0  0  0  0
  -28.0699  -31.8477   26.5425 H   0  0  0  0  0  0
  -28.2565  -38.0119   24.7579 H   0  0  0  0  0  0
  -28.1103  -36.2660   24.6197 H   0  0  0  0  0  0
  -27.2329  -37.1312   25.8869 H   0  0  0  0  0  0
  -20.9283  -29.8785   21.7003 H   0  0  0  0  0  0
  -26.0152  -38.2870   24.1492 H   0  0  0  0  0  0
  -31.0059  -17.7711   19.5409 H   0  0  0  0  0  0
  -27.6573  -18.2129   22.2151 H   0  0  0  0  0  0
  -31.2472  -20.1934   19.4223 H   0  0  0  0  0  0
  -27.8590  -20.6255   22.1100 H   0  0  0  0  0  0
  -29.9815  -24.5422   18.6682 H   0  0  0  0  0  0
  -31.3275  -24.7334   19.7724 H   0  0  0  0  0  0
  -31.6402  -22.4474   19.8418 H   0  0  0  0  0  0
  -30.3775  -22.2786   18.6177 H   0  0  0  0  0  0
  -29.9226  -25.0151   21.5767 H   0  0  0  0  0  0
  -30.3728  -16.5345   23.1924 H   0  0  0  0  0  0
  -31.7207  -16.7224   22.0642 H   0  0  0  0  0  0
  -31.5544  -15.2446   23.0122 H   0  0  0  0  0  0
  -28.8830  -16.0323   19.8485 H   0  0  0  0  0  0
  -28.1885  -16.0430   21.4439 H   0  0  0  0  0  0
  -27.3838  -25.1365   21.1107 H   0  0  0  0  0  0
  -27.7592  -24.8065   19.4312 H   0  0  0  0  0  0
  1 25  1  0  0  0
  1 30  2  0  0  0
  1 85  1  0  0  0
  2  3  1  0  0  0
  2 25  1  0  0  0
  2 87  1  0  0  0
  2 88  1  0  0  0
  3  4  1  0  0  0
  3 89  1  0  0  0
  3 90  1  0  0  0
  4  5  1  0  0  0
  4 91  1  0  0  0
  4 92  1  0  0  0
  5  6  1  0  0  0
  5 26  1  0  0  0
  5 93  1  0  0  0
  6 25  1  0  0  0
  6 94  1  0  0  0
  6 95  1  0  0  0
  7  8  2  0  0  0
  7 26  1  0  0  0
  7 29  1  0  0  0
  8  9  1  0  0  0
  8 22  1  0  0  0
  9 10  1  0  0  0
  9 27  2  0  0  0
 10 11  2  0  0  0
 10 15  1  0  0  0
 11 12  1  0  0  0
 11 96  1  0  0  0
 12 13  2  0  0  0
 12 97  1  0  0  0
 13 14  1  0  0  0
 13 31  1  0  0  0
 14 15  2  0  0  0
 14 98  1  0  0  0
 15 99  1  0  0  0
 16 17  2  0  0  0
 16 21  1  0  0  0
 16 31  1  0  0  0
 17 18  1  0  0  0
 17100  1  0  0  0
 18 19  2  0  0  0
 18101  1  0  0  0
 19 20  1  0  0  0
 19 24  1  0  0  0
 20 21  2  0  0  0
 20102  1  0  0  0
 21 23  1  0  0  0
 22 28  1  0  0  0
 22 32  2  0  0  0
 26 27  1  0  0  0
 28103  1  0  0  0
 28104  1  0  0  0
 29105  1  0  0  0
 29106  1  0  0  0
 33 34  1  0  0  0
 33 66  1  0  0  0
 33 70  2  0  0  0
 34 36  1  0  0  0
 34 59  1  0  0  0
 34107  1  0  0  0
 35 44  2  0  0  0
 35 45  1  0  0  0
 35 68  1  0  0  0
 36 56  1  0  0  0
 36108  1  0  0  0
 37 39  1  0  0  0
 37 47  1  0  0  0
 37 66  1  0  0  0
 37109  1  0  0  0
 38 43  2  0  0  0
 38 46  1  0  0  0
 38 47  1  0  0  0
 39 64  1  0  0  0
 39 67  2  0  0  0
 40 52  1  0  0  0
 40 53  2  0  0  0
 40 58  1  0  0  0
 41110  1  0  0  0
 41111  1  0  0  0
 41112  1  0  0  0
 41 48  1  0  0  0
 42 43  1  0  0  0
 42 66  1  0  0  0
 42113  1  0  0  0
 42114  1  0  0  0
 43 44  1  0  0  0
 44115  1  0  0  0
 45 46  2  0  0  0
 45116  1  0  0  0
 46117  1  0  0  0
 47118  1  0  0  0
 47119  1  0  0  0
 48 56  1  0  0  0
 48 65  1  0  0  0
 48120  1  0  0  0
 49 50  1  0  0  0
 49 53  1  0  0  0
 49 64  1  0  0  0
 49121  1  0  0  0
 50 51  1  0  0  0
 50122  1  0  0  0
 50123  1  0  0  0
 51 52  1  0  0  0
 51124  1  0  0  0
 51125  1  0  0  0
 52126  1  0  0  0
 52127  1  0  0  0
 53 54  1  0  0  0
 54 55  2  0  0  0
 54128  1  0  0  0
 55 57  1  0  0  0
 55129  1  0  0  0
 56 69  2  0  0  0
 57 58  2  0  0  0
 57130  1  0  0  0
 58131  1  0  0  0
 59 60  1  0  0  0
 59 61  1  0  0  0
 59 62  1  0  0  0
 60132  1  0  0  0
 60133  1  0  0  0
 60134  1  0  0  0
 61135  1  0  0  0
 61136  1  0  0  0
 61137  1  0  0  0
 62138  1  0  0  0
 62139  1  0  0  0
 62140  1  0  0  0
 63 65  1  0  0  0
 63141  1  0  0  0
 63142  1  0  0  0
 63143  1  0  0  0
 64144  1  0  0  0
 65145  1  0  0  0
 68 83  1  0  0  0
 71 73  2  0  0  0
 71 75  1  0  0  0
 71146  1  0  0  0
 72 74  1  0  0  0
 72 75  2  0  0  0
 72147  1  0  0  0
 73 76  1  0  0  0
 73148  1  0  0  0
 74 76  2  0  0  0
 74149  1  0  0  0
 75 82  1  0  0  0
 76 84  1  0  0  0
 77 80  1  0  0  0
 77 84  1  0  0  0
 77 86  2  0  0  0
 78 79  1  0  0  0
 78 80  1  0  0  0
 78150  1  0  0  0
 78151  1  0  0  0
 79 84  1  0  0  0
 79152  1  0  0  0
 79153  1  0  0  0
 80 83  1  0  0  0
 80154  1  0  0  0
 81 85  1  0  0  0
 81155  1  0  0  0
 81156  1  0  0  0
 81157  1  0  0  0
 82 85  1  0  0  0
 82158  1  0  0  0
 82159  1  0  0  0
 83160  1  0  0  0
 83161  1  0  0  0
M  ISO  4   1 100  68 101  83 101  85 100
M  END
> <chiral flag>
0

> <version>
0

> <s_m_source_file>
/data/baiqing/PycharmProjects/Reinvent-master-3.2/result/LINK_invent/BTK/process_docking_weight1_custom_product_contain_oxygen_bond_distance_aromatic_linkinvent_7_9_3/rearranged_h_0020.sdf

> <i_m_source_file_index>
70

> <r_mmod_Potential_Energy-OPLS-2005>
171.571197509766

> <r_mmod_Stretch_Energy-OPLS-2005>
42.6736717224121

> <r_mmod_Bend_Energy-OPLS-2005>
118.113990783691

> <r_mmod_Torsional_Energy-OPLS-2005>
328.2548828125

> <r_mmod_Improper_Torsional_Energy-OPLS-2005>
3.92671465873718

> <r_mmod_Van_der_Waal_Energy-OPLS-2005>
161.639114379883

> <r_mmod_Electrostatic_Energy-OPLS-2005>
-290.272155761719

> <r_mmod_Solvation_Energy-OPLS-2005>
-207.043380737305

> <b_mmod_Minimization_Converged-OPLS-2005>
0

> <r_mmod_RMS_Derivative-OPLS-2005>
1.76182687282562

$$$$
71
                    3D
 Structure written by MMmdl.
162170  0  0  1  0            999 V2000
  -30.7442  -14.3526   20.6796 C   0  0  0  0  0  0
  -30.4284  -12.2796   19.3837 C   0  0  0  0  0  0
  -29.4861  -12.5314   18.1897 C   0  0  0  0  0  0
  -28.0084  -12.3928   18.6036 C   0  0  0  0  0  0
  -27.6745  -13.1974   19.8867 C   0  0  2  0  0  0
  -28.7118  -12.8963   20.9907 C   0  0  0  0  0  0
  -25.2645  -13.8161   20.5657 C   0  0  0  0  0  0
  -24.1869  -13.0450   20.9146 C   0  0  0  0  0  0
  -24.6400  -11.6913   20.8712 C   0  0  0  0  0  0
  -23.9054  -10.4296   21.0402 C   0  0  0  0  0  0
  -24.3611   -9.4209   21.9177 C   0  0  0  0  0  0
  -23.6293   -8.2241   22.0747 C   0  0  0  0  0  0
  -22.4276   -8.0282   21.3542 C   0  0  0  0  0  0
  -21.9910   -9.0255   20.4649 C   0  0  0  0  0  0
  -22.7228  -10.2135   20.3050 C   0  0  0  0  0  0
  -21.6843   -6.0744   22.5277 C   0  0  0  0  0  0
  -21.4009   -6.5642   23.8216 C   0  0  0  0  0  0
  -21.3652   -5.6788   24.9176 C   0  0  0  0  0  0
  -21.6036   -4.3053   24.7213 C   0  0  0  0  0  0
  -21.8821   -3.8153   23.4333 C   0  0  0  0  0  0
  -21.9198   -4.6976   22.3395 C   0  0  0  0  0  0
  -22.7880  -13.5253   21.1814 C   0  0  0  0  0  0
  -22.1669   -4.2167   21.0972 F   0  0  0  0  0  0
  -21.5623   -3.4531   25.7723 F   0  0  0  0  0  0
  -30.0620  -13.1977   20.4696 N   0  0  0  0  0  0
  -26.3099  -12.9312   20.3415 N   0  0  0  0  0  0
  -25.9331  -11.6477   20.5755 N   0  0  0  0  0  0
  -22.0512  -12.8266   22.0374 N   0  0  0  0  0  0
  -25.4377  -15.1878   20.4061 N   0  0  0  0  0  0
  -31.7518  -14.6848   20.0458 O   0  0  0  0  0  0
  -21.6632   -6.8890   21.4240 O   0  0  0  0  0  0
  -22.3564  -14.5555   20.6656 O   0  0  0  0  0  0
  -24.6112  -31.8705   23.2126 C   0  0  0  0  0  0
  -25.9032  -32.4832   23.8400 C   0  0  1  0  0  0
  -27.2418  -27.4801   20.0841 C   0  0  0  0  0  0
  -25.5906  -33.8629   24.2333 N   0  0  0  0  0  0
  -23.3957  -30.4952   21.5519 C   0  0  2  0  0  0
  -24.8424  -28.9607   20.1188 C   0  0  0  0  0  0
  -22.7379  -29.4689   22.5008 C   0  0  0  0  0  0
  -18.0280  -28.1374   22.8470 C   0  0  0  0  0  0
  -24.1484  -36.7315   23.2633 C   0  0  0  0  0  0
  -25.9200  -30.8482   21.3596 C   0  0  0  0  0  0
  -25.9986  -29.4845   20.7108 C   0  0  0  0  0  0
  -27.2013  -28.7491   20.6950 C   0  0  0  0  0  0
  -26.0727  -26.9581   19.4902 C   0  0  0  0  0  0
  -24.8714  -27.6918   19.5107 C   0  0  0  0  0  0
  -23.6026  -29.8235   20.1667 C   0  0  0  0  0  0
  -25.4103  -36.3111   24.0341 C   0  0  1  0  0  0
  -20.5864  -28.3650   23.1311 C   0  0  2  0  0  0
  -20.6780  -26.9398   22.5397 C   0  0  0  0  0  0
  -19.5750  -26.6341   21.5214 C   0  0  0  0  0  0
  -18.1919  -26.7924   22.1588 C   0  0  0  0  0  0
  -19.1531  -28.8818   23.2901 C   0  0  0  0  0  0
  -18.9458  -30.1415   23.8944 C   0  0  0  0  0  0
  -17.6462  -30.6555   24.0612 C   0  0  0  0  0  0
  -25.9033  -34.9480   23.5128 C   0  0  0  0  0  0
  -16.5357  -29.9076   23.6327 C   0  0  0  0  0  0
  -16.7281  -28.6499   23.0330 C   0  0  0  0  0  0
  -26.4486  -31.6590   25.0702 C   0  0  0  0  0  0
  -25.3783  -31.3687   26.1469 C   0  0  0  0  0  0
  -27.0287  -30.3027   24.6036 C   0  0  0  0  0  0
  -27.6055  -32.4307   25.7472 C   0  0  0  0  0  0
  -27.5579  -37.1804   24.8466 C   0  0  0  0  0  0
  -21.4112  -29.3047   22.3739 N   0  0  0  0  0  0
  -26.4283  -37.3801   23.9418 N   0  0  0  0  0  0
  -24.6600  -31.0851   22.1003 N   0  0  0  0  0  0
  -23.4168  -28.8226   23.3029 O   0  0  0  0  0  0
  -28.4210  -26.7787   20.0523 O   0  0  0  0  0  0
  -26.5585  -34.8931   22.4681 O   0  0  0  0  0  0
  -23.5318  -32.1438   23.7550 O   0  0  0  0  0  0
  -28.9155  -18.2611   20.1349 C   0  0  0  0  0  0
  -27.5582  -17.6210   22.0575 C   0  0  0  0  0  0
  -29.7771  -17.1751   20.3804 C   0  0  0  0  0  0
  -28.4151  -16.5338   22.3009 C   0  0  0  0  0  0
  -27.7897  -18.4739   20.9594 C   0  0  0  0  0  0
  -29.5102  -16.2857   21.4471 C   0  0  0  0  0  0
  -26.2010  -21.0895   22.5150 C   0  0  0  0  0  0
  -26.8236  -19.6036   20.6597 C   0  0  0  0  0  0
  -27.9554  -23.2353   21.2935 C   0  0  0  0  0  0
  -28.2826  -24.3672   20.3092 C   0  0  0  0  0  0
  -27.4729  -21.9707   20.5560 C   0  0  0  0  0  0
  -28.4958  -25.7203   21.0012 C   0  0  0  0  0  0
  -30.2582  -15.1060   21.6734 N   0  0  0  0  0  0
  -27.1839  -20.8112   21.4395 N   0  3  1  0  0  0
  -31.4669  -12.4004   19.0724 H   0  0  0  0  0  0
  -30.3422  -11.2487   19.7293 H   0  0  0  0  0  0
  -29.7131  -11.8364   17.3801 H   0  0  0  0  0  0
  -29.6599  -13.5321   17.7913 H   0  0  0  0  0  0
  -27.8044  -11.3339   18.7617 H   0  0  0  0  0  0
  -27.3572  -12.7069   17.7872 H   0  0  0  0  0  0
  -27.7446  -14.2566   19.6394 H   0  0  0  0  0  0
  -28.6667  -11.8414   21.2668 H   0  0  0  0  0  0
  -28.4593  -13.4337   21.9039 H   0  0  0  0  0  0
  -25.2754   -9.5687   22.4754 H   0  0  0  0  0  0
  -23.9995   -7.4636   22.7468 H   0  0  0  0  0  0
  -21.0834   -8.8773   19.8968 H   0  0  0  0  0  0
  -22.3680  -10.9673   19.6162 H   0  0  0  0  0  0
  -21.1991   -7.6153   23.9727 H   0  0  0  0  0  0
  -21.1473   -6.0516   25.9081 H   0  0  0  0  0  0
  -22.0612   -2.7618   23.2821 H   0  0  0  0  0  0
  -22.4113  -11.9934   22.4784 H   0  0  0  0  0  0
  -21.1129  -13.1310   22.2567 H   0  0  0  0  0  0
  -24.6770  -15.8465   20.5298 H   0  0  0  0  0  0
  -26.3091  -15.6322   20.1438 H   0  0  0  0  0  0
  -26.7109  -32.5571   23.1174 H   0  0  0  0  0  0
  -25.0101  -33.9792   25.0507 H   0  0  0  0  0  0
  -22.6825  -31.3107   21.4135 H   0  0  0  0  0  0
  -23.3746  -35.9647   23.3308 H   0  0  0  0  0  0
  -24.3575  -36.8905   22.2042 H   0  0  0  0  0  0
  -23.7240  -37.6530   23.6633 H   0  0  0  0  0  0
  -26.0244  -31.6135   20.5898 H   0  0  0  0  0  0
  -26.8108  -30.9031   21.9728 H   0  0  0  0  0  0
  -28.0968  -29.1532   21.1457 H   0  0  0  0  0  0
  -26.0837  -25.9989   18.9955 H   0  0  0  0  0  0
  -23.9839  -27.2832   19.0474 H   0  0  0  0  0  0
  -23.7089  -30.5965   19.4036 H   0  0  0  0  0  0
  -22.7270  -29.2391   19.8770 H   0  0  0  0  0  0
  -25.1281  -36.1969   25.0836 H   0  0  0  0  0  0
  -20.9967  -28.3212   24.1433 H   0  0  0  0  0  0
  -20.5715  -26.2270   23.3581 H   0  0  0  0  0  0
  -21.6645  -26.7434   22.1176 H   0  0  0  0  0  0
  -19.6697  -27.3104   20.6700 H   0  0  0  0  0  0
  -19.6908  -25.6221   21.1309 H   0  0  0  0  0  0
  -17.4224  -26.6693   21.3946 H   0  0  0  0  0  0
  -18.0269  -26.0042   22.8955 H   0  0  0  0  0  0
  -19.7952  -30.7199   24.2338 H   0  0  0  0  0  0
  -17.5027  -31.6217   24.5258 H   0  0  0  0  0  0
  -15.5358  -30.2974   23.7634 H   0  0  0  0  0  0
  -15.8687  -28.0829   22.7016 H   0  0  0  0  0  0
  -24.5969  -30.6997   25.7845 H   0  0  0  0  0  0
  -24.8964  -32.2839   26.4918 H   0  0  0  0  0  0
  -25.8175  -30.8889   27.0219 H   0  0  0  0  0  0
  -26.2784  -29.6801   24.1133 H   0  0  0  0  0  0
  -27.4113  -29.7245   25.4458 H   0  0  0  0  0  0
  -27.8613  -30.4347   23.9117 H   0  0  0  0  0  0
  -27.2655  -33.3585   26.2084 H   0  0  0  0  0  0
  -28.3855  -32.6887   25.0301 H   0  0  0  0  0  0
  -28.0735  -31.8409   26.5363 H   0  0  0  0  0  0
  -28.2605  -38.0094   24.7519 H   0  0  0  0  0  0
  -28.1059  -36.2625   24.6280 H   0  0  0  0  0  0
  -27.2295  -37.1456   25.8867 H   0  0  0  0  0  0
  -20.9252  -29.8802   21.7001 H   0  0  0  0  0  0
  -26.0172  -38.2872   24.1438 H   0  0  0  0  0  0
  -29.1178  -18.9145   19.2966 H   0  0  0  0  0  0
  -26.7068  -17.7779   22.7049 H   0  0  0  0  0  0
  -30.6210  -17.0227   19.7216 H   0  0  0  0  0  0
  -28.1989  -15.8715   23.1274 H   0  0  0  0  0  0
  -25.9696  -20.1858   23.0786 H   0  0  0  0  0  0
  -25.2689  -21.4771   22.1037 H   0  0  0  0  0  0
  -26.5833  -21.8128   23.2338 H   0  0  0  0  0  0
  -25.8057  -19.2736   20.8727 H   0  0  0  0  0  0
  -26.8350  -19.8004   19.5866 H   0  0  0  0  0  0
  -27.1748  -23.5839   21.9691 H   0  0  0  0  0  0
  -28.8281  -23.0150   21.9089 H   0  0  0  0  0  0
  -27.4656  -24.4463   19.5952 H   0  0  0  0  0  0
  -29.1671  -24.1145   19.7222 H   0  0  0  0  0  0
  -28.2425  -21.6720   19.8407 H   0  0  0  0  0  0
  -26.5811  -22.2069   19.9722 H   0  0  0  0  0  0
  -29.4806  -25.7421   21.4688 H   0  0  0  0  0  0
  -27.7729  -25.8633   21.8083 H   0  0  0  0  0  0
  -29.8575  -14.5344   22.4018 H   0  0  0  0  0  0
  -28.0499  -20.5691   21.8969 H   0  0  0  0  0  0
  1 25  1  0  0  0
  1 30  2  0  0  0
  1 83  1  0  0  0
  2  3  1  0  0  0
  2 25  1  0  0  0
  2 85  1  0  0  0
  2 86  1  0  0  0
  3  4  1  0  0  0
  3 87  1  0  0  0
  3 88  1  0  0  0
  4  5  1  0  0  0
  4 89  1  0  0  0
  4 90  1  0  0  0
  5  6  1  0  0  0
  5 26  1  0  0  0
  5 91  1  0  0  0
  6 25  1  0  0  0
  6 92  1  0  0  0
  6 93  1  0  0  0
  7  8  2  0  0  0
  7 26  1  0  0  0
  7 29  1  0  0  0
  8  9  1  0  0  0
  8 22  1  0  0  0
  9 10  1  0  0  0
  9 27  2  0  0  0
 10 11  2  0  0  0
 10 15  1  0  0  0
 11 12  1  0  0  0
 11 94  1  0  0  0
 12 13  2  0  0  0
 12 95  1  0  0  0
 13 14  1  0  0  0
 13 31  1  0  0  0
 14 15  2  0  0  0
 14 96  1  0  0  0
 15 97  1  0  0  0
 16 17  2  0  0  0
 16 21  1  0  0  0
 16 31  1  0  0  0
 17 18  1  0  0  0
 17 98  1  0  0  0
 18 19  2  0  0  0
 18 99  1  0  0  0
 19 20  1  0  0  0
 19 24  1  0  0  0
 20 21  2  0  0  0
 20100  1  0  0  0
 21 23  1  0  0  0
 22 28  1  0  0  0
 22 32  2  0  0  0
 26 27  1  0  0  0
 28101  1  0  0  0
 28102  1  0  0  0
 29103  1  0  0  0
 29104  1  0  0  0
 33 34  1  0  0  0
 33 66  1  0  0  0
 33 70  2  0  0  0
 34 36  1  0  0  0
 34 59  1  0  0  0
 34105  1  0  0  0
 35 44  2  0  0  0
 35 45  1  0  0  0
 35 68  1  0  0  0
 36 56  1  0  0  0
 36106  1  0  0  0
 37 39  1  0  0  0
 37 47  1  0  0  0
 37 66  1  0  0  0
 37107  1  0  0  0
 38 43  2  0  0  0
 38 46  1  0  0  0
 38 47  1  0  0  0
 39 64  1  0  0  0
 39 67  2  0  0  0
 40 52  1  0  0  0
 40 53  2  0  0  0
 40 58  1  0  0  0
 41108  1  0  0  0
 41109  1  0  0  0
 41110  1  0  0  0
 41 48  1  0  0  0
 42 43  1  0  0  0
 42 66  1  0  0  0
 42111  1  0  0  0
 42112  1  0  0  0
 43 44  1  0  0  0
 44113  1  0  0  0
 45 46  2  0  0  0
 45114  1  0  0  0
 46115  1  0  0  0
 47116  1  0  0  0
 47117  1  0  0  0
 48 56  1  0  0  0
 48 65  1  0  0  0
 48118  1  0  0  0
 49 50  1  0  0  0
 49 53  1  0  0  0
 49 64  1  0  0  0
 49119  1  0  0  0
 50 51  1  0  0  0
 50120  1  0  0  0
 50121  1  0  0  0
 51 52  1  0  0  0
 51122  1  0  0  0
 51123  1  0  0  0
 52124  1  0  0  0
 52125  1  0  0  0
 53 54  1  0  0  0
 54 55  2  0  0  0
 54126  1  0  0  0
 55 57  1  0  0  0
 55127  1  0  0  0
 56 69  2  0  0  0
 57 58  2  0  0  0
 57128  1  0  0  0
 58129  1  0  0  0
 59 60  1  0  0  0
 59 61  1  0  0  0
 59 62  1  0  0  0
 60130  1  0  0  0
 60131  1  0  0  0
 60132  1  0  0  0
 61133  1  0  0  0
 61134  1  0  0  0
 61135  1  0  0  0
 62136  1  0  0  0
 62137  1  0  0  0
 62138  1  0  0  0
 63 65  1  0  0  0
 63139  1  0  0  0
 63140  1  0  0  0
 63141  1  0  0  0
 64142  1  0  0  0
 65143  1  0  0  0
 68 82  1  0  0  0
 71 73  2  0  0  0
 71 75  1  0  0  0
 71144  1  0  0  0
 72 74  1  0  0  0
 72 75  2  0  0  0
 72145  1  0  0  0
 73 76  1  0  0  0
 73146  1  0  0  0
 74 76  2  0  0  0
 74147  1  0  0  0
 75 78  1  0  0  0
 76 83  1  0  0  0
 77148  1  0  0  0
 77149  1  0  0  0
 77150  1  0  0  0
 77 84  1  0  0  0
 78 84  1  0  0  0
 78151  1  0  0  0
 78152  1  0  0  0
 79 80  1  0  0  0
 79 81  1  0  0  0
 79153  1  0  0  0
 79154  1  0  0  0
 80 82  1  0  0  0
 80155  1  0  0  0
 80156  1  0  0  0
 81 84  1  0  0  0
 81157  1  0  0  0
 81158  1  0  0  0
 82159  1  0  0  0
 82160  1  0  0  0
 83161  1  0  0  0
 84162  1  0  0  0
M  CHG  1  84   1
M  ISO  4   1 100  68 101  82 101  83 100
M  END
> <chiral flag>
0

> <version>
0

> <s_m_source_file>
/data/baiqing/PycharmProjects/Reinvent-master-3.2/result/LINK_invent/BTK/process_docking_weight1_custom_product_contain_oxygen_bond_distance_aromatic_linkinvent_7_9_3/rearranged_h_0020.sdf

> <i_m_source_file_index>
71

> <r_mmod_Potential_Energy-OPLS-2005>
-162.451797485352

> <r_mmod_Stretch_Energy-OPLS-2005>
31.2983951568604

> <r_mmod_Bend_Energy-OPLS-2005>
90.1419525146484

> <r_mmod_Torsional_Energy-OPLS-2005>
266.076354980469

> <r_mmod_Improper_Torsional_Energy-OPLS-2005>
5.99076080322266

> <r_mmod_Van_der_Waal_Energy-OPLS-2005>
148.191360473633

> <r_mmod_Electrostatic_Energy-OPLS-2005>
-261.635681152344

> <r_mmod_Solvation_Energy-OPLS-2005>
-449.375183105469

> <b_mmod_Minimization_Converged-OPLS-2005>
0

> <r_mmod_RMS_Derivative-OPLS-2005>
2.16217446327209

$$$$
72
                    3D
 Structure written by MMmdl.
164172  0  0  1  0            999 V2000
  -30.6583  -14.6684   20.5058 C   0  0  0  0  0  0
  -30.4198  -12.4173   19.4615 C   0  0  0  0  0  0
  -29.4987  -12.5067   18.2275 C   0  0  0  0  0  0
  -28.0272  -12.3323   18.6457 C   0  0  0  0  0  0
  -27.6427  -13.2271   19.8540 C   0  0  2  0  0  0
  -28.6855  -13.1400   20.9898 C   0  0  0  0  0  0
  -25.2509  -13.8193   20.5682 C   0  0  0  0  0  0
  -24.1799  -13.0440   20.9195 C   0  0  0  0  0  0
  -24.6392  -11.6921   20.8750 C   0  0  0  0  0  0
  -23.9072  -10.4296   21.0414 C   0  0  0  0  0  0
  -24.3624   -9.4205   21.9188 C   0  0  0  0  0  0
  -23.6293   -8.2244   22.0759 C   0  0  0  0  0  0
  -22.4275   -8.0288   21.3545 C   0  0  0  0  0  0
  -21.9914   -9.0263   20.4647 C   0  0  0  0  0  0
  -22.7247  -10.2139   20.3056 C   0  0  0  0  0  0
  -21.6851   -6.0741   22.5280 C   0  0  0  0  0  0
  -21.4014   -6.5645   23.8214 C   0  0  0  0  0  0
  -21.3658   -5.6794   24.9173 C   0  0  0  0  0  0
  -21.6043   -4.3058   24.7222 C   0  0  0  0  0  0
  -21.8817   -3.8151   23.4343 C   0  0  0  0  0  0
  -21.9192   -4.6967   22.3400 C   0  0  0  0  0  0
  -22.7819  -13.5220   21.1858 C   0  0  0  0  0  0
  -22.1658   -4.2155   21.0974 F   0  0  0  0  0  0
  -21.5629   -3.4540   25.7737 F   0  0  0  0  0  0
  -29.9952  -13.4684   20.4129 N   0  0  0  0  0  0
  -26.2938  -12.9397   20.3296 N   0  0  0  0  0  0
  -25.9318  -11.6543   20.5766 N   0  0  0  0  0  0
  -22.0476  -12.8212   22.0423 N   0  0  0  0  0  0
  -25.4184  -15.1914   20.4079 N   0  0  0  0  0  0
  -31.8221  -14.7667   20.1032 O   0  0  0  0  0  0
  -21.6637   -6.8886   21.4241 O   0  0  0  0  0  0
  -22.3498  -14.5522   20.6708 O   0  0  0  0  0  0
  -24.6275  -31.8578   23.2005 C   0  0  0  0  0  0
  -25.9130  -32.4761   23.8331 C   0  0  1  0  0  0
  -27.2241  -27.3028   20.1084 C   0  0  0  0  0  0
  -25.5931  -33.8561   24.2249 N   0  0  0  0  0  0
  -23.4201  -30.4811   21.5438 C   0  0  2  0  0  0
  -24.8647  -28.9298   20.1112 C   0  0  0  0  0  0
  -22.7477  -29.4608   22.4925 C   0  0  0  0  0  0
  -18.0286  -28.1374   22.8471 C   0  0  0  0  0  0
  -24.1488  -36.7283   23.2638 C   0  0  0  0  0  0
  -25.9616  -30.7823   21.3731 C   0  0  0  0  0  0
  -26.0339  -29.4085   20.7129 C   0  0  0  0  0  0
  -27.2130  -28.6055   20.7011 C   0  0  0  0  0  0
  -26.0230  -26.8677   19.5031 C   0  0  0  0  0  0
  -24.8611  -27.6650   19.5014 C   0  0  0  0  0  0
  -23.6350  -29.8151   20.1585 C   0  0  0  0  0  0
  -25.4109  -36.3062   24.0319 C   0  0  1  0  0  0
  -20.5882  -28.3680   23.1269 C   0  0  2  0  0  0
  -20.6775  -26.9400   22.5401 C   0  0  0  0  0  0
  -19.5751  -26.6371   21.5200 C   0  0  0  0  0  0
  -18.1928  -26.7918   22.1604 C   0  0  0  0  0  0
  -19.1536  -28.8842   23.2868 C   0  0  0  0  0  0
  -18.9470  -30.1444   23.8881 C   0  0  0  0  0  0
  -17.6472  -30.6583   24.0546 C   0  0  0  0  0  0
  -25.9052  -34.9443   23.5083 C   0  0  0  0  0  0
  -16.5359  -29.9073   23.6333 C   0  0  0  0  0  0
  -16.7274  -28.6493   23.0343 C   0  0  0  0  0  0
  -26.4515  -31.6589   25.0720 C   0  0  0  0  0  0
  -25.3744  -31.3744   26.1449 C   0  0  0  0  0  0
  -27.0371  -30.3007   24.6208 C   0  0  0  0  0  0
  -27.6049  -32.4352   25.7497 C   0  0  0  0  0  0
  -27.5577  -37.1786   24.8454 C   0  0  0  0  0  0
  -21.4184  -29.3035   22.3669 N   0  0  0  0  0  0
  -26.4278  -37.3764   23.9413 N   0  0  0  0  0  0
  -24.6885  -31.0575   22.0964 N   0  0  0  0  0  0
  -23.4199  -28.8145   23.3006 O   0  0  0  0  0  0
  -28.3678  -26.4874   20.1694 O   0  0  0  0  0  0
  -26.5625  -34.8913   22.4651 O   0  0  0  0  0  0
  -23.5439  -32.1384   23.7336 O   0  0  0  0  0  0
  -30.3178  -19.0468   19.4575 C   0  0  0  0  0  0
  -28.4627  -19.1724   20.9640 C   0  0  0  0  0  0
  -30.3359  -20.4710   19.3837 C   0  0  0  0  0  0
  -28.4855  -20.6073   20.8911 C   0  0  0  0  0  0
  -29.3759  -18.3429   20.2467 C   0  0  0  0  0  0
  -29.4311  -21.3164   20.0973 C   0  0  0  0  0  0
  -32.8907  -23.4650   21.8485 C   0  0  0  0  0  0
  -30.5594  -16.3955   22.2088 C   0  0  0  0  0  0
  -29.2295  -16.7641   20.1516 C   0  0  0  0  0  0
  -31.4320  -23.0292   21.6719 C   0  0  0  0  0  0
  -30.9414  -23.2173   20.2253 C   0  0  0  0  0  0
  -28.5130  -23.7902   20.4031 C   0  0  0  0  0  0
  -28.4791  -25.1487   19.5332 C   0  0  0  0  0  0
  -29.5558  -22.7633   20.0307 N   0  0  0  0  0  0
  -30.0021  -15.7806   21.0034 N   0  0  0  0  0  0
  -31.4630  -12.5211   19.1592 H   0  0  0  0  0  0
  -30.3433  -11.4338   19.9284 H   0  0  0  0  0  0
  -29.7717  -11.7467   17.4942 H   0  0  0  0  0  0
  -29.6300  -13.4709   17.7345 H   0  0  0  0  0  0
  -27.8832  -11.2822   18.9047 H   0  0  0  0  0  0
  -27.3658  -12.5291   17.8010 H   0  0  0  0  0  0
  -27.6448  -14.2514   19.4828 H   0  0  0  0  0  0
  -28.7029  -12.1409   21.4279 H   0  0  0  0  0  0
  -28.4248  -13.8242   21.7990 H   0  0  0  0  0  0
  -25.2773   -9.5680   22.4757 H   0  0  0  0  0  0
  -24.0003   -7.4635   22.7483 H   0  0  0  0  0  0
  -21.0843   -8.8783   19.8950 H   0  0  0  0  0  0
  -22.3711  -10.9679   19.6162 H   0  0  0  0  0  0
  -21.2007   -7.6155   23.9717 H   0  0  0  0  0  0
  -21.1480   -6.0527   25.9078 H   0  0  0  0  0  0
  -22.0598   -2.7613   23.2840 H   0  0  0  0  0  0
  -22.4106  -11.9867   22.4792 H   0  0  0  0  0  0
  -21.1105  -13.1238   22.2659 H   0  0  0  0  0  0
  -24.6485  -15.8437   20.5099 H   0  0  0  0  0  0
  -26.2688  -15.6313   20.0822 H   0  0  0  0  0  0
  -26.7195  -32.5417   23.1067 H   0  0  0  0  0  0
  -25.0076  -33.9691   25.0394 H   0  0  0  0  0  0
  -22.7152  -31.3029   21.4017 H   0  0  0  0  0  0
  -23.3754  -35.9613   23.3268 H   0  0  0  0  0  0
  -24.3579  -36.8941   22.2058 H   0  0  0  0  0  0
  -23.7242  -37.6465   23.6698 H   0  0  0  0  0  0
  -26.0974  -31.5491   20.6097 H   0  0  0  0  0  0
  -26.8390  -30.8261   22.0065 H   0  0  0  0  0  0
  -28.1140  -28.9712   21.1741 H   0  0  0  0  0  0
  -25.9354  -25.8924   19.0521 H   0  0  0  0  0  0
  -23.9583  -27.2868   19.0412 H   0  0  0  0  0  0
  -23.7587  -30.5932   19.4042 H   0  0  0  0  0  0
  -22.7534  -29.2491   19.8541 H   0  0  0  0  0  0
  -25.1295  -36.1889   25.0811 H   0  0  0  0  0  0
  -20.9974  -28.3270   24.1388 H   0  0  0  0  0  0
  -20.5660  -26.2292   23.3602 H   0  0  0  0  0  0
  -21.6647  -26.7416   22.1206 H   0  0  0  0  0  0
  -19.6908  -25.6281   21.1231 H   0  0  0  0  0  0
  -19.6698  -27.3181   20.6731 H   0  0  0  0  0  0
  -17.4196  -26.6659   21.4005 H   0  0  0  0  0  0
  -18.0319  -26.0058   22.8998 H   0  0  0  0  0  0
  -19.7955  -30.7247   24.2248 H   0  0  0  0  0  0
  -17.5036  -31.6263   24.5151 H   0  0  0  0  0  0
  -15.5358  -30.2962   23.7687 H   0  0  0  0  0  0
  -15.8669  -28.0816   22.7057 H   0  0  0  0  0  0
  -24.5892  -30.7123   25.7777 H   0  0  0  0  0  0
  -24.8977  -32.2927   26.4895 H   0  0  0  0  0  0
  -25.8061  -30.8898   27.0216 H   0  0  0  0  0  0
  -26.2955  -29.6729   24.1253 H   0  0  0  0  0  0
  -27.4065  -29.7299   25.4736 H   0  0  0  0  0  0
  -27.8826  -30.4260   23.9438 H   0  0  0  0  0  0
  -27.2632  -33.3654   26.2052 H   0  0  0  0  0  0
  -28.3882  -32.6916   25.0350 H   0  0  0  0  0  0
  -28.0704  -31.8504   26.5443 H   0  0  0  0  0  0
  -28.2560  -38.0117   24.7545 H   0  0  0  0  0  0
  -28.1112  -36.2650   24.6230 H   0  0  0  0  0  0
  -27.2307  -37.1366   25.8858 H   0  0  0  0  0  0
  -20.9361  -29.8769   21.6885 H   0  0  0  0  0  0
  -26.0151  -38.2822   24.1461 H   0  0  0  0  0  0
  -31.0226  -18.4896   18.8557 H   0  0  0  0  0  0
  -27.6986  -18.7032   21.5684 H   0  0  0  0  0  0
  -31.0740  -20.9054   18.7269 H   0  0  0  0  0  0
  -27.7625  -21.1623   21.4720 H   0  0  0  0  0  0
  -33.2052  -23.3581   22.8874 H   0  0  0  0  0  0
  -33.0323  -24.5085   21.5654 H   0  0  0  0  0  0
  -33.5592  -22.8585   21.2370 H   0  0  0  0  0  0
  -29.7962  -16.9594   22.7451 H   0  0  0  0  0  0
  -31.3728  -17.0753   21.9519 H   0  0  0  0  0  0
  -30.9530  -15.6465   22.8984 H   0  0  0  0  0  0
  -29.3882  -16.4988   19.1049 H   0  0  0  0  0  0
  -28.1778  -16.5431   20.3306 H   0  0  0  0  0  0
  -30.8038  -23.5998   22.3576 H   0  0  0  0  0  0
  -31.3418  -21.9834   21.9685 H   0  0  0  0  0  0
  -31.6254  -22.7284   19.5328 H   0  0  0  0  0  0
  -31.0270  -24.2749   19.9797 H   0  0  0  0  0  0
  -27.5251  -23.3293   20.3720 H   0  0  0  0  0  0
  -28.6718  -24.0593   21.4478 H   0  0  0  0  0  0
  -27.7814  -25.0223   18.7094 H   0  0  0  0  0  0
  -29.4238  -25.2238   18.9972 H   0  0  0  0  0  0
  1 25  1  0  0  0
  1 30  2  0  0  0
  1 85  1  0  0  0
  2  3  1  0  0  0
  2 25  1  0  0  0
  2 86  1  0  0  0
  2 87  1  0  0  0
  3  4  1  0  0  0
  3 88  1  0  0  0
  3 89  1  0  0  0
  4  5  1  0  0  0
  4 90  1  0  0  0
  4 91  1  0  0  0
  5  6  1  0  0  0
  5 26  1  0  0  0
  5 92  1  0  0  0
  6 25  1  0  0  0
  6 93  1  0  0  0
  6 94  1  0  0  0
  7  8  2  0  0  0
  7 26  1  0  0  0
  7 29  1  0  0  0
  8  9  1  0  0  0
  8 22  1  0  0  0
  9 10  1  0  0  0
  9 27  2  0  0  0
 10 11  2  0  0  0
 10 15  1  0  0  0
 11 12  1  0  0  0
 11 95  1  0  0  0
 12 13  2  0  0  0
 12 96  1  0  0  0
 13 14  1  0  0  0
 13 31  1  0  0  0
 14 15  2  0  0  0
 14 97  1  0  0  0
 15 98  1  0  0  0
 16 17  2  0  0  0
 16 21  1  0  0  0
 16 31  1  0  0  0
 17 18  1  0  0  0
 17 99  1  0  0  0
 18 19  2  0  0  0
 18100  1  0  0  0
 19 20  1  0  0  0
 19 24  1  0  0  0
 20 21  2  0  0  0
 20101  1  0  0  0
 21 23  1  0  0  0
 22 28  1  0  0  0
 22 32  2  0  0  0
 26 27  1  0  0  0
 28102  1  0  0  0
 28103  1  0  0  0
 29104  1  0  0  0
 29105  1  0  0  0
 33 34  1  0  0  0
 33 66  1  0  0  0
 33 70  2  0  0  0
 34 36  1  0  0  0
 34 59  1  0  0  0
 34106  1  0  0  0
 35 44  2  0  0  0
 35 45  1  0  0  0
 35 68  1  0  0  0
 36 56  1  0  0  0
 36107  1  0  0  0
 37 39  1  0  0  0
 37 47  1  0  0  0
 37 66  1  0  0  0
 37108  1  0  0  0
 38 43  2  0  0  0
 38 46  1  0  0  0
 38 47  1  0  0  0
 39 64  1  0  0  0
 39 67  2  0  0  0
 40 52  1  0  0  0
 40 53  2  0  0  0
 40 58  1  0  0  0
 41109  1  0  0  0
 41110  1  0  0  0
 41111  1  0  0  0
 41 48  1  0  0  0
 42 43  1  0  0  0
 42 66  1  0  0  0
 42112  1  0  0  0
 42113  1  0  0  0
 43 44  1  0  0  0
 44114  1  0  0  0
 45 46  2  0  0  0
 45115  1  0  0  0
 46116  1  0  0  0
 47117  1  0  0  0
 47118  1  0  0  0
 48 56  1  0  0  0
 48 65  1  0  0  0
 48119  1  0  0  0
 49 50  1  0  0  0
 49 53  1  0  0  0
 49 64  1  0  0  0
 49120  1  0  0  0
 50 51  1  0  0  0
 50121  1  0  0  0
 50122  1  0  0  0
 51 52  1  0  0  0
 51123  1  0  0  0
 51124  1  0  0  0
 52125  1  0  0  0
 52126  1  0  0  0
 53 54  1  0  0  0
 54 55  2  0  0  0
 54127  1  0  0  0
 55 57  1  0  0  0
 55128  1  0  0  0
 56 69  2  0  0  0
 57 58  2  0  0  0
 57129  1  0  0  0
 58130  1  0  0  0
 59 60  1  0  0  0
 59 61  1  0  0  0
 59 62  1  0  0  0
 60131  1  0  0  0
 60132  1  0  0  0
 60133  1  0  0  0
 61134  1  0  0  0
 61135  1  0  0  0
 61136  1  0  0  0
 62137  1  0  0  0
 62138  1  0  0  0
 62139  1  0  0  0
 63 65  1  0  0  0
 63140  1  0  0  0
 63141  1  0  0  0
 63142  1  0  0  0
 64143  1  0  0  0
 65144  1  0  0  0
 68 83  1  0  0  0
 71 73  2  0  0  0
 71 75  1  0  0  0
 71145  1  0  0  0
 72 74  1  0  0  0
 72 75  2  0  0  0
 72146  1  0  0  0
 73 76  1  0  0  0
 73147  1  0  0  0
 74 76  2  0  0  0
 74148  1  0  0  0
 75 79  1  0  0  0
 76 84  1  0  0  0
 77 80  1  0  0  0
 77149  1  0  0  0
 77150  1  0  0  0
 77151  1  0  0  0
 78 85  1  0  0  0
 78152  1  0  0  0
 78153  1  0  0  0
 78154  1  0  0  0
 79 85  1  0  0  0
 79155  1  0  0  0
 79156  1  0  0  0
 80 81  1  0  0  0
 80157  1  0  0  0
 80158  1  0  0  0
 81 84  1  0  0  0
 81159  1  0  0  0
 81160  1  0  0  0
 82 83  1  0  0  0
 82 84  1  0  0  0
 82161  1  0  0  0
 82162  1  0  0  0
 83163  1  0  0  0
 83164  1  0  0  0
M  ISO  4   1 100  68 101  83 101  85 100
M  END
> <chiral flag>
0

> <version>
0

> <s_m_source_file>
/data/baiqing/PycharmProjects/Reinvent-master-3.2/result/LINK_invent/BTK/process_docking_weight1_custom_product_contain_oxygen_bond_distance_aromatic_linkinvent_7_9_3/rearranged_h_0020.sdf

> <i_m_source_file_index>
72

> <r_mmod_Potential_Energy-OPLS-2005>
250.283905029297

> <r_mmod_Stretch_Energy-OPLS-2005>
96.9350738525391

> <r_mmod_Bend_Energy-OPLS-2005>
178.448013305664

> <r_mmod_Torsional_Energy-OPLS-2005>
289.074310302734

> <r_mmod_Improper_Torsional_Energy-OPLS-2005>
7.00800895690918

> <r_mmod_Van_der_Waal_Energy-OPLS-2005>
142.762710571289

> <r_mmod_Electrostatic_Energy-OPLS-2005>
-315.288482666016

> <r_mmod_Solvation_Energy-OPLS-2005>
-204.424285888672

> <b_mmod_Minimization_Converged-OPLS-2005>
0

> <r_mmod_RMS_Derivative-OPLS-2005>
1.38362896442413

$$$$
73
                    3D
 Structure written by MMmdl.
158166  0  0  1  0            999 V2000
  -30.6807  -14.4855   20.5661 C   0  0  0  0  0  0
  -30.4327  -12.3133   19.4177 C   0  0  0  0  0  0
  -29.4977  -12.5060   18.2050 C   0  0  0  0  0  0
  -28.0190  -12.3603   18.6194 C   0  0  0  0  0  0
  -27.6638  -13.1960   19.8777 C   0  0  2  0  0  0
  -28.7091  -12.9723   20.9950 C   0  0  0  0  0  0
  -25.2597  -13.8128   20.5678 C   0  0  0  0  0  0
  -24.1839  -13.0412   20.9155 C   0  0  0  0  0  0
  -24.6383  -11.6878   20.8711 C   0  0  0  0  0  0
  -23.9040  -10.4278   21.0387 C   0  0  0  0  0  0
  -24.3598   -9.4207   21.9173 C   0  0  0  0  0  0
  -23.6274   -8.2243   22.0754 C   0  0  0  0  0  0
  -22.4259   -8.0272   21.3542 C   0  0  0  0  0  0
  -21.9881   -9.0237   20.4645 C   0  0  0  0  0  0
  -22.7209  -10.2119   20.3042 C   0  0  0  0  0  0
  -21.6849   -6.0720   22.5268 C   0  0  0  0  0  0
  -21.4018   -6.5630   23.8201 C   0  0  0  0  0  0
  -21.3654   -5.6788   24.9168 C   0  0  0  0  0  0
  -21.6041   -4.3050   24.7228 C   0  0  0  0  0  0
  -21.8818   -3.8140   23.4349 C   0  0  0  0  0  0
  -21.9193   -4.6948   22.3398 C   0  0  0  0  0  0
  -22.7872  -13.5230   21.1811 C   0  0  0  0  0  0
  -22.1670   -4.2133   21.0976 F   0  0  0  0  0  0
  -21.5620   -3.4539   25.7744 F   0  0  0  0  0  0
  -30.0389  -13.2909   20.4431 N   0  0  0  0  0  0
  -26.3035  -12.9280   20.3384 N   0  0  0  0  0  0
  -25.9309  -11.6448   20.5756 N   0  0  0  0  0  0
  -22.0512  -12.8225   22.0378 N   0  0  0  0  0  0
  -25.4288  -15.1845   20.4103 N   0  0  0  0  0  0
  -31.8097  -14.6963   20.1116 O   0  0  0  0  0  0
  -21.6633   -6.8860   21.4232 O   0  0  0  0  0  0
  -22.3558  -14.5525   20.6652 O   0  0  0  0  0  0
  -24.6148  -31.8681   23.2123 C   0  0  0  0  0  0
  -25.9056  -32.4808   23.8405 C   0  0  1  0  0  0
  -27.2401  -27.4366   20.0822 C   0  0  0  0  0  0
  -25.5939  -33.8613   24.2345 N   0  0  0  0  0  0
  -23.4014  -30.4919   21.5528 C   0  0  2  0  0  0
  -24.8462  -28.9537   20.1204 C   0  0  0  0  0  0
  -22.7396  -29.4664   22.5003 C   0  0  0  0  0  0
  -18.0262  -28.1364   22.8483 C   0  0  0  0  0  0
  -24.1494  -36.7305   23.2634 C   0  0  0  0  0  0
  -25.9308  -30.8284   21.3683 C   0  0  0  0  0  0
  -26.0059  -29.4621   20.7175 C   0  0  0  0  0  0
  -27.2003  -28.7063   20.7049 C   0  0  0  0  0  0
  -26.0537  -26.9356   19.4948 C   0  0  0  0  0  0
  -24.8629  -27.6862   19.5145 C   0  0  0  0  0  0
  -23.6098  -29.8233   20.1681 C   0  0  0  0  0  0
  -25.4115  -36.3105   24.0332 C   0  0  1  0  0  0
  -20.5849  -28.3655   23.1316 C   0  0  2  0  0  0
  -20.6748  -26.9391   22.5413 C   0  0  0  0  0  0
  -19.5737  -26.6375   21.5199 C   0  0  0  0  0  0
  -18.1910  -26.7909   22.1603 C   0  0  0  0  0  0
  -19.1510  -28.8823   23.2895 C   0  0  0  0  0  0
  -18.9449  -30.1441   23.8889 C   0  0  0  0  0  0
  -17.6453  -30.6572   24.0561 C   0  0  0  0  0  0
  -25.9042  -34.9467   23.5125 C   0  0  0  0  0  0
  -16.5344  -29.9072   23.6329 C   0  0  0  0  0  0
  -16.7253  -28.6493   23.0336 C   0  0  0  0  0  0
  -26.4484  -31.6580   25.0731 C   0  0  0  0  0  0
  -25.3759  -31.3675   26.1488 C   0  0  0  0  0  0
  -27.0293  -30.3011   24.6107 C   0  0  0  0  0  0
  -27.6080  -32.4275   25.7495 C   0  0  0  0  0  0
  -27.5579  -37.1820   24.8471 C   0  0  0  0  0  0
  -21.4126  -29.3032   22.3734 N   0  0  0  0  0  0
  -26.4299  -37.3790   23.9402 N   0  0  0  0  0  0
  -24.6667  -31.0775   22.1026 N   0  0  0  0  0  0
  -23.4170  -28.8202   23.3043 O   0  0  0  0  0  0
  -28.4320  -26.7352   20.0848 O   0  0  0  0  0  0
  -26.5576  -34.8912   22.4672 O   0  0  0  0  0  0
  -23.5350  -32.1448   23.7522 O   0  0  0  0  0  0
  -30.8277  -19.0194   21.8749 C   0  0  0  0  0  0
  -30.8050  -17.6069   21.9147 C   0  0  0  0  0  0
  -29.4097  -18.9926   19.9085 C   0  0  0  0  0  0
  -29.3940  -17.5782   19.9288 C   0  0  0  0  0  0
  -30.1141  -19.7323   20.8862 C   0  0  0  0  0  0
  -30.0825  -16.8722   20.9499 C   0  0  0  0  0  0
  -28.6177  -16.8553   18.8423 C   0  0  0  0  0  0
  -29.3414  -23.4436   20.2913 C   0  0  0  0  0  0
  -28.2164  -24.2703   19.6181 C   0  0  0  0  0  0
  -29.0377  -21.9245   20.3356 C   0  0  0  0  0  0
  -28.6290  -25.6840   19.1301 C   0  0  0  0  0  0
  -29.9271  -15.4635   21.1041 N   0  0  0  0  0  0
  -30.1376  -21.1420   20.9098 N   0  0  0  0  0  0
  -31.4754  -12.4253   19.1152 H   0  0  0  0  0  0
  -30.3459  -11.2995   19.8125 H   0  0  0  0  0  0
  -29.7406  -11.7818   17.4263 H   0  0  0  0  0  0
  -29.6618  -13.4909   17.7653 H   0  0  0  0  0  0
  -27.8313  -11.3033   18.8119 H   0  0  0  0  0  0
  -27.3670  -12.6360   17.7904 H   0  0  0  0  0  0
  -27.7043  -14.2412   19.5808 H   0  0  0  0  0  0
  -28.6944  -11.9334   21.3258 H   0  0  0  0  0  0
  -28.4679  -13.5571   21.8840 H   0  0  0  0  0  0
  -25.2736   -9.5698   22.4755 H   0  0  0  0  0  0
  -23.9982   -7.4651   22.7486 H   0  0  0  0  0  0
  -21.0805   -8.8750   19.8966 H   0  0  0  0  0  0
  -22.3653  -10.9653   19.6157 H   0  0  0  0  0  0
  -21.2022   -7.6139   23.9697 H   0  0  0  0  0  0
  -21.1475   -6.0525   25.9069 H   0  0  0  0  0  0
  -22.0602   -2.7601   23.2856 H   0  0  0  0  0  0
  -22.4121  -11.9885   22.4759 H   0  0  0  0  0  0
  -21.1138  -13.1270   22.2588 H   0  0  0  0  0  0
  -24.6563  -15.8342   20.5104 H   0  0  0  0  0  0
  -26.2823  -15.6305   20.1027 H   0  0  0  0  0  0
  -26.7121  -32.5512   23.1165 H   0  0  0  0  0  0
  -25.0164  -33.9794   25.0539 H   0  0  0  0  0  0
  -22.6905  -31.3087   21.4135 H   0  0  0  0  0  0
  -23.3757  -35.9637   23.3300 H   0  0  0  0  0  0
  -24.3581  -36.8919   22.2048 H   0  0  0  0  0  0
  -23.7246  -37.6507   23.6651 H   0  0  0  0  0  0
  -26.0438  -31.5915   20.5972 H   0  0  0  0  0  0
  -26.8200  -30.8809   21.9849 H   0  0  0  0  0  0
  -28.0967  -29.0986   21.1643 H   0  0  0  0  0  0
  -26.0250  -25.9632   19.0252 H   0  0  0  0  0  0
  -23.9669  -27.2818   19.0644 H   0  0  0  0  0  0
  -23.7234  -30.5985   19.4098 H   0  0  0  0  0  0
  -22.7321  -29.2469   19.8695 H   0  0  0  0  0  0
  -25.1284  -36.1973   25.0822 H   0  0  0  0  0  0
  -20.9931  -28.3218   24.1438 H   0  0  0  0  0  0
  -20.5637  -26.2260   23.3589 H   0  0  0  0  0  0
  -21.6623  -26.7418   22.1231 H   0  0  0  0  0  0
  -19.6910  -25.6291   21.1215 H   0  0  0  0  0  0
  -19.6681  -27.3187   20.6730 H   0  0  0  0  0  0
  -17.4182  -26.6664   21.3998 H   0  0  0  0  0  0
  -18.0312  -26.0039   22.8988 H   0  0  0  0  0  0
  -19.7929  -30.7265   24.2242 H   0  0  0  0  0  0
  -17.5008  -31.6246   24.5174 H   0  0  0  0  0  0
  -15.5346  -30.2975   23.7667 H   0  0  0  0  0  0
  -15.8648  -28.0833   22.7027 H   0  0  0  0  0  0
  -24.6027  -30.6878   25.7880 H   0  0  0  0  0  0
  -24.8818  -32.2797   26.4842 H   0  0  0  0  0  0
  -25.8158  -30.8988   27.0303 H   0  0  0  0  0  0
  -26.2822  -29.6786   24.1164 H   0  0  0  0  0  0
  -27.4048  -29.7229   25.4564 H   0  0  0  0  0  0
  -27.8673  -30.4298   23.9251 H   0  0  0  0  0  0
  -27.2746  -33.3612   26.2036 H   0  0  0  0  0  0
  -28.3928  -32.6756   25.0336 H   0  0  0  0  0  0
  -28.0695  -31.8393   26.5442 H   0  0  0  0  0  0
  -28.2630  -38.0086   24.7475 H   0  0  0  0  0  0
  -28.1046  -36.2613   24.6362 H   0  0  0  0  0  0
  -27.2282  -37.1551   25.8873 H   0  0  0  0  0  0
  -20.9280  -29.8771   21.6973 H   0  0  0  0  0  0
  -26.0187  -38.2873   24.1385 H   0  0  0  0  0  0
  -31.3798  -19.5501   22.6376 H   0  0  0  0  0  0
  -31.3211  -17.0944   22.7148 H   0  0  0  0  0  0
  -28.8664  -19.4969   19.1235 H   0  0  0  0  0  0
  -28.5886  -17.4524   17.9306 H   0  0  0  0  0  0
  -27.5919  -16.6847   19.1640 H   0  0  0  0  0  0
  -29.0744  -15.9016   18.5809 H   0  0  0  0  0  0
  -29.5218  -23.8300   21.2960 H   0  0  0  0  0  0
  -30.2679  -23.5911   19.7351 H   0  0  0  0  0  0
  -27.3437  -24.3294   20.2699 H   0  0  0  0  0  0
  -27.8843  -23.7183   18.7380 H   0  0  0  0  0  0
  -28.8321  -21.5892   19.3191 H   0  0  0  0  0  0
  -28.1309  -21.7425   20.9156 H   0  0  0  0  0  0
  -28.1179  -25.9218   18.1958 H   0  0  0  0  0  0
  -29.6845  -25.6804   18.8582 H   0  0  0  0  0  0
  -29.0146  -15.1572   21.4039 H   0  0  0  0  0  0
  -30.6213  -21.5692   21.6961 H   0  0  0  0  0  0
  1 25  1  0  0  0
  1 30  2  0  0  0
  1 82  1  0  0  0
  2  3  1  0  0  0
  2 25  1  0  0  0
  2 84  1  0  0  0
  2 85  1  0  0  0
  3  4  1  0  0  0
  3 86  1  0  0  0
  3 87  1  0  0  0
  4  5  1  0  0  0
  4 88  1  0  0  0
  4 89  1  0  0  0
  5  6  1  0  0  0
  5 26  1  0  0  0
  5 90  1  0  0  0
  6 25  1  0  0  0
  6 91  1  0  0  0
  6 92  1  0  0  0
  7  8  2  0  0  0
  7 26  1  0  0  0
  7 29  1  0  0  0
  8  9  1  0  0  0
  8 22  1  0  0  0
  9 10  1  0  0  0
  9 27  2  0  0  0
 10 11  2  0  0  0
 10 15  1  0  0  0
 11 12  1  0  0  0
 11 93  1  0  0  0
 12 13  2  0  0  0
 12 94  1  0  0  0
 13 14  1  0  0  0
 13 31  1  0  0  0
 14 15  2  0  0  0
 14 95  1  0  0  0
 15 96  1  0  0  0
 16 17  2  0  0  0
 16 21  1  0  0  0
 16 31  1  0  0  0
 17 18  1  0  0  0
 17 97  1  0  0  0
 18 19  2  0  0  0
 18 98  1  0  0  0
 19 20  1  0  0  0
 19 24  1  0  0  0
 20 21  2  0  0  0
 20 99  1  0  0  0
 21 23  1  0  0  0
 22 28  1  0  0  0
 22 32  2  0  0  0
 26 27  1  0  0  0
 28100  1  0  0  0
 28101  1  0  0  0
 29102  1  0  0  0
 29103  1  0  0  0
 33 34  1  0  0  0
 33 66  1  0  0  0
 33 70  2  0  0  0
 34 36  1  0  0  0
 34 59  1  0  0  0
 34104  1  0  0  0
 35 44  2  0  0  0
 35 45  1  0  0  0
 35 68  1  0  0  0
 36 56  1  0  0  0
 36105  1  0  0  0
 37 39  1  0  0  0
 37 47  1  0  0  0
 37 66  1  0  0  0
 37106  1  0  0  0
 38 43  2  0  0  0
 38 46  1  0  0  0
 38 47  1  0  0  0
 39 64  1  0  0  0
 39 67  2  0  0  0
 40 52  1  0  0  0
 40 53  2  0  0  0
 40 58  1  0  0  0
 41107  1  0  0  0
 41108  1  0  0  0
 41109  1  0  0  0
 41 48  1  0  0  0
 42 43  1  0  0  0
 42 66  1  0  0  0
 42110  1  0  0  0
 42111  1  0  0  0
 43 44  1  0  0  0
 44112  1  0  0  0
 45 46  2  0  0  0
 45113  1  0  0  0
 46114  1  0  0  0
 47115  1  0  0  0
 47116  1  0  0  0
 48 56  1  0  0  0
 48 65  1  0  0  0
 48117  1  0  0  0
 49 50  1  0  0  0
 49 53  1  0  0  0
 49 64  1  0  0  0
 49118  1  0  0  0
 50 51  1  0  0  0
 50119  1  0  0  0
 50120  1  0  0  0
 51 52  1  0  0  0
 51121  1  0  0  0
 51122  1  0  0  0
 52123  1  0  0  0
 52124  1  0  0  0
 53 54  1  0  0  0
 54 55  2  0  0  0
 54125  1  0  0  0
 55 57  1  0  0  0
 55126  1  0  0  0
 56 69  2  0  0  0
 57 58  2  0  0  0
 57127  1  0  0  0
 58128  1  0  0  0
 59 60  1  0  0  0
 59 61  1  0  0  0
 59 62  1  0  0  0
 60129  1  0  0  0
 60130  1  0  0  0
 60131  1  0  0  0
 61132  1  0  0  0
 61133  1  0  0  0
 61134  1  0  0  0
 62135  1  0  0  0
 62136  1  0  0  0
 62137  1  0  0  0
 63 65  1  0  0  0
 63138  1  0  0  0
 63139  1  0  0  0
 63140  1  0  0  0
 64141  1  0  0  0
 65142  1  0  0  0
 68 81  1  0  0  0
 71 72  2  0  0  0
 71 75  1  0  0  0
 71143  1  0  0  0
 72 76  1  0  0  0
 72144  1  0  0  0
 73 74  1  0  0  0
 73 75  2  0  0  0
 73145  1  0  0  0
 74 76  2  0  0  0
 74 77  1  0  0  0
 75 83  1  0  0  0
 76 82  1  0  0  0
 77146  1  0  0  0
 77147  1  0  0  0
 77148  1  0  0  0
 78 79  1  0  0  0
 78 80  1  0  0  0
 78149  1  0  0  0
 78150  1  0  0  0
 79 81  1  0  0  0
 79151  1  0  0  0
 79152  1  0  0  0
 80 83  1  0  0  0
 80153  1  0  0  0
 80154  1  0  0  0
 81155  1  0  0  0
 81156  1  0  0  0
 82157  1  0  0  0
 83158  1  0  0  0
M  ISO  4   1 100  68 101  81 101  82 100
M  END
> <chiral flag>
0

> <version>
0

> <s_m_source_file>
/data/baiqing/PycharmProjects/Reinvent-master-3.2/result/LINK_invent/BTK/process_docking_weight1_custom_product_contain_oxygen_bond_distance_aromatic_linkinvent_7_9_3/rearranged_h_0020.sdf

> <i_m_source_file_index>
73

> <r_mmod_Potential_Energy-OPLS-2005>
-87.2742309570312

> <r_mmod_Stretch_Energy-OPLS-2005>
37.2212409973145

> <r_mmod_Bend_Energy-OPLS-2005>
105.60090637207

> <r_mmod_Torsional_Energy-OPLS-2005>
233.634292602539

> <r_mmod_Improper_Torsional_Energy-OPLS-2005>
6.81298112869263

> <r_mmod_Van_der_Waal_Energy-OPLS-2005>
149.740936279297

> <r_mmod_Electrostatic_Energy-OPLS-2005>
-411.996917724609

> <r_mmod_Solvation_Energy-OPLS-2005>
-221.381317138672

> <b_mmod_Minimization_Converged-OPLS-2005>
0

> <r_mmod_RMS_Derivative-OPLS-2005>
1.35597383975983

$$$$
74
                    3D
 Structure written by MMmdl.
167175  0  0  1  0            999 V2000
  -30.7307  -14.4835   20.6162 C   0  0  0  0  0  0
  -30.4109  -12.3314   19.4433 C   0  0  0  0  0  0
  -29.4872  -12.5127   18.2216 C   0  0  0  0  0  0
  -28.0112  -12.3646   18.6314 C   0  0  0  0  0  0
  -27.6526  -13.2191   19.8747 C   0  0  2  0  0  0
  -28.6895  -13.0257   21.0025 C   0  0  0  0  0  0
  -25.2521  -13.8208   20.5709 C   0  0  0  0  0  0
  -24.1797  -13.0461   20.9194 C   0  0  0  0  0  0
  -24.6377  -11.6933   20.8759 C   0  0  0  0  0  0
  -23.9075  -10.4302   21.0425 C   0  0  0  0  0  0
  -24.3623   -9.4206   21.9201 C   0  0  0  0  0  0
  -23.6293   -8.2240   22.0758 C   0  0  0  0  0  0
  -22.4270   -8.0278   21.3545 C   0  0  0  0  0  0
  -21.9912   -9.0267   20.4652 C   0  0  0  0  0  0
  -22.7257  -10.2142   20.3067 C   0  0  0  0  0  0
  -21.6843   -6.0737   22.5293 C   0  0  0  0  0  0
  -21.4019   -6.5643   23.8233 C   0  0  0  0  0  0
  -21.3661   -5.6790   24.9184 C   0  0  0  0  0  0
  -21.6039   -4.3059   24.7238 C   0  0  0  0  0  0
  -21.8817   -3.8157   23.4362 C   0  0  0  0  0  0
  -21.9187   -4.6964   22.3410 C   0  0  0  0  0  0
  -22.7814  -13.5226   21.1867 C   0  0  0  0  0  0
  -22.1649   -4.2150   21.0988 F   0  0  0  0  0  0
  -21.5623   -3.4539   25.7750 F   0  0  0  0  0  0
  -30.0223  -13.3270   20.4583 N   0  0  0  0  0  0
  -26.2959  -12.9404   20.3378 N   0  0  0  0  0  0
  -25.9301  -11.6543   20.5801 N   0  0  0  0  0  0
  -22.0461  -12.8214   22.0424 N   0  0  0  0  0  0
  -25.4226  -15.1941   20.4159 N   0  0  0  0  0  0
  -31.8315  -14.6451   20.0767 O   0  0  0  0  0  0
  -21.6627   -6.8883   21.4247 O   0  0  0  0  0  0
  -22.3482  -14.5522   20.6695 O   0  0  0  0  0  0
  -24.6204  -31.8668   23.2074 C   0  0  0  0  0  0
  -25.9069  -32.4824   23.8364 C   0  0  1  0  0  0
  -27.2052  -27.3792   20.0741 C   0  0  0  0  0  0
  -25.5941  -33.8643   24.2290 N   0  0  0  0  0  0
  -23.4068  -30.4924   21.5562 C   0  0  2  0  0  0
  -24.8404  -28.9609   20.1050 C   0  0  0  0  0  0
  -22.7435  -29.4662   22.5015 C   0  0  0  0  0  0
  -18.0316  -28.1351   22.8479 C   0  0  0  0  0  0
  -24.1527  -36.7345   23.2626 C   0  0  0  0  0  0
  -25.9423  -30.7989   21.3819 C   0  0  0  0  0  0
  -26.0064  -29.4352   20.7203 C   0  0  0  0  0  0
  -27.1848  -28.6464   20.7141 C   0  0  0  0  0  0
  -26.0242  -26.9525   19.4240 C   0  0  0  0  0  0
  -24.8449  -27.7174   19.4571 C   0  0  0  0  0  0
  -23.6062  -29.8352   20.1679 C   0  0  0  0  0  0
  -25.4149  -36.3121   24.0300 C   0  0  1  0  0  0
  -20.5896  -28.3666   23.1297 C   0  0  2  0  0  0
  -20.6857  -26.9421   22.5385 C   0  0  0  0  0  0
  -19.5819  -26.6370   21.5209 C   0  0  0  0  0  0
  -18.1980  -26.7905   22.1594 C   0  0  0  0  0  0
  -19.1551  -28.8821   23.2873 C   0  0  0  0  0  0
  -18.9477  -30.1436   23.8855 C   0  0  0  0  0  0
  -17.6487  -30.6561   24.0539 C   0  0  0  0  0  0
  -25.9055  -34.9486   23.5069 C   0  0  0  0  0  0
  -16.5375  -29.9057   23.6332 C   0  0  0  0  0  0
  -16.7300  -28.6479   23.0338 C   0  0  0  0  0  0
  -26.4456  -31.6638   25.0718 C   0  0  0  0  0  0
  -25.3665  -31.3806   26.1443 C   0  0  0  0  0  0
  -27.0326  -30.3088   24.6170 C   0  0  0  0  0  0
  -27.5999  -32.4417   25.7472 C   0  0  0  0  0  0
  -27.5632  -37.1830   24.8440 C   0  0  0  0  0  0
  -21.4164  -29.3026   22.3694 N   0  0  0  0  0  0
  -26.4356  -37.3801   23.9357 N   0  0  0  0  0  0
  -24.6759  -31.0677   22.1051 N   0  0  0  0  0  0
  -23.4174  -28.8264   23.3113 O   0  0  0  0  0  0
  -28.3536  -26.5918   20.1256 O   0  0  0  0  0  0
  -26.5599  -34.8916   22.4627 O   0  0  0  0  0  0
  -23.5360  -32.1506   23.7402 O   0  0  0  0  0  0
  -28.3321  -17.9998   21.8735 C   0  0  0  0  0  0
  -27.6655  -19.1680   22.2795 C   0  0  0  0  0  0
  -29.7313  -19.3582   20.4219 C   0  0  0  0  0  0
  -29.4014  -18.0837   20.9611 C   0  0  0  0  0  0
  -29.0564  -20.5653   20.7945 C   0  0  0  0  0  0
  -28.0262  -20.4295   21.7697 C   0  0  0  0  0  0
  -27.1831  -23.1418   19.0140 C   0  0  0  0  0  0
  -26.8627  -24.2974   21.1960 C   0  0  0  0  0  0
  -30.2509  -21.8040   18.9986 C   0  0  0  0  0  0
  -30.2339  -15.6124   22.6849 C   0  0  0  0  0  0
  -30.2059  -16.8473   20.5016 C   0  0  0  0  0  0
  -29.0774  -23.1495   20.7772 C   0  0  0  0  0  0
  -28.4222  -25.3209   19.4160 C   0  0  0  0  0  0
  -27.9067  -23.9823   20.1002 C   0  0  0  0  0  0
  -29.4096  -21.8220   20.1967 N   0  0  0  0  0  0
  -30.1117  -15.5389   21.2184 N   0  0  0  0  0  0
  -27.3421  -21.4898   22.2528 F   0  0  0  0  0  0
  -31.4536  -12.4261   19.1366 H   0  0  0  0  0  0
  -30.3174  -11.3249   19.8544 H   0  0  0  0  0  0
  -29.7350  -11.7837   17.4490 H   0  0  0  0  0  0
  -29.6459  -13.4978   17.7803 H   0  0  0  0  0  0
  -27.8292  -11.3103   18.8420 H   0  0  0  0  0  0
  -27.3587  -12.6216   17.7968 H   0  0  0  0  0  0
  -27.6890  -14.2635   19.5620 H   0  0  0  0  0  0
  -28.6656  -11.9965   21.3647 H   0  0  0  0  0  0
  -28.4329  -13.6446   21.8613 H   0  0  0  0  0  0
  -25.2756   -9.5656   22.4784 H   0  0  0  0  0  0
  -23.9991   -7.4612   22.7462 H   0  0  0  0  0  0
  -21.0846   -8.8820   19.8943 H   0  0  0  0  0  0
  -22.3749  -10.9691   19.6175 H   0  0  0  0  0  0
  -21.2028   -7.6156   23.9743 H   0  0  0  0  0  0
  -21.1477   -6.0518   25.9092 H   0  0  0  0  0  0
  -22.0595   -2.7613   23.2868 H   0  0  0  0  0  0
  -22.4085  -11.9874   22.4798 H   0  0  0  0  0  0
  -21.1092  -13.1259   22.2668 H   0  0  0  0  0  0
  -24.6602  -15.8510   20.5433 H   0  0  0  0  0  0
  -26.2865  -15.6398   20.1367 H   0  0  0  0  0  0
  -26.7137  -32.5432   23.1097 H   0  0  0  0  0  0
  -25.0195  -33.9836   25.0513 H   0  0  0  0  0  0
  -22.6973  -31.3109   21.4274 H   0  0  0  0  0  0
  -23.3783  -35.9686   23.3289 H   0  0  0  0  0  0
  -24.3623  -36.8991   22.2042 H   0  0  0  0  0  0
  -23.7306  -37.6553   23.6661 H   0  0  0  0  0  0
  -26.0797  -31.5657   20.6191 H   0  0  0  0  0  0
  -26.8231  -30.8359   22.0096 H   0  0  0  0  0  0
  -28.0780  -28.9971   21.2137 H   0  0  0  0  0  0
  -25.9686  -26.0117   18.9016 H   0  0  0  0  0  0
  -23.9516  -27.3461   18.9683 H   0  0  0  0  0  0
  -23.7019  -30.6133   19.4111 H   0  0  0  0  0  0
  -22.7247  -29.2590   19.8799 H   0  0  0  0  0  0
  -25.1371  -36.2010   25.0805 H   0  0  0  0  0  0
  -20.9959  -28.3259   24.1427 H   0  0  0  0  0  0
  -20.5926  -26.2262   23.3553 H   0  0  0  0  0  0
  -21.6716  -26.7604   22.1086 H   0  0  0  0  0  0
  -19.7015  -25.6282   21.1261 H   0  0  0  0  0  0
  -19.6768  -27.3134   20.6693 H   0  0  0  0  0  0
  -17.4301  -26.6648   21.3947 H   0  0  0  0  0  0
  -18.0365  -26.0023   22.8956 H   0  0  0  0  0  0
  -19.7952  -30.7257   24.2192 H   0  0  0  0  0  0
  -17.5043  -31.6240   24.5142 H   0  0  0  0  0  0
  -15.5356  -30.2938   23.7690 H   0  0  0  0  0  0
  -15.8704  -28.0787   22.7060 H   0  0  0  0  0  0
  -24.5780  -30.7219   25.7776 H   0  0  0  0  0  0
  -24.8878  -32.2972   26.4851 H   0  0  0  0  0  0
  -25.7936  -30.8971   27.0232 H   0  0  0  0  0  0
  -26.2912  -29.6806   24.1200 H   0  0  0  0  0  0
  -27.4087  -29.7366   25.4667 H   0  0  0  0  0  0
  -27.8760  -30.4444   23.9389 H   0  0  0  0  0  0
  -27.2603  -33.3724   26.2022 H   0  0  0  0  0  0
  -28.3776  -32.7003   25.0264 H   0  0  0  0  0  0
  -28.0699  -31.8583   26.5381 H   0  0  0  0  0  0
  -28.2629  -38.0156   24.7568 H   0  0  0  0  0  0
  -28.1182  -36.2697   24.6246 H   0  0  0  0  0  0
  -27.2311  -37.1439   25.8829 H   0  0  0  0  0  0
  -20.9329  -29.8670   21.6838 H   0  0  0  0  0  0
  -26.0256  -38.2898   24.1318 H   0  0  0  0  0  0
  -28.0214  -17.0545   22.2887 H   0  0  0  0  0  0
  -26.8649  -19.1055   23.0021 H   0  0  0  0  0  0
  -30.5448  -19.3769   19.7110 H   0  0  0  0  0  0
  -26.7975  -22.2009   19.4099 H   0  0  0  0  0  0
  -27.8521  -22.8987   18.1896 H   0  0  0  0  0  0
  -26.3381  -23.6782   18.5868 H   0  0  0  0  0  0
  -26.4219  -23.3974   21.6168 H   0  0  0  0  0  0
  -26.0035  -24.8468   20.8278 H   0  0  0  0  0  0
  -27.3009  -24.8798   22.0076 H   0  0  0  0  0  0
  -31.2653  -21.4851   19.2427 H   0  0  0  0  0  0
  -30.3243  -22.7933   18.5444 H   0  0  0  0  0  0
  -29.8510  -21.1312   18.2376 H   0  0  0  0  0  0
  -29.2939  -15.3521   23.1710 H   0  0  0  0  0  0
  -30.5171  -16.6101   23.0227 H   0  0  0  0  0  0
  -30.9943  -14.9344   23.0786 H   0  0  0  0  0  0
  -31.2583  -17.1446   20.4646 H   0  0  0  0  0  0
  -29.9138  -16.6771   19.4630 H   0  0  0  0  0  0
  -28.9041  -23.0412   21.8457 H   0  0  0  0  0  0
  -29.9902  -23.7493   20.7553 H   0  0  0  0  0  0
  -27.9842  -25.4466   18.4258 H   0  0  0  0  0  0
  -29.4758  -25.1770   19.1738 H   0  0  0  0  0  0
  1 25  1  0  0  0
  1 30  2  0  0  0
  1 86  1  0  0  0
  2  3  1  0  0  0
  2 25  1  0  0  0
  2 88  1  0  0  0
  2 89  1  0  0  0
  3  4  1  0  0  0
  3 90  1  0  0  0
  3 91  1  0  0  0
  4  5  1  0  0  0
  4 92  1  0  0  0
  4 93  1  0  0  0
  5  6  1  0  0  0
  5 26  1  0  0  0
  5 94  1  0  0  0
  6 25  1  0  0  0
  6 95  1  0  0  0
  6 96  1  0  0  0
  7  8  2  0  0  0
  7 26  1  0  0  0
  7 29  1  0  0  0
  8  9  1  0  0  0
  8 22  1  0  0  0
  9 10  1  0  0  0
  9 27  2  0  0  0
 10 11  2  0  0  0
 10 15  1  0  0  0
 11 12  1  0  0  0
 11 97  1  0  0  0
 12 13  2  0  0  0
 12 98  1  0  0  0
 13 14  1  0  0  0
 13 31  1  0  0  0
 14 15  2  0  0  0
 14 99  1  0  0  0
 15100  1  0  0  0
 16 17  2  0  0  0
 16 21  1  0  0  0
 16 31  1  0  0  0
 17 18  1  0  0  0
 17101  1  0  0  0
 18 19  2  0  0  0
 18102  1  0  0  0
 19 20  1  0  0  0
 19 24  1  0  0  0
 20 21  2  0  0  0
 20103  1  0  0  0
 21 23  1  0  0  0
 22 28  1  0  0  0
 22 32  2  0  0  0
 26 27  1  0  0  0
 28104  1  0  0  0
 28105  1  0  0  0
 29106  1  0  0  0
 29107  1  0  0  0
 33 34  1  0  0  0
 33 66  1  0  0  0
 33 70  2  0  0  0
 34 36  1  0  0  0
 34 59  1  0  0  0
 34108  1  0  0  0
 35 44  2  0  0  0
 35 45  1  0  0  0
 35 68  1  0  0  0
 36 56  1  0  0  0
 36109  1  0  0  0
 37 39  1  0  0  0
 37 47  1  0  0  0
 37 66  1  0  0  0
 37110  1  0  0  0
 38 43  2  0  0  0
 38 46  1  0  0  0
 38 47  1  0  0  0
 39 64  1  0  0  0
 39 67  2  0  0  0
 40 52  1  0  0  0
 40 53  2  0  0  0
 40 58  1  0  0  0
 41111  1  0  0  0
 41112  1  0  0  0
 41113  1  0  0  0
 41 48  1  0  0  0
 42 43  1  0  0  0
 42 66  1  0  0  0
 42114  1  0  0  0
 42115  1  0  0  0
 43 44  1  0  0  0
 44116  1  0  0  0
 45 46  2  0  0  0
 45117  1  0  0  0
 46118  1  0  0  0
 47119  1  0  0  0
 47120  1  0  0  0
 48 56  1  0  0  0
 48 65  1  0  0  0
 48121  1  0  0  0
 49 50  1  0  0  0
 49 53  1  0  0  0
 49 64  1  0  0  0
 49122  1  0  0  0
 50 51  1  0  0  0
 50123  1  0  0  0
 50124  1  0  0  0
 51 52  1  0  0  0
 51125  1  0  0  0
 51126  1  0  0  0
 52127  1  0  0  0
 52128  1  0  0  0
 53 54  1  0  0  0
 54 55  2  0  0  0
 54129  1  0  0  0
 55 57  1  0  0  0
 55130  1  0  0  0
 56 69  2  0  0  0
 57 58  2  0  0  0
 57131  1  0  0  0
 58132  1  0  0  0
 59 60  1  0  0  0
 59 61  1  0  0  0
 59 62  1  0  0  0
 60133  1  0  0  0
 60134  1  0  0  0
 60135  1  0  0  0
 61136  1  0  0  0
 61137  1  0  0  0
 61138  1  0  0  0
 62139  1  0  0  0
 62140  1  0  0  0
 62141  1  0  0  0
 63 65  1  0  0  0
 63142  1  0  0  0
 63143  1  0  0  0
 63144  1  0  0  0
 64145  1  0  0  0
 65146  1  0  0  0
 68 83  1  0  0  0
 71 72  2  0  0  0
 71 74  1  0  0  0
 71147  1  0  0  0
 72 76  1  0  0  0
 72148  1  0  0  0
 73 74  2  0  0  0
 73 75  1  0  0  0
 73149  1  0  0  0
 74 81  1  0  0  0
 75 76  2  0  0  0
 75 85  1  0  0  0
 76 87  1  0  0  0
 77150  1  0  0  0
 77151  1  0  0  0
 77152  1  0  0  0
 77 84  1  0  0  0
 78 84  1  0  0  0
 78153  1  0  0  0
 78154  1  0  0  0
 78155  1  0  0  0
 79 85  1  0  0  0
 79156  1  0  0  0
 79157  1  0  0  0
 79158  1  0  0  0
 80 86  1  0  0  0
 80159  1  0  0  0
 80160  1  0  0  0
 80161  1  0  0  0
 81 86  1  0  0  0
 81162  1  0  0  0
 81163  1  0  0  0
 82 84  1  0  0  0
 82 85  1  0  0  0
 82164  1  0  0  0
 82165  1  0  0  0
 83 84  1  0  0  0
 83166  1  0  0  0
 83167  1  0  0  0
M  ISO  4   1 100  68 101  83 101  86 100
M  END
> <chiral flag>
0

> <version>
0

> <s_m_source_file>
/data/baiqing/PycharmProjects/Reinvent-master-3.2/result/LINK_invent/BTK/process_docking_weight1_custom_product_contain_oxygen_bond_distance_aromatic_linkinvent_7_9_3/rearranged_h_0020.sdf

> <i_m_source_file_index>
74

> <r_mmod_Potential_Energy-OPLS-2005>
233.264190673828

> <r_mmod_Stretch_Energy-OPLS-2005>
61.4826812744141

> <r_mmod_Bend_Energy-OPLS-2005>
157.402481079102

> <r_mmod_Torsional_Energy-OPLS-2005>
284.490875244141

> <r_mmod_Improper_Torsional_Energy-OPLS-2005>
7.44472742080688

> <r_mmod_Van_der_Waal_Energy-OPLS-2005>
178.942443847656

> <r_mmod_Electrostatic_Energy-OPLS-2005>
-286.412078857422

> <r_mmod_Solvation_Energy-OPLS-2005>
-191.895309448242

> <b_mmod_Minimization_Converged-OPLS-2005>
0

> <r_mmod_RMS_Derivative-OPLS-2005>
4.00078344345093

$$$$
75
                    3D
 Structure written by MMmdl.
158167  0  0  1  0            999 V2000
  -30.6105  -14.7759   20.4262 C   0  0  0  0  0  0
  -30.4260  -12.4686   19.4865 C   0  0  0  0  0  0
  -29.5109  -12.5084   18.2432 C   0  0  0  0  0  0
  -28.0372  -12.3319   18.6543 C   0  0  0  0  0  0
  -27.6377  -13.2396   19.8487 C   0  0  2  0  0  0
  -28.6806  -13.1985   20.9865 C   0  0  0  0  0  0
  -25.2486  -13.8215   20.5709 C   0  0  0  0  0  0
  -24.1787  -13.0446   20.9215 C   0  0  0  0  0  0
  -24.6388  -11.6927   20.8746 C   0  0  0  0  0  0
  -23.9070  -10.4296   21.0399 C   0  0  0  0  0  0
  -24.3618   -9.4213   21.9181 C   0  0  0  0  0  0
  -23.6294   -8.2246   22.0754 C   0  0  0  0  0  0
  -22.4277   -8.0280   21.3546 C   0  0  0  0  0  0
  -21.9910   -9.0251   20.4648 C   0  0  0  0  0  0
  -22.7236  -10.2133   20.3053 C   0  0  0  0  0  0
  -21.6859   -6.0729   22.5277 C   0  0  0  0  0  0
  -21.4017   -6.5634   23.8208 C   0  0  0  0  0  0
  -21.3661   -5.6790   24.9172 C   0  0  0  0  0  0
  -21.6046   -4.3053   24.7224 C   0  0  0  0  0  0
  -21.8818   -3.8141   23.4345 C   0  0  0  0  0  0
  -21.9195   -4.6957   22.3402 C   0  0  0  0  0  0
  -22.7808  -13.5222   21.1868 C   0  0  0  0  0  0
  -22.1664   -4.2141   21.0979 F   0  0  0  0  0  0
  -21.5630   -3.4539   25.7738 F   0  0  0  0  0  0
  -29.9803  -13.5481   20.4019 N   0  0  0  0  0  0
  -26.2914  -12.9436   20.3279 N   0  0  0  0  0  0
  -25.9322  -11.6570   20.5757 N   0  0  0  0  0  0
  -22.0456  -12.8208   22.0424 N   0  0  0  0  0  0
  -25.4159  -15.1943   20.4131 N   0  0  0  0  0  0
  -31.8100  -14.8248   20.1380 O   0  0  0  0  0  0
  -21.6647   -6.8872   21.4237 O   0  0  0  0  0  0
  -22.3486  -14.5521   20.6709 O   0  0  0  0  0  0
  -24.6327  -31.8527   23.1959 C   0  0  0  0  0  0
  -25.9146  -32.4739   23.8309 C   0  0  1  0  0  0
  -27.2146  -27.2345   20.1397 C   0  0  0  0  0  0
  -25.5937  -33.8543   24.2231 N   0  0  0  0  0  0
  -23.4301  -30.4740   21.5400 C   0  0  2  0  0  0
  -24.8774  -28.9154   20.1114 C   0  0  0  0  0  0
  -22.7508  -29.4585   22.4910 C   0  0  0  0  0  0
  -18.0293  -28.1382   22.8481 C   0  0  0  0  0  0
  -24.1489  -36.7273   23.2640 C   0  0  0  0  0  0
  -25.9775  -30.7569   21.3800 C   0  0  0  0  0  0
  -26.0491  -29.3761   20.7252 C   0  0  0  0  0  0
  -27.2206  -28.5487   20.7264 C   0  0  0  0  0  0
  -26.0252  -26.8556   19.4801 C   0  0  0  0  0  0
  -24.8721  -27.6649   19.4759 C   0  0  0  0  0  0
  -23.6491  -29.8049   20.1575 C   0  0  0  0  0  0
  -25.4117  -36.3056   24.0321 C   0  0  1  0  0  0
  -20.5896  -28.3693   23.1267 C   0  0  2  0  0  0
  -20.6776  -26.9409   22.5407 C   0  0  0  0  0  0
  -19.5754  -26.6378   21.5208 C   0  0  0  0  0  0
  -18.1936  -26.7923   22.1621 C   0  0  0  0  0  0
  -19.1546  -28.8856   23.2867 C   0  0  0  0  0  0
  -18.9468  -30.1459   23.8882 C   0  0  0  0  0  0
  -17.6468  -30.6585   24.0559 C   0  0  0  0  0  0
  -25.9059  -34.9430   23.5077 C   0  0  0  0  0  0
  -16.5358  -29.9079   23.6337 C   0  0  0  0  0  0
  -16.7279  -28.6496   23.0357 C   0  0  0  0  0  0
  -26.4506  -31.6577   25.0713 C   0  0  0  0  0  0
  -25.3720  -31.3746   26.1431 C   0  0  0  0  0  0
  -27.0359  -30.2988   24.6223 C   0  0  0  0  0  0
  -27.6046  -32.4332   25.7497 C   0  0  0  0  0  0
  -27.5573  -37.1793   24.8466 C   0  0  0  0  0  0
  -21.4212  -29.3035   22.3653 N   0  0  0  0  0  0
  -26.4285  -37.3762   23.9408 N   0  0  0  0  0  0
  -24.6993  -31.0472   22.0945 N   0  0  0  0  0  0
  -23.4201  -28.8132   23.3019 O   0  0  0  0  0  0
  -28.3091  -26.3317   20.1798 O   0  0  0  0  0  0
  -26.5637  -34.8913   22.4650 O   0  0  0  0  0  0
  -23.5473  -32.1365   23.7241 O   0  0  0  0  0  0
  -31.2771  -18.8019   18.4957 C   0  0  0  0  0  0
  -30.6098  -19.9537   18.9489 C   0  0  0  0  0  0
  -31.0248  -17.5348   19.0543 C   0  0  0  0  0  0
  -29.4167  -18.5681   20.5585 C   0  0  0  0  0  0
  -29.6491  -19.8979   19.9792 C   0  0  0  0  0  0
  -30.0997  -17.3454   20.1097 C   0  0  0  0  0  0
  -28.8027  -21.6425   21.6301 C   0  0  0  0  0  0
  -29.0261  -21.2850   20.3457 C   0  0  0  0  0  0
  -28.0315  -22.8870   22.1314 C   0  0  0  0  0  0
  -28.4939  -22.3003   19.2719 C   0  0  0  0  0  0
  -28.5087  -24.3319   21.7453 C   0  0  0  0  0  0
  -28.8551  -23.8665   19.3338 C   0  0  0  0  0  0
  -28.0975  -24.8337   20.3352 C   0  0  2  0  0  0
  -29.8591  -15.9448   20.6007 N   0  0  0  0  0  0
  -31.4690  -12.5799   19.1854 H   0  0  0  0  0  0
  -30.3622  -11.4993   19.9835 H   0  0  0  0  0  0
  -29.7980  -11.7272   17.5378 H   0  0  0  0  0  0
  -29.6369  -13.4577   17.7197 H   0  0  0  0  0  0
  -27.8972  -11.2847   18.9246 H   0  0  0  0  0  0
  -27.3809  -12.5163   17.8028 H   0  0  0  0  0  0
  -27.6245  -14.2573   19.4575 H   0  0  0  0  0  0
  -28.7203  -12.2091   21.4451 H   0  0  0  0  0  0
  -28.4120  -13.8974   21.7803 H   0  0  0  0  0  0
  -25.2760   -9.5697   22.4757 H   0  0  0  0  0  0
  -24.0009   -7.4640   22.7475 H   0  0  0  0  0  0
  -21.0841   -8.8761   19.8954 H   0  0  0  0  0  0
  -22.3685  -10.9666   19.6163 H   0  0  0  0  0  0
  -21.2010   -7.6145   23.9708 H   0  0  0  0  0  0
  -21.1488   -6.0523   25.9076 H   0  0  0  0  0  0
  -22.0596   -2.7601   23.2850 H   0  0  0  0  0  0
  -22.4089  -11.9887   22.4830 H   0  0  0  0  0  0
  -21.1066  -13.1221   22.2620 H   0  0  0  0  0  0
  -24.6456  -15.8452   20.5221 H   0  0  0  0  0  0
  -26.2601  -15.6350   20.0700 H   0  0  0  0  0  0
  -26.7208  -32.5381   23.1042 H   0  0  0  0  0  0
  -25.0085  -33.9677   25.0377 H   0  0  0  0  0  0
  -22.7270  -31.2963   21.3915 H   0  0  0  0  0  0
  -23.3752  -35.9604   23.3302 H   0  0  0  0  0  0
  -24.3572  -36.8900   22.2053 H   0  0  0  0  0  0
  -23.7245  -37.6472   23.6670 H   0  0  0  0  0  0
  -26.1191  -31.5151   20.6085 H   0  0  0  0  0  0
  -26.8537  -30.8073   22.0145 H   0  0  0  0  0  0
  -28.1166  -28.8948   21.2218 H   0  0  0  0  0  0
  -25.9660  -25.9109   18.9605 H   0  0  0  0  0  0
  -23.9798  -27.3121   18.9770 H   0  0  0  0  0  0
  -23.7740  -30.5787   19.3993 H   0  0  0  0  0  0
  -22.7670  -29.2381   19.8538 H   0  0  0  0  0  0
  -25.1304  -36.1891   25.0814 H   0  0  0  0  0  0
  -20.9987  -28.3268   24.1390 H   0  0  0  0  0  0
  -20.5671  -26.2302   23.3612 H   0  0  0  0  0  0
  -21.6645  -26.7428   22.1204 H   0  0  0  0  0  0
  -19.6915  -25.6288   21.1242 H   0  0  0  0  0  0
  -19.6690  -27.3185   20.6736 H   0  0  0  0  0  0
  -17.4203  -26.6668   21.4027 H   0  0  0  0  0  0
  -18.0337  -26.0068   22.9020 H   0  0  0  0  0  0
  -19.7945  -30.7276   24.2240 H   0  0  0  0  0  0
  -17.5024  -31.6266   24.5157 H   0  0  0  0  0  0
  -15.5357  -30.2975   23.7671 H   0  0  0  0  0  0
  -15.8678  -28.0809   22.7082 H   0  0  0  0  0  0
  -24.5894  -30.7093   25.7764 H   0  0  0  0  0  0
  -24.8915  -32.2925   26.4827 H   0  0  0  0  0  0
  -25.8033  -30.8944   27.0224 H   0  0  0  0  0  0
  -26.2951  -29.6728   24.1233 H   0  0  0  0  0  0
  -27.4014  -29.7261   25.4758 H   0  0  0  0  0  0
  -27.8841  -30.4252   23.9490 H   0  0  0  0  0  0
  -27.2634  -33.3636   26.2050 H   0  0  0  0  0  0
  -28.3874  -32.6887   25.0342 H   0  0  0  0  0  0
  -28.0693  -31.8475   26.5439 H   0  0  0  0  0  0
  -28.2594  -38.0087   24.7506 H   0  0  0  0  0  0
  -28.1067  -36.2617   24.6303 H   0  0  0  0  0  0
  -27.2290  -37.1454   25.8870 H   0  0  0  0  0  0
  -20.9400  -29.8757   21.6856 H   0  0  0  0  0  0
  -26.0158  -38.2832   24.1414 H   0  0  0  0  0  0
  -31.9988  -18.8907   17.6949 H   0  0  0  0  0  0
  -30.8560  -20.9010   18.4896 H   0  0  0  0  0  0
  -31.5609  -16.7020   18.6246 H   0  0  0  0  0  0
  -28.6885  -18.4872   21.3529 H   0  0  0  0  0  0
  -29.1085  -20.9539   22.4059 H   0  0  0  0  0  0
  -28.0600  -22.8226   23.2197 H   0  0  0  0  0  0
  -26.9789  -22.7651   21.8726 H   0  0  0  0  0  0
  -27.4132  -22.1755   19.1994 H   0  0  0  0  0  0
  -28.8625  -21.9485   18.3090 H   0  0  0  0  0  0
  -29.5871  -24.4190   21.8813 H   0  0  0  0  0  0
  -28.0710  -25.0217   22.4681 H   0  0  0  0  0  0
  -28.6656  -24.2629   18.3358 H   0  0  0  0  0  0
  -29.9316  -23.9734   19.4723 H   0  0  0  0  0  0
  -27.0362  -24.6133   20.2427 H   0  0  0  0  0  0
  -28.9456  -15.7854   20.9990 H   0  0  0  0  0  0
  1 25  1  0  0  0
  1 30  2  0  0  0
  1 84  1  0  0  0
  2  3  1  0  0  0
  2 25  1  0  0  0
  2 85  1  0  0  0
  2 86  1  0  0  0
  3  4  1  0  0  0
  3 87  1  0  0  0
  3 88  1  0  0  0
  4  5  1  0  0  0
  4 89  1  0  0  0
  4 90  1  0  0  0
  5  6  1  0  0  0
  5 26  1  0  0  0
  5 91  1  0  0  0
  6 25  1  0  0  0
  6 92  1  0  0  0
  6 93  1  0  0  0
  7  8  2  0  0  0
  7 26  1  0  0  0
  7 29  1  0  0  0
  8  9  1  0  0  0
  8 22  1  0  0  0
  9 10  1  0  0  0
  9 27  2  0  0  0
 10 11  2  0  0  0
 10 15  1  0  0  0
 11 12  1  0  0  0
 11 94  1  0  0  0
 12 13  2  0  0  0
 12 95  1  0  0  0
 13 14  1  0  0  0
 13 31  1  0  0  0
 14 15  2  0  0  0
 14 96  1  0  0  0
 15 97  1  0  0  0
 16 17  2  0  0  0
 16 21  1  0  0  0
 16 31  1  0  0  0
 17 18  1  0  0  0
 17 98  1  0  0  0
 18 19  2  0  0  0
 18 99  1  0  0  0
 19 20  1  0  0  0
 19 24  1  0  0  0
 20 21  2  0  0  0
 20100  1  0  0  0
 21 23  1  0  0  0
 22 28  1  0  0  0
 22 32  2  0  0  0
 26 27  1  0  0  0
 28101  1  0  0  0
 28102  1  0  0  0
 29103  1  0  0  0
 29104  1  0  0  0
 33 34  1  0  0  0
 33 66  1  0  0  0
 33 70  2  0  0  0
 34 36  1  0  0  0
 34 59  1  0  0  0
 34105  1  0  0  0
 35 44  2  0  0  0
 35 45  1  0  0  0
 35 68  1  0  0  0
 36 56  1  0  0  0
 36106  1  0  0  0
 37 39  1  0  0  0
 37 47  1  0  0  0
 37 66  1  0  0  0
 37107  1  0  0  0
 38 43  2  0  0  0
 38 46  1  0  0  0
 38 47  1  0  0  0
 39 64  1  0  0  0
 39 67  2  0  0  0
 40 52  1  0  0  0
 40 53  2  0  0  0
 40 58  1  0  0  0
 41108  1  0  0  0
 41109  1  0  0  0
 41110  1  0  0  0
 41 48  1  0  0  0
 42 43  1  0  0  0
 42 66  1  0  0  0
 42111  1  0  0  0
 42112  1  0  0  0
 43 44  1  0  0  0
 44113  1  0  0  0
 45 46  2  0  0  0
 45114  1  0  0  0
 46115  1  0  0  0
 47116  1  0  0  0
 47117  1  0  0  0
 48 56  1  0  0  0
 48 65  1  0  0  0
 48118  1  0  0  0
 49 50  1  0  0  0
 49 53  1  0  0  0
 49 64  1  0  0  0
 49119  1  0  0  0
 50 51  1  0  0  0
 50120  1  0  0  0
 50121  1  0  0  0
 51 52  1  0  0  0
 51122  1  0  0  0
 51123  1  0  0  0
 52124  1  0  0  0
 52125  1  0  0  0
 53 54  1  0  0  0
 54 55  2  0  0  0
 54126  1  0  0  0
 55 57  1  0  0  0
 55127  1  0  0  0
 56 69  2  0  0  0
 57 58  2  0  0  0
 57128  1  0  0  0
 58129  1  0  0  0
 59 60  1  0  0  0
 59 61  1  0  0  0
 59 62  1  0  0  0
 60130  1  0  0  0
 60131  1  0  0  0
 60132  1  0  0  0
 61133  1  0  0  0
 61134  1  0  0  0
 61135  1  0  0  0
 62136  1  0  0  0
 62137  1  0  0  0
 62138  1  0  0  0
 63 65  1  0  0  0
 63139  1  0  0  0
 63140  1  0  0  0
 63141  1  0  0  0
 64142  1  0  0  0
 65143  1  0  0  0
 68 83  1  0  0  0
 71 72  2  0  0  0
 71 73  1  0  0  0
 71144  1  0  0  0
 72 75  1  0  0  0
 72145  1  0  0  0
 73 76  2  0  0  0
 73146  1  0  0  0
 74 75  2  0  0  0
 74 76  1  0  0  0
 74147  1  0  0  0
 75 78  1  0  0  0
 76 84  1  0  0  0
 77 78  2  0  0  0
 77 79  1  0  0  0
 77148  1  0  0  0
 78 80  1  0  0  0
 79 81  1  0  0  0
 79149  1  0  0  0
 79150  1  0  0  0
 80 82  1  0  0  0
 80151  1  0  0  0
 80152  1  0  0  0
 81 83  1  0  0  0
 81153  1  0  0  0
 81154  1  0  0  0
 82 83  1  0  0  0
 82155  1  0  0  0
 82156  1  0  0  0
 83157  1  0  0  0
 84158  1  0  0  0
M  ISO  4   1 100  68 101  83 101  84 100
M  END
> <chiral flag>
0

> <version>
0

> <s_m_source_file>
/data/baiqing/PycharmProjects/Reinvent-master-3.2/result/LINK_invent/BTK/process_docking_weight1_custom_product_contain_oxygen_bond_distance_aromatic_linkinvent_7_9_3/rearranged_h_0020.sdf

> <i_m_source_file_index>
75

> <r_mmod_Potential_Energy-OPLS-2005>
263.553771972656

> <r_mmod_Stretch_Energy-OPLS-2005>
140.233108520508

> <r_mmod_Bend_Energy-OPLS-2005>
185.360549926758

> <r_mmod_Torsional_Energy-OPLS-2005>
261.002685546875

> <r_mmod_Improper_Torsional_Energy-OPLS-2005>
4.3224458694458

> <r_mmod_Van_der_Waal_Energy-OPLS-2005>
142.533355712891

> <r_mmod_Electrostatic_Energy-OPLS-2005>
-369.238677978516

> <r_mmod_Solvation_Energy-OPLS-2005>
-200.499542236328

> <b_mmod_Minimization_Converged-OPLS-2005>
0

> <r_mmod_RMS_Derivative-OPLS-2005>
0.631439566612244

$$$$
76
                    3D
 Structure written by MMmdl.
171179  0  0  1  0            999 V2000
  -30.6914  -14.4838   20.4678 C   0  0  0  0  0  0
  -30.4309  -12.2754   19.4325 C   0  0  0  0  0  0
  -29.4917  -12.3787   18.2133 C   0  0  0  0  0  0
  -28.0100  -12.3109   18.6300 C   0  0  0  0  0  0
  -27.6568  -13.1956   19.8564 C   0  0  2  0  0  0
  -28.7052  -13.0392   20.9799 C   0  0  0  0  0  0
  -25.2588  -13.8140   20.5641 C   0  0  0  0  0  0
  -24.1843  -13.0457   20.9217 C   0  0  0  0  0  0
  -24.6366  -11.6917   20.8792 C   0  0  0  0  0  0
  -23.9027  -10.4319   21.0445 C   0  0  0  0  0  0
  -24.3579   -9.4223   21.9204 C   0  0  0  0  0  0
  -23.6273   -8.2234   22.0766 C   0  0  0  0  0  0
  -22.4270   -8.0271   21.3538 C   0  0  0  0  0  0
  -21.9883   -9.0253   20.4660 C   0  0  0  0  0  0
  -22.7201  -10.2143   20.3083 C   0  0  0  0  0  0
  -21.6841   -6.0744   22.5276 C   0  0  0  0  0  0
  -21.3997   -6.5640   23.8219 C   0  0  0  0  0  0
  -21.3664   -5.6777   24.9171 C   0  0  0  0  0  0
  -21.6052   -4.3045   24.7216 C   0  0  0  0  0  0
  -21.8816   -3.8141   23.4341 C   0  0  0  0  0  0
  -21.9185   -4.6961   22.3405 C   0  0  0  0  0  0
  -22.7855  -13.5286   21.1832 C   0  0  0  0  0  0
  -22.1659   -4.2140   21.0977 F   0  0  0  0  0  0
  -21.5643   -3.4546   25.7744 F   0  0  0  0  0  0
  -30.0284  -13.3040   20.3987 N   0  0  0  0  0  0
  -26.3019  -12.9269   20.3338 N   0  0  0  0  0  0
  -25.9294  -11.6465   20.5854 N   0  0  0  0  0  0
  -22.0475  -12.8306   22.0398 N   0  0  0  0  0  0
  -25.4406  -15.1825   20.3957 N   0  0  0  0  0  0
  -31.8933  -14.6067   20.2133 O   0  0  0  0  0  0
  -21.6641   -6.8870   21.4238 O   0  0  0  0  0  0
  -22.3560  -14.5605   20.6700 O   0  0  0  0  0  0
  -24.6189  -31.8693   23.2123 C   0  0  0  0  0  0
  -25.9072  -32.4829   23.8430 C   0  0  1  0  0  0
  -27.2044  -27.4036   20.1199 C   0  0  0  0  0  0
  -25.5900  -33.8624   24.2332 N   0  0  0  0  0  0
  -23.4050  -30.4968   21.5531 C   0  0  2  0  0  0
  -24.8473  -28.9593   20.1165 C   0  0  0  0  0  0
  -22.7441  -29.4684   22.4994 C   0  0  0  0  0  0
  -18.0305  -28.1348   22.8444 C   0  0  0  0  0  0
  -24.1471  -36.7310   23.2637 C   0  0  0  0  0  0
  -25.9381  -30.8179   21.3798 C   0  0  0  0  0  0
  -26.0072  -29.4519   20.7311 C   0  0  0  0  0  0
  -27.1927  -28.6787   20.7392 C   0  0  0  0  0  0
  -26.0381  -26.9500   19.4725 C   0  0  0  0  0  0
  -24.8577  -27.7084   19.4802 C   0  0  0  0  0  0
  -23.6145  -29.8339   20.1662 C   0  0  0  0  0  0
  -25.4089  -36.3120   24.0352 C   0  0  1  0  0  0
  -20.5891  -28.3685   23.1239 C   0  0  2  0  0  0
  -20.6850  -26.9455   22.5294 C   0  0  0  0  0  0
  -19.5808  -26.6414   21.5129 C   0  0  0  0  0  0
  -18.1977  -26.7913   22.1548 C   0  0  0  0  0  0
  -19.1527  -28.8837   23.2845 C   0  0  0  0  0  0
  -18.9453  -30.1429   23.8879 C   0  0  0  0  0  0
  -17.6464  -30.6569   24.0533 C   0  0  0  0  0  0
  -25.9034  -34.9474   23.5136 C   0  0  0  0  0  0
  -16.5370  -29.9049   23.6295 C   0  0  0  0  0  0
  -16.7281  -28.6463   23.0323 C   0  0  0  0  0  0
  -26.4448  -31.6622   25.0762 C   0  0  0  0  0  0
  -25.3691  -31.3769   26.1499 C   0  0  0  0  0  0
  -27.0291  -30.3046   24.6222 C   0  0  0  0  0  0
  -27.6023  -32.4349   25.7512 C   0  0  0  0  0  0
  -27.5579  -37.1812   24.8461 C   0  0  0  0  0  0
  -21.4175  -29.3026   22.3653 N   0  0  0  0  0  0
  -26.4285  -37.3801   23.9409 N   0  0  0  0  0  0
  -24.6709  -31.0771   22.1052 N   0  0  0  0  0  0
  -23.4167  -28.8231   23.3095 O   0  0  0  0  0  0
  -28.3333  -26.6206   20.0433 O   0  0  0  0  0  0
  -26.5592  -34.8947   22.4705 O   0  0  0  0  0  0
  -23.5379  -32.1447   23.7521 O   0  0  0  0  0  0
  -27.7952  -18.0543   20.9072 C   0  0  0  0  0  0
  -30.0046  -18.9703   20.4477 C   0  0  0  0  0  0
  -27.2030  -19.1885   20.3126 C   0  0  0  0  0  0
  -29.4159  -20.1074   19.8578 C   0  0  0  0  0  0
  -29.2001  -17.9205   20.9423 C   0  0  0  0  0  0
  -28.0119  -20.2063   19.7536 C   0  0  0  0  0  0
  -28.7302  -23.4588   22.1730 C   0  0  0  0  0  0
  -26.5038  -24.5610   21.9509 C   0  0  0  0  0  0
  -29.7580  -16.0652   18.9439 C   0  0  0  0  0  0
  -25.4626  -22.7598   19.4578 C   0  0  0  0  0  0
  -29.8478  -16.6010   21.3783 C   0  0  0  0  0  0
  -27.3800  -21.3419   18.9542 C   0  0  0  0  0  0
  -27.7643  -23.6531   19.8452 C   0  0  0  0  0  0
  -28.6105  -25.7389   21.1467 C   0  0  0  0  0  0
  -27.8676  -24.3560   21.2445 C   0  0  0  0  0  0
  -29.8861  -15.5624   20.3257 N   0  0  0  0  0  0
  -26.8732  -22.4489   19.8111 N   0  3  1  0  0  0
  -31.4719  -12.3847   19.1171 H   0  0  0  0  0  0
  -30.3616  -11.2900   19.8946 H   0  0  0  0  0  0
  -29.7070  -11.5581   17.5314 H   0  0  0  0  0  0
  -29.6839  -13.2801   17.6393 H   0  0  0  0  0  0
  -27.7966  -11.2683   18.8646 H   0  0  0  0  0  0
  -27.3680  -12.5657   17.7877 H   0  0  0  0  0  0
  -27.6795  -14.2280   19.5104 H   0  0  0  0  0  0
  -28.6771  -12.0301   21.3976 H   0  0  0  0  0  0
  -28.4899  -13.7237   21.8042 H   0  0  0  0  0  0
  -25.2716   -9.5719   22.4796 H   0  0  0  0  0  0
  -24.0002   -7.4627   22.7488 H   0  0  0  0  0  0
  -21.0809   -8.8779   19.8959 H   0  0  0  0  0  0
  -22.3653  -10.9700   19.6206 H   0  0  0  0  0  0
  -21.1978   -7.6136   23.9711 H   0  0  0  0  0  0
  -21.1493   -6.0521   25.9082 H   0  0  0  0  0  0
  -22.0591   -2.7618   23.2852 H   0  0  0  0  0  0
  -22.4034  -11.9928   22.4764 H   0  0  0  0  0  0
  -21.1110  -13.1397   22.2616 H   0  0  0  0  0  0
  -24.6826  -15.8493   20.4862 H   0  0  0  0  0  0
  -26.2961  -15.5964   20.0491 H   0  0  0  0  0  0
  -26.7130  -32.5543   23.1196 H   0  0  0  0  0  0
  -25.0097  -33.9782   25.0501 H   0  0  0  0  0  0
  -22.6995  -31.3156   21.4152 H   0  0  0  0  0  0
  -23.3753  -35.9626   23.3319 H   0  0  0  0  0  0
  -24.3579  -36.8903   22.2049 H   0  0  0  0  0  0
  -23.7201  -37.6513   23.6639 H   0  0  0  0  0  0
  -26.0784  -31.5799   20.6112 H   0  0  0  0  0  0
  -26.8185  -30.8536   22.0124 H   0  0  0  0  0  0
  -28.0882  -29.0534   21.2138 H   0  0  0  0  0  0
  -26.0264  -26.0012   18.9628 H   0  0  0  0  0  0
  -23.9711  -27.3349   18.9879 H   0  0  0  0  0  0
  -23.7418  -30.6078   19.4084 H   0  0  0  0  0  0
  -22.7328  -29.2615   19.8647 H   0  0  0  0  0  0
  -25.1268  -36.2007   25.0851 H   0  0  0  0  0  0
  -20.9971  -28.3258   24.1363 H   0  0  0  0  0  0
  -20.5900  -26.2307   23.3470 H   0  0  0  0  0  0
  -21.6705  -26.7623   22.0974 H   0  0  0  0  0  0
  -19.7027  -25.6354   21.1121 H   0  0  0  0  0  0
  -19.6706  -27.3273   20.6691 H   0  0  0  0  0  0
  -17.4284  -26.6692   21.3921 H   0  0  0  0  0  0
  -18.0366  -25.9977   22.8865 H   0  0  0  0  0  0
  -19.7915  -30.7226   24.2284 H   0  0  0  0  0  0
  -17.5003  -31.6240   24.5114 H   0  0  0  0  0  0
  -15.5359  -30.2961   23.7582 H   0  0  0  0  0  0
  -15.8695  -28.0778   22.7039 H   0  0  0  0  0  0
  -24.5832  -30.7149   25.7847 H   0  0  0  0  0  0
  -24.8915  -32.2936   26.4974 H   0  0  0  0  0  0
  -25.8009  -30.8916   27.0258 H   0  0  0  0  0  0
  -26.2890  -29.6815   24.1178 H   0  0  0  0  0  0
  -27.3890  -29.7301   25.4772 H   0  0  0  0  0  0
  -27.8805  -30.4341   23.9529 H   0  0  0  0  0  0
  -27.2639  -33.3634   26.2137 H   0  0  0  0  0  0
  -28.3793  -32.6938   25.0300 H   0  0  0  0  0  0
  -28.0727  -31.8442   26.5387 H   0  0  0  0  0  0
  -28.2609  -38.0097   24.7519 H   0  0  0  0  0  0
  -28.1066  -36.2641   24.6275 H   0  0  0  0  0  0
  -27.2319  -37.1453   25.8870 H   0  0  0  0  0  0
  -20.9431  -29.8609   21.6698 H   0  0  0  0  0  0
  -26.0196  -38.2899   24.1389 H   0  0  0  0  0  0
  -27.1680  -17.2603   21.2840 H   0  0  0  0  0  0
  -31.0807  -18.8794   20.4555 H   0  0  0  0  0  0
  -26.1253  -19.2415   20.2361 H   0  0  0  0  0  0
  -30.0498  -20.8693   19.4255 H   0  0  0  0  0  0
  -28.2594  -22.4997   22.3946 H   0  0  0  0  0  0
  -28.9154  -23.9482   23.1294 H   0  0  0  0  0  0
  -29.7055  -23.2335   21.7356 H   0  0  0  0  0  0
  -25.9864  -23.6181   22.1454 H   0  0  0  0  0  0
  -25.8265  -25.1971   21.3872 H   0  0  0  0  0  0
  -26.6282  -25.0296   22.9308 H   0  0  0  0  0  0
  -30.4676  -16.8698   18.7488 H   0  0  0  0  0  0
  -28.7494  -16.4300   18.7495 H   0  0  0  0  0  0
  -29.9583  -15.3066   18.1922 H   0  0  0  0  0  0
  -24.8315  -21.8849   19.6089 H   0  0  0  0  0  0
  -25.3655  -23.0490   18.4123 H   0  0  0  0  0  0
  -25.0277  -23.5601   20.0458 H   0  0  0  0  0  0
  -29.3200  -16.2105   22.2466 H   0  0  0  0  0  0
  -30.8643  -16.8134   21.7164 H   0  0  0  0  0  0
  -26.5679  -20.8958   18.3768 H   0  0  0  0  0  0
  -28.0764  -21.7089   18.1996 H   0  0  0  0  0  0
  -28.7719  -23.3553   19.5466 H   0  0  0  0  0  0
  -27.4536  -24.3446   19.0650 H   0  0  0  0  0  0
  -28.4961  -26.2936   22.0792 H   0  0  0  0  0  0
  -29.6793  -25.5344   21.0809 H   0  0  0  0  0  0
  -26.8670  -22.0710   20.7460 H   0  0  0  0  0  0
  1 25  1  0  0  0
  1 30  2  0  0  0
  1 86  1  0  0  0
  2  3  1  0  0  0
  2 25  1  0  0  0
  2 88  1  0  0  0
  2 89  1  0  0  0
  3  4  1  0  0  0
  3 90  1  0  0  0
  3 91  1  0  0  0
  4  5  1  0  0  0
  4 92  1  0  0  0
  4 93  1  0  0  0
  5  6  1  0  0  0
  5 26  1  0  0  0
  5 94  1  0  0  0
  6 25  1  0  0  0
  6 95  1  0  0  0
  6 96  1  0  0  0
  7  8  2  0  0  0
  7 26  1  0  0  0
  7 29  1  0  0  0
  8  9  1  0  0  0
  8 22  1  0  0  0
  9 10  1  0  0  0
  9 27  2  0  0  0
 10 11  2  0  0  0
 10 15  1  0  0  0
 11 12  1  0  0  0
 11 97  1  0  0  0
 12 13  2  0  0  0
 12 98  1  0  0  0
 13 14  1  0  0  0
 13 31  1  0  0  0
 14 15  2  0  0  0
 14 99  1  0  0  0
 15100  1  0  0  0
 16 17  2  0  0  0
 16 21  1  0  0  0
 16 31  1  0  0  0
 17 18  1  0  0  0
 17101  1  0  0  0
 18 19  2  0  0  0
 18102  1  0  0  0
 19 20  1  0  0  0
 19 24  1  0  0  0
 20 21  2  0  0  0
 20103  1  0  0  0
 21 23  1  0  0  0
 22 28  1  0  0  0
 22 32  2  0  0  0
 26 27  1  0  0  0
 28104  1  0  0  0
 28105  1  0  0  0
 29106  1  0  0  0
 29107  1  0  0  0
 33 34  1  0  0  0
 33 66  1  0  0  0
 33 70  2  0  0  0
 34 36  1  0  0  0
 34 59  1  0  0  0
 34108  1  0  0  0
 35 44  2  0  0  0
 35 45  1  0  0  0
 35 68  1  0  0  0
 36 56  1  0  0  0
 36109  1  0  0  0
 37 39  1  0  0  0
 37 47  1  0  0  0
 37 66  1  0  0  0
 37110  1  0  0  0
 38 43  2  0  0  0
 38 46  1  0  0  0
 38 47  1  0  0  0
 39 64  1  0  0  0
 39 67  2  0  0  0
 40 52  1  0  0  0
 40 53  2  0  0  0
 40 58  1  0  0  0
 41111  1  0  0  0
 41112  1  0  0  0
 41113  1  0  0  0
 41 48  1  0  0  0
 42 43  1  0  0  0
 42 66  1  0  0  0
 42114  1  0  0  0
 42115  1  0  0  0
 43 44  1  0  0  0
 44116  1  0  0  0
 45 46  2  0  0  0
 45117  1  0  0  0
 46118  1  0  0  0
 47119  1  0  0  0
 47120  1  0  0  0
 48 56  1  0  0  0
 48 65  1  0  0  0
 48121  1  0  0  0
 49 50  1  0  0  0
 49 53  1  0  0  0
 49 64  1  0  0  0
 49122  1  0  0  0
 50 51  1  0  0  0
 50123  1  0  0  0
 50124  1  0  0  0
 51 52  1  0  0  0
 51125  1  0  0  0
 51126  1  0  0  0
 52127  1  0  0  0
 52128  1  0  0  0
 53 54  1  0  0  0
 54 55  2  0  0  0
 54129  1  0  0  0
 55 57  1  0  0  0
 55130  1  0  0  0
 56 69  2  0  0  0
 57 58  2  0  0  0
 57131  1  0  0  0
 58132  1  0  0  0
 59 60  1  0  0  0
 59 61  1  0  0  0
 59 62  1  0  0  0
 60133  1  0  0  0
 60134  1  0  0  0
 60135  1  0  0  0
 61136  1  0  0  0
 61137  1  0  0  0
 61138  1  0  0  0
 62139  1  0  0  0
 62140  1  0  0  0
 62141  1  0  0  0
 63 65  1  0  0  0
 63142  1  0  0  0
 63143  1  0  0  0
 63144  1  0  0  0
 64145  1  0  0  0
 65146  1  0  0  0
 68 84  1  0  0  0
 71 73  2  0  0  0
 71 75  1  0  0  0
 71147  1  0  0  0
 72 74  1  0  0  0
 72 75  2  0  0  0
 72148  1  0  0  0
 73 76  1  0  0  0
 73149  1  0  0  0
 74 76  2  0  0  0
 74150  1  0  0  0
 75 81  1  0  0  0
 76 82  1  0  0  0
 77151  1  0  0  0
 77152  1  0  0  0
 77153  1  0  0  0
 77 85  1  0  0  0
 78 85  1  0  0  0
 78154  1  0  0  0
 78155  1  0  0  0
 78156  1  0  0  0
 79 86  1  0  0  0
 79157  1  0  0  0
 79158  1  0  0  0
 79159  1  0  0  0
 80160  1  0  0  0
 80161  1  0  0  0
 80162  1  0  0  0
 80 87  1  0  0  0
 81 86  1  0  0  0
 81163  1  0  0  0
 81164  1  0  0  0
 82 87  1  0  0  0
 82165  1  0  0  0
 82166  1  0  0  0
 83 85  1  0  0  0
 83 87  1  0  0  0
 83167  1  0  0  0
 83168  1  0  0  0
 84 85  1  0  0  0
 84169  1  0  0  0
 84170  1  0  0  0
 87171  1  0  0  0
M  CHG  1  87   1
M  ISO  4   1 100  68 101  84 101  86 100
M  END
> <chiral flag>
0

> <version>
0

> <s_m_source_file>
/data/baiqing/PycharmProjects/Reinvent-master-3.2/result/LINK_invent/BTK/process_docking_weight1_custom_product_contain_oxygen_bond_distance_aromatic_linkinvent_7_9_3/rearranged_h_0020.sdf

> <i_m_source_file_index>
76

> <r_mmod_Potential_Energy-OPLS-2005>
48.6369781494141

> <r_mmod_Stretch_Energy-OPLS-2005>
42.2311172485352

> <r_mmod_Bend_Energy-OPLS-2005>
112.455993652344

> <r_mmod_Torsional_Energy-OPLS-2005>
347.577331542969

> <r_mmod_Improper_Torsional_Energy-OPLS-2005>
19.1538391113281

> <r_mmod_Van_der_Waal_Energy-OPLS-2005>
148.016143798828

> <r_mmod_Electrostatic_Energy-OPLS-2005>
-239.853378295898

> <r_mmod_Solvation_Energy-OPLS-2005>
-407.946716308594

> <b_mmod_Minimization_Converged-OPLS-2005>
0

> <r_mmod_RMS_Derivative-OPLS-2005>
5.85611867904663

$$$$
77
                    3D
 Structure written by MMmdl.
162171  0  0  1  0            999 V2000
  -30.6981  -14.6599   20.5238 C   0  0  0  0  0  0
  -30.4227  -12.4202   19.4584 C   0  0  0  0  0  0
  -29.5033  -12.5212   18.2242 C   0  0  0  0  0  0
  -28.0317  -12.3606   18.6460 C   0  0  0  0  0  0
  -27.6563  -13.2425   19.8666 C   0  0  2  0  0  0
  -28.7033  -13.1489   21.0001 C   0  0  0  0  0  0
  -25.2556  -13.8271   20.5703 C   0  0  0  0  0  0
  -24.1873  -13.0519   20.9170 C   0  0  0  0  0  0
  -24.6445  -11.6969   20.8722 C   0  0  0  0  0  0
  -23.9141  -10.4351   21.0370 C   0  0  0  0  0  0
  -24.3704   -9.4253   21.9139 C   0  0  0  0  0  0
  -23.6360   -8.2314   22.0754 C   0  0  0  0  0  0
  -22.4324   -8.0348   21.3543 C   0  0  0  0  0  0
  -21.9966   -9.0330   20.4641 C   0  0  0  0  0  0
  -22.7333  -10.2190   20.3019 C   0  0  0  0  0  0
  -21.6867   -6.0787   22.5295 C   0  0  0  0  0  0
  -21.4027   -6.5659   23.8250 C   0  0  0  0  0  0
  -21.3623   -5.6781   24.9186 C   0  0  0  0  0  0
  -21.6040   -4.3045   24.7210 C   0  0  0  0  0  0
  -21.8819   -3.8175   23.4320 C   0  0  0  0  0  0
  -21.9194   -4.7021   22.3393 C   0  0  0  0  0  0
  -22.7859  -13.5257   21.1812 C   0  0  0  0  0  0
  -22.1660   -4.2207   21.0965 F   0  0  0  0  0  0
  -21.5605   -3.4514   25.7712 F   0  0  0  0  0  0
  -30.0149  -13.4706   20.4191 N   0  0  0  0  0  0
  -26.3047  -12.9507   20.3382 N   0  0  0  0  0  0
  -25.9390  -11.6639   20.5816 N   0  0  0  0  0  0
  -22.0512  -12.8291   22.0369 N   0  0  0  0  0  0
  -25.4195  -15.2018   20.4118 N   0  0  0  0  0  0
  -31.8261  -14.7676   20.0322 O   0  0  0  0  0  0
  -21.6660   -6.8955   21.4266 O   0  0  0  0  0  0
  -22.3523  -14.5563   20.6631 O   0  0  0  0  0  0
  -24.6256  -31.8489   23.2018 C   0  0  0  0  0  0
  -25.9097  -32.4743   23.8323 C   0  0  1  0  0  0
  -27.2526  -27.2988   20.1339 C   0  0  0  0  0  0
  -25.5933  -33.8549   24.2265 N   0  0  0  0  0  0
  -23.4281  -30.4606   21.5413 C   0  0  2  0  0  0
  -24.8794  -28.9029   20.1297 C   0  0  0  0  0  0
  -22.7482  -29.4499   22.4966 C   0  0  0  0  0  0
  -18.0228  -28.1355   22.8536 C   0  0  0  0  0  0
  -24.1525  -36.7243   23.2638 C   0  0  0  0  0  0
  -25.9642  -30.7750   21.3810 C   0  0  0  0  0  0
  -26.0423  -29.3980   20.7293 C   0  0  0  0  0  0
  -27.2210  -28.5978   20.7322 C   0  0  0  0  0  0
  -26.0475  -26.8443   19.5456 C   0  0  0  0  0  0
  -24.8758  -27.6250   19.5419 C   0  0  0  0  0  0
  -23.6583  -29.7911   20.1589 C   0  0  0  0  0  0
  -25.4138  -36.3050   24.0334 C   0  0  1  0  0  0
  -20.5839  -28.3652   23.1387 C   0  0  2  0  0  0
  -20.6781  -26.9407   22.5431 C   0  0  0  0  0  0
  -19.5690  -26.6346   21.5310 C   0  0  0  0  0  0
  -18.1828  -26.7923   22.1655 C   0  0  0  0  0  0
  -19.1480  -28.8818   23.2968 C   0  0  0  0  0  0
  -18.9342  -30.1403   23.9047 C   0  0  0  0  0  0
  -17.6330  -30.6572   24.0558 C   0  0  0  0  0  0
  -25.9035  -34.9430   23.5087 C   0  0  0  0  0  0
  -16.5249  -29.9080   23.6213 C   0  0  0  0  0  0
  -16.7203  -28.6462   23.0353 C   0  0  0  0  0  0
  -26.4488  -31.6579   25.0714 C   0  0  0  0  0  0
  -25.3733  -31.3761   26.1467 C   0  0  0  0  0  0
  -27.0354  -30.3021   24.6185 C   0  0  0  0  0  0
  -27.6076  -32.4245   25.7476 C   0  0  0  0  0  0
  -27.5587  -37.1789   24.8470 C   0  0  0  0  0  0
  -21.4172  -29.3000   22.3811 N   0  0  0  0  0  0
  -26.4301  -37.3743   23.9417 N   0  0  0  0  0  0
  -24.6907  -31.0477   22.0986 N   0  0  0  0  0  0
  -23.4209  -28.8042   23.3055 O   0  0  0  0  0  0
  -28.4190  -26.5097   20.1862 O   0  0  0  0  0  0
  -26.5571  -34.8907   22.4643 O   0  0  0  0  0  0
  -23.5389  -32.1262   23.7322 O   0  0  0  0  0  0
  -28.8701  -20.6121   21.4995 C   0  0  0  0  0  0
  -29.2535  -20.2739   19.1655 C   0  0  0  0  0  0
  -29.3375  -18.2847   20.6710 C   0  0  0  0  0  0
  -28.8929  -21.1854   20.1990 C   0  0  0  0  0  0
  -29.1011  -19.2133   21.7323 C   0  0  0  0  0  0
  -29.4573  -18.8758   19.3825 C   0  0  0  0  0  0
  -26.3851  -23.2186   21.0300 C   0  0  0  0  0  0
  -27.6052  -23.9384   21.6166 C   0  0  0  0  0  0
  -26.9119  -22.4157   19.8271 C   0  0  0  0  0  0
  -28.6624  -23.8266   20.5290 C   0  0  2  0  0  0
  -30.9355  -16.1194   22.4443 C   0  0  0  0  0  0
  -29.1331  -16.7135   20.8435 C   0  0  0  0  0  0
  -28.5416  -25.1477   19.5988 C   0  0  0  0  0  0
  -28.3768  -22.4995   19.8638 N   0  0  0  0  0  0
  -30.1819  -15.7055   21.2622 N   0  0  0  0  0  0
  -28.9890  -18.7471   22.9998 F   0  0  0  0  0  0
  -29.7349  -17.8724   18.0001 Cl  0  0  0  0  0  0
  -31.4689  -12.5078   19.1557 H   0  0  0  0  0  0
  -30.3402  -11.4399   19.9300 H   0  0  0  0  0  0
  -29.7709  -11.7553   17.4945 H   0  0  0  0  0  0
  -29.6482  -13.4826   17.7273 H   0  0  0  0  0  0
  -27.8751  -11.3110   18.8936 H   0  0  0  0  0  0
  -27.3733  -12.5790   17.8040 H   0  0  0  0  0  0
  -27.6592  -14.2721   19.5089 H   0  0  0  0  0  0
  -28.7160  -12.1505   21.4395 H   0  0  0  0  0  0
  -28.4531  -13.8367   21.8096 H   0  0  0  0  0  0
  -25.2861   -9.5738   22.4684 H   0  0  0  0  0  0
  -24.0043   -7.4709   22.7493 H   0  0  0  0  0  0
  -21.0887   -8.8900   19.8946 H   0  0  0  0  0  0
  -22.3820  -10.9730   19.6115 H   0  0  0  0  0  0
  -21.2034   -7.6154   23.9809 H   0  0  0  0  0  0
  -21.1409   -6.0451   25.9095 H   0  0  0  0  0  0
  -22.0615   -2.7641   23.2786 H   0  0  0  0  0  0
  -22.4109  -11.9940   22.4762 H   0  0  0  0  0  0
  -21.1134  -13.1348   22.2587 H   0  0  0  0  0  0
  -24.6445  -15.8457   20.5331 H   0  0  0  0  0  0
  -26.2669  -15.6531   20.0978 H   0  0  0  0  0  0
  -26.7179  -32.5420   23.1062 H   0  0  0  0  0  0
  -25.0277  -33.9695   25.0544 H   0  0  0  0  0  0
  -22.7184  -31.2721   21.3769 H   0  0  0  0  0  0
  -23.3798  -35.9558   23.3294 H   0  0  0  0  0  0
  -24.3632  -36.8855   22.2049 H   0  0  0  0  0  0
  -23.7243  -37.6440   23.6634 H   0  0  0  0  0  0
  -26.0974  -31.5403   20.6173 H   0  0  0  0  0  0
  -26.8426  -30.8182   22.0136 H   0  0  0  0  0  0
  -28.1066  -28.9564   21.2353 H   0  0  0  0  0  0
  -25.9727  -25.8530   19.1339 H   0  0  0  0  0  0
  -23.9709  -27.2122   19.1110 H   0  0  0  0  0  0
  -23.8257  -30.5529   19.3931 H   0  0  0  0  0  0
  -22.7875  -29.2208   19.8373 H   0  0  0  0  0  0
  -25.1315  -36.1891   25.0810 H   0  0  0  0  0  0
  -20.9875  -28.3185   24.1545 H   0  0  0  0  0  0
  -20.5986  -26.2164   23.3575 H   0  0  0  0  0  0
  -21.6608  -26.7672   22.0988 H   0  0  0  0  0  0
  -19.6847  -25.6256   21.1333 H   0  0  0  0  0  0
  -19.6685  -27.3122   20.6847 H   0  0  0  0  0  0
  -17.4167  -26.6930   21.3925 H   0  0  0  0  0  0
  -17.9962  -25.9986   22.8913 H   0  0  0  0  0  0
  -19.7792  -30.7179   24.2573 H   0  0  0  0  0  0
  -17.4783  -31.6290   24.5063 H   0  0  0  0  0  0
  -15.5213  -30.2944   23.7385 H   0  0  0  0  0  0
  -15.8627  -28.0759   22.7002 H   0  0  0  0  0  0
  -24.5946  -30.7025   25.7887 H   0  0  0  0  0  0
  -24.8866  -32.2931   26.4788 H   0  0  0  0  0  0
  -25.8091  -30.9072   27.0303 H   0  0  0  0  0  0
  -26.2986  -29.6764   24.1143 H   0  0  0  0  0  0
  -27.4034  -29.7281   25.4705 H   0  0  0  0  0  0
  -27.8839  -30.4399   23.9480 H   0  0  0  0  0  0
  -27.2794  -33.3586   26.2057 H   0  0  0  0  0  0
  -28.3929  -32.6701   25.0304 H   0  0  0  0  0  0
  -28.0675  -31.8299   26.5386 H   0  0  0  0  0  0
  -28.2582  -38.0111   24.7495 H   0  0  0  0  0  0
  -28.1110  -36.2619   24.6321 H   0  0  0  0  0  0
  -27.2306  -37.1467   25.8880 H   0  0  0  0  0  0
  -20.9328  -29.8718   21.7014 H   0  0  0  0  0  0
  -26.0182  -38.2816   24.1418 H   0  0  0  0  0  0
  -28.5745  -21.2471   22.3189 H   0  0  0  0  0  0
  -29.2880  -20.6271   18.1456 H   0  0  0  0  0  0
  -25.6425  -23.9485   20.7104 H   0  0  0  0  0  0
  -25.9006  -22.5673   21.7572 H   0  0  0  0  0  0
  -27.9833  -23.4693   22.5214 H   0  0  0  0  0  0
  -27.3875  -24.9728   21.8811 H   0  0  0  0  0  0
  -26.5467  -22.8133   18.8806 H   0  0  0  0  0  0
  -26.5309  -21.3923   19.8714 H   0  0  0  0  0  0
  -29.6436  -23.7953   21.0147 H   0  0  0  0  0  0
  -31.5457  -16.9982   22.2348 H   0  0  0  0  0  0
  -31.5859  -15.3239   22.8199 H   0  0  0  0  0  0
  -30.2420  -16.3605   23.2491 H   0  0  0  0  0  0
  -28.6517  -16.3378   19.9432 H   0  0  0  0  0  0
  -28.3576  -16.6347   21.6055 H   0  0  0  0  0  0
  -27.7953  -25.0078   18.8218 H   0  0  0  0  0  0
  -29.4805  -25.1967   19.0448 H   0  0  0  0  0  0
  1 25  1  0  0  0
  1 30  2  0  0  0
  1 85  1  0  0  0
  2  3  1  0  0  0
  2 25  1  0  0  0
  2 88  1  0  0  0
  2 89  1  0  0  0
  3  4  1  0  0  0
  3 90  1  0  0  0
  3 91  1  0  0  0
  4  5  1  0  0  0
  4 92  1  0  0  0
  4 93  1  0  0  0
  5  6  1  0  0  0
  5 26  1  0  0  0
  5 94  1  0  0  0
  6 25  1  0  0  0
  6 95  1  0  0  0
  6 96  1  0  0  0
  7  8  2  0  0  0
  7 26  1  0  0  0
  7 29  1  0  0  0
  8  9  1  0  0  0
  8 22  1  0  0  0
  9 10  1  0  0  0
  9 27  2  0  0  0
 10 11  2  0  0  0
 10 15  1  0  0  0
 11 12  1  0  0  0
 11 97  1  0  0  0
 12 13  2  0  0  0
 12 98  1  0  0  0
 13 14  1  0  0  0
 13 31  1  0  0  0
 14 15  2  0  0  0
 14 99  1  0  0  0
 15100  1  0  0  0
 16 17  2  0  0  0
 16 21  1  0  0  0
 16 31  1  0  0  0
 17 18  1  0  0  0
 17101  1  0  0  0
 18 19  2  0  0  0
 18102  1  0  0  0
 19 20  1  0  0  0
 19 24  1  0  0  0
 20 21  2  0  0  0
 20103  1  0  0  0
 21 23  1  0  0  0
 22 28  1  0  0  0
 22 32  2  0  0  0
 26 27  1  0  0  0
 28104  1  0  0  0
 28105  1  0  0  0
 29106  1  0  0  0
 29107  1  0  0  0
 33 34  1  0  0  0
 33 66  1  0  0  0
 33 70  2  0  0  0
 34 36  1  0  0  0
 34 59  1  0  0  0
 34108  1  0  0  0
 35 44  2  0  0  0
 35 45  1  0  0  0
 35 68  1  0  0  0
 36 56  1  0  0  0
 36109  1  0  0  0
 37 39  1  0  0  0
 37 47  1  0  0  0
 37 66  1  0  0  0
 37110  1  0  0  0
 38 43  2  0  0  0
 38 46  1  0  0  0
 38 47  1  0  0  0
 39 64  1  0  0  0
 39 67  2  0  0  0
 40 52  1  0  0  0
 40 53  2  0  0  0
 40 58  1  0  0  0
 41111  1  0  0  0
 41112  1  0  0  0
 41113  1  0  0  0
 41 48  1  0  0  0
 42 43  1  0  0  0
 42 66  1  0  0  0
 42114  1  0  0  0
 42115  1  0  0  0
 43 44  1  0  0  0
 44116  1  0  0  0
 45 46  2  0  0  0
 45117  1  0  0  0
 46118  1  0  0  0
 47119  1  0  0  0
 47120  1  0  0  0
 48 56  1  0  0  0
 48 65  1  0  0  0
 48121  1  0  0  0
 49 50  1  0  0  0
 49 53  1  0  0  0
 49 64  1  0  0  0
 49122  1  0  0  0
 50 51  1  0  0  0
 50123  1  0  0  0
 50124  1  0  0  0
 51 52  1  0  0  0
 51125  1  0  0  0
 51126  1  0  0  0
 52127  1  0  0  0
 52128  1  0  0  0
 53 54  1  0  0  0
 54 55  2  0  0  0
 54129  1  0  0  0
 55 57  1  0  0  0
 55130  1  0  0  0
 56 69  2  0  0  0
 57 58  2  0  0  0
 57131  1  0  0  0
 58132  1  0  0  0
 59 60  1  0  0  0
 59 61  1  0  0  0
 59 62  1  0  0  0
 60133  1  0  0  0
 60134  1  0  0  0
 60135  1  0  0  0
 61136  1  0  0  0
 61137  1  0  0  0
 61138  1  0  0  0
 62139  1  0  0  0
 62140  1  0  0  0
 62141  1  0  0  0
 63 65  1  0  0  0
 63142  1  0  0  0
 63143  1  0  0  0
 63144  1  0  0  0
 64145  1  0  0  0
 65146  1  0  0  0
 68 83  1  0  0  0
 71 74  2  0  0  0
 71 75  1  0  0  0
 71147  1  0  0  0
 72 74  1  0  0  0
 72 76  2  0  0  0
 72148  1  0  0  0
 73 75  2  0  0  0
 73 76  1  0  0  0
 73 82  1  0  0  0
 74 84  1  0  0  0
 75 86  1  0  0  0
 76 87  1  0  0  0
 77 78  1  0  0  0
 77 79  1  0  0  0
 77149  1  0  0  0
 77150  1  0  0  0
 78 80  1  0  0  0
 78151  1  0  0  0
 78152  1  0  0  0
 79 84  1  0  0  0
 79153  1  0  0  0
 79154  1  0  0  0
 80 83  1  0  0  0
 80 84  1  0  0  0
 80155  1  0  0  0
 81 85  1  0  0  0
 81156  1  0  0  0
 81157  1  0  0  0
 81158  1  0  0  0
 82 85  1  0  0  0
 82159  1  0  0  0
 82160  1  0  0  0
 83161  1  0  0  0
 83162  1  0  0  0
M  ISO  4   1 100  68 101  83 101  85 100
M  END
> <chiral flag>
0

> <version>
0

> <s_m_source_file>
/data/baiqing/PycharmProjects/Reinvent-master-3.2/result/LINK_invent/BTK/process_docking_weight1_custom_product_contain_oxygen_bond_distance_aromatic_linkinvent_7_9_3/rearranged_h_0020.sdf

> <i_m_source_file_index>
77

> <r_mmod_Potential_Energy-OPLS-2005>
408.256927490234

> <r_mmod_Stretch_Energy-OPLS-2005>
100.822883605957

> <r_mmod_Bend_Energy-OPLS-2005>
217.370712280273

> <r_mmod_Torsional_Energy-OPLS-2005>
384.487670898438

> <r_mmod_Improper_Torsional_Energy-OPLS-2005>
12.6088924407959

> <r_mmod_Van_der_Waal_Energy-OPLS-2005>
129.604507446289

> <r_mmod_Electrostatic_Energy-OPLS-2005>
-286.311279296875

> <r_mmod_Solvation_Energy-OPLS-2005>
-205.864898681641

> <b_mmod_Minimization_Converged-OPLS-2005>
0

> <r_mmod_RMS_Derivative-OPLS-2005>
8.87147521972656

$$$$
78
                    3D
 Structure written by MMmdl.
160169  0  0  1  0            999 V2000
  -30.5725  -14.7003   20.4810 C   0  0  0  0  0  0
  -30.4545  -12.4259   19.4686 C   0  0  0  0  0  0
  -29.5185  -12.5044   18.2384 C   0  0  0  0  0  0
  -28.0419  -12.3217   18.6480 C   0  0  0  0  0  0
  -27.6514  -13.2079   19.8596 C   0  0  2  0  0  0
  -28.6959  -13.0754   20.9925 C   0  0  0  0  0  0
  -25.2581  -13.8128   20.5663 C   0  0  0  0  0  0
  -24.1837  -13.0428   20.9215 C   0  0  0  0  0  0
  -24.6388  -11.6896   20.8771 C   0  0  0  0  0  0
  -23.9058  -10.4290   21.0438 C   0  0  0  0  0  0
  -24.3618   -9.4200   21.9203 C   0  0  0  0  0  0
  -23.6297   -8.2234   22.0748 C   0  0  0  0  0  0
  -22.4279   -8.0285   21.3538 C   0  0  0  0  0  0
  -21.9924   -9.0260   20.4641 C   0  0  0  0  0  0
  -22.7247  -10.2140   20.3066 C   0  0  0  0  0  0
  -21.6832   -6.0756   22.5292 C   0  0  0  0  0  0
  -21.4000   -6.5651   23.8232 C   0  0  0  0  0  0
  -21.3652   -5.6797   24.9191 C   0  0  0  0  0  0
  -21.6043   -4.3059   24.7231 C   0  0  0  0  0  0
  -21.8815   -3.8162   23.4344 C   0  0  0  0  0  0
  -21.9182   -4.6986   22.3408 C   0  0  0  0  0  0
  -22.7865  -13.5255   21.1838 C   0  0  0  0  0  0
  -22.1653   -4.2178   21.0981 F   0  0  0  0  0  0
  -21.5628   -3.4538   25.7737 F   0  0  0  0  0  0
  -30.0058  -13.4493   20.4334 N   0  0  0  0  0  0
  -26.2977  -12.9281   20.3286 N   0  0  0  0  0  0
  -25.9304  -11.6458   20.5767 N   0  0  0  0  0  0
  -22.0475  -12.8264   22.0381 N   0  0  0  0  0  0
  -25.4339  -15.1825   20.4013 N   0  0  0  0  0  0
  -31.7416  -14.8831   20.1258 O   0  0  0  0  0  0
  -21.6626   -6.8897   21.4251 O   0  0  0  0  0  0
  -22.3571  -14.5553   20.6659 O   0  0  0  0  0  0
  -24.6293  -31.8557   23.2014 C   0  0  0  0  0  0
  -25.9143  -32.4756   23.8334 C   0  0  1  0  0  0
  -27.2238  -27.2936   20.1154 C   0  0  0  0  0  0
  -25.5963  -33.8558   24.2287 N   0  0  0  0  0  0
  -23.4206  -30.4823   21.5429 C   0  0  2  0  0  0
  -24.8678  -28.9247   20.1138 C   0  0  0  0  0  0
  -22.7468  -29.4632   22.4921 C   0  0  0  0  0  0
  -18.0306  -28.1375   22.8492 C   0  0  0  0  0  0
  -24.1481  -36.7271   23.2640 C   0  0  0  0  0  0
  -25.9647  -30.7776   21.3746 C   0  0  0  0  0  0
  -26.0365  -29.4037   20.7148 C   0  0  0  0  0  0
  -27.2153  -28.5999   20.7023 C   0  0  0  0  0  0
  -26.0268  -26.8594   19.5065 C   0  0  0  0  0  0
  -24.8648  -27.6598   19.5021 C   0  0  0  0  0  0
  -23.6365  -29.8098   20.1605 C   0  0  0  0  0  0
  -25.4107  -36.3074   24.0338 C   0  0  1  0  0  0
  -20.5901  -28.3696   23.1278 C   0  0  2  0  0  0
  -20.6791  -26.9410   22.5411 C   0  0  0  0  0  0
  -19.5776  -26.6386   21.5209 C   0  0  0  0  0  0
  -18.1955  -26.7940   22.1606 C   0  0  0  0  0  0
  -19.1547  -28.8853   23.2891 C   0  0  0  0  0  0
  -18.9472  -30.1460   23.8900 C   0  0  0  0  0  0
  -17.6463  -30.6593   24.0569 C   0  0  0  0  0  0
  -25.9047  -34.9442   23.5110 C   0  0  0  0  0  0
  -16.5364  -29.9078   23.6337 C   0  0  0  0  0  0
  -16.7286  -28.6490   23.0373 C   0  0  0  0  0  0
  -26.4536  -31.6577   25.0714 C   0  0  0  0  0  0
  -25.3783  -31.3688   26.1450 C   0  0  0  0  0  0
  -27.0408  -30.3020   24.6179 C   0  0  0  0  0  0
  -27.6109  -32.4309   25.7474 C   0  0  0  0  0  0
  -27.5582  -37.1788   24.8472 C   0  0  0  0  0  0
  -21.4180  -29.3050   22.3656 N   0  0  0  0  0  0
  -26.4279  -37.3787   23.9430 N   0  0  0  0  0  0
  -24.6904  -31.0539   22.0974 N   0  0  0  0  0  0
  -23.4189  -28.8166   23.2996 O   0  0  0  0  0  0
  -28.3716  -26.4845   20.1570 O   0  0  0  0  0  0
  -26.5598  -34.8916   22.4667 O   0  0  0  0  0  0
  -23.5456  -32.1355   23.7343 O   0  0  0  0  0  0
  -30.6073  -19.4736   20.2363 C   0  0  0  0  0  0
  -30.7710  -18.0529   20.3796 C   0  0  0  0  0  0
  -28.3917  -17.8404   20.5510 C   0  0  0  0  0  0
  -29.3332  -20.1267   20.2331 C   0  0  0  0  0  0
  -29.6580  -17.1851   20.5535 C   0  0  0  0  0  0
  -28.2264  -19.2505   20.3773 C   0  0  0  0  0  0
  -28.2288  -23.3043   23.2658 C   0  0  0  0  0  0
  -28.5647  -24.4748   22.3514 C   0  0  0  0  0  0
  -28.5299  -22.0861   22.3865 C   0  0  0  0  0  0
  -28.0357  -24.0074   20.9918 C   0  0  2  0  0  0
  -29.1582  -21.7003   20.0108 C   0  0  0  0  0  0
  -28.4098  -25.0261   19.8263 C   0  0  0  0  0  0
  -29.6990  -15.7249   20.7799 N   0  0  0  0  0  0
  -28.2652  -22.4719   20.9742 N   0  3  1  0  0  0
  -26.9769  -19.7739   20.3615 F   0  0  0  0  0  0
  -31.4935  -12.5755   19.1676 H   0  0  0  0  0  0
  -30.4195  -11.4366   19.9279 H   0  0  0  0  0  0
  -29.7981  -11.7487   17.5031 H   0  0  0  0  0  0
  -29.6404  -13.4706   17.7459 H   0  0  0  0  0  0
  -27.8981  -11.2700   18.9021 H   0  0  0  0  0  0
  -27.3831  -12.5190   17.8014 H   0  0  0  0  0  0
  -27.6628  -14.2377   19.5009 H   0  0  0  0  0  0
  -28.7229  -12.0484   21.3626 H   0  0  0  0  0  0
  -28.4309  -13.6920   21.8533 H   0  0  0  0  0  0
  -25.2762   -9.5660   22.4791 H   0  0  0  0  0  0
  -24.0001   -7.4604   22.7441 H   0  0  0  0  0  0
  -21.0868   -8.8791   19.8925 H   0  0  0  0  0  0
  -22.3726  -10.9697   19.6179 H   0  0  0  0  0  0
  -21.1989   -7.6159   23.9750 H   0  0  0  0  0  0
  -21.1471   -6.0521   25.9097 H   0  0  0  0  0  0
  -22.0596   -2.7626   23.2836 H   0  0  0  0  0  0
  -22.4094  -11.9966   22.4837 H   0  0  0  0  0  0
  -21.1077  -13.1287   22.2511 H   0  0  0  0  0  0
  -24.6576  -15.8313   20.4806 H   0  0  0  0  0  0
  -26.2496  -15.5903   19.9646 H   0  0  0  0  0  0
  -26.7196  -32.5428   23.1062 H   0  0  0  0  0  0
  -25.0238  -33.9692   25.0524 H   0  0  0  0  0  0
  -22.7200  -31.3083   21.3978 H   0  0  0  0  0  0
  -23.3757  -35.9591   23.3316 H   0  0  0  0  0  0
  -24.3578  -36.8869   22.2052 H   0  0  0  0  0  0
  -23.7197  -37.6464   23.6640 H   0  0  0  0  0  0
  -26.1054  -31.5404   20.6080 H   0  0  0  0  0  0
  -26.8425  -30.8227   22.0069 H   0  0  0  0  0  0
  -28.1150  -28.9645   21.1773 H   0  0  0  0  0  0
  -25.9565  -25.8876   19.0430 H   0  0  0  0  0  0
  -23.9624  -27.2876   19.0375 H   0  0  0  0  0  0
  -23.7618  -30.5840   19.4038 H   0  0  0  0  0  0
  -22.7540  -29.2443   19.8548 H   0  0  0  0  0  0
  -25.1276  -36.1925   25.0829 H   0  0  0  0  0  0
  -21.0031  -28.3280   24.1382 H   0  0  0  0  0  0
  -20.5690  -26.2289   23.3599 H   0  0  0  0  0  0
  -21.6662  -26.7436   22.1206 H   0  0  0  0  0  0
  -19.6933  -25.6293   21.1243 H   0  0  0  0  0  0
  -19.6741  -27.3196   20.6745 H   0  0  0  0  0  0
  -17.4229  -26.6742   21.3993 H   0  0  0  0  0  0
  -18.0334  -26.0053   22.8961 H   0  0  0  0  0  0
  -19.7943  -30.7295   24.2260 H   0  0  0  0  0  0
  -17.5015  -31.6275   24.5163 H   0  0  0  0  0  0
  -15.5362  -30.2979   23.7658 H   0  0  0  0  0  0
  -15.8693  -28.0803   22.7095 H   0  0  0  0  0  0
  -24.5994  -30.6986   25.7790 H   0  0  0  0  0  0
  -24.8925  -32.2830   26.4873 H   0  0  0  0  0  0
  -25.8134  -30.8885   27.0225 H   0  0  0  0  0  0
  -26.2984  -29.6724   24.1256 H   0  0  0  0  0  0
  -27.4203  -29.7320   25.4667 H   0  0  0  0  0  0
  -27.8811  -30.4346   23.9358 H   0  0  0  0  0  0
  -27.2764  -33.3639   26.2027 H   0  0  0  0  0  0
  -28.3934  -32.6822   25.0299 H   0  0  0  0  0  0
  -28.0772  -31.8439   26.5398 H   0  0  0  0  0  0
  -28.2595  -38.0097   24.7564 H   0  0  0  0  0  0
  -28.1085  -36.2634   24.6243 H   0  0  0  0  0  0
  -27.2318  -37.1375   25.8881 H   0  0  0  0  0  0
  -20.9340  -29.8704   21.6812 H   0  0  0  0  0  0
  -26.0160  -38.2860   24.1461 H   0  0  0  0  0  0
  -31.4985  -20.0726   20.1156 H   0  0  0  0  0  0
  -31.7697  -17.6365   20.3664 H   0  0  0  0  0  0
  -27.4999  -17.2498   20.6852 H   0  0  0  0  0  0
  -27.1709  -23.3362   23.5356 H   0  0  0  0  0  0
  -28.8038  -23.3095   24.1933 H   0  0  0  0  0  0
  -29.6440  -24.6297   22.3123 H   0  0  0  0  0  0
  -28.1038  -25.4087   22.6771 H   0  0  0  0  0  0
  -27.9440  -21.2123   22.6745 H   0  0  0  0  0  0
  -29.5822  -21.8205   22.5078 H   0  0  0  0  0  0
  -26.9496  -24.0915   21.0698 H   0  0  0  0  0  0
  -28.7698  -21.8513   19.0030 H   0  0  0  0  0  0
  -30.1452  -22.1616   20.0166 H   0  0  0  0  0  0
  -27.8282  -24.8028   18.9325 H   0  0  0  0  0  0
  -29.4438  -24.8324   19.5399 H   0  0  0  0  0  0
  -28.8123  -15.3462   21.0720 H   0  0  0  0  0  0
  -27.3509  -22.0907   20.7742 H   0  0  0  0  0  0
  1 25  1  0  0  0
  1 30  2  0  0  0
  1 83  1  0  0  0
  2  3  1  0  0  0
  2 25  1  0  0  0
  2 86  1  0  0  0
  2 87  1  0  0  0
  3  4  1  0  0  0
  3 88  1  0  0  0
  3 89  1  0  0  0
  4  5  1  0  0  0
  4 90  1  0  0  0
  4 91  1  0  0  0
  5  6  1  0  0  0
  5 26  1  0  0  0
  5 92  1  0  0  0
  6 25  1  0  0  0
  6 93  1  0  0  0
  6 94  1  0  0  0
  7  8  2  0  0  0
  7 26  1  0  0  0
  7 29  1  0  0  0
  8  9  1  0  0  0
  8 22  1  0  0  0
  9 10  1  0  0  0
  9 27  2  0  0  0
 10 11  2  0  0  0
 10 15  1  0  0  0
 11 12  1  0  0  0
 11 95  1  0  0  0
 12 13  2  0  0  0
 12 96  1  0  0  0
 13 14  1  0  0  0
 13 31  1  0  0  0
 14 15  2  0  0  0
 14 97  1  0  0  0
 15 98  1  0  0  0
 16 17  2  0  0  0
 16 21  1  0  0  0
 16 31  1  0  0  0
 17 18  1  0  0  0
 17 99  1  0  0  0
 18 19  2  0  0  0
 18100  1  0  0  0
 19 20  1  0  0  0
 19 24  1  0  0  0
 20 21  2  0  0  0
 20101  1  0  0  0
 21 23  1  0  0  0
 22 28  1  0  0  0
 22 32  2  0  0  0
 26 27  1  0  0  0
 28102  1  0  0  0
 28103  1  0  0  0
 29104  1  0  0  0
 29105  1  0  0  0
 33 34  1  0  0  0
 33 66  1  0  0  0
 33 70  2  0  0  0
 34 36  1  0  0  0
 34 59  1  0  0  0
 34106  1  0  0  0
 35 44  2  0  0  0
 35 45  1  0  0  0
 35 68  1  0  0  0
 36 56  1  0  0  0
 36107  1  0  0  0
 37 39  1  0  0  0
 37 47  1  0  0  0
 37 66  1  0  0  0
 37108  1  0  0  0
 38 43  2  0  0  0
 38 46  1  0  0  0
 38 47  1  0  0  0
 39 64  1  0  0  0
 39 67  2  0  0  0
 40 52  1  0  0  0
 40 53  2  0  0  0
 40 58  1  0  0  0
 41109  1  0  0  0
 41110  1  0  0  0
 41111  1  0  0  0
 41 48  1  0  0  0
 42 43  1  0  0  0
 42 66  1  0  0  0
 42112  1  0  0  0
 42113  1  0  0  0
 43 44  1  0  0  0
 44114  1  0  0  0
 45 46  2  0  0  0
 45115  1  0  0  0
 46116  1  0  0  0
 47117  1  0  0  0
 47118  1  0  0  0
 48 56  1  0  0  0
 48 65  1  0  0  0
 48119  1  0  0  0
 49 50  1  0  0  0
 49 53  1  0  0  0
 49 64  1  0  0  0
 49120  1  0  0  0
 50 51  1  0  0  0
 50121  1  0  0  0
 50122  1  0  0  0
 51 52  1  0  0  0
 51123  1  0  0  0
 51124  1  0  0  0
 52125  1  0  0  0
 52126  1  0  0  0
 53 54  1  0  0  0
 54 55  2  0  0  0
 54127  1  0  0  0
 55 57  1  0  0  0
 55128  1  0  0  0
 56 69  2  0  0  0
 57 58  2  0  0  0
 57129  1  0  0  0
 58130  1  0  0  0
 59 60  1  0  0  0
 59 61  1  0  0  0
 59 62  1  0  0  0
 60131  1  0  0  0
 60132  1  0  0  0
 60133  1  0  0  0
 61134  1  0  0  0
 61135  1  0  0  0
 61136  1  0  0  0
 62137  1  0  0  0
 62138  1  0  0  0
 62139  1  0  0  0
 63 65  1  0  0  0
 63140  1  0  0  0
 63141  1  0  0  0
 63142  1  0  0  0
 64143  1  0  0  0
 65144  1  0  0  0
 68 82  1  0  0  0
 71 72  2  0  0  0
 71 74  1  0  0  0
 71145  1  0  0  0
 72 75  1  0  0  0
 72146  1  0  0  0
 73 75  2  0  0  0
 73 76  1  0  0  0
 73147  1  0  0  0
 74 76  2  0  0  0
 74 81  1  0  0  0
 75 83  1  0  0  0
 76 85  1  0  0  0
 77 78  1  0  0  0
 77 79  1  0  0  0
 77148  1  0  0  0
 77149  1  0  0  0
 78 80  1  0  0  0
 78150  1  0  0  0
 78151  1  0  0  0
 79 84  1  0  0  0
 79152  1  0  0  0
 79153  1  0  0  0
 80 82  1  0  0  0
 80 84  1  0  0  0
 80154  1  0  0  0
 81155  1  0  0  0
 81156  1  0  0  0
 81 84  1  0  0  0
 82157  1  0  0  0
 82158  1  0  0  0
 83159  1  0  0  0
 84160  1  0  0  0
M  CHG  1  84   1
M  ISO  4   1 100  68 101  82 101  83 100
M  END
> <chiral flag>
0

> <version>
0

> <s_m_source_file>
/data/baiqing/PycharmProjects/Reinvent-master-3.2/result/LINK_invent/BTK/process_docking_weight1_custom_product_contain_oxygen_bond_distance_aromatic_linkinvent_7_9_3/rearranged_h_0020.sdf

> <i_m_source_file_index>
78

> <r_mmod_Potential_Energy-OPLS-2005>
124.785499572754

> <r_mmod_Stretch_Energy-OPLS-2005>
100.896148681641

> <r_mmod_Bend_Energy-OPLS-2005>
223.621810913086

> <r_mmod_Torsional_Energy-OPLS-2005>
264.920715332031

> <r_mmod_Improper_Torsional_Energy-OPLS-2005>
5.09462594985962

> <r_mmod_Van_der_Waal_Energy-OPLS-2005>
127.194831848145

> <r_mmod_Electrostatic_Energy-OPLS-2005>
-240.901901245117

> <r_mmod_Solvation_Energy-OPLS-2005>
-419.595275878906

> <b_mmod_Minimization_Converged-OPLS-2005>
0

> <r_mmod_RMS_Derivative-OPLS-2005>
2.99542927742004

$$$$
79
                    3D
 Structure written by MMmdl.
164172  0  0  1  0            999 V2000
  -30.6583  -14.6684   20.5058 C   0  0  0  0  0  0
  -30.4198  -12.4173   19.4615 C   0  0  0  0  0  0
  -29.4987  -12.5067   18.2275 C   0  0  0  0  0  0
  -28.0272  -12.3323   18.6457 C   0  0  0  0  0  0
  -27.6427  -13.2271   19.8540 C   0  0  2  0  0  0
  -28.6855  -13.1400   20.9898 C   0  0  0  0  0  0
  -25.2509  -13.8193   20.5682 C   0  0  0  0  0  0
  -24.1799  -13.0440   20.9195 C   0  0  0  0  0  0
  -24.6392  -11.6921   20.8750 C   0  0  0  0  0  0
  -23.9072  -10.4296   21.0414 C   0  0  0  0  0  0
  -24.3624   -9.4205   21.9188 C   0  0  0  0  0  0
  -23.6293   -8.2244   22.0759 C   0  0  0  0  0  0
  -22.4275   -8.0288   21.3545 C   0  0  0  0  0  0
  -21.9914   -9.0263   20.4647 C   0  0  0  0  0  0
  -22.7247  -10.2139   20.3056 C   0  0  0  0  0  0
  -21.6851   -6.0741   22.5280 C   0  0  0  0  0  0
  -21.4014   -6.5645   23.8214 C   0  0  0  0  0  0
  -21.3658   -5.6794   24.9173 C   0  0  0  0  0  0
  -21.6043   -4.3058   24.7222 C   0  0  0  0  0  0
  -21.8817   -3.8151   23.4343 C   0  0  0  0  0  0
  -21.9192   -4.6967   22.3400 C   0  0  0  0  0  0
  -22.7819  -13.5220   21.1858 C   0  0  0  0  0  0
  -22.1658   -4.2155   21.0974 F   0  0  0  0  0  0
  -21.5629   -3.4540   25.7737 F   0  0  0  0  0  0
  -29.9952  -13.4684   20.4129 N   0  0  0  0  0  0
  -26.2938  -12.9397   20.3296 N   0  0  0  0  0  0
  -25.9318  -11.6543   20.5766 N   0  0  0  0  0  0
  -22.0476  -12.8212   22.0423 N   0  0  0  0  0  0
  -25.4184  -15.1914   20.4079 N   0  0  0  0  0  0
  -31.8221  -14.7667   20.1032 O   0  0  0  0  0  0
  -21.6637   -6.8886   21.4241 O   0  0  0  0  0  0
  -22.3498  -14.5522   20.6708 O   0  0  0  0  0  0
  -24.6275  -31.8578   23.2005 C   0  0  0  0  0  0
  -25.9130  -32.4761   23.8331 C   0  0  1  0  0  0
  -27.2241  -27.3028   20.1084 C   0  0  0  0  0  0
  -25.5931  -33.8561   24.2249 N   0  0  0  0  0  0
  -23.4201  -30.4811   21.5438 C   0  0  2  0  0  0
  -24.8647  -28.9298   20.1112 C   0  0  0  0  0  0
  -22.7477  -29.4608   22.4925 C   0  0  0  0  0  0
  -18.0286  -28.1374   22.8471 C   0  0  0  0  0  0
  -24.1488  -36.7283   23.2638 C   0  0  0  0  0  0
  -25.9616  -30.7823   21.3731 C   0  0  0  0  0  0
  -26.0339  -29.4085   20.7129 C   0  0  0  0  0  0
  -27.2130  -28.6055   20.7011 C   0  0  0  0  0  0
  -26.0230  -26.8677   19.5031 C   0  0  0  0  0  0
  -24.8611  -27.6650   19.5014 C   0  0  0  0  0  0
  -23.6350  -29.8151   20.1585 C   0  0  0  0  0  0
  -25.4109  -36.3062   24.0319 C   0  0  1  0  0  0
  -20.5882  -28.3680   23.1269 C   0  0  2  0  0  0
  -20.6775  -26.9400   22.5401 C   0  0  0  0  0  0
  -19.5751  -26.6371   21.5200 C   0  0  0  0  0  0
  -18.1928  -26.7918   22.1604 C   0  0  0  0  0  0
  -19.1536  -28.8842   23.2868 C   0  0  0  0  0  0
  -18.9470  -30.1444   23.8881 C   0  0  0  0  0  0
  -17.6472  -30.6583   24.0546 C   0  0  0  0  0  0
  -25.9052  -34.9443   23.5083 C   0  0  0  0  0  0
  -16.5359  -29.9073   23.6333 C   0  0  0  0  0  0
  -16.7274  -28.6493   23.0343 C   0  0  0  0  0  0
  -26.4515  -31.6589   25.0720 C   0  0  0  0  0  0
  -25.3744  -31.3744   26.1449 C   0  0  0  0  0  0
  -27.0371  -30.3007   24.6208 C   0  0  0  0  0  0
  -27.6049  -32.4352   25.7497 C   0  0  0  0  0  0
  -27.5577  -37.1786   24.8454 C   0  0  0  0  0  0
  -21.4184  -29.3035   22.3669 N   0  0  0  0  0  0
  -26.4278  -37.3764   23.9413 N   0  0  0  0  0  0
  -24.6885  -31.0575   22.0964 N   0  0  0  0  0  0
  -23.4199  -28.8145   23.3006 O   0  0  0  0  0  0
  -28.3678  -26.4874   20.1694 O   0  0  0  0  0  0
  -26.5625  -34.8913   22.4651 O   0  0  0  0  0  0
  -23.5439  -32.1384   23.7336 O   0  0  0  0  0  0
  -30.3178  -19.0468   19.4575 C   0  0  0  0  0  0
  -28.4627  -19.1724   20.9640 C   0  0  0  0  0  0
  -30.3359  -20.4710   19.3837 C   0  0  0  0  0  0
  -28.4855  -20.6073   20.8911 C   0  0  0  0  0  0
  -29.3759  -18.3429   20.2467 C   0  0  0  0  0  0
  -29.4311  -21.3164   20.0973 C   0  0  0  0  0  0
  -32.8907  -23.4650   21.8485 C   0  0  0  0  0  0
  -30.5594  -16.3955   22.2088 C   0  0  0  0  0  0
  -29.2295  -16.7641   20.1516 C   0  0  0  0  0  0
  -31.4320  -23.0292   21.6719 C   0  0  0  0  0  0
  -30.9414  -23.2173   20.2253 C   0  0  0  0  0  0
  -28.5130  -23.7902   20.4031 C   0  0  0  0  0  0
  -28.4791  -25.1487   19.5332 C   0  0  0  0  0  0
  -29.5558  -22.7633   20.0307 N   0  0  0  0  0  0
  -30.0021  -15.7806   21.0034 N   0  0  0  0  0  0
  -31.4630  -12.5211   19.1592 H   0  0  0  0  0  0
  -30.3433  -11.4338   19.9284 H   0  0  0  0  0  0
  -29.7717  -11.7467   17.4942 H   0  0  0  0  0  0
  -29.6300  -13.4709   17.7345 H   0  0  0  0  0  0
  -27.8832  -11.2822   18.9047 H   0  0  0  0  0  0
  -27.3658  -12.5291   17.8010 H   0  0  0  0  0  0
  -27.6448  -14.2514   19.4828 H   0  0  0  0  0  0
  -28.7029  -12.1409   21.4279 H   0  0  0  0  0  0
  -28.4248  -13.8242   21.7990 H   0  0  0  0  0  0
  -25.2773   -9.5680   22.4757 H   0  0  0  0  0  0
  -24.0003   -7.4635   22.7483 H   0  0  0  0  0  0
  -21.0843   -8.8783   19.8950 H   0  0  0  0  0  0
  -22.3711  -10.9679   19.6162 H   0  0  0  0  0  0
  -21.2007   -7.6155   23.9717 H   0  0  0  0  0  0
  -21.1480   -6.0527   25.9078 H   0  0  0  0  0  0
  -22.0598   -2.7613   23.2840 H   0  0  0  0  0  0
  -22.4106  -11.9867   22.4792 H   0  0  0  0  0  0
  -21.1105  -13.1238   22.2659 H   0  0  0  0  0  0
  -24.6485  -15.8437   20.5099 H   0  0  0  0  0  0
  -26.2688  -15.6313   20.0822 H   0  0  0  0  0  0
  -26.7195  -32.5417   23.1067 H   0  0  0  0  0  0
  -25.0076  -33.9691   25.0394 H   0  0  0  0  0  0
  -22.7152  -31.3029   21.4017 H   0  0  0  0  0  0
  -23.3754  -35.9613   23.3268 H   0  0  0  0  0  0
  -24.3579  -36.8941   22.2058 H   0  0  0  0  0  0
  -23.7242  -37.6465   23.6698 H   0  0  0  0  0  0
  -26.0974  -31.5491   20.6097 H   0  0  0  0  0  0
  -26.8390  -30.8261   22.0065 H   0  0  0  0  0  0
  -28.1140  -28.9712   21.1741 H   0  0  0  0  0  0
  -25.9354  -25.8924   19.0521 H   0  0  0  0  0  0
  -23.9583  -27.2868   19.0412 H   0  0  0  0  0  0
  -23.7587  -30.5932   19.4042 H   0  0  0  0  0  0
  -22.7534  -29.2491   19.8541 H   0  0  0  0  0  0
  -25.1295  -36.1889   25.0811 H   0  0  0  0  0  0
  -20.9974  -28.3270   24.1388 H   0  0  0  0  0  0
  -20.5660  -26.2292   23.3602 H   0  0  0  0  0  0
  -21.6647  -26.7416   22.1206 H   0  0  0  0  0  0
  -19.6908  -25.6281   21.1231 H   0  0  0  0  0  0
  -19.6698  -27.3181   20.6731 H   0  0  0  0  0  0
  -17.4196  -26.6659   21.4005 H   0  0  0  0  0  0
  -18.0319  -26.0058   22.8998 H   0  0  0  0  0  0
  -19.7955  -30.7247   24.2248 H   0  0  0  0  0  0
  -17.5036  -31.6263   24.5151 H   0  0  0  0  0  0
  -15.5358  -30.2962   23.7687 H   0  0  0  0  0  0
  -15.8669  -28.0816   22.7057 H   0  0  0  0  0  0
  -24.5892  -30.7123   25.7777 H   0  0  0  0  0  0
  -24.8977  -32.2927   26.4895 H   0  0  0  0  0  0
  -25.8061  -30.8898   27.0216 H   0  0  0  0  0  0
  -26.2955  -29.6729   24.1253 H   0  0  0  0  0  0
  -27.4065  -29.7299   25.4736 H   0  0  0  0  0  0
  -27.8826  -30.4260   23.9438 H   0  0  0  0  0  0
  -27.2632  -33.3654   26.2052 H   0  0  0  0  0  0
  -28.3882  -32.6916   25.0350 H   0  0  0  0  0  0
  -28.0704  -31.8504   26.5443 H   0  0  0  0  0  0
  -28.2560  -38.0117   24.7545 H   0  0  0  0  0  0
  -28.1112  -36.2650   24.6230 H   0  0  0  0  0  0
  -27.2307  -37.1366   25.8858 H   0  0  0  0  0  0
  -20.9361  -29.8769   21.6885 H   0  0  0  0  0  0
  -26.0151  -38.2822   24.1461 H   0  0  0  0  0  0
  -31.0226  -18.4896   18.8557 H   0  0  0  0  0  0
  -27.6986  -18.7032   21.5684 H   0  0  0  0  0  0
  -31.0740  -20.9054   18.7269 H   0  0  0  0  0  0
  -27.7625  -21.1623   21.4720 H   0  0  0  0  0  0
  -33.2052  -23.3581   22.8874 H   0  0  0  0  0  0
  -33.0323  -24.5085   21.5654 H   0  0  0  0  0  0
  -33.5592  -22.8585   21.2370 H   0  0  0  0  0  0
  -29.7962  -16.9594   22.7451 H   0  0  0  0  0  0
  -31.3728  -17.0753   21.9519 H   0  0  0  0  0  0
  -30.9530  -15.6465   22.8984 H   0  0  0  0  0  0
  -29.3882  -16.4988   19.1049 H   0  0  0  0  0  0
  -28.1778  -16.5431   20.3306 H   0  0  0  0  0  0
  -30.8038  -23.5998   22.3576 H   0  0  0  0  0  0
  -31.3418  -21.9834   21.9685 H   0  0  0  0  0  0
  -31.6254  -22.7284   19.5328 H   0  0  0  0  0  0
  -31.0270  -24.2749   19.9797 H   0  0  0  0  0  0
  -27.5251  -23.3293   20.3720 H   0  0  0  0  0  0
  -28.6718  -24.0593   21.4478 H   0  0  0  0  0  0
  -27.7814  -25.0223   18.7094 H   0  0  0  0  0  0
  -29.4238  -25.2238   18.9972 H   0  0  0  0  0  0
  1 25  1  0  0  0
  1 30  2  0  0  0
  1 85  1  0  0  0
  2  3  1  0  0  0
  2 25  1  0  0  0
  2 86  1  0  0  0
  2 87  1  0  0  0
  3  4  1  0  0  0
  3 88  1  0  0  0
  3 89  1  0  0  0
  4  5  1  0  0  0
  4 90  1  0  0  0
  4 91  1  0  0  0
  5  6  1  0  0  0
  5 26  1  0  0  0
  5 92  1  0  0  0
  6 25  1  0  0  0
  6 93  1  0  0  0
  6 94  1  0  0  0
  7  8  2  0  0  0
  7 26  1  0  0  0
  7 29  1  0  0  0
  8  9  1  0  0  0
  8 22  1  0  0  0
  9 10  1  0  0  0
  9 27  2  0  0  0
 10 11  2  0  0  0
 10 15  1  0  0  0
 11 12  1  0  0  0
 11 95  1  0  0  0
 12 13  2  0  0  0
 12 96  1  0  0  0
 13 14  1  0  0  0
 13 31  1  0  0  0
 14 15  2  0  0  0
 14 97  1  0  0  0
 15 98  1  0  0  0
 16 17  2  0  0  0
 16 21  1  0  0  0
 16 31  1  0  0  0
 17 18  1  0  0  0
 17 99  1  0  0  0
 18 19  2  0  0  0
 18100  1  0  0  0
 19 20  1  0  0  0
 19 24  1  0  0  0
 20 21  2  0  0  0
 20101  1  0  0  0
 21 23  1  0  0  0
 22 28  1  0  0  0
 22 32  2  0  0  0
 26 27  1  0  0  0
 28102  1  0  0  0
 28103  1  0  0  0
 29104  1  0  0  0
 29105  1  0  0  0
 33 34  1  0  0  0
 33 66  1  0  0  0
 33 70  2  0  0  0
 34 36  1  0  0  0
 34 59  1  0  0  0
 34106  1  0  0  0
 35 44  2  0  0  0
 35 45  1  0  0  0
 35 68  1  0  0  0
 36 56  1  0  0  0
 36107  1  0  0  0
 37 39  1  0  0  0
 37 47  1  0  0  0
 37 66  1  0  0  0
 37108  1  0  0  0
 38 43  2  0  0  0
 38 46  1  0  0  0
 38 47  1  0  0  0
 39 64  1  0  0  0
 39 67  2  0  0  0
 40 52  1  0  0  0
 40 53  2  0  0  0
 40 58  1  0  0  0
 41109  1  0  0  0
 41110  1  0  0  0
 41111  1  0  0  0
 41 48  1  0  0  0
 42 43  1  0  0  0
 42 66  1  0  0  0
 42112  1  0  0  0
 42113  1  0  0  0
 43 44  1  0  0  0
 44114  1  0  0  0
 45 46  2  0  0  0
 45115  1  0  0  0
 46116  1  0  0  0
 47117  1  0  0  0
 47118  1  0  0  0
 48 56  1  0  0  0
 48 65  1  0  0  0
 48119  1  0  0  0
 49 50  1  0  0  0
 49 53  1  0  0  0
 49 64  1  0  0  0
 49120  1  0  0  0
 50 51  1  0  0  0
 50121  1  0  0  0
 50122  1  0  0  0
 51 52  1  0  0  0
 51123  1  0  0  0
 51124  1  0  0  0
 52125  1  0  0  0
 52126  1  0  0  0
 53 54  1  0  0  0
 54 55  2  0  0  0
 54127  1  0  0  0
 55 57  1  0  0  0
 55128  1  0  0  0
 56 69  2  0  0  0
 57 58  2  0  0  0
 57129  1  0  0  0
 58130  1  0  0  0
 59 60  1  0  0  0
 59 61  1  0  0  0
 59 62  1  0  0  0
 60131  1  0  0  0
 60132  1  0  0  0
 60133  1  0  0  0
 61134  1  0  0  0
 61135  1  0  0  0
 61136  1  0  0  0
 62137  1  0  0  0
 62138  1  0  0  0
 62139  1  0  0  0
 63 65  1  0  0  0
 63140  1  0  0  0
 63141  1  0  0  0
 63142  1  0  0  0
 64143  1  0  0  0
 65144  1  0  0  0
 68 83  1  0  0  0
 71 73  2  0  0  0
 71 75  1  0  0  0
 71145  1  0  0  0
 72 74  1  0  0  0
 72 75  2  0  0  0
 72146  1  0  0  0
 73 76  1  0  0  0
 73147  1  0  0  0
 74 76  2  0  0  0
 74148  1  0  0  0
 75 79  1  0  0  0
 76 84  1  0  0  0
 77 80  1  0  0  0
 77149  1  0  0  0
 77150  1  0  0  0
 77151  1  0  0  0
 78 85  1  0  0  0
 78152  1  0  0  0
 78153  1  0  0  0
 78154  1  0  0  0
 79 85  1  0  0  0
 79155  1  0  0  0
 79156  1  0  0  0
 80 81  1  0  0  0
 80157  1  0  0  0
 80158  1  0  0  0
 81 84  1  0  0  0
 81159  1  0  0  0
 81160  1  0  0  0
 82 83  1  0  0  0
 82 84  1  0  0  0
 82161  1  0  0  0
 82162  1  0  0  0
 83163  1  0  0  0
 83164  1  0  0  0
M  ISO  4   1 100  68 101  83 101  85 100
M  END
> <chiral flag>
0

> <version>
0

> <s_m_source_file>
/data/baiqing/PycharmProjects/Reinvent-master-3.2/result/LINK_invent/BTK/process_docking_weight1_custom_product_contain_oxygen_bond_distance_aromatic_linkinvent_7_9_3/rearranged_h_0020.sdf

> <i_m_source_file_index>
79

> <r_mmod_Potential_Energy-OPLS-2005>
250.283905029297

> <r_mmod_Stretch_Energy-OPLS-2005>
96.9350738525391

> <r_mmod_Bend_Energy-OPLS-2005>
178.448013305664

> <r_mmod_Torsional_Energy-OPLS-2005>
289.074310302734

> <r_mmod_Improper_Torsional_Energy-OPLS-2005>
7.00800895690918

> <r_mmod_Van_der_Waal_Energy-OPLS-2005>
142.762710571289

> <r_mmod_Electrostatic_Energy-OPLS-2005>
-315.288482666016

> <r_mmod_Solvation_Energy-OPLS-2005>
-204.424285888672

> <b_mmod_Minimization_Converged-OPLS-2005>
0

> <r_mmod_RMS_Derivative-OPLS-2005>
1.38362896442413

$$$$
80
                    3D
 Structure written by MMmdl.
159167  0  0  1  0            999 V2000
  -30.6556  -14.4952   20.5859 C   0  0  0  0  0  0
  -30.4366  -12.3229   19.4144 C   0  0  0  0  0  0
  -29.5007  -12.5079   18.1990 C   0  0  0  0  0  0
  -28.0224  -12.3498   18.6109 C   0  0  0  0  0  0
  -27.6627  -13.1910   19.8669 C   0  0  2  0  0  0
  -28.7023  -12.9538   20.9856 C   0  0  0  0  0  0
  -25.2604  -13.8125   20.5634 C   0  0  0  0  0  0
  -24.1847  -13.0399   20.9144 C   0  0  0  0  0  0
  -24.6385  -11.6879   20.8688 C   0  0  0  0  0  0
  -23.9048  -10.4271   21.0387 C   0  0  0  0  0  0
  -24.3613   -9.4193   21.9165 C   0  0  0  0  0  0
  -23.6283   -8.2241   22.0746 C   0  0  0  0  0  0
  -22.4263   -8.0275   21.3541 C   0  0  0  0  0  0
  -21.9900   -9.0245   20.4644 C   0  0  0  0  0  0
  -22.7222  -10.2118   20.3037 C   0  0  0  0  0  0
  -21.6843   -6.0732   22.5279 C   0  0  0  0  0  0
  -21.4006   -6.5635   23.8208 C   0  0  0  0  0  0
  -21.3669   -5.6779   24.9174 C   0  0  0  0  0  0
  -21.6048   -4.3047   24.7207 C   0  0  0  0  0  0
  -21.8823   -3.8143   23.4331 C   0  0  0  0  0  0
  -21.9196   -4.6969   22.3388 C   0  0  0  0  0  0
  -22.7883  -13.5238   21.1810 C   0  0  0  0  0  0
  -22.1658   -4.2163   21.0962 F   0  0  0  0  0  0
  -21.5640   -3.4519   25.7721 F   0  0  0  0  0  0
  -30.0336  -13.2893   20.4513 N   0  0  0  0  0  0
  -26.3016  -12.9260   20.3299 N   0  0  0  0  0  0
  -25.9297  -11.6419   20.5673 N   0  0  0  0  0  0
  -22.0527  -12.8233   22.0391 N   0  0  0  0  0  0
  -25.4247  -15.1840   20.4100 N   0  0  0  0  0  0
  -31.7493  -14.7482   20.0695 O   0  0  0  0  0  0
  -21.6617   -6.8882   21.4243 O   0  0  0  0  0  0
  -22.3577  -14.5545   20.6676 O   0  0  0  0  0  0
  -24.6203  -31.8661   23.2001 C   0  0  0  0  0  0
  -25.9054  -32.4805   23.8334 C   0  0  1  0  0  0
  -27.2315  -27.4237   20.0916 C   0  0  0  0  0  0
  -25.5877  -33.8590   24.2273 N   0  0  0  0  0  0
  -23.4033  -30.4937   21.5438 C   0  0  2  0  0  0
  -24.8501  -28.9454   20.1151 C   0  0  0  0  0  0
  -22.7401  -29.4767   22.5022 C   0  0  0  0  0  0
  -18.0302  -28.1430   22.8506 C   0  0  0  0  0  0
  -24.1499  -36.7327   23.2648 C   0  0  0  0  0  0
  -25.9311  -30.8287   21.3458 C   0  0  0  0  0  0
  -26.0121  -29.4585   20.7060 C   0  0  0  0  0  0
  -27.2097  -28.7032   20.6978 C   0  0  0  0  0  0
  -26.0578  -26.9271   19.4889 C   0  0  0  0  0  0
  -24.8682  -27.6778   19.5079 C   0  0  0  0  0  0
  -23.6050  -29.8047   20.1681 C   0  0  0  0  0  0
  -25.4114  -36.3127   24.0358 C   0  0  1  0  0  0
  -20.5884  -28.3746   23.1277 C   0  0  2  0  0  0
  -20.6891  -26.9524   22.5244 C   0  0  0  0  0  0
  -19.5746  -26.6403   21.5182 C   0  0  0  0  0  0
  -18.1933  -26.7975   22.1616 C   0  0  0  0  0  0
  -19.1553  -28.8898   23.2909 C   0  0  0  0  0  0
  -18.9518  -30.1507   23.8938 C   0  0  0  0  0  0
  -17.6534  -30.6680   24.0532 C   0  0  0  0  0  0
  -25.9030  -34.9481   23.5120 C   0  0  0  0  0  0
  -16.5420  -29.9179   23.6315 C   0  0  0  0  0  0
  -16.7312  -28.6560   23.0394 C   0  0  0  0  0  0
  -26.4420  -31.6598   25.0688 C   0  0  0  0  0  0
  -25.3637  -31.3720   26.1411 C   0  0  0  0  0  0
  -27.0252  -30.3077   24.5996 C   0  0  0  0  0  0
  -27.6024  -32.4298   25.7428 C   0  0  0  0  0  0
  -27.5587  -37.1820   24.8475 C   0  0  0  0  0  0
  -21.4126  -29.3226   22.3802 N   0  0  0  0  0  0
  -26.4309  -37.3812   23.9411 N   0  0  0  0  0  0
  -24.6723  -31.0756   22.0897 N   0  0  0  0  0  0
  -23.4163  -28.8288   23.3070 O   0  0  0  0  0  0
  -28.3468  -26.6171   20.1247 O   0  0  0  0  0  0
  -26.5627  -34.8940   22.4695 O   0  0  0  0  0  0
  -23.5403  -32.1461   23.7366 O   0  0  0  0  0  0
  -28.4721  -18.4510   19.6556 C   0  0  0  0  0  0
  -28.8768  -17.1147   19.8740 C   0  0  0  0  0  0
  -30.2377  -17.8344   21.7499 C   0  0  0  0  0  0
  -28.9330  -19.4976   20.4884 C   0  0  0  0  0  0
  -29.7424  -16.7838   20.9412 C   0  0  0  0  0  0
  -29.8564  -19.1768   21.5112 C   0  0  0  0  0  0
  -27.1897  -20.9682   22.4519 C   0  0  0  0  0  0
  -28.4219  -20.9395   20.2771 C   0  0  0  0  0  0
  -28.5444  -24.1286   20.6593 C   0  0  0  0  0  0
  -27.5893  -23.0961   21.3304 C   0  0  0  0  0  0
  -28.2311  -25.5820   21.1215 C   0  0  0  0  0  0
  -29.9595  -15.4130   21.2894 N   0  0  0  0  0  0
  -28.0971  -21.6982   21.5254 N   0  3  1  0  0  0
  -30.3304  -20.1649   22.3076 F   0  0  0  0  0  0
  -31.4786  -12.4532   19.1138 H   0  0  0  0  0  0
  -30.3631  -11.3037   19.8002 H   0  0  0  0  0  0
  -29.7510  -11.7828   17.4230 H   0  0  0  0  0  0
  -29.6553  -13.4930   17.7576 H   0  0  0  0  0  0
  -27.8524  -11.2908   18.8109 H   0  0  0  0  0  0
  -27.3679  -12.6091   17.7774 H   0  0  0  0  0  0
  -27.7049  -14.2376   19.5685 H   0  0  0  0  0  0
  -28.6905  -11.9059   21.2872 H   0  0  0  0  0  0
  -28.4439  -13.5101   21.8862 H   0  0  0  0  0  0
  -25.2777   -9.5659   22.4712 H   0  0  0  0  0  0
  -24.0000   -7.4629   22.7463 H   0  0  0  0  0  0
  -21.0835   -8.8751   19.8948 H   0  0  0  0  0  0
  -22.3694  -10.9649   19.6125 H   0  0  0  0  0  0
  -21.1968   -7.6134   23.9716 H   0  0  0  0  0  0
  -21.1500   -6.0499   25.9078 H   0  0  0  0  0  0
  -22.0597   -2.7611   23.2802 H   0  0  0  0  0  0
  -22.4135  -11.9912   22.4810 H   0  0  0  0  0  0
  -21.1124  -13.1260   22.2559 H   0  0  0  0  0  0
  -24.6422  -15.8159   20.5301 H   0  0  0  0  0  0
  -26.2721  -15.6576   20.1307 H   0  0  0  0  0  0
  -26.7125  -32.5566   23.1111 H   0  0  0  0  0  0
  -24.9980  -33.9719   25.0384 H   0  0  0  0  0  0
  -22.6977  -31.3129   21.3946 H   0  0  0  0  0  0
  -23.3748  -35.9673   23.3327 H   0  0  0  0  0  0
  -24.3609  -36.8910   22.2062 H   0  0  0  0  0  0
  -23.7227  -37.6537   23.6622 H   0  0  0  0  0  0
  -26.0198  -31.5718   20.5544 H   0  0  0  0  0  0
  -26.8262  -30.9052   21.9485 H   0  0  0  0  0  0
  -28.1007  -29.0897   21.1736 H   0  0  0  0  0  0
  -26.0628  -25.9485   19.0281 H   0  0  0  0  0  0
  -23.9753  -27.2683   19.0580 H   0  0  0  0  0  0
  -23.6952  -30.5603   19.3892 H   0  0  0  0  0  0
  -22.7287  -29.2128   19.8959 H   0  0  0  0  0  0
  -25.1271  -36.2016   25.0858 H   0  0  0  0  0  0
  -20.9955  -28.3229   24.1389 H   0  0  0  0  0  0
  -20.6035  -26.2302   23.3349 H   0  0  0  0  0  0
  -21.6752  -26.7738   22.0930 H   0  0  0  0  0  0
  -19.6857  -25.6300   21.1280 H   0  0  0  0  0  0
  -19.6579  -27.3091   20.6632 H   0  0  0  0  0  0
  -17.4295  -26.6837   21.3908 H   0  0  0  0  0  0
  -18.0164  -26.0041   22.8888 H   0  0  0  0  0  0
  -19.8023  -30.7304   24.2324 H   0  0  0  0  0  0
  -17.5170  -31.6380   24.5118 H   0  0  0  0  0  0
  -15.5418  -30.3050   23.7635 H   0  0  0  0  0  0
  -15.8694  -28.0879   22.7166 H   0  0  0  0  0  0
  -24.5814  -30.7067   25.7698 H   0  0  0  0  0  0
  -24.8822  -32.2906   26.4819 H   0  0  0  0  0  0
  -25.7955  -30.8900   27.0194 H   0  0  0  0  0  0
  -26.2795  -29.6868   24.1018 H   0  0  0  0  0  0
  -27.4060  -29.7267   25.4395 H   0  0  0  0  0  0
  -27.8585  -30.4468   23.9096 H   0  0  0  0  0  0
  -27.2654  -33.3584   26.2037 H   0  0  0  0  0  0
  -28.3778  -32.6871   25.0192 H   0  0  0  0  0  0
  -28.0725  -31.8398   26.5309 H   0  0  0  0  0  0
  -28.2636  -38.0096   24.7504 H   0  0  0  0  0  0
  -28.1057  -36.2625   24.6313 H   0  0  0  0  0  0
  -27.2313  -37.1467   25.8887 H   0  0  0  0  0  0
  -20.9282  -29.9173   21.7237 H   0  0  0  0  0  0
  -26.0216  -38.2914   24.1351 H   0  0  0  0  0  0
  -27.7820  -18.6598   18.8483 H   0  0  0  0  0  0
  -28.4784  -16.3442   19.2313 H   0  0  0  0  0  0
  -30.8876  -17.6240   22.5850 H   0  0  0  0  0  0
  -27.5668  -19.9896   22.7433 H   0  0  0  0  0  0
  -26.1974  -20.8283   22.0240 H   0  0  0  0  0  0
  -27.0657  -21.5269   23.3796 H   0  0  0  0  0  0
  -27.5296  -20.9081   19.6514 H   0  0  0  0  0  0
  -29.1721  -21.4824   19.7040 H   0  0  0  0  0  0
  -28.4596  -24.0525   19.5736 H   0  0  0  0  0  0
  -29.5801  -23.8951   20.9166 H   0  0  0  0  0  0
  -26.6411  -23.0789   20.7894 H   0  0  0  0  0  0
  -27.3530  -23.4756   22.3280 H   0  0  0  0  0  0
  -27.2374  -25.6002   21.5785 H   0  0  0  0  0  0
  -28.9112  -25.8437   21.9331 H   0  0  0  0  0  0
  -29.1884  -14.9899   21.7828 H   0  0  0  0  0  0
  -28.9789  -21.7551   22.0149 H   0  0  0  0  0  0
  1 25  1  0  0  0
  1 30  2  0  0  0
  1 82  1  0  0  0
  2  3  1  0  0  0
  2 25  1  0  0  0
  2 85  1  0  0  0
  2 86  1  0  0  0
  3  4  1  0  0  0
  3 87  1  0  0  0
  3 88  1  0  0  0
  4  5  1  0  0  0
  4 89  1  0  0  0
  4 90  1  0  0  0
  5  6  1  0  0  0
  5 26  1  0  0  0
  5 91  1  0  0  0
  6 25  1  0  0  0
  6 92  1  0  0  0
  6 93  1  0  0  0
  7  8  2  0  0  0
  7 26  1  0  0  0
  7 29  1  0  0  0
  8  9  1  0  0  0
  8 22  1  0  0  0
  9 10  1  0  0  0
  9 27  2  0  0  0
 10 11  2  0  0  0
 10 15  1  0  0  0
 11 12  1  0  0  0
 11 94  1  0  0  0
 12 13  2  0  0  0
 12 95  1  0  0  0
 13 14  1  0  0  0
 13 31  1  0  0  0
 14 15  2  0  0  0
 14 96  1  0  0  0
 15 97  1  0  0  0
 16 17  2  0  0  0
 16 21  1  0  0  0
 16 31  1  0  0  0
 17 18  1  0  0  0
 17 98  1  0  0  0
 18 19  2  0  0  0
 18 99  1  0  0  0
 19 20  1  0  0  0
 19 24  1  0  0  0
 20 21  2  0  0  0
 20100  1  0  0  0
 21 23  1  0  0  0
 22 28  1  0  0  0
 22 32  2  0  0  0
 26 27  1  0  0  0
 28101  1  0  0  0
 28102  1  0  0  0
 29103  1  0  0  0
 29104  1  0  0  0
 33 34  1  0  0  0
 33 66  1  0  0  0
 33 70  2  0  0  0
 34 36  1  0  0  0
 34 59  1  0  0  0
 34105  1  0  0  0
 35 44  2  0  0  0
 35 45  1  0  0  0
 35 68  1  0  0  0
 36 56  1  0  0  0
 36106  1  0  0  0
 37 39  1  0  0  0
 37 47  1  0  0  0
 37 66  1  0  0  0
 37107  1  0  0  0
 38 43  2  0  0  0
 38 46  1  0  0  0
 38 47  1  0  0  0
 39 64  1  0  0  0
 39 67  2  0  0  0
 40 52  1  0  0  0
 40 53  2  0  0  0
 40 58  1  0  0  0
 41108  1  0  0  0
 41109  1  0  0  0
 41110  1  0  0  0
 41 48  1  0  0  0
 42 43  1  0  0  0
 42 66  1  0  0  0
 42111  1  0  0  0
 42112  1  0  0  0
 43 44  1  0  0  0
 44113  1  0  0  0
 45 46  2  0  0  0
 45114  1  0  0  0
 46115  1  0  0  0
 47116  1  0  0  0
 47117  1  0  0  0
 48 56  1  0  0  0
 48 65  1  0  0  0
 48118  1  0  0  0
 49 50  1  0  0  0
 49 53  1  0  0  0
 49 64  1  0  0  0
 49119  1  0  0  0
 50 51  1  0  0  0
 50120  1  0  0  0
 50121  1  0  0  0
 51 52  1  0  0  0
 51122  1  0  0  0
 51123  1  0  0  0
 52124  1  0  0  0
 52125  1  0  0  0
 53 54  1  0  0  0
 54 55  2  0  0  0
 54126  1  0  0  0
 55 57  1  0  0  0
 55127  1  0  0  0
 56 69  2  0  0  0
 57 58  2  0  0  0
 57128  1  0  0  0
 58129  1  0  0  0
 59 60  1  0  0  0
 59 61  1  0  0  0
 59 62  1  0  0  0
 60130  1  0  0  0
 60131  1  0  0  0
 60132  1  0  0  0
 61133  1  0  0  0
 61134  1  0  0  0
 61135  1  0  0  0
 62136  1  0  0  0
 62137  1  0  0  0
 62138  1  0  0  0
 63 65  1  0  0  0
 63139  1  0  0  0
 63140  1  0  0  0
 63141  1  0  0  0
 64142  1  0  0  0
 65143  1  0  0  0
 68 81  1  0  0  0
 71 72  2  0  0  0
 71 74  1  0  0  0
 71144  1  0  0  0
 72 75  1  0  0  0
 72145  1  0  0  0
 73 75  2  0  0  0
 73 76  1  0  0  0
 73146  1  0  0  0
 74 76  2  0  0  0
 74 78  1  0  0  0
 75 82  1  0  0  0
 76 84  1  0  0  0
 77147  1  0  0  0
 77148  1  0  0  0
 77149  1  0  0  0
 77 83  1  0  0  0
 78 83  1  0  0  0
 78150  1  0  0  0
 78151  1  0  0  0
 79 80  1  0  0  0
 79 81  1  0  0  0
 79152  1  0  0  0
 79153  1  0  0  0
 80 83  1  0  0  0
 80154  1  0  0  0
 80155  1  0  0  0
 81156  1  0  0  0
 81157  1  0  0  0
 82158  1  0  0  0
 83159  1  0  0  0
M  CHG  1  83   1
M  ISO  4   1 100  68 101  81 101  82 100
M  END
> <chiral flag>
0

> <version>
0

> <s_m_source_file>
/data/baiqing/PycharmProjects/Reinvent-master-3.2/result/LINK_invent/BTK/process_docking_weight1_custom_product_contain_oxygen_bond_distance_aromatic_linkinvent_7_9_3/rearranged_h_0020.sdf

> <i_m_source_file_index>
80

> <r_mmod_Potential_Energy-OPLS-2005>
-123.312965393066

> <r_mmod_Stretch_Energy-OPLS-2005>
41.7686157226562

> <r_mmod_Bend_Energy-OPLS-2005>
103.873176574707

> <r_mmod_Torsional_Energy-OPLS-2005>
282.567504882812

> <r_mmod_Improper_Torsional_Energy-OPLS-2005>
5.60172033309937

> <r_mmod_Van_der_Waal_Energy-OPLS-2005>
149.639495849609

> <r_mmod_Electrostatic_Energy-OPLS-2005>
-279.183563232422

> <r_mmod_Solvation_Energy-OPLS-2005>
-444.560119628906

> <b_mmod_Minimization_Converged-OPLS-2005>
0

> <r_mmod_RMS_Derivative-OPLS-2005>
5.4221625328064

$$$$
81
                    3D
 Structure written by MMmdl.
158166  0  0  1  0            999 V2000
  -30.5926  -14.6457   20.5011 C   0  0  0  0  0  0
  -30.4456  -12.3957   19.4474 C   0  0  0  0  0  0
  -29.5108  -12.5104   18.2218 C   0  0  0  0  0  0
  -28.0322  -12.3440   18.6325 C   0  0  0  0  0  0
  -27.6536  -13.2094   19.8632 C   0  0  2  0  0  0
  -28.6987  -13.0513   20.9910 C   0  0  0  0  0  0
  -25.2571  -13.8148   20.5676 C   0  0  0  0  0  0
  -24.1833  -13.0426   20.9188 C   0  0  0  0  0  0
  -24.6391  -11.6894   20.8738 C   0  0  0  0  0  0
  -23.9060  -10.4285   21.0416 C   0  0  0  0  0  0
  -24.3618   -9.4201   21.9192 C   0  0  0  0  0  0
  -23.6289   -8.2241   22.0760 C   0  0  0  0  0  0
  -22.4272   -8.0280   21.3549 C   0  0  0  0  0  0
  -21.9907   -9.0255   20.4655 C   0  0  0  0  0  0
  -22.7235  -10.2132   20.3063 C   0  0  0  0  0  0
  -21.6849   -6.0739   22.5280 C   0  0  0  0  0  0
  -21.4015   -6.5644   23.8214 C   0  0  0  0  0  0
  -21.3661   -5.6796   24.9175 C   0  0  0  0  0  0
  -21.6038   -4.3057   24.7224 C   0  0  0  0  0  0
  -21.8820   -3.8151   23.4345 C   0  0  0  0  0  0
  -21.9192   -4.6968   22.3401 C   0  0  0  0  0  0
  -22.7859  -13.5236   21.1849 C   0  0  0  0  0  0
  -22.1660   -4.2155   21.0979 F   0  0  0  0  0  0
  -21.5625   -3.4540   25.7737 F   0  0  0  0  0  0
  -30.0123  -13.4063   20.4296 N   0  0  0  0  0  0
  -26.2990  -12.9313   20.3308 N   0  0  0  0  0  0
  -25.9315  -11.6476   20.5751 N   0  0  0  0  0  0
  -22.0502  -12.8231   22.0408 N   0  0  0  0  0  0
  -25.4287  -15.1871   20.4090 N   0  0  0  0  0  0
  -31.7593  -14.8397   20.1446 O   0  0  0  0  0  0
  -21.6633   -6.8880   21.4242 O   0  0  0  0  0  0
  -22.3554  -14.5550   20.6704 O   0  0  0  0  0  0
  -24.6254  -31.8592   23.2015 C   0  0  0  0  0  0
  -25.9105  -32.4768   23.8342 C   0  0  1  0  0  0
  -27.2299  -27.3243   20.1062 C   0  0  0  0  0  0
  -25.5924  -33.8571   24.2267 N   0  0  0  0  0  0
  -23.4182  -30.4823   21.5444 C   0  0  2  0  0  0
  -24.8624  -28.9340   20.1121 C   0  0  0  0  0  0
  -22.7463  -29.4620   22.4935 C   0  0  0  0  0  0
  -18.0289  -28.1392   22.8485 C   0  0  0  0  0  0
  -24.1494  -36.7292   23.2639 C   0  0  0  0  0  0
  -25.9579  -30.7902   21.3709 C   0  0  0  0  0  0
  -26.0296  -29.4181   20.7127 C   0  0  0  0  0  0
  -27.2118  -28.6240   20.6997 C   0  0  0  0  0  0
  -26.0311  -26.8794   19.5026 C   0  0  0  0  0  0
  -24.8641  -27.6695   19.5028 C   0  0  0  0  0  0
  -23.6307  -29.8149   20.1599 C   0  0  0  0  0  0
  -25.4122  -36.3081   24.0322 C   0  0  1  0  0  0
  -20.5885  -28.3693   23.1290 C   0  0  2  0  0  0
  -20.6778  -26.9398   22.5474 C   0  0  0  0  0  0
  -19.5771  -26.6347   21.5261 C   0  0  0  0  0  0
  -18.1939  -26.7922   22.1646 C   0  0  0  0  0  0
  -19.1540  -28.8867   23.2868 C   0  0  0  0  0  0
  -18.9471  -30.1482   23.8864 C   0  0  0  0  0  0
  -17.6475  -30.6612   24.0551 C   0  0  0  0  0  0
  -25.9055  -34.9449   23.5100 C   0  0  0  0  0  0
  -16.5363  -29.9098   23.6347 C   0  0  0  0  0  0
  -16.7280  -28.6517   23.0364 C   0  0  0  0  0  0
  -26.4496  -31.6579   25.0711 C   0  0  0  0  0  0
  -25.3735  -31.3715   26.1441 C   0  0  0  0  0  0
  -27.0341  -30.3003   24.6164 C   0  0  0  0  0  0
  -27.6057  -32.4316   25.7483 C   0  0  0  0  0  0
  -27.5584  -37.1802   24.8465 C   0  0  0  0  0  0
  -21.4182  -29.3015   22.3651 N   0  0  0  0  0  0
  -26.4301  -37.3774   23.9403 N   0  0  0  0  0  0
  -24.6862  -31.0606   22.0962 N   0  0  0  0  0  0
  -23.4187  -28.8177   23.3030 O   0  0  0  0  0  0
  -28.3906  -26.5375   20.1525 O   0  0  0  0  0  0
  -26.5623  -34.8915   22.4663 O   0  0  0  0  0  0
  -23.5418  -32.1390   23.7348 O   0  0  0  0  0  0
  -29.0619  -17.8231   19.7196 C   0  0  0  0  0  0
  -28.8514  -19.2362   19.7828 C   0  0  0  0  0  0
  -30.3430  -17.9068   21.7533 C   0  0  0  0  0  0
  -29.7928  -17.1159   20.7145 C   0  0  0  0  0  0
  -29.3260  -20.0170   20.8705 C   0  0  0  0  0  0
  -30.1119  -19.3122   21.8330 C   0  0  0  0  0  0
  -26.4704  -21.1302   21.6253 C   0  0  0  0  0  0
  -28.5474  -23.9478   20.6448 C   0  0  0  0  0  0
  -27.8829  -21.3876   22.1737 C   0  0  0  0  0  0
  -28.8173  -22.4646   20.0911 C   0  0  0  0  0  0
  -28.4849  -25.1592   19.6198 C   0  0  0  0  0  0
  -29.7240  -15.6602   20.8073 N   0  0  0  0  0  0
  -28.9052  -21.3764   21.1219 N   0  0  0  0  0  0
  -30.6030  -19.9848   22.9044 F   0  0  0  0  0  0
  -31.4854  -12.5381   19.1476 H   0  0  0  0  0  0
  -30.3912  -11.3963   19.8823 H   0  0  0  0  0  0
  -29.7780  -11.7644   17.4722 H   0  0  0  0  0  0
  -29.6493  -13.4832   17.7471 H   0  0  0  0  0  0
  -27.8696  -11.2897   18.8586 H   0  0  0  0  0  0
  -27.3782  -12.5782   17.7914 H   0  0  0  0  0  0
  -27.6720  -14.2451   19.5240 H   0  0  0  0  0  0
  -28.7138  -12.0244   21.3600 H   0  0  0  0  0  0
  -28.4433  -13.6693   21.8534 H   0  0  0  0  0  0
  -25.2770   -9.5670   22.4758 H   0  0  0  0  0  0
  -23.9997   -7.4633   22.7477 H   0  0  0  0  0  0
  -21.0839   -8.8778   19.8960 H   0  0  0  0  0  0
  -22.3705  -10.9673   19.6168 H   0  0  0  0  0  0
  -21.2013   -7.6154   23.9720 H   0  0  0  0  0  0
  -21.1482   -6.0527   25.9079 H   0  0  0  0  0  0
  -22.0598   -2.7613   23.2842 H   0  0  0  0  0  0
  -22.4110  -11.9880   22.4783 H   0  0  0  0  0  0
  -21.1130  -13.1267   22.2641 H   0  0  0  0  0  0
  -24.6592  -15.8385   20.5218 H   0  0  0  0  0  0
  -26.2705  -15.6304   20.0661 H   0  0  0  0  0  0
  -26.7172  -32.5429   23.1090 H   0  0  0  0  0  0
  -25.0087  -33.9721   25.0424 H   0  0  0  0  0  0
  -22.7122  -31.3030   21.4025 H   0  0  0  0  0  0
  -23.3751  -35.9632   23.3309 H   0  0  0  0  0  0
  -24.3588  -36.8903   22.2055 H   0  0  0  0  0  0
  -23.7251  -37.6496   23.6657 H   0  0  0  0  0  0
  -26.0900  -31.5554   20.6050 H   0  0  0  0  0  0
  -26.8381  -30.8365   22.0002 H   0  0  0  0  0  0
  -28.1107  -28.9973   21.1703 H   0  0  0  0  0  0
  -25.9506  -25.9094   19.0401 H   0  0  0  0  0  0
  -23.9645  -27.2879   19.0398 H   0  0  0  0  0  0
  -23.7481  -30.5911   19.4025 H   0  0  0  0  0  0
  -22.7498  -29.2441   19.8609 H   0  0  0  0  0  0
  -25.1306  -36.1941   25.0815 H   0  0  0  0  0  0
  -20.9960  -28.3319   24.1418 H   0  0  0  0  0  0
  -21.6654  -26.7389   22.1317 H   0  0  0  0  0  0
  -20.5644  -26.2328   23.3705 H   0  0  0  0  0  0
  -19.6926  -25.6240   21.1334 H   0  0  0  0  0  0
  -19.6741  -27.3122   20.6769 H   0  0  0  0  0  0
  -17.4209  -26.6646   21.4047 H   0  0  0  0  0  0
  -18.0329  -26.0093   22.9072 H   0  0  0  0  0  0
  -19.7952  -30.7312   24.2201 H   0  0  0  0  0  0
  -17.5039  -31.6310   24.5126 H   0  0  0  0  0  0
  -15.5363  -30.2995   23.7701 H   0  0  0  0  0  0
  -15.8668  -28.0851   22.7083 H   0  0  0  0  0  0
  -24.5907  -30.7064   25.7770 H   0  0  0  0  0  0
  -24.8930  -32.2883   26.4872 H   0  0  0  0  0  0
  -25.8069  -30.8887   27.0209 H   0  0  0  0  0  0
  -26.2912  -29.6742   24.1202 H   0  0  0  0  0  0
  -27.4057  -29.7271   25.4668 H   0  0  0  0  0  0
  -27.8776  -30.4293   23.9377 H   0  0  0  0  0  0
  -27.2664  -33.3612   26.2074 H   0  0  0  0  0  0
  -28.3866  -32.6882   25.0308 H   0  0  0  0  0  0
  -28.0730  -31.8426   26.5390 H   0  0  0  0  0  0
  -28.2605  -38.0096   24.7500 H   0  0  0  0  0  0
  -28.1073  -36.2620   24.6310 H   0  0  0  0  0  0
  -27.2290  -37.1472   25.8864 H   0  0  0  0  0  0
  -20.9356  -29.8668   21.6807 H   0  0  0  0  0  0
  -26.0180  -38.2851   24.1388 H   0  0  0  0  0  0
  -28.5915  -17.2719   18.9175 H   0  0  0  0  0  0
  -28.2325  -19.7009   19.0297 H   0  0  0  0  0  0
  -30.8816  -17.4279   22.5566 H   0  0  0  0  0  0
  -25.7393  -21.1154   22.4340 H   0  0  0  0  0  0
  -26.4050  -20.1700   21.1129 H   0  0  0  0  0  0
  -26.1594  -21.9048   20.9246 H   0  0  0  0  0  0
  -29.3154  -24.1787   21.3833 H   0  0  0  0  0  0
  -27.6038  -23.9578   21.1892 H   0  0  0  0  0  0
  -28.1033  -20.6400   22.9377 H   0  0  0  0  0  0
  -27.9100  -22.3400   22.7041 H   0  0  0  0  0  0
  -29.7516  -22.4672   19.5275 H   0  0  0  0  0  0
  -28.0384  -22.2040   19.3733 H   0  0  0  0  0  0
  -27.7456  -24.9485   18.8520 H   0  0  0  0  0  0
  -29.4266  -25.1443   19.0701 H   0  0  0  0  0  0
  -28.8011  -15.3057   21.0065 H   0  0  0  0  0  0
  1 25  1  0  0  0
  1 30  2  0  0  0
  1 82  1  0  0  0
  2  3  1  0  0  0
  2 25  1  0  0  0
  2 85  1  0  0  0
  2 86  1  0  0  0
  3  4  1  0  0  0
  3 87  1  0  0  0
  3 88  1  0  0  0
  4  5  1  0  0  0
  4 89  1  0  0  0
  4 90  1  0  0  0
  5  6  1  0  0  0
  5 26  1  0  0  0
  5 91  1  0  0  0
  6 25  1  0  0  0
  6 92  1  0  0  0
  6 93  1  0  0  0
  7  8  2  0  0  0
  7 26  1  0  0  0
  7 29  1  0  0  0
  8  9  1  0  0  0
  8 22  1  0  0  0
  9 10  1  0  0  0
  9 27  2  0  0  0
 10 11  2  0  0  0
 10 15  1  0  0  0
 11 12  1  0  0  0
 11 94  1  0  0  0
 12 13  2  0  0  0
 12 95  1  0  0  0
 13 14  1  0  0  0
 13 31  1  0  0  0
 14 15  2  0  0  0
 14 96  1  0  0  0
 15 97  1  0  0  0
 16 17  2  0  0  0
 16 21  1  0  0  0
 16 31  1  0  0  0
 17 18  1  0  0  0
 17 98  1  0  0  0
 18 19  2  0  0  0
 18 99  1  0  0  0
 19 20  1  0  0  0
 19 24  1  0  0  0
 20 21  2  0  0  0
 20100  1  0  0  0
 21 23  1  0  0  0
 22 28  1  0  0  0
 22 32  2  0  0  0
 26 27  1  0  0  0
 28101  1  0  0  0
 28102  1  0  0  0
 29103  1  0  0  0
 29104  1  0  0  0
 33 34  1  0  0  0
 33 66  1  0  0  0
 33 70  2  0  0  0
 34 36  1  0  0  0
 34 59  1  0  0  0
 34105  1  0  0  0
 35 44  2  0  0  0
 35 45  1  0  0  0
 35 68  1  0  0  0
 36 56  1  0  0  0
 36106  1  0  0  0
 37 39  1  0  0  0
 37 47  1  0  0  0
 37 66  1  0  0  0
 37107  1  0  0  0
 38 43  2  0  0  0
 38 46  1  0  0  0
 38 47  1  0  0  0
 39 64  1  0  0  0
 39 67  2  0  0  0
 40 52  1  0  0  0
 40 53  2  0  0  0
 40 58  1  0  0  0
 41108  1  0  0  0
 41109  1  0  0  0
 41110  1  0  0  0
 41 48  1  0  0  0
 42 43  1  0  0  0
 42 66  1  0  0  0
 42111  1  0  0  0
 42112  1  0  0  0
 43 44  1  0  0  0
 44113  1  0  0  0
 45 46  2  0  0  0
 45114  1  0  0  0
 46115  1  0  0  0
 47116  1  0  0  0
 47117  1  0  0  0
 48 56  1  0  0  0
 48 65  1  0  0  0
 48118  1  0  0  0
 49 50  1  0  0  0
 49 53  1  0  0  0
 49 64  1  0  0  0
 49119  1  0  0  0
 50 51  1  0  0  0
 50120  1  0  0  0
 50121  1  0  0  0
 51 52  1  0  0  0
 51122  1  0  0  0
 51123  1  0  0  0
 52124  1  0  0  0
 52125  1  0  0  0
 53 54  1  0  0  0
 54 55  2  0  0  0
 54126  1  0  0  0
 55 57  1  0  0  0
 55127  1  0  0  0
 56 69  2  0  0  0
 57 58  2  0  0  0
 57128  1  0  0  0
 58129  1  0  0  0
 59 60  1  0  0  0
 59 61  1  0  0  0
 59 62  1  0  0  0
 60130  1  0  0  0
 60131  1  0  0  0
 60132  1  0  0  0
 61133  1  0  0  0
 61134  1  0  0  0
 61135  1  0  0  0
 62136  1  0  0  0
 62137  1  0  0  0
 62138  1  0  0  0
 63 65  1  0  0  0
 63139  1  0  0  0
 63140  1  0  0  0
 63141  1  0  0  0
 64142  1  0  0  0
 65143  1  0  0  0
 68 81  1  0  0  0
 71 72  2  0  0  0
 71 74  1  0  0  0
 71144  1  0  0  0
 72 75  1  0  0  0
 72145  1  0  0  0
 73 74  2  0  0  0
 73 76  1  0  0  0
 73146  1  0  0  0
 74 82  1  0  0  0
 75 76  2  0  0  0
 75 83  1  0  0  0
 76 84  1  0  0  0
 77 79  1  0  0  0
 77147  1  0  0  0
 77148  1  0  0  0
 77149  1  0  0  0
 78 80  1  0  0  0
 78 81  1  0  0  0
 78150  1  0  0  0
 78151  1  0  0  0
 79 83  1  0  0  0
 79152  1  0  0  0
 79153  1  0  0  0
 80 83  1  0  0  0
 80154  1  0  0  0
 80155  1  0  0  0
 81156  1  0  0  0
 81157  1  0  0  0
 82158  1  0  0  0
M  ISO  4   1 100  68 101  81 101  82 100
M  END
> <chiral flag>
0

> <version>
0

> <s_m_source_file>
/data/baiqing/PycharmProjects/Reinvent-master-3.2/result/LINK_invent/BTK/process_docking_weight1_custom_product_contain_oxygen_bond_distance_aromatic_linkinvent_7_9_3/rearranged_h_0020.sdf

> <i_m_source_file_index>
81

> <r_mmod_Potential_Energy-OPLS-2005>
136.504180908203

> <r_mmod_Stretch_Energy-OPLS-2005>
79.1492614746094

> <r_mmod_Bend_Energy-OPLS-2005>
151.834091186523

> <r_mmod_Torsional_Energy-OPLS-2005>
258.549835205078

> <r_mmod_Improper_Torsional_Energy-OPLS-2005>
10.2230548858643

> <r_mmod_Van_der_Waal_Energy-OPLS-2005>
141.722640991211

> <r_mmod_Electrostatic_Energy-OPLS-2005>
-332.606811523438

> <r_mmod_Solvation_Energy-OPLS-2005>
-219.123458862305

> <b_mmod_Minimization_Converged-OPLS-2005>
0

> <r_mmod_RMS_Derivative-OPLS-2005>
1.09459352493286

$$$$
82
                    3D
 Structure written by MMmdl.
159167  0  0  1  0            999 V2000
  -30.6957  -14.4366   20.6101 C   0  0  0  0  0  0
  -30.4281  -12.2969   19.4053 C   0  0  0  0  0  0
  -29.4922  -12.5148   18.1976 C   0  0  0  0  0  0
  -28.0119  -12.3783   18.6094 C   0  0  0  0  0  0
  -27.6665  -13.1996   19.8800 C   0  0  2  0  0  0
  -28.7061  -12.9320   20.9913 C   0  0  0  0  0  0
  -25.2604  -13.8142   20.5643 C   0  0  0  0  0  0
  -24.1851  -13.0437   20.9166 C   0  0  0  0  0  0
  -24.6396  -11.6899   20.8737 C   0  0  0  0  0  0
  -23.9063  -10.4288   21.0410 C   0  0  0  0  0  0
  -24.3615   -9.4205   21.9190 C   0  0  0  0  0  0
  -23.6291   -8.2241   22.0760 C   0  0  0  0  0  0
  -22.4276   -8.0276   21.3547 C   0  0  0  0  0  0
  -21.9908   -9.0252   20.4654 C   0  0  0  0  0  0
  -22.7237  -10.2131   20.3060 C   0  0  0  0  0  0
  -21.6848   -6.0736   22.5281 C   0  0  0  0  0  0
  -21.4014   -6.5641   23.8215 C   0  0  0  0  0  0
  -21.3659   -5.6793   24.9177 C   0  0  0  0  0  0
  -21.6040   -4.3055   24.7227 C   0  0  0  0  0  0
  -21.8819   -3.8148   23.4349 C   0  0  0  0  0  0
  -21.9196   -4.6964   22.3406 C   0  0  0  0  0  0
  -22.7876  -13.5243   21.1832 C   0  0  0  0  0  0
  -22.1661   -4.2151   21.0984 F   0  0  0  0  0  0
  -21.5630   -3.4538   25.7743 F   0  0  0  0  0  0
  -30.0426  -13.2535   20.4533 N   0  0  0  0  0  0
  -26.3045  -12.9302   20.3375 N   0  0  0  0  0  0
  -25.9320  -11.6468   20.5774 N   0  0  0  0  0  0
  -22.0514  -12.8235   22.0388 N   0  0  0  0  0  0
  -25.4321  -15.1850   20.3985 N   0  0  0  0  0  0
  -31.7905  -14.6688   20.0875 O   0  0  0  0  0  0
  -21.6635   -6.8878   21.4241 O   0  0  0  0  0  0
  -22.3565  -14.5552   20.6687 O   0  0  0  0  0  0
  -24.6124  -31.8695   23.2103 C   0  0  0  0  0  0
  -25.9014  -32.4835   23.8400 C   0  0  1  0  0  0
  -27.2384  -27.4535   20.0980 C   0  0  0  0  0  0
  -25.5876  -33.8632   24.2338 N   0  0  0  0  0  0
  -23.4010  -30.4902   21.5503 C   0  0  2  0  0  0
  -24.8493  -28.9531   20.1206 C   0  0  0  0  0  0
  -22.7406  -29.4653   22.5003 C   0  0  0  0  0  0
  -18.0272  -28.1373   22.8508 C   0  0  0  0  0  0
  -24.1485  -36.7311   23.2636 C   0  0  0  0  0  0
  -25.9268  -30.8402   21.3612 C   0  0  0  0  0  0
  -26.0071  -29.4720   20.7159 C   0  0  0  0  0  0
  -27.2068  -28.7276   20.7051 C   0  0  0  0  0  0
  -26.0688  -26.9382   19.5055 C   0  0  0  0  0  0
  -24.8723  -27.6831   19.5154 C   0  0  0  0  0  0
  -23.6103  -29.8189   20.1662 C   0  0  0  0  0  0
  -25.4106  -36.3121   24.0345 C   0  0  1  0  0  0
  -20.5862  -28.3653   23.1339 C   0  0  2  0  0  0
  -20.6770  -26.9391   22.5427 C   0  0  0  0  0  0
  -19.5750  -26.6388   21.5219 C   0  0  0  0  0  0
  -18.1925  -26.7929   22.1621 C   0  0  0  0  0  0
  -19.1522  -28.8829   23.2920 C   0  0  0  0  0  0
  -18.9451  -30.1443   23.8918 C   0  0  0  0  0  0
  -17.6456  -30.6588   24.0572 C   0  0  0  0  0  0
  -25.9026  -34.9482   23.5142 C   0  0  0  0  0  0
  -16.5345  -29.9096   23.6326 C   0  0  0  0  0  0
  -16.7260  -28.6508   23.0351 C   0  0  0  0  0  0
  -26.4450  -31.6608   25.0719 C   0  0  0  0  0  0
  -25.3721  -31.3715   26.1474 C   0  0  0  0  0  0
  -27.0274  -30.3063   24.6061 C   0  0  0  0  0  0
  -27.6041  -32.4307   25.7470 C   0  0  0  0  0  0
  -27.5585  -37.1812   24.8466 C   0  0  0  0  0  0
  -21.4133  -29.3023   22.3749 N   0  0  0  0  0  0
  -26.4298  -37.3802   23.9409 N   0  0  0  0  0  0
  -24.6646  -31.0809   22.0996 N   0  0  0  0  0  0
  -23.4188  -28.8195   23.3034 O   0  0  0  0  0  0
  -28.4023  -26.7273   20.0395 O   0  0  0  0  0  0
  -26.5591  -34.8937   22.4708 O   0  0  0  0  0  0
  -23.5319  -32.1428   23.7514 O   0  0  0  0  0  0
  -31.1426  -18.9374   20.9257 C   0  0  0  0  0  0
  -31.1069  -17.5335   20.7798 C   0  0  0  0  0  0
  -29.1609  -18.8426   22.3256 C   0  0  0  0  0  0
  -30.1795  -19.6019   21.7148 C   0  0  0  0  0  0
  -29.1165  -17.4383   22.1836 C   0  0  0  0  0  0
  -30.1032  -16.7628   21.4203 C   0  0  0  0  0  0
  -28.0048  -16.6712   22.8835 C   0  0  0  0  0  0
  -30.2842  -21.1016   21.9913 C   0  0  0  0  0  0
  -28.8338  -24.3432   20.4708 C   0  0  0  0  0  0
  -29.3656  -23.3533   21.5356 C   0  0  0  0  0  0
  -28.5573  -25.7442   21.0647 C   0  0  0  0  0  0
  -30.0151  -15.3386   21.3420 N   0  0  0  0  0  0
  -29.5052  -21.9509   21.0605 N   0  3  0  0  0  0
  -31.4708  -12.4078   19.1022 H   0  0  0  0  0  0
  -30.3363  -11.2768   19.7805 H   0  0  0  0  0  0
  -29.7258  -11.7999   17.4073 H   0  0  0  0  0  0
  -29.6636  -13.5052   17.7734 H   0  0  0  0  0  0
  -27.8112  -11.3209   18.7860 H   0  0  0  0  0  0
  -27.3639  -12.6747   17.7835 H   0  0  0  0  0  0
  -27.7249  -14.2545   19.6098 H   0  0  0  0  0  0
  -28.6789  -11.8803   21.2808 H   0  0  0  0  0  0
  -28.4569  -13.4780   21.9020 H   0  0  0  0  0  0
  -25.2762   -9.5675   22.4763 H   0  0  0  0  0  0
  -24.0000   -7.4627   22.7470 H   0  0  0  0  0  0
  -21.0843   -8.8771   19.8953 H   0  0  0  0  0  0
  -22.3703  -10.9670   19.6164 H   0  0  0  0  0  0
  -21.1998   -7.6151   23.9719 H   0  0  0  0  0  0
  -21.1480   -6.0527   25.9084 H   0  0  0  0  0  0
  -22.0598   -2.7611   23.2852 H   0  0  0  0  0  0
  -22.4124  -11.9887   22.4763 H   0  0  0  0  0  0
  -21.1136  -13.1263   22.2596 H   0  0  0  0  0  0
  -24.6619  -15.8388   20.4882 H   0  0  0  0  0  0
  -26.2791  -15.6159   20.0498 H   0  0  0  0  0  0
  -26.7088  -32.5554   23.1168 H   0  0  0  0  0  0
  -25.0044  -33.9804   25.0499 H   0  0  0  0  0  0
  -22.6892  -31.3058   21.4098 H   0  0  0  0  0  0
  -23.3752  -35.9638   23.3311 H   0  0  0  0  0  0
  -24.3588  -36.8909   22.2047 H   0  0  0  0  0  0
  -23.7238  -37.6524   23.6636 H   0  0  0  0  0  0
  -26.0346  -31.6040   20.5897 H   0  0  0  0  0  0
  -26.8166  -30.8988   21.9756 H   0  0  0  0  0  0
  -28.1051  -29.1275   21.1557 H   0  0  0  0  0  0
  -26.0893  -25.9666   19.0315 H   0  0  0  0  0  0
  -23.9821  -27.2789   19.0529 H   0  0  0  0  0  0
  -23.7163  -30.5919   19.4039 H   0  0  0  0  0  0
  -22.7367  -29.2338   19.8724 H   0  0  0  0  0  0
  -25.1287  -36.1982   25.0840 H   0  0  0  0  0  0
  -20.9944  -28.3194   24.1462 H   0  0  0  0  0  0
  -20.5678  -26.2247   23.3603 H   0  0  0  0  0  0
  -21.6642  -26.7447   22.1208 H   0  0  0  0  0  0
  -19.6916  -25.6304   21.1228 H   0  0  0  0  0  0
  -19.6698  -27.3223   20.6769 H   0  0  0  0  0  0
  -17.4201  -26.6686   21.4008 H   0  0  0  0  0  0
  -18.0314  -26.0071   22.9012 H   0  0  0  0  0  0
  -19.7927  -30.7261   24.2284 H   0  0  0  0  0  0
  -17.5012  -31.6268   24.5174 H   0  0  0  0  0  0
  -15.5346  -30.3008   23.7646 H   0  0  0  0  0  0
  -15.8657  -28.0842   22.7046 H   0  0  0  0  0  0
  -24.5881  -30.7076   25.7812 H   0  0  0  0  0  0
  -24.8918  -32.2871   26.4932 H   0  0  0  0  0  0
  -25.8069  -30.8872   27.0224 H   0  0  0  0  0  0
  -26.2813  -29.6842   24.1105 H   0  0  0  0  0  0
  -27.4064  -29.7276   25.4490 H   0  0  0  0  0  0
  -27.8628  -30.4412   23.9192 H   0  0  0  0  0  0
  -27.2686  -33.3607   26.2069 H   0  0  0  0  0  0
  -28.3832  -32.6862   25.0275 H   0  0  0  0  0  0
  -28.0722  -31.8411   26.5362 H   0  0  0  0  0  0
  -28.2607  -38.0108   24.7528 H   0  0  0  0  0  0
  -28.1083  -36.2644   24.6272 H   0  0  0  0  0  0
  -27.2311  -37.1436   25.8874 H   0  0  0  0  0  0
  -20.9285  -29.8737   21.6966 H   0  0  0  0  0  0
  -26.0190  -38.2879   24.1423 H   0  0  0  0  0  0
  -31.9376  -19.4969   20.4520 H   0  0  0  0  0  0
  -31.8767  -17.0740   20.1784 H   0  0  0  0  0  0
  -28.4213  -19.3401   22.9385 H   0  0  0  0  0  0
  -27.2329  -17.3447   23.2573 H   0  0  0  0  0  0
  -28.4032  -16.1148   23.7324 H   0  0  0  0  0  0
  -27.5195  -15.9698   22.2048 H   0  0  0  0  0  0
  -31.3327  -21.4022   21.9647 H   0  0  0  0  0  0
  -29.9457  -21.2794   23.0133 H   0  0  0  0  0  0
  -27.9199  -23.9618   20.0146 H   0  0  0  0  0  0
  -29.5681  -24.4300   19.6686 H   0  0  0  0  0  0
  -28.7075  -23.3606   22.4055 H   0  0  0  0  0  0
  -30.3376  -23.7090   21.8817 H   0  0  0  0  0  0
  -29.3985  -26.0563   21.6840 H   0  0  0  0  0  0
  -27.6915  -25.6994   21.7292 H   0  0  0  0  0  0
  -29.1985  -14.9462   21.7826 H   0  0  0  0  0  0
  -28.5897  -21.5472   20.9491 H   0  0  0  0  0  0
  -29.9617  -21.9355   20.1636 H   0  0  0  0  0  0
  1 25  1  0  0  0
  1 30  2  0  0  0
  1 82  1  0  0  0
  2  3  1  0  0  0
  2 25  1  0  0  0
  2 84  1  0  0  0
  2 85  1  0  0  0
  3  4  1  0  0  0
  3 86  1  0  0  0
  3 87  1  0  0  0
  4  5  1  0  0  0
  4 88  1  0  0  0
  4 89  1  0  0  0
  5  6  1  0  0  0
  5 26  1  0  0  0
  5 90  1  0  0  0
  6 25  1  0  0  0
  6 91  1  0  0  0
  6 92  1  0  0  0
  7  8  2  0  0  0
  7 26  1  0  0  0
  7 29  1  0  0  0
  8  9  1  0  0  0
  8 22  1  0  0  0
  9 10  1  0  0  0
  9 27  2  0  0  0
 10 11  2  0  0  0
 10 15  1  0  0  0
 11 12  1  0  0  0
 11 93  1  0  0  0
 12 13  2  0  0  0
 12 94  1  0  0  0
 13 14  1  0  0  0
 13 31  1  0  0  0
 14 15  2  0  0  0
 14 95  1  0  0  0
 15 96  1  0  0  0
 16 17  2  0  0  0
 16 21  1  0  0  0
 16 31  1  0  0  0
 17 18  1  0  0  0
 17 97  1  0  0  0
 18 19  2  0  0  0
 18 98  1  0  0  0
 19 20  1  0  0  0
 19 24  1  0  0  0
 20 21  2  0  0  0
 20 99  1  0  0  0
 21 23  1  0  0  0
 22 28  1  0  0  0
 22 32  2  0  0  0
 26 27  1  0  0  0
 28100  1  0  0  0
 28101  1  0  0  0
 29102  1  0  0  0
 29103  1  0  0  0
 33 34  1  0  0  0
 33 66  1  0  0  0
 33 70  2  0  0  0
 34 36  1  0  0  0
 34 59  1  0  0  0
 34104  1  0  0  0
 35 44  2  0  0  0
 35 45  1  0  0  0
 35 68  1  0  0  0
 36 56  1  0  0  0
 36105  1  0  0  0
 37 39  1  0  0  0
 37 47  1  0  0  0
 37 66  1  0  0  0
 37106  1  0  0  0
 38 43  2  0  0  0
 38 46  1  0  0  0
 38 47  1  0  0  0
 39 64  1  0  0  0
 39 67  2  0  0  0
 40 52  1  0  0  0
 40 53  2  0  0  0
 40 58  1  0  0  0
 41107  1  0  0  0
 41108  1  0  0  0
 41109  1  0  0  0
 41 48  1  0  0  0
 42 43  1  0  0  0
 42 66  1  0  0  0
 42110  1  0  0  0
 42111  1  0  0  0
 43 44  1  0  0  0
 44112  1  0  0  0
 45 46  2  0  0  0
 45113  1  0  0  0
 46114  1  0  0  0
 47115  1  0  0  0
 47116  1  0  0  0
 48 56  1  0  0  0
 48 65  1  0  0  0
 48117  1  0  0  0
 49 50  1  0  0  0
 49 53  1  0  0  0
 49 64  1  0  0  0
 49118  1  0  0  0
 50 51  1  0  0  0
 50119  1  0  0  0
 50120  1  0  0  0
 51 52  1  0  0  0
 51121  1  0  0  0
 51122  1  0  0  0
 52123  1  0  0  0
 52124  1  0  0  0
 53 54  1  0  0  0
 54 55  2  0  0  0
 54125  1  0  0  0
 55 57  1  0  0  0
 55126  1  0  0  0
 56 69  2  0  0  0
 57 58  2  0  0  0
 57127  1  0  0  0
 58128  1  0  0  0
 59 60  1  0  0  0
 59 61  1  0  0  0
 59 62  1  0  0  0
 60129  1  0  0  0
 60130  1  0  0  0
 60131  1  0  0  0
 61132  1  0  0  0
 61133  1  0  0  0
 61134  1  0  0  0
 62135  1  0  0  0
 62136  1  0  0  0
 62137  1  0  0  0
 63 65  1  0  0  0
 63138  1  0  0  0
 63139  1  0  0  0
 63140  1  0  0  0
 64141  1  0  0  0
 65142  1  0  0  0
 68 81  1  0  0  0
 71 72  2  0  0  0
 71 74  1  0  0  0
 71143  1  0  0  0
 72 76  1  0  0  0
 72144  1  0  0  0
 73 74  2  0  0  0
 73 75  1  0  0  0
 73145  1  0  0  0
 74 78  1  0  0  0
 75 76  2  0  0  0
 75 77  1  0  0  0
 76 82  1  0  0  0
 77146  1  0  0  0
 77147  1  0  0  0
 77148  1  0  0  0
 78 83  1  0  0  0
 78149  1  0  0  0
 78150  1  0  0  0
 79 80  1  0  0  0
 79 81  1  0  0  0
 79151  1  0  0  0
 79152  1  0  0  0
 80 83  1  0  0  0
 80153  1  0  0  0
 80154  1  0  0  0
 81155  1  0  0  0
 81156  1  0  0  0
 82157  1  0  0  0
 83158  1  0  0  0
 83159  1  0  0  0
M  CHG  1  83   1
M  ISO  4   1 100  68 101  81 101  82 100
M  END
> <chiral flag>
0

> <version>
0

> <s_m_source_file>
/data/baiqing/PycharmProjects/Reinvent-master-3.2/result/LINK_invent/BTK/process_docking_weight1_custom_product_contain_oxygen_bond_distance_aromatic_linkinvent_7_9_3/rearranged_h_0020.sdf

> <i_m_source_file_index>
82

> <r_mmod_Potential_Energy-OPLS-2005>
-280.383697509766

> <r_mmod_Stretch_Energy-OPLS-2005>
35.1504173278809

> <r_mmod_Bend_Energy-OPLS-2005>
96.3874664306641

> <r_mmod_Torsional_Energy-OPLS-2005>
225.777038574219

> <r_mmod_Improper_Torsional_Energy-OPLS-2005>
2.90509939193726

> <r_mmod_Van_der_Waal_Energy-OPLS-2005>
149.386871337891

> <r_mmod_Electrostatic_Energy-OPLS-2005>
-328.016784667969

> <r_mmod_Solvation_Energy-OPLS-2005>
-470.342498779297

> <b_mmod_Minimization_Converged-OPLS-2005>
0

> <r_mmod_RMS_Derivative-OPLS-2005>
1.33644866943359

$$$$
83
                    3D
 Structure written by MMmdl.
161169  0  0  1  0            999 V2000
  -30.5739  -14.7292   20.4984 C   0  0  0  0  0  0
  -30.4457  -12.4544   19.4538 C   0  0  0  0  0  0
  -29.5158  -12.5272   18.2222 C   0  0  0  0  0  0
  -28.0333  -12.3575   18.6231 C   0  0  0  0  0  0
  -27.6434  -13.2225   19.8508 C   0  0  2  0  0  0
  -28.6920  -13.1092   20.9785 C   0  0  0  0  0  0
  -25.2523  -13.8166   20.5625 C   0  0  0  0  0  0
  -24.1807  -13.0441   20.9187 C   0  0  0  0  0  0
  -24.6389  -11.6914   20.8752 C   0  0  0  0  0  0
  -23.9062  -10.4301   21.0401 C   0  0  0  0  0  0
  -24.3630   -9.4212   21.9159 C   0  0  0  0  0  0
  -23.6307   -8.2253   22.0743 C   0  0  0  0  0  0
  -22.4284   -8.0293   21.3554 C   0  0  0  0  0  0
  -21.9912   -9.0258   20.4650 C   0  0  0  0  0  0
  -22.7237  -10.2139   20.3049 C   0  0  0  0  0  0
  -21.6865   -6.0735   22.5265 C   0  0  0  0  0  0
  -21.4021   -6.5634   23.8197 C   0  0  0  0  0  0
  -21.3662   -5.6791   24.9157 C   0  0  0  0  0  0
  -21.6041   -4.3055   24.7204 C   0  0  0  0  0  0
  -21.8822   -3.8146   23.4329 C   0  0  0  0  0  0
  -21.9204   -4.6964   22.3392 C   0  0  0  0  0  0
  -22.7836  -13.5249   21.1834 C   0  0  0  0  0  0
  -22.1664   -4.2155   21.0965 F   0  0  0  0  0  0
  -21.5624   -3.4533   25.7715 F   0  0  0  0  0  0
  -29.9890  -13.4889   20.4034 N   0  0  0  0  0  0
  -26.2943  -12.9351   20.3257 N   0  0  0  0  0  0
  -25.9308  -11.6505   20.5735 N   0  0  0  0  0  0
  -22.0469  -12.8278   22.0403 N   0  0  0  0  0  0
  -25.4171  -15.1880   20.3905 N   0  0  0  0  0  0
  -31.7708  -14.8825   20.2328 O   0  0  0  0  0  0
  -21.6652   -6.8886   21.4238 O   0  0  0  0  0  0
  -22.3532  -14.5552   20.6651 O   0  0  0  0  0  0
  -24.6291  -31.8571   23.1970 C   0  0  0  0  0  0
  -25.9110  -32.4773   23.8321 C   0  0  1  0  0  0
  -27.2247  -27.2771   20.1497 C   0  0  0  0  0  0
  -25.5907  -33.8577   24.2256 N   0  0  0  0  0  0
  -23.4266  -30.4774   21.5407 C   0  0  2  0  0  0
  -24.8750  -28.9189   20.1147 C   0  0  0  0  0  0
  -22.7486  -29.4604   22.4918 C   0  0  0  0  0  0
  -18.0284  -28.1397   22.8481 C   0  0  0  0  0  0
  -24.1473  -36.7295   23.2640 C   0  0  0  0  0  0
  -25.9681  -30.7761   21.3719 C   0  0  0  0  0  0
  -26.0444  -29.3966   20.7222 C   0  0  0  0  0  0
  -27.2250  -28.5908   20.7220 C   0  0  0  0  0  0
  -26.0366  -26.8534   19.5203 C   0  0  0  0  0  0
  -24.8764  -27.6552   19.4987 C   0  0  0  0  0  0
  -23.6451  -29.8066   20.1583 C   0  0  0  0  0  0
  -25.4106  -36.3096   24.0333 C   0  0  1  0  0  0
  -20.5881  -28.3709   23.1281 C   0  0  2  0  0  0
  -20.6791  -26.9438   22.5418 C   0  0  0  0  0  0
  -19.5772  -26.6387   21.5228 C   0  0  0  0  0  0
  -18.1942  -26.7936   22.1619 C   0  0  0  0  0  0
  -19.1534  -28.8867   23.2872 C   0  0  0  0  0  0
  -18.9457  -30.1462   23.8900 C   0  0  0  0  0  0
  -17.6460  -30.6605   24.0560 C   0  0  0  0  0  0
  -25.9051  -34.9463   23.5108 C   0  0  0  0  0  0
  -16.5349  -29.9111   23.6322 C   0  0  0  0  0  0
  -16.7265  -28.6520   23.0351 C   0  0  0  0  0  0
  -26.4481  -31.6593   25.0707 C   0  0  0  0  0  0
  -25.3699  -31.3761   26.1431 C   0  0  0  0  0  0
  -27.0337  -30.3013   24.6176 C   0  0  0  0  0  0
  -27.6030  -32.4337   25.7490 C   0  0  0  0  0  0
  -27.5578  -37.1808   24.8459 C   0  0  0  0  0  0
  -21.4191  -29.3049   22.3663 N   0  0  0  0  0  0
  -26.4277  -37.3801   23.9417 N   0  0  0  0  0  0
  -24.6942  -31.0538   22.0942 N   0  0  0  0  0  0
  -23.4179  -28.8151   23.3030 O   0  0  0  0  0  0
  -28.3313  -26.4077   20.1515 O   0  0  0  0  0  0
  -26.5634  -34.8942   22.4683 O   0  0  0  0  0  0
  -23.5440  -32.1376   23.7269 O   0  0  0  0  0  0
  -29.6397  -18.4177   20.3492 C   0  0  0  0  0  0
  -29.6951  -17.2934   22.5056 C   0  0  0  0  0  0
  -29.3336  -19.7222   22.3641 C   0  0  0  0  0  0
  -29.7686  -17.1741   21.1029 C   0  0  0  0  0  0
  -29.4362  -19.7399   20.9512 C   0  0  0  0  0  0
  -29.4775  -18.5407   23.1203 C   0  0  0  0  0  0
  -31.4163  -21.1291   18.8631 C   0  0  0  0  0  0
  -30.4053  -22.7640   21.7433 C   0  0  0  0  0  0
  -28.7151  -23.6878   20.0550 C   0  0  0  0  0  0
  -29.8842  -21.0333   18.8889 C   0  0  0  0  0  0
  -28.1976  -25.0487   20.7706 C   0  0  0  0  0  0
  -29.1428  -22.3834   20.9379 C   0  0  1  0  0  0
  -29.6965  -15.8016   20.5509 N   0  0  0  0  0  0
  -29.3268  -21.0268   20.2460 N   0  0  0  0  0  0
  -29.3720  -18.6029   24.4698 F   0  0  0  0  0  0
  -31.4851  -12.6020   19.1549 H   0  0  0  0  0  0
  -30.3988  -11.4658   19.9109 H   0  0  0  0  0  0
  -29.7958  -11.7641   17.4945 H   0  0  0  0  0  0
  -29.6534  -13.4890   17.7239 H   0  0  0  0  0  0
  -27.8660  -11.3042   18.8454 H   0  0  0  0  0  0
  -27.3909  -12.5916   17.7719 H   0  0  0  0  0  0
  -27.6466  -14.2528   19.4998 H   0  0  0  0  0  0
  -28.7310  -12.0906   21.3686 H   0  0  0  0  0  0
  -28.4330  -13.7510   21.8215 H   0  0  0  0  0  0
  -25.2755   -9.5718   22.4726 H   0  0  0  0  0  0
  -24.0018   -7.4659   22.7466 H   0  0  0  0  0  0
  -21.0829   -8.8781   19.8983 H   0  0  0  0  0  0
  -22.3662  -10.9681   19.6174 H   0  0  0  0  0  0
  -21.2004   -7.6139   23.9704 H   0  0  0  0  0  0
  -21.1485   -6.0512   25.9066 H   0  0  0  0  0  0
  -22.0606   -2.7610   23.2819 H   0  0  0  0  0  0
  -22.4076  -11.9974   22.4878 H   0  0  0  0  0  0
  -21.1082  -13.1321   22.2574 H   0  0  0  0  0  0
  -24.6285  -15.8244   20.4424 H   0  0  0  0  0  0
  -26.2274  -15.6136   19.9613 H   0  0  0  0  0  0
  -26.7170  -32.5444   23.1069 H   0  0  0  0  0  0
  -25.0064  -33.9713   25.0401 H   0  0  0  0  0  0
  -22.7220  -31.2981   21.3940 H   0  0  0  0  0  0
  -23.3762  -35.9599   23.3287 H   0  0  0  0  0  0
  -24.3566  -36.8931   22.2058 H   0  0  0  0  0  0
  -23.7179  -37.6474   23.6666 H   0  0  0  0  0  0
  -26.0942  -31.5311   20.5948 H   0  0  0  0  0  0
  -26.8508  -30.8351   21.9976 H   0  0  0  0  0  0
  -28.1245  -28.9566   21.1959 H   0  0  0  0  0  0
  -26.0028  -25.8813   19.0466 H   0  0  0  0  0  0
  -23.9835  -27.2858   19.0137 H   0  0  0  0  0  0
  -23.7693  -30.5820   19.4021 H   0  0  0  0  0  0
  -22.7636  -29.2398   19.8546 H   0  0  0  0  0  0
  -25.1283  -36.1970   25.0825 H   0  0  0  0  0  0
  -20.9958  -28.3307   24.1405 H   0  0  0  0  0  0
  -20.5729  -26.2325   23.3622 H   0  0  0  0  0  0
  -21.6663  -26.7501   22.1199 H   0  0  0  0  0  0
  -19.6960  -25.6297   21.1275 H   0  0  0  0  0  0
  -19.6730  -27.3178   20.6748 H   0  0  0  0  0  0
  -17.4229  -26.6657   21.4014 H   0  0  0  0  0  0
  -18.0342  -26.0083   22.9015 H   0  0  0  0  0  0
  -19.7941  -30.7261   24.2274 H   0  0  0  0  0  0
  -17.5033  -31.6292   24.5163 H   0  0  0  0  0  0
  -15.5358  -30.3029   23.7656 H   0  0  0  0  0  0
  -15.8650  -28.0853   22.7072 H   0  0  0  0  0  0
  -24.5827  -30.7176   25.7739 H   0  0  0  0  0  0
  -24.8961  -32.2962   26.4872 H   0  0  0  0  0  0
  -25.8000  -30.8895   27.0195 H   0  0  0  0  0  0
  -26.2936  -29.6774   24.1155 H   0  0  0  0  0  0
  -27.3979  -29.7261   25.4697 H   0  0  0  0  0  0
  -27.8818  -30.4299   23.9448 H   0  0  0  0  0  0
  -27.2617  -33.3628   26.2072 H   0  0  0  0  0  0
  -28.3848  -32.6916   25.0332 H   0  0  0  0  0  0
  -28.0690  -31.8464   26.5413 H   0  0  0  0  0  0
  -28.2590  -38.0111   24.7545 H   0  0  0  0  0  0
  -28.1080  -36.2656   24.6244 H   0  0  0  0  0  0
  -27.2310  -37.1413   25.8861 H   0  0  0  0  0  0
  -20.9372  -29.8747   21.6852 H   0  0  0  0  0  0
  -26.0174  -38.2874   24.1447 H   0  0  0  0  0  0
  -29.6625  -18.3190   19.2752 H   0  0  0  0  0  0
  -29.7321  -16.4154   23.1331 H   0  0  0  0  0  0
  -29.1364  -20.6257   22.9213 H   0  0  0  0  0  0
  -31.7813  -21.0497   17.8393 H   0  0  0  0  0  0
  -31.8874  -20.3351   19.4410 H   0  0  0  0  0  0
  -31.7727  -22.0827   19.2471 H   0  0  0  0  0  0
  -30.1815  -23.5537   22.4607 H   0  0  0  0  0  0
  -31.2022  -23.1385   21.1023 H   0  0  0  0  0  0
  -30.8216  -21.9354   22.3139 H   0  0  0  0  0  0
  -29.5714  -23.9618   19.4398 H   0  0  0  0  0  0
  -27.9389  -23.3884   19.3500 H   0  0  0  0  0  0
  -29.5520  -20.1625   18.3271 H   0  0  0  0  0  0
  -29.4754  -21.8755   18.3305 H   0  0  0  0  0  0
  -28.7287  -25.1446   21.7166 H   0  0  0  0  0  0
  -27.1631  -24.8841   21.0723 H   0  0  0  0  0  0
  -28.3293  -22.2327   21.6472 H   0  0  0  0  0  0
  -28.7499  -15.4631   20.4863 H   0  0  0  0  0  0
  1 25  1  0  0  0
  1 30  2  0  0  0
  1 83  1  0  0  0
  2  3  1  0  0  0
  2 25  1  0  0  0
  2 86  1  0  0  0
  2 87  1  0  0  0
  3  4  1  0  0  0
  3 88  1  0  0  0
  3 89  1  0  0  0
  4  5  1  0  0  0
  4 90  1  0  0  0
  4 91  1  0  0  0
  5  6  1  0  0  0
  5 26  1  0  0  0
  5 92  1  0  0  0
  6 25  1  0  0  0
  6 93  1  0  0  0
  6 94  1  0  0  0
  7  8  2  0  0  0
  7 26  1  0  0  0
  7 29  1  0  0  0
  8  9  1  0  0  0
  8 22  1  0  0  0
  9 10  1  0  0  0
  9 27  2  0  0  0
 10 11  2  0  0  0
 10 15  1  0  0  0
 11 12  1  0  0  0
 11 95  1  0  0  0
 12 13  2  0  0  0
 12 96  1  0  0  0
 13 14  1  0  0  0
 13 31  1  0  0  0
 14 15  2  0  0  0
 14 97  1  0  0  0
 15 98  1  0  0  0
 16 17  2  0  0  0
 16 21  1  0  0  0
 16 31  1  0  0  0
 17 18  1  0  0  0
 17 99  1  0  0  0
 18 19  2  0  0  0
 18100  1  0  0  0
 19 20  1  0  0  0
 19 24  1  0  0  0
 20 21  2  0  0  0
 20101  1  0  0  0
 21 23  1  0  0  0
 22 28  1  0  0  0
 22 32  2  0  0  0
 26 27  1  0  0  0
 28102  1  0  0  0
 28103  1  0  0  0
 29104  1  0  0  0
 29105  1  0  0  0
 33 34  1  0  0  0
 33 66  1  0  0  0
 33 70  2  0  0  0
 34 36  1  0  0  0
 34 59  1  0  0  0
 34106  1  0  0  0
 35 44  2  0  0  0
 35 45  1  0  0  0
 35 68  1  0  0  0
 36 56  1  0  0  0
 36107  1  0  0  0
 37 39  1  0  0  0
 37 47  1  0  0  0
 37 66  1  0  0  0
 37108  1  0  0  0
 38 43  2  0  0  0
 38 46  1  0  0  0
 38 47  1  0  0  0
 39 64  1  0  0  0
 39 67  2  0  0  0
 40 52  1  0  0  0
 40 53  2  0  0  0
 40 58  1  0  0  0
 41109  1  0  0  0
 41110  1  0  0  0
 41111  1  0  0  0
 41 48  1  0  0  0
 42 43  1  0  0  0
 42 66  1  0  0  0
 42112  1  0  0  0
 42113  1  0  0  0
 43 44  1  0  0  0
 44114  1  0  0  0
 45 46  2  0  0  0
 45115  1  0  0  0
 46116  1  0  0  0
 47117  1  0  0  0
 47118  1  0  0  0
 48 56  1  0  0  0
 48 65  1  0  0  0
 48119  1  0  0  0
 49 50  1  0  0  0
 49 53  1  0  0  0
 49 64  1  0  0  0
 49120  1  0  0  0
 50 51  1  0  0  0
 50121  1  0  0  0
 50122  1  0  0  0
 51 52  1  0  0  0
 51123  1  0  0  0
 51124  1  0  0  0
 52125  1  0  0  0
 52126  1  0  0  0
 53 54  1  0  0  0
 54 55  2  0  0  0
 54127  1  0  0  0
 55 57  1  0  0  0
 55128  1  0  0  0
 56 69  2  0  0  0
 57 58  2  0  0  0
 57129  1  0  0  0
 58130  1  0  0  0
 59 60  1  0  0  0
 59 61  1  0  0  0
 59 62  1  0  0  0
 60131  1  0  0  0
 60132  1  0  0  0
 60133  1  0  0  0
 61134  1  0  0  0
 61135  1  0  0  0
 61136  1  0  0  0
 62137  1  0  0  0
 62138  1  0  0  0
 62139  1  0  0  0
 63 65  1  0  0  0
 63140  1  0  0  0
 63141  1  0  0  0
 63142  1  0  0  0
 64143  1  0  0  0
 65144  1  0  0  0
 68 81  1  0  0  0
 71 74  2  0  0  0
 71 75  1  0  0  0
 71145  1  0  0  0
 72 74  1  0  0  0
 72 76  2  0  0  0
 72146  1  0  0  0
 73 75  2  0  0  0
 73 76  1  0  0  0
 73147  1  0  0  0
 74 83  1  0  0  0
 75 84  1  0  0  0
 76 85  1  0  0  0
 77 80  1  0  0  0
 77148  1  0  0  0
 77149  1  0  0  0
 77150  1  0  0  0
 78151  1  0  0  0
 78152  1  0  0  0
 78153  1  0  0  0
 78 82  1  0  0  0
 79 81  1  0  0  0
 79 82  1  0  0  0
 79154  1  0  0  0
 79155  1  0  0  0
 80 84  1  0  0  0
 80156  1  0  0  0
 80157  1  0  0  0
 81158  1  0  0  0
 81159  1  0  0  0
 82 84  1  0  0  0
 82160  1  0  0  0
 83161  1  0  0  0
M  ISO  4   1 100  68 101  81 101  83 100
M  END
> <chiral flag>
0

> <version>
0

> <s_m_source_file>
/data/baiqing/PycharmProjects/Reinvent-master-3.2/result/LINK_invent/BTK/process_docking_weight1_custom_product_contain_oxygen_bond_distance_aromatic_linkinvent_7_9_3/rearranged_h_0020.sdf

> <i_m_source_file_index>
83

> <r_mmod_Potential_Energy-OPLS-2005>
255.722747802734

> <r_mmod_Stretch_Energy-OPLS-2005>
128.330993652344

> <r_mmod_Bend_Energy-OPLS-2005>
176.998687744141

> <r_mmod_Torsional_Energy-OPLS-2005>
278.591430664062

> <r_mmod_Improper_Torsional_Energy-OPLS-2005>
14.013650894165

> <r_mmod_Van_der_Waal_Energy-OPLS-2005>
139.161178588867

> <r_mmod_Electrostatic_Energy-OPLS-2005>
-343.340942382812

> <r_mmod_Solvation_Energy-OPLS-2005>
-215.438598632812

> <b_mmod_Minimization_Converged-OPLS-2005>
0

> <r_mmod_RMS_Derivative-OPLS-2005>
2.93540787696838

$$$$
84
                    3D
 Structure written by MMmdl.
159167  0  0  1  0            999 V2000
  -30.6675  -14.4703   20.4986 C   0  0  0  0  0  0
  -30.4362  -12.2851   19.4147 C   0  0  0  0  0  0
  -29.5066  -12.5014   18.2002 C   0  0  0  0  0  0
  -28.0173  -12.3892   18.5950 C   0  0  0  0  0  0
  -27.6675  -13.2030   19.8714 C   0  0  2  0  0  0
  -28.7134  -12.9502   20.9843 C   0  0  0  0  0  0
  -25.2616  -13.8137   20.5673 C   0  0  0  0  0  0
  -24.1858  -13.0435   20.9152 C   0  0  0  0  0  0
  -24.6406  -11.6891   20.8701 C   0  0  0  0  0  0
  -23.9066  -10.4286   21.0377 C   0  0  0  0  0  0
  -24.3610   -9.4220   21.9181 C   0  0  0  0  0  0
  -23.6289   -8.2259   22.0782 C   0  0  0  0  0  0
  -22.4279   -8.0284   21.3559 C   0  0  0  0  0  0
  -21.9901   -9.0248   20.4655 C   0  0  0  0  0  0
  -22.7225  -10.2128   20.3046 C   0  0  0  0  0  0
  -21.6856   -6.0738   22.5284 C   0  0  0  0  0  0
  -21.4001   -6.5644   23.8211 C   0  0  0  0  0  0
  -21.3647   -5.6801   24.9176 C   0  0  0  0  0  0
  -21.6050   -4.3069   24.7225 C   0  0  0  0  0  0
  -21.8823   -3.8157   23.4352 C   0  0  0  0  0  0
  -21.9190   -4.6963   22.3404 C   0  0  0  0  0  0
  -22.7865  -13.5247   21.1799 C   0  0  0  0  0  0
  -22.1663   -4.2168   21.0974 F   0  0  0  0  0  0
  -21.5638   -3.4546   25.7727 F   0  0  0  0  0  0
  -30.0444  -13.2638   20.4382 N   0  0  0  0  0  0
  -26.3063  -12.9314   20.3323 N   0  0  0  0  0  0
  -25.9339  -11.6472   20.5713 N   0  0  0  0  0  0
  -22.0442  -12.8284   22.0328 N   0  0  0  0  0  0
  -25.4275  -15.1871   20.4122 N   0  0  0  0  0  0
  -31.8185  -14.6576   20.0905 O   0  0  0  0  0  0
  -21.6655   -6.8876   21.4242 O   0  0  0  0  0  0
  -22.3566  -14.5548   20.6614 O   0  0  0  0  0  0
  -24.6172  -31.8683   23.2139 C   0  0  0  0  0  0
  -25.9056  -32.4834   23.8404 C   0  0  1  0  0  0
  -27.2196  -27.4092   20.0822 C   0  0  0  0  0  0
  -25.5928  -33.8635   24.2335 N   0  0  0  0  0  0
  -23.4091  -30.5011   21.5485 C   0  0  2  0  0  0
  -24.8549  -28.9762   20.1068 C   0  0  0  0  0  0
  -22.7453  -29.4687   22.4892 C   0  0  0  0  0  0
  -18.0282  -28.1437   22.8470 C   0  0  0  0  0  0
  -24.1481  -36.7305   23.2640 C   0  0  0  0  0  0
  -25.9489  -30.8172   21.3866 C   0  0  0  0  0  0
  -26.0187  -29.4593   20.7169 C   0  0  0  0  0  0
  -27.2045  -28.6822   20.7037 C   0  0  0  0  0  0
  -26.0344  -26.9668   19.4444 C   0  0  0  0  0  0
  -24.8588  -27.7297   19.4671 C   0  0  0  0  0  0
  -23.6261  -29.8529   20.1575 C   0  0  0  0  0  0
  -25.4114  -36.3114   24.0333 C   0  0  1  0  0  0
  -20.5894  -28.3733   23.1290 C   0  0  2  0  0  0
  -20.6793  -26.9454   22.5414 C   0  0  0  0  0  0
  -19.5760  -26.6420   21.5234 C   0  0  0  0  0  0
  -18.1932  -26.7976   22.1625 C   0  0  0  0  0  0
  -19.1540  -28.8893   23.2874 C   0  0  0  0  0  0
  -18.9459  -30.1493   23.8897 C   0  0  0  0  0  0
  -17.6457  -30.6614   24.0591 C   0  0  0  0  0  0
  -25.9051  -34.9491   23.5122 C   0  0  0  0  0  0
  -16.5346  -29.9134   23.6327 C   0  0  0  0  0  0
  -16.7269  -28.6571   23.0310 C   0  0  0  0  0  0
  -26.4459  -31.6636   25.0764 C   0  0  0  0  0  0
  -25.3692  -31.3789   26.1506 C   0  0  0  0  0  0
  -27.0321  -30.3062   24.6211 C   0  0  0  0  0  0
  -27.6020  -32.4394   25.7513 C   0  0  0  0  0  0
  -27.5577  -37.1810   24.8461 C   0  0  0  0  0  0
  -21.4173  -29.3091   22.3681 N   0  0  0  0  0  0
  -26.4292  -37.3795   23.9402 N   0  0  0  0  0  0
  -24.6750  -31.0786   22.1051 N   0  0  0  0  0  0
  -23.4203  -28.8169   23.2909 O   0  0  0  0  0  0
  -28.3534  -26.6091   20.1219 O   0  0  0  0  0  0
  -26.5594  -34.8924   22.4669 O   0  0  0  0  0  0
  -23.5360  -32.1474   23.7503 O   0  0  0  0  0  0
  -29.8821  -16.7612   18.7138 C   0  0  0  0  0  0
  -29.6550  -17.9549   18.0051 C   0  0  0  0  0  0
  -29.3671  -17.9131   20.7962 C   0  0  0  0  0  0
  -29.1474  -19.1281   20.0920 C   0  0  0  0  0  0
  -29.7449  -16.7270   20.1224 C   0  0  0  0  0  0
  -29.2861  -19.1321   18.6803 C   0  0  0  0  0  0
  -30.8597  -21.5774   20.8992 C   0  0  0  0  0  0
  -28.6868  -20.3820   20.8531 C   0  0  0  0  0  0
  -29.2396  -24.2276   20.4844 C   0  0  0  0  0  0
  -28.7178  -22.8561   21.0257 C   0  0  0  0  0  0
  -28.0725  -25.1892   20.1463 C   0  0  0  0  0  0
  -29.8797  -15.5038   20.8525 N   0  0  0  0  0  0
  -29.4262  -21.6383   20.5279 N   0  3  1  0  0  0
  -28.9898  -20.5569   17.7418 Cl  0  0  0  0  0  0
  -31.4806  -12.3874   19.1150 H   0  0  0  0  0  0
  -30.3453  -11.2685   19.7959 H   0  0  0  0  0  0
  -29.7402  -11.7902   17.4068 H   0  0  0  0  0  0
  -29.6918  -13.4887   17.7750 H   0  0  0  0  0  0
  -27.7819  -11.3351   18.7419 H   0  0  0  0  0  0
  -27.3954  -12.7206   17.7623 H   0  0  0  0  0  0
  -27.7136  -14.2552   19.5928 H   0  0  0  0  0  0
  -28.6837  -11.9014   21.2823 H   0  0  0  0  0  0
  -28.4952  -13.5242   21.8856 H   0  0  0  0  0  0
  -25.2734   -9.5748   22.4761 H   0  0  0  0  0  0
  -24.0002   -7.4679   22.7535 H   0  0  0  0  0  0
  -21.0832   -8.8737   19.8963 H   0  0  0  0  0  0
  -22.3647  -10.9659   19.6162 H   0  0  0  0  0  0
  -21.1970   -7.6152   23.9718 H   0  0  0  0  0  0
  -21.1471   -6.0526   25.9079 H   0  0  0  0  0  0
  -22.0606   -2.7623   23.2837 H   0  0  0  0  0  0
  -22.3998  -11.9986   22.4845 H   0  0  0  0  0  0
  -21.1037  -13.1346   22.2394 H   0  0  0  0  0  0
  -24.6527  -15.8293   20.5396 H   0  0  0  0  0  0
  -26.2714  -15.6417   20.0900 H   0  0  0  0  0  0
  -26.7129  -32.5507   23.1165 H   0  0  0  0  0  0
  -25.0119  -33.9796   25.0500 H   0  0  0  0  0  0
  -22.6965  -31.3184   21.4118 H   0  0  0  0  0  0
  -23.3744  -35.9633   23.3321 H   0  0  0  0  0  0
  -24.3573  -36.8905   22.2048 H   0  0  0  0  0  0
  -23.7229  -37.6509   23.6650 H   0  0  0  0  0  0
  -26.0962  -31.5907   20.6305 H   0  0  0  0  0  0
  -26.8262  -30.8478   22.0224 H   0  0  0  0  0  0
  -28.0983  -29.0404   21.1935 H   0  0  0  0  0  0
  -25.9829  -26.0309   18.9089 H   0  0  0  0  0  0
  -23.9729  -27.3562   18.9743 H   0  0  0  0  0  0
  -23.7602  -30.6421   19.4166 H   0  0  0  0  0  0
  -22.7458  -29.2954   19.8328 H   0  0  0  0  0  0
  -25.1284  -36.1986   25.0825 H   0  0  0  0  0  0
  -20.9971  -28.3329   24.1419 H   0  0  0  0  0  0
  -20.5790  -26.2308   23.3595 H   0  0  0  0  0  0
  -21.6641  -26.7560   22.1129 H   0  0  0  0  0  0
  -19.6921  -25.6339   21.1251 H   0  0  0  0  0  0
  -19.6706  -27.3234   20.6771 H   0  0  0  0  0  0
  -17.4196  -26.6717   21.4024 H   0  0  0  0  0  0
  -18.0313  -26.0152   22.9056 H   0  0  0  0  0  0
  -19.7939  -30.7324   24.2238 H   0  0  0  0  0  0
  -17.5023  -31.6278   24.5234 H   0  0  0  0  0  0
  -15.5357  -30.3040   23.7687 H   0  0  0  0  0  0
  -15.8663  -28.0942   22.6969 H   0  0  0  0  0  0
  -24.5825  -30.7191   25.7837 H   0  0  0  0  0  0
  -24.8928  -32.2975   26.4955 H   0  0  0  0  0  0
  -25.8014  -30.8932   27.0269 H   0  0  0  0  0  0
  -26.2912  -29.6786   24.1255 H   0  0  0  0  0  0
  -27.4057  -29.7360   25.4730 H   0  0  0  0  0  0
  -27.8752  -30.4347   23.9417 H   0  0  0  0  0  0
  -27.2611  -33.3675   26.2109 H   0  0  0  0  0  0
  -28.3792  -32.7019   25.0319 H   0  0  0  0  0  0
  -28.0720  -31.8520   26.5405 H   0  0  0  0  0  0
  -28.2601  -38.0102   24.7526 H   0  0  0  0  0  0
  -28.1069  -36.2643   24.6278 H   0  0  0  0  0  0
  -27.2293  -37.1457   25.8861 H   0  0  0  0  0  0
  -20.9335  -29.8839   21.6928 H   0  0  0  0  0  0
  -26.0186  -38.2869   24.1410 H   0  0  0  0  0  0
  -30.1321  -15.8732   18.1509 H   0  0  0  0  0  0
  -29.7488  -17.9623   16.9287 H   0  0  0  0  0  0
  -29.2317  -17.8793   21.8681 H   0  0  0  0  0  0
  -31.3839  -22.4711   20.5637 H   0  0  0  0  0  0
  -31.3529  -20.7269   20.4288 H   0  0  0  0  0  0
  -30.9867  -21.4857   21.9785 H   0  0  0  0  0  0
  -28.7528  -20.2078   21.9278 H   0  0  0  0  0  0
  -27.6262  -20.5114   20.6309 H   0  0  0  0  0  0
  -29.8437  -24.0841   19.5882 H   0  0  0  0  0  0
  -29.8998  -24.6787   21.2259 H   0  0  0  0  0  0
  -27.6717  -22.7561   20.7336 H   0  0  0  0  0  0
  -28.7166  -22.8657   22.1189 H   0  0  0  0  0  0
  -27.2674  -25.0157   20.8644 H   0  0  0  0  0  0
  -27.7030  -24.8780   19.1685 H   0  0  0  0  0  0
  -29.0800  -15.2508   21.4140 H   0  0  0  0  0  0
  -29.3948  -21.6863   19.5173 H   0  0  0  0  0  0
  1 25  1  0  0  0
  1 30  2  0  0  0
  1 82  1  0  0  0
  2  3  1  0  0  0
  2 25  1  0  0  0
  2 85  1  0  0  0
  2 86  1  0  0  0
  3  4  1  0  0  0
  3 87  1  0  0  0
  3 88  1  0  0  0
  4  5  1  0  0  0
  4 89  1  0  0  0
  4 90  1  0  0  0
  5  6  1  0  0  0
  5 26  1  0  0  0
  5 91  1  0  0  0
  6 25  1  0  0  0
  6 92  1  0  0  0
  6 93  1  0  0  0
  7  8  2  0  0  0
  7 26  1  0  0  0
  7 29  1  0  0  0
  8  9  1  0  0  0
  8 22  1  0  0  0
  9 10  1  0  0  0
  9 27  2  0  0  0
 10 11  2  0  0  0
 10 15  1  0  0  0
 11 12  1  0  0  0
 11 94  1  0  0  0
 12 13  2  0  0  0
 12 95  1  0  0  0
 13 14  1  0  0  0
 13 31  1  0  0  0
 14 15  2  0  0  0
 14 96  1  0  0  0
 15 97  1  0  0  0
 16 17  2  0  0  0
 16 21  1  0  0  0
 16 31  1  0  0  0
 17 18  1  0  0  0
 17 98  1  0  0  0
 18 19  2  0  0  0
 18 99  1  0  0  0
 19 20  1  0  0  0
 19 24  1  0  0  0
 20 21  2  0  0  0
 20100  1  0  0  0
 21 23  1  0  0  0
 22 28  1  0  0  0
 22 32  2  0  0  0
 26 27  1  0  0  0
 28101  1  0  0  0
 28102  1  0  0  0
 29103  1  0  0  0
 29104  1  0  0  0
 33 34  1  0  0  0
 33 66  1  0  0  0
 33 70  2  0  0  0
 34 36  1  0  0  0
 34 59  1  0  0  0
 34105  1  0  0  0
 35 44  2  0  0  0
 35 45  1  0  0  0
 35 68  1  0  0  0
 36 56  1  0  0  0
 36106  1  0  0  0
 37 39  1  0  0  0
 37 47  1  0  0  0
 37 66  1  0  0  0
 37107  1  0  0  0
 38 43  2  0  0  0
 38 46  1  0  0  0
 38 47  1  0  0  0
 39 64  1  0  0  0
 39 67  2  0  0  0
 40 52  1  0  0  0
 40 53  2  0  0  0
 40 58  1  0  0  0
 41108  1  0  0  0
 41109  1  0  0  0
 41110  1  0  0  0
 41 48  1  0  0  0
 42 43  1  0  0  0
 42 66  1  0  0  0
 42111  1  0  0  0
 42112  1  0  0  0
 43 44  1  0  0  0
 44113  1  0  0  0
 45 46  2  0  0  0
 45114  1  0  0  0
 46115  1  0  0  0
 47116  1  0  0  0
 47117  1  0  0  0
 48 56  1  0  0  0
 48 65  1  0  0  0
 48118  1  0  0  0
 49 50  1  0  0  0
 49 53  1  0  0  0
 49 64  1  0  0  0
 49119  1  0  0  0
 50 51  1  0  0  0
 50120  1  0  0  0
 50121  1  0  0  0
 51 52  1  0  0  0
 51122  1  0  0  0
 51123  1  0  0  0
 52124  1  0  0  0
 52125  1  0  0  0
 53 54  1  0  0  0
 54 55  2  0  0  0
 54126  1  0  0  0
 55 57  1  0  0  0
 55127  1  0  0  0
 56 69  2  0  0  0
 57 58  2  0  0  0
 57128  1  0  0  0
 58129  1  0  0  0
 59 60  1  0  0  0
 59 61  1  0  0  0
 59 62  1  0  0  0
 60130  1  0  0  0
 60131  1  0  0  0
 60132  1  0  0  0
 61133  1  0  0  0
 61134  1  0  0  0
 61135  1  0  0  0
 62136  1  0  0  0
 62137  1  0  0  0
 62138  1  0  0  0
 63 65  1  0  0  0
 63139  1  0  0  0
 63140  1  0  0  0
 63141  1  0  0  0
 64142  1  0  0  0
 65143  1  0  0  0
 68 81  1  0  0  0
 71 72  2  0  0  0
 71 75  1  0  0  0
 71144  1  0  0  0
 72 76  1  0  0  0
 72145  1  0  0  0
 73 74  1  0  0  0
 73 75  2  0  0  0
 73146  1  0  0  0
 74 76  2  0  0  0
 74 78  1  0  0  0
 75 82  1  0  0  0
 76 84  1  0  0  0
 77147  1  0  0  0
 77148  1  0  0  0
 77149  1  0  0  0
 77 83  1  0  0  0
 78 83  1  0  0  0
 78150  1  0  0  0
 78151  1  0  0  0
 79 80  1  0  0  0
 79 81  1  0  0  0
 79152  1  0  0  0
 79153  1  0  0  0
 80 83  1  0  0  0
 80154  1  0  0  0
 80155  1  0  0  0
 81156  1  0  0  0
 81157  1  0  0  0
 82158  1  0  0  0
 83159  1  0  0  0
M  CHG  1  83   1
M  ISO  4   1 100  68 101  81 101  82 100
M  END
> <chiral flag>
0

> <version>
0

> <s_m_source_file>
/data/baiqing/PycharmProjects/Reinvent-master-3.2/result/LINK_invent/BTK/process_docking_weight1_custom_product_contain_oxygen_bond_distance_aromatic_linkinvent_7_9_3/rearranged_h_0020.sdf

> <i_m_source_file_index>
84

> <r_mmod_Potential_Energy-OPLS-2005>
-171.808807373047

> <r_mmod_Stretch_Energy-OPLS-2005>
41.7451820373535

> <r_mmod_Bend_Energy-OPLS-2005>
98.5694580078125

> <r_mmod_Torsional_Energy-OPLS-2005>
253.367889404297

> <r_mmod_Improper_Torsional_Energy-OPLS-2005>
6.64921140670776

> <r_mmod_Van_der_Waal_Energy-OPLS-2005>
162.160140991211

> <r_mmod_Electrostatic_Energy-OPLS-2005>
-303.328247070312

> <r_mmod_Solvation_Energy-OPLS-2005>
-450.411743164062

> <b_mmod_Minimization_Converged-OPLS-2005>
0

> <r_mmod_RMS_Derivative-OPLS-2005>
4.20200729370117

$$$$
85
                    3D
 Structure written by MMmdl.
158167  0  0  1  0            999 V2000
  -30.6824  -14.4860   20.5855 C   0  0  0  0  0  0
  -30.4339  -12.3199   19.4178 C   0  0  0  0  0  0
  -29.4960  -12.5043   18.2048 C   0  0  0  0  0  0
  -28.0177  -12.3582   18.6209 C   0  0  0  0  0  0
  -27.6631  -13.1998   19.8754 C   0  0  2  0  0  0
  -28.7050  -12.9673   20.9928 C   0  0  0  0  0  0
  -25.2609  -13.8143   20.5679 C   0  0  0  0  0  0
  -24.1853  -13.0434   20.9185 C   0  0  0  0  0  0
  -24.6391  -11.6895   20.8736 C   0  0  0  0  0  0
  -23.9056  -10.4293   21.0408 C   0  0  0  0  0  0
  -24.3608   -9.4206   21.9192 C   0  0  0  0  0  0
  -23.6286   -8.2239   22.0758 C   0  0  0  0  0  0
  -22.4270   -8.0279   21.3549 C   0  0  0  0  0  0
  -21.9907   -9.0247   20.4642 C   0  0  0  0  0  0
  -22.7232  -10.2130   20.3053 C   0  0  0  0  0  0
  -21.6849   -6.0737   22.5283 C   0  0  0  0  0  0
  -21.4004   -6.5640   23.8214 C   0  0  0  0  0  0
  -21.3656   -5.6793   24.9178 C   0  0  0  0  0  0
  -21.6046   -4.3055   24.7225 C   0  0  0  0  0  0
  -21.8822   -3.8147   23.4342 C   0  0  0  0  0  0
  -21.9192   -4.6966   22.3404 C   0  0  0  0  0  0
  -22.7878  -13.5248   21.1843 C   0  0  0  0  0  0
  -22.1663   -4.2155   21.0980 F   0  0  0  0  0  0
  -21.5634   -3.4536   25.7733 F   0  0  0  0  0  0
  -30.0361  -13.2938   20.4467 N   0  0  0  0  0  0
  -26.3028  -12.9294   20.3363 N   0  0  0  0  0  0
  -25.9317  -11.6464   20.5767 N   0  0  0  0  0  0
  -22.0500  -12.8229   22.0377 N   0  0  0  0  0  0
  -25.4355  -15.1856   20.4085 N   0  0  0  0  0  0
  -31.8027  -14.6909   20.1088 O   0  0  0  0  0  0
  -21.6640   -6.8875   21.4238 O   0  0  0  0  0  0
  -22.3579  -14.5563   20.6708 O   0  0  0  0  0  0
  -24.6156  -31.8667   23.2081 C   0  0  0  0  0  0
  -25.9033  -32.4827   23.8387 C   0  0  1  0  0  0
  -27.2319  -27.4169   20.0971 C   0  0  0  0  0  0
  -25.5884  -33.8625   24.2317 N   0  0  0  0  0  0
  -23.4047  -30.4925   21.5494 C   0  0  2  0  0  0
  -24.8496  -28.9592   20.1124 C   0  0  0  0  0  0
  -22.7420  -29.4662   22.4974 C   0  0  0  0  0  0
  -18.0280  -28.1381   22.8520 C   0  0  0  0  0  0
  -24.1474  -36.7298   23.2641 C   0  0  0  0  0  0
  -25.9354  -30.8318   21.3588 C   0  0  0  0  0  0
  -26.0132  -29.4642   20.7053 C   0  0  0  0  0  0
  -27.2069  -28.7031   20.6900 C   0  0  0  0  0  0
  -26.0439  -26.9354   19.4940 C   0  0  0  0  0  0
  -24.8605  -27.6950   19.5032 C   0  0  0  0  0  0
  -23.6129  -29.8266   20.1639 C   0  0  0  0  0  0
  -25.4099  -36.3111   24.0348 C   0  0  1  0  0  0
  -20.5880  -28.3660   23.1321 C   0  0  2  0  0  0
  -20.6761  -26.9398   22.5414 C   0  0  0  0  0  0
  -19.5731  -26.6401   21.5219 C   0  0  0  0  0  0
  -18.1914  -26.7942   22.1639 C   0  0  0  0  0  0
  -19.1538  -28.8834   23.2924 C   0  0  0  0  0  0
  -18.9460  -30.1444   23.8921 C   0  0  0  0  0  0
  -17.6461  -30.6592   24.0584 C   0  0  0  0  0  0
  -25.9040  -34.9485   23.5134 C   0  0  0  0  0  0
  -16.5349  -29.9101   23.6337 C   0  0  0  0  0  0
  -16.7271  -28.6521   23.0358 C   0  0  0  0  0  0
  -26.4457  -31.6605   25.0709 C   0  0  0  0  0  0
  -25.3730  -31.3703   26.1463 C   0  0  0  0  0  0
  -27.0282  -30.3061   24.6053 C   0  0  0  0  0  0
  -27.6020  -32.4329   25.7479 C   0  0  0  0  0  0
  -27.5574  -37.1807   24.8475 C   0  0  0  0  0  0
  -21.4151  -29.3033   22.3720 N   0  0  0  0  0  0
  -26.4279  -37.3799   23.9430 N   0  0  0  0  0  0
  -24.6713  -31.0769   22.0985 N   0  0  0  0  0  0
  -23.4195  -28.8198   23.3014 O   0  0  0  0  0  0
  -28.3952  -26.6637   20.1273 O   0  0  0  0  0  0
  -26.5603  -34.8934   22.4700 O   0  0  0  0  0  0
  -23.5342  -32.1414   23.7476 O   0  0  0  0  0  0
  -29.0985  -19.0605   21.7412 C   0  0  0  0  0  0
  -31.4841  -18.9250   21.3270 C   0  0  0  0  0  0
  -28.9931  -17.6632   21.5534 C   0  0  0  0  0  0
  -31.3785  -17.5277   21.1330 C   0  0  0  0  0  0
  -30.3517  -19.7030   21.6606 C   0  0  0  0  0  0
  -30.1300  -16.8715   21.2643 C   0  0  0  0  0  0
  -29.3432  -23.2956   21.4544 C   0  0  0  0  0  0
  -30.2577  -23.7271   19.2946 C   0  0  0  0  0  0
  -30.8347  -22.4351   19.9014 C   0  0  0  0  0  0
  -29.5333  -24.4408   20.4479 C   0  0  1  0  0  0
  -30.5122  -21.1705   22.0825 C   0  0  0  0  0  0
  -28.2467  -25.2280   20.0534 C   0  0  0  0  0  0
  -30.0936  -22.2218   21.1367 N   0  0  0  0  0  0
  -29.9434  -15.4519   21.1752 N   0  0  0  0  0  0
  -28.6474  -23.4064   22.4686 O   0  0  0  0  0  0
  -31.4746  -12.4404   19.1119 H   0  0  0  0  0  0
  -30.3576  -11.3057   19.8133 H   0  0  0  0  0  0
  -29.7385  -11.7755   17.4300 H   0  0  0  0  0  0
  -29.6551  -13.4873   17.7587 H   0  0  0  0  0  0
  -27.8360  -11.3025   18.8239 H   0  0  0  0  0  0
  -27.3628  -12.6222   17.7894 H   0  0  0  0  0  0
  -27.7108  -14.2482   19.5811 H   0  0  0  0  0  0
  -28.6873  -11.9233   21.3093 H   0  0  0  0  0  0
  -28.4585  -13.5407   21.8869 H   0  0  0  0  0  0
  -25.2749   -9.5691   22.4766 H   0  0  0  0  0  0
  -23.9998   -7.4631   22.7477 H   0  0  0  0  0  0
  -21.0847   -8.8757   19.8941 H   0  0  0  0  0  0
  -22.3694  -10.9664   19.6155 H   0  0  0  0  0  0
  -21.1982   -7.6147   23.9716 H   0  0  0  0  0  0
  -21.1482   -6.0525   25.9085 H   0  0  0  0  0  0
  -22.0600   -2.7611   23.2838 H   0  0  0  0  0  0
  -22.4096  -11.9870   22.4740 H   0  0  0  0  0  0
  -21.1116  -13.1269   22.2565 H   0  0  0  0  0  0
  -24.6689  -15.8417   20.5110 H   0  0  0  0  0  0
  -26.2835  -15.6178   20.0633 H   0  0  0  0  0  0
  -26.7100  -32.5525   23.1149 H   0  0  0  0  0  0
  -25.0030  -33.9792   25.0460 H   0  0  0  0  0  0
  -22.6957  -31.3114   21.4107 H   0  0  0  0  0  0
  -23.3756  -35.9612   23.3310 H   0  0  0  0  0  0
  -24.3569  -36.8897   22.2052 H   0  0  0  0  0  0
  -23.7203  -37.6500   23.6643 H   0  0  0  0  0  0
  -26.0427  -31.5964   20.5889 H   0  0  0  0  0  0
  -26.8252  -30.8882   21.9741 H   0  0  0  0  0  0
  -28.1057  -29.0925   21.1500 H   0  0  0  0  0  0
  -26.0053  -25.9716   19.0091 H   0  0  0  0  0  0
  -23.9661  -27.3003   19.0414 H   0  0  0  0  0  0
  -23.7200  -30.6016   19.4040 H   0  0  0  0  0  0
  -22.7367  -29.2448   19.8691 H   0  0  0  0  0  0
  -25.1275  -36.1966   25.0840 H   0  0  0  0  0  0
  -20.9998  -28.3200   24.1435 H   0  0  0  0  0  0
  -20.5663  -26.2260   23.3598 H   0  0  0  0  0  0
  -21.6619  -26.7433   22.1185 H   0  0  0  0  0  0
  -19.6886  -25.6329   21.1200 H   0  0  0  0  0  0
  -19.6662  -27.3251   20.6780 H   0  0  0  0  0  0
  -17.4192  -26.6724   21.4028 H   0  0  0  0  0  0
  -18.0296  -26.0070   22.9017 H   0  0  0  0  0  0
  -19.7928  -30.7266   24.2280 H   0  0  0  0  0  0
  -17.5018  -31.6271   24.5188 H   0  0  0  0  0  0
  -15.5352  -30.3011   23.7652 H   0  0  0  0  0  0
  -15.8678  -28.0852   22.7038 H   0  0  0  0  0  0
  -24.5911  -30.7043   25.7801 H   0  0  0  0  0  0
  -24.8907  -32.2848   26.4919 H   0  0  0  0  0  0
  -25.8092  -30.8872   27.0214 H   0  0  0  0  0  0
  -26.2805  -29.6845   24.1113 H   0  0  0  0  0  0
  -27.4090  -29.7271   25.4472 H   0  0  0  0  0  0
  -27.8624  -30.4408   23.9168 H   0  0  0  0  0  0
  -27.2634  -33.3641   26.2034 H   0  0  0  0  0  0
  -28.3848  -32.6869   25.0322 H   0  0  0  0  0  0
  -28.0668  -31.8468   26.5416 H   0  0  0  0  0  0
  -28.2593  -38.0100   24.7529 H   0  0  0  0  0  0
  -28.1061  -36.2639   24.6285 H   0  0  0  0  0  0
  -27.2300  -37.1432   25.8877 H   0  0  0  0  0  0
  -20.9298  -29.8778   21.6967 H   0  0  0  0  0  0
  -26.0171  -38.2874   24.1443 H   0  0  0  0  0  0
  -28.2169  -19.6295   22.0033 H   0  0  0  0  0  0
  -32.4588  -19.3901   21.2678 H   0  0  0  0  0  0
  -28.0235  -17.1976   21.6630 H   0  0  0  0  0  0
  -32.2806  -16.9717   20.9262 H   0  0  0  0  0  0
  -29.5581  -23.4677   18.4987 H   0  0  0  0  0  0
  -31.0377  -24.3490   18.8538 H   0  0  0  0  0  0
  -31.8943  -22.5589   20.1306 H   0  0  0  0  0  0
  -30.7313  -21.5860   19.2250 H   0  0  0  0  0  0
  -30.2300  -25.1283   20.9289 H   0  0  0  0  0  0
  -31.5599  -21.3481   22.3279 H   0  0  0  0  0  0
  -29.9875  -21.2906   23.0316 H   0  0  0  0  0  0
  -27.4233  -24.9287   20.7046 H   0  0  0  0  0  0
  -27.9519  -24.9532   19.0405 H   0  0  0  0  0  0
  -29.0441  -15.1190   21.4873 H   0  0  0  0  0  0
  1 25  1  0  0  0
  1 30  2  0  0  0
  1 84  1  0  0  0
  2  3  1  0  0  0
  2 25  1  0  0  0
  2 86  1  0  0  0
  2 87  1  0  0  0
  3  4  1  0  0  0
  3 88  1  0  0  0
  3 89  1  0  0  0
  4  5  1  0  0  0
  4 90  1  0  0  0
  4 91  1  0  0  0
  5  6  1  0  0  0
  5 26  1  0  0  0
  5 92  1  0  0  0
  6 25  1  0  0  0
  6 93  1  0  0  0
  6 94  1  0  0  0
  7  8  2  0  0  0
  7 26  1  0  0  0
  7 29  1  0  0  0
  8  9  1  0  0  0
  8 22  1  0  0  0
  9 10  1  0  0  0
  9 27  2  0  0  0
 10 11  2  0  0  0
 10 15  1  0  0  0
 11 12  1  0  0  0
 11 95  1  0  0  0
 12 13  2  0  0  0
 12 96  1  0  0  0
 13 14  1  0  0  0
 13 31  1  0  0  0
 14 15  2  0  0  0
 14 97  1  0  0  0
 15 98  1  0  0  0
 16 17  2  0  0  0
 16 21  1  0  0  0
 16 31  1  0  0  0
 17 18  1  0  0  0
 17 99  1  0  0  0
 18 19  2  0  0  0
 18100  1  0  0  0
 19 20  1  0  0  0
 19 24  1  0  0  0
 20 21  2  0  0  0
 20101  1  0  0  0
 21 23  1  0  0  0
 22 28  1  0  0  0
 22 32  2  0  0  0
 26 27  1  0  0  0
 28102  1  0  0  0
 28103  1  0  0  0
 29104  1  0  0  0
 29105  1  0  0  0
 33 34  1  0  0  0
 33 66  1  0  0  0
 33 70  2  0  0  0
 34 36  1  0  0  0
 34 59  1  0  0  0
 34106  1  0  0  0
 35 44  2  0  0  0
 35 45  1  0  0  0
 35 68  1  0  0  0
 36 56  1  0  0  0
 36107  1  0  0  0
 37 39  1  0  0  0
 37 47  1  0  0  0
 37 66  1  0  0  0
 37108  1  0  0  0
 38 43  2  0  0  0
 38 46  1  0  0  0
 38 47  1  0  0  0
 39 64  1  0  0  0
 39 67  2  0  0  0
 40 52  1  0  0  0
 40 53  2  0  0  0
 40 58  1  0  0  0
 41109  1  0  0  0
 41110  1  0  0  0
 41111  1  0  0  0
 41 48  1  0  0  0
 42 43  1  0  0  0
 42 66  1  0  0  0
 42112  1  0  0  0
 42113  1  0  0  0
 43 44  1  0  0  0
 44114  1  0  0  0
 45 46  2  0  0  0
 45115  1  0  0  0
 46116  1  0  0  0
 47117  1  0  0  0
 47118  1  0  0  0
 48 56  1  0  0  0
 48 65  1  0  0  0
 48119  1  0  0  0
 49 50  1  0  0  0
 49 53  1  0  0  0
 49 64  1  0  0  0
 49120  1  0  0  0
 50 51  1  0  0  0
 50121  1  0  0  0
 50122  1  0  0  0
 51 52  1  0  0  0
 51123  1  0  0  0
 51124  1  0  0  0
 52125  1  0  0  0
 52126  1  0  0  0
 53 54  1  0  0  0
 54 55  2  0  0  0
 54127  1  0  0  0
 55 57  1  0  0  0
 55128  1  0  0  0
 56 69  2  0  0  0
 57 58  2  0  0  0
 57129  1  0  0  0
 58130  1  0  0  0
 59 60  1  0  0  0
 59 61  1  0  0  0
 59 62  1  0  0  0
 60131  1  0  0  0
 60132  1  0  0  0
 60133  1  0  0  0
 61134  1  0  0  0
 61135  1  0  0  0
 61136  1  0  0  0
 62137  1  0  0  0
 62138  1  0  0  0
 62139  1  0  0  0
 63 65  1  0  0  0
 63140  1  0  0  0
 63141  1  0  0  0
 63142  1  0  0  0
 64143  1  0  0  0
 65144  1  0  0  0
 68 82  1  0  0  0
 71 73  2  0  0  0
 71 75  1  0  0  0
 71145  1  0  0  0
 72 74  1  0  0  0
 72 75  2  0  0  0
 72146  1  0  0  0
 73 76  1  0  0  0
 73147  1  0  0  0
 74 76  2  0  0  0
 74148  1  0  0  0
 75 81  1  0  0  0
 76 84  1  0  0  0
 77 80  1  0  0  0
 77 83  1  0  0  0
 77 85  2  0  0  0
 78 79  1  0  0  0
 78 80  1  0  0  0
 78149  1  0  0  0
 78150  1  0  0  0
 79 83  1  0  0  0
 79151  1  0  0  0
 79152  1  0  0  0
 80 82  1  0  0  0
 80153  1  0  0  0
 81 83  1  0  0  0
 81154  1  0  0  0
 81155  1  0  0  0
 82156  1  0  0  0
 82157  1  0  0  0
 84158  1  0  0  0
M  ISO  4   1 100  68 101  82 101  84 100
M  END
> <chiral flag>
0

> <version>
0

> <s_m_source_file>
/data/baiqing/PycharmProjects/Reinvent-master-3.2/result/LINK_invent/BTK/process_docking_weight1_custom_product_contain_oxygen_bond_distance_aromatic_linkinvent_7_9_3/rearranged_h_0020.sdf

> <i_m_source_file_index>
85

> <r_mmod_Potential_Energy-OPLS-2005>
-6.18163681030273

> <r_mmod_Stretch_Energy-OPLS-2005>
40.9648971557617

> <r_mmod_Bend_Energy-OPLS-2005>
128.747619628906

> <r_mmod_Torsional_Energy-OPLS-2005>
252.361419677734

> <r_mmod_Improper_Torsional_Energy-OPLS-2005>
5.40645551681519

> <r_mmod_Van_der_Waal_Energy-OPLS-2005>
152.988586425781

> <r_mmod_Electrostatic_Energy-OPLS-2005>
-372.244598388672

> <r_mmod_Solvation_Energy-OPLS-2005>
-229.024993896484

> <b_mmod_Minimization_Converged-OPLS-2005>
0

> <r_mmod_RMS_Derivative-OPLS-2005>
1.73813021183014

$$$$
86
                    3D
 Structure written by MMmdl.
159168  0  0  1  0            999 V2000
  -30.5636  -14.7390   20.3651 C   0  0  0  0  0  0
  -30.4407  -12.4142   19.4937 C   0  0  0  0  0  0
  -29.5123  -12.3593   18.2596 C   0  0  0  0  0  0
  -28.0150  -12.3120   18.6433 C   0  0  0  0  0  0
  -27.6243  -13.2067   19.8541 C   0  0  2  0  0  0
  -28.6765  -13.1763   20.9791 C   0  0  0  0  0  0
  -25.2438  -13.8126   20.5659 C   0  0  0  0  0  0
  -24.1733  -13.0400   20.9284 C   0  0  0  0  0  0
  -24.6311  -11.6879   20.8874 C   0  0  0  0  0  0
  -23.9002  -10.4261   21.0507 C   0  0  0  0  0  0
  -24.3577   -9.4176   21.9255 C   0  0  0  0  0  0
  -23.6263   -8.2208   22.0786 C   0  0  0  0  0  0
  -22.4247   -8.0275   21.3570 C   0  0  0  0  0  0
  -21.9890   -9.0236   20.4656 C   0  0  0  0  0  0
  -22.7210  -10.2123   20.3103 C   0  0  0  0  0  0
  -21.6835   -6.0733   22.5292 C   0  0  0  0  0  0
  -21.3986   -6.5649   23.8219 C   0  0  0  0  0  0
  -21.3635   -5.6821   24.9192 C   0  0  0  0  0  0
  -21.6029   -4.3079   24.7254 C   0  0  0  0  0  0
  -21.8824   -3.8156   23.4380 C   0  0  0  0  0  0
  -21.9184   -4.6961   22.3424 C   0  0  0  0  0  0
  -22.7783  -13.5208   21.1922 C   0  0  0  0  0  0
  -22.1672   -4.2138   21.1012 F   0  0  0  0  0  0
  -21.5605   -3.4561   25.7766 F   0  0  0  0  0  0
  -29.9680  -13.5028   20.3683 N   0  0  0  0  0  0
  -26.2828  -12.9236   20.3385 N   0  0  0  0  0  0
  -25.9238  -11.6414   20.5934 N   0  0  0  0  0  0
  -22.0440  -12.8146   22.0455 N   0  0  0  0  0  0
  -25.4141  -15.1793   20.3746 N   0  0  0  0  0  0
  -31.7898  -14.8314   20.2445 O   0  0  0  0  0  0
  -21.6632   -6.8865   21.4249 O   0  0  0  0  0  0
  -22.3493  -14.5528   20.6818 O   0  0  0  0  0  0
  -24.6260  -31.8563   23.2031 C   0  0  0  0  0  0
  -25.9123  -32.4716   23.8374 C   0  0  1  0  0  0
  -27.2402  -27.3318   20.1241 C   0  0  0  0  0  0
  -25.5993  -33.8537   24.2323 N   0  0  0  0  0  0
  -23.4203  -30.4785   21.5407 C   0  0  2  0  0  0
  -24.8676  -28.9235   20.1133 C   0  0  0  0  0  0
  -22.7497  -29.4633   22.4937 C   0  0  0  0  0  0
  -18.0294  -28.1371   22.8486 C   0  0  0  0  0  0
  -24.1473  -36.7255   23.2653 C   0  0  0  0  0  0
  -25.9559  -30.7875   21.3733 C   0  0  0  0  0  0
  -26.0301  -29.4152   20.7185 C   0  0  0  0  0  0
  -27.2139  -28.6275   20.7166 C   0  0  0  0  0  0
  -26.0529  -26.8720   19.5134 C   0  0  0  0  0  0
  -24.8819  -27.6544   19.5063 C   0  0  0  0  0  0
  -23.6318  -29.7997   20.1604 C   0  0  0  0  0  0
  -25.4101  -36.3056   24.0349 C   0  0  1  0  0  0
  -20.5884  -28.3696   23.1267 C   0  0  2  0  0  0
  -20.6803  -26.9412   22.5434 C   0  0  0  0  0  0
  -19.5774  -26.6381   21.5235 C   0  0  0  0  0  0
  -18.1933  -26.7933   22.1607 C   0  0  0  0  0  0
  -19.1543  -28.8852   23.2865 C   0  0  0  0  0  0
  -18.9482  -30.1453   23.8880 C   0  0  0  0  0  0
  -17.6493  -30.6583   24.0564 C   0  0  0  0  0  0
  -25.9062  -34.9417   23.5131 C   0  0  0  0  0  0
  -16.5374  -29.9087   23.6352 C   0  0  0  0  0  0
  -16.7294  -28.6493   23.0388 C   0  0  0  0  0  0
  -26.4544  -31.6510   25.0726 C   0  0  0  0  0  0
  -25.3789  -31.3626   26.1453 C   0  0  0  0  0  0
  -27.0448  -30.2959   24.6174 C   0  0  0  0  0  0
  -27.6099  -32.4267   25.7464 C   0  0  0  0  0  0
  -27.5564  -37.1764   24.8485 C   0  0  0  0  0  0
  -21.4220  -29.3047   22.3669 N   0  0  0  0  0  0
  -26.4272  -37.3765   23.9433 N   0  0  0  0  0  0
  -24.6854  -31.0590   22.0962 N   0  0  0  0  0  0
  -23.4217  -28.8194   23.3040 O   0  0  0  0  0  0
  -28.4029  -26.5604   20.1941 O   0  0  0  0  0  0
  -26.5574  -34.8874   22.4660 O   0  0  0  0  0  0
  -23.5436  -32.1366   23.7353 O   0  0  0  0  0  0
  -28.0129  -18.9935   20.9701 C   0  0  0  0  0  0
  -30.1975  -19.5834   20.1900 C   0  0  0  0  0  0
  -28.3380  -17.6072   20.8707 C   0  0  0  0  0  0
  -30.5283  -18.1921   20.0923 C   0  0  0  0  0  0
  -28.9143  -20.0362   20.6028 C   0  0  0  0  0  0
  -29.5997  -17.1554   20.4018 C   0  0  0  0  0  0
  -27.0685  -23.3500   20.7403 C   0  0  0  0  0  0
  -27.2701  -21.8974   21.2233 C   0  0  0  0  0  0
  -29.2727  -22.6247   20.1449 C   0  0  0  0  0  0
  -28.4728  -23.9299   20.5568 C   0  0  1  0  0  0
  -29.5857  -15.7668   18.4337 C   0  0  0  0  0  0
  -28.5425  -25.2161   19.6142 C   0  0  0  0  0  0
  -28.5289  -21.4323   20.6373 N   0  0  0  0  0  0
  -29.7616  -15.7808   19.8993 N   0  0  0  0  0  0
  -31.4720  -12.5679   19.1742 H   0  0  0  0  0  0
  -30.4301  -11.4698   20.0402 H   0  0  0  0  0  0
  -29.7490  -11.4655   17.6839 H   0  0  0  0  0  0
  -29.7214  -13.1843   17.5840 H   0  0  0  0  0  0
  -27.7801  -11.2706   18.8638 H   0  0  0  0  0  0
  -27.4028  -12.5750   17.7810 H   0  0  0  0  0  0
  -27.5747  -14.2244   19.4919 H   0  0  0  0  0  0
  -28.7124  -12.2045   21.4713 H   0  0  0  0  0  0
  -28.4258  -13.9126   21.7461 H   0  0  0  0  0  0
  -25.2734   -9.5632   22.4812 H   0  0  0  0  0  0
  -23.9975   -7.4570   22.7476 H   0  0  0  0  0  0
  -21.0841   -8.8736   19.8923 H   0  0  0  0  0  0
  -22.3700  -10.9664   19.6183 H   0  0  0  0  0  0
  -21.1992   -7.6161   23.9708 H   0  0  0  0  0  0
  -21.1430   -6.0572   25.9087 H   0  0  0  0  0  0
  -22.0613   -2.7614   23.2911 H   0  0  0  0  0  0
  -22.4071  -11.9753   22.4718 H   0  0  0  0  0  0
  -21.1069  -13.1151   22.2739 H   0  0  0  0  0  0
  -24.6280  -15.8206   20.3849 H   0  0  0  0  0  0
  -26.2036  -15.5372   19.8506 H   0  0  0  0  0  0
  -26.7166  -32.5367   23.1104 H   0  0  0  0  0  0
  -25.0342  -33.9691   25.0600 H   0  0  0  0  0  0
  -22.7129  -31.2970   21.3910 H   0  0  0  0  0  0
  -23.3742  -35.9581   23.3326 H   0  0  0  0  0  0
  -24.3582  -36.8862   22.2071 H   0  0  0  0  0  0
  -23.7171  -37.6454   23.6643 H   0  0  0  0  0  0
  -26.0877  -31.5454   20.5992 H   0  0  0  0  0  0
  -26.8353  -30.8318   22.0048 H   0  0  0  0  0  0
  -28.1100  -28.9974   21.1945 H   0  0  0  0  0  0
  -25.9974  -25.8919   19.0611 H   0  0  0  0  0  0
  -23.9867  -27.2588   19.0491 H   0  0  0  0  0  0
  -23.7461  -30.5661   19.3919 H   0  0  0  0  0  0
  -22.7510  -29.2281   19.8664 H   0  0  0  0  0  0
  -25.1228  -36.1990   25.0838 H   0  0  0  0  0  0
  -20.9959  -28.3290   24.1391 H   0  0  0  0  0  0
  -20.5761  -26.2299   23.3652 H   0  0  0  0  0  0
  -21.6659  -26.7498   22.1163 H   0  0  0  0  0  0
  -19.6975  -25.6311   21.1240 H   0  0  0  0  0  0
  -19.6704  -27.3207   20.6769 H   0  0  0  0  0  0
  -17.4247  -26.6742   21.3966 H   0  0  0  0  0  0
  -18.0263  -26.0036   22.8941 H   0  0  0  0  0  0
  -19.7967  -30.7266   24.2221 H   0  0  0  0  0  0
  -17.5057  -31.6252   24.5186 H   0  0  0  0  0  0
  -15.5374  -30.2990   23.7679 H   0  0  0  0  0  0
  -15.8682  -28.0796   22.7128 H   0  0  0  0  0  0
  -24.6008  -30.6901   25.7793 H   0  0  0  0  0  0
  -24.8885  -32.2764   26.4852 H   0  0  0  0  0  0
  -25.8112  -30.8865   27.0263 H   0  0  0  0  0  0
  -26.3013  -29.6570   24.1377 H   0  0  0  0  0  0
  -27.4417  -29.7329   25.4640 H   0  0  0  0  0  0
  -27.8746  -30.4280   23.9204 H   0  0  0  0  0  0
  -27.2754  -33.3633   26.1943 H   0  0  0  0  0  0
  -28.3924  -32.6740   25.0265 H   0  0  0  0  0  0
  -28.0751  -31.8463   26.5451 H   0  0  0  0  0  0
  -28.2585  -38.0065   24.7546 H   0  0  0  0  0  0
  -28.1036  -36.2590   24.6262 H   0  0  0  0  0  0
  -27.2281  -37.1346   25.8891 H   0  0  0  0  0  0
  -20.9444  -29.8719   21.6791 H   0  0  0  0  0  0
  -26.0178  -38.2844   24.1470 H   0  0  0  0  0  0
  -27.0070  -19.2337   21.2853 H   0  0  0  0  0  0
  -30.9443  -20.3041   19.8941 H   0  0  0  0  0  0
  -27.5584  -16.8939   21.0888 H   0  0  0  0  0  0
  -31.4978  -17.9274   19.6943 H   0  0  0  0  0  0
  -26.4523  -23.9424   21.4200 H   0  0  0  0  0  0
  -26.5626  -23.3391   19.7740 H   0  0  0  0  0  0
  -26.4091  -21.2869   20.9403 H   0  0  0  0  0  0
  -27.3560  -21.8732   22.3125 H   0  0  0  0  0  0
  -30.2801  -22.6562   20.5677 H   0  0  0  0  0  0
  -29.3837  -22.5795   19.0619 H   0  0  0  0  0  0
  -28.8495  -24.2264   21.5383 H   0  0  0  0  0  0
  -28.8429  -15.0477   18.1093 H   0  0  0  0  0  0
  -30.5147  -15.5369   17.9105 H   0  0  0  0  0  0
  -29.2295  -16.7231   18.0479 H   0  0  0  0  0  0
  -27.9297  -25.0986   18.7202 H   0  0  0  0  0  0
  -29.5575  -25.2305   19.2168 H   0  0  0  0  0  0
  1 25  1  0  0  0
  1 30  2  0  0  0
  1 84  1  0  0  0
  2  3  1  0  0  0
  2 25  1  0  0  0
  2 85  1  0  0  0
  2 86  1  0  0  0
  3  4  1  0  0  0
  3 87  1  0  0  0
  3 88  1  0  0  0
  4  5  1  0  0  0
  4 89  1  0  0  0
  4 90  1  0  0  0
  5  6  1  0  0  0
  5 26  1  0  0  0
  5 91  1  0  0  0
  6 25  1  0  0  0
  6 92  1  0  0  0
  6 93  1  0  0  0
  7  8  2  0  0  0
  7 26  1  0  0  0
  7 29  1  0  0  0
  8  9  1  0  0  0
  8 22  1  0  0  0
  9 10  1  0  0  0
  9 27  2  0  0  0
 10 11  2  0  0  0
 10 15  1  0  0  0
 11 12  1  0  0  0
 11 94  1  0  0  0
 12 13  2  0  0  0
 12 95  1  0  0  0
 13 14  1  0  0  0
 13 31  1  0  0  0
 14 15  2  0  0  0
 14 96  1  0  0  0
 15 97  1  0  0  0
 16 17  2  0  0  0
 16 21  1  0  0  0
 16 31  1  0  0  0
 17 18  1  0  0  0
 17 98  1  0  0  0
 18 19  2  0  0  0
 18 99  1  0  0  0
 19 20  1  0  0  0
 19 24  1  0  0  0
 20 21  2  0  0  0
 20100  1  0  0  0
 21 23  1  0  0  0
 22 28  1  0  0  0
 22 32  2  0  0  0
 26 27  1  0  0  0
 28101  1  0  0  0
 28102  1  0  0  0
 29103  1  0  0  0
 29104  1  0  0  0
 33 34  1  0  0  0
 33 66  1  0  0  0
 33 70  2  0  0  0
 34 36  1  0  0  0
 34 59  1  0  0  0
 34105  1  0  0  0
 35 44  2  0  0  0
 35 45  1  0  0  0
 35 68  1  0  0  0
 36 56  1  0  0  0
 36106  1  0  0  0
 37 39  1  0  0  0
 37 47  1  0  0  0
 37 66  1  0  0  0
 37107  1  0  0  0
 38 43  2  0  0  0
 38 46  1  0  0  0
 38 47  1  0  0  0
 39 64  1  0  0  0
 39 67  2  0  0  0
 40 52  1  0  0  0
 40 53  2  0  0  0
 40 58  1  0  0  0
 41108  1  0  0  0
 41109  1  0  0  0
 41110  1  0  0  0
 41 48  1  0  0  0
 42 43  1  0  0  0
 42 66  1  0  0  0
 42111  1  0  0  0
 42112  1  0  0  0
 43 44  1  0  0  0
 44113  1  0  0  0
 45 46  2  0  0  0
 45114  1  0  0  0
 46115  1  0  0  0
 47116  1  0  0  0
 47117  1  0  0  0
 48 56  1  0  0  0
 48 65  1  0  0  0
 48118  1  0  0  0
 49 50  1  0  0  0
 49 53  1  0  0  0
 49 64  1  0  0  0
 49119  1  0  0  0
 50 51  1  0  0  0
 50120  1  0  0  0
 50121  1  0  0  0
 51 52  1  0  0  0
 51122  1  0  0  0
 51123  1  0  0  0
 52124  1  0  0  0
 52125  1  0  0  0
 53 54  1  0  0  0
 54 55  2  0  0  0
 54126  1  0  0  0
 55 57  1  0  0  0
 55127  1  0  0  0
 56 69  2  0  0  0
 57 58  2  0  0  0
 57128  1  0  0  0
 58129  1  0  0  0
 59 60  1  0  0  0
 59 61  1  0  0  0
 59 62  1  0  0  0
 60130  1  0  0  0
 60131  1  0  0  0
 60132  1  0  0  0
 61133  1  0  0  0
 61134  1  0  0  0
 61135  1  0  0  0
 62136  1  0  0  0
 62137  1  0  0  0
 62138  1  0  0  0
 63 65  1  0  0  0
 63139  1  0  0  0
 63140  1  0  0  0
 63141  1  0  0  0
 64142  1  0  0  0
 65143  1  0  0  0
 68 82  1  0  0  0
 71 73  2  0  0  0
 71 75  1  0  0  0
 71144  1  0  0  0
 72 74  1  0  0  0
 72 75  2  0  0  0
 72145  1  0  0  0
 73 76  1  0  0  0
 73146  1  0  0  0
 74 76  2  0  0  0
 74147  1  0  0  0
 75 83  1  0  0  0
 76 84  1  0  0  0
 77 78  1  0  0  0
 77 80  1  0  0  0
 77148  1  0  0  0
 77149  1  0  0  0
 78 83  1  0  0  0
 78150  1  0  0  0
 78151  1  0  0  0
 79 80  1  0  0  0
 79 83  1  0  0  0
 79152  1  0  0  0
 79153  1  0  0  0
 80 82  1  0  0  0
 80154  1  0  0  0
 81 84  1  0  0  0
 81155  1  0  0  0
 81156  1  0  0  0
 81157  1  0  0  0
 82158  1  0  0  0
 82159  1  0  0  0
M  ISO  4   1 100  68 101  82 101  84 100
M  END
> <chiral flag>
0

> <version>
0

> <s_m_source_file>
/data/baiqing/PycharmProjects/Reinvent-master-3.2/result/LINK_invent/BTK/process_docking_weight1_custom_product_contain_oxygen_bond_distance_aromatic_linkinvent_7_9_3/rearranged_h_0020.sdf

> <i_m_source_file_index>
86

> <r_mmod_Potential_Energy-OPLS-2005>
397.370849609375

> <r_mmod_Stretch_Energy-OPLS-2005>
81.6148300170898

> <r_mmod_Bend_Energy-OPLS-2005>
204.737640380859

> <r_mmod_Torsional_Energy-OPLS-2005>
385.980163574219

> <r_mmod_Improper_Torsional_Energy-OPLS-2005>
28.4300060272217

> <r_mmod_Van_der_Waal_Energy-OPLS-2005>
142.021347045898

> <r_mmod_Electrostatic_Energy-OPLS-2005>
-312.120727539062

> <r_mmod_Solvation_Energy-OPLS-2005>
-211.81640625

> <b_mmod_Minimization_Converged-OPLS-2005>
0

> <r_mmod_RMS_Derivative-OPLS-2005>
5.5060019493103

$$$$
87
                    3D
 Structure written by MMmdl.
155163  0  0  1  0            999 V2000
  -30.5970  -14.6706   20.4808 C   0  0  0  0  0  0
  -30.4454  -12.4075   19.4431 C   0  0  0  0  0  0
  -29.5082  -12.5118   18.2177 C   0  0  0  0  0  0
  -28.0303  -12.3482   18.6313 C   0  0  0  0  0  0
  -27.6534  -13.2160   19.8618 C   0  0  2  0  0  0
  -28.7043  -13.0658   20.9868 C   0  0  0  0  0  0
  -25.2538  -13.8139   20.5671 C   0  0  0  0  0  0
  -24.1808  -13.0406   20.9162 C   0  0  0  0  0  0
  -24.6393  -11.6888   20.8724 C   0  0  0  0  0  0
  -23.9062  -10.4280   21.0395 C   0  0  0  0  0  0
  -24.3616   -9.4205   21.9178 C   0  0  0  0  0  0
  -23.6296   -8.2238   22.0749 C   0  0  0  0  0  0
  -22.4274   -8.0275   21.3546 C   0  0  0  0  0  0
  -21.9910   -9.0242   20.4641 C   0  0  0  0  0  0
  -22.7235  -10.2121   20.3045 C   0  0  0  0  0  0
  -21.6852   -6.0737   22.5284 C   0  0  0  0  0  0
  -21.4011   -6.5641   23.8221 C   0  0  0  0  0  0
  -21.3659   -5.6794   24.9182 C   0  0  0  0  0  0
  -21.6047   -4.3058   24.7232 C   0  0  0  0  0  0
  -21.8816   -3.8148   23.4355 C   0  0  0  0  0  0
  -21.9196   -4.6965   22.3409 C   0  0  0  0  0  0
  -22.7839  -13.5205   21.1852 C   0  0  0  0  0  0
  -22.1665   -4.2152   21.0988 F   0  0  0  0  0  0
  -21.5630   -3.4538   25.7744 F   0  0  0  0  0  0
  -30.0177  -13.4263   20.4223 N   0  0  0  0  0  0
  -26.2998  -12.9342   20.3340 N   0  0  0  0  0  0
  -25.9332  -11.6495   20.5766 N   0  0  0  0  0  0
  -22.0488  -12.8196   22.0415 N   0  0  0  0  0  0
  -25.4178  -15.1860   20.4118 N   0  0  0  0  0  0
  -31.7548  -14.8620   20.0992 O   0  0  0  0  0  0
  -21.6639   -6.8875   21.4246 O   0  0  0  0  0  0
  -22.3521  -14.5525   20.6735 O   0  0  0  0  0  0
  -24.6251  -31.8567   23.1994 C   0  0  0  0  0  0
  -25.9083  -32.4765   23.8337 C   0  0  1  0  0  0
  -27.2437  -27.3132   20.1364 C   0  0  0  0  0  0
  -25.5896  -33.8576   24.2281 N   0  0  0  0  0  0
  -23.4240  -30.4773   21.5368 C   0  0  2  0  0  0
  -24.8750  -28.9172   20.1198 C   0  0  0  0  0  0
  -22.7476  -29.4611   22.4894 C   0  0  0  0  0  0
  -18.0294  -28.1419   22.8507 C   0  0  0  0  0  0
  -24.1476  -36.7278   23.2647 C   0  0  0  0  0  0
  -25.9616  -30.7899   21.3658 C   0  0  0  0  0  0
  -26.0405  -29.4099   20.7196 C   0  0  0  0  0  0
  -27.2295  -28.6234   20.7103 C   0  0  0  0  0  0
  -26.0535  -26.8570   19.5326 C   0  0  0  0  0  0
  -24.8819  -27.6465   19.5176 C   0  0  0  0  0  0
  -23.6441  -29.8016   20.1561 C   0  0  0  0  0  0
  -25.4097  -36.3075   24.0343 C   0  0  1  0  0  0
  -20.5904  -28.3706   23.1287 C   0  0  2  0  0  0
  -20.6782  -26.9430   22.5419 C   0  0  0  0  0  0
  -19.5749  -26.6398   21.5234 C   0  0  0  0  0  0
  -18.1927  -26.7968   22.1634 C   0  0  0  0  0  0
  -19.1562  -28.8871   23.2901 C   0  0  0  0  0  0
  -18.9476  -30.1483   23.8910 C   0  0  0  0  0  0
  -17.6484  -30.6623   24.0582 C   0  0  0  0  0  0
  -25.9035  -34.9450   23.5111 C   0  0  0  0  0  0
  -16.5364  -29.9126   23.6351 C   0  0  0  0  0  0
  -16.7286  -28.6544   23.0357 C   0  0  0  0  0  0
  -26.4486  -31.6583   25.0708 C   0  0  0  0  0  0
  -25.3747  -31.3721   26.1452 C   0  0  0  0  0  0
  -27.0326  -30.3019   24.6131 C   0  0  0  0  0  0
  -27.6045  -32.4324   25.7485 C   0  0  0  0  0  0
  -27.5569  -37.1792   24.8475 C   0  0  0  0  0  0
  -21.4186  -29.3067   22.3657 N   0  0  0  0  0  0
  -26.4277  -37.3765   23.9429 N   0  0  0  0  0  0
  -24.6892  -31.0581   22.0922 N   0  0  0  0  0  0
  -23.4191  -28.8148   23.2980 O   0  0  0  0  0  0
  -28.3955  -26.5182   20.0937 O   0  0  0  0  0  0
  -26.5601  -34.8916   22.4679 O   0  0  0  0  0  0
  -23.5410  -32.1341   23.7317 O   0  0  0  0  0  0
  -30.4478  -19.4907   20.3003 C   0  0  0  0  0  0
  -30.6807  -18.0664   20.2853 C   0  0  0  0  0  0
  -28.2258  -19.1194   21.1199 C   0  0  0  0  0  0
  -29.2128  -20.0640   20.7401 C   0  0  0  0  0  0
  -29.6852  -17.1425   20.7248 C   0  0  0  0  0  0
  -28.4552  -17.7186   21.1196 C   0  0  0  0  0  0
  -28.5250  -23.8652   19.7246 C   0  0  0  0  0  0
  -28.4185  -25.1520   20.6741 C   0  0  0  0  0  0
  -28.9195  -21.6042   21.0148 C   0  0  1  0  0  0
  -29.4437  -21.9740   22.4329 C   0  0  0  0  0  0
  -29.7450  -15.6798   20.8428 N   0  0  0  0  0  0
  -29.3815  -22.6599   20.0559 N   0  0  0  0  0  0
  -27.4674  -16.8923   21.5397 F   0  0  0  0  0  0
  -29.0454  -21.0819   23.3405 F   0  0  0  0  0  0
  -30.7779  -22.0116   22.4235 F   0  0  0  0  0  0
  -28.9949  -23.1676   22.8143 F   0  0  0  0  0  0
  -31.4838  -12.5443   19.1386 H   0  0  0  0  0  0
  -30.3913  -11.4108   19.8832 H   0  0  0  0  0  0
  -29.7730  -11.7587   17.4736 H   0  0  0  0  0  0
  -29.6472  -13.4782   17.7304 H   0  0  0  0  0  0
  -27.8675  -11.2945   18.8598 H   0  0  0  0  0  0
  -27.3759  -12.5784   17.7899 H   0  0  0  0  0  0
  -27.6670  -14.2524   19.5240 H   0  0  0  0  0  0
  -28.7230  -12.0391   21.3541 H   0  0  0  0  0  0
  -28.4467  -13.6823   21.8506 H   0  0  0  0  0  0
  -25.2760   -9.5691   22.4753 H   0  0  0  0  0  0
  -24.0016   -7.4627   22.7458 H   0  0  0  0  0  0
  -21.0847   -8.8749   19.8939 H   0  0  0  0  0  0
  -22.3689  -10.9656   19.6148 H   0  0  0  0  0  0
  -21.1992   -7.6147   23.9724 H   0  0  0  0  0  0
  -21.1487   -6.0525   25.9090 H   0  0  0  0  0  0
  -22.0593   -2.7611   23.2853 H   0  0  0  0  0  0
  -22.4100  -11.9855   22.4801 H   0  0  0  0  0  0
  -21.1099  -13.1210   22.2615 H   0  0  0  0  0  0
  -24.6580  -15.8343   20.5819 H   0  0  0  0  0  0
  -26.3076  -15.6532   20.2869 H   0  0  0  0  0  0
  -26.7152  -32.5446   23.1098 H   0  0  0  0  0  0
  -25.0085  -33.9720   25.0448 H   0  0  0  0  0  0
  -22.7207  -31.3000   21.3870 H   0  0  0  0  0  0
  -23.3745  -35.9605   23.3313 H   0  0  0  0  0  0
  -24.3584  -36.8886   22.2063 H   0  0  0  0  0  0
  -23.7215  -37.6477   23.6658 H   0  0  0  0  0  0
  -26.0866  -31.5477   20.5910 H   0  0  0  0  0  0
  -26.8444  -30.8489   21.9912 H   0  0  0  0  0  0
  -28.1320  -29.0082   21.1644 H   0  0  0  0  0  0
  -26.0341  -25.8842   19.0633 H   0  0  0  0  0  0
  -23.9858  -27.2661   19.0473 H   0  0  0  0  0  0
  -23.7712  -30.5743   19.3965 H   0  0  0  0  0  0
  -22.7639  -29.2323   19.8504 H   0  0  0  0  0  0
  -25.1283  -36.1920   25.0834 H   0  0  0  0  0  0
  -21.0018  -28.3271   24.1396 H   0  0  0  0  0  0
  -20.5685  -26.2309   23.3619 H   0  0  0  0  0  0
  -21.6642  -26.7456   22.1202 H   0  0  0  0  0  0
  -19.6891  -25.6301   21.1268 H   0  0  0  0  0  0
  -19.6693  -27.3208   20.6768 H   0  0  0  0  0  0
  -17.4201  -26.6754   21.4022 H   0  0  0  0  0  0
  -18.0304  -26.0125   22.9042 H   0  0  0  0  0  0
  -19.7944  -30.7329   24.2246 H   0  0  0  0  0  0
  -17.5027  -31.6298   24.5198 H   0  0  0  0  0  0
  -15.5361  -30.3034   23.7668 H   0  0  0  0  0  0
  -15.8687  -28.0880   22.7036 H   0  0  0  0  0  0
  -24.5934  -30.7044   25.7812 H   0  0  0  0  0  0
  -24.8926  -32.2883   26.4865 H   0  0  0  0  0  0
  -25.8104  -30.8932   27.0228 H   0  0  0  0  0  0
  -26.2875  -29.6776   24.1184 H   0  0  0  0  0  0
  -27.4080  -29.7272   25.4604 H   0  0  0  0  0  0
  -27.8722  -30.4343   23.9311 H   0  0  0  0  0  0
  -27.2654  -33.3641   26.2031 H   0  0  0  0  0  0
  -28.3869  -32.6847   25.0322 H   0  0  0  0  0  0
  -28.0683  -31.8464   26.5425 H   0  0  0  0  0  0
  -28.2582  -38.0094   24.7519 H   0  0  0  0  0  0
  -28.1065  -36.2620   24.6292 H   0  0  0  0  0  0
  -27.2308  -37.1441   25.8887 H   0  0  0  0  0  0
  -20.9338  -29.8811   21.6916 H   0  0  0  0  0  0
  -26.0153  -38.2835   24.1452 H   0  0  0  0  0  0
  -31.2512  -20.1526   20.0077 H   0  0  0  0  0  0
  -31.6426  -17.6952   19.9587 H   0  0  0  0  0  0
  -27.2708  -19.4716   21.4816 H   0  0  0  0  0  0
  -28.9543  -24.2388   18.7940 H   0  0  0  0  0  0
  -27.5248  -23.5328   19.4478 H   0  0  0  0  0  0
  -29.3013  -25.1600   21.3139 H   0  0  0  0  0  0
  -27.5759  -25.0282   21.3570 H   0  0  0  0  0  0
  -27.8318  -21.6817   21.0360 H   0  0  0  0  0  0
  -28.8671  -15.3056   21.1707 H   0  0  0  0  0  0
  -30.2322  -23.0223   20.4756 H   0  0  0  0  0  0
  1 25  1  0  0  0
  1 30  2  0  0  0
  1 81  1  0  0  0
  2  3  1  0  0  0
  2 25  1  0  0  0
  2 87  1  0  0  0
  2 88  1  0  0  0
  3  4  1  0  0  0
  3 89  1  0  0  0
  3 90  1  0  0  0
  4  5  1  0  0  0
  4 91  1  0  0  0
  4 92  1  0  0  0
  5  6  1  0  0  0
  5 26  1  0  0  0
  5 93  1  0  0  0
  6 25  1  0  0  0
  6 94  1  0  0  0
  6 95  1  0  0  0
  7  8  2  0  0  0
  7 26  1  0  0  0
  7 29  1  0  0  0
  8  9  1  0  0  0
  8 22  1  0  0  0
  9 10  1  0  0  0
  9 27  2  0  0  0
 10 11  2  0  0  0
 10 15  1  0  0  0
 11 12  1  0  0  0
 11 96  1  0  0  0
 12 13  2  0  0  0
 12 97  1  0  0  0
 13 14  1  0  0  0
 13 31  1  0  0  0
 14 15  2  0  0  0
 14 98  1  0  0  0
 15 99  1  0  0  0
 16 17  2  0  0  0
 16 21  1  0  0  0
 16 31  1  0  0  0
 17 18  1  0  0  0
 17100  1  0  0  0
 18 19  2  0  0  0
 18101  1  0  0  0
 19 20  1  0  0  0
 19 24  1  0  0  0
 20 21  2  0  0  0
 20102  1  0  0  0
 21 23  1  0  0  0
 22 28  1  0  0  0
 22 32  2  0  0  0
 26 27  1  0  0  0
 28103  1  0  0  0
 28104  1  0  0  0
 29105  1  0  0  0
 29106  1  0  0  0
 33 34  1  0  0  0
 33 66  1  0  0  0
 33 70  2  0  0  0
 34 36  1  0  0  0
 34 59  1  0  0  0
 34107  1  0  0  0
 35 44  2  0  0  0
 35 45  1  0  0  0
 35 68  1  0  0  0
 36 56  1  0  0  0
 36108  1  0  0  0
 37 39  1  0  0  0
 37 47  1  0  0  0
 37 66  1  0  0  0
 37109  1  0  0  0
 38 43  2  0  0  0
 38 46  1  0  0  0
 38 47  1  0  0  0
 39 64  1  0  0  0
 39 67  2  0  0  0
 40 52  1  0  0  0
 40 53  2  0  0  0
 40 58  1  0  0  0
 41110  1  0  0  0
 41111  1  0  0  0
 41112  1  0  0  0
 41 48  1  0  0  0
 42 43  1  0  0  0
 42 66  1  0  0  0
 42113  1  0  0  0
 42114  1  0  0  0
 43 44  1  0  0  0
 44115  1  0  0  0
 45 46  2  0  0  0
 45116  1  0  0  0
 46117  1  0  0  0
 47118  1  0  0  0
 47119  1  0  0  0
 48 56  1  0  0  0
 48 65  1  0  0  0
 48120  1  0  0  0
 49 50  1  0  0  0
 49 53  1  0  0  0
 49 64  1  0  0  0
 49121  1  0  0  0
 50 51  1  0  0  0
 50122  1  0  0  0
 50123  1  0  0  0
 51 52  1  0  0  0
 51124  1  0  0  0
 51125  1  0  0  0
 52126  1  0  0  0
 52127  1  0  0  0
 53 54  1  0  0  0
 54 55  2  0  0  0
 54128  1  0  0  0
 55 57  1  0  0  0
 55129  1  0  0  0
 56 69  2  0  0  0
 57 58  2  0  0  0
 57130  1  0  0  0
 58131  1  0  0  0
 59 60  1  0  0  0
 59 61  1  0  0  0
 59 62  1  0  0  0
 60132  1  0  0  0
 60133  1  0  0  0
 60134  1  0  0  0
 61135  1  0  0  0
 61136  1  0  0  0
 61137  1  0  0  0
 62138  1  0  0  0
 62139  1  0  0  0
 62140  1  0  0  0
 63 65  1  0  0  0
 63141  1  0  0  0
 63142  1  0  0  0
 63143  1  0  0  0
 64144  1  0  0  0
 65145  1  0  0  0
 68 78  1  0  0  0
 71 72  2  0  0  0
 71 74  1  0  0  0
 71146  1  0  0  0
 72 75  1  0  0  0
 72147  1  0  0  0
 73 74  2  0  0  0
 73 76  1  0  0  0
 73148  1  0  0  0
 74 79  1  0  0  0
 75 76  2  0  0  0
 75 81  1  0  0  0
 76 83  1  0  0  0
 77 78  1  0  0  0
 77 82  1  0  0  0
 77149  1  0  0  0
 77150  1  0  0  0
 78151  1  0  0  0
 78152  1  0  0  0
 79 80  1  0  0  0
 79 82  1  0  0  0
 79153  1  0  0  0
 80 84  1  0  0  0
 80 85  1  0  0  0
 80 86  1  0  0  0
 81154  1  0  0  0
 82155  1  0  0  0
M  ISO  4   1 100  68 101  78 101  81 100
M  END
> <chiral flag>
0

> <version>
0

> <s_m_source_file>
/data/baiqing/PycharmProjects/Reinvent-master-3.2/result/LINK_invent/BTK/process_docking_weight1_custom_product_contain_oxygen_bond_distance_aromatic_linkinvent_7_9_3/rearranged_h_0020.sdf

> <i_m_source_file_index>
87

> <r_mmod_Potential_Energy-OPLS-2005>
202.423492431641

> <r_mmod_Stretch_Energy-OPLS-2005>
90.5535049438477

> <r_mmod_Bend_Energy-OPLS-2005>
192.488082885742

> <r_mmod_Torsional_Energy-OPLS-2005>
263.600372314453

> <r_mmod_Improper_Torsional_Energy-OPLS-2005>
4.91132259368896

> <r_mmod_Van_der_Waal_Energy-OPLS-2005>
134.298553466797

> <r_mmod_Electrostatic_Energy-OPLS-2005>
-336.861694335938

> <r_mmod_Solvation_Energy-OPLS-2005>
-197.875137329102

> <b_mmod_Minimization_Converged-OPLS-2005>
0

> <r_mmod_RMS_Derivative-OPLS-2005>
2.42841553688049

$$$$
88
                    3D
 Structure written by MMmdl.
158166  0  0  1  0            999 V2000
  -30.6925  -14.4513   20.6252 C   0  0  0  0  0  0
  -30.4374  -12.3089   19.4206 C   0  0  0  0  0  0
  -29.5013  -12.5140   18.2109 C   0  0  0  0  0  0
  -28.0233  -12.3639   18.6235 C   0  0  0  0  0  0
  -27.6701  -13.1974   19.8828 C   0  0  2  0  0  0
  -28.7056  -12.9451   21.0005 C   0  0  0  0  0  0
  -25.2638  -13.8152   20.5677 C   0  0  0  0  0  0
  -24.1860  -13.0448   20.9159 C   0  0  0  0  0  0
  -24.6402  -11.6913   20.8733 C   0  0  0  0  0  0
  -23.9066  -10.4298   21.0416 C   0  0  0  0  0  0
  -24.3621   -9.4210   21.9189 C   0  0  0  0  0  0
  -23.6291   -8.2246   22.0762 C   0  0  0  0  0  0
  -22.4273   -8.0292   21.3555 C   0  0  0  0  0  0
  -21.9911   -9.0267   20.4652 C   0  0  0  0  0  0
  -22.7244  -10.2146   20.3060 C   0  0  0  0  0  0
  -21.6842   -6.0748   22.5286 C   0  0  0  0  0  0
  -21.4016   -6.5649   23.8219 C   0  0  0  0  0  0
  -21.3663   -5.6795   24.9179 C   0  0  0  0  0  0
  -21.6040   -4.3054   24.7222 C   0  0  0  0  0  0
  -21.8821   -3.8157   23.4341 C   0  0  0  0  0  0
  -21.9193   -4.6977   22.3402 C   0  0  0  0  0  0
  -22.7884  -13.5262   21.1833 C   0  0  0  0  0  0
  -22.1658   -4.2167   21.0977 F   0  0  0  0  0  0
  -21.5625   -3.4537   25.7733 F   0  0  0  0  0  0
  -30.0489  -13.2620   20.4709 N   0  0  0  0  0  0
  -26.3064  -12.9297   20.3375 N   0  0  0  0  0  0
  -25.9323  -11.6475   20.5757 N   0  0  0  0  0  0
  -22.0531  -12.8246   22.0394 N   0  0  0  0  0  0
  -25.4424  -15.1860   20.4131 N   0  0  0  0  0  0
  -31.7424  -14.7335   20.0380 O   0  0  0  0  0  0
  -21.6633   -6.8892   21.4247 O   0  0  0  0  0  0
  -22.3575  -14.5576   20.6697 O   0  0  0  0  0  0
  -24.6136  -31.8680   23.2115 C   0  0  0  0  0  0
  -25.9032  -32.4822   23.8405 C   0  0  1  0  0  0
  -27.2424  -27.4499   20.0878 C   0  0  0  0  0  0
  -25.5901  -33.8625   24.2337 N   0  0  0  0  0  0
  -23.4025  -30.4891   21.5510 C   0  0  2  0  0  0
  -24.8549  -28.9563   20.1152 C   0  0  0  0  0  0
  -22.7411  -29.4634   22.4994 C   0  0  0  0  0  0
  -18.0292  -28.1375   22.8509 C   0  0  0  0  0  0
  -24.1492  -36.7304   23.2635 C   0  0  0  0  0  0
  -25.9317  -30.8362   21.3665 C   0  0  0  0  0  0
  -26.0135  -29.4727   20.7104 C   0  0  0  0  0  0
  -27.2139  -28.7264   20.6939 C   0  0  0  0  0  0
  -26.0719  -26.9451   19.4872 C   0  0  0  0  0  0
  -24.8775  -27.6907   19.5029 C   0  0  0  0  0  0
  -23.6141  -29.8208   20.1661 C   0  0  0  0  0  0
  -25.4110  -36.3112   24.0341 C   0  0  1  0  0  0
  -20.5865  -28.3678   23.1386 C   0  0  2  0  0  0
  -20.6737  -26.9383   22.5571 C   0  0  0  0  0  0
  -19.5821  -26.6531   21.5211 C   0  0  0  0  0  0
  -18.2002  -26.7916   22.1652 C   0  0  0  0  0  0
  -19.1523  -28.8856   23.2929 C   0  0  0  0  0  0
  -18.9446  -30.1467   23.8928 C   0  0  0  0  0  0
  -17.6439  -30.6590   24.0570 C   0  0  0  0  0  0
  -25.9030  -34.9478   23.5136 C   0  0  0  0  0  0
  -16.5337  -29.9066   23.6325 C   0  0  0  0  0  0
  -16.7278  -28.6478   23.0361 C   0  0  0  0  0  0
  -26.4467  -31.6592   25.0723 C   0  0  0  0  0  0
  -25.3742  -31.3697   26.1480 C   0  0  0  0  0  0
  -27.0296  -30.3036   24.6096 C   0  0  0  0  0  0
  -27.6059  -32.4295   25.7465 C   0  0  0  0  0  0
  -27.5583  -37.1808   24.8466 C   0  0  0  0  0  0
  -21.4145  -29.2982   22.3720 N   0  0  0  0  0  0
  -26.4301  -37.3787   23.9400 N   0  0  0  0  0  0
  -24.6667  -31.0779   22.1014 N   0  0  0  0  0  0
  -23.4189  -28.8207   23.3060 O   0  0  0  0  0  0
  -28.3872  -26.6880   20.0761 O   0  0  0  0  0  0
  -26.5592  -34.8915   22.4695 O   0  0  0  0  0  0
  -23.5334  -32.1426   23.7518 O   0  0  0  0  0  0
  -29.8747  -18.9021   20.3539 C   0  0  0  0  0  0
  -30.3322  -17.5606   20.4250 C   0  0  0  0  0  0
  -28.7924  -17.1502   22.2525 C   0  0  0  0  0  0
  -28.8497  -19.3754   21.2101 C   0  0  0  0  0  0
  -28.3388  -18.4830   22.1905 C   0  0  0  0  0  0
  -29.7770  -16.6651   21.3715 C   0  0  0  0  0  0
  -28.3092  -20.7590   21.1304 C   0  0  0  0  0  0
  -28.8507  -21.8682   20.5706 C   0  0  0  0  0  0
  -28.9391  -24.2914   20.4526 C   0  0  0  0  0  0
  -27.2910  -18.9208   23.2028 C   0  0  0  0  0  0
  -26.7540  -23.1812   20.7276 C   0  0  0  0  0  0
  -28.3681  -25.6155   21.0338 C   0  0  0  0  0  0
  -30.1067  -15.2816   21.5037 N   0  0  0  0  0  0
  -28.2123  -23.1383   20.5403 N   0  0  0  0  0  0
  -30.0941  -24.3110   20.0071 O   0  0  0  0  0  0
  -31.4801  -12.4279   19.1200 H   0  0  0  0  0  0
  -30.3563  -11.2901   19.8017 H   0  0  0  0  0  0
  -29.7435  -11.7967   17.4245 H   0  0  0  0  0  0
  -29.6648  -13.5053   17.7862 H   0  0  0  0  0  0
  -27.8374  -11.3062   18.8182 H   0  0  0  0  0  0
  -27.3699  -12.6393   17.7957 H   0  0  0  0  0  0
  -27.7267  -14.2494   19.6019 H   0  0  0  0  0  0
  -28.6772  -11.8995   21.3107 H   0  0  0  0  0  0
  -28.4384  -13.5085   21.8953 H   0  0  0  0  0  0
  -25.2778   -9.5667   22.4751 H   0  0  0  0  0  0
  -24.0005   -7.4632   22.7479 H   0  0  0  0  0  0
  -21.0840   -8.8793   19.8947 H   0  0  0  0  0  0
  -22.3723  -10.9688   19.6155 H   0  0  0  0  0  0
  -21.2011   -7.6157   23.9731 H   0  0  0  0  0  0
  -21.1477   -6.0519   25.9079 H   0  0  0  0  0  0
  -22.0596   -2.7620   23.2833 H   0  0  0  0  0  0
  -22.4153  -11.9881   22.4722 H   0  0  0  0  0  0
  -21.1175  -13.1297   22.2669 H   0  0  0  0  0  0
  -24.6900  -15.8538   20.5403 H   0  0  0  0  0  0
  -26.3097  -15.6177   20.1188 H   0  0  0  0  0  0
  -26.7106  -32.5531   23.1175 H   0  0  0  0  0  0
  -25.0076  -33.9787   25.0503 H   0  0  0  0  0  0
  -22.6894  -31.3049   21.4109 H   0  0  0  0  0  0
  -23.3749  -35.9638   23.3309 H   0  0  0  0  0  0
  -24.3594  -36.8904   22.2048 H   0  0  0  0  0  0
  -23.7252  -37.6518   23.6634 H   0  0  0  0  0  0
  -26.0471  -31.6060   20.6023 H   0  0  0  0  0  0
  -26.8168  -30.8840   21.9889 H   0  0  0  0  0  0
  -28.1104  -29.1234   21.1506 H   0  0  0  0  0  0
  -26.0866  -25.9792   19.0041 H   0  0  0  0  0  0
  -23.9879  -27.2881   19.0396 H   0  0  0  0  0  0
  -23.7188  -30.5955   19.4056 H   0  0  0  0  0  0
  -22.7408  -29.2370   19.8715 H   0  0  0  0  0  0
  -25.1284  -36.1985   25.0835 H   0  0  0  0  0  0
  -20.9936  -28.3351   24.1520 H   0  0  0  0  0  0
  -20.5370  -26.2315   23.3781 H   0  0  0  0  0  0
  -21.6669  -26.7273   22.1595 H   0  0  0  0  0  0
  -19.6774  -27.3551   20.6902 H   0  0  0  0  0  0
  -19.7065  -25.6554   21.1013 H   0  0  0  0  0  0
  -17.4221  -26.6538   21.4130 H   0  0  0  0  0  0
  -18.0557  -26.0082   22.9105 H   0  0  0  0  0  0
  -19.7914  -30.7291   24.2305 H   0  0  0  0  0  0
  -17.4990  -31.6283   24.5147 H   0  0  0  0  0  0
  -15.5332  -30.2961   23.7615 H   0  0  0  0  0  0
  -15.8696  -28.0786   22.7055 H   0  0  0  0  0  0
  -24.5920  -30.7027   25.7829 H   0  0  0  0  0  0
  -24.8914  -32.2844   26.4923 H   0  0  0  0  0  0
  -25.8106  -30.8885   27.0238 H   0  0  0  0  0  0
  -26.2852  -29.6805   24.1124 H   0  0  0  0  0  0
  -27.4043  -29.7255   25.4547 H   0  0  0  0  0  0
  -27.8684  -30.4339   23.9257 H   0  0  0  0  0  0
  -27.2705  -33.3584   26.2072 H   0  0  0  0  0  0
  -28.3844  -32.6868   25.0276 H   0  0  0  0  0  0
  -28.0740  -31.8394   26.5349 H   0  0  0  0  0  0
  -28.2614  -38.0092   24.7498 H   0  0  0  0  0  0
  -28.1072  -36.2629   24.6306 H   0  0  0  0  0  0
  -27.2299  -37.1465   25.8869 H   0  0  0  0  0  0
  -20.9311  -29.8594   21.6844 H   0  0  0  0  0  0
  -26.0201  -38.2870   24.1386 H   0  0  0  0  0  0
  -30.2970  -19.5582   19.6060 H   0  0  0  0  0  0
  -31.0927  -17.2306   19.7314 H   0  0  0  0  0  0
  -28.3630  -16.4880   22.9920 H   0  0  0  0  0  0
  -27.3359  -20.8696   21.5814 H   0  0  0  0  0  0
  -29.8260  -21.8513   20.1023 H   0  0  0  0  0  0
  -27.1546  -18.1730   23.9852 H   0  0  0  0  0  0
  -26.3288  -19.0763   22.7149 H   0  0  0  0  0  0
  -27.5881  -19.8481   23.6937 H   0  0  0  0  0  0
  -26.2698  -22.3151   20.2759 H   0  0  0  0  0  0
  -26.2984  -24.0388   20.2321 H   0  0  0  0  0  0
  -26.4953  -23.2091   21.7867 H   0  0  0  0  0  0
  -29.0268  -25.9118   21.8504 H   0  0  0  0  0  0
  -27.3926  -25.4938   21.5048 H   0  0  0  0  0  0
  -29.4827  -14.7819   22.1183 H   0  0  0  0  0  0
  1 25  1  0  0  0
  1 30  2  0  0  0
  1 83  1  0  0  0
  2  3  1  0  0  0
  2 25  1  0  0  0
  2 86  1  0  0  0
  2 87  1  0  0  0
  3  4  1  0  0  0
  3 88  1  0  0  0
  3 89  1  0  0  0
  4  5  1  0  0  0
  4 90  1  0  0  0
  4 91  1  0  0  0
  5  6  1  0  0  0
  5 26  1  0  0  0
  5 92  1  0  0  0
  6 25  1  0  0  0
  6 93  1  0  0  0
  6 94  1  0  0  0
  7  8  2  0  0  0
  7 26  1  0  0  0
  7 29  1  0  0  0
  8  9  1  0  0  0
  8 22  1  0  0  0
  9 10  1  0  0  0
  9 27  2  0  0  0
 10 11  2  0  0  0
 10 15  1  0  0  0
 11 12  1  0  0  0
 11 95  1  0  0  0
 12 13  2  0  0  0
 12 96  1  0  0  0
 13 14  1  0  0  0
 13 31  1  0  0  0
 14 15  2  0  0  0
 14 97  1  0  0  0
 15 98  1  0  0  0
 16 17  2  0  0  0
 16 21  1  0  0  0
 16 31  1  0  0  0
 17 18  1  0  0  0
 17 99  1  0  0  0
 18 19  2  0  0  0
 18100  1  0  0  0
 19 20  1  0  0  0
 19 24  1  0  0  0
 20 21  2  0  0  0
 20101  1  0  0  0
 21 23  1  0  0  0
 22 28  1  0  0  0
 22 32  2  0  0  0
 26 27  1  0  0  0
 28102  1  0  0  0
 28103  1  0  0  0
 29104  1  0  0  0
 29105  1  0  0  0
 33 34  1  0  0  0
 33 66  1  0  0  0
 33 70  2  0  0  0
 34 36  1  0  0  0
 34 59  1  0  0  0
 34106  1  0  0  0
 35 44  2  0  0  0
 35 45  1  0  0  0
 35 68  1  0  0  0
 36 56  1  0  0  0
 36107  1  0  0  0
 37 39  1  0  0  0
 37 47  1  0  0  0
 37 66  1  0  0  0
 37108  1  0  0  0
 38 43  2  0  0  0
 38 46  1  0  0  0
 38 47  1  0  0  0
 39 64  1  0  0  0
 39 67  2  0  0  0
 40 52  1  0  0  0
 40 53  2  0  0  0
 40 58  1  0  0  0
 41109  1  0  0  0
 41110  1  0  0  0
 41111  1  0  0  0
 41 48  1  0  0  0
 42 43  1  0  0  0
 42 66  1  0  0  0
 42112  1  0  0  0
 42113  1  0  0  0
 43 44  1  0  0  0
 44114  1  0  0  0
 45 46  2  0  0  0
 45115  1  0  0  0
 46116  1  0  0  0
 47117  1  0  0  0
 47118  1  0  0  0
 48 56  1  0  0  0
 48 65  1  0  0  0
 48119  1  0  0  0
 49 50  1  0  0  0
 49 53  1  0  0  0
 49 64  1  0  0  0
 49120  1  0  0  0
 50 51  1  0  0  0
 50121  1  0  0  0
 50122  1  0  0  0
 51 52  1  0  0  0
 51123  1  0  0  0
 51124  1  0  0  0
 52125  1  0  0  0
 52126  1  0  0  0
 53 54  1  0  0  0
 54 55  2  0  0  0
 54127  1  0  0  0
 55 57  1  0  0  0
 55128  1  0  0  0
 56 69  2  0  0  0
 57 58  2  0  0  0
 57129  1  0  0  0
 58130  1  0  0  0
 59 60  1  0  0  0
 59 61  1  0  0  0
 59 62  1  0  0  0
 60131  1  0  0  0
 60132  1  0  0  0
 60133  1  0  0  0
 61134  1  0  0  0
 61135  1  0  0  0
 61136  1  0  0  0
 62137  1  0  0  0
 62138  1  0  0  0
 62139  1  0  0  0
 63 65  1  0  0  0
 63140  1  0  0  0
 63141  1  0  0  0
 63142  1  0  0  0
 64143  1  0  0  0
 65144  1  0  0  0
 68 82  1  0  0  0
 71 72  2  0  0  0
 71 74  1  0  0  0
 71145  1  0  0  0
 72 76  1  0  0  0
 72146  1  0  0  0
 73 75  1  0  0  0
 73 76  2  0  0  0
 73147  1  0  0  0
 74 75  2  0  0  0
 74 77  1  0  0  0
 75 80  1  0  0  0
 76 83  1  0  0  0
 77 78  2  0  0  0
 77148  1  0  0  0
 78 84  1  0  0  0
 78149  1  0  0  0
 79 82  1  0  0  0
 79 84  1  0  0  0
 79 85  2  0  0  0
 80150  1  0  0  0
 80151  1  0  0  0
 80152  1  0  0  0
 81 84  1  0  0  0
 81153  1  0  0  0
 81154  1  0  0  0
 81155  1  0  0  0
 82156  1  0  0  0
 82157  1  0  0  0
 83158  1  0  0  0
M  ISO  4   1 100  68 101  82 101  83 100
M  END
> <chiral flag>
0

> <version>
0

> <s_m_source_file>
/data/baiqing/PycharmProjects/Reinvent-master-3.2/result/LINK_invent/BTK/process_docking_weight1_custom_product_contain_oxygen_bond_distance_aromatic_linkinvent_7_9_3/rearranged_h_0020.sdf

> <i_m_source_file_index>
88

> <r_mmod_Potential_Energy-OPLS-2005>
49.612907409668

> <r_mmod_Stretch_Energy-OPLS-2005>
43.0001754760742

> <r_mmod_Bend_Energy-OPLS-2005>
105.883262634277

> <r_mmod_Torsional_Energy-OPLS-2005>
280.972747802734

> <r_mmod_Improper_Torsional_Energy-OPLS-2005>
4.95027875900269

> <r_mmod_Van_der_Waal_Energy-OPLS-2005>
167.86930847168

> <r_mmod_Electrostatic_Energy-OPLS-2005>
-338.591644287109

> <r_mmod_Solvation_Energy-OPLS-2005>
-225.056274414062

> <b_mmod_Minimization_Converged-OPLS-2005>
0

> <r_mmod_RMS_Derivative-OPLS-2005>
2.03103947639465

$$$$
89
                    3D
 Structure written by MMmdl.
156164  0  0  1  0            999 V2000
  -30.6227  -14.6204   20.5328 C   0  0  0  0  0  0
  -30.4436  -12.3904   19.4494 C   0  0  0  0  0  0
  -29.5081  -12.5178   18.2242 C   0  0  0  0  0  0
  -28.0300  -12.3569   18.6349 C   0  0  0  0  0  0
  -27.6580  -13.2148   19.8739 C   0  0  2  0  0  0
  -28.7018  -13.0412   21.0008 C   0  0  0  0  0  0
  -25.2569  -13.8166   20.5699 C   0  0  0  0  0  0
  -24.1835  -13.0439   20.9203 C   0  0  0  0  0  0
  -24.6406  -11.6902   20.8767 C   0  0  0  0  0  0
  -23.9091  -10.4288   21.0429 C   0  0  0  0  0  0
  -24.3638   -9.4188   21.9197 C   0  0  0  0  0  0
  -23.6296   -8.2230   22.0755 C   0  0  0  0  0  0
  -22.4271   -8.0286   21.3553 C   0  0  0  0  0  0
  -21.9928   -9.0266   20.4653 C   0  0  0  0  0  0
  -22.7274  -10.2135   20.3062 C   0  0  0  0  0  0
  -21.6850   -6.0743   22.5289 C   0  0  0  0  0  0
  -21.4010   -6.5640   23.8223 C   0  0  0  0  0  0
  -21.3654   -5.6792   24.9179 C   0  0  0  0  0  0
  -21.6045   -4.3056   24.7237 C   0  0  0  0  0  0
  -21.8816   -3.8152   23.4355 C   0  0  0  0  0  0
  -21.9190   -4.6972   22.3410 C   0  0  0  0  0  0
  -22.7855  -13.5231   21.1864 C   0  0  0  0  0  0
  -22.1652   -4.2160   21.0989 F   0  0  0  0  0  0
  -21.5638   -3.4539   25.7745 F   0  0  0  0  0  0
  -30.0204  -13.3933   20.4449 N   0  0  0  0  0  0
  -26.3005  -12.9348   20.3364 N   0  0  0  0  0  0
  -25.9338  -11.6506   20.5792 N   0  0  0  0  0  0
  -22.0499  -12.8212   22.0412 N   0  0  0  0  0  0
  -25.4308  -15.1891   20.4106 N   0  0  0  0  0  0
  -31.7720  -14.8057   20.1195 O   0  0  0  0  0  0
  -21.6629   -6.8885   21.4248 O   0  0  0  0  0  0
  -22.3540  -14.5546   20.6718 O   0  0  0  0  0  0
  -24.6249  -31.8604   23.2040 C   0  0  0  0  0  0
  -25.9107  -32.4780   23.8352 C   0  0  1  0  0  0
  -27.2245  -27.3257   20.1089 C   0  0  0  0  0  0
  -25.5919  -33.8577   24.2271 N   0  0  0  0  0  0
  -23.4184  -30.4827   21.5493 C   0  0  2  0  0  0
  -24.8643  -28.9426   20.1094 C   0  0  0  0  0  0
  -22.7488  -29.4601   22.4969 C   0  0  0  0  0  0
  -18.0285  -28.1401   22.8491 C   0  0  0  0  0  0
  -24.1492  -36.7299   23.2635 C   0  0  0  0  0  0
  -25.9600  -30.7884   21.3767 C   0  0  0  0  0  0
  -26.0321  -29.4176   20.7186 C   0  0  0  0  0  0
  -27.2137  -28.6201   20.7108 C   0  0  0  0  0  0
  -26.0339  -26.9070   19.4664 C   0  0  0  0  0  0
  -24.8683  -27.6936   19.4721 C   0  0  0  0  0  0
  -23.6319  -29.8214   20.1631 C   0  0  0  0  0  0
  -25.4114  -36.3083   24.0323 C   0  0  1  0  0  0
  -20.5885  -28.3687   23.1311 C   0  0  2  0  0  0
  -20.6790  -26.9415   22.5425 C   0  0  0  0  0  0
  -19.5760  -26.6393   21.5239 C   0  0  0  0  0  0
  -18.1931  -26.7939   22.1640 C   0  0  0  0  0  0
  -19.1535  -28.8870   23.2888 C   0  0  0  0  0  0
  -18.9455  -30.1483   23.8884 C   0  0  0  0  0  0
  -17.6449  -30.6593   24.0577 C   0  0  0  0  0  0
  -25.9054  -34.9450   23.5101 C   0  0  0  0  0  0
  -16.5343  -29.9093   23.6338 C   0  0  0  0  0  0
  -16.7269  -28.6526   23.0332 C   0  0  0  0  0  0
  -26.4486  -31.6585   25.0719 C   0  0  0  0  0  0
  -25.3695  -31.3726   26.1433 C   0  0  0  0  0  0
  -27.0321  -30.3002   24.6170 C   0  0  0  0  0  0
  -27.6059  -32.4311   25.7484 C   0  0  0  0  0  0
  -27.5583  -37.1796   24.8456 C   0  0  0  0  0  0
  -21.4205  -29.3018   22.3709 N   0  0  0  0  0  0
  -26.4290  -37.3777   23.9408 N   0  0  0  0  0  0
  -24.6866  -31.0607   22.0999 N   0  0  0  0  0  0
  -23.4221  -28.8124   23.3026 O   0  0  0  0  0  0
  -28.3486  -26.4868   20.1710 O   0  0  0  0  0  0
  -26.5631  -34.8919   22.4671 O   0  0  0  0  0  0
  -23.5416  -32.1401   23.7366 O   0  0  0  0  0  0
  -30.9222  -19.2816   20.3666 C   0  0  0  0  0  0
  -30.9536  -17.8527   20.3791 C   0  0  0  0  0  0
  -28.7484  -17.8413   21.3412 C   0  0  0  0  0  0
  -29.8142  -20.0288   20.8588 C   0  0  0  0  0  0
  -29.8673  -17.0907   20.8857 C   0  0  0  0  0  0
  -28.7170  -19.2669   21.3303 C   0  0  0  0  0  0
  -29.0566  -22.1451   18.7731 C   0  0  0  0  0  0
  -29.8835  -21.5940   21.0345 C   0  0  0  0  0  0
  -29.2668  -24.0150   20.4422 C   0  0  0  0  0  0
  -28.1638  -25.0395   19.9250 C   0  0  0  0  0  0
  -29.8138  -15.6311   20.9741 N   0  0  0  0  0  0
  -29.0135  -22.5218   20.2067 N   0  3  1  0  0  0
  -27.6240  -19.9085   21.8082 F   0  0  0  0  0  0
  -31.4829  -12.5269   19.1443 H   0  0  0  0  0  0
  -30.3879  -11.3892   19.8800 H   0  0  0  0  0  0
  -29.7709  -11.7720   17.4731 H   0  0  0  0  0  0
  -29.6509  -13.4892   17.7476 H   0  0  0  0  0  0
  -27.8645  -11.3021   18.8546 H   0  0  0  0  0  0
  -27.3750  -12.5977   17.7969 H   0  0  0  0  0  0
  -27.6830  -14.2570   19.5533 H   0  0  0  0  0  0
  -28.7095  -12.0081   21.3546 H   0  0  0  0  0  0
  -28.4444  -13.6477   21.8707 H   0  0  0  0  0  0
  -25.2792   -9.5634   22.4769 H   0  0  0  0  0  0
  -24.0006   -7.4610   22.7452 H   0  0  0  0  0  0
  -21.0873   -8.8799   19.8949 H   0  0  0  0  0  0
  -22.3769  -10.9675   19.6157 H   0  0  0  0  0  0
  -21.1990   -7.6150   23.9734 H   0  0  0  0  0  0
  -21.1479   -6.0522   25.9089 H   0  0  0  0  0  0
  -22.0601   -2.7620   23.2859 H   0  0  0  0  0  0
  -22.4129  -11.9861   22.4780 H   0  0  0  0  0  0
  -21.1118  -13.1224   22.2628 H   0  0  0  0  0  0
  -24.6690  -15.8485   20.5245 H   0  0  0  0  0  0
  -26.2789  -15.6217   20.0692 H   0  0  0  0  0  0
  -26.7158  -32.5448   23.1088 H   0  0  0  0  0  0
  -25.0050  -33.9725   25.0408 H   0  0  0  0  0  0
  -22.7091  -31.3014   21.4099 H   0  0  0  0  0  0
  -23.3761  -35.9629   23.3289 H   0  0  0  0  0  0
  -24.3572  -36.8928   22.2048 H   0  0  0  0  0  0
  -23.7242  -37.6493   23.6672 H   0  0  0  0  0  0
  -26.0897  -31.5479   20.6045 H   0  0  0  0  0  0
  -26.8432  -30.8386   22.0030 H   0  0  0  0  0  0
  -28.1090  -28.9774   21.1988 H   0  0  0  0  0  0
  -25.9698  -25.9602   18.9515 H   0  0  0  0  0  0
  -23.9775  -27.3297   18.9776 H   0  0  0  0  0  0
  -23.7455  -30.6008   19.4088 H   0  0  0  0  0  0
  -22.7530  -29.2484   19.8644 H   0  0  0  0  0  0
  -25.1292  -36.1927   25.0813 H   0  0  0  0  0  0
  -20.9964  -28.3255   24.1442 H   0  0  0  0  0  0
  -20.5746  -26.2278   23.3611 H   0  0  0  0  0  0
  -21.6646  -26.7480   22.1171 H   0  0  0  0  0  0
  -19.6921  -25.6313   21.1252 H   0  0  0  0  0  0
  -19.6706  -27.3233   20.6793 H   0  0  0  0  0  0
  -17.4210  -26.6703   21.4033 H   0  0  0  0  0  0
  -18.0312  -26.0087   22.9037 H   0  0  0  0  0  0
  -19.7924  -30.7328   24.2222 H   0  0  0  0  0  0
  -17.4990  -31.6263   24.5204 H   0  0  0  0  0  0
  -15.5344  -30.2984   23.7675 H   0  0  0  0  0  0
  -15.8672  -28.0863   22.7010 H   0  0  0  0  0  0
  -24.5895  -30.7058   25.7739 H   0  0  0  0  0  0
  -24.8866  -32.2899   26.4813 H   0  0  0  0  0  0
  -25.7985  -30.8918   27.0234 H   0  0  0  0  0  0
  -26.2893  -29.6765   24.1187 H   0  0  0  0  0  0
  -27.4010  -29.7236   25.4663 H   0  0  0  0  0  0
  -27.8767  -30.4285   23.9397 H   0  0  0  0  0  0
  -27.2695  -33.3636   26.2029 H   0  0  0  0  0  0
  -28.3885  -32.6819   25.0311 H   0  0  0  0  0  0
  -28.0716  -31.8448   26.5419 H   0  0  0  0  0  0
  -28.2575  -38.0117   24.7527 H   0  0  0  0  0  0
  -28.1104  -36.2646   24.6252 H   0  0  0  0  0  0
  -27.2301  -37.1395   25.8857 H   0  0  0  0  0  0
  -20.9406  -29.8698   21.6872 H   0  0  0  0  0  0
  -26.0172  -38.2848   24.1429 H   0  0  0  0  0  0
  -31.7975  -19.8061   20.0088 H   0  0  0  0  0  0
  -31.8398  -17.3529   20.0135 H   0  0  0  0  0  0
  -27.8840  -17.3223   21.7307 H   0  0  0  0  0  0
  -28.6608  -21.1388   18.6306 H   0  0  0  0  0  0
  -30.0801  -22.1541   18.3970 H   0  0  0  0  0  0
  -28.4596  -22.8099   18.1509 H   0  0  0  0  0  0
  -30.9208  -21.8866   20.8639 H   0  0  0  0  0  0
  -29.6961  -21.8110   22.0879 H   0  0  0  0  0  0
  -29.3654  -24.1693   21.5170 H   0  0  0  0  0  0
  -30.2367  -24.2790   20.0180 H   0  0  0  0  0  0
  -27.2213  -24.7197   20.3725 H   0  0  0  0  0  0
  -28.0538  -24.9266   18.8467 H   0  0  0  0  0  0
  -28.9436  -15.2683   21.3335 H   0  0  0  0  0  0
  -28.0693  -22.3440   20.5176 H   0  0  0  0  0  0
  1 25  1  0  0  0
  1 30  2  0  0  0
  1 81  1  0  0  0
  2  3  1  0  0  0
  2 25  1  0  0  0
  2 84  1  0  0  0
  2 85  1  0  0  0
  3  4  1  0  0  0
  3 86  1  0  0  0
  3 87  1  0  0  0
  4  5  1  0  0  0
  4 88  1  0  0  0
  4 89  1  0  0  0
  5  6  1  0  0  0
  5 26  1  0  0  0
  5 90  1  0  0  0
  6 25  1  0  0  0
  6 91  1  0  0  0
  6 92  1  0  0  0
  7  8  2  0  0  0
  7 26  1  0  0  0
  7 29  1  0  0  0
  8  9  1  0  0  0
  8 22  1  0  0  0
  9 10  1  0  0  0
  9 27  2  0  0  0
 10 11  2  0  0  0
 10 15  1  0  0  0
 11 12  1  0  0  0
 11 93  1  0  0  0
 12 13  2  0  0  0
 12 94  1  0  0  0
 13 14  1  0  0  0
 13 31  1  0  0  0
 14 15  2  0  0  0
 14 95  1  0  0  0
 15 96  1  0  0  0
 16 17  2  0  0  0
 16 21  1  0  0  0
 16 31  1  0  0  0
 17 18  1  0  0  0
 17 97  1  0  0  0
 18 19  2  0  0  0
 18 98  1  0  0  0
 19 20  1  0  0  0
 19 24  1  0  0  0
 20 21  2  0  0  0
 20 99  1  0  0  0
 21 23  1  0  0  0
 22 28  1  0  0  0
 22 32  2  0  0  0
 26 27  1  0  0  0
 28100  1  0  0  0
 28101  1  0  0  0
 29102  1  0  0  0
 29103  1  0  0  0
 33 34  1  0  0  0
 33 66  1  0  0  0
 33 70  2  0  0  0
 34 36  1  0  0  0
 34 59  1  0  0  0
 34104  1  0  0  0
 35 44  2  0  0  0
 35 45  1  0  0  0
 35 68  1  0  0  0
 36 56  1  0  0  0
 36105  1  0  0  0
 37 39  1  0  0  0
 37 47  1  0  0  0
 37 66  1  0  0  0
 37106  1  0  0  0
 38 43  2  0  0  0
 38 46  1  0  0  0
 38 47  1  0  0  0
 39 64  1  0  0  0
 39 67  2  0  0  0
 40 52  1  0  0  0
 40 53  2  0  0  0
 40 58  1  0  0  0
 41107  1  0  0  0
 41108  1  0  0  0
 41109  1  0  0  0
 41 48  1  0  0  0
 42 43  1  0  0  0
 42 66  1  0  0  0
 42110  1  0  0  0
 42111  1  0  0  0
 43 44  1  0  0  0
 44112  1  0  0  0
 45 46  2  0  0  0
 45113  1  0  0  0
 46114  1  0  0  0
 47115  1  0  0  0
 47116  1  0  0  0
 48 56  1  0  0  0
 48 65  1  0  0  0
 48117  1  0  0  0
 49 50  1  0  0  0
 49 53  1  0  0  0
 49 64  1  0  0  0
 49118  1  0  0  0
 50 51  1  0  0  0
 50119  1  0  0  0
 50120  1  0  0  0
 51 52  1  0  0  0
 51121  1  0  0  0
 51122  1  0  0  0
 52123  1  0  0  0
 52124  1  0  0  0
 53 54  1  0  0  0
 54 55  2  0  0  0
 54125  1  0  0  0
 55 57  1  0  0  0
 55126  1  0  0  0
 56 69  2  0  0  0
 57 58  2  0  0  0
 57127  1  0  0  0
 58128  1  0  0  0
 59 60  1  0  0  0
 59 61  1  0  0  0
 59 62  1  0  0  0
 60129  1  0  0  0
 60130  1  0  0  0
 60131  1  0  0  0
 61132  1  0  0  0
 61133  1  0  0  0
 61134  1  0  0  0
 62135  1  0  0  0
 62136  1  0  0  0
 62137  1  0  0  0
 63 65  1  0  0  0
 63138  1  0  0  0
 63139  1  0  0  0
 63140  1  0  0  0
 64141  1  0  0  0
 65142  1  0  0  0
 68 80  1  0  0  0
 71 72  2  0  0  0
 71 74  1  0  0  0
 71143  1  0  0  0
 72 75  1  0  0  0
 72144  1  0  0  0
 73 75  2  0  0  0
 73 76  1  0  0  0
 73145  1  0  0  0
 74 76  2  0  0  0
 74 78  1  0  0  0
 75 81  1  0  0  0
 76 83  1  0  0  0
 77146  1  0  0  0
 77147  1  0  0  0
 77148  1  0  0  0
 77 82  1  0  0  0
 78 82  1  0  0  0
 78149  1  0  0  0
 78150  1  0  0  0
 79 80  1  0  0  0
 79 82  1  0  0  0
 79151  1  0  0  0
 79152  1  0  0  0
 80153  1  0  0  0
 80154  1  0  0  0
 81155  1  0  0  0
 82156  1  0  0  0
M  CHG  1  82   1
M  ISO  4   1 100  68 101  80 101  81 100
M  END
> <chiral flag>
0

> <version>
0

> <s_m_source_file>
/data/baiqing/PycharmProjects/Reinvent-master-3.2/result/LINK_invent/BTK/process_docking_weight1_custom_product_contain_oxygen_bond_distance_aromatic_linkinvent_7_9_3/rearranged_h_0020.sdf

> <i_m_source_file_index>
89

> <r_mmod_Potential_Energy-OPLS-2005>
-72.4477767944336

> <r_mmod_Stretch_Energy-OPLS-2005>
77.2074813842773

> <r_mmod_Bend_Energy-OPLS-2005>
137.644012451172

> <r_mmod_Torsional_Energy-OPLS-2005>
204.07666015625

> <r_mmod_Improper_Torsional_Energy-OPLS-2005>
4.14148139953613

> <r_mmod_Van_der_Waal_Energy-OPLS-2005>
145.579650878906

> <r_mmod_Electrostatic_Energy-OPLS-2005>
-253.568542480469

> <r_mmod_Solvation_Energy-OPLS-2005>
-431.46044921875

> <b_mmod_Minimization_Converged-OPLS-2005>
0

> <r_mmod_RMS_Derivative-OPLS-2005>
1.99835777282715

$$$$
90
                    3D
 Structure written by MMmdl.
155163  0  0  1  0            999 V2000
  -30.5557  -14.9067   20.5053 C   0  0  0  0  0  0
  -30.4452  -12.5718   19.4996 C   0  0  0  0  0  0
  -29.5266  -12.5467   18.2540 C   0  0  0  0  0  0
  -28.0549  -12.3323   18.6562 C   0  0  0  0  0  0
  -27.6369  -13.2379   19.8421 C   0  0  2  0  0  0
  -28.6718  -13.1941   20.9813 C   0  0  0  0  0  0
  -25.2492  -13.8183   20.5670 C   0  0  0  0  0  0
  -24.1795  -13.0425   20.9196 C   0  0  0  0  0  0
  -24.6398  -11.6908   20.8726 C   0  0  0  0  0  0
  -23.9073  -10.4284   21.0398 C   0  0  0  0  0  0
  -24.3622   -9.4202   21.9183 C   0  0  0  0  0  0
  -23.6297   -8.2237   22.0754 C   0  0  0  0  0  0
  -22.4279   -8.0275   21.3545 C   0  0  0  0  0  0
  -21.9914   -9.0244   20.4645 C   0  0  0  0  0  0
  -22.7240  -10.2125   20.3051 C   0  0  0  0  0  0
  -21.6856   -6.0732   22.5278 C   0  0  0  0  0  0
  -21.4013   -6.5637   23.8209 C   0  0  0  0  0  0
  -21.3660   -5.6792   24.9171 C   0  0  0  0  0  0
  -21.6047   -4.3054   24.7222 C   0  0  0  0  0  0
  -21.8822   -3.8144   23.4344 C   0  0  0  0  0  0
  -21.9193   -4.6960   22.3400 C   0  0  0  0  0  0
  -22.7820  -13.5206   21.1866 C   0  0  0  0  0  0
  -22.1663   -4.2143   21.0980 F   0  0  0  0  0  0
  -21.5630   -3.4542   25.7735 F   0  0  0  0  0  0
  -29.9622  -13.6406   20.4246 N   0  0  0  0  0  0
  -26.2904  -12.9399   20.3189 N   0  0  0  0  0  0
  -25.9322  -11.6539   20.5682 N   0  0  0  0  0  0
  -22.0473  -12.8191   22.0424 N   0  0  0  0  0  0
  -25.4194  -15.1903   20.4099 N   0  0  0  0  0  0
  -31.6987  -15.0218   20.0458 O   0  0  0  0  0  0
  -21.6646   -6.8874   21.4239 O   0  0  0  0  0  0
  -22.3496  -14.5511   20.6717 O   0  0  0  0  0  0
  -24.6409  -31.8460   23.1899 C   0  0  0  0  0  0
  -25.9182  -32.4716   23.8281 C   0  0  1  0  0  0
  -27.2157  -27.1524   20.1484 C   0  0  0  0  0  0
  -25.5934  -33.8524   24.2194 N   0  0  0  0  0  0
  -23.4437  -30.4641   21.5386 C   0  0  2  0  0  0
  -24.8919  -28.8938   20.1168 C   0  0  0  0  0  0
  -22.7558  -29.4540   22.4905 C   0  0  0  0  0  0
  -18.0295  -28.1408   22.8475 C   0  0  0  0  0  0
  -24.1487  -36.7256   23.2643 C   0  0  0  0  0  0
  -25.9994  -30.7251   21.3864 C   0  0  0  0  0  0
  -26.0710  -29.3372   20.7299 C   0  0  0  0  0  0
  -27.2361  -28.4831   20.7265 C   0  0  0  0  0  0
  -26.0114  -26.8124   19.4921 C   0  0  0  0  0  0
  -24.8737  -27.6440   19.4832 C   0  0  0  0  0  0
  -23.6686  -29.7936   20.1588 C   0  0  0  0  0  0
  -25.4126  -36.3047   24.0311 C   0  0  1  0  0  0
  -20.5905  -28.3712   23.1265 C   0  0  2  0  0  0
  -20.6792  -26.9424   22.5418 C   0  0  0  0  0  0
  -19.5765  -26.6389   21.5224 C   0  0  0  0  0  0
  -18.1940  -26.7948   22.1625 C   0  0  0  0  0  0
  -19.1549  -28.8881   23.2858 C   0  0  0  0  0  0
  -18.9467  -30.1486   23.8872 C   0  0  0  0  0  0
  -17.6463  -30.6603   24.0560 C   0  0  0  0  0  0
  -25.9072  -34.9423   23.5060 C   0  0  0  0  0  0
  -16.5354  -29.9093   23.6346 C   0  0  0  0  0  0
  -16.7280  -28.6517   23.0353 C   0  0  0  0  0  0
  -26.4507  -31.6581   25.0712 C   0  0  0  0  0  0
  -25.3682  -31.3755   26.1393 C   0  0  0  0  0  0
  -27.0373  -30.2986   24.6272 C   0  0  0  0  0  0
  -27.6047  -32.4339   25.7490 C   0  0  0  0  0  0
  -27.5572  -37.1790   24.8469 C   0  0  0  0  0  0
  -21.4252  -29.3035   22.3649 N   0  0  0  0  0  0
  -26.4289  -37.3760   23.9402 N   0  0  0  0  0  0
  -24.7150  -31.0319   22.0941 N   0  0  0  0  0  0
  -23.4206  -28.8087   23.3051 O   0  0  0  0  0  0
  -28.2772  -26.1801   20.1790 O   0  0  0  0  0  0
  -26.5669  -34.8913   22.4648 O   0  0  0  0  0  0
  -23.5525  -32.1337   23.7115 O   0  0  0  0  0  0
  -30.6246  -18.5378   20.5320 C   0  0  0  0  0  0
  -30.3073  -19.9671   20.4783 C   0  0  0  0  0  0
  -28.3260  -18.0395   20.6017 C   0  0  0  0  0  0
  -29.6449  -17.4852   20.6292 C   0  0  0  0  0  0
  -28.9758  -20.5159   20.5254 C   0  0  0  0  0  0
  -28.0038  -19.4487   20.5425 C   0  0  0  0  0  0
  -29.5634  -15.8894   22.4875 C   0  0  0  0  0  0
  -28.1187  -22.0417   22.1588 C   0  0  0  0  0  0
  -28.9777  -23.3290   20.1962 C   0  0  0  0  0  0
  -27.9846  -24.6741   20.4252 C   0  0  0  0  0  0
  -29.8636  -16.0275   21.0558 N   0  0  0  0  0  0
  -28.5796  -21.9375   20.7724 N   0  0  0  0  0  0
  -26.3194  -19.8475   20.5570 Cl  0  0  0  0  0  0
  -31.4811  -12.7295   19.1946 H   0  0  0  0  0  0
  -30.4346  -11.6022   19.9993 H   0  0  0  0  0  0
  -29.8442  -11.7633   17.5640 H   0  0  0  0  0  0
  -29.6241  -13.4889   17.7125 H   0  0  0  0  0  0
  -27.9371  -11.2846   18.9349 H   0  0  0  0  0  0
  -27.3973  -12.4944   17.8008 H   0  0  0  0  0  0
  -27.6226  -14.2569   19.4550 H   0  0  0  0  0  0
  -28.7520  -12.1867   21.3912 H   0  0  0  0  0  0
  -28.3243  -13.8105   21.8041 H   0  0  0  0  0  0
  -25.2770   -9.5687   22.4750 H   0  0  0  0  0  0
  -24.0011   -7.4636   22.7477 H   0  0  0  0  0  0
  -21.0846   -8.8762   19.8955 H   0  0  0  0  0  0
  -22.3699  -10.9662   19.6157 H   0  0  0  0  0  0
  -21.2009   -7.6146   23.9710 H   0  0  0  0  0  0
  -21.1480   -6.0523   25.9075 H   0  0  0  0  0  0
  -22.0602   -2.7605   23.2847 H   0  0  0  0  0  0
  -22.4099  -11.9854   22.4813 H   0  0  0  0  0  0
  -21.1082  -13.1202   22.2620 H   0  0  0  0  0  0
  -24.6533  -15.8453   20.5196 H   0  0  0  0  0  0
  -26.2637  -15.6189   20.0558 H   0  0  0  0  0  0
  -26.7240  -32.5331   23.1006 H   0  0  0  0  0  0
  -25.0049  -33.9664   25.0313 H   0  0  0  0  0  0
  -22.7445  -31.2887   21.3854 H   0  0  0  0  0  0
  -23.3762  -35.9575   23.3313 H   0  0  0  0  0  0
  -24.3562  -36.8882   22.2054 H   0  0  0  0  0  0
  -23.7226  -37.6445   23.6679 H   0  0  0  0  0  0
  -26.1501  -31.4791   20.6128 H   0  0  0  0  0  0
  -26.8722  -30.7781   22.0254 H   0  0  0  0  0  0
  -28.1380  -28.8197   21.2183 H   0  0  0  0  0  0
  -25.9198  -25.8703   18.9745 H   0  0  0  0  0  0
  -23.9752  -27.3031   18.9878 H   0  0  0  0  0  0
  -23.8046  -30.5680   19.4035 H   0  0  0  0  0  0
  -22.7840  -29.2341   19.8483 H   0  0  0  0  0  0
  -25.1317  -36.1886   25.0804 H   0  0  0  0  0  0
  -20.9976  -28.3295   24.1394 H   0  0  0  0  0  0
  -20.5714  -26.2312   23.3625 H   0  0  0  0  0  0
  -21.6657  -26.7466   22.1191 H   0  0  0  0  0  0
  -19.6931  -25.6295   21.1269 H   0  0  0  0  0  0
  -19.6713  -27.3193   20.6751 H   0  0  0  0  0  0
  -17.4213  -26.6685   21.4025 H   0  0  0  0  0  0
  -18.0331  -26.0107   22.9033 H   0  0  0  0  0  0
  -19.7940  -30.7317   24.2219 H   0  0  0  0  0  0
  -17.5013  -31.6278   24.5170 H   0  0  0  0  0  0
  -15.5353  -30.2982   23.7701 H   0  0  0  0  0  0
  -15.8677  -28.0838   22.7076 H   0  0  0  0  0  0
  -24.5872  -30.7101   25.7683 H   0  0  0  0  0  0
  -24.8851  -32.2933   26.4763 H   0  0  0  0  0  0
  -25.7945  -30.8944   27.0206 H   0  0  0  0  0  0
  -26.2987  -29.6712   24.1265 H   0  0  0  0  0  0
  -27.3989  -29.7276   25.4833 H   0  0  0  0  0  0
  -27.8890  -30.4240   23.9581 H   0  0  0  0  0  0
  -27.2658  -33.3669   26.2009 H   0  0  0  0  0  0
  -28.3883  -32.6854   25.0329 H   0  0  0  0  0  0
  -28.0686  -31.8498   26.5448 H   0  0  0  0  0  0
  -28.2600  -38.0079   24.7512 H   0  0  0  0  0  0
  -28.1057  -36.2608   24.6312 H   0  0  0  0  0  0
  -27.2282  -37.1455   25.8871 H   0  0  0  0  0  0
  -20.9470  -29.8719   21.6800 H   0  0  0  0  0  0
  -26.0158  -38.2824   24.1418 H   0  0  0  0  0  0
  -31.6682  -18.2608   20.5837 H   0  0  0  0  0  0
  -31.1342  -20.6616   20.4850 H   0  0  0  0  0  0
  -27.4969  -17.3563   20.7040 H   0  0  0  0  0  0
  -30.0091  -16.7129   23.0476 H   0  0  0  0  0  0
  -29.9484  -14.9714   22.9368 H   0  0  0  0  0  0
  -28.4867  -15.9231   22.6585 H   0  0  0  0  0  0
  -28.2628  -21.1230   22.7316 H   0  0  0  0  0  0
  -27.0555  -22.2846   22.1900 H   0  0  0  0  0  0
  -28.6567  -22.8262   22.6925 H   0  0  0  0  0  0
  -29.9578  -23.5685   20.6103 H   0  0  0  0  0  0
  -29.1406  -23.2096   19.1242 H   0  0  0  0  0  0
  -27.7044  -24.6637   21.4781 H   0  0  0  0  0  0
  -27.0643  -24.4110   19.9110 H   0  0  0  0  0  0
  1 25  1  0  0  0
  1 30  2  0  0  0
  1 81  1  0  0  0
  2  3  1  0  0  0
  2 25  1  0  0  0
  2 84  1  0  0  0
  2 85  1  0  0  0
  3  4  1  0  0  0
  3 86  1  0  0  0
  3 87  1  0  0  0
  4  5  1  0  0  0
  4 88  1  0  0  0
  4 89  1  0  0  0
  5  6  1  0  0  0
  5 26  1  0  0  0
  5 90  1  0  0  0
  6 25  1  0  0  0
  6 91  1  0  0  0
  6 92  1  0  0  0
  7  8  2  0  0  0
  7 26  1  0  0  0
  7 29  1  0  0  0
  8  9  1  0  0  0
  8 22  1  0  0  0
  9 10  1  0  0  0
  9 27  2  0  0  0
 10 11  2  0  0  0
 10 15  1  0  0  0
 11 12  1  0  0  0
 11 93  1  0  0  0
 12 13  2  0  0  0
 12 94  1  0  0  0
 13 14  1  0  0  0
 13 31  1  0  0  0
 14 15  2  0  0  0
 14 95  1  0  0  0
 15 96  1  0  0  0
 16 17  2  0  0  0
 16 21  1  0  0  0
 16 31  1  0  0  0
 17 18  1  0  0  0
 17 97  1  0  0  0
 18 19  2  0  0  0
 18 98  1  0  0  0
 19 20  1  0  0  0
 19 24  1  0  0  0
 20 21  2  0  0  0
 20 99  1  0  0  0
 21 23  1  0  0  0
 22 28  1  0  0  0
 22 32  2  0  0  0
 26 27  1  0  0  0
 28100  1  0  0  0
 28101  1  0  0  0
 29102  1  0  0  0
 29103  1  0  0  0
 33 34  1  0  0  0
 33 66  1  0  0  0
 33 70  2  0  0  0
 34 36  1  0  0  0
 34 59  1  0  0  0
 34104  1  0  0  0
 35 44  2  0  0  0
 35 45  1  0  0  0
 35 68  1  0  0  0
 36 56  1  0  0  0
 36105  1  0  0  0
 37 39  1  0  0  0
 37 47  1  0  0  0
 37 66  1  0  0  0
 37106  1  0  0  0
 38 43  2  0  0  0
 38 46  1  0  0  0
 38 47  1  0  0  0
 39 64  1  0  0  0
 39 67  2  0  0  0
 40 52  1  0  0  0
 40 53  2  0  0  0
 40 58  1  0  0  0
 41107  1  0  0  0
 41108  1  0  0  0
 41109  1  0  0  0
 41 48  1  0  0  0
 42 43  1  0  0  0
 42 66  1  0  0  0
 42110  1  0  0  0
 42111  1  0  0  0
 43 44  1  0  0  0
 44112  1  0  0  0
 45 46  2  0  0  0
 45113  1  0  0  0
 46114  1  0  0  0
 47115  1  0  0  0
 47116  1  0  0  0
 48 56  1  0  0  0
 48 65  1  0  0  0
 48117  1  0  0  0
 49 50  1  0  0  0
 49 53  1  0  0  0
 49 64  1  0  0  0
 49118  1  0  0  0
 50 51  1  0  0  0
 50119  1  0  0  0
 50120  1  0  0  0
 51 52  1  0  0  0
 51121  1  0  0  0
 51122  1  0  0  0
 52123  1  0  0  0
 52124  1  0  0  0
 53 54  1  0  0  0
 54 55  2  0  0  0
 54125  1  0  0  0
 55 57  1  0  0  0
 55126  1  0  0  0
 56 69  2  0  0  0
 57 58  2  0  0  0
 57127  1  0  0  0
 58128  1  0  0  0
 59 60  1  0  0  0
 59 61  1  0  0  0
 59 62  1  0  0  0
 60129  1  0  0  0
 60130  1  0  0  0
 60131  1  0  0  0
 61132  1  0  0  0
 61133  1  0  0  0
 61134  1  0  0  0
 62135  1  0  0  0
 62136  1  0  0  0
 62137  1  0  0  0
 63 65  1  0  0  0
 63138  1  0  0  0
 63139  1  0  0  0
 63140  1  0  0  0
 64141  1  0  0  0
 65142  1  0  0  0
 68 80  1  0  0  0
 71 72  2  0  0  0
 71 74  1  0  0  0
 71143  1  0  0  0
 72 75  1  0  0  0
 72144  1  0  0  0
 73 74  2  0  0  0
 73 76  1  0  0  0
 73145  1  0  0  0
 74 81  1  0  0  0
 75 76  2  0  0  0
 75 82  1  0  0  0
 76 83  1  0  0  0
 77 81  1  0  0  0
 77146  1  0  0  0
 77147  1  0  0  0
 77148  1  0  0  0
 78 82  1  0  0  0
 78149  1  0  0  0
 78150  1  0  0  0
 78151  1  0  0  0
 79 80  1  0  0  0
 79 82  1  0  0  0
 79152  1  0  0  0
 79153  1  0  0  0
 80154  1  0  0  0
 80155  1  0  0  0
M  ISO  4   1 100  68 101  80 101  81 100
M  END
> <chiral flag>
0

> <version>
0

> <s_m_source_file>
/data/baiqing/PycharmProjects/Reinvent-master-3.2/result/LINK_invent/BTK/process_docking_weight1_custom_product_contain_oxygen_bond_distance_aromatic_linkinvent_7_9_3/rearranged_h_0020.sdf

> <i_m_source_file_index>
90

> <r_mmod_Potential_Energy-OPLS-2005>
707.362487792969

> <r_mmod_Stretch_Energy-OPLS-2005>
227.506759643555

> <r_mmod_Bend_Energy-OPLS-2005>
275.950103759766

> <r_mmod_Torsional_Energy-OPLS-2005>
341.855255126953

> <r_mmod_Improper_Torsional_Energy-OPLS-2005>
8.60602474212646

> <r_mmod_Van_der_Waal_Energy-OPLS-2005>
141.634155273438

> <r_mmod_Electrostatic_Energy-OPLS-2005>
-250.369842529297

> <r_mmod_Solvation_Energy-OPLS-2005>
-202.002822875977

> <b_mmod_Minimization_Converged-OPLS-2005>
0

> <r_mmod_RMS_Derivative-OPLS-2005>
1.09193754196167

$$$$
91
                    3D
 Structure written by MMmdl.
159167  0  0  1  0            999 V2000
  -30.6118  -14.7219   20.3594 C   0  0  0  0  0  0
  -30.4359  -12.4009   19.4783 C   0  0  0  0  0  0
  -29.5120  -12.3776   18.2394 C   0  0  0  0  0  0
  -28.0302  -12.2865   18.6549 C   0  0  0  0  0  0
  -27.6376  -13.2158   19.8365 C   0  0  2  0  0  0
  -28.6883  -13.1892   20.9669 C   0  0  0  0  0  0
  -25.2504  -13.8177   20.5669 C   0  0  0  0  0  0
  -24.1784  -13.0448   20.9235 C   0  0  0  0  0  0
  -24.6342  -11.6920   20.8787 C   0  0  0  0  0  0
  -23.9018  -10.4295   21.0429 C   0  0  0  0  0  0
  -24.3590   -9.4218   21.9195 C   0  0  0  0  0  0
  -23.6304   -8.2234   22.0740 C   0  0  0  0  0  0
  -22.4291   -8.0256   21.3532 C   0  0  0  0  0  0
  -21.9922   -9.0215   20.4642 C   0  0  0  0  0  0
  -22.7197  -10.2127   20.3063 C   0  0  0  0  0  0
  -21.6846   -6.0740   22.5282 C   0  0  0  0  0  0
  -21.4004   -6.5647   23.8219 C   0  0  0  0  0  0
  -21.3674   -5.6788   24.9177 C   0  0  0  0  0  0
  -21.6068   -4.3052   24.7214 C   0  0  0  0  0  0
  -21.8809   -3.8152   23.4326 C   0  0  0  0  0  0
  -21.9182   -4.6978   22.3393 C   0  0  0  0  0  0
  -22.7806  -13.5237   21.1870 C   0  0  0  0  0  0
  -22.1639   -4.2181   21.0972 F   0  0  0  0  0  0
  -21.5675   -3.4528   25.7719 F   0  0  0  0  0  0
  -29.9833  -13.5015   20.3526 N   0  0  0  0  0  0
  -26.2914  -12.9348   20.3251 N   0  0  0  0  0  0
  -25.9259  -11.6519   20.5776 N   0  0  0  0  0  0
  -22.0419  -12.8270   22.0447 N   0  0  0  0  0  0
  -25.4188  -15.1902   20.4019 N   0  0  0  0  0  0
  -31.8426  -14.7821   20.2704 O   0  0  0  0  0  0
  -21.6643   -6.8865   21.4232 O   0  0  0  0  0  0
  -22.3486  -14.5495   20.6621 O   0  0  0  0  0  0
  -24.6256  -31.8582   23.2020 C   0  0  0  0  0  0
  -25.9120  -32.4757   23.8346 C   0  0  1  0  0  0
  -27.2323  -27.3303   20.1234 C   0  0  0  0  0  0
  -25.5936  -33.8562   24.2278 N   0  0  0  0  0  0
  -23.4174  -30.4822   21.5413 C   0  0  2  0  0  0
  -24.8641  -28.9315   20.1092 C   0  0  0  0  0  0
  -22.7462  -29.4613   22.4905 C   0  0  0  0  0  0
  -18.0297  -28.1360   22.8503 C   0  0  0  0  0  0
  -24.1488  -36.7298   23.2642 C   0  0  0  0  0  0
  -25.9550  -30.7916   21.3718 C   0  0  0  0  0  0
  -26.0278  -29.4208   20.7137 C   0  0  0  0  0  0
  -27.2099  -28.6314   20.7094 C   0  0  0  0  0  0
  -26.0415  -26.8746   19.5120 C   0  0  0  0  0  0
  -24.8721  -27.6651   19.5010 C   0  0  0  0  0  0
  -23.6323  -29.8151   20.1563 C   0  0  0  0  0  0
  -25.4102  -36.3067   24.0340 C   0  0  1  0  0  0
  -20.5904  -28.3675   23.1284 C   0  0  2  0  0  0
  -20.6783  -26.9398   22.5412 C   0  0  0  0  0  0
  -19.5752  -26.6376   21.5213 C   0  0  0  0  0  0
  -18.1934  -26.7920   22.1624 C   0  0  0  0  0  0
  -19.1555  -28.8833   23.2897 C   0  0  0  0  0  0
  -18.9469  -30.1435   23.8904 C   0  0  0  0  0  0
  -17.6468  -30.6576   24.0556 C   0  0  0  0  0  0
  -25.9040  -34.9439   23.5113 C   0  0  0  0  0  0
  -16.5360  -29.9065   23.6330 C   0  0  0  0  0  0
  -16.7283  -28.6476   23.0371 C   0  0  0  0  0  0
  -26.4529  -31.6573   25.0723 C   0  0  0  0  0  0
  -25.3778  -31.3733   26.1468 C   0  0  0  0  0  0
  -27.0386  -30.2984   24.6212 C   0  0  0  0  0  0
  -27.6043  -32.4350   25.7507 C   0  0  0  0  0  0
  -27.5582  -37.1798   24.8466 C   0  0  0  0  0  0
  -21.4176  -29.3032   22.3656 N   0  0  0  0  0  0
  -26.4279  -37.3759   23.9421 N   0  0  0  0  0  0
  -24.6837  -31.0625   22.0947 N   0  0  0  0  0  0
  -23.4190  -28.8156   23.2983 O   0  0  0  0  0  0
  -28.3953  -26.5553   20.1872 O   0  0  0  0  0  0
  -26.5597  -34.8916   22.4667 O   0  0  0  0  0  0
  -23.5437  -32.1357   23.7395 O   0  0  0  0  0  0
  -30.1492  -19.5819   19.8550 C   0  0  0  0  0  0
  -28.1395  -18.9401   20.9987 C   0  0  0  0  0  0
  -30.5528  -18.2112   19.8249 C   0  0  0  0  0  0
  -28.5323  -17.5677   20.9490 C   0  0  0  0  0  0
  -28.9003  -19.9852   20.3997 C   0  0  0  0  0  0
  -29.7243  -17.1532   20.3050 C   0  0  0  0  0  0
  -29.8216  -15.7385   18.3423 C   0  0  0  0  0  0
  -29.7023  -22.4779   21.9444 C   0  0  0  0  0  0
  -28.2765  -21.4315   20.2004 C   0  0  0  0  0  0
  -28.1379  -23.9773   20.7063 C   0  0  0  0  0  0
  -28.4992  -25.1620   19.7104 C   0  0  0  0  0  0
  -29.8767  -15.7718   19.8195 N   0  0  0  0  0  0
  -28.9851  -22.6953   20.6630 N   0  3  1  0  0  0
  -31.4765  -12.5278   19.1775 H   0  0  0  0  0  0
  -30.3853  -11.4482   20.0073 H   0  0  0  0  0  0
  -29.7680  -11.5199   17.6168 H   0  0  0  0  0  0
  -29.6828  -13.2366   17.5985 H   0  0  0  0  0  0
  -27.8586  -11.2501   18.9456 H   0  0  0  0  0  0
  -27.3819  -12.4688   17.7974 H   0  0  0  0  0  0
  -27.6083  -14.2257   19.4334 H   0  0  0  0  0  0
  -28.7187  -12.2152   21.4574 H   0  0  0  0  0  0
  -28.4434  -13.9243   21.7372 H   0  0  0  0  0  0
  -25.2699   -9.5766   22.4799 H   0  0  0  0  0  0
  -24.0050   -7.4642   22.7450 H   0  0  0  0  0  0
  -21.0860   -8.8691   19.8938 H   0  0  0  0  0  0
  -22.3595  -10.9668   19.6207 H   0  0  0  0  0  0
  -21.1962   -7.6150   23.9726 H   0  0  0  0  0  0
  -21.1524   -6.0516   25.9092 H   0  0  0  0  0  0
  -22.0574   -2.7623   23.2784 H   0  0  0  0  0  0
  -22.3968  -11.9959   22.4928 H   0  0  0  0  0  0
  -21.0996  -13.1267   22.2529 H   0  0  0  0  0  0
  -24.6447  -15.8355   20.5097 H   0  0  0  0  0  0
  -26.2506  -15.6247   20.0233 H   0  0  0  0  0  0
  -26.7187  -32.5432   23.1091 H   0  0  0  0  0  0
  -25.0134  -33.9698   25.0463 H   0  0  0  0  0  0
  -22.7117  -31.3035   21.3987 H   0  0  0  0  0  0
  -23.3751  -35.9633   23.3290 H   0  0  0  0  0  0
  -24.3576  -36.8922   22.2059 H   0  0  0  0  0  0
  -23.7254  -37.6504   23.6665 H   0  0  0  0  0  0
  -26.0973  -31.5593   20.6098 H   0  0  0  0  0  0
  -26.8303  -30.8312   22.0079 H   0  0  0  0  0  0
  -28.1033  -29.0078   21.1878 H   0  0  0  0  0  0
  -25.9863  -25.8986   19.0542 H   0  0  0  0  0  0
  -23.9730  -27.2841   19.0334 H   0  0  0  0  0  0
  -23.7567  -30.5922   19.4003 H   0  0  0  0  0  0
  -22.7502  -29.2495   19.8493 H   0  0  0  0  0  0
  -25.1279  -36.1905   25.0832 H   0  0  0  0  0  0
  -21.0009  -28.3259   24.1399 H   0  0  0  0  0  0
  -20.5696  -26.2278   23.3605 H   0  0  0  0  0  0
  -21.6644  -26.7417   22.1189 H   0  0  0  0  0  0
  -19.6918  -25.6292   21.1221 H   0  0  0  0  0  0
  -19.6705  -27.3207   20.6760 H   0  0  0  0  0  0
  -17.4213  -26.6713   21.4012 H   0  0  0  0  0  0
  -18.0307  -26.0029   22.8982 H   0  0  0  0  0  0
  -19.7942  -30.7255   24.2282 H   0  0  0  0  0  0
  -17.5020  -31.6258   24.5153 H   0  0  0  0  0  0
  -15.5367  -30.2968   23.7650 H   0  0  0  0  0  0
  -15.8676  -28.0779   22.7104 H   0  0  0  0  0  0
  -24.5902  -30.7131   25.7828 H   0  0  0  0  0  0
  -24.9067  -32.2931   26.4941 H   0  0  0  0  0  0
  -25.8132  -30.8873   27.0211 H   0  0  0  0  0  0
  -26.2968  -29.6692   24.1277 H   0  0  0  0  0  0
  -27.4111  -29.7281   25.4741 H   0  0  0  0  0  0
  -27.8831  -30.4255   23.9424 H   0  0  0  0  0  0
  -27.2571  -33.3610   26.2104 H   0  0  0  0  0  0
  -28.3846  -32.6984   25.0352 H   0  0  0  0  0  0
  -28.0730  -31.8490   26.5422 H   0  0  0  0  0  0
  -28.2580  -38.0109   24.7494 H   0  0  0  0  0  0
  -28.1090  -36.2638   24.6289 H   0  0  0  0  0  0
  -27.2306  -37.1439   25.8868 H   0  0  0  0  0  0
  -20.9340  -29.8743   21.6861 H   0  0  0  0  0  0
  -26.0169  -38.2839   24.1403 H   0  0  0  0  0  0
  -30.7762  -20.3166   19.3723 H   0  0  0  0  0  0
  -27.1759  -19.1687   21.4330 H   0  0  0  0  0  0
  -31.4675  -17.9668   19.3022 H   0  0  0  0  0  0
  -27.8430  -16.8215   21.3185 H   0  0  0  0  0  0
  -28.8968  -15.2780   18.0017 H   0  0  0  0  0  0
  -30.6630  -15.2029   17.8962 H   0  0  0  0  0  0
  -29.8286  -16.7240   17.8788 H   0  0  0  0  0  0
  -29.0089  -22.2267   22.7503 H   0  0  0  0  0  0
  -30.2553  -23.3714   22.2369 H   0  0  0  0  0  0
  -30.4333  -21.6713   21.8647 H   0  0  0  0  0  0
  -27.2962  -21.4163   20.6771 H   0  0  0  0  0  0
  -28.0653  -21.5524   19.1369 H   0  0  0  0  0  0
  -27.0813  -23.7339   20.5910 H   0  0  0  0  0  0
  -28.2023  -24.3978   21.7112 H   0  0  0  0  0  0
  -27.9791  -25.0351   18.7595 H   0  0  0  0  0  0
  -29.5524  -25.0531   19.4459 H   0  0  0  0  0  0
  -29.7127  -22.8516   19.9806 H   0  0  0  0  0  0
  1 25  1  0  0  0
  1 30  2  0  0  0
  1 82  1  0  0  0
  2  3  1  0  0  0
  2 25  1  0  0  0
  2 84  1  0  0  0
  2 85  1  0  0  0
  3  4  1  0  0  0
  3 86  1  0  0  0
  3 87  1  0  0  0
  4  5  1  0  0  0
  4 88  1  0  0  0
  4 89  1  0  0  0
  5  6  1  0  0  0
  5 26  1  0  0  0
  5 90  1  0  0  0
  6 25  1  0  0  0
  6 91  1  0  0  0
  6 92  1  0  0  0
  7  8  2  0  0  0
  7 26  1  0  0  0
  7 29  1  0  0  0
  8  9  1  0  0  0
  8 22  1  0  0  0
  9 10  1  0  0  0
  9 27  2  0  0  0
 10 11  2  0  0  0
 10 15  1  0  0  0
 11 12  1  0  0  0
 11 93  1  0  0  0
 12 13  2  0  0  0
 12 94  1  0  0  0
 13 14  1  0  0  0
 13 31  1  0  0  0
 14 15  2  0  0  0
 14 95  1  0  0  0
 15 96  1  0  0  0
 16 17  2  0  0  0
 16 21  1  0  0  0
 16 31  1  0  0  0
 17 18  1  0  0  0
 17 97  1  0  0  0
 18 19  2  0  0  0
 18 98  1  0  0  0
 19 20  1  0  0  0
 19 24  1  0  0  0
 20 21  2  0  0  0
 20 99  1  0  0  0
 21 23  1  0  0  0
 22 28  1  0  0  0
 22 32  2  0  0  0
 26 27  1  0  0  0
 28100  1  0  0  0
 28101  1  0  0  0
 29102  1  0  0  0
 29103  1  0  0  0
 33 34  1  0  0  0
 33 66  1  0  0  0
 33 70  2  0  0  0
 34 36  1  0  0  0
 34 59  1  0  0  0
 34104  1  0  0  0
 35 44  2  0  0  0
 35 45  1  0  0  0
 35 68  1  0  0  0
 36 56  1  0  0  0
 36105  1  0  0  0
 37 39  1  0  0  0
 37 47  1  0  0  0
 37 66  1  0  0  0
 37106  1  0  0  0
 38 43  2  0  0  0
 38 46  1  0  0  0
 38 47  1  0  0  0
 39 64  1  0  0  0
 39 67  2  0  0  0
 40 52  1  0  0  0
 40 53  2  0  0  0
 40 58  1  0  0  0
 41107  1  0  0  0
 41108  1  0  0  0
 41109  1  0  0  0
 41 48  1  0  0  0
 42 43  1  0  0  0
 42 66  1  0  0  0
 42110  1  0  0  0
 42111  1  0  0  0
 43 44  1  0  0  0
 44112  1  0  0  0
 45 46  2  0  0  0
 45113  1  0  0  0
 46114  1  0  0  0
 47115  1  0  0  0
 47116  1  0  0  0
 48 56  1  0  0  0
 48 65  1  0  0  0
 48117  1  0  0  0
 49 50  1  0  0  0
 49 53  1  0  0  0
 49 64  1  0  0  0
 49118  1  0  0  0
 50 51  1  0  0  0
 50119  1  0  0  0
 50120  1  0  0  0
 51 52  1  0  0  0
 51121  1  0  0  0
 51122  1  0  0  0
 52123  1  0  0  0
 52124  1  0  0  0
 53 54  1  0  0  0
 54 55  2  0  0  0
 54125  1  0  0  0
 55 57  1  0  0  0
 55126  1  0  0  0
 56 69  2  0  0  0
 57 58  2  0  0  0
 57127  1  0  0  0
 58128  1  0  0  0
 59 60  1  0  0  0
 59 61  1  0  0  0
 59 62  1  0  0  0
 60129  1  0  0  0
 60130  1  0  0  0
 60131  1  0  0  0
 61132  1  0  0  0
 61133  1  0  0  0
 61134  1  0  0  0
 62135  1  0  0  0
 62136  1  0  0  0
 62137  1  0  0  0
 63 65  1  0  0  0
 63138  1  0  0  0
 63139  1  0  0  0
 63140  1  0  0  0
 64141  1  0  0  0
 65142  1  0  0  0
 68 81  1  0  0  0
 71 73  2  0  0  0
 71 75  1  0  0  0
 71143  1  0  0  0
 72 74  1  0  0  0
 72 75  2  0  0  0
 72144  1  0  0  0
 73 76  1  0  0  0
 73145  1  0  0  0
 74 76  2  0  0  0
 74146  1  0  0  0
 75 79  1  0  0  0
 76 82  1  0  0  0
 77 82  1  0  0  0
 77147  1  0  0  0
 77148  1  0  0  0
 77149  1  0  0  0
 78150  1  0  0  0
 78151  1  0  0  0
 78152  1  0  0  0
 78 83  1  0  0  0
 79 83  1  0  0  0
 79153  1  0  0  0
 79154  1  0  0  0
 80 81  1  0  0  0
 80 83  1  0  0  0
 80155  1  0  0  0
 80156  1  0  0  0
 81157  1  0  0  0
 81158  1  0  0  0
 83159  1  0  0  0
M  CHG  1  83   1
M  ISO  4   1 100  68 101  81 101  82 100
M  END
> <chiral flag>
0

> <version>
0

> <s_m_source_file>
/data/baiqing/PycharmProjects/Reinvent-master-3.2/result/LINK_invent/BTK/process_docking_weight1_custom_product_contain_oxygen_bond_distance_aromatic_linkinvent_7_9_3/rearranged_h_0020.sdf

> <i_m_source_file_index>
91

> <r_mmod_Potential_Energy-OPLS-2005>
247.882232666016

> <r_mmod_Stretch_Energy-OPLS-2005>
86.8487396240234

> <r_mmod_Bend_Energy-OPLS-2005>
166.138732910156

> <r_mmod_Torsional_Energy-OPLS-2005>
345.793884277344

> <r_mmod_Improper_Torsional_Energy-OPLS-2005>
30.5632781982422

> <r_mmod_Van_der_Waal_Energy-OPLS-2005>
143.232284545898

> <r_mmod_Electrostatic_Energy-OPLS-2005>
-172.726577758789

> <r_mmod_Solvation_Energy-OPLS-2005>
-427.340942382812

> <b_mmod_Minimization_Converged-OPLS-2005>
0

> <r_mmod_RMS_Derivative-OPLS-2005>
3.28161954879761

$$$$
92
                    3D
 Structure written by MMmdl.
165173  0  0  1  0            999 V2000
  -30.7126  -14.4972   20.4082 C   0  0  0  0  0  0
  -30.4241  -12.2830   19.4357 C   0  0  0  0  0  0
  -29.4961  -12.4177   18.2076 C   0  0  0  0  0  0
  -28.0174  -12.3007   18.6269 C   0  0  0  0  0  0
  -27.6541  -13.1975   19.8408 C   0  0  2  0  0  0
  -28.7005  -13.0938   20.9738 C   0  0  0  0  0  0
  -25.2646  -13.8130   20.5671 C   0  0  0  0  0  0
  -24.1888  -13.0431   20.9233 C   0  0  0  0  0  0
  -24.6397  -11.6894   20.8715 C   0  0  0  0  0  0
  -23.9061  -10.4285   21.0378 C   0  0  0  0  0  0
  -24.3639   -9.4218   21.9167 C   0  0  0  0  0  0
  -23.6321   -8.2239   22.0745 C   0  0  0  0  0  0
  -22.4296   -8.0271   21.3549 C   0  0  0  0  0  0
  -21.9938   -9.0257   20.4639 C   0  0  0  0  0  0
  -22.7234  -10.2141   20.3032 C   0  0  0  0  0  0
  -21.6877   -6.0732   22.5253 C   0  0  0  0  0  0
  -21.4022   -6.5626   23.8180 C   0  0  0  0  0  0
  -21.3664   -5.6765   24.9156 C   0  0  0  0  0  0
  -21.6069   -4.3033   24.7199 C   0  0  0  0  0  0
  -21.8824   -3.8141   23.4318 C   0  0  0  0  0  0
  -21.9225   -4.6977   22.3374 C   0  0  0  0  0  0
  -22.7901  -13.5229   21.1866 C   0  0  0  0  0  0
  -22.1681   -4.2163   21.0956 F   0  0  0  0  0  0
  -21.5668   -3.4487   25.7702 F   0  0  0  0  0  0
  -30.0258  -13.3270   20.3859 N   0  0  0  0  0  0
  -26.3027  -12.9275   20.3248 N   0  0  0  0  0  0
  -25.9316  -11.6464   20.5752 N   0  0  0  0  0  0
  -22.0552  -12.8176   22.0405 N   0  0  0  0  0  0
  -25.4400  -15.1822   20.4088 N   0  0  0  0  0  0
  -31.9437  -14.5342   20.3516 O   0  0  0  0  0  0
  -21.6662   -6.8876   21.4209 O   0  0  0  0  0  0
  -22.3571  -14.5510   20.6683 O   0  0  0  0  0  0
  -24.6081  -31.8712   23.2118 C   0  0  0  0  0  0
  -25.9009  -32.4824   23.8393 C   0  0  1  0  0  0
  -27.2457  -27.4898   20.0891 C   0  0  0  0  0  0
  -25.5875  -33.8621   24.2342 N   0  0  0  0  0  0
  -23.3962  -30.4932   21.5520 C   0  0  2  0  0  0
  -24.8443  -28.9553   20.1241 C   0  0  0  0  0  0
  -22.7387  -29.4675   22.5007 C   0  0  0  0  0  0
  -18.0269  -28.1379   22.8495 C   0  0  0  0  0  0
  -24.1491  -36.7315   23.2642 C   0  0  0  0  0  0
  -25.9184  -30.8472   21.3623 C   0  0  0  0  0  0
  -25.9957  -29.4814   20.7225 C   0  0  0  0  0  0
  -27.2007  -28.7526   20.7070 C   0  0  0  0  0  0
  -26.0823  -26.9524   19.5027 C   0  0  0  0  0  0
  -24.8757  -27.6825   19.5214 C   0  0  0  0  0  0
  -23.6035  -29.8180   20.1686 C   0  0  0  0  0  0
  -25.4117  -36.3117   24.0338 C   0  0  1  0  0  0
  -20.5852  -28.3659   23.1324 C   0  0  2  0  0  0
  -20.6769  -26.9403   22.5416 C   0  0  0  0  0  0
  -19.5743  -26.6402   21.5210 C   0  0  0  0  0  0
  -18.1918  -26.7932   22.1628 C   0  0  0  0  0  0
  -19.1516  -28.8840   23.2906 C   0  0  0  0  0  0
  -18.9453  -30.1449   23.8909 C   0  0  0  0  0  0
  -17.6461  -30.6579   24.0574 C   0  0  0  0  0  0
  -25.9026  -34.9482   23.5142 C   0  0  0  0  0  0
  -16.5349  -29.9088   23.6329 C   0  0  0  0  0  0
  -16.7266  -28.6508   23.0338 C   0  0  0  0  0  0
  -26.4466  -31.6581   25.0699 C   0  0  0  0  0  0
  -25.3753  -31.3633   26.1461 C   0  0  0  0  0  0
  -27.0317  -30.3054   24.6037 C   0  0  0  0  0  0
  -27.6076  -32.4286   25.7430 C   0  0  0  0  0  0
  -27.5588  -37.1808   24.8469 C   0  0  0  0  0  0
  -21.4131  -29.3021   22.3737 N   0  0  0  0  0  0
  -26.4307  -37.3806   23.9406 N   0  0  0  0  0  0
  -24.6587  -31.0850   22.1002 N   0  0  0  0  0  0
  -23.4181  -28.8245   23.3051 O   0  0  0  0  0  0
  -28.4386  -26.8278   19.9976 O   0  0  0  0  0  0
  -26.5613  -34.8938   22.4724 O   0  0  0  0  0  0
  -23.5293  -32.1443   23.7551 O   0  0  0  0  0  0
  -29.1690  -18.4083   18.7372 C   0  0  0  0  0  0
  -29.5611  -19.6953   18.3389 C   0  0  0  0  0  0
  -30.0430  -18.8307   20.9703 C   0  0  0  0  0  0
  -29.4723  -17.9371   20.0360 C   0  0  0  0  0  0
  -30.1536  -20.5781   19.2611 C   0  0  0  0  0  0
  -30.3677  -20.1498   20.5905 C   0  0  0  0  0  0
  -30.5814  -15.8123   18.3941 C   0  0  0  0  0  0
  -28.6873  -22.8959   17.4321 C   0  0  0  0  0  0
  -29.1979  -16.4758   20.4080 C   0  0  0  0  0  0
  -30.5414  -21.9796   18.8208 C   0  0  0  0  0  0
  -28.5602  -24.4859   20.4606 C   0  0  0  0  0  0
  -29.5534  -24.2192   19.3186 C   0  0  0  0  0  0
  -28.6926  -25.8964   21.0354 C   0  0  0  0  0  0
  -30.0586  -15.4739   19.7345 N   0  0  0  0  0  0
  -29.3463  -22.8599   18.7632 N   0  3  1  0  0  0
  -30.9135  -20.9952   21.4980 F   0  0  0  0  0  0
  -30.3225  -11.2988   19.8975 H   0  0  0  0  0  0
  -31.4738  -12.3652   19.1452 H   0  0  0  0  0  0
  -29.7263  -11.6457   17.4718 H   0  0  0  0  0  0
  -29.6638  -13.3692   17.7021 H   0  0  0  0  0  0
  -27.8266  -11.2551   18.8712 H   0  0  0  0  0  0
  -27.3658  -12.5246   17.7833 H   0  0  0  0  0  0
  -27.6678  -14.2143   19.4552 H   0  0  0  0  0  0
  -28.4846  -13.8193   21.7624 H   0  0  0  0  0  0
  -28.6703  -12.1119   21.4481 H   0  0  0  0  0  0
  -25.2814   -9.5682   22.4715 H   0  0  0  0  0  0
  -24.0061   -7.4625   22.7428 H   0  0  0  0  0  0
  -21.0898   -8.8758   19.8912 H   0  0  0  0  0  0
  -22.3718  -10.9695   19.6118 H   0  0  0  0  0  0
  -21.1951   -7.6121   23.9666 H   0  0  0  0  0  0
  -21.1504   -6.0503   25.9055 H   0  0  0  0  0  0
  -22.0605   -2.7610   23.2784 H   0  0  0  0  0  0
  -22.4223  -11.9867   22.4809 H   0  0  0  0  0  0
  -21.1165  -13.1146   22.2596 H   0  0  0  0  0  0
  -24.6716  -15.8333   20.5211 H   0  0  0  0  0  0
  -26.2852  -15.6194   20.0671 H   0  0  0  0  0  0
  -26.7086  -32.5580   23.1158 H   0  0  0  0  0  0
  -24.9988  -33.9804   25.0454 H   0  0  0  0  0  0
  -22.6816  -31.3066   21.4114 H   0  0  0  0  0  0
  -23.3748  -35.9647   23.3304 H   0  0  0  0  0  0
  -24.3581  -36.8944   22.2059 H   0  0  0  0  0  0
  -23.7252  -37.6529   23.6648 H   0  0  0  0  0  0
  -26.0260  -31.6070   20.5864 H   0  0  0  0  0  0
  -26.8114  -30.9068   21.9741 H   0  0  0  0  0  0
  -28.1025  -29.1606   21.1439 H   0  0  0  0  0  0
  -26.1142  -25.9865   19.0172 H   0  0  0  0  0  0
  -23.9892  -27.2683   19.0602 H   0  0  0  0  0  0
  -23.7123  -30.5909   19.4062 H   0  0  0  0  0  0
  -22.7289  -29.2341   19.8754 H   0  0  0  0  0  0
  -25.1283  -36.1986   25.0826 H   0  0  0  0  0  0
  -20.9950  -28.3230   24.1440 H   0  0  0  0  0  0
  -20.5691  -26.2266   23.3601 H   0  0  0  0  0  0
  -21.6637  -26.7464   22.1193 H   0  0  0  0  0  0
  -19.6909  -25.6323   21.1208 H   0  0  0  0  0  0
  -19.6672  -27.3242   20.6765 H   0  0  0  0  0  0
  -17.4199  -26.6687   21.4021 H   0  0  0  0  0  0
  -18.0310  -26.0043   22.9001 H   0  0  0  0  0  0
  -19.7925  -30.7260   24.2271 H   0  0  0  0  0  0
  -17.5013  -31.6252   24.5181 H   0  0  0  0  0  0
  -15.5346  -30.3008   23.7628 H   0  0  0  0  0  0
  -15.8668  -28.0851   22.7028 H   0  0  0  0  0  0
  -24.5925  -30.6995   25.7767 H   0  0  0  0  0  0
  -24.8929  -32.2763   26.4970 H   0  0  0  0  0  0
  -25.8131  -30.8745   27.0177 H   0  0  0  0  0  0
  -26.2841  -29.6760   24.1215 H   0  0  0  0  0  0
  -27.4268  -29.7343   25.4443 H   0  0  0  0  0  0
  -27.8569  -30.4405   23.9046 H   0  0  0  0  0  0
  -27.2733  -33.3584   26.2047 H   0  0  0  0  0  0
  -28.3836  -32.6871   25.0200 H   0  0  0  0  0  0
  -28.0791  -31.8378   26.5297 H   0  0  0  0  0  0
  -28.2616  -38.0102   24.7536 H   0  0  0  0  0  0
  -28.1084  -36.2645   24.6257 H   0  0  0  0  0  0
  -27.2301  -37.1404   25.8875 H   0  0  0  0  0  0
  -20.9303  -29.8681   21.6903 H   0  0  0  0  0  0
  -26.0190  -38.2883   24.1430 H   0  0  0  0  0  0
  -28.6906  -17.7675   18.0091 H   0  0  0  0  0  0
  -29.4078  -19.9928   17.3119 H   0  0  0  0  0  0
  -30.2450  -18.5115   21.9826 H   0  0  0  0  0  0
  -29.7631  -15.8931   17.6773 H   0  0  0  0  0  0
  -31.2595  -15.0544   17.9996 H   0  0  0  0  0  0
  -31.1619  -16.7350   18.3984 H   0  0  0  0  0  0
  -28.3465  -21.9132   17.1107 H   0  0  0  0  0  0
  -29.3606  -23.2898   16.6707 H   0  0  0  0  0  0
  -27.8056  -23.5373   17.4587 H   0  0  0  0  0  0
  -29.2595  -16.3657   21.4933 H   0  0  0  0  0  0
  -28.1574  -16.2820   20.1544 H   0  0  0  0  0  0
  -31.0522  -21.9524   17.8560 H   0  0  0  0  0  0
  -31.2779  -22.3499   19.5337 H   0  0  0  0  0  0
  -28.7247  -23.7652   21.2628 H   0  0  0  0  0  0
  -27.5401  -24.3346   20.1076 H   0  0  0  0  0  0
  -30.5697  -24.3639   19.6839 H   0  0  0  0  0  0
  -29.4284  -24.9700   18.5353 H   0  0  0  0  0  0
  -29.7062  -26.0576   21.4047 H   0  0  0  0  0  0
  -28.0220  -26.0225   21.8878 H   0  0  0  0  0  0
  -28.6864  -22.4231   19.3882 H   0  0  0  0  0  0
  1 25  1  0  0  0
  1 30  2  0  0  0
  1 84  1  0  0  0
  2  3  1  0  0  0
  2 25  1  0  0  0
  2 87  1  0  0  0
  2 88  1  0  0  0
  3  4  1  0  0  0
  3 89  1  0  0  0
  3 90  1  0  0  0
  4  5  1  0  0  0
  4 91  1  0  0  0
  4 92  1  0  0  0
  5  6  1  0  0  0
  5 26  1  0  0  0
  5 93  1  0  0  0
  6 25  1  0  0  0
  6 94  1  0  0  0
  6 95  1  0  0  0
  7  8  2  0  0  0
  7 26  1  0  0  0
  7 29  1  0  0  0
  8  9  1  0  0  0
  8 22  1  0  0  0
  9 10  1  0  0  0
  9 27  2  0  0  0
 10 11  2  0  0  0
 10 15  1  0  0  0
 11 12  1  0  0  0
 11 96  1  0  0  0
 12 13  2  0  0  0
 12 97  1  0  0  0
 13 14  1  0  0  0
 13 31  1  0  0  0
 14 15  2  0  0  0
 14 98  1  0  0  0
 15 99  1  0  0  0
 16 17  2  0  0  0
 16 21  1  0  0  0
 16 31  1  0  0  0
 17 18  1  0  0  0
 17100  1  0  0  0
 18 19  2  0  0  0
 18101  1  0  0  0
 19 20  1  0  0  0
 19 24  1  0  0  0
 20 21  2  0  0  0
 20102  1  0  0  0
 21 23  1  0  0  0
 22 28  1  0  0  0
 22 32  2  0  0  0
 26 27  1  0  0  0
 28103  1  0  0  0
 28104  1  0  0  0
 29105  1  0  0  0
 29106  1  0  0  0
 33 34  1  0  0  0
 33 66  1  0  0  0
 33 70  2  0  0  0
 34 36  1  0  0  0
 34 59  1  0  0  0
 34107  1  0  0  0
 35 44  2  0  0  0
 35 45  1  0  0  0
 35 68  1  0  0  0
 36 56  1  0  0  0
 36108  1  0  0  0
 37 39  1  0  0  0
 37 47  1  0  0  0
 37 66  1  0  0  0
 37109  1  0  0  0
 38 43  2  0  0  0
 38 46  1  0  0  0
 38 47  1  0  0  0
 39 64  1  0  0  0
 39 67  2  0  0  0
 40 52  1  0  0  0
 40 53  2  0  0  0
 40 58  1  0  0  0
 41110  1  0  0  0
 41111  1  0  0  0
 41112  1  0  0  0
 41 48  1  0  0  0
 42 43  1  0  0  0
 42 66  1  0  0  0
 42113  1  0  0  0
 42114  1  0  0  0
 43 44  1  0  0  0
 44115  1  0  0  0
 45 46  2  0  0  0
 45116  1  0  0  0
 46117  1  0  0  0
 47118  1  0  0  0
 47119  1  0  0  0
 48 56  1  0  0  0
 48 65  1  0  0  0
 48120  1  0  0  0
 49 50  1  0  0  0
 49 53  1  0  0  0
 49 64  1  0  0  0
 49121  1  0  0  0
 50 51  1  0  0  0
 50122  1  0  0  0
 50123  1  0  0  0
 51 52  1  0  0  0
 51124  1  0  0  0
 51125  1  0  0  0
 52126  1  0  0  0
 52127  1  0  0  0
 53 54  1  0  0  0
 54 55  2  0  0  0
 54128  1  0  0  0
 55 57  1  0  0  0
 55129  1  0  0  0
 56 69  2  0  0  0
 57 58  2  0  0  0
 57130  1  0  0  0
 58131  1  0  0  0
 59 60  1  0  0  0
 59 61  1  0  0  0
 59 62  1  0  0  0
 60132  1  0  0  0
 60133  1  0  0  0
 60134  1  0  0  0
 61135  1  0  0  0
 61136  1  0  0  0
 61137  1  0  0  0
 62138  1  0  0  0
 62139  1  0  0  0
 62140  1  0  0  0
 63 65  1  0  0  0
 63141  1  0  0  0
 63142  1  0  0  0
 63143  1  0  0  0
 64144  1  0  0  0
 65145  1  0  0  0
 68 83  1  0  0  0
 71 72  2  0  0  0
 71 74  1  0  0  0
 71146  1  0  0  0
 72 75  1  0  0  0
 72147  1  0  0  0
 73 74  2  0  0  0
 73 76  1  0  0  0
 73148  1  0  0  0
 74 79  1  0  0  0
 75 76  2  0  0  0
 75 80  1  0  0  0
 76 86  1  0  0  0
 77 84  1  0  0  0
 77149  1  0  0  0
 77150  1  0  0  0
 77151  1  0  0  0
 78152  1  0  0  0
 78153  1  0  0  0
 78154  1  0  0  0
 78 85  1  0  0  0
 79 84  1  0  0  0
 79155  1  0  0  0
 79156  1  0  0  0
 80 85  1  0  0  0
 80157  1  0  0  0
 80158  1  0  0  0
 81 82  1  0  0  0
 81 83  1  0  0  0
 81159  1  0  0  0
 81160  1  0  0  0
 82 85  1  0  0  0
 82161  1  0  0  0
 82162  1  0  0  0
 83163  1  0  0  0
 83164  1  0  0  0
 85165  1  0  0  0
M  CHG  1  85   1
M  ISO  4   1 100  68 101  83 101  84 100
M  END
> <chiral flag>
0

> <version>
0

> <s_m_source_file>
/data/baiqing/PycharmProjects/Reinvent-master-3.2/result/LINK_invent/BTK/process_docking_weight1_custom_product_contain_oxygen_bond_distance_aromatic_linkinvent_7_9_3/rearranged_h_0020.sdf

> <i_m_source_file_index>
92

> <r_mmod_Potential_Energy-OPLS-2005>
19.3048477172852

> <r_mmod_Stretch_Energy-OPLS-2005>
34.0043716430664

> <r_mmod_Bend_Energy-OPLS-2005>
93.1738433837891

> <r_mmod_Torsional_Energy-OPLS-2005>
328.671234130859

> <r_mmod_Improper_Torsional_Energy-OPLS-2005>
30.9154891967773

> <r_mmod_Van_der_Waal_Energy-OPLS-2005>
160.376327514648

> <r_mmod_Electrostatic_Energy-OPLS-2005>
-242.605209350586

> <r_mmod_Solvation_Energy-OPLS-2005>
-420.481781005859

> <b_mmod_Minimization_Converged-OPLS-2005>
0

> <r_mmod_RMS_Derivative-OPLS-2005>
4.50510787963867

$$$$
93
                    3D
 Structure written by MMmdl.
163172  0  0  1  0            999 V2000
  -30.6412  -14.6958   20.3713 C   0  0  0  0  0  0
  -30.4413  -12.3937   19.4607 C   0  0  0  0  0  0
  -29.5017  -12.3635   18.2329 C   0  0  0  0  0  0
  -28.0211  -12.2829   18.6553 C   0  0  0  0  0  0
  -27.6421  -13.2143   19.8402 C   0  0  2  0  0  0
  -28.7005  -13.1785   20.9618 C   0  0  0  0  0  0
  -25.2559  -13.8177   20.5733 C   0  0  0  0  0  0
  -24.1817  -13.0452   20.9219 C   0  0  0  0  0  0
  -24.6381  -11.6915   20.8793 C   0  0  0  0  0  0
  -23.9056  -10.4297   21.0440 C   0  0  0  0  0  0
  -24.3617   -9.4205   21.9205 C   0  0  0  0  0  0
  -23.6296   -8.2237   22.0763 C   0  0  0  0  0  0
  -22.4279   -8.0281   21.3548 C   0  0  0  0  0  0
  -21.9911   -9.0259   20.4652 C   0  0  0  0  0  0
  -22.7238  -10.2140   20.3071 C   0  0  0  0  0  0
  -21.6850   -6.0743   22.5282 C   0  0  0  0  0  0
  -21.4015   -6.5648   23.8216 C   0  0  0  0  0  0
  -21.3657   -5.6799   24.9177 C   0  0  0  0  0  0
  -21.6039   -4.3062   24.7228 C   0  0  0  0  0  0
  -21.8821   -3.8156   23.4348 C   0  0  0  0  0  0
  -21.9192   -4.6972   22.3405 C   0  0  0  0  0  0
  -22.7837  -13.5248   21.1860 C   0  0  0  0  0  0
  -22.1661   -4.2161   21.0982 F   0  0  0  0  0  0
  -21.5625   -3.4541   25.7738 F   0  0  0  0  0  0
  -29.9965  -13.4849   20.3469 N   0  0  0  0  0  0
  -26.2969  -12.9344   20.3341 N   0  0  0  0  0  0
  -25.9311  -11.6509   20.5847 N   0  0  0  0  0  0
  -22.0468  -12.8240   22.0403 N   0  0  0  0  0  0
  -25.4309  -15.1898   20.4159 N   0  0  0  0  0  0
  -31.8706  -14.7497   20.2885 O   0  0  0  0  0  0
  -21.6638   -6.8882   21.4242 O   0  0  0  0  0  0
  -22.3526  -14.5550   20.6695 O   0  0  0  0  0  0
  -24.6252  -31.8615   23.2042 C   0  0  0  0  0  0
  -25.9108  -32.4782   23.8364 C   0  0  1  0  0  0
  -27.2178  -27.3190   20.1116 C   0  0  0  0  0  0
  -25.5936  -33.8588   24.2291 N   0  0  0  0  0  0
  -23.4172  -30.4873   21.5479 C   0  0  2  0  0  0
  -24.8602  -28.9455   20.1105 C   0  0  0  0  0  0
  -22.7467  -29.4632   22.4945 C   0  0  0  0  0  0
  -18.0281  -28.1381   22.8483 C   0  0  0  0  0  0
  -24.1492  -36.7296   23.2640 C   0  0  0  0  0  0
  -25.9590  -30.7902   21.3769 C   0  0  0  0  0  0
  -26.0286  -29.4186   20.7185 C   0  0  0  0  0  0
  -27.2061  -28.6152   20.7135 C   0  0  0  0  0  0
  -26.0266  -26.9091   19.4634 C   0  0  0  0  0  0
  -24.8615  -27.6961   19.4766 C   0  0  0  0  0  0
  -23.6298  -29.8265   20.1616 C   0  0  0  0  0  0
  -25.4118  -36.3090   24.0328 C   0  0  1  0  0  0
  -20.5880  -28.3681   23.1282 C   0  0  2  0  0  0
  -20.6766  -26.9409   22.5405 C   0  0  0  0  0  0
  -19.5743  -26.6382   21.5209 C   0  0  0  0  0  0
  -18.1922  -26.7922   22.1622 C   0  0  0  0  0  0
  -19.1534  -28.8847   23.2874 C   0  0  0  0  0  0
  -18.9464  -30.1450   23.8889 C   0  0  0  0  0  0
  -17.6465  -30.6582   24.0564 C   0  0  0  0  0  0
  -25.9058  -34.9457   23.5108 C   0  0  0  0  0  0
  -16.5353  -29.9085   23.6327 C   0  0  0  0  0  0
  -16.7269  -28.6503   23.0345 C   0  0  0  0  0  0
  -26.4490  -31.6587   25.0731 C   0  0  0  0  0  0
  -25.3721  -31.3732   26.1457 C   0  0  0  0  0  0
  -27.0328  -30.3008   24.6190 C   0  0  0  0  0  0
  -27.6043  -32.4327   25.7503 C   0  0  0  0  0  0
  -27.5582  -37.1808   24.8468 C   0  0  0  0  0  0
  -21.4181  -29.3038   22.3680 N   0  0  0  0  0  0
  -26.4299  -37.3784   23.9405 N   0  0  0  0  0  0
  -24.6858  -31.0632   22.0994 N   0  0  0  0  0  0
  -23.4198  -28.8163   23.3009 O   0  0  0  0  0  0
  -28.3573  -26.4994   20.1761 O   0  0  0  0  0  0
  -26.5621  -34.8921   22.4672 O   0  0  0  0  0  0
  -23.5414  -32.1424   23.7365 O   0  0  0  0  0  0
  -28.7117  -19.3792   19.9326 C   0  0  0  0  0  0
  -28.7640  -17.9690   19.7413 C   0  0  0  0  0  0
  -30.6602  -17.7972   21.2065 C   0  0  0  0  0  0
  -29.6507  -20.0487   20.7548 C   0  0  0  0  0  0
  -29.7703  -17.1372   20.3185 C   0  0  0  0  0  0
  -30.6007  -19.2115   21.4125 C   0  0  0  0  0  0
  -27.5282  -22.9466   22.8085 C   0  0  0  0  0  0
  -27.9668  -24.3079   22.2797 C   0  0  0  0  0  0
  -27.4061  -22.1108   21.5393 C   0  0  0  0  0  0
  -28.7604  -24.0198   20.9856 C   0  0  2  0  0  0
  -29.8714  -15.7068   18.3550 C   0  0  0  0  0  0
  -29.7525  -21.6205   20.8831 C   0  0  0  0  0  0
  -28.3150  -25.0481   19.8563 C   0  0  0  0  0  0
  -29.9220  -15.7534   19.8326 N   0  0  0  0  0  0
  -28.5450  -22.5266   20.6882 N   0  3  1  0  0  0
  -31.5238  -19.7828   22.2221 F   0  0  0  0  0  0
  -31.4754  -12.5243   19.1367 H   0  0  0  0  0  0
  -30.4101  -11.4435   19.9956 H   0  0  0  0  0  0
  -29.7466  -11.4975   17.6160 H   0  0  0  0  0  0
  -29.6587  -13.2148   17.5793 H   0  0  0  0  0  0
  -27.8385  -11.2461   18.9383 H   0  0  0  0  0  0
  -27.3735  -12.4755   17.7995 H   0  0  0  0  0  0
  -27.6214  -14.2260   19.4414 H   0  0  0  0  0  0
  -28.7255  -12.2035   21.4487 H   0  0  0  0  0  0
  -28.4624  -13.9120   21.7343 H   0  0  0  0  0  0
  -25.2760   -9.5683   22.4785 H   0  0  0  0  0  0
  -24.0011   -7.4623   22.7477 H   0  0  0  0  0  0
  -21.0842   -8.8775   19.8950 H   0  0  0  0  0  0
  -22.3700  -10.9685   19.6185 H   0  0  0  0  0  0
  -21.2009   -7.6156   23.9725 H   0  0  0  0  0  0
  -21.1474   -6.0527   25.9081 H   0  0  0  0  0  0
  -22.0602   -2.7619   23.2843 H   0  0  0  0  0  0
  -22.4068  -11.9908   22.4816 H   0  0  0  0  0  0
  -21.1082  -13.1264   22.2587 H   0  0  0  0  0  0
  -24.6741  -15.8524   20.5429 H   0  0  0  0  0  0
  -26.3004  -15.6267   20.1389 H   0  0  0  0  0  0
  -26.7174  -32.5449   23.1108 H   0  0  0  0  0  0
  -25.0075  -33.9743   25.0429 H   0  0  0  0  0  0
  -22.7099  -31.3070   21.4071 H   0  0  0  0  0  0
  -23.3755  -35.9630   23.3311 H   0  0  0  0  0  0
  -24.3586  -36.8914   22.2056 H   0  0  0  0  0  0
  -23.7246  -37.6502   23.6652 H   0  0  0  0  0  0
  -26.0955  -31.5544   20.6099 H   0  0  0  0  0  0
  -26.8384  -30.8335   22.0082 H   0  0  0  0  0  0
  -28.1016  -28.9756   21.1995 H   0  0  0  0  0  0
  -25.9404  -25.9816   18.9233 H   0  0  0  0  0  0
  -23.9696  -27.3318   18.9846 H   0  0  0  0  0  0
  -23.7500  -30.6056   19.4079 H   0  0  0  0  0  0
  -22.7483  -29.2593   19.8579 H   0  0  0  0  0  0
  -25.1298  -36.1945   25.0821 H   0  0  0  0  0  0
  -20.9967  -28.3256   24.1407 H   0  0  0  0  0  0
  -20.5663  -26.2301   23.3606 H   0  0  0  0  0  0
  -21.6635  -26.7436   22.1207 H   0  0  0  0  0  0
  -19.6911  -25.6296   21.1235 H   0  0  0  0  0  0
  -19.6679  -27.3193   20.6738 H   0  0  0  0  0  0
  -17.4191  -26.6663   21.4024 H   0  0  0  0  0  0
  -18.0323  -26.0071   22.9025 H   0  0  0  0  0  0
  -19.7944  -30.7263   24.2257 H   0  0  0  0  0  0
  -17.5023  -31.6261   24.5168 H   0  0  0  0  0  0
  -15.5352  -30.2985   23.7660 H   0  0  0  0  0  0
  -15.8667  -28.0825   22.7057 H   0  0  0  0  0  0
  -24.5884  -30.7096   25.7792 H   0  0  0  0  0  0
  -24.8921  -32.2900   26.4890 H   0  0  0  0  0  0
  -25.8042  -30.8907   27.0232 H   0  0  0  0  0  0
  -26.2903  -29.6766   24.1205 H   0  0  0  0  0  0
  -27.4010  -29.7261   25.4699 H   0  0  0  0  0  0
  -27.8780  -30.4296   23.9425 H   0  0  0  0  0  0
  -27.2644  -33.3626   26.2080 H   0  0  0  0  0  0
  -28.3850  -32.6900   25.0329 H   0  0  0  0  0  0
  -28.0713  -31.8456   26.5426 H   0  0  0  0  0  0
  -28.2602  -38.0102   24.7507 H   0  0  0  0  0  0
  -28.1070  -36.2634   24.6294 H   0  0  0  0  0  0
  -27.2296  -37.1460   25.8869 H   0  0  0  0  0  0
  -20.9349  -29.8795   21.6929 H   0  0  0  0  0  0
  -26.0182  -38.2862   24.1397 H   0  0  0  0  0  0
  -27.9595  -19.9430   19.3997 H   0  0  0  0  0  0
  -28.0438  -17.5324   19.0627 H   0  0  0  0  0  0
  -31.4592  -17.2439   21.6787 H   0  0  0  0  0  0
  -26.5986  -22.9891   23.3776 H   0  0  0  0  0  0
  -28.2989  -22.5277   23.4573 H   0  0  0  0  0  0
  -28.5508  -24.8679   23.0109 H   0  0  0  0  0  0
  -27.0786  -24.9030   22.0598 H   0  0  0  0  0  0
  -26.4776  -22.3662   21.0260 H   0  0  0  0  0  0
  -27.3655  -21.0426   21.7504 H   0  0  0  0  0  0
  -29.8203  -24.1831   21.1850 H   0  0  0  0  0  0
  -28.9050  -15.3482   18.0040 H   0  0  0  0  0  0
  -30.6552  -15.0837   17.9211 H   0  0  0  0  0  0
  -30.0350  -16.6824   17.8962 H   0  0  0  0  0  0
  -30.5266  -21.9465   20.1884 H   0  0  0  0  0  0
  -30.1513  -21.8294   21.8766 H   0  0  0  0  0  0
  -27.3412  -24.7074   19.5274 H   0  0  0  0  0  0
  -28.9646  -24.9061   18.9924 H   0  0  0  0  0  0
  -28.2685  -22.4173   19.7226 H   0  0  0  0  0  0
  1 25  1  0  0  0
  1 30  2  0  0  0
  1 84  1  0  0  0
  2  3  1  0  0  0
  2 25  1  0  0  0
  2 87  1  0  0  0
  2 88  1  0  0  0
  3  4  1  0  0  0
  3 89  1  0  0  0
  3 90  1  0  0  0
  4  5  1  0  0  0
  4 91  1  0  0  0
  4 92  1  0  0  0
  5  6  1  0  0  0
  5 26  1  0  0  0
  5 93  1  0  0  0
  6 25  1  0  0  0
  6 94  1  0  0  0
  6 95  1  0  0  0
  7  8  2  0  0  0
  7 26  1  0  0  0
  7 29  1  0  0  0
  8  9  1  0  0  0
  8 22  1  0  0  0
  9 10  1  0  0  0
  9 27  2  0  0  0
 10 11  2  0  0  0
 10 15  1  0  0  0
 11 12  1  0  0  0
 11 96  1  0  0  0
 12 13  2  0  0  0
 12 97  1  0  0  0
 13 14  1  0  0  0
 13 31  1  0  0  0
 14 15  2  0  0  0
 14 98  1  0  0  0
 15 99  1  0  0  0
 16 17  2  0  0  0
 16 21  1  0  0  0
 16 31  1  0  0  0
 17 18  1  0  0  0
 17100  1  0  0  0
 18 19  2  0  0  0
 18101  1  0  0  0
 19 20  1  0  0  0
 19 24  1  0  0  0
 20 21  2  0  0  0
 20102  1  0  0  0
 21 23  1  0  0  0
 22 28  1  0  0  0
 22 32  2  0  0  0
 26 27  1  0  0  0
 28103  1  0  0  0
 28104  1  0  0  0
 29105  1  0  0  0
 29106  1  0  0  0
 33 34  1  0  0  0
 33 66  1  0  0  0
 33 70  2  0  0  0
 34 36  1  0  0  0
 34 59  1  0  0  0
 34107  1  0  0  0
 35 44  2  0  0  0
 35 45  1  0  0  0
 35 68  1  0  0  0
 36 56  1  0  0  0
 36108  1  0  0  0
 37 39  1  0  0  0
 37 47  1  0  0  0
 37 66  1  0  0  0
 37109  1  0  0  0
 38 43  2  0  0  0
 38 46  1  0  0  0
 38 47  1  0  0  0
 39 64  1  0  0  0
 39 67  2  0  0  0
 40 52  1  0  0  0
 40 53  2  0  0  0
 40 58  1  0  0  0
 41110  1  0  0  0
 41111  1  0  0  0
 41112  1  0  0  0
 41 48  1  0  0  0
 42 43  1  0  0  0
 42 66  1  0  0  0
 42113  1  0  0  0
 42114  1  0  0  0
 43 44  1  0  0  0
 44115  1  0  0  0
 45 46  2  0  0  0
 45116  1  0  0  0
 46117  1  0  0  0
 47118  1  0  0  0
 47119  1  0  0  0
 48 56  1  0  0  0
 48 65  1  0  0  0
 48120  1  0  0  0
 49 50  1  0  0  0
 49 53  1  0  0  0
 49 64  1  0  0  0
 49121  1  0  0  0
 50 51  1  0  0  0
 50122  1  0  0  0
 50123  1  0  0  0
 51 52  1  0  0  0
 51124  1  0  0  0
 51125  1  0  0  0
 52126  1  0  0  0
 52127  1  0  0  0
 53 54  1  0  0  0
 54 55  2  0  0  0
 54128  1  0  0  0
 55 57  1  0  0  0
 55129  1  0  0  0
 56 69  2  0  0  0
 57 58  2  0  0  0
 57130  1  0  0  0
 58131  1  0  0  0
 59 60  1  0  0  0
 59 61  1  0  0  0
 59 62  1  0  0  0
 60132  1  0  0  0
 60133  1  0  0  0
 60134  1  0  0  0
 61135  1  0  0  0
 61136  1  0  0  0
 61137  1  0  0  0
 62138  1  0  0  0
 62139  1  0  0  0
 62140  1  0  0  0
 63 65  1  0  0  0
 63141  1  0  0  0
 63142  1  0  0  0
 63143  1  0  0  0
 64144  1  0  0  0
 65145  1  0  0  0
 68 83  1  0  0  0
 71 72  2  0  0  0
 71 74  1  0  0  0
 71146  1  0  0  0
 72 75  1  0  0  0
 72147  1  0  0  0
 73 75  2  0  0  0
 73 76  1  0  0  0
 73148  1  0  0  0
 74 76  2  0  0  0
 74 82  1  0  0  0
 75 84  1  0  0  0
 76 86  1  0  0  0
 77 78  1  0  0  0
 77 79  1  0  0  0
 77149  1  0  0  0
 77150  1  0  0  0
 78 80  1  0  0  0
 78151  1  0  0  0
 78152  1  0  0  0
 79 85  1  0  0  0
 79153  1  0  0  0
 79154  1  0  0  0
 80 83  1  0  0  0
 80 85  1  0  0  0
 80155  1  0  0  0
 81 84  1  0  0  0
 81156  1  0  0  0
 81157  1  0  0  0
 81158  1  0  0  0
 82159  1  0  0  0
 82160  1  0  0  0
 82 85  1  0  0  0
 83161  1  0  0  0
 83162  1  0  0  0
 85163  1  0  0  0
M  CHG  1  85   1
M  ISO  4   1 100  68 101  83 101  84 100
M  END
> <chiral flag>
0

> <version>
0

> <s_m_source_file>
/data/baiqing/PycharmProjects/Reinvent-master-3.2/result/LINK_invent/BTK/process_docking_weight1_custom_product_contain_oxygen_bond_distance_aromatic_linkinvent_7_9_3/rearranged_h_0020.sdf

> <i_m_source_file_index>
93

> <r_mmod_Potential_Energy-OPLS-2005>
319.413970947266

> <r_mmod_Stretch_Energy-OPLS-2005>
88.928840637207

> <r_mmod_Bend_Energy-OPLS-2005>
182.652526855469

> <r_mmod_Torsional_Energy-OPLS-2005>
377.273254394531

> <r_mmod_Improper_Torsional_Energy-OPLS-2005>
26.9459533691406

> <r_mmod_Van_der_Waal_Energy-OPLS-2005>
151.028076171875

> <r_mmod_Electrostatic_Energy-OPLS-2005>
-160.018966674805

> <r_mmod_Solvation_Energy-OPLS-2005>
-421.357604980469

> <b_mmod_Minimization_Converged-OPLS-2005>
0

> <r_mmod_RMS_Derivative-OPLS-2005>
1.25289273262024

$$$$
94
                    3D
 Structure written by MMmdl.
158167  0  0  1  0            999 V2000
  -30.6548  -14.6343   20.5119 C   0  0  0  0  0  0
  -30.4370  -12.3854   19.4701 C   0  0  0  0  0  0
  -29.5184  -12.5008   18.2341 C   0  0  0  0  0  0
  -28.0368  -12.3513   18.6353 C   0  0  0  0  0  0
  -27.6563  -13.2228   19.8626 C   0  0  2  0  0  0
  -28.6991  -13.0916   20.9974 C   0  0  0  0  0  0
  -25.2569  -13.8179   20.5686 C   0  0  0  0  0  0
  -24.1839  -13.0442   20.9186 C   0  0  0  0  0  0
  -24.6409  -11.6913   20.8717 C   0  0  0  0  0  0
  -23.9063  -10.4297   21.0385 C   0  0  0  0  0  0
  -24.3613   -9.4213   21.9160 C   0  0  0  0  0  0
  -23.6288   -8.2249   22.0739 C   0  0  0  0  0  0
  -22.4262   -8.0286   21.3547 C   0  0  0  0  0  0
  -21.9898   -9.0262   20.4652 C   0  0  0  0  0  0
  -22.7225  -10.2143   20.3047 C   0  0  0  0  0  0
  -21.6862   -6.0728   22.5267 C   0  0  0  0  0  0
  -21.4028   -6.5629   23.8203 C   0  0  0  0  0  0
  -21.3663   -5.6781   24.9166 C   0  0  0  0  0  0
  -21.6041   -4.3042   24.7219 C   0  0  0  0  0  0
  -21.8818   -3.8139   23.4337 C   0  0  0  0  0  0
  -21.9200   -4.6956   22.3391 C   0  0  0  0  0  0
  -22.7857  -13.5240   21.1835 C   0  0  0  0  0  0
  -22.1665   -4.2137   21.0973 F   0  0  0  0  0  0
  -21.5622   -3.4530   25.7733 F   0  0  0  0  0  0
  -30.0196  -13.4198   20.4375 N   0  0  0  0  0  0
  -26.3009  -12.9376   20.3307 N   0  0  0  0  0  0
  -25.9338  -11.6517   20.5727 N   0  0  0  0  0  0
  -22.0509  -12.8262   22.0417 N   0  0  0  0  0  0
  -25.4271  -15.1898   20.4092 N   0  0  0  0  0  0
  -31.8140  -14.7683   20.1113 O   0  0  0  0  0  0
  -21.6641   -6.8874   21.4232 O   0  0  0  0  0  0
  -22.3539  -14.5534   20.6659 O   0  0  0  0  0  0
  -24.6246  -31.8621   23.2044 C   0  0  0  0  0  0
  -25.9108  -32.4789   23.8353 C   0  0  1  0  0  0
  -27.2177  -27.3349   20.1043 C   0  0  0  0  0  0
  -25.5922  -33.8589   24.2280 N   0  0  0  0  0  0
  -23.4147  -30.4874   21.5502 C   0  0  2  0  0  0
  -24.8550  -28.9441   20.1112 C   0  0  0  0  0  0
  -22.7459  -29.4636   22.4976 C   0  0  0  0  0  0
  -18.0288  -28.1380   22.8482 C   0  0  0  0  0  0
  -24.1488  -36.7304   23.2633 C   0  0  0  0  0  0
  -25.9545  -30.7965   21.3704 C   0  0  0  0  0  0
  -26.0258  -29.4260   20.7099 C   0  0  0  0  0  0
  -27.2104  -28.6345   20.6938 C   0  0  0  0  0  0
  -26.0206  -26.8981   19.4907 C   0  0  0  0  0  0
  -24.8534  -27.6838   19.4946 C   0  0  0  0  0  0
  -23.6231  -29.8244   20.1642 C   0  0  0  0  0  0
  -25.4110  -36.3093   24.0327 C   0  0  1  0  0  0
  -20.5884  -28.3680   23.1303 C   0  0  2  0  0  0
  -20.6773  -26.9399   22.5439 C   0  0  0  0  0  0
  -19.5764  -26.6377   21.5221 C   0  0  0  0  0  0
  -18.1933  -26.7932   22.1609 C   0  0  0  0  0  0
  -19.1535  -28.8848   23.2887 C   0  0  0  0  0  0
  -18.9463  -30.1455   23.8895 C   0  0  0  0  0  0
  -17.6460  -30.6584   24.0560 C   0  0  0  0  0  0
  -25.9045  -34.9462   23.5102 C   0  0  0  0  0  0
  -16.5352  -29.9077   23.6324 C   0  0  0  0  0  0
  -16.7275  -28.6498   23.0338 C   0  0  0  0  0  0
  -26.4468  -31.6598   25.0729 C   0  0  0  0  0  0
  -25.3696  -31.3811   26.1471 C   0  0  0  0  0  0
  -27.0245  -30.2993   24.6193 C   0  0  0  0  0  0
  -27.6066  -32.4301   25.7464 C   0  0  0  0  0  0
  -27.5595  -37.1787   24.8448 C   0  0  0  0  0  0
  -21.4181  -29.3029   22.3704 N   0  0  0  0  0  0
  -26.4290  -37.3788   23.9411 N   0  0  0  0  0  0
  -24.6844  -31.0648   22.0982 N   0  0  0  0  0  0
  -23.4194  -28.8176   23.3050 O   0  0  0  0  0  0
  -28.3472  -26.5049   20.1448 O   0  0  0  0  0  0
  -26.5623  -34.8927   22.4675 O   0  0  0  0  0  0
  -23.5423  -32.1414   23.7393 O   0  0  0  0  0  0
  -29.0054  -19.4275   20.7691 C   0  0  0  0  0  0
  -28.9284  -18.0079   20.9130 C   0  0  0  0  0  0
  -31.2721  -17.8033   20.4453 C   0  0  0  0  0  0
  -31.3571  -19.2217   20.3133 C   0  0  0  0  0  0
  -30.2237  -20.0891   20.4625 C   0  0  0  0  0  0
  -30.0510  -17.1496   20.7424 C   0  0  0  0  0  0
  -31.6013  -22.0646   20.1304 C   0  0  0  0  0  0
  -32.7156  -19.8287   20.0169 C   0  0  0  0  0  0
  -32.5647  -21.1869   19.3376 C   0  0  0  0  0  0
  -29.3757  -24.1116   20.3350 C   0  0  0  0  0  0
  -29.1641  -22.5172   20.4150 C   0  0  0  0  0  0
  -28.1409  -25.0476   20.0350 C   0  0  0  0  0  0
  -30.3520  -21.5670   20.3416 N   0  0  0  0  0  0
  -29.8848  -15.7004   20.8972 N   0  0  0  0  0  0
  -32.0199  -23.1442   20.5613 O   0  0  0  0  0  0
  -31.4830  -12.4881   19.1769 H   0  0  0  0  0  0
  -30.3520  -11.3956   19.9206 H   0  0  0  0  0  0
  -29.7839  -11.7410   17.4977 H   0  0  0  0  0  0
  -29.6759  -13.4653   17.7494 H   0  0  0  0  0  0
  -27.8625  -11.2993   18.8628 H   0  0  0  0  0  0
  -27.3936  -12.5930   17.7881 H   0  0  0  0  0  0
  -27.6738  -14.2566   19.5169 H   0  0  0  0  0  0
  -28.7051  -12.0767   21.3972 H   0  0  0  0  0  0
  -28.4427  -13.7401   21.8366 H   0  0  0  0  0  0
  -25.2763   -9.5689   22.4724 H   0  0  0  0  0  0
  -24.0004   -7.4638   22.7453 H   0  0  0  0  0  0
  -21.0822   -8.8784   19.8971 H   0  0  0  0  0  0
  -22.3669  -10.9678   19.6159 H   0  0  0  0  0  0
  -21.2027   -7.6133   23.9700 H   0  0  0  0  0  0
  -21.1484   -6.0512   25.9067 H   0  0  0  0  0  0
  -22.0598   -2.7603   23.2840 H   0  0  0  0  0  0
  -22.4121  -11.9955   22.4861 H   0  0  0  0  0  0
  -21.1123  -13.1302   22.2604 H   0  0  0  0  0  0
  -24.6561  -15.8419   20.5022 H   0  0  0  0  0  0
  -26.2672  -15.6262   20.0509 H   0  0  0  0  0  0
  -26.7180  -32.5444   23.1104 H   0  0  0  0  0  0
  -25.0041  -33.9732   25.0405 H   0  0  0  0  0  0
  -22.7077  -31.3086   21.4148 H   0  0  0  0  0  0
  -23.3749  -35.9636   23.3294 H   0  0  0  0  0  0
  -24.3588  -36.8930   22.2049 H   0  0  0  0  0  0
  -23.7246  -37.6509   23.6654 H   0  0  0  0  0  0
  -26.0864  -31.5611   20.6035 H   0  0  0  0  0  0
  -26.8364  -30.8413   21.9985 H   0  0  0  0  0  0
  -28.1111  -29.0027   21.1641 H   0  0  0  0  0  0
  -25.9535  -25.9343   19.0078 H   0  0  0  0  0  0
  -23.9542  -27.3070   19.0256 H   0  0  0  0  0  0
  -23.7364  -30.6026   19.4083 H   0  0  0  0  0  0
  -22.7400  -29.2556   19.8679 H   0  0  0  0  0  0
  -25.1282  -36.1945   25.0820 H   0  0  0  0  0  0
  -20.9975  -28.3260   24.1423 H   0  0  0  0  0  0
  -20.5645  -26.2291   23.3640 H   0  0  0  0  0  0
  -21.6653  -26.7414   22.1263 H   0  0  0  0  0  0
  -19.6919  -25.6284   21.1259 H   0  0  0  0  0  0
  -19.6712  -27.3176   20.6739 H   0  0  0  0  0  0
  -17.4215  -26.6704   21.3992 H   0  0  0  0  0  0
  -18.0293  -26.0069   22.8992 H   0  0  0  0  0  0
  -19.7938  -30.7276   24.2261 H   0  0  0  0  0  0
  -17.5010  -31.6261   24.5166 H   0  0  0  0  0  0
  -15.5350  -30.2968   23.7654 H   0  0  0  0  0  0
  -15.8679  -28.0814   22.7037 H   0  0  0  0  0  0
  -24.5892  -30.7100   25.7866 H   0  0  0  0  0  0
  -24.8841  -32.2998   26.4774 H   0  0  0  0  0  0
  -25.8015  -30.9122   27.0320 H   0  0  0  0  0  0
  -26.2799  -29.6814   24.1160 H   0  0  0  0  0  0
  -27.3833  -29.7200   25.4711 H   0  0  0  0  0  0
  -27.8729  -30.4231   23.9462 H   0  0  0  0  0  0
  -27.2714  -33.3596   26.2075 H   0  0  0  0  0  0
  -28.3835  -32.6868   25.0250 H   0  0  0  0  0  0
  -28.0769  -31.8398   26.5338 H   0  0  0  0  0  0
  -28.2618  -38.0074   24.7495 H   0  0  0  0  0  0
  -28.1077  -36.2616   24.6238 H   0  0  0  0  0  0
  -27.2339  -37.1427   25.8858 H   0  0  0  0  0  0
  -20.9354  -29.8735   21.6901 H   0  0  0  0  0  0
  -26.0179  -38.2865   24.1416 H   0  0  0  0  0  0
  -28.1039  -20.0050   20.9156 H   0  0  0  0  0  0
  -27.9688  -17.5778   21.1627 H   0  0  0  0  0  0
  -32.1765  -17.2236   20.3249 H   0  0  0  0  0  0
  -33.2905  -19.1619   19.3729 H   0  0  0  0  0  0
  -33.2771  -19.9311   20.9467 H   0  0  0  0  0  0
  -33.5315  -21.6769   19.2213 H   0  0  0  0  0  0
  -32.1516  -21.0640   18.3352 H   0  0  0  0  0  0
  -30.1059  -24.3513   19.5620 H   0  0  0  0  0  0
  -29.8114  -24.4391   21.2797 H   0  0  0  0  0  0
  -28.5013  -22.2325   19.5969 H   0  0  0  0  0  0
  -28.6143  -22.2979   21.3309 H   0  0  0  0  0  0
  -27.3216  -24.7552   20.6933 H   0  0  0  0  0  0
  -27.8212  -24.8214   19.0164 H   0  0  0  0  0  0
  -28.9721  -15.4181   21.2189 H   0  0  0  0  0  0
  1 25  1  0  0  0
  1 30  2  0  0  0
  1 84  1  0  0  0
  2  3  1  0  0  0
  2 25  1  0  0  0
  2 86  1  0  0  0
  2 87  1  0  0  0
  3  4  1  0  0  0
  3 88  1  0  0  0
  3 89  1  0  0  0
  4  5  1  0  0  0
  4 90  1  0  0  0
  4 91  1  0  0  0
  5  6  1  0  0  0
  5 26  1  0  0  0
  5 92  1  0  0  0
  6 25  1  0  0  0
  6 93  1  0  0  0
  6 94  1  0  0  0
  7  8  2  0  0  0
  7 26  1  0  0  0
  7 29  1  0  0  0
  8  9  1  0  0  0
  8 22  1  0  0  0
  9 10  1  0  0  0
  9 27  2  0  0  0
 10 11  2  0  0  0
 10 15  1  0  0  0
 11 12  1  0  0  0
 11 95  1  0  0  0
 12 13  2  0  0  0
 12 96  1  0  0  0
 13 14  1  0  0  0
 13 31  1  0  0  0
 14 15  2  0  0  0
 14 97  1  0  0  0
 15 98  1  0  0  0
 16 17  2  0  0  0
 16 21  1  0  0  0
 16 31  1  0  0  0
 17 18  1  0  0  0
 17 99  1  0  0  0
 18 19  2  0  0  0
 18100  1  0  0  0
 19 20  1  0  0  0
 19 24  1  0  0  0
 20 21  2  0  0  0
 20101  1  0  0  0
 21 23  1  0  0  0
 22 28  1  0  0  0
 22 32  2  0  0  0
 26 27  1  0  0  0
 28102  1  0  0  0
 28103  1  0  0  0
 29104  1  0  0  0
 29105  1  0  0  0
 33 34  1  0  0  0
 33 66  1  0  0  0
 33 70  2  0  0  0
 34 36  1  0  0  0
 34 59  1  0  0  0
 34106  1  0  0  0
 35 44  2  0  0  0
 35 45  1  0  0  0
 35 68  1  0  0  0
 36 56  1  0  0  0
 36107  1  0  0  0
 37 39  1  0  0  0
 37 47  1  0  0  0
 37 66  1  0  0  0
 37108  1  0  0  0
 38 43  2  0  0  0
 38 46  1  0  0  0
 38 47  1  0  0  0
 39 64  1  0  0  0
 39 67  2  0  0  0
 40 52  1  0  0  0
 40 53  2  0  0  0
 40 58  1  0  0  0
 41109  1  0  0  0
 41110  1  0  0  0
 41111  1  0  0  0
 41 48  1  0  0  0
 42 43  1  0  0  0
 42 66  1  0  0  0
 42112  1  0  0  0
 42113  1  0  0  0
 43 44  1  0  0  0
 44114  1  0  0  0
 45 46  2  0  0  0
 45115  1  0  0  0
 46116  1  0  0  0
 47117  1  0  0  0
 47118  1  0  0  0
 48 56  1  0  0  0
 48 65  1  0  0  0
 48119  1  0  0  0
 49 50  1  0  0  0
 49 53  1  0  0  0
 49 64  1  0  0  0
 49120  1  0  0  0
 50 51  1  0  0  0
 50121  1  0  0  0
 50122  1  0  0  0
 51 52  1  0  0  0
 51123  1  0  0  0
 51124  1  0  0  0
 52125  1  0  0  0
 52126  1  0  0  0
 53 54  1  0  0  0
 54 55  2  0  0  0
 54127  1  0  0  0
 55 57  1  0  0  0
 55128  1  0  0  0
 56 69  2  0  0  0
 57 58  2  0  0  0
 57129  1  0  0  0
 58130  1  0  0  0
 59 60  1  0  0  0
 59 61  1  0  0  0
 59 62  1  0  0  0
 60131  1  0  0  0
 60132  1  0  0  0
 60133  1  0  0  0
 61134  1  0  0  0
 61135  1  0  0  0
 61136  1  0  0  0
 62137  1  0  0  0
 62138  1  0  0  0
 62139  1  0  0  0
 63 65  1  0  0  0
 63140  1  0  0  0
 63141  1  0  0  0
 63142  1  0  0  0
 64143  1  0  0  0
 65144  1  0  0  0
 68 82  1  0  0  0
 71 72  2  0  0  0
 71 75  1  0  0  0
 71145  1  0  0  0
 72 76  1  0  0  0
 72146  1  0  0  0
 73 74  1  0  0  0
 73 76  2  0  0  0
 73147  1  0  0  0
 74 75  2  0  0  0
 74 78  1  0  0  0
 75 83  1  0  0  0
 76 84  1  0  0  0
 77 79  1  0  0  0
 77 83  1  0  0  0
 77 85  2  0  0  0
 78 79  1  0  0  0
 78148  1  0  0  0
 78149  1  0  0  0
 79150  1  0  0  0
 79151  1  0  0  0
 80 81  1  0  0  0
 80 82  1  0  0  0
 80152  1  0  0  0
 80153  1  0  0  0
 81 83  1  0  0  0
 81154  1  0  0  0
 81155  1  0  0  0
 82156  1  0  0  0
 82157  1  0  0  0
 84158  1  0  0  0
M  ISO  4   1 100  68 101  82 101  84 100
M  END
> <chiral flag>
0

> <version>
0

> <s_m_source_file>
/data/baiqing/PycharmProjects/Reinvent-master-3.2/result/LINK_invent/BTK/process_docking_weight1_custom_product_contain_oxygen_bond_distance_aromatic_linkinvent_7_9_3/rearranged_h_0020.sdf

> <i_m_source_file_index>
94

> <r_mmod_Potential_Energy-OPLS-2005>
112.478843688965

> <r_mmod_Stretch_Energy-OPLS-2005>
89.1932144165039

> <r_mmod_Bend_Energy-OPLS-2005>
136.386169433594

> <r_mmod_Torsional_Energy-OPLS-2005>
263.468078613281

> <r_mmod_Improper_Torsional_Energy-OPLS-2005>
4.16913414001465

> <r_mmod_Van_der_Waal_Energy-OPLS-2005>
170.037780761719

> <r_mmod_Electrostatic_Energy-OPLS-2005>
-373.271026611328

> <r_mmod_Solvation_Energy-OPLS-2005>
-221.387786865234

> <b_mmod_Minimization_Converged-OPLS-2005>
0

> <r_mmod_RMS_Derivative-OPLS-2005>
2.01438760757446

$$$$
95
                    3D
 Structure written by MMmdl.
160169  0  0  1  0            999 V2000
  -30.6144  -14.6312   20.4661 C   0  0  0  0  0  0
  -30.4404  -12.3799   19.4388 C   0  0  0  0  0  0
  -29.5119  -12.5103   18.2120 C   0  0  0  0  0  0
  -28.0322  -12.3474   18.6206 C   0  0  0  0  0  0
  -27.6509  -13.2119   19.8524 C   0  0  2  0  0  0
  -28.6978  -13.0679   20.9787 C   0  0  0  0  0  0
  -25.2543  -13.8150   20.5593 C   0  0  0  0  0  0
  -24.1807  -13.0408   20.9156 C   0  0  0  0  0  0
  -24.6390  -11.6890   20.8739 C   0  0  0  0  0  0
  -23.9051  -10.4280   21.0413 C   0  0  0  0  0  0
  -24.3614   -9.4210   21.9182 C   0  0  0  0  0  0
  -23.6291   -8.2253   22.0755 C   0  0  0  0  0  0
  -22.4279   -8.0285   21.3548 C   0  0  0  0  0  0
  -21.9899   -9.0247   20.4652 C   0  0  0  0  0  0
  -22.7230  -10.2126   20.3061 C   0  0  0  0  0  0
  -21.6846   -6.0741   22.5286 C   0  0  0  0  0  0
  -21.4015   -6.5638   23.8225 C   0  0  0  0  0  0
  -21.3659   -5.6783   24.9175 C   0  0  0  0  0  0
  -21.6043   -4.3051   24.7218 C   0  0  0  0  0  0
  -21.8820   -3.8150   23.4343 C   0  0  0  0  0  0
  -21.9195   -4.6968   22.3407 C   0  0  0  0  0  0
  -22.7852  -13.5244   21.1798 C   0  0  0  0  0  0
  -22.1660   -4.2162   21.0982 F   0  0  0  0  0  0
  -21.5613   -3.4534   25.7727 F   0  0  0  0  0  0
  -30.0158  -13.4000   20.4133 N   0  0  0  0  0  0
  -26.2961  -12.9307   20.3237 N   0  0  0  0  0  0
  -25.9309  -11.6470   20.5725 N   0  0  0  0  0  0
  -22.0470  -12.8284   22.0384 N   0  0  0  0  0  0
  -25.4218  -15.1862   20.3924 N   0  0  0  0  0  0
  -31.7978  -14.7958   20.1608 O   0  0  0  0  0  0
  -21.6643   -6.8897   21.4253 O   0  0  0  0  0  0
  -22.3569  -14.5540   20.6634 O   0  0  0  0  0  0
  -24.6242  -31.8608   23.2062 C   0  0  0  0  0  0
  -25.9094  -32.4801   23.8368 C   0  0  1  0  0  0
  -27.2269  -27.3253   20.1224 C   0  0  0  0  0  0
  -25.5933  -33.8599   24.2298 N   0  0  0  0  0  0
  -23.4171  -30.4920   21.5411 C   0  0  2  0  0  0
  -24.8689  -28.9481   20.1092 C   0  0  0  0  0  0
  -22.7467  -29.4644   22.4846 C   0  0  0  0  0  0
  -18.0316  -28.1351   22.8504 C   0  0  0  0  0  0
  -24.1474  -36.7306   23.2642 C   0  0  0  0  0  0
  -25.9608  -30.7929   21.3772 C   0  0  0  0  0  0
  -26.0369  -29.4228   20.7194 C   0  0  0  0  0  0
  -27.2178  -28.6236   20.7180 C   0  0  0  0  0  0
  -26.0354  -26.9021   19.4848 C   0  0  0  0  0  0
  -24.8727  -27.6926   19.4840 C   0  0  0  0  0  0
  -23.6366  -29.8302   20.1553 C   0  0  0  0  0  0
  -25.4110  -36.3116   24.0341 C   0  0  1  0  0  0
  -20.5925  -28.3659   23.1251 C   0  0  2  0  0  0
  -20.6772  -26.9351   22.5399 C   0  0  0  0  0  0
  -19.5753  -26.6350   21.5183 C   0  0  0  0  0  0
  -18.1938  -26.7910   22.1596 C   0  0  0  0  0  0
  -19.1569  -28.8819   23.2888 C   0  0  0  0  0  0
  -18.9484  -30.1426   23.8890 C   0  0  0  0  0  0
  -17.6476  -30.6558   24.0541 C   0  0  0  0  0  0
  -25.9048  -34.9482   23.5122 C   0  0  0  0  0  0
  -16.5371  -29.9047   23.6323 C   0  0  0  0  0  0
  -16.7298  -28.6461   23.0367 C   0  0  0  0  0  0
  -26.4480  -31.6639   25.0757 C   0  0  0  0  0  0
  -25.3688  -31.3811   26.1478 C   0  0  0  0  0  0
  -27.0326  -30.3069   24.6224 C   0  0  0  0  0  0
  -27.6047  -32.4381   25.7531 C   0  0  0  0  0  0
  -27.5573  -37.1816   24.8476 C   0  0  0  0  0  0
  -21.4179  -29.3026   22.3608 N   0  0  0  0  0  0
  -26.4289  -37.3802   23.9427 N   0  0  0  0  0  0
  -24.6858  -31.0659   22.0988 N   0  0  0  0  0  0
  -23.4222  -28.8136   23.2857 O   0  0  0  0  0  0
  -28.3433  -26.4758   20.1829 O   0  0  0  0  0  0
  -26.5594  -34.8934   22.4668 O   0  0  0  0  0  0
  -23.5414  -32.1378   23.7405 O   0  0  0  0  0  0
  -30.8619  -19.3447   20.8698 C   0  0  0  0  0  0
  -28.8335  -19.2135   19.5845 C   0  0  0  0  0  0
  -30.8801  -17.9228   21.0058 C   0  0  0  0  0  0
  -28.8395  -17.7976   19.7339 C   0  0  0  0  0  0
  -29.8399  -20.0307   20.1535 C   0  0  0  0  0  0
  -29.8613  -17.1105   20.4412 C   0  0  0  0  0  0
  -28.1701  -23.2825   22.6928 C   0  0  0  0  0  0
  -29.2777  -24.1945   22.1614 C   0  0  0  0  0  0
  -28.3520  -22.0350   21.8260 C   0  0  0  0  0  0
  -29.1851  -23.9906   20.6392 C   0  0  2  0  0  0
  -29.9022  -21.5896   19.9158 C   0  0  0  0  0  0
  -28.1074  -25.0179   20.0554 C   0  0  0  0  0  0
  -29.7441  -15.6703   20.6400 N   0  0  0  0  0  0
  -28.8347  -22.5031   20.4973 N   0  3  1  0  0  0
  -31.4831  -12.5060   19.1379 H   0  0  0  0  0  0
  -30.3697  -11.3798   19.8683 H   0  0  0  0  0  0
  -29.7819  -11.7784   17.4502 H   0  0  0  0  0  0
  -29.6543  -13.4924   17.7583 H   0  0  0  0  0  0
  -27.8622  -11.2914   18.8371 H   0  0  0  0  0  0
  -27.3852  -12.5931   17.7785 H   0  0  0  0  0  0
  -27.6665  -14.2462   19.5062 H   0  0  0  0  0  0
  -28.7021  -12.0474   21.3651 H   0  0  0  0  0  0
  -28.4483  -13.7107   21.8264 H   0  0  0  0  0  0
  -25.2761   -9.5684   22.4739 H   0  0  0  0  0  0
  -23.9998   -7.4649   22.7476 H   0  0  0  0  0  0
  -21.0825   -8.8768   19.8968 H   0  0  0  0  0  0
  -22.3693  -10.9648   19.6173 H   0  0  0  0  0  0
  -21.2030   -7.6146   23.9738 H   0  0  0  0  0  0
  -21.1462   -6.0505   25.9080 H   0  0  0  0  0  0
  -22.0608   -2.7612   23.2832 H   0  0  0  0  0  0
  -22.4036  -11.9972   22.4854 H   0  0  0  0  0  0
  -21.1078  -13.1350   22.2507 H   0  0  0  0  0  0
  -24.6355  -15.8248   20.4562 H   0  0  0  0  0  0
  -26.2519  -15.6250   20.0174 H   0  0  0  0  0  0
  -26.7151  -32.5466   23.1098 H   0  0  0  0  0  0
  -25.0170  -33.9752   25.0512 H   0  0  0  0  0  0
  -22.7121  -31.3164   21.3990 H   0  0  0  0  0  0
  -23.3756  -35.9614   23.3335 H   0  0  0  0  0  0
  -24.3553  -36.8895   22.2046 H   0  0  0  0  0  0
  -23.7167  -37.6499   23.6633 H   0  0  0  0  0  0
  -26.0933  -31.5498   20.6028 H   0  0  0  0  0  0
  -26.8431  -30.8433   22.0036 H   0  0  0  0  0  0
  -28.1068  -28.9770   21.2223 H   0  0  0  0  0  0
  -25.9662  -25.9418   18.9957 H   0  0  0  0  0  0
  -23.9798  -27.3219   19.0036 H   0  0  0  0  0  0
  -23.7558  -30.6125   19.4021 H   0  0  0  0  0  0
  -22.7552  -29.2687   19.8426 H   0  0  0  0  0  0
  -25.1246  -36.1994   25.0824 H   0  0  0  0  0  0
  -21.0081  -28.3242   24.1345 H   0  0  0  0  0  0
  -20.5610  -26.2226   23.3584 H   0  0  0  0  0  0
  -21.6633  -26.7313   22.1184 H   0  0  0  0  0  0
  -19.6874  -25.6262   21.1193 H   0  0  0  0  0  0
  -19.6732  -27.3158   20.6726 H   0  0  0  0  0  0
  -17.4186  -26.6723   21.4007 H   0  0  0  0  0  0
  -18.0331  -26.0027   22.8964 H   0  0  0  0  0  0
  -19.7962  -30.7255   24.2240 H   0  0  0  0  0  0
  -17.5032  -31.6247   24.5111 H   0  0  0  0  0  0
  -15.5373  -30.2915   23.7668 H   0  0  0  0  0  0
  -15.8713  -28.0760   22.7096 H   0  0  0  0  0  0
  -24.5917  -30.7078   25.7851 H   0  0  0  0  0  0
  -24.8810  -32.2970   26.4827 H   0  0  0  0  0  0
  -25.7997  -30.9095   27.0308 H   0  0  0  0  0  0
  -26.2904  -29.6868   24.1191 H   0  0  0  0  0  0
  -27.3940  -29.7306   25.4755 H   0  0  0  0  0  0
  -27.8794  -30.4394   23.9489 H   0  0  0  0  0  0
  -27.2694  -33.3745   26.2007 H   0  0  0  0  0  0
  -28.3913  -32.6844   25.0386 H   0  0  0  0  0  0
  -28.0605  -31.8542   26.5540 H   0  0  0  0  0  0
  -28.2590  -38.0117   24.7526 H   0  0  0  0  0  0
  -28.1053  -36.2640   24.6279 H   0  0  0  0  0  0
  -27.2287  -37.1429   25.8879 H   0  0  0  0  0  0
  -20.9291  -29.8808   21.6900 H   0  0  0  0  0  0
  -26.0196  -38.2871   24.1476 H   0  0  0  0  0  0
  -31.6640  -19.9172   21.3186 H   0  0  0  0  0  0
  -28.0408  -19.6661   19.0072 H   0  0  0  0  0  0
  -31.6734  -17.4614   21.5772 H   0  0  0  0  0  0
  -28.0374  -17.2380   19.2689 H   0  0  0  0  0  0
  -27.1821  -23.7149   22.5234 H   0  0  0  0  0  0
  -28.2428  -23.0748   23.7620 H   0  0  0  0  0  0
  -30.2440  -23.8416   22.5292 H   0  0  0  0  0  0
  -29.1796  -25.2391   22.4670 H   0  0  0  0  0  0
  -27.4439  -21.4372   21.7308 H   0  0  0  0  0  0
  -29.1046  -21.4107   22.3109 H   0  0  0  0  0  0
  -30.1434  -24.1995   20.1620 H   0  0  0  0  0  0
  -29.9379  -21.7559   18.8382 H   0  0  0  0  0  0
  -30.8701  -21.9329   20.2839 H   0  0  0  0  0  0
  -27.1758  -24.8066   20.5801 H   0  0  0  0  0  0
  -27.9198  -24.7856   19.0065 H   0  0  0  0  0  0
  -28.7976  -15.3340   20.7387 H   0  0  0  0  0  0
  -28.0546  -22.4368   19.8585 H   0  0  0  0  0  0
  1 25  1  0  0  0
  1 30  2  0  0  0
  1 83  1  0  0  0
  2  3  1  0  0  0
  2 25  1  0  0  0
  2 85  1  0  0  0
  2 86  1  0  0  0
  3  4  1  0  0  0
  3 87  1  0  0  0
  3 88  1  0  0  0
  4  5  1  0  0  0
  4 89  1  0  0  0
  4 90  1  0  0  0
  5  6  1  0  0  0
  5 26  1  0  0  0
  5 91  1  0  0  0
  6 25  1  0  0  0
  6 92  1  0  0  0
  6 93  1  0  0  0
  7  8  2  0  0  0
  7 26  1  0  0  0
  7 29  1  0  0  0
  8  9  1  0  0  0
  8 22  1  0  0  0
  9 10  1  0  0  0
  9 27  2  0  0  0
 10 11  2  0  0  0
 10 15  1  0  0  0
 11 12  1  0  0  0
 11 94  1  0  0  0
 12 13  2  0  0  0
 12 95  1  0  0  0
 13 14  1  0  0  0
 13 31  1  0  0  0
 14 15  2  0  0  0
 14 96  1  0  0  0
 15 97  1  0  0  0
 16 17  2  0  0  0
 16 21  1  0  0  0
 16 31  1  0  0  0
 17 18  1  0  0  0
 17 98  1  0  0  0
 18 19  2  0  0  0
 18 99  1  0  0  0
 19 20  1  0  0  0
 19 24  1  0  0  0
 20 21  2  0  0  0
 20100  1  0  0  0
 21 23  1  0  0  0
 22 28  1  0  0  0
 22 32  2  0  0  0
 26 27  1  0  0  0
 28101  1  0  0  0
 28102  1  0  0  0
 29103  1  0  0  0
 29104  1  0  0  0
 33 34  1  0  0  0
 33 66  1  0  0  0
 33 70  2  0  0  0
 34 36  1  0  0  0
 34 59  1  0  0  0
 34105  1  0  0  0
 35 44  2  0  0  0
 35 45  1  0  0  0
 35 68  1  0  0  0
 36 56  1  0  0  0
 36106  1  0  0  0
 37 39  1  0  0  0
 37 47  1  0  0  0
 37 66  1  0  0  0
 37107  1  0  0  0
 38 43  2  0  0  0
 38 46  1  0  0  0
 38 47  1  0  0  0
 39 64  1  0  0  0
 39 67  2  0  0  0
 40 52  1  0  0  0
 40 53  2  0  0  0
 40 58  1  0  0  0
 41108  1  0  0  0
 41109  1  0  0  0
 41110  1  0  0  0
 41 48  1  0  0  0
 42 43  1  0  0  0
 42 66  1  0  0  0
 42111  1  0  0  0
 42112  1  0  0  0
 43 44  1  0  0  0
 44113  1  0  0  0
 45 46  2  0  0  0
 45114  1  0  0  0
 46115  1  0  0  0
 47116  1  0  0  0
 47117  1  0  0  0
 48 56  1  0  0  0
 48 65  1  0  0  0
 48118  1  0  0  0
 49 50  1  0  0  0
 49 53  1  0  0  0
 49 64  1  0  0  0
 49119  1  0  0  0
 50 51  1  0  0  0
 50120  1  0  0  0
 50121  1  0  0  0
 51 52  1  0  0  0
 51122  1  0  0  0
 51123  1  0  0  0
 52124  1  0  0  0
 52125  1  0  0  0
 53 54  1  0  0  0
 54 55  2  0  0  0
 54126  1  0  0  0
 55 57  1  0  0  0
 55127  1  0  0  0
 56 69  2  0  0  0
 57 58  2  0  0  0
 57128  1  0  0  0
 58129  1  0  0  0
 59 60  1  0  0  0
 59 61  1  0  0  0
 59 62  1  0  0  0
 60130  1  0  0  0
 60131  1  0  0  0
 60132  1  0  0  0
 61133  1  0  0  0
 61134  1  0  0  0
 61135  1  0  0  0
 62136  1  0  0  0
 62137  1  0  0  0
 62138  1  0  0  0
 63 65  1  0  0  0
 63139  1  0  0  0
 63140  1  0  0  0
 63141  1  0  0  0
 64142  1  0  0  0
 65143  1  0  0  0
 68 82  1  0  0  0
 71 73  2  0  0  0
 71 75  1  0  0  0
 71144  1  0  0  0
 72 74  1  0  0  0
 72 75  2  0  0  0
 72145  1  0  0  0
 73 76  1  0  0  0
 73146  1  0  0  0
 74 76  2  0  0  0
 74147  1  0  0  0
 75 81  1  0  0  0
 76 83  1  0  0  0
 77 78  1  0  0  0
 77 79  1  0  0  0
 77148  1  0  0  0
 77149  1  0  0  0
 78 80  1  0  0  0
 78150  1  0  0  0
 78151  1  0  0  0
 79 84  1  0  0  0
 79152  1  0  0  0
 79153  1  0  0  0
 80 82  1  0  0  0
 80 84  1  0  0  0
 80154  1  0  0  0
 81155  1  0  0  0
 81156  1  0  0  0
 81 84  1  0  0  0
 82157  1  0  0  0
 82158  1  0  0  0
 83159  1  0  0  0
 84160  1  0  0  0
M  CHG  1  84   1
M  ISO  4   1 100  68 101  82 101  83 100
M  END
> <chiral flag>
0

> <version>
0

> <s_m_source_file>
/data/baiqing/PycharmProjects/Reinvent-master-3.2/result/LINK_invent/BTK/process_docking_weight1_custom_product_contain_oxygen_bond_distance_aromatic_linkinvent_7_9_3/rearranged_h_0020.sdf

> <i_m_source_file_index>
95

> <r_mmod_Potential_Energy-OPLS-2005>
66.4427642822266

> <r_mmod_Stretch_Energy-OPLS-2005>
78.9299468994141

> <r_mmod_Bend_Energy-OPLS-2005>
160.241439819336

> <r_mmod_Torsional_Energy-OPLS-2005>
283.82421875

> <r_mmod_Improper_Torsional_Energy-OPLS-2005>
7.15376615524292

> <r_mmod_Van_der_Waal_Energy-OPLS-2005>
142.017501831055

> <r_mmod_Electrostatic_Energy-OPLS-2005>
-217.845062255859

> <r_mmod_Solvation_Energy-OPLS-2005>
-436.901641845703

> <b_mmod_Minimization_Converged-OPLS-2005>
0

> <r_mmod_RMS_Derivative-OPLS-2005>
5.1082649230957

$$$$
96
                    3D
 Structure written by MMmdl.
169178  0  0  1  0            999 V2000
  -30.7675  -14.3670   20.6959 C   0  0  0  0  0  0
  -30.4215  -12.2985   19.3880 C   0  0  0  0  0  0
  -29.4839  -12.5355   18.1896 C   0  0  0  0  0  0
  -28.0083  -12.3812   18.6070 C   0  0  0  0  0  0
  -27.6688  -13.1920   19.8839 C   0  0  2  0  0  0
  -28.7111  -12.9093   20.9916 C   0  0  0  0  0  0
  -25.2636  -13.8131   20.5676 C   0  0  0  0  0  0
  -24.1865  -13.0432   20.9167 C   0  0  0  0  0  0
  -24.6394  -11.6890   20.8734 C   0  0  0  0  0  0
  -23.9048  -10.4287   21.0406 C   0  0  0  0  0  0
  -24.3606   -9.4200   21.9183 C   0  0  0  0  0  0
  -23.6282   -8.2238   22.0754 C   0  0  0  0  0  0
  -22.4267   -8.0276   21.3542 C   0  0  0  0  0  0
  -21.9895   -9.0249   20.4646 C   0  0  0  0  0  0
  -22.7222  -10.2130   20.3054 C   0  0  0  0  0  0
  -21.6846   -6.0730   22.5272 C   0  0  0  0  0  0
  -21.4010   -6.5640   23.8202 C   0  0  0  0  0  0
  -21.3658   -5.6797   24.9166 C   0  0  0  0  0  0
  -21.6051   -4.3059   24.7220 C   0  0  0  0  0  0
  -21.8816   -3.8148   23.4338 C   0  0  0  0  0  0
  -21.9191   -4.6961   22.3394 C   0  0  0  0  0  0
  -22.7891  -13.5248   21.1836 C   0  0  0  0  0  0
  -22.1660   -4.2150   21.0969 F   0  0  0  0  0  0
  -21.5635   -3.4542   25.7730 F   0  0  0  0  0  0
  -30.0473  -13.2346   20.4604 N   0  0  0  0  0  0
  -26.3062  -12.9272   20.3403 N   0  0  0  0  0  0
  -25.9319  -11.6444   20.5774 N   0  0  0  0  0  0
  -22.0524  -12.8237   22.0387 N   0  0  0  0  0  0
  -25.4388  -15.1845   20.4063 N   0  0  0  0  0  0
  -31.8002  -14.6335   20.0681 O   0  0  0  0  0  0
  -21.6636   -6.8872   21.4235 O   0  0  0  0  0  0
  -22.3581  -14.5561   20.6695 O   0  0  0  0  0  0
  -24.6118  -31.8722   23.2146 C   0  0  0  0  0  0
  -25.9030  -32.4844   23.8422 C   0  0  1  0  0  0
  -27.2375  -27.4722   20.0653 C   0  0  0  0  0  0
  -25.5898  -33.8640   24.2352 N   0  0  0  0  0  0
  -23.3954  -30.4987   21.5553 C   0  0  2  0  0  0
  -24.8379  -28.9681   20.1177 C   0  0  0  0  0  0
  -22.7383  -29.4706   22.5039 C   0  0  0  0  0  0
  -18.0265  -28.1377   22.8516 C   0  0  0  0  0  0
  -24.1479  -36.7330   23.2631 C   0  0  0  0  0  0
  -25.9220  -30.8420   21.3663 C   0  0  0  0  0  0
  -25.9947  -29.4776   20.7186 C   0  0  0  0  0  0
  -27.1899  -28.7274   20.7070 C   0  0  0  0  0  0
  -26.0580  -26.9729   19.4622 C   0  0  0  0  0  0
  -24.8619  -27.7096   19.4961 C   0  0  0  0  0  0
  -23.5979  -29.8308   20.1694 C   0  0  0  0  0  0
  -25.4098  -36.3137   24.0342 C   0  0  1  0  0  0
  -20.5850  -28.3673   23.1343 C   0  0  2  0  0  0
  -20.6759  -26.9414   22.5434 C   0  0  0  0  0  0
  -19.5730  -26.6399   21.5231 C   0  0  0  0  0  0
  -18.1906  -26.7936   22.1631 C   0  0  0  0  0  0
  -19.1508  -28.8838   23.2929 C   0  0  0  0  0  0
  -18.9435  -30.1433   23.8961 C   0  0  0  0  0  0
  -17.6440  -30.6595   24.0566 C   0  0  0  0  0  0
  -25.9027  -34.9494   23.5152 C   0  0  0  0  0  0
  -16.5332  -29.9100   23.6314 C   0  0  0  0  0  0
  -16.7253  -28.6498   23.0375 C   0  0  0  0  0  0
  -26.4471  -31.6606   25.0734 C   0  0  0  0  0  0
  -25.3738  -31.3684   26.1474 C   0  0  0  0  0  0
  -27.0290  -30.3051   24.6097 C   0  0  0  0  0  0
  -27.6070  -32.4301   25.7487 C   0  0  0  0  0  0
  -27.5588  -37.1809   24.8455 C   0  0  0  0  0  0
  -21.4118  -29.3044   22.3754 N   0  0  0  0  0  0
  -26.4295  -37.3815   23.9413 N   0  0  0  0  0  0
  -24.6609  -31.0848   22.1035 N   0  0  0  0  0  0
  -23.4172  -28.8247   23.3067 O   0  0  0  0  0  0
  -28.4442  -26.8050   20.0487 O   0  0  0  0  0  0
  -26.5598  -34.8950   22.4721 O   0  0  0  0  0  0
  -23.5318  -32.1482   23.7556 O   0  0  0  0  0  0
  -29.1836  -17.3747   19.6577 C   0  0  0  0  0  0
  -30.1133  -18.3875   21.6733 C   0  0  0  0  0  0
  -29.3555  -18.5892   18.9671 C   0  0  0  0  0  0
  -30.2957  -19.5986   20.9815 C   0  0  0  0  0  0
  -29.5389  -17.2787   21.0195 C   0  0  0  0  0  0
  -29.8877  -19.7128   19.6357 C   0  0  0  0  0  0
  -30.3832  -24.0150   18.9255 C   0  0  0  0  0  0
  -30.1430  -25.5325   18.8782 C   0  0  0  0  0  0
  -28.1349  -24.3941   19.6395 C   0  0  0  0  0  0
  -28.9875  -23.3657   18.8876 C   0  0  2  0  0  0
  -28.6399  -25.7441   19.1176 C   0  0  2  0  0  0
  -31.4950  -15.4923   22.7179 C   0  0  0  0  0  0
  -27.5287  -21.4352   19.3815 C   0  0  0  0  0  0
  -29.2820  -15.9908   21.7828 C   0  0  0  0  0  0
  -29.9444  -21.0642   18.9403 C   0  0  0  0  0  0
  -30.4306  -15.0727   21.7993 N   0  0  0  0  0  0
  -28.9073  -21.9951   19.4690 N   0  3  1  0  0  0
  -31.4626  -12.4071   19.0786 H   0  0  0  0  0  0
  -30.3328  -11.2714   19.7456 H   0  0  0  0  0  0
  -29.7208  -11.8400   17.3833 H   0  0  0  0  0  0
  -29.6490  -13.5371   17.7883 H   0  0  0  0  0  0
  -27.8169  -11.3214   18.7794 H   0  0  0  0  0  0
  -27.3537  -12.6786   17.7868 H   0  0  0  0  0  0
  -27.7288  -14.2444   19.6108 H   0  0  0  0  0  0
  -28.6847  -11.8525   21.2606 H   0  0  0  0  0  0
  -28.4681  -13.4254   21.9188 H   0  0  0  0  0  0
  -25.2752   -9.5678   22.4759 H   0  0  0  0  0  0
  -23.9994   -7.4624   22.7471 H   0  0  0  0  0  0
  -21.0827   -8.8757   19.8952 H   0  0  0  0  0  0
  -22.3677  -10.9665   19.6165 H   0  0  0  0  0  0
  -21.1998   -7.6146   23.9703 H   0  0  0  0  0  0
  -21.1491   -6.0529   25.9071 H   0  0  0  0  0  0
  -22.0602   -2.7611   23.2836 H   0  0  0  0  0  0
  -22.4132  -11.9890   22.4761 H   0  0  0  0  0  0
  -21.1140  -13.1260   22.2586 H   0  0  0  0  0  0
  -24.6735  -15.8411   20.5125 H   0  0  0  0  0  0
  -26.2905  -15.6206   20.0785 H   0  0  0  0  0  0
  -26.7109  -32.5578   23.1197 H   0  0  0  0  0  0
  -25.0035  -33.9804   25.0486 H   0  0  0  0  0  0
  -22.6849  -31.3169   21.4197 H   0  0  0  0  0  0
  -23.3759  -35.9646   23.3297 H   0  0  0  0  0  0
  -24.3572  -36.8932   22.2040 H   0  0  0  0  0  0
  -23.7208  -37.6530   23.6644 H   0  0  0  0  0  0
  -26.0309  -31.6067   20.5956 H   0  0  0  0  0  0
  -26.8121  -30.8962   21.9811 H   0  0  0  0  0  0
  -28.0844  -29.1185   21.1710 H   0  0  0  0  0  0
  -26.0343  -26.0294   18.9430 H   0  0  0  0  0  0
  -23.9735  -27.3111   19.0257 H   0  0  0  0  0  0
  -23.6999  -30.6056   19.4087 H   0  0  0  0  0  0
  -22.7225  -29.2465   19.8778 H   0  0  0  0  0  0
  -25.1276  -36.2017   25.0836 H   0  0  0  0  0  0
  -20.9933  -28.3243   24.1467 H   0  0  0  0  0  0
  -20.5672  -26.2285   23.3625 H   0  0  0  0  0  0
  -21.6629  -26.7477   22.1204 H   0  0  0  0  0  0
  -19.6884  -25.6317   21.1242 H   0  0  0  0  0  0
  -19.6665  -27.3234   20.6784 H   0  0  0  0  0  0
  -17.4181  -26.6722   21.4026 H   0  0  0  0  0  0
  -18.0279  -26.0071   22.9012 H   0  0  0  0  0  0
  -19.7908  -30.7223   24.2388 H   0  0  0  0  0  0
  -17.4994  -31.6288   24.5141 H   0  0  0  0  0  0
  -15.5331  -30.3017   23.7602 H   0  0  0  0  0  0
  -15.8652  -28.0803   22.7114 H   0  0  0  0  0  0
  -24.5945  -30.6994   25.7804 H   0  0  0  0  0  0
  -24.8886  -32.2807   26.4944 H   0  0  0  0  0  0
  -25.8087  -30.8849   27.0224 H   0  0  0  0  0  0
  -26.2819  -29.6815   24.1168 H   0  0  0  0  0  0
  -27.4067  -29.7290   25.4555 H   0  0  0  0  0  0
  -27.8662  -30.4369   23.9239 H   0  0  0  0  0  0
  -27.2731  -33.3594   26.2113 H   0  0  0  0  0  0
  -28.3860  -32.6846   25.0288 H   0  0  0  0  0  0
  -28.0769  -31.8383   26.5349 H   0  0  0  0  0  0
  -28.2596  -38.0122   24.7557 H   0  0  0  0  0  0
  -28.1113  -36.2666   24.6235 H   0  0  0  0  0  0
  -27.2325  -37.1377   25.8862 H   0  0  0  0  0  0
  -20.9281  -29.8759   21.6966 H   0  0  0  0  0  0
  -26.0208  -38.2904   24.1437 H   0  0  0  0  0  0
  -28.7506  -16.5290   19.1413 H   0  0  0  0  0  0
  -30.3962  -18.3219   22.7153 H   0  0  0  0  0  0
  -29.0446  -18.6604   17.9333 H   0  0  0  0  0  0
  -30.7164  -20.4484   21.5016 H   0  0  0  0  0  0
  -30.8952  -23.7708   19.8573 H   0  0  0  0  0  0
  -31.0200  -23.6820   18.1049 H   0  0  0  0  0  0
  -30.4365  -25.9513   17.9145 H   0  0  0  0  0  0
  -30.7445  -26.0293   19.6407 H   0  0  0  0  0  0
  -28.3156  -24.3216   20.7128 H   0  0  0  0  0  0
  -27.0698  -24.2484   19.4732 H   0  0  0  0  0  0
  -28.6532  -23.3261   17.8480 H   0  0  0  0  0  0
  -28.1800  -25.9727   18.1537 H   0  0  0  0  0  0
  -31.0973  -15.9723   23.6124 H   0  0  0  0  0  0
  -32.1722  -16.1982   22.2336 H   0  0  0  0  0  0
  -32.0814  -14.6332   23.0467 H   0  0  0  0  0  0
  -26.8040  -22.0668   19.8926 H   0  0  0  0  0  0
  -27.4416  -20.4582   19.8559 H   0  0  0  0  0  0
  -27.2121  -21.3301   18.3435 H   0  0  0  0  0  0
  -28.3974  -15.5294   21.3517 H   0  0  0  0  0  0
  -28.9903  -16.2327   22.8059 H   0  0  0  0  0  0
  -29.8190  -20.9400   17.8633 H   0  0  0  0  0  0
  -30.9466  -21.4663   19.0929 H   0  0  0  0  0  0
  -29.1075  -22.0848   20.4530 H   0  0  0  0  0  0
  1 25  1  0  0  0
  1 30  2  0  0  0
  1 86  1  0  0  0
  2  3  1  0  0  0
  2 25  1  0  0  0
  2 88  1  0  0  0
  2 89  1  0  0  0
  3  4  1  0  0  0
  3 90  1  0  0  0
  3 91  1  0  0  0
  4  5  1  0  0  0
  4 92  1  0  0  0
  4 93  1  0  0  0
  5  6  1  0  0  0
  5 26  1  0  0  0
  5 94  1  0  0  0
  6 25  1  0  0  0
  6 95  1  0  0  0
  6 96  1  0  0  0
  7  8  2  0  0  0
  7 26  1  0  0  0
  7 29  1  0  0  0
  8  9  1  0  0  0
  8 22  1  0  0  0
  9 10  1  0  0  0
  9 27  2  0  0  0
 10 11  2  0  0  0
 10 15  1  0  0  0
 11 12  1  0  0  0
 11 97  1  0  0  0
 12 13  2  0  0  0
 12 98  1  0  0  0
 13 14  1  0  0  0
 13 31  1  0  0  0
 14 15  2  0  0  0
 14 99  1  0  0  0
 15100  1  0  0  0
 16 17  2  0  0  0
 16 21  1  0  0  0
 16 31  1  0  0  0
 17 18  1  0  0  0
 17101  1  0  0  0
 18 19  2  0  0  0
 18102  1  0  0  0
 19 20  1  0  0  0
 19 24  1  0  0  0
 20 21  2  0  0  0
 20103  1  0  0  0
 21 23  1  0  0  0
 22 28  1  0  0  0
 22 32  2  0  0  0
 26 27  1  0  0  0
 28104  1  0  0  0
 28105  1  0  0  0
 29106  1  0  0  0
 29107  1  0  0  0
 33 34  1  0  0  0
 33 66  1  0  0  0
 33 70  2  0  0  0
 34 36  1  0  0  0
 34 59  1  0  0  0
 34108  1  0  0  0
 35 44  2  0  0  0
 35 45  1  0  0  0
 35 68  1  0  0  0
 36 56  1  0  0  0
 36109  1  0  0  0
 37 39  1  0  0  0
 37 47  1  0  0  0
 37 66  1  0  0  0
 37110  1  0  0  0
 38 43  2  0  0  0
 38 46  1  0  0  0
 38 47  1  0  0  0
 39 64  1  0  0  0
 39 67  2  0  0  0
 40 52  1  0  0  0
 40 53  2  0  0  0
 40 58  1  0  0  0
 41111  1  0  0  0
 41112  1  0  0  0
 41113  1  0  0  0
 41 48  1  0  0  0
 42 43  1  0  0  0
 42 66  1  0  0  0
 42114  1  0  0  0
 42115  1  0  0  0
 43 44  1  0  0  0
 44116  1  0  0  0
 45 46  2  0  0  0
 45117  1  0  0  0
 46118  1  0  0  0
 47119  1  0  0  0
 47120  1  0  0  0
 48 56  1  0  0  0
 48 65  1  0  0  0
 48121  1  0  0  0
 49 50  1  0  0  0
 49 53  1  0  0  0
 49 64  1  0  0  0
 49122  1  0  0  0
 50 51  1  0  0  0
 50123  1  0  0  0
 50124  1  0  0  0
 51 52  1  0  0  0
 51125  1  0  0  0
 51126  1  0  0  0
 52127  1  0  0  0
 52128  1  0  0  0
 53 54  1  0  0  0
 54 55  2  0  0  0
 54129  1  0  0  0
 55 57  1  0  0  0
 55130  1  0  0  0
 56 69  2  0  0  0
 57 58  2  0  0  0
 57131  1  0  0  0
 58132  1  0  0  0
 59 60  1  0  0  0
 59 61  1  0  0  0
 59 62  1  0  0  0
 60133  1  0  0  0
 60134  1  0  0  0
 60135  1  0  0  0
 61136  1  0  0  0
 61137  1  0  0  0
 61138  1  0  0  0
 62139  1  0  0  0
 62140  1  0  0  0
 62141  1  0  0  0
 63 65  1  0  0  0
 63142  1  0  0  0
 63143  1  0  0  0
 63144  1  0  0  0
 64145  1  0  0  0
 65146  1  0  0  0
 68 81  1  0  0  0
 71 73  2  0  0  0
 71 75  1  0  0  0
 71147  1  0  0  0
 72 74  1  0  0  0
 72 75  2  0  0  0
 72148  1  0  0  0
 73 76  1  0  0  0
 73149  1  0  0  0
 74 76  2  0  0  0
 74150  1  0  0  0
 75 84  1  0  0  0
 76 85  1  0  0  0
 77 78  1  0  0  0
 77151  1  0  0  0
 77152  1  0  0  0
 77 80  1  0  0  0
 78 81  1  0  0  0
 78153  1  0  0  0
 78154  1  0  0  0
 79 80  1  0  0  0
 79 81  1  0  0  0
 79155  1  0  0  0
 79156  1  0  0  0
 80 87  1  0  0  0
 80157  1  0  0  0
 81158  1  0  0  0
 82 86  1  0  0  0
 82159  1  0  0  0
 82160  1  0  0  0
 82161  1  0  0  0
 83162  1  0  0  0
 83163  1  0  0  0
 83164  1  0  0  0
 83 87  1  0  0  0
 84 86  1  0  0  0
 84165  1  0  0  0
 84166  1  0  0  0
 85 87  1  0  0  0
 85167  1  0  0  0
 85168  1  0  0  0
 87169  1  0  0  0
M  CHG  1  87   1
M  ISO  4   1 100  68 101  81 101  86 100
M  END
> <chiral flag>
0

> <version>
0

> <s_m_source_file>
/data/baiqing/PycharmProjects/Reinvent-master-3.2/result/LINK_invent/BTK/process_docking_weight1_custom_product_contain_oxygen_bond_distance_aromatic_linkinvent_7_9_3/rearranged_h_0020.sdf

> <i_m_source_file_index>
96

> <r_mmod_Potential_Energy-OPLS-2005>
-6.28957843780518

> <r_mmod_Stretch_Energy-OPLS-2005>
34.704216003418

> <r_mmod_Bend_Energy-OPLS-2005>
124.752624511719

> <r_mmod_Torsional_Energy-OPLS-2005>
304.2705078125

> <r_mmod_Improper_Torsional_Energy-OPLS-2005>
7.24358081817627

> <r_mmod_Van_der_Waal_Energy-OPLS-2005>
160.749008178711

> <r_mmod_Electrostatic_Energy-OPLS-2005>
-219.213500976562

> <r_mmod_Solvation_Energy-OPLS-2005>
-427.078704833984

> <b_mmod_Minimization_Converged-OPLS-2005>
0

> <r_mmod_RMS_Derivative-OPLS-2005>
1.55066311359406

$$$$
97
                    3D
 Structure written by MMmdl.
165173  0  0  1  0            999 V2000
  -30.6464  -14.5882   20.5271 C   0  0  0  0  0  0
  -30.4282  -12.3742   19.4507 C   0  0  0  0  0  0
  -29.5089  -12.5232   18.2188 C   0  0  0  0  0  0
  -28.0215  -12.3850   18.6034 C   0  0  0  0  0  0
  -27.6503  -13.2156   19.8594 C   0  0  2  0  0  0
  -28.6859  -13.0364   20.9864 C   0  0  0  0  0  0
  -25.2567  -13.8196   20.5654 C   0  0  0  0  0  0
  -24.1824  -13.0480   20.9146 C   0  0  0  0  0  0
  -24.6347  -11.6934   20.8682 C   0  0  0  0  0  0
  -23.9008  -10.4320   21.0397 C   0  0  0  0  0  0
  -24.3585   -9.4246   21.9172 C   0  0  0  0  0  0
  -23.6295   -8.2264   22.0743 C   0  0  0  0  0  0
  -22.4262   -8.0317   21.3563 C   0  0  0  0  0  0
  -21.9885   -9.0255   20.4624 C   0  0  0  0  0  0
  -22.7188  -10.2148   20.3040 C   0  0  0  0  0  0
  -21.6853   -6.0762   22.5295 C   0  0  0  0  0  0
  -21.4002   -6.5652   23.8223 C   0  0  0  0  0  0
  -21.3666   -5.6800   24.9175 C   0  0  0  0  0  0
  -21.6042   -4.3076   24.7201 C   0  0  0  0  0  0
  -21.8804   -3.8161   23.4315 C   0  0  0  0  0  0
  -21.9189   -4.6980   22.3381 C   0  0  0  0  0  0
  -22.7872  -13.5278   21.1860 C   0  0  0  0  0  0
  -22.1679   -4.2193   21.0938 F   0  0  0  0  0  0
  -21.5637   -3.4522   25.7685 F   0  0  0  0  0  0
  -30.0043  -13.3836   20.4382 N   0  0  0  0  0  0
  -26.2942  -12.9339   20.3240 N   0  0  0  0  0  0
  -25.9259  -11.6502   20.5648 N   0  0  0  0  0  0
  -22.0541  -12.8238   22.0413 N   0  0  0  0  0  0
  -25.4401  -15.1919   20.4166 N   0  0  0  0  0  0
  -31.8135  -14.7265   20.1590 O   0  0  0  0  0  0
  -21.6648   -6.8912   21.4263 O   0  0  0  0  0  0
  -22.3520  -14.5576   20.6732 O   0  0  0  0  0  0
  -24.6258  -31.8651   23.2054 C   0  0  0  0  0  0
  -25.9135  -32.4791   23.8374 C   0  0  1  0  0  0
  -27.2045  -27.3593   20.0960 C   0  0  0  0  0  0
  -25.5961  -33.8585   24.2305 N   0  0  0  0  0  0
  -23.4126  -30.4994   21.5460 C   0  0  2  0  0  0
  -24.8503  -28.9625   20.1084 C   0  0  0  0  0  0
  -22.7465  -29.4707   22.4896 C   0  0  0  0  0  0
  -18.0289  -28.1400   22.8445 C   0  0  0  0  0  0
  -24.1498  -36.7311   23.2642 C   0  0  0  0  0  0
  -25.9514  -30.8118   21.3652 C   0  0  0  0  0  0
  -26.0212  -29.4417   20.7089 C   0  0  0  0  0  0
  -27.2035  -28.6499   20.6976 C   0  0  0  0  0  0
  -26.0048  -26.9274   19.4807 C   0  0  0  0  0  0
  -24.8408  -27.7081   19.4876 C   0  0  0  0  0  0
  -23.6215  -29.8416   20.1587 C   0  0  0  0  0  0
  -25.4107  -36.3084   24.0337 C   0  0  1  0  0  0
  -20.5900  -28.3736   23.1221 C   0  0  2  0  0  0
  -20.6766  -26.9444   22.5394 C   0  0  0  0  0  0
  -19.5753  -26.6390   21.5184 C   0  0  0  0  0  0
  -18.1932  -26.7934   22.1592 C   0  0  0  0  0  0
  -19.1546  -28.8866   23.2837 C   0  0  0  0  0  0
  -18.9483  -30.1461   23.8869 C   0  0  0  0  0  0
  -17.6484  -30.6584   24.0578 C   0  0  0  0  0  0
  -25.9044  -34.9455   23.5109 C   0  0  0  0  0  0
  -16.5368  -29.9099   23.6328 C   0  0  0  0  0  0
  -16.7275  -28.6532   23.0302 C   0  0  0  0  0  0
  -26.4521  -31.6563   25.0725 C   0  0  0  0  0  0
  -25.3753  -31.3668   26.1441 C   0  0  0  0  0  0
  -27.0378  -30.3000   24.6140 C   0  0  0  0  0  0
  -27.6098  -32.4268   25.7493 C   0  0  0  0  0  0
  -27.5580  -37.1813   24.8458 C   0  0  0  0  0  0
  -21.4182  -29.3109   22.3631 N   0  0  0  0  0  0
  -26.4277  -37.3791   23.9408 N   0  0  0  0  0  0
  -24.6824  -31.0729   22.0975 N   0  0  0  0  0  0
  -23.4197  -28.8218   23.2932 O   0  0  0  0  0  0
  -28.3255  -26.5268   20.1252 O   0  0  0  0  0  0
  -26.5617  -34.8934   22.4681 O   0  0  0  0  0  0
  -23.5432  -32.1422   23.7425 O   0  0  0  0  0  0
  -29.4151  -15.7091   23.0633 C   0  0  0  0  0  0
  -28.8876  -16.2776   24.2331 C   0  0  0  0  0  0
  -28.4772  -18.3375   23.0293 C   0  0  0  0  0  0
  -29.0476  -17.8103   21.8372 C   0  0  0  0  0  0
  -29.4646  -16.4203   21.8361 C   0  0  0  0  0  0
  -28.3934  -17.5883   24.2117 C   0  0  0  0  0  0
  -32.1447  -19.8973   20.6007 C   0  0  0  0  0  0
  -29.1475  -18.8212   20.6564 C   0  0  0  0  0  0
  -28.9052  -22.6769   20.9190 C   0  0  0  0  0  0
  -29.2381  -24.0835   20.2820 C   0  0  0  0  0  0
  -31.0282  -20.1850   21.6287 C   0  0  0  0  0  0
  -29.3669  -21.3678   20.1665 C   0  0  0  0  0  0
  -28.0442  -25.0897   20.1779 C   0  0  0  0  0  0
  -29.8716  -15.7073   20.6472 N   0  0  0  0  0  0
  -29.6395  -20.1914   21.0776 N   0  3  1  0  0  0
  -27.7136  -18.2859   25.6381 Cl  0  0  0  0  0  0
  -31.4728  -12.4893   19.1565 H   0  0  0  0  0  0
  -30.3568  -11.3739   19.8757 H   0  0  0  0  0  0
  -29.7679  -11.7770   17.4652 H   0  0  0  0  0  0
  -29.6684  -13.4991   17.7538 H   0  0  0  0  0  0
  -27.8084  -11.3266   18.7658 H   0  0  0  0  0  0
  -27.3983  -12.6982   17.7638 H   0  0  0  0  0  0
  -27.6779  -14.2614   19.5517 H   0  0  0  0  0  0
  -28.6995  -12.0066   21.3440 H   0  0  0  0  0  0
  -28.4062  -13.6523   21.8362 H   0  0  0  0  0  0
  -25.2738   -9.5713   22.4732 H   0  0  0  0  0  0
  -24.0040   -7.4601   22.7365 H   0  0  0  0  0  0
  -21.0888   -8.8697   19.8831 H   0  0  0  0  0  0
  -22.3669  -10.9669   19.6117 H   0  0  0  0  0  0
  -21.2001   -7.6156   23.9737 H   0  0  0  0  0  0
  -21.1539   -6.0537   25.9093 H   0  0  0  0  0  0
  -22.0579   -2.7633   23.2779 H   0  0  0  0  0  0
  -22.4200  -11.9856   22.4690 H   0  0  0  0  0  0
  -21.1106  -13.1152   22.2569 H   0  0  0  0  0  0
  -24.7043  -15.8750   20.5613 H   0  0  0  0  0  0
  -26.3307  -15.6135   20.1848 H   0  0  0  0  0  0
  -26.7207  -32.5475   23.1129 H   0  0  0  0  0  0
  -25.0134  -33.9704   25.0464 H   0  0  0  0  0  0
  -22.7069  -31.3219   21.4090 H   0  0  0  0  0  0
  -23.3759  -35.9651   23.3281 H   0  0  0  0  0  0
  -24.3591  -36.8954   22.2062 H   0  0  0  0  0  0
  -23.7246  -37.6511   23.6663 H   0  0  0  0  0  0
  -26.0671  -31.5727   20.5911 H   0  0  0  0  0  0
  -26.8390  -30.8665   21.9843 H   0  0  0  0  0  0
  -28.0995  -29.0102   21.1822 H   0  0  0  0  0  0
  -25.9211  -25.9789   18.9786 H   0  0  0  0  0  0
  -23.9409  -27.3390   19.0140 H   0  0  0  0  0  0
  -23.7358  -30.6184   19.4017 H   0  0  0  0  0  0
  -22.7418  -29.2703   19.8598 H   0  0  0  0  0  0
  -25.1284  -36.1943   25.0832 H   0  0  0  0  0  0
  -20.9985  -28.3335   24.1339 H   0  0  0  0  0  0
  -20.5591  -26.2389   23.3630 H   0  0  0  0  0  0
  -21.6641  -26.7419   22.1234 H   0  0  0  0  0  0
  -19.6918  -25.6289   21.1235 H   0  0  0  0  0  0
  -19.6671  -27.3188   20.6697 H   0  0  0  0  0  0
  -17.4195  -26.6669   21.4001 H   0  0  0  0  0  0
  -18.0342  -26.0072   22.8988 H   0  0  0  0  0  0
  -19.7957  -30.7287   24.2203 H   0  0  0  0  0  0
  -17.5039  -31.6242   24.5237 H   0  0  0  0  0  0
  -15.5367  -30.3004   23.7644 H   0  0  0  0  0  0
  -15.8683  -28.0877   22.6965 H   0  0  0  0  0  0
  -24.5956  -30.6991   25.7751 H   0  0  0  0  0  0
  -24.8915  -32.2821   26.4863 H   0  0  0  0  0  0
  -25.8077  -30.8843   27.0214 H   0  0  0  0  0  0
  -26.2954  -29.6705   24.1222 H   0  0  0  0  0  0
  -27.4181  -29.7279   25.4615 H   0  0  0  0  0  0
  -27.8756  -30.4318   23.9288 H   0  0  0  0  0  0
  -27.2745  -33.3577   26.2071 H   0  0  0  0  0  0
  -28.3911  -32.6793   25.0311 H   0  0  0  0  0  0
  -28.0758  -31.8377   26.5401 H   0  0  0  0  0  0
  -28.2585  -38.0137   24.7525 H   0  0  0  0  0  0
  -28.1090  -36.2657   24.6226 H   0  0  0  0  0  0
  -27.2302  -37.1386   25.8871 H   0  0  0  0  0  0
  -20.9349  -29.8930   21.6935 H   0  0  0  0  0  0
  -26.0164  -38.2868   24.1423 H   0  0  0  0  0  0
  -29.7603  -14.6878   23.1365 H   0  0  0  0  0  0
  -28.8423  -15.7033   25.1457 H   0  0  0  0  0  0
  -28.0986  -19.3479   23.0655 H   0  0  0  0  0  0
  -33.0977  -19.7764   21.1171 H   0  0  0  0  0  0
  -32.2756  -20.7084   19.8851 H   0  0  0  0  0  0
  -31.9725  -18.9840   20.0352 H   0  0  0  0  0  0
  -28.1435  -18.9116   20.2393 H   0  0  0  0  0  0
  -29.7662  -18.4326   19.8499 H   0  0  0  0  0  0
  -27.8306  -22.6051   21.0925 H   0  0  0  0  0  0
  -29.3345  -22.6848   21.9220 H   0  0  0  0  0  0
  -29.6652  -23.9468   19.2893 H   0  0  0  0  0  0
  -30.0276  -24.5500   20.8712 H   0  0  0  0  0  0
  -31.2288  -21.1472   22.1042 H   0  0  0  0  0  0
  -31.0963  -19.4469   22.4288 H   0  0  0  0  0  0
  -30.2515  -21.5768   19.5688 H   0  0  0  0  0  0
  -28.5950  -21.1058   19.4417 H   0  0  0  0  0  0
  -27.3644  -24.9211   21.0154 H   0  0  0  0  0  0
  -27.5213  -24.7807   19.2748 H   0  0  0  0  0  0
  -30.0199  -16.3193   19.8598 H   0  0  0  0  0  0
  -29.0475  -20.3814   21.8716 H   0  0  0  0  0  0
  1 25  1  0  0  0
  1 30  2  0  0  0
  1 84  1  0  0  0
  2  3  1  0  0  0
  2 25  1  0  0  0
  2 87  1  0  0  0
  2 88  1  0  0  0
  3  4  1  0  0  0
  3 89  1  0  0  0
  3 90  1  0  0  0
  4  5  1  0  0  0
  4 91  1  0  0  0
  4 92  1  0  0  0
  5  6  1  0  0  0
  5 26  1  0  0  0
  5 93  1  0  0  0
  6 25  1  0  0  0
  6 94  1  0  0  0
  6 95  1  0  0  0
  7  8  2  0  0  0
  7 26  1  0  0  0
  7 29  1  0  0  0
  8  9  1  0  0  0
  8 22  1  0  0  0
  9 10  1  0  0  0
  9 27  2  0  0  0
 10 11  2  0  0  0
 10 15  1  0  0  0
 11 12  1  0  0  0
 11 96  1  0  0  0
 12 13  2  0  0  0
 12 97  1  0  0  0
 13 14  1  0  0  0
 13 31  1  0  0  0
 14 15  2  0  0  0
 14 98  1  0  0  0
 15 99  1  0  0  0
 16 17  2  0  0  0
 16 21  1  0  0  0
 16 31  1  0  0  0
 17 18  1  0  0  0
 17100  1  0  0  0
 18 19  2  0  0  0
 18101  1  0  0  0
 19 20  1  0  0  0
 19 24  1  0  0  0
 20 21  2  0  0  0
 20102  1  0  0  0
 21 23  1  0  0  0
 22 28  1  0  0  0
 22 32  2  0  0  0
 26 27  1  0  0  0
 28103  1  0  0  0
 28104  1  0  0  0
 29105  1  0  0  0
 29106  1  0  0  0
 33 34  1  0  0  0
 33 66  1  0  0  0
 33 70  2  0  0  0
 34 36  1  0  0  0
 34 59  1  0  0  0
 34107  1  0  0  0
 35 44  2  0  0  0
 35 45  1  0  0  0
 35 68  1  0  0  0
 36 56  1  0  0  0
 36108  1  0  0  0
 37 39  1  0  0  0
 37 47  1  0  0  0
 37 66  1  0  0  0
 37109  1  0  0  0
 38 43  2  0  0  0
 38 46  1  0  0  0
 38 47  1  0  0  0
 39 64  1  0  0  0
 39 67  2  0  0  0
 40 52  1  0  0  0
 40 53  2  0  0  0
 40 58  1  0  0  0
 41110  1  0  0  0
 41111  1  0  0  0
 41112  1  0  0  0
 41 48  1  0  0  0
 42 43  1  0  0  0
 42 66  1  0  0  0
 42113  1  0  0  0
 42114  1  0  0  0
 43 44  1  0  0  0
 44115  1  0  0  0
 45 46  2  0  0  0
 45116  1  0  0  0
 46117  1  0  0  0
 47118  1  0  0  0
 47119  1  0  0  0
 48 56  1  0  0  0
 48 65  1  0  0  0
 48120  1  0  0  0
 49 50  1  0  0  0
 49 53  1  0  0  0
 49 64  1  0  0  0
 49121  1  0  0  0
 50 51  1  0  0  0
 50122  1  0  0  0
 50123  1  0  0  0
 51 52  1  0  0  0
 51124  1  0  0  0
 51125  1  0  0  0
 52126  1  0  0  0
 52127  1  0  0  0
 53 54  1  0  0  0
 54 55  2  0  0  0
 54128  1  0  0  0
 55 57  1  0  0  0
 55129  1  0  0  0
 56 69  2  0  0  0
 57 58  2  0  0  0
 57130  1  0  0  0
 58131  1  0  0  0
 59 60  1  0  0  0
 59 61  1  0  0  0
 59 62  1  0  0  0
 60132  1  0  0  0
 60133  1  0  0  0
 60134  1  0  0  0
 61135  1  0  0  0
 61136  1  0  0  0
 61137  1  0  0  0
 62138  1  0  0  0
 62139  1  0  0  0
 62140  1  0  0  0
 63 65  1  0  0  0
 63141  1  0  0  0
 63142  1  0  0  0
 63143  1  0  0  0
 64144  1  0  0  0
 65145  1  0  0  0
 68 83  1  0  0  0
 71 72  2  0  0  0
 71 75  1  0  0  0
 71146  1  0  0  0
 72 76  1  0  0  0
 72147  1  0  0  0
 73 74  1  0  0  0
 73 76  2  0  0  0
 73148  1  0  0  0
 74 75  2  0  0  0
 74 78  1  0  0  0
 75 84  1  0  0  0
 76 86  1  0  0  0
 77 81  1  0  0  0
 77149  1  0  0  0
 77150  1  0  0  0
 77151  1  0  0  0
 78152  1  0  0  0
 78153  1  0  0  0
 78 85  1  0  0  0
 79 80  1  0  0  0
 79 82  1  0  0  0
 79154  1  0  0  0
 79155  1  0  0  0
 80 83  1  0  0  0
 80156  1  0  0  0
 80157  1  0  0  0
 81 85  1  0  0  0
 81158  1  0  0  0
 81159  1  0  0  0
 82 85  1  0  0  0
 82160  1  0  0  0
 82161  1  0  0  0
 83162  1  0  0  0
 83163  1  0  0  0
 84164  1  0  0  0
 85165  1  0  0  0
M  CHG  1  85   1
M  ISO  4   1 100  68 101  83 101  84 100
M  END
> <chiral flag>
0

> <version>
0

> <s_m_source_file>
/data/baiqing/PycharmProjects/Reinvent-master-3.2/result/LINK_invent/BTK/process_docking_weight1_custom_product_contain_oxygen_bond_distance_aromatic_linkinvent_7_9_3/rearranged_h_0020.sdf

> <i_m_source_file_index>
97

> <r_mmod_Potential_Energy-OPLS-2005>
-5.10602283477783

> <r_mmod_Stretch_Energy-OPLS-2005>
66.4394912719727

> <r_mmod_Bend_Energy-OPLS-2005>
139.035202026367

> <r_mmod_Torsional_Energy-OPLS-2005>
293.389892578125

> <r_mmod_Improper_Torsional_Energy-OPLS-2005>
13.3745956420898

> <r_mmod_Van_der_Waal_Energy-OPLS-2005>
150.030731201172

> <r_mmod_Electrostatic_Energy-OPLS-2005>
-240.243087768555

> <r_mmod_Solvation_Energy-OPLS-2005>
-462.044067382812

> <b_mmod_Minimization_Converged-OPLS-2005>
0

> <r_mmod_RMS_Derivative-OPLS-2005>
5.24093437194824

$$$$
