0
                    3D
 Structure written by MMmdl.
163172  0  0  1  0            999 V2000
  -30.6493  -14.6886   20.5481 C   0  0  0  0  0  0
  -30.4144  -12.4359   19.4710 C   0  0  0  0  0  0
  -29.4998  -12.5237   18.2308 C   0  0  0  0  0  0
  -28.0245  -12.3416   18.6372 C   0  0  0  0  0  0
  -27.6418  -13.2240   19.8526 C   0  0  2  0  0  0
  -28.6756  -13.1397   20.9921 C   0  0  0  0  0  0
  -25.2506  -13.8149   20.5664 C   0  0  0  0  0  0
  -24.1763  -13.0494   20.9138 C   0  0  0  0  0  0
  -24.6330  -11.6937   20.8752 C   0  0  0  0  0  0
  -23.9022  -10.4323   21.0455 C   0  0  0  0  0  0
  -24.3590   -9.4234   21.9223 C   0  0  0  0  0  0
  -23.6292   -8.2268   22.0785 C   0  0  0  0  0  0
  -22.4264   -8.0278   21.3585 C   0  0  0  0  0  0
  -21.9890   -9.0239   20.4666 C   0  0  0  0  0  0
  -22.7209  -10.2150   20.3087 C   0  0  0  0  0  0
  -21.6841   -6.0747   22.5280 C   0  0  0  0  0  0
  -21.4022   -6.5658   23.8205 C   0  0  0  0  0  0
  -21.3646   -5.6815   24.9155 C   0  0  0  0  0  0
  -21.6034   -4.3067   24.7228 C   0  0  0  0  0  0
  -21.8808   -3.8169   23.4334 C   0  0  0  0  0  0
  -21.9194   -4.6984   22.3403 C   0  0  0  0  0  0
  -22.7793  -13.5298   21.1815 C   0  0  0  0  0  0
  -22.1667   -4.2151   21.0986 F   0  0  0  0  0  0
  -21.5609   -3.4543   25.7747 F   0  0  0  0  0  0
  -29.9848  -13.4855   20.4318 N   0  0  0  0  0  0
  -26.2887  -12.9355   20.3216 N   0  0  0  0  0  0
  -25.9242  -11.6496   20.5735 N   0  0  0  0  0  0
  -22.0436  -12.8318   22.0370 N   0  0  0  0  0  0
  -25.4346  -15.1880   20.4074 N   0  0  0  0  0  0
  -31.7853  -14.7931   20.0746 O   0  0  0  0  0  0
  -21.6657   -6.8866   21.4240 O   0  0  0  0  0  0
  -22.3511  -14.5634   20.6640 O   0  0  0  0  0  0
  -24.6414  -31.8523   23.1928 C   0  0  0  0  0  0
  -25.9201  -32.4754   23.8299 C   0  0  1  0  0  0
  -27.2303  -27.2400   20.1028 C   0  0  0  0  0  0
  -25.5985  -33.8563   24.2260 N   0  0  0  0  0  0
  -23.4442  -30.4766   21.5392 C   0  0  2  0  0  0
  -24.8914  -28.9270   20.1020 C   0  0  0  0  0  0
  -22.7547  -29.4676   22.4853 C   0  0  0  0  0  0
  -18.0256  -28.1462   22.8322 C   0  0  0  0  0  0
  -24.1489  -36.7271   23.2635 C   0  0  0  0  0  0
  -25.9964  -30.7521   21.3851 C   0  0  0  0  0  0
  -26.0602  -29.3743   20.7217 C   0  0  0  0  0  0
  -27.2310  -28.5464   20.7095 C   0  0  0  0  0  0
  -26.0323  -26.8842   19.4338 C   0  0  0  0  0  0
  -24.8828  -27.6922   19.4402 C   0  0  0  0  0  0
  -23.6677  -29.8077   20.1595 C   0  0  0  0  0  0
  -25.4131  -36.3076   24.0336 C   0  0  1  0  0  0
  -20.5852  -28.3878   23.1150 C   0  0  2  0  0  0
  -20.6868  -26.9522   22.5376 C   0  0  0  0  0  0
  -19.5788  -26.6280   21.5259 C   0  0  0  0  0  0
  -18.2029  -26.7972   22.1532 C   0  0  0  0  0  0
  -19.1409  -28.9000   23.2772 C   0  0  0  0  0  0
  -18.9129  -30.1541   23.8893 C   0  0  0  0  0  0
  -17.6119  -30.6653   24.0514 C   0  0  0  0  0  0
  -25.9100  -34.9461   23.5084 C   0  0  0  0  0  0
  -16.5152  -29.9119   23.6134 C   0  0  0  0  0  0
  -16.7210  -28.6577   23.0149 C   0  0  0  0  0  0
  -26.4536  -31.6595   25.0709 C   0  0  0  0  0  0
  -25.3734  -31.3749   26.1401 C   0  0  0  0  0  0
  -27.0364  -30.3017   24.6262 C   0  0  0  0  0  0
  -27.6083  -32.4346   25.7477 C   0  0  0  0  0  0
  -27.5621  -37.1791   24.8488 C   0  0  0  0  0  0
  -21.4258  -29.3159   22.3455 N   0  0  0  0  0  0
  -26.4315  -37.3790   23.9397 N   0  0  0  0  0  0
  -24.7156  -31.0449   22.0940 N   0  0  0  0  0  0
  -23.4168  -28.8264   23.3052 O   0  0  0  0  0  0
  -28.3306  -26.3402   20.1667 O   0  0  0  0  0  0
  -26.5641  -34.8925   22.4645 O   0  0  0  0  0  0
  -23.5524  -32.1356   23.7191 O   0  0  0  0  0  0
  -29.1347  -18.0069   18.1617 C   0  0  0  0  0  0
  -29.0937  -19.3197   18.6709 C   0  0  0  0  0  0
  -29.3741  -16.8936   18.9887 C   0  0  0  0  0  0
  -29.4580  -18.4102   20.8833 C   0  0  0  0  0  0
  -29.1810  -19.5929   20.0567 C   0  0  0  0  0  0
  -29.6172  -17.0393   20.3759 C   0  0  0  0  0  0
  -28.9270  -23.7306   21.6698 C   0  0  0  0  0  0
  -28.6328  -23.6334   20.3607 C   0  0  0  0  0  0
  -29.1685  -22.5377   22.4928 C   0  0  0  0  0  0
  -29.6680  -16.5215   23.4691 C   0  0  0  0  0  0
  -30.3810  -15.9187   22.5021 C   0  0  0  0  0  0
  -28.6831  -21.1918   21.9401 C   0  0  0  0  0  0
  -28.6175  -22.1888   19.6618 C   0  0  2  0  0  0
  -27.2590  -21.9276   18.9656 C   0  0  0  0  0  0
  -28.3140  -24.9598   19.5353 C   0  0  0  0  0  0
  -28.9929  -20.9805   20.5200 N   0  0  0  0  0  0
  -30.0429  -15.8025   21.1381 N   0  0  0  0  0  0
  -29.7102  -22.5879   23.5989 O   0  0  0  0  0  0
  -31.4603  -12.5357   19.1718 H   0  0  0  0  0  0
  -30.3345  -11.4483   19.9307 H   0  0  0  0  0  0
  -29.7731  -11.7562   17.5044 H   0  0  0  0  0  0
  -29.6358  -13.4853   17.7282 H   0  0  0  0  0  0
  -27.8605  -11.2881   18.8721 H   0  0  0  0  0  0
  -27.3706  -12.5588   17.7943 H   0  0  0  0  0  0
  -27.6477  -14.2518   19.4885 H   0  0  0  0  0  0
  -28.6947  -12.1396   21.4245 H   0  0  0  0  0  0
  -28.4005  -13.8143   21.8011 H   0  0  0  0  0  0
  -25.2718   -9.5713   22.4795 H   0  0  0  0  0  0
  -23.9978   -7.4660   22.7513 H   0  0  0  0  0  0
  -21.0794   -8.8713   19.8982 H   0  0  0  0  0  0
  -22.3603  -10.9672   19.6177 H   0  0  0  0  0  0
  -21.2020   -7.6159   23.9692 H   0  0  0  0  0  0
  -21.1484   -6.0553   25.9046 H   0  0  0  0  0  0
  -22.0608   -2.7622   23.2842 H   0  0  0  0  0  0
  -22.4030  -11.9977   22.4746 H   0  0  0  0  0  0
  -21.1048  -13.1336   22.2523 H   0  0  0  0  0  0
  -24.6955  -15.8738   20.5082 H   0  0  0  0  0  0
  -26.3070  -15.5992   20.1017 H   0  0  0  0  0  0
  -26.7257  -32.5475   23.0999 H   0  0  0  0  0  0
  -25.0088  -33.9639   25.0445 H   0  0  0  0  0  0
  -22.7556  -31.3150   21.3906 H   0  0  0  0  0  0
  -23.3778  -35.9583   23.3285 H   0  0  0  0  0  0
  -24.3563  -36.8910   22.2048 H   0  0  0  0  0  0
  -23.7205  -37.6486   23.6646 H   0  0  0  0  0  0
  -26.1551  -31.5150   20.6257 H   0  0  0  0  0  0
  -26.8737  -30.7947   22.0178 H   0  0  0  0  0  0
  -28.1369  -28.9062   21.1818 H   0  0  0  0  0  0
  -25.9185  -25.9753   18.8730 H   0  0  0  0  0  0
  -23.9942  -27.3519   18.9210 H   0  0  0  0  0  0
  -23.7952  -30.5834   19.3995 H   0  0  0  0  0  0
  -22.7925  -29.2322   19.8574 H   0  0  0  0  0  0
  -25.1282  -36.1932   25.0834 H   0  0  0  0  0  0
  -21.0119  -28.3637   24.1236 H   0  0  0  0  0  0
  -20.6058  -26.2427   23.3583 H   0  0  0  0  0  0
  -21.6760  -26.7711   22.1147 H   0  0  0  0  0  0
  -19.6811  -25.6040   21.1527 H   0  0  0  0  0  0
  -19.6693  -27.2832   20.6623 H   0  0  0  0  0  0
  -18.0199  -26.0051   22.8783 H   0  0  0  0  0  0
  -17.4424  -26.6644   21.3845 H   0  0  0  0  0  0
  -19.7397  -30.7356   24.2538 H   0  0  0  0  0  0
  -17.4506  -31.6255   24.5343 H   0  0  0  0  0  0
  -15.5100  -30.2884   23.7530 H   0  0  0  0  0  0
  -15.8699  -28.0862   22.6646 H   0  0  0  0  0  0
  -24.5906  -30.7094   25.7695 H   0  0  0  0  0  0
  -24.8876  -32.2916   26.4811 H   0  0  0  0  0  0
  -25.7999  -30.8917   27.0212 H   0  0  0  0  0  0
  -26.2928  -29.6742   24.1282 H   0  0  0  0  0  0
  -27.4049  -29.7293   25.4804 H   0  0  0  0  0  0
  -27.8850  -30.4291   23.9501 H   0  0  0  0  0  0
  -27.2710  -33.3673   26.2032 H   0  0  0  0  0  0
  -28.3892  -32.6875   25.0276 H   0  0  0  0  0  0
  -28.0773  -31.8477   26.5414 H   0  0  0  0  0  0
  -28.2612  -38.0102   24.7538 H   0  0  0  0  0  0
  -28.1086  -36.2628   24.6269 H   0  0  0  0  0  0
  -27.2293  -37.1439   25.8873 H   0  0  0  0  0  0
  -20.9722  -29.8597   21.6283 H   0  0  0  0  0  0
  -26.0190  -38.2865   24.1422 H   0  0  0  0  0  0
  -28.9887  -17.8682   17.1012 H   0  0  0  0  0  0
  -28.9707  -20.1154   17.9509 H   0  0  0  0  0  0
  -29.4288  -15.9204   18.5190 H   0  0  0  0  0  0
  -29.5766  -18.5580   21.9413 H   0  0  0  0  0  0
  -28.9746  -24.6976   22.1406 H   0  0  0  0  0  0
  -30.0683  -16.5781   24.4740 H   0  0  0  0  0  0
  -28.6978  -16.9567   23.3022 H   0  0  0  0  0  0
  -31.3475  -15.4811   22.7511 H   0  0  0  0  0  0
  -27.6033  -21.1725   22.0710 H   0  0  0  0  0  0
  -29.0938  -20.4124   22.5747 H   0  0  0  0  0  0
  -29.3831  -22.2632   18.8870 H   0  0  0  0  0  0
  -26.5715  -21.3536   19.5969 H   0  0  0  0  0  0
  -27.3799  -21.3848   18.0302 H   0  0  0  0  0  0
  -26.7368  -22.8294   18.6686 H   0  0  0  0  0  0
  -27.3545  -24.7372   19.1053 H   0  0  0  0  0  0
  -28.9599  -24.9933   18.6621 H   0  0  0  0  0  0
  1 25  1  0  0  0
  1 30  2  0  0  0
  1 87  1  0  0  0
  2  3  1  0  0  0
  2 25  1  0  0  0
  2 89  1  0  0  0
  2 90  1  0  0  0
  3  4  1  0  0  0
  3 91  1  0  0  0
  3 92  1  0  0  0
  4  5  1  0  0  0
  4 93  1  0  0  0
  4 94  1  0  0  0
  5  6  1  0  0  0
  5 26  1  0  0  0
  5 95  1  0  0  0
  6 25  1  0  0  0
  6 96  1  0  0  0
  6 97  1  0  0  0
  7  8  2  0  0  0
  7 26  1  0  0  0
  7 29  1  0  0  0
  8  9  1  0  0  0
  8 22  1  0  0  0
  9 10  1  0  0  0
  9 27  2  0  0  0
 10 11  2  0  0  0
 10 15  1  0  0  0
 11 12  1  0  0  0
 11 98  1  0  0  0
 12 13  2  0  0  0
 12 99  1  0  0  0
 13 14  1  0  0  0
 13 31  1  0  0  0
 14 15  2  0  0  0
 14100  1  0  0  0
 15101  1  0  0  0
 16 17  2  0  0  0
 16 21  1  0  0  0
 16 31  1  0  0  0
 17 18  1  0  0  0
 17102  1  0  0  0
 18 19  2  0  0  0
 18103  1  0  0  0
 19 20  1  0  0  0
 19 24  1  0  0  0
 20 21  2  0  0  0
 20104  1  0  0  0
 21 23  1  0  0  0
 22 28  1  0  0  0
 22 32  2  0  0  0
 26 27  1  0  0  0
 28105  1  0  0  0
 28106  1  0  0  0
 29107  1  0  0  0
 29108  1  0  0  0
 33 34  1  0  0  0
 33 66  1  0  0  0
 33 70  2  0  0  0
 34 36  1  0  0  0
 34 59  1  0  0  0
 34109  1  0  0  0
 35 44  2  0  0  0
 35 45  1  0  0  0
 35 68  1  0  0  0
 36 56  1  0  0  0
 36110  1  0  0  0
 37 39  1  0  0  0
 37 47  1  0  0  0
 37 66  1  0  0  0
 37111  1  0  0  0
 38 43  2  0  0  0
 38 46  1  0  0  0
 38 47  1  0  0  0
 39 64  1  0  0  0
 39 67  2  0  0  0
 40 52  1  0  0  0
 40 53  2  0  0  0
 40 58  1  0  0  0
 41112  1  0  0  0
 41113  1  0  0  0
 41114  1  0  0  0
 41 48  1  0  0  0
 42 43  1  0  0  0
 42 66  1  0  0  0
 42115  1  0  0  0
 42116  1  0  0  0
 43 44  1  0  0  0
 44117  1  0  0  0
 45 46  2  0  0  0
 45118  1  0  0  0
 46119  1  0  0  0
 47120  1  0  0  0
 47121  1  0  0  0
 48 56  1  0  0  0
 48 65  1  0  0  0
 48122  1  0  0  0
 49 50  1  0  0  0
 49 53  1  0  0  0
 49 64  1  0  0  0
 49123  1  0  0  0
 50 51  1  0  0  0
 50124  1  0  0  0
 50125  1  0  0  0
 51 52  1  0  0  0
 51126  1  0  0  0
 51127  1  0  0  0
 52128  1  0  0  0
 52129  1  0  0  0
 53 54  1  0  0  0
 54 55  2  0  0  0
 54130  1  0  0  0
 55 57  1  0  0  0
 55131  1  0  0  0
 56 69  2  0  0  0
 57 58  2  0  0  0
 57132  1  0  0  0
 58133  1  0  0  0
 59 60  1  0  0  0
 59 61  1  0  0  0
 59 62  1  0  0  0
 60134  1  0  0  0
 60135  1  0  0  0
 60136  1  0  0  0
 61137  1  0  0  0
 61138  1  0  0  0
 61139  1  0  0  0
 62140  1  0  0  0
 62141  1  0  0  0
 62142  1  0  0  0
 63 65  1  0  0  0
 63143  1  0  0  0
 63144  1  0  0  0
 63145  1  0  0  0
 64146  1  0  0  0
 65147  1  0  0  0
 68 85  1  0  0  0
 71 72  2  0  0  0
 71 73  1  0  0  0
 71148  1  0  0  0
 72 75  1  0  0  0
 72149  1  0  0  0
 73 76  2  0  0  0
 73150  1  0  0  0
 74 75  2  0  0  0
 74 76  1  0  0  0
 74151  1  0  0  0
 75 86  1  0  0  0
 76 87  1  0  0  0
 77 78  2  0  0  0
 77 79  1  0  0  0
 77152  1  0  0  0
 78 83  1  0  0  0
 78 85  1  0  0  0
 79 82  1  0  0  0
 79 88  2  0  0  0
 80 81  2  0  0  0
 80153  1  0  0  0
 80154  1  0  0  0
 81 87  1  0  0  0
 81155  1  0  0  0
 82 86  1  0  0  0
 82156  1  0  0  0
 82157  1  0  0  0
 83 84  1  0  0  0
 83 86  1  0  0  0
 83158  1  0  0  0
 84159  1  0  0  0
 84160  1  0  0  0
 84161  1  0  0  0
 85162  1  0  0  0
 85163  1  0  0  0
M  ISO  4   1 100  68 101  85 101  87 100
M  END
> <chiral flag>
0

> <version>
0

> <s_m_source_file>
/data/baiqing/PycharmProjects/Reinvent-master-3.2/result/LINK_invent/BTK/process_docking_weight1_custom_product_contain_oxygen_bond_distance_aromatic_linkinvent_7_9_3/rearranged_h_0092.sdf

> <i_m_source_file_index>
1

> <r_mmod_Potential_Energy-OPLS-2005>
417.537536621094

> <r_mmod_Stretch_Energy-OPLS-2005>
159.171112060547

> <r_mmod_Bend_Energy-OPLS-2005>
201.216064453125

> <r_mmod_Torsional_Energy-OPLS-2005>
296.544982910156

> <r_mmod_Improper_Torsional_Energy-OPLS-2005>
4.74286079406738

> <r_mmod_Van_der_Waal_Energy-OPLS-2005>
172.561721801758

> <r_mmod_Electrostatic_Energy-OPLS-2005>
-274.184265136719

> <r_mmod_Solvation_Energy-OPLS-2005>
-220.608428955078

> <b_mmod_Minimization_Converged-OPLS-2005>
0

> <r_mmod_RMS_Derivative-OPLS-2005>
12.2085981369019

$$$$
1
                    3D
 Structure written by MMmdl.
158167  0  0  1  0            999 V2000
  -30.6539  -14.7087   20.5364 C   0  0  0  0  0  0
  -30.4266  -12.4532   19.4586 C   0  0  0  0  0  0
  -29.5056  -12.5498   18.2253 C   0  0  0  0  0  0
  -28.0296  -12.3712   18.6339 C   0  0  0  0  0  0
  -27.6458  -13.2379   19.8590 C   0  0  2  0  0  0
  -28.6915  -13.1278   20.9878 C   0  0  0  0  0  0
  -25.2448  -13.8180   20.5649 C   0  0  0  0  0  0
  -24.1748  -13.0412   20.9107 C   0  0  0  0  0  0
  -24.6383  -11.6912   20.8704 C   0  0  0  0  0  0
  -23.9072  -10.4286   21.0391 C   0  0  0  0  0  0
  -24.3629   -9.4211   21.9185 C   0  0  0  0  0  0
  -23.6302   -8.2248   22.0771 C   0  0  0  0  0  0
  -22.4288   -8.0281   21.3554 C   0  0  0  0  0  0
  -21.9918   -9.0247   20.4649 C   0  0  0  0  0  0
  -22.7250  -10.2122   20.3042 C   0  0  0  0  0  0
  -21.6839   -6.0734   22.5289 C   0  0  0  0  0  0
  -21.4006   -6.5636   23.8216 C   0  0  0  0  0  0
  -21.3649   -5.6788   24.9181 C   0  0  0  0  0  0
  -21.6051   -4.3048   24.7226 C   0  0  0  0  0  0
  -21.8814   -3.8148   23.4337 C   0  0  0  0  0  0
  -21.9188   -4.6970   22.3400 C   0  0  0  0  0  0
  -22.7760  -13.5171   21.1810 C   0  0  0  0  0  0
  -22.1650   -4.2149   21.0968 F   0  0  0  0  0  0
  -21.5641   -3.4536   25.7732 F   0  0  0  0  0  0
  -30.0023  -13.4938   20.4256 N   0  0  0  0  0  0
  -26.2948  -12.9449   20.3328 N   0  0  0  0  0  0
  -25.9334  -11.6567   20.5733 N   0  0  0  0  0  0
  -22.0427  -12.8155   22.0379 N   0  0  0  0  0  0
  -25.4036  -15.1911   20.4126 N   0  0  0  0  0  0
  -31.7625  -14.8581   20.0176 O   0  0  0  0  0  0
  -21.6647   -6.8887   21.4249 O   0  0  0  0  0  0
  -22.3413  -14.5483   20.6677 O   0  0  0  0  0  0
  -24.6264  -31.8570   23.1967 C   0  0  0  0  0  0
  -25.9121  -32.4740   23.8325 C   0  0  1  0  0  0
  -27.2278  -27.2804   20.1174 C   0  0  0  0  0  0
  -25.5933  -33.8550   24.2249 N   0  0  0  0  0  0
  -23.4230  -30.4751   21.5376 C   0  0  2  0  0  0
  -24.8720  -28.9205   20.1035 C   0  0  0  0  0  0
  -22.7489  -29.4603   22.4907 C   0  0  0  0  0  0
  -18.0291  -28.1376   22.8476 C   0  0  0  0  0  0
  -24.1484  -36.7270   23.2640 C   0  0  0  0  0  0
  -25.9631  -30.7734   21.3729 C   0  0  0  0  0  0
  -26.0370  -29.3941   20.7206 C   0  0  0  0  0  0
  -27.2088  -28.5786   20.7287 C   0  0  0  0  0  0
  -26.0428  -26.8635   19.4750 C   0  0  0  0  0  0
  -24.8796  -27.6623   19.4757 C   0  0  0  0  0  0
  -23.6397  -29.8058   20.1531 C   0  0  0  0  0  0
  -25.4106  -36.3055   24.0329 C   0  0  1  0  0  0
  -20.5886  -28.3685   23.1292 C   0  0  2  0  0  0
  -20.6766  -26.9411   22.5422 C   0  0  0  0  0  0
  -19.5748  -26.6377   21.5208 C   0  0  0  0  0  0
  -18.1927  -26.7912   22.1609 C   0  0  0  0  0  0
  -19.1546  -28.8845   23.2874 C   0  0  0  0  0  0
  -18.9468  -30.1438   23.8896 C   0  0  0  0  0  0
  -17.6467  -30.6572   24.0555 C   0  0  0  0  0  0
  -25.9062  -34.9437   23.5093 C   0  0  0  0  0  0
  -16.5352  -29.9075   23.6329 C   0  0  0  0  0  0
  -16.7276  -28.6497   23.0345 C   0  0  0  0  0  0
  -26.4480  -31.6561   25.0712 C   0  0  0  0  0  0
  -25.3698  -31.3716   26.1421 C   0  0  0  0  0  0
  -27.0312  -30.2983   24.6182 C   0  0  0  0  0  0
  -27.6037  -32.4277   25.7502 C   0  0  0  0  0  0
  -27.5583  -37.1785   24.8454 C   0  0  0  0  0  0
  -21.4194  -29.3027   22.3671 N   0  0  0  0  0  0
  -26.4268  -37.3778   23.9426 N   0  0  0  0  0  0
  -24.6892  -31.0550   22.0921 N   0  0  0  0  0  0
  -23.4218  -28.8191   23.3013 O   0  0  0  0  0  0
  -28.3433  -26.4279   20.2232 O   0  0  0  0  0  0
  -26.5641  -34.8925   22.4667 O   0  0  0  0  0  0
  -23.5416  -32.1388   23.7274 O   0  0  0  0  0  0
  -30.1855  -19.4653   20.0195 C   0  0  0  0  0  0
  -30.5793  -18.0950   20.2454 C   0  0  0  0  0  0
  -27.0014  -23.1103   19.5457 C   0  0  0  0  0  0
  -27.9945  -18.9546   20.7942 C   0  0  0  0  0  0
  -28.2734  -23.7234   19.7358 C   0  0  0  0  0  0
  -28.8716  -19.9606   20.2914 C   0  0  0  0  0  0
  -29.6819  -17.1048   20.7531 C   0  0  0  0  0  0
  -28.3730  -17.5948   21.0073 C   0  0  0  0  0  0
  -27.1091  -21.7512   19.7049 C   0  0  0  0  0  0
  -29.0910  -22.6274   20.0729 C   0  0  0  0  0  0
  -30.4981  -14.6963   23.4520 C   0  0  0  0  0  0
  -30.0783  -15.7037   22.6591 C   0  0  0  0  0  0
  -28.5950  -25.2441   19.3567 C   0  0  0  0  0  0
  -28.4102  -21.3654   20.0537 N   0  0  0  0  0  0
  -30.0622  -15.7505   21.2441 N   0  0  0  0  0  0
  -26.1183  -20.8390   19.4999 O   0  0  0  0  0  0
  -30.4246  -22.6530   20.3515 O   0  0  0  0  0  0
  -27.4539  -16.7435   21.5184 F   0  0  0  0  0  0
  -31.4689  -12.5706   19.1588 H   0  0  0  0  0  0
  -30.3590  -11.4606   19.9058 H   0  0  0  0  0  0
  -29.7851  -11.8036   17.4804 H   0  0  0  0  0  0
  -29.6334  -13.5196   17.7404 H   0  0  0  0  0  0
  -27.8686  -11.3149   18.8534 H   0  0  0  0  0  0
  -27.3759  -12.6065   17.7947 H   0  0  0  0  0  0
  -27.6493  -14.2723   19.5146 H   0  0  0  0  0  0
  -28.7175  -12.1145   21.3942 H   0  0  0  0  0  0
  -28.4023  -13.7763   21.8130 H   0  0  0  0  0  0
  -25.2783   -9.5685   22.4738 H   0  0  0  0  0  0
  -24.0015   -7.4631   22.7468 H   0  0  0  0  0  0
  -21.0857   -8.8744   19.8935 H   0  0  0  0  0  0
  -22.3716  -10.9648   19.6118 H   0  0  0  0  0  0
  -21.1987   -7.6149   23.9717 H   0  0  0  0  0  0
  -21.1476   -6.0526   25.9087 H   0  0  0  0  0  0
  -22.0601   -2.7610   23.2834 H   0  0  0  0  0  0
  -22.4088  -11.9839   22.4761 H   0  0  0  0  0  0
  -21.1060  -13.1187   22.2641 H   0  0  0  0  0  0
  -24.6408  -15.8332   20.5988 H   0  0  0  0  0  0
  -26.3101  -15.6479   20.4268 H   0  0  0  0  0  0
  -26.7190  -32.5392   23.1064 H   0  0  0  0  0  0
  -25.0044  -33.9693   25.0367 H   0  0  0  0  0  0
  -22.7143  -31.2930   21.3934 H   0  0  0  0  0  0
  -23.3762  -35.9583   23.3248 H   0  0  0  0  0  0
  -24.3579  -36.8949   22.2067 H   0  0  0  0  0  0
  -23.7225  -37.6457   23.6681 H   0  0  0  0  0  0
  -26.0939  -31.5337   20.6018 H   0  0  0  0  0  0
  -26.8409  -30.8278   22.0048 H   0  0  0  0  0  0
  -28.0949  -28.9273   21.2412 H   0  0  0  0  0  0
  -25.9880  -25.8951   19.0042 H   0  0  0  0  0  0
  -23.9841  -27.2967   18.9925 H   0  0  0  0  0  0
  -23.7583  -30.5790   19.3933 H   0  0  0  0  0  0
  -22.7570  -29.2361   19.8545 H   0  0  0  0  0  0
  -25.1284  -36.1880   25.0818 H   0  0  0  0  0  0
  -20.9983  -28.3246   24.1411 H   0  0  0  0  0  0
  -20.5646  -26.2303   23.3619 H   0  0  0  0  0  0
  -21.6636  -26.7408   22.1236 H   0  0  0  0  0  0
  -19.6911  -25.6298   21.1235 H   0  0  0  0  0  0
  -19.6692  -27.3188   20.6731 H   0  0  0  0  0  0
  -17.4216  -26.6677   21.4000 H   0  0  0  0  0  0
  -18.0318  -26.0052   22.9000 H   0  0  0  0  0  0
  -19.7937  -30.7231   24.2280 H   0  0  0  0  0  0
  -17.5027  -31.6240   24.5173 H   0  0  0  0  0  0
  -15.5362  -30.2962   23.7661 H   0  0  0  0  0  0
  -15.8686  -28.0806   22.7060 H   0  0  0  0  0  0
  -24.5882  -30.7059   25.7755 H   0  0  0  0  0  0
  -24.8855  -32.2877   26.4809 H   0  0  0  0  0  0
  -25.8002  -30.8925   27.0234 H   0  0  0  0  0  0
  -26.2889  -29.6741   24.1200 H   0  0  0  0  0  0
  -27.4001  -29.7230   25.4690 H   0  0  0  0  0  0
  -27.8756  -30.4240   23.9398 H   0  0  0  0  0  0
  -27.2653  -33.3581   26.2061 H   0  0  0  0  0  0
  -28.3869  -32.6833   25.0354 H   0  0  0  0  0  0
  -28.0676  -31.8408   26.5437 H   0  0  0  0  0  0
  -28.2550  -38.0139   24.7554 H   0  0  0  0  0  0
  -28.1130  -36.2669   24.6172 H   0  0  0  0  0  0
  -27.2318  -37.1299   25.8864 H   0  0  0  0  0  0
  -20.9396  -29.8740   21.6859 H   0  0  0  0  0  0
  -26.0128  -38.2846   24.1461 H   0  0  0  0  0  0
  -30.9240  -20.1589   19.6440 H   0  0  0  0  0  0
  -31.6095  -17.8240   20.0638 H   0  0  0  0  0  0
  -26.1035  -23.6188   19.2242 H   0  0  0  0  0  0
  -26.9808  -19.2162   21.0568 H   0  0  0  0  0  0
  -30.4486  -14.8013   24.5261 H   0  0  0  0  0  0
  -30.8934  -13.7627   23.0809 H   0  0  0  0  0  0
  -29.7016  -16.6070   23.1233 H   0  0  0  0  0  0
  -28.1533  -25.4425   18.3795 H   0  0  0  0  0  0
  -29.6666  -25.2669   19.1610 H   0  0  0  0  0  0
  -25.3180  -21.3211   19.3115 H   0  0  0  0  0  0
  -30.6986  -23.5643   20.3909 H   0  0  0  0  0  0
  1 25  1  0  0  0
  1 30  2  0  0  0
  1 85  1  0  0  0
  2  3  1  0  0  0
  2 25  1  0  0  0
  2 89  1  0  0  0
  2 90  1  0  0  0
  3  4  1  0  0  0
  3 91  1  0  0  0
  3 92  1  0  0  0
  4  5  1  0  0  0
  4 93  1  0  0  0
  4 94  1  0  0  0
  5  6  1  0  0  0
  5 26  1  0  0  0
  5 95  1  0  0  0
  6 25  1  0  0  0
  6 96  1  0  0  0
  6 97  1  0  0  0
  7  8  2  0  0  0
  7 26  1  0  0  0
  7 29  1  0  0  0
  8  9  1  0  0  0
  8 22  1  0  0  0
  9 10  1  0  0  0
  9 27  2  0  0  0
 10 11  2  0  0  0
 10 15  1  0  0  0
 11 12  1  0  0  0
 11 98  1  0  0  0
 12 13  2  0  0  0
 12 99  1  0  0  0
 13 14  1  0  0  0
 13 31  1  0  0  0
 14 15  2  0  0  0
 14100  1  0  0  0
 15101  1  0  0  0
 16 17  2  0  0  0
 16 21  1  0  0  0
 16 31  1  0  0  0
 17 18  1  0  0  0
 17102  1  0  0  0
 18 19  2  0  0  0
 18103  1  0  0  0
 19 20  1  0  0  0
 19 24  1  0  0  0
 20 21  2  0  0  0
 20104  1  0  0  0
 21 23  1  0  0  0
 22 28  1  0  0  0
 22 32  2  0  0  0
 26 27  1  0  0  0
 28105  1  0  0  0
 28106  1  0  0  0
 29107  1  0  0  0
 29108  1  0  0  0
 33 34  1  0  0  0
 33 66  1  0  0  0
 33 70  2  0  0  0
 34 36  1  0  0  0
 34 59  1  0  0  0
 34109  1  0  0  0
 35 44  2  0  0  0
 35 45  1  0  0  0
 35 68  1  0  0  0
 36 56  1  0  0  0
 36110  1  0  0  0
 37 39  1  0  0  0
 37 47  1  0  0  0
 37 66  1  0  0  0
 37111  1  0  0  0
 38 43  2  0  0  0
 38 46  1  0  0  0
 38 47  1  0  0  0
 39 64  1  0  0  0
 39 67  2  0  0  0
 40 52  1  0  0  0
 40 53  2  0  0  0
 40 58  1  0  0  0
 41112  1  0  0  0
 41113  1  0  0  0
 41114  1  0  0  0
 41 48  1  0  0  0
 42 43  1  0  0  0
 42 66  1  0  0  0
 42115  1  0  0  0
 42116  1  0  0  0
 43 44  1  0  0  0
 44117  1  0  0  0
 45 46  2  0  0  0
 45118  1  0  0  0
 46119  1  0  0  0
 47120  1  0  0  0
 47121  1  0  0  0
 48 56  1  0  0  0
 48 65  1  0  0  0
 48122  1  0  0  0
 49 50  1  0  0  0
 49 53  1  0  0  0
 49 64  1  0  0  0
 49123  1  0  0  0
 50 51  1  0  0  0
 50124  1  0  0  0
 50125  1  0  0  0
 51 52  1  0  0  0
 51126  1  0  0  0
 51127  1  0  0  0
 52128  1  0  0  0
 52129  1  0  0  0
 53 54  1  0  0  0
 54 55  2  0  0  0
 54130  1  0  0  0
 55 57  1  0  0  0
 55131  1  0  0  0
 56 69  2  0  0  0
 57 58  2  0  0  0
 57132  1  0  0  0
 58133  1  0  0  0
 59 60  1  0  0  0
 59 61  1  0  0  0
 59 62  1  0  0  0
 60134  1  0  0  0
 60135  1  0  0  0
 60136  1  0  0  0
 61137  1  0  0  0
 61138  1  0  0  0
 61139  1  0  0  0
 62140  1  0  0  0
 62141  1  0  0  0
 62142  1  0  0  0
 63 65  1  0  0  0
 63143  1  0  0  0
 63144  1  0  0  0
 63145  1  0  0  0
 64146  1  0  0  0
 65147  1  0  0  0
 68 83  1  0  0  0
 71 72  2  0  0  0
 71 76  1  0  0  0
 71148  1  0  0  0
 72 77  1  0  0  0
 72149  1  0  0  0
 73 75  1  0  0  0
 73 79  2  0  0  0
 73150  1  0  0  0
 74 76  2  0  0  0
 74 78  1  0  0  0
 74151  1  0  0  0
 75 80  2  0  0  0
 75 83  1  0  0  0
 76 84  1  0  0  0
 77 78  2  0  0  0
 77 85  1  0  0  0
 78 88  1  0  0  0
 79 84  1  0  0  0
 79 86  1  0  0  0
 80 84  1  0  0  0
 80 87  1  0  0  0
 81 82  2  0  0  0
 81152  1  0  0  0
 81153  1  0  0  0
 82 85  1  0  0  0
 82154  1  0  0  0
 83155  1  0  0  0
 83156  1  0  0  0
 86157  1  0  0  0
 87158  1  0  0  0
M  ISO  4   1 100  68 101  83 101  85 100
M  END
> <chiral flag>
0

> <version>
0

> <s_m_source_file>
/data/baiqing/PycharmProjects/Reinvent-master-3.2/result/LINK_invent/BTK/process_docking_weight1_custom_product_contain_oxygen_bond_distance_aromatic_linkinvent_7_9_3/rearranged_h_0092.sdf

> <i_m_source_file_index>
2

> <r_mmod_Potential_Energy-OPLS-2005>
340.417419433594

> <r_mmod_Stretch_Energy-OPLS-2005>
116.788177490234

> <r_mmod_Bend_Energy-OPLS-2005>
189.474456787109

> <r_mmod_Torsional_Energy-OPLS-2005>
322.382263183594

> <r_mmod_Improper_Torsional_Energy-OPLS-2005>
7.04993200302124

> <r_mmod_Van_der_Waal_Energy-OPLS-2005>
144.802963256836

> <r_mmod_Electrostatic_Energy-OPLS-2005>
-302.240570068359

> <r_mmod_Solvation_Energy-OPLS-2005>
-207.908966064453

> <b_mmod_Minimization_Converged-OPLS-2005>
0

> <r_mmod_RMS_Derivative-OPLS-2005>
3.68733716011047

$$$$
2
                    3D
 Structure written by MMmdl.
147155  0  0  1  0            999 V2000
  -30.5041  -15.1008   20.3277 C   0  0  0  0  0  0
  -30.4439  -12.6795   19.5082 C   0  0  0  0  0  0
  -29.5272  -12.5269   18.2699 C   0  0  0  0  0  0
  -28.0670  -12.2794   18.6965 C   0  0  0  0  0  0
  -27.6113  -13.2358   19.8269 C   0  0  2  0  0  0
  -28.6595  -13.3836   20.9480 C   0  0  0  0  0  0
  -25.2447  -13.8148   20.5786 C   0  0  0  0  0  0
  -24.1746  -13.0395   20.9263 C   0  0  0  0  0  0
  -24.6352  -11.6875   20.8790 C   0  0  0  0  0  0
  -23.9040  -10.4262   21.0430 C   0  0  0  0  0  0
  -24.3601   -9.4179   21.9200 C   0  0  0  0  0  0
  -23.6280   -8.2216   22.0757 C   0  0  0  0  0  0
  -22.4264   -8.0262   21.3543 C   0  0  0  0  0  0
  -21.9897   -9.0235   20.4647 C   0  0  0  0  0  0
  -22.7222  -10.2115   20.3066 C   0  0  0  0  0  0
  -21.6845   -6.0726   22.5280 C   0  0  0  0  0  0
  -21.4009   -6.5634   23.8212 C   0  0  0  0  0  0
  -21.3657   -5.6789   24.9176 C   0  0  0  0  0  0
  -21.6044   -4.3052   24.7229 C   0  0  0  0  0  0
  -21.8819   -3.8142   23.4351 C   0  0  0  0  0  0
  -21.9190   -4.6956   22.3405 C   0  0  0  0  0  0
  -22.7775  -13.5191   21.1898 C   0  0  0  0  0  0
  -22.1660   -4.2142   21.0983 F   0  0  0  0  0  0
  -21.5629   -3.4538   25.7743 F   0  0  0  0  0  0
  -29.9235  -13.8161   20.3307 N   0  0  0  0  0  0
  -26.2824  -12.9322   20.3302 N   0  0  0  0  0  0
  -25.9279  -11.6475   20.5786 N   0  0  0  0  0  0
  -22.0415  -12.8189   22.0451 N   0  0  0  0  0  0
  -25.4158  -15.1885   20.4250 N   0  0  0  0  0  0
  -31.7372  -15.1049   20.2287 O   0  0  0  0  0  0
  -21.6627   -6.8863   21.4239 O   0  0  0  0  0  0
  -22.3474  -14.5498   20.6732 O   0  0  0  0  0  0
  -24.6503  -31.8363   23.1825 C   0  0  0  0  0  0
  -25.9242  -32.4654   23.8241 C   0  0  1  0  0  0
  -27.2193  -27.0517   20.1663 C   0  0  0  0  0  0
  -25.5960  -33.8464   24.2149 N   0  0  0  0  0  0
  -23.4591  -30.4526   21.5287 C   0  0  2  0  0  0
  -24.9122  -28.8650   20.1109 C   0  0  0  0  0  0
  -22.7605  -29.4503   22.4826 C   0  0  0  0  0  0
  -18.0311  -28.1401   22.8472 C   0  0  0  0  0  0
  -24.1494  -36.7239   23.2647 C   0  0  0  0  0  0
  -26.0209  -30.6796   21.3992 C   0  0  0  0  0  0
  -26.0895  -29.2818   20.7446 C   0  0  0  0  0  0
  -27.2383  -28.3903   20.7598 C   0  0  0  0  0  0
  -26.0223  -26.7697   19.4688 C   0  0  0  0  0  0
  -24.8961  -27.6245   19.4565 C   0  0  0  0  0  0
  -23.6925  -29.7773   20.1504 C   0  0  0  0  0  0
  -25.4132  -36.3009   24.0308 C   0  0  1  0  0  0
  -20.5928  -28.3734   23.1214 C   0  0  2  0  0  0
  -20.6791  -26.9428   22.5403 C   0  0  0  0  0  0
  -19.5765  -26.6380   21.5212 C   0  0  0  0  0  0
  -18.1947  -26.7937   22.1623 C   0  0  0  0  0  0
  -19.1569  -28.8887   23.2833 C   0  0  0  0  0  0
  -18.9485  -30.1480   23.8864 C   0  0  0  0  0  0
  -17.6480  -30.6595   24.0556 C   0  0  0  0  0  0
  -25.9081  -34.9384   23.5041 C   0  0  0  0  0  0
  -16.5370  -29.9086   23.6339 C   0  0  0  0  0  0
  -16.7294  -28.6504   23.0359 C   0  0  0  0  0  0
  -26.4536  -31.6556   25.0721 C   0  0  0  0  0  0
  -25.3697  -31.3779   26.1401 C   0  0  0  0  0  0
  -27.0415  -30.2933   24.6383 C   0  0  0  0  0  0
  -27.6047  -32.4346   25.7512 C   0  0  0  0  0  0
  -27.5567  -37.1792   24.8475 C   0  0  0  0  0  0
  -21.4288  -29.3044   22.3574 N   0  0  0  0  0  0
  -26.4296  -37.3721   23.9388 N   0  0  0  0  0  0
  -24.7300  -31.0138   22.0907 N   0  0  0  0  0  0
  -23.4208  -28.8059   23.3013 O   0  0  0  0  0  0
  -28.2536  -26.0163   20.2284 O   0  0  0  0  0  0
  -26.5678  -34.8892   22.4627 O   0  0  0  0  0  0
  -23.5602  -32.1283   23.6990 O   0  0  0  0  0  0
  -28.0641  -17.5671   18.4992 C   0  0  0  0  0  0
  -28.7919  -16.4558   18.9665 C   0  0  0  0  0  0
  -28.2288  -18.8640   19.0211 C   0  0  0  0  0  0
  -29.7061  -16.5089   20.0404 C   0  0  0  0  0  0
  -29.1547  -19.1701   20.0436 C   0  0  0  0  0  0
  -29.8964  -17.9348   20.5335 C   0  0  0  0  0  0
  -28.8453  -23.3691   20.3107 C   0  0  0  0  0  0
  -28.0086  -24.5393   20.1868 C   0  0  0  0  0  0
  -28.4329  -21.8511   20.1790 C   0  0  0  0  0  0
  -29.2973  -20.7028   20.3825 N   0  0  0  0  0  0
  -27.2568  -21.6129   19.8990 O   0  0  0  0  0  0
  -30.8317  -18.1394   21.4920 F   0  0  0  0  0  0
  -31.4709  -12.8542   19.1843 H   0  0  0  0  0  0
  -30.4678  -11.7582   20.0924 H   0  0  0  0  0  0
  -29.8761  -11.7073   17.6403 H   0  0  0  0  0  0
  -29.5858  -13.4271   17.6572 H   0  0  0  0  0  0
  -27.9990  -11.2480   19.0446 H   0  0  0  0  0  0
  -27.3991  -12.3551   17.8376 H   0  0  0  0  0  0
  -27.5012  -14.1976   19.3491 H   0  0  0  0  0  0
  -28.7868  -12.4488   21.4958 H   0  0  0  0  0  0
  -28.3323  -14.1291   21.6745 H   0  0  0  0  0  0
  -25.2745   -9.5657   22.4777 H   0  0  0  0  0  0
  -23.9989   -7.4603   22.7472 H   0  0  0  0  0  0
  -21.0829   -8.8755   19.8951 H   0  0  0  0  0  0
  -22.3684  -10.9660   19.6179 H   0  0  0  0  0  0
  -21.2000   -7.6142   23.9714 H   0  0  0  0  0  0
  -21.1480   -6.0521   25.9078 H   0  0  0  0  0  0
  -22.0602   -2.7605   23.2855 H   0  0  0  0  0  0
  -22.4031  -11.9857   22.4851 H   0  0  0  0  0  0
  -21.1031  -13.1215   22.2649 H   0  0  0  0  0  0
  -24.6540  -15.8454   20.5528 H   0  0  0  0  0  0
  -26.2773  -15.6342   20.1350 H   0  0  0  0  0  0
  -26.7307  -32.5232   23.0961 H   0  0  0  0  0  0
  -25.0069  -33.9566   25.0272 H   0  0  0  0  0  0
  -22.7658  -31.2808   21.3677 H   0  0  0  0  0  0
  -23.3748  -35.9583   23.3332 H   0  0  0  0  0  0
  -24.3561  -36.8852   22.2056 H   0  0  0  0  0  0
  -23.7273  -37.6450   23.6676 H   0  0  0  0  0  0
  -26.1904  -31.4274   20.6234 H   0  0  0  0  0  0
  -26.8856  -30.7314   22.0489 H   0  0  0  0  0  0
  -28.1307  -28.7025   21.2835 H   0  0  0  0  0  0
  -25.9230  -25.8349   18.9382 H   0  0  0  0  0  0
  -24.0039  -27.3054   18.9350 H   0  0  0  0  0  0
  -23.8375  -30.5500   19.3945 H   0  0  0  0  0  0
  -22.8056  -29.2245   19.8358 H   0  0  0  0  0  0
  -25.1333  -36.1833   25.0804 H   0  0  0  0  0  0
  -21.0019  -28.3334   24.1336 H   0  0  0  0  0  0
  -20.5676  -26.2351   23.3631 H   0  0  0  0  0  0
  -21.6656  -26.7419   22.1207 H   0  0  0  0  0  0
  -19.6923  -25.6282   21.1264 H   0  0  0  0  0  0
  -19.6703  -27.3170   20.6725 H   0  0  0  0  0  0
  -17.4214  -26.6678   21.4029 H   0  0  0  0  0  0
  -18.0347  -26.0089   22.9030 H   0  0  0  0  0  0
  -19.7960  -30.7305   24.2221 H   0  0  0  0  0  0
  -17.5032  -31.6272   24.5165 H   0  0  0  0  0  0
  -15.5369  -30.2977   23.7681 H   0  0  0  0  0  0
  -15.8695  -28.0811   22.7096 H   0  0  0  0  0  0
  -24.5882  -30.7120   25.7721 H   0  0  0  0  0  0
  -24.8881  -32.2974   26.4738 H   0  0  0  0  0  0
  -25.7956  -30.9010   27.0237 H   0  0  0  0  0  0
  -26.3059  -29.6636   24.1366 H   0  0  0  0  0  0
  -27.3952  -29.7264   25.5006 H   0  0  0  0  0  0
  -27.9001  -30.4133   23.9773 H   0  0  0  0  0  0
  -27.2619  -33.3667   26.2017 H   0  0  0  0  0  0
  -28.3893  -32.6879   25.0369 H   0  0  0  0  0  0
  -28.0679  -31.8528   26.5491 H   0  0  0  0  0  0
  -28.2622  -38.0048   24.7441 H   0  0  0  0  0  0
  -28.1024  -36.2572   24.6413 H   0  0  0  0  0  0
  -27.2266  -37.1572   25.8876 H   0  0  0  0  0  0
  -20.9517  -29.8745   21.6730 H   0  0  0  0  0  0
  -26.0161  -38.2799   24.1339 H   0  0  0  0  0  0
  -27.3811  -17.4282   17.6721 H   0  0  0  0  0  0
  -28.6830  -15.5378   18.4133 H   0  0  0  0  0  0
  -27.6516  -19.6457   18.5526 H   0  0  0  0  0  0
  -29.8927  -23.5532   20.4975 H   0  0  0  0  0  0
  -26.9593  -24.3495   20.0210 H   0  0  0  0  0  0
  -30.1936  -20.9432   20.7838 H   0  0  0  0  0  0
  1 25  1  0  0  0
  1 30  2  0  0  0
  1 74  1  0  0  0
  2  3  1  0  0  0
  2 25  1  0  0  0
  2 83  1  0  0  0
  2 84  1  0  0  0
  3  4  1  0  0  0
  3 85  1  0  0  0
  3 86  1  0  0  0
  4  5  1  0  0  0
  4 87  1  0  0  0
  4 88  1  0  0  0
  5  6  1  0  0  0
  5 26  1  0  0  0
  5 89  1  0  0  0
  6 25  1  0  0  0
  6 90  1  0  0  0
  6 91  1  0  0  0
  7  8  2  0  0  0
  7 26  1  0  0  0
  7 29  1  0  0  0
  8  9  1  0  0  0
  8 22  1  0  0  0
  9 10  1  0  0  0
  9 27  2  0  0  0
 10 11  2  0  0  0
 10 15  1  0  0  0
 11 12  1  0  0  0
 11 92  1  0  0  0
 12 13  2  0  0  0
 12 93  1  0  0  0
 13 14  1  0  0  0
 13 31  1  0  0  0
 14 15  2  0  0  0
 14 94  1  0  0  0
 15 95  1  0  0  0
 16 17  2  0  0  0
 16 21  1  0  0  0
 16 31  1  0  0  0
 17 18  1  0  0  0
 17 96  1  0  0  0
 18 19  2  0  0  0
 18 97  1  0  0  0
 19 20  1  0  0  0
 19 24  1  0  0  0
 20 21  2  0  0  0
 20 98  1  0  0  0
 21 23  1  0  0  0
 22 28  1  0  0  0
 22 32  2  0  0  0
 26 27  1  0  0  0
 28 99  1  0  0  0
 28100  1  0  0  0
 29101  1  0  0  0
 29102  1  0  0  0
 33 34  1  0  0  0
 33 66  1  0  0  0
 33 70  2  0  0  0
 34 36  1  0  0  0
 34 59  1  0  0  0
 34103  1  0  0  0
 35 44  2  0  0  0
 35 45  1  0  0  0
 35 68  1  0  0  0
 36 56  1  0  0  0
 36104  1  0  0  0
 37 39  1  0  0  0
 37 47  1  0  0  0
 37 66  1  0  0  0
 37105  1  0  0  0
 38 43  2  0  0  0
 38 46  1  0  0  0
 38 47  1  0  0  0
 39 64  1  0  0  0
 39 67  2  0  0  0
 40 52  1  0  0  0
 40 53  2  0  0  0
 40 58  1  0  0  0
 41106  1  0  0  0
 41107  1  0  0  0
 41108  1  0  0  0
 41 48  1  0  0  0
 42 43  1  0  0  0
 42 66  1  0  0  0
 42109  1  0  0  0
 42110  1  0  0  0
 43 44  1  0  0  0
 44111  1  0  0  0
 45 46  2  0  0  0
 45112  1  0  0  0
 46113  1  0  0  0
 47114  1  0  0  0
 47115  1  0  0  0
 48 56  1  0  0  0
 48 65  1  0  0  0
 48116  1  0  0  0
 49 50  1  0  0  0
 49 53  1  0  0  0
 49 64  1  0  0  0
 49117  1  0  0  0
 50 51  1  0  0  0
 50118  1  0  0  0
 50119  1  0  0  0
 51 52  1  0  0  0
 51120  1  0  0  0
 51121  1  0  0  0
 52122  1  0  0  0
 52123  1  0  0  0
 53 54  1  0  0  0
 54 55  2  0  0  0
 54124  1  0  0  0
 55 57  1  0  0  0
 55125  1  0  0  0
 56 69  2  0  0  0
 57 58  2  0  0  0
 57126  1  0  0  0
 58127  1  0  0  0
 59 60  1  0  0  0
 59 61  1  0  0  0
 59 62  1  0  0  0
 60128  1  0  0  0
 60129  1  0  0  0
 60130  1  0  0  0
 61131  1  0  0  0
 61132  1  0  0  0
 61133  1  0  0  0
 62134  1  0  0  0
 62135  1  0  0  0
 62136  1  0  0  0
 63 65  1  0  0  0
 63137  1  0  0  0
 63138  1  0  0  0
 63139  1  0  0  0
 64140  1  0  0  0
 65141  1  0  0  0
 68 78  1  0  0  0
 71 72  2  0  0  0
 71 73  1  0  0  0
 71142  1  0  0  0
 72 74  1  0  0  0
 72143  1  0  0  0
 73 75  2  0  0  0
 73144  1  0  0  0
 74 76  2  0  0  0
 75 76  1  0  0  0
 75 80  1  0  0  0
 76 82  1  0  0  0
 77 78  2  0  0  0
 77 79  1  0  0  0
 77145  1  0  0  0
 78146  1  0  0  0
 79 80  1  0  0  0
 79 81  2  0  0  0
 80147  1  0  0  0
M  ISO  4   1 100  68 101  74 100  78 101
M  END
> <chiral flag>
0

> <version>
0

> <s_m_source_file>
/data/baiqing/PycharmProjects/Reinvent-master-3.2/result/LINK_invent/BTK/process_docking_weight1_custom_product_contain_oxygen_bond_distance_aromatic_linkinvent_7_9_3/rearranged_h_0092.sdf

> <i_m_source_file_index>
3

> <r_mmod_Potential_Energy-OPLS-2005>
721.086791992188

> <r_mmod_Stretch_Energy-OPLS-2005>
341.324737548828

> <r_mmod_Bend_Energy-OPLS-2005>
273.445770263672

> <r_mmod_Torsional_Energy-OPLS-2005>
227.581909179688

> <r_mmod_Improper_Torsional_Energy-OPLS-2005>
11.5001239776611

> <r_mmod_Van_der_Waal_Energy-OPLS-2005>
134.003616333008

> <r_mmod_Electrostatic_Energy-OPLS-2005>
-359.985076904297

> <r_mmod_Solvation_Energy-OPLS-2005>
-207.755020141602

> <b_mmod_Minimization_Converged-OPLS-2005>
0

> <r_mmod_RMS_Derivative-OPLS-2005>
0.25167441368103

$$$$
3
                    3D
 Structure written by MMmdl.
161169  0  0  1  0            999 V2000
  -30.7102  -14.5313   20.4811 C   0  0  0  0  0  0
  -30.4169  -12.3125   19.4569 C   0  0  0  0  0  0
  -29.5052  -12.4760   18.2225 C   0  0  0  0  0  0
  -28.0240  -12.3278   18.6265 C   0  0  0  0  0  0
  -27.6463  -13.2078   19.8469 C   0  0  2  0  0  0
  -28.6921  -13.0902   20.9805 C   0  0  0  0  0  0
  -25.2519  -13.8128   20.5598 C   0  0  0  0  0  0
  -24.1806  -13.0426   20.9217 C   0  0  0  0  0  0
  -24.6373  -11.6887   20.8782 C   0  0  0  0  0  0
  -23.9045  -10.4275   21.0426 C   0  0  0  0  0  0
  -24.3608   -9.4193   21.9192 C   0  0  0  0  0  0
  -23.6278   -8.2237   22.0765 C   0  0  0  0  0  0
  -22.4254   -8.0285   21.3553 C   0  0  0  0  0  0
  -21.9888   -9.0264   20.4663 C   0  0  0  0  0  0
  -22.7226  -10.2129   20.3069 C   0  0  0  0  0  0
  -21.6848   -6.0746   22.5268 C   0  0  0  0  0  0
  -21.4037   -6.5646   23.8211 C   0  0  0  0  0  0
  -21.3660   -5.6786   24.9164 C   0  0  0  0  0  0
  -21.6025   -4.3050   24.7198 C   0  0  0  0  0  0
  -21.8825   -3.8164   23.4314 C   0  0  0  0  0  0
  -21.9197   -4.6985   22.3380 C   0  0  0  0  0  0
  -22.7834  -13.5259   21.1857 C   0  0  0  0  0  0
  -22.1667   -4.2180   21.0953 F   0  0  0  0  0  0
  -21.5594   -3.4527   25.7712 F   0  0  0  0  0  0
  -30.0260  -13.3526   20.4215 N   0  0  0  0  0  0
  -26.2948  -12.9298   20.3240 N   0  0  0  0  0  0
  -25.9293  -11.6474   20.5776 N   0  0  0  0  0  0
  -22.0429  -12.8300   22.0409 N   0  0  0  0  0  0
  -25.4134  -15.1811   20.3784 N   0  0  0  0  0  0
  -31.9027  -14.5944   20.1793 O   0  0  0  0  0  0
  -21.6615   -6.8886   21.4231 O   0  0  0  0  0  0
  -22.3562  -14.5579   20.6699 O   0  0  0  0  0  0
  -24.6163  -31.8681   23.2076 C   0  0  0  0  0  0
  -25.9046  -32.4825   23.8388 C   0  0  1  0  0  0
  -27.2366  -27.4218   20.1159 C   0  0  0  0  0  0
  -25.5900  -33.8620   24.2327 N   0  0  0  0  0  0
  -23.4058  -30.4892   21.5480 C   0  0  2  0  0  0
  -24.8555  -28.9515   20.1164 C   0  0  0  0  0  0
  -22.7429  -29.4662   22.4987 C   0  0  0  0  0  0
  -18.0281  -28.1387   22.8494 C   0  0  0  0  0  0
  -24.1488  -36.7306   23.2639 C   0  0  0  0  0  0
  -25.9343  -30.8331   21.3600 C   0  0  0  0  0  0
  -26.0151  -29.4643   20.7115 C   0  0  0  0  0  0
  -27.2121  -28.7093   20.7024 C   0  0  0  0  0  0
  -26.0624  -26.9233   19.5141 C   0  0  0  0  0  0
  -24.8750  -27.6815   19.5123 C   0  0  0  0  0  0
  -23.6157  -29.8165   20.1645 C   0  0  0  0  0  0
  -25.4107  -36.3112   24.0343 C   0  0  1  0  0  0
  -20.5872  -28.3673   23.1317 C   0  0  2  0  0  0
  -20.6775  -26.9410   22.5420 C   0  0  0  0  0  0
  -19.5755  -26.6393   21.5221 C   0  0  0  0  0  0
  -18.1926  -26.7936   22.1623 C   0  0  0  0  0  0
  -19.1530  -28.8848   23.2903 C   0  0  0  0  0  0
  -18.9453  -30.1452   23.8917 C   0  0  0  0  0  0
  -17.6457  -30.6593   24.0564 C   0  0  0  0  0  0
  -25.9035  -34.9477   23.5136 C   0  0  0  0  0  0
  -16.5349  -29.9089   23.6333 C   0  0  0  0  0  0
  -16.7268  -28.6505   23.0355 C   0  0  0  0  0  0
  -26.4466  -31.6600   25.0711 C   0  0  0  0  0  0
  -25.3726  -31.3697   26.1454 C   0  0  0  0  0  0
  -27.0297  -30.3049   24.6072 C   0  0  0  0  0  0
  -27.6058  -32.4311   25.7457 C   0  0  0  0  0  0
  -27.5591  -37.1800   24.8462 C   0  0  0  0  0  0
  -21.4156  -29.3035   22.3718 N   0  0  0  0  0  0
  -26.4295  -37.3798   23.9419 N   0  0  0  0  0  0
  -24.6705  -31.0770   22.0980 N   0  0  0  0  0  0
  -23.4187  -28.8222   23.3055 O   0  0  0  0  0  0
  -28.3876  -26.6600   20.1130 O   0  0  0  0  0  0
  -26.5594  -34.8930   22.4697 O   0  0  0  0  0  0
  -23.5351  -32.1429   23.7466 O   0  0  0  0  0  0
  -27.8362  -17.9599   20.6513 C   0  0  0  0  0  0
  -29.7699  -19.4329   20.7116 C   0  0  0  0  0  0
  -29.2219  -18.1227   20.8691 C   0  0  0  0  0  0
  -27.0327  -19.0447   20.2537 C   0  0  0  0  0  0
  -27.5932  -20.3274   20.0893 C   0  0  0  0  0  0
  -28.9654  -20.5523   20.3621 C   0  0  0  0  0  0
  -29.8869  -15.7505   20.4679 C   0  0  0  0  0  0
  -30.0688  -16.9103   21.1665 C   0  0  0  0  0  0
  -31.0484  -17.0388   22.2588 C   0  0  0  0  0  0
  -28.9161  -24.2086   20.1076 C   0  0  0  0  0  0
  -28.3188  -25.4269   20.8624 C   0  0  0  0  0  0
  -29.0065  -22.9084   20.9580 C   0  0  0  0  0  0
  -25.6706  -18.8664   20.0090 N   0  0  0  0  0  0
  -26.7750  -21.3375   19.5821 N   0  0  0  0  0  0
  -30.6412  -17.8242   23.2495 N   0  0  0  0  0  0
  -32.1484  -16.4971   22.3334 O   0  0  0  0  0  0
  -29.5501  -21.8026   20.2080 O   0  0  0  0  0  0
  -31.4674  -12.3708   19.1679 H   0  0  0  0  0  0
  -30.2890  -11.3239   19.9023 H   0  0  0  0  0  0
  -29.7614  -11.7317   17.4691 H   0  0  0  0  0  0
  -29.6731  -13.4524   17.7640 H   0  0  0  0  0  0
  -27.8512  -11.2763   18.8618 H   0  0  0  0  0  0
  -27.3762  -12.5561   17.7793 H   0  0  0  0  0  0
  -27.6474  -14.2314   19.4830 H   0  0  0  0  0  0
  -28.6687  -12.0932   21.4248 H   0  0  0  0  0  0
  -28.4625  -13.7852   21.7894 H   0  0  0  0  0  0
  -25.2745   -9.5680   22.4775 H   0  0  0  0  0  0
  -23.9969   -7.4636   22.7506 H   0  0  0  0  0  0
  -21.0807   -8.8805   19.8986 H   0  0  0  0  0  0
  -22.3685  -10.9674   19.6193 H   0  0  0  0  0  0
  -21.2067   -7.6156   23.9734 H   0  0  0  0  0  0
  -21.1467   -6.0495   25.9063 H   0  0  0  0  0  0
  -22.0612   -2.7628   23.2778 H   0  0  0  0  0  0
  -22.3979  -11.9946   22.4826 H   0  0  0  0  0  0
  -21.1092  -13.1443   22.2633 H   0  0  0  0  0  0
  -24.5919  -15.7749   20.3647 H   0  0  0  0  0  0
  -26.1785  -15.5621   19.8389 H   0  0  0  0  0  0
  -26.7118  -32.5533   23.1158 H   0  0  0  0  0  0
  -25.0076  -33.9782   25.0488 H   0  0  0  0  0  0
  -22.6948  -31.3063   21.4067 H   0  0  0  0  0  0
  -23.3765  -35.9626   23.3296 H   0  0  0  0  0  0
  -24.3597  -36.8923   22.2057 H   0  0  0  0  0  0
  -23.7217  -37.6503   23.6647 H   0  0  0  0  0  0
  -26.0416  -31.5980   20.5898 H   0  0  0  0  0  0
  -26.8244  -30.8933   21.9749 H   0  0  0  0  0  0
  -28.1088  -29.1018   21.1623 H   0  0  0  0  0  0
  -26.0670  -25.9458   19.0506 H   0  0  0  0  0  0
  -23.9841  -27.2819   19.0479 H   0  0  0  0  0  0
  -23.7170  -30.5881   19.4010 H   0  0  0  0  0  0
  -22.7414  -29.2315   19.8738 H   0  0  0  0  0  0
  -25.1278  -36.1986   25.0836 H   0  0  0  0  0  0
  -20.9966  -28.3249   24.1441 H   0  0  0  0  0  0
  -20.5714  -26.2279   23.3606 H   0  0  0  0  0  0
  -21.6643  -26.7486   22.1192 H   0  0  0  0  0  0
  -19.6919  -25.6310   21.1242 H   0  0  0  0  0  0
  -19.6691  -27.3216   20.6760 H   0  0  0  0  0  0
  -17.4206  -26.6708   21.4007 H   0  0  0  0  0  0
  -18.0309  -26.0067   22.9005 H   0  0  0  0  0  0
  -19.7923  -30.7263   24.2300 H   0  0  0  0  0  0
  -17.5006  -31.6280   24.5153 H   0  0  0  0  0  0
  -15.5344  -30.2995   23.7648 H   0  0  0  0  0  0
  -15.8666  -28.0824   22.7070 H   0  0  0  0  0  0
  -24.5911  -30.7034   25.7778 H   0  0  0  0  0  0
  -24.8890  -32.2845   26.4899 H   0  0  0  0  0  0
  -25.8075  -30.8865   27.0213 H   0  0  0  0  0  0
  -26.2833  -29.6807   24.1146 H   0  0  0  0  0  0
  -27.4108  -29.7287   25.4514 H   0  0  0  0  0  0
  -27.8648  -30.4384   23.9190 H   0  0  0  0  0  0
  -27.2711  -33.3620   26.2051 H   0  0  0  0  0  0
  -28.3850  -32.6864   25.0258 H   0  0  0  0  0  0
  -28.0749  -31.8419   26.5350 H   0  0  0  0  0  0
  -28.2598  -38.0111   24.7557 H   0  0  0  0  0  0
  -28.1100  -36.2652   24.6230 H   0  0  0  0  0  0
  -27.2319  -37.1385   25.8866 H   0  0  0  0  0  0
  -20.9333  -29.8702   21.6882 H   0  0  0  0  0  0
  -26.0192  -38.2879   24.1429 H   0  0  0  0  0  0
  -27.3910  -16.9849   20.7727 H   0  0  0  0  0  0
  -30.8304  -19.5859   20.8543 H   0  0  0  0  0  0
  -29.0950  -15.7536   19.7388 H   0  0  0  0  0  0
  -29.9148  -24.4623   19.7528 H   0  0  0  0  0  0
  -28.3157  -24.0186   19.2186 H   0  0  0  0  0  0
  -28.8780  -25.5845   21.7861 H   0  0  0  0  0  0
  -27.2990  -25.1919   21.1747 H   0  0  0  0  0  0
  -28.0392  -22.6793   21.4049 H   0  0  0  0  0  0
  -29.6738  -23.0782   21.8038 H   0  0  0  0  0  0
  -25.2335  -18.0910   20.4929 H   0  0  0  0  0  0
  -25.1426  -19.7240   20.1285 H   0  0  0  0  0  0
  -26.0358  -20.9706   18.9936 H   0  0  0  0  0  0
  -27.2878  -22.0730   19.1132 H   0  0  0  0  0  0
  -29.7323  -18.2632   23.2017 H   0  0  0  0  0  0
  -31.2283  -17.9838   24.0553 H   0  0  0  0  0  0
  1 25  1  0  0  0
  1 30  2  0  0  0
  1 77  1  0  0  0
  2  3  1  0  0  0
  2 25  1  0  0  0
  2 88  1  0  0  0
  2 89  1  0  0  0
  3  4  1  0  0  0
  3 90  1  0  0  0
  3 91  1  0  0  0
  4  5  1  0  0  0
  4 92  1  0  0  0
  4 93  1  0  0  0
  5  6  1  0  0  0
  5 26  1  0  0  0
  5 94  1  0  0  0
  6 25  1  0  0  0
  6 95  1  0  0  0
  6 96  1  0  0  0
  7  8  2  0  0  0
  7 26  1  0  0  0
  7 29  1  0  0  0
  8  9  1  0  0  0
  8 22  1  0  0  0
  9 10  1  0  0  0
  9 27  2  0  0  0
 10 11  2  0  0  0
 10 15  1  0  0  0
 11 12  1  0  0  0
 11 97  1  0  0  0
 12 13  2  0  0  0
 12 98  1  0  0  0
 13 14  1  0  0  0
 13 31  1  0  0  0
 14 15  2  0  0  0
 14 99  1  0  0  0
 15100  1  0  0  0
 16 17  2  0  0  0
 16 21  1  0  0  0
 16 31  1  0  0  0
 17 18  1  0  0  0
 17101  1  0  0  0
 18 19  2  0  0  0
 18102  1  0  0  0
 19 20  1  0  0  0
 19 24  1  0  0  0
 20 21  2  0  0  0
 20103  1  0  0  0
 21 23  1  0  0  0
 22 28  1  0  0  0
 22 32  2  0  0  0
 26 27  1  0  0  0
 28104  1  0  0  0
 28105  1  0  0  0
 29106  1  0  0  0
 29107  1  0  0  0
 33 34  1  0  0  0
 33 66  1  0  0  0
 33 70  2  0  0  0
 34 36  1  0  0  0
 34 59  1  0  0  0
 34108  1  0  0  0
 35 44  2  0  0  0
 35 45  1  0  0  0
 35 68  1  0  0  0
 36 56  1  0  0  0
 36109  1  0  0  0
 37 39  1  0  0  0
 37 47  1  0  0  0
 37 66  1  0  0  0
 37110  1  0  0  0
 38 43  2  0  0  0
 38 46  1  0  0  0
 38 47  1  0  0  0
 39 64  1  0  0  0
 39 67  2  0  0  0
 40 52  1  0  0  0
 40 53  2  0  0  0
 40 58  1  0  0  0
 41111  1  0  0  0
 41112  1  0  0  0
 41113  1  0  0  0
 41 48  1  0  0  0
 42 43  1  0  0  0
 42 66  1  0  0  0
 42114  1  0  0  0
 42115  1  0  0  0
 43 44  1  0  0  0
 44116  1  0  0  0
 45 46  2  0  0  0
 45117  1  0  0  0
 46118  1  0  0  0
 47119  1  0  0  0
 47120  1  0  0  0
 48 56  1  0  0  0
 48 65  1  0  0  0
 48121  1  0  0  0
 49 50  1  0  0  0
 49 53  1  0  0  0
 49 64  1  0  0  0
 49122  1  0  0  0
 50 51  1  0  0  0
 50123  1  0  0  0
 50124  1  0  0  0
 51 52  1  0  0  0
 51125  1  0  0  0
 51126  1  0  0  0
 52127  1  0  0  0
 52128  1  0  0  0
 53 54  1  0  0  0
 54 55  2  0  0  0
 54129  1  0  0  0
 55 57  1  0  0  0
 55130  1  0  0  0
 56 69  2  0  0  0
 57 58  2  0  0  0
 57131  1  0  0  0
 58132  1  0  0  0
 59 60  1  0  0  0
 59 61  1  0  0  0
 59 62  1  0  0  0
 60133  1  0  0  0
 60134  1  0  0  0
 60135  1  0  0  0
 61136  1  0  0  0
 61137  1  0  0  0
 61138  1  0  0  0
 62139  1  0  0  0
 62140  1  0  0  0
 62141  1  0  0  0
 63 65  1  0  0  0
 63142  1  0  0  0
 63143  1  0  0  0
 63144  1  0  0  0
 64145  1  0  0  0
 65146  1  0  0  0
 68 81  1  0  0  0
 71 73  2  0  0  0
 71 74  1  0  0  0
 71147  1  0  0  0
 72 73  1  0  0  0
 72 76  2  0  0  0
 72148  1  0  0  0
 73 78  1  0  0  0
 74 75  2  0  0  0
 74 83  1  0  0  0
 75 76  1  0  0  0
 75 84  1  0  0  0
 76 87  1  0  0  0
 77 78  2  0  0  0
 77149  1  0  0  0
 78 79  1  0  0  0
 79 85  1  0  0  0
 79 86  2  0  0  0
 80 81  1  0  0  0
 80 82  1  0  0  0
 80150  1  0  0  0
 80151  1  0  0  0
 81152  1  0  0  0
 81153  1  0  0  0
 82 87  1  0  0  0
 82154  1  0  0  0
 82155  1  0  0  0
 83156  1  0  0  0
 83157  1  0  0  0
 84158  1  0  0  0
 84159  1  0  0  0
 85160  1  0  0  0
 85161  1  0  0  0
M  ISO  4   1 100  68 101  77 100  81 101
M  END
> <chiral flag>
0

> <version>
0

> <s_m_source_file>
/data/baiqing/PycharmProjects/Reinvent-master-3.2/result/LINK_invent/BTK/process_docking_weight1_custom_product_contain_oxygen_bond_distance_aromatic_linkinvent_7_9_3/rearranged_h_0092.sdf

> <i_m_source_file_index>
4

> <r_mmod_Potential_Energy-OPLS-2005>
-224.581802368164

> <r_mmod_Stretch_Energy-OPLS-2005>
46.9347877502441

> <r_mmod_Bend_Energy-OPLS-2005>
107.724456787109

> <r_mmod_Torsional_Energy-OPLS-2005>
283.970275878906

> <r_mmod_Improper_Torsional_Energy-OPLS-2005>
26.2528324127197

> <r_mmod_Van_der_Waal_Energy-OPLS-2005>
167.155883789062

> <r_mmod_Electrostatic_Energy-OPLS-2005>
-632.245727539062

> <r_mmod_Solvation_Energy-OPLS-2005>
-249.926864624023

> <b_mmod_Minimization_Converged-OPLS-2005>
0

> <r_mmod_RMS_Derivative-OPLS-2005>
2.4979989528656

$$$$
4
                    3D
 Structure written by MMmdl.
159168  0  0  1  0            999 V2000
  -31.5980  -15.3202   19.6194 C   0  0  0  0  0  0
  -29.3331  -12.9462   21.4046 C   0  0  0  0  0  0
  -28.5852  -11.6914   20.2179 C   0  0  0  0  0  0
  -27.7547  -12.2505   18.8046 C   0  0  0  0  0  0
  -27.3440  -13.8918   18.9868 C   0  0  2  0  0  0
  -28.7892  -15.5041   18.8523 C   0  0  0  0  0  0
  -25.1494  -14.0795   20.5274 C   0  0  0  0  0  0
  -24.1530  -13.2084   20.9379 C   0  0  0  0  0  0
  -24.6473  -11.8827   20.8603 C   0  0  0  0  0  0
  -23.9603  -10.5395   21.0210 C   0  0  0  0  0  0
  -24.4056   -9.5128   21.8982 C   0  0  0  0  0  0
  -23.6764   -8.3018   22.0650 C   0  0  0  0  0  0
  -22.4724   -8.0788   21.3539 C   0  0  0  0  0  0
  -22.0393   -9.0779   20.4628 C   0  0  0  0  0  0
  -22.7682  -10.2769   20.2994 C   0  0  0  0  0  0
  -21.7150   -6.1001   22.5238 C   0  0  0  0  0  0
  -21.4227   -6.5817   23.8188 C   0  0  0  0  0  0
  -21.3718   -5.6912   24.9119 C   0  0  0  0  0  0
  -21.6035   -4.3164   24.7151 C   0  0  0  0  0  0
  -21.8789   -3.8299   23.4257 C   0  0  0  0  0  0
  -21.9282   -4.7169   22.3343 C   0  0  0  0  0  0
  -22.7370  -13.5881   21.2171 C   0  0  0  0  0  0
  -22.1704   -4.2316   21.0930 F   0  0  0  0  0  0
  -21.5564   -3.4616   25.7646 F   0  0  0  0  0  0
  -30.3807  -15.3681   20.1767 N   0  0  0  0  0  0
  -26.2458  -13.3969   20.0897 N   0  0  0  0  0  0
  -25.9009  -12.0411   20.4557 N   0  0  0  0  0  0
  -22.0436  -12.8364   22.0634 N   0  0  0  0  0  0
  -25.2051  -15.4391   20.3678 N   0  0  0  0  0  0
  -32.5459  -15.8663   20.0915 O   0  0  0  0  0  0
  -21.7122   -6.9263   21.4229 O   0  0  0  0  0  0
  -22.2497  -14.5880   20.6968 O   0  0  0  0  0  0
  -24.7403  -31.7225   23.1060 C   0  0  0  0  0  0
  -25.9706  -32.4067   23.7798 C   0  0  1  0  0  0
  -27.0154  -25.9397   20.4061 C   0  0  0  0  0  0
  -25.6043  -33.7946   24.1598 N   0  0  0  0  0  0
  -23.5848  -30.3076   21.4760 C   0  0  2  0  0  0
  -25.0083  -28.4971   20.1519 C   0  0  0  0  0  0
  -22.7960  -29.3924   22.4561 C   0  0  0  0  0  0
  -18.0358  -28.1445   22.8426 C   0  0  0  0  0  0
  -24.1504  -36.6978   23.2671 C   0  0  0  0  0  0
  -26.1765  -30.1993   21.4911 C   0  0  0  0  0  0
  -26.1884  -28.6801   20.8781 C   0  0  0  0  0  0
  -27.1596  -27.4529   20.9517 C   0  0  0  0  0  0
  -25.8726  -26.1684   19.5541 C   0  0  0  0  0  0
  -24.9409  -27.2778   19.4502 C   0  0  0  0  0  0
  -23.8680  -29.5589   20.1323 C   0  0  0  0  0  0
  -25.4181  -36.2662   24.0231 C   0  0  1  0  0  0
  -20.6008  -28.3818   23.1047 C   0  0  2  0  0  0
  -20.6790  -26.9429   22.5418 C   0  0  0  0  0  0
  -19.5783  -26.6346   21.5219 C   0  0  0  0  0  0
  -18.1963  -26.7961   22.1604 C   0  0  0  0  0  0
  -19.1636  -28.8970   23.2700 C   0  0  0  0  0  0
  -18.9539  -30.1540   23.8770 C   0  0  0  0  0  0
  -17.6525  -30.6615   24.0539 C   0  0  0  0  0  0
  -25.9195  -34.9068   23.4795 C   0  0  0  0  0  0
  -16.5409  -29.9091   23.6364 C   0  0  0  0  0  0
  -16.7335  -28.6516   23.0376 C   0  0  0  0  0  0
  -26.4698  -31.6405   25.0693 C   0  0  0  0  0  0
  -25.3605  -31.3915   26.1194 C   0  0  0  0  0  0
  -27.0740  -30.2678   24.7100 C   0  0  0  0  0  0
  -27.6020  -32.4440   25.7526 C   0  0  0  0  0  0
  -27.5536  -37.1656   24.8476 C   0  0  0  0  0  0
  -21.4564  -29.2946   22.3296 N   0  0  0  0  0  0
  -26.4253  -37.3494   23.9389 N   0  0  0  0  0  0
  -24.8684  -30.7972   22.0728 N   0  0  0  0  0  0
  -23.4131  -28.7602   23.3162 O   0  0  0  0  0  0
  -27.7455  -24.3486   20.4327 O   0  0  0  0  0  0
  -26.5920  -34.8770   22.4473 O   0  0  0  0  0  0
  -23.6308  -32.0660   23.5594 O   0  0  0  0  0  0
  -30.8332  -14.5365   22.5020 C   0  0  0  0  0  0
  -29.3646  -15.1598   22.3627 C   0  0  0  0  0  0
  -31.6560  -13.6127   21.4810 C   0  0  0  0  0  0
  -29.6894  -13.5396   19.3809 C   0  0  0  0  0  0
  -28.4333  -15.0288   21.0286 C   0  0  0  0  0  0
  -31.1966  -13.2479   19.9577 C   0  0  0  0  0  0
  -27.6567  -20.7763   20.8852 C   0  0  0  0  0  0
  -26.8078  -20.1423   21.9786 C   0  0  0  0  0  0
  -27.4950  -22.5403   20.8451 C   0  0  0  0  0  0
  -28.2572  -18.7724   20.4534 C   0  0  0  0  0  0
  -27.2596  -18.8114   22.7511 C   0  0  0  0  0  0
  -27.0761  -17.3386   22.1008 C   0  0  0  0  0  0
  -32.3724  -13.7933   17.8137 C   0  0  0  0  0  0
  -28.0229  -16.8921   21.0246 N   0  0  0  0  0  0
  -31.8819  -14.1050   19.1522 N   0  0  0  0  0  0
  -25.7322  -20.6391   22.3269 O   0  0  0  0  0  0
  -29.9321  -12.2791   22.0378 H   0  0  0  0  0  0
  -28.4948  -13.0022   22.1169 H   0  0  0  0  0  0
  -28.0041  -10.9773   20.7988 H   0  0  0  0  0  0
  -29.3906  -11.0434   19.8643 H   0  0  0  0  0  0
  -26.9469  -11.5976   18.4667 H   0  0  0  0  0  0
  -28.3636  -12.0925   17.9117 H   0  0  0  0  0  0
  -26.7247  -14.1179   18.1174 H   0  0  0  0  0  0
  -28.3181  -16.4783   18.7598 H   0  0  0  0  0  0
  -29.2261  -15.4878   17.8499 H   0  0  0  0  0  0
  -25.3133   -9.6688   22.4647 H   0  0  0  0  0  0
  -24.0552   -7.5503   22.7431 H   0  0  0  0  0  0
  -21.1322   -8.9290   19.8949 H   0  0  0  0  0  0
  -22.3921  -11.0247   19.6153 H   0  0  0  0  0  0
  -21.2318   -7.6337   23.9751 H   0  0  0  0  0  0
  -21.1517   -6.0629   25.9024 H   0  0  0  0  0  0
  -22.0469   -2.7753   23.2715 H   0  0  0  0  0  0
  -22.4527  -12.0239   22.5010 H   0  0  0  0  0  0
  -21.0883  -13.0792   22.2828 H   0  0  0  0  0  0
  -26.0870  -15.9301   20.2352 H   0  0  0  0  0  0
  -24.4456  -16.0433   20.6582 H   0  0  0  0  0  0
  -26.7844  -32.4370   23.0536 H   0  0  0  0  0  0
  -25.0009  -33.8889   24.9634 H   0  0  0  0  0  0
  -22.9497  -31.1643   21.2425 H   0  0  0  0  0  0
  -23.3789  -35.9283   23.3259 H   0  0  0  0  0  0
  -24.3538  -36.8755   22.2099 H   0  0  0  0  0  0
  -23.7259  -37.6110   23.6856 H   0  0  0  0  0  0
  -26.4609  -30.8585   20.6699 H   0  0  0  0  0  0
  -27.0094  -30.2786   22.1742 H   0  0  0  0  0  0
  -28.0356  -27.6195   21.5629 H   0  0  0  0  0  0
  -25.5920  -25.3085   18.9623 H   0  0  0  0  0  0
  -24.0841  -27.1268   18.8081 H   0  0  0  0  0  0
  -24.1270  -30.2936   19.3695 H   0  0  0  0  0  0
  -22.9521  -29.0850   19.7747 H   0  0  0  0  0  0
  -25.1429  -36.1337   25.0721 H   0  0  0  0  0  0
  -21.0067  -28.3483   24.1185 H   0  0  0  0  0  0
  -20.5597  -26.2453   23.3724 H   0  0  0  0  0  0
  -21.6646  -26.7281   22.1273 H   0  0  0  0  0  0
  -19.6927  -25.6223   21.1328 H   0  0  0  0  0  0
  -19.6749  -27.3089   20.6698 H   0  0  0  0  0  0
  -17.4236  -26.6709   21.4001 H   0  0  0  0  0  0
  -18.0330  -26.0133   22.9026 H   0  0  0  0  0  0
  -19.8019  -30.7380   24.2086 H   0  0  0  0  0  0
  -17.5079  -31.6284   24.5166 H   0  0  0  0  0  0
  -15.5408  -30.2959   23.7763 H   0  0  0  0  0  0
  -15.8731  -28.0797   22.7165 H   0  0  0  0  0  0
  -24.5860  -30.7188   25.7489 H   0  0  0  0  0  0
  -24.8728  -32.3194   26.4193 H   0  0  0  0  0  0
  -25.7644  -30.9363   27.0248 H   0  0  0  0  0  0
  -26.3546  -29.6039   24.2302 H   0  0  0  0  0  0
  -27.4078  -29.7452   25.6075 H   0  0  0  0  0  0
  -27.9569  -30.3648   24.0782 H   0  0  0  0  0  0
  -27.2474  -33.3896   26.1646 H   0  0  0  0  0  0
  -28.4046  -32.6757   25.0511 H   0  0  0  0  0  0
  -28.0453  -31.8901   26.5813 H   0  0  0  0  0  0
  -28.2518  -37.9977   24.7463 H   0  0  0  0  0  0
  -28.1065  -36.2483   24.6389 H   0  0  0  0  0  0
  -27.2231  -37.1377   25.8875 H   0  0  0  0  0  0
  -21.0000  -29.8521   21.6212 H   0  0  0  0  0  0
  -26.0018  -38.2518   24.1388 H   0  0  0  0  0  0
  -31.3477  -14.7726   23.4222 H   0  0  0  0  0  0
  -29.0756  -15.8434   23.1447 H   0  0  0  0  0  0
  -32.6762  -13.3822   21.7576 H   0  0  0  0  0  0
  -29.6986  -13.5190   18.2910 H   0  0  0  0  0  0
  -26.7788  -22.7118   21.6350 H   0  0  0  0  0  0
  -29.3423  -18.8693   20.4103 H   0  0  0  0  0  0
  -27.9754  -18.7134   19.4021 H   0  0  0  0  0  0
  -26.7036  -18.8158   23.6880 H   0  0  0  0  0  0
  -28.2998  -18.9407   23.0552 H   0  0  0  0  0  0
  -26.0671  -17.3270   21.6974 H   0  0  0  0  0  0
  -27.0657  -16.5967   22.8995 H   0  0  0  0  0  0
  -31.9283  -14.4612   17.0731 H   0  0  0  0  0  0
  -32.1222  -12.7707   17.5323 H   0  0  0  0  0  0
  -33.4553  -13.9071   17.7688 H   0  0  0  0  0  0
  1 25  1  0  0  0
  1 30  2  0  0  0
  1 85  1  0  0  0
  2  3  1  0  0  0
  2 25  1  0  0  0
  2 87  1  0  0  0
  2 88  1  0  0  0
  3  4  1  0  0  0
  3 89  1  0  0  0
  3 90  1  0  0  0
  4  5  1  0  0  0
  4 91  1  0  0  0
  4 92  1  0  0  0
  5  6  1  0  0  0
  5 26  1  0  0  0
  5 93  1  0  0  0
  6 25  1  0  0  0
  6 94  1  0  0  0
  6 95  1  0  0  0
  7  8  2  0  0  0
  7 26  1  0  0  0
  7 29  1  0  0  0
  8  9  1  0  0  0
  8 22  1  0  0  0
  9 10  1  0  0  0
  9 27  2  0  0  0
 10 11  2  0  0  0
 10 15  1  0  0  0
 11 12  1  0  0  0
 11 96  1  0  0  0
 12 13  2  0  0  0
 12 97  1  0  0  0
 13 14  1  0  0  0
 13 31  1  0  0  0
 14 15  2  0  0  0
 14 98  1  0  0  0
 15 99  1  0  0  0
 16 17  2  0  0  0
 16 21  1  0  0  0
 16 31  1  0  0  0
 17 18  1  0  0  0
 17100  1  0  0  0
 18 19  2  0  0  0
 18101  1  0  0  0
 19 20  1  0  0  0
 19 24  1  0  0  0
 20 21  2  0  0  0
 20102  1  0  0  0
 21 23  1  0  0  0
 22 28  1  0  0  0
 22 32  2  0  0  0
 26 27  1  0  0  0
 28103  1  0  0  0
 28104  1  0  0  0
 29105  1  0  0  0
 29106  1  0  0  0
 33 34  1  0  0  0
 33 66  1  0  0  0
 33 70  2  0  0  0
 34 36  1  0  0  0
 34 59  1  0  0  0
 34107  1  0  0  0
 35 44  2  0  0  0
 35 45  1  0  0  0
 35 68  1  0  0  0
 36 56  1  0  0  0
 36108  1  0  0  0
 37 39  1  0  0  0
 37 47  1  0  0  0
 37 66  1  0  0  0
 37109  1  0  0  0
 38 43  2  0  0  0
 38 46  1  0  0  0
 38 47  1  0  0  0
 39 64  1  0  0  0
 39 67  2  0  0  0
 40 52  1  0  0  0
 40 53  2  0  0  0
 40 58  1  0  0  0
 41110  1  0  0  0
 41111  1  0  0  0
 41112  1  0  0  0
 41 48  1  0  0  0
 42 43  1  0  0  0
 42 66  1  0  0  0
 42113  1  0  0  0
 42114  1  0  0  0
 43 44  1  0  0  0
 44115  1  0  0  0
 45 46  2  0  0  0
 45116  1  0  0  0
 46117  1  0  0  0
 47118  1  0  0  0
 47119  1  0  0  0
 48 56  1  0  0  0
 48 65  1  0  0  0
 48120  1  0  0  0
 49 50  1  0  0  0
 49 53  1  0  0  0
 49 64  1  0  0  0
 49121  1  0  0  0
 50 51  1  0  0  0
 50122  1  0  0  0
 50123  1  0  0  0
 51 52  1  0  0  0
 51124  1  0  0  0
 51125  1  0  0  0
 52126  1  0  0  0
 52127  1  0  0  0
 53 54  1  0  0  0
 54 55  2  0  0  0
 54128  1  0  0  0
 55 57  1  0  0  0
 55129  1  0  0  0
 56 69  2  0  0  0
 57 58  2  0  0  0
 57130  1  0  0  0
 58131  1  0  0  0
 59 60  1  0  0  0
 59 61  1  0  0  0
 59 62  1  0  0  0
 60132  1  0  0  0
 60133  1  0  0  0
 60134  1  0  0  0
 61135  1  0  0  0
 61136  1  0  0  0
 61137  1  0  0  0
 62138  1  0  0  0
 62139  1  0  0  0
 62140  1  0  0  0
 63 65  1  0  0  0
 63141  1  0  0  0
 63142  1  0  0  0
 63143  1  0  0  0
 64144  1  0  0  0
 65145  1  0  0  0
 68 79  1  0  0  0
 71 72  2  0  0  0
 71 73  1  0  0  0
 71146  1  0  0  0
 72 75  1  0  0  0
 72147  1  0  0  0
 73 76  2  0  0  0
 73148  1  0  0  0
 74 75  2  0  0  0
 74 76  1  0  0  0
 74149  1  0  0  0
 75 84  1  0  0  0
 76 85  1  0  0  0
 77 78  1  0  0  0
 77 79  2  0  0  0
 77 80  1  0  0  0
 78 81  1  0  0  0
 78 86  2  0  0  0
 79150  1  0  0  0
 80 84  1  0  0  0
 80151  1  0  0  0
 80152  1  0  0  0
 81 82  1  0  0  0
 81153  1  0  0  0
 81154  1  0  0  0
 82 84  1  0  0  0
 82155  1  0  0  0
 82156  1  0  0  0
 83 85  1  0  0  0
 83157  1  0  0  0
 83158  1  0  0  0
 83159  1  0  0  0
M  ISO  4   1 100  68 101  79 101  85 100
M  END
> <chiral flag>
0

> <version>
0

> <s_m_source_file>
/data/baiqing/PycharmProjects/Reinvent-master-3.2/result/LINK_invent/BTK/process_docking_weight1_custom_product_contain_oxygen_bond_distance_aromatic_linkinvent_7_9_3/rearranged_h_0092.sdf

> <i_m_source_file_index>
5

> <r_mmod_Potential_Energy-OPLS-2005>
20513.380859375

> <r_mmod_Stretch_Energy-OPLS-2005>
10362.3017578125

> <r_mmod_Bend_Energy-OPLS-2005>
1590.24645996094

> <r_mmod_Torsional_Energy-OPLS-2005>
595.601806640625

> <r_mmod_Improper_Torsional_Energy-OPLS-2005>
100.082633972168

> <r_mmod_Van_der_Waal_Energy-OPLS-2005>
3535.07421875

> <r_mmod_Electrostatic_Energy-OPLS-2005>
-286.214080810547

> <r_mmod_Solvation_Energy-OPLS-2005>
-203.189056396484

> <b_mmod_Minimization_Converged-OPLS-2005>
0

> <r_mmod_RMS_Derivative-OPLS-2005>
3.89289975166321

$$$$
5
                    3D
 Structure written by MMmdl.
156164  0  0  1  0            999 V2000
  -30.7318  -14.4462   20.6258 C   0  0  0  0  0  0
  -30.4175  -12.3162   19.4076 C   0  0  0  0  0  0
  -29.4854  -12.5169   18.1974 C   0  0  0  0  0  0
  -28.0090  -12.3757   18.6150 C   0  0  0  0  0  0
  -27.6602  -13.2099   19.8758 C   0  0  2  0  0  0
  -28.7023  -12.9842   20.9928 C   0  0  0  0  0  0
  -25.2578  -13.8176   20.5700 C   0  0  0  0  0  0
  -24.1830  -13.0443   20.9193 C   0  0  0  0  0  0
  -24.6386  -11.6912   20.8742 C   0  0  0  0  0  0
  -23.9053  -10.4297   21.0403 C   0  0  0  0  0  0
  -24.3604   -9.4217   21.9187 C   0  0  0  0  0  0
  -23.6288   -8.2247   22.0755 C   0  0  0  0  0  0
  -22.4274   -8.0279   21.3540 C   0  0  0  0  0  0
  -21.9906   -9.0252   20.4641 C   0  0  0  0  0  0
  -22.7225  -10.2137   20.3053 C   0  0  0  0  0  0
  -21.6850   -6.0737   22.5280 C   0  0  0  0  0  0
  -21.4009   -6.5640   23.8214 C   0  0  0  0  0  0
  -21.3661   -5.6793   24.9175 C   0  0  0  0  0  0
  -21.6045   -4.3056   24.7228 C   0  0  0  0  0  0
  -21.8819   -3.8149   23.4348 C   0  0  0  0  0  0
  -21.9193   -4.6966   22.3404 C   0  0  0  0  0  0
  -22.7851  -13.5243   21.1866 C   0  0  0  0  0  0
  -22.1663   -4.2153   21.0982 F   0  0  0  0  0  0
  -21.5632   -3.4536   25.7740 F   0  0  0  0  0  0
  -30.0328  -13.2929   20.4392 N   0  0  0  0  0  0
  -26.3013  -12.9349   20.3378 N   0  0  0  0  0  0
  -25.9312  -11.6503   20.5762 N   0  0  0  0  0  0
  -22.0486  -12.8227   22.0412 N   0  0  0  0  0  0
  -25.4317  -15.1892   20.4123 N   0  0  0  0  0  0
  -31.8262  -14.6576   20.0963 O   0  0  0  0  0  0
  -21.6637   -6.8877   21.4240 O   0  0  0  0  0  0
  -22.3540  -14.5556   20.6725 O   0  0  0  0  0  0
  -24.6175  -31.8671   23.2104 C   0  0  0  0  0  0
  -25.9059  -32.4818   23.8402 C   0  0  1  0  0  0
  -27.2303  -27.4139   20.0900 C   0  0  0  0  0  0
  -25.5903  -33.8617   24.2326 N   0  0  0  0  0  0
  -23.4055  -30.4929   21.5526 C   0  0  2  0  0  0
  -24.8500  -28.9621   20.1152 C   0  0  0  0  0  0
  -22.7419  -29.4662   22.4991 C   0  0  0  0  0  0
  -18.0270  -28.1378   22.8497 C   0  0  0  0  0  0
  -24.1481  -36.7313   23.2644 C   0  0  0  0  0  0
  -25.9387  -30.8257   21.3683 C   0  0  0  0  0  0
  -26.0148  -29.4612   20.7108 C   0  0  0  0  0  0
  -27.2081  -28.6962   20.6938 C   0  0  0  0  0  0
  -26.0387  -26.9436   19.4828 C   0  0  0  0  0  0
  -24.8583  -27.7034   19.4985 C   0  0  0  0  0  0
  -23.6133  -29.8289   20.1672 C   0  0  0  0  0  0
  -25.4106  -36.3107   24.0339 C   0  0  1  0  0  0
  -20.5863  -28.3670   23.1316 C   0  0  2  0  0  0
  -20.6760  -26.9407   22.5417 C   0  0  0  0  0  0
  -19.5736  -26.6387   21.5214 C   0  0  0  0  0  0
  -18.1914  -26.7926   22.1624 C   0  0  0  0  0  0
  -19.1522  -28.8839   23.2904 C   0  0  0  0  0  0
  -18.9451  -30.1444   23.8915 C   0  0  0  0  0  0
  -17.6455  -30.6588   24.0567 C   0  0  0  0  0  0
  -25.9037  -34.9474   23.5129 C   0  0  0  0  0  0
  -16.5345  -29.9091   23.6332 C   0  0  0  0  0  0
  -16.7260  -28.6504   23.0360 C   0  0  0  0  0  0
  -26.4476  -31.6609   25.0743 C   0  0  0  0  0  0
  -25.3726  -31.3695   26.1474 C   0  0  0  0  0  0
  -27.0341  -30.3058   24.6144 C   0  0  0  0  0  0
  -27.6026  -32.4356   25.7524 C   0  0  0  0  0  0
  -27.5581  -37.1809   24.8466 C   0  0  0  0  0  0
  -21.4143  -29.3039   22.3726 N   0  0  0  0  0  0
  -26.4290  -37.3796   23.9417 N   0  0  0  0  0  0
  -24.6724  -31.0761   22.1015 N   0  0  0  0  0  0
  -23.4183  -28.8196   23.3035 O   0  0  0  0  0  0
  -28.3843  -26.6436   20.1147 O   0  0  0  0  0  0
  -26.5603  -34.8926   22.4692 O   0  0  0  0  0  0
  -23.5360  -32.1437   23.7481 O   0  0  0  0  0  0
  -29.3490  -18.5909   21.5940 C   0  0  0  0  0  0
  -29.1871  -19.9255   21.1485 C   0  0  0  0  0  0
  -31.5828  -18.5389   20.6387 C   0  0  0  0  0  0
  -30.5597  -17.8970   21.3694 C   0  0  0  0  0  0
  -30.2353  -20.5894   20.4659 C   0  0  0  0  0  0
  -31.4208  -19.8672   20.1872 C   0  0  0  0  0  0
  -29.3986  -24.3447   20.2506 C   0  0  0  0  0  0
  -30.8218  -16.5282   22.0072 C   0  0  0  0  0  0
  -29.1222  -22.8476   20.5299 C   0  0  0  0  0  0
  -28.1745  -25.2242   19.9301 C   0  0  0  0  0  0
  -32.4402  -20.4852   19.4610 N   0  0  0  0  0  0
  -30.1820  -21.9418   20.0636 N   0  0  0  0  0  0
  -30.1495  -15.3672   21.4116 N   0  0  0  0  0  0
  -30.5508  -24.7935   20.2611 O   0  0  0  0  0  0
  -31.4597  -12.4191   19.1002 H   0  0  0  0  0  0
  -30.3225  -11.3022   19.7992 H   0  0  0  0  0  0
  -29.7211  -11.7941   17.4151 H   0  0  0  0  0  0
  -29.6529  -13.5038   17.7623 H   0  0  0  0  0  0
  -27.8185  -11.3195   18.8074 H   0  0  0  0  0  0
  -27.3552  -12.6563   17.7881 H   0  0  0  0  0  0
  -27.7076  -14.2600   19.5866 H   0  0  0  0  0  0
  -28.6792  -11.9463   21.3285 H   0  0  0  0  0  0
  -28.4546  -13.5761   21.8745 H   0  0  0  0  0  0
  -25.2743   -9.5707   22.4769 H   0  0  0  0  0  0
  -24.0003   -7.4644   22.7475 H   0  0  0  0  0  0
  -21.0842   -8.8764   19.8942 H   0  0  0  0  0  0
  -22.3679  -10.9676   19.6165 H   0  0  0  0  0  0
  -21.1994   -7.6148   23.9719 H   0  0  0  0  0  0
  -21.1483   -6.0521   25.9082 H   0  0  0  0  0  0
  -22.0596   -2.7611   23.2844 H   0  0  0  0  0  0
  -22.4078  -11.9865   22.4775 H   0  0  0  0  0  0
  -21.1111  -13.1267   22.2632 H   0  0  0  0  0  0
  -24.6708  -15.8500   20.5253 H   0  0  0  0  0  0
  -26.2917  -15.6247   20.1028 H   0  0  0  0  0  0
  -26.7129  -32.5521   23.1167 H   0  0  0  0  0  0
  -25.0041  -33.9777   25.0462 H   0  0  0  0  0  0
  -22.6951  -31.3102   21.4144 H   0  0  0  0  0  0
  -23.3745  -35.9642   23.3300 H   0  0  0  0  0  0
  -24.3573  -36.8944   22.2060 H   0  0  0  0  0  0
  -23.7226  -37.6511   23.6671 H   0  0  0  0  0  0
  -26.0580  -31.5928   20.6017 H   0  0  0  0  0  0
  -26.8243  -30.8744   21.9903 H   0  0  0  0  0  0
  -28.1052  -29.0773   21.1617 H   0  0  0  0  0  0
  -25.9867  -25.9861   18.9863 H   0  0  0  0  0  0
  -23.9640  -27.3140   19.0319 H   0  0  0  0  0  0
  -23.7191  -30.6031   19.4066 H   0  0  0  0  0  0
  -22.7369  -29.2479   19.8741 H   0  0  0  0  0  0
  -25.1278  -36.1970   25.0832 H   0  0  0  0  0  0
  -20.9954  -28.3238   24.1437 H   0  0  0  0  0  0
  -20.5670  -26.2278   23.3601 H   0  0  0  0  0  0
  -21.6630  -26.7448   22.1214 H   0  0  0  0  0  0
  -19.6898  -25.6300   21.1238 H   0  0  0  0  0  0
  -19.6674  -27.3200   20.6747 H   0  0  0  0  0  0
  -17.4188  -26.6685   21.4021 H   0  0  0  0  0  0
  -18.0303  -26.0061   22.9011 H   0  0  0  0  0  0
  -19.7930  -30.7252   24.2296 H   0  0  0  0  0  0
  -17.5015  -31.6271   24.5166 H   0  0  0  0  0  0
  -15.5345  -30.3002   23.7650 H   0  0  0  0  0  0
  -15.8656  -28.0825   22.7082 H   0  0  0  0  0  0
  -24.5933  -30.7008   25.7803 H   0  0  0  0  0  0
  -24.8872  -32.2832   26.4906 H   0  0  0  0  0  0
  -25.8077  -30.8888   27.0243 H   0  0  0  0  0  0
  -26.2909  -29.6795   24.1195 H   0  0  0  0  0  0
  -27.4112  -29.7318   25.4620 H   0  0  0  0  0  0
  -27.8734  -30.4395   23.9315 H   0  0  0  0  0  0
  -27.2621  -33.3651   26.2099 H   0  0  0  0  0  0
  -28.3837  -32.6929   25.0359 H   0  0  0  0  0  0
  -28.0692  -31.8490   26.5448 H   0  0  0  0  0  0
  -28.2583  -38.0125   24.7549 H   0  0  0  0  0  0
  -28.1096  -36.2657   24.6255 H   0  0  0  0  0  0
  -27.2300  -37.1416   25.8869 H   0  0  0  0  0  0
  -20.9303  -29.8773   21.6961 H   0  0  0  0  0  0
  -26.0175  -38.2871   24.1433 H   0  0  0  0  0  0
  -28.5535  -18.1189   22.1539 H   0  0  0  0  0  0
  -28.2602  -20.4338   21.3687 H   0  0  0  0  0  0
  -32.5099  -18.0131   20.4569 H   0  0  0  0  0  0
  -30.5053  -16.5834   23.0497 H   0  0  0  0  0  0
  -31.8989  -16.3549   22.0555 H   0  0  0  0  0  0
  -28.1813  -22.5734   20.0511 H   0  0  0  0  0  0
  -28.9805  -22.7295   21.6050 H   0  0  0  0  0  0
  -27.3522  -24.8864   20.5620 H   0  0  0  0  0  0
  -27.9025  -25.0284   18.8931 H   0  0  0  0  0  0
  -33.1151  -19.8645   19.0271 H   0  0  0  0  0  0
  -32.1052  -21.1777   18.7995 H   0  0  0  0  0  0
  -31.0966  -22.3722   19.9491 H   0  0  0  0  0  0
  -29.2333  -15.1396   21.7667 H   0  0  0  0  0  0
  1 25  1  0  0  0
  1 30  2  0  0  0
  1 83  1  0  0  0
  2  3  1  0  0  0
  2 25  1  0  0  0
  2 85  1  0  0  0
  2 86  1  0  0  0
  3  4  1  0  0  0
  3 87  1  0  0  0
  3 88  1  0  0  0
  4  5  1  0  0  0
  4 89  1  0  0  0
  4 90  1  0  0  0
  5  6  1  0  0  0
  5 26  1  0  0  0
  5 91  1  0  0  0
  6 25  1  0  0  0
  6 92  1  0  0  0
  6 93  1  0  0  0
  7  8  2  0  0  0
  7 26  1  0  0  0
  7 29  1  0  0  0
  8  9  1  0  0  0
  8 22  1  0  0  0
  9 10  1  0  0  0
  9 27  2  0  0  0
 10 11  2  0  0  0
 10 15  1  0  0  0
 11 12  1  0  0  0
 11 94  1  0  0  0
 12 13  2  0  0  0
 12 95  1  0  0  0
 13 14  1  0  0  0
 13 31  1  0  0  0
 14 15  2  0  0  0
 14 96  1  0  0  0
 15 97  1  0  0  0
 16 17  2  0  0  0
 16 21  1  0  0  0
 16 31  1  0  0  0
 17 18  1  0  0  0
 17 98  1  0  0  0
 18 19  2  0  0  0
 18 99  1  0  0  0
 19 20  1  0  0  0
 19 24  1  0  0  0
 20 21  2  0  0  0
 20100  1  0  0  0
 21 23  1  0  0  0
 22 28  1  0  0  0
 22 32  2  0  0  0
 26 27  1  0  0  0
 28101  1  0  0  0
 28102  1  0  0  0
 29103  1  0  0  0
 29104  1  0  0  0
 33 34  1  0  0  0
 33 66  1  0  0  0
 33 70  2  0  0  0
 34 36  1  0  0  0
 34 59  1  0  0  0
 34105  1  0  0  0
 35 44  2  0  0  0
 35 45  1  0  0  0
 35 68  1  0  0  0
 36 56  1  0  0  0
 36106  1  0  0  0
 37 39  1  0  0  0
 37 47  1  0  0  0
 37 66  1  0  0  0
 37107  1  0  0  0
 38 43  2  0  0  0
 38 46  1  0  0  0
 38 47  1  0  0  0
 39 64  1  0  0  0
 39 67  2  0  0  0
 40 52  1  0  0  0
 40 53  2  0  0  0
 40 58  1  0  0  0
 41108  1  0  0  0
 41109  1  0  0  0
 41110  1  0  0  0
 41 48  1  0  0  0
 42 43  1  0  0  0
 42 66  1  0  0  0
 42111  1  0  0  0
 42112  1  0  0  0
 43 44  1  0  0  0
 44113  1  0  0  0
 45 46  2  0  0  0
 45114  1  0  0  0
 46115  1  0  0  0
 47116  1  0  0  0
 47117  1  0  0  0
 48 56  1  0  0  0
 48 65  1  0  0  0
 48118  1  0  0  0
 49 50  1  0  0  0
 49 53  1  0  0  0
 49 64  1  0  0  0
 49119  1  0  0  0
 50 51  1  0  0  0
 50120  1  0  0  0
 50121  1  0  0  0
 51 52  1  0  0  0
 51122  1  0  0  0
 51123  1  0  0  0
 52124  1  0  0  0
 52125  1  0  0  0
 53 54  1  0  0  0
 54 55  2  0  0  0
 54126  1  0  0  0
 55 57  1  0  0  0
 55127  1  0  0  0
 56 69  2  0  0  0
 57 58  2  0  0  0
 57128  1  0  0  0
 58129  1  0  0  0
 59 60  1  0  0  0
 59 61  1  0  0  0
 59 62  1  0  0  0
 60130  1  0  0  0
 60131  1  0  0  0
 60132  1  0  0  0
 61133  1  0  0  0
 61134  1  0  0  0
 61135  1  0  0  0
 62136  1  0  0  0
 62137  1  0  0  0
 62138  1  0  0  0
 63 65  1  0  0  0
 63139  1  0  0  0
 63140  1  0  0  0
 63141  1  0  0  0
 64142  1  0  0  0
 65143  1  0  0  0
 68 80  1  0  0  0
 71 72  2  0  0  0
 71 74  1  0  0  0
 71144  1  0  0  0
 72 75  1  0  0  0
 72145  1  0  0  0
 73 74  2  0  0  0
 73 76  1  0  0  0
 73146  1  0  0  0
 74 78  1  0  0  0
 75 76  2  0  0  0
 75 82  1  0  0  0
 76 81  1  0  0  0
 77 79  1  0  0  0
 77 80  1  0  0  0
 77 84  2  0  0  0
 78 83  1  0  0  0
 78147  1  0  0  0
 78148  1  0  0  0
 79 82  1  0  0  0
 79149  1  0  0  0
 79150  1  0  0  0
 80151  1  0  0  0
 80152  1  0  0  0
 81153  1  0  0  0
 81154  1  0  0  0
 82155  1  0  0  0
 83156  1  0  0  0
M  ISO  4   1 100  68 101  80 101  83 100
M  END
> <chiral flag>
0

> <version>
0

> <s_m_source_file>
/data/baiqing/PycharmProjects/Reinvent-master-3.2/result/LINK_invent/BTK/process_docking_weight1_custom_product_contain_oxygen_bond_distance_aromatic_linkinvent_7_9_3/rearranged_h_0092.sdf

> <i_m_source_file_index>
6

> <r_mmod_Potential_Energy-OPLS-2005>
-193.933288574219

> <r_mmod_Stretch_Energy-OPLS-2005>
39.6790618896484

> <r_mmod_Bend_Energy-OPLS-2005>
102.628471374512

> <r_mmod_Torsional_Energy-OPLS-2005>
200.085159301758

> <r_mmod_Improper_Torsional_Energy-OPLS-2005>
10.1192626953125

> <r_mmod_Van_der_Waal_Energy-OPLS-2005>
162.519973754883

> <r_mmod_Electrostatic_Energy-OPLS-2005>
-469.625457763672

> <r_mmod_Solvation_Energy-OPLS-2005>
-252.306747436523

> <b_mmod_Minimization_Converged-OPLS-2005>
0

> <r_mmod_RMS_Derivative-OPLS-2005>
0.784144163131714

$$$$
6
                    3D
 Structure written by MMmdl.
149157  0  0  1  0            999 V2000
  -30.6973  -14.6722   20.4675 C   0  0  0  0  0  0
  -30.4091  -12.4140   19.4645 C   0  0  0  0  0  0
  -29.4958  -12.4919   18.2258 C   0  0  0  0  0  0
  -28.0234  -12.3308   18.6448 C   0  0  0  0  0  0
  -27.6382  -13.2362   19.8465 C   0  0  2  0  0  0
  -28.6867  -13.1846   20.9796 C   0  0  0  0  0  0
  -25.2496  -13.8216   20.5719 C   0  0  0  0  0  0
  -24.1790  -13.0449   20.9208 C   0  0  0  0  0  0
  -24.6390  -11.6930   20.8754 C   0  0  0  0  0  0
  -23.9074  -10.4298   21.0406 C   0  0  0  0  0  0
  -24.3623   -9.4212   21.9185 C   0  0  0  0  0  0
  -23.6301   -8.2245   22.0753 C   0  0  0  0  0  0
  -22.4283   -8.0282   21.3544 C   0  0  0  0  0  0
  -21.9917   -9.0255   20.4646 C   0  0  0  0  0  0
  -22.7244  -10.2136   20.3056 C   0  0  0  0  0  0
  -21.6854   -6.0737   22.5279 C   0  0  0  0  0  0
  -21.4017   -6.5642   23.8213 C   0  0  0  0  0  0
  -21.3659   -5.6794   24.9174 C   0  0  0  0  0  0
  -21.6044   -4.3058   24.7225 C   0  0  0  0  0  0
  -21.8820   -3.8148   23.4348 C   0  0  0  0  0  0
  -21.9194   -4.6963   22.3403 C   0  0  0  0  0  0
  -22.7810  -13.5221   21.1864 C   0  0  0  0  0  0
  -22.1662   -4.2149   21.0981 F   0  0  0  0  0  0
  -21.5626   -3.4540   25.7738 F   0  0  0  0  0  0
  -29.9897  -13.4969   20.3838 N   0  0  0  0  0  0
  -26.2927  -12.9436   20.3300 N   0  0  0  0  0  0
  -25.9324  -11.6571   20.5770 N   0  0  0  0  0  0
  -22.0463  -12.8210   22.0423 N   0  0  0  0  0  0
  -25.4181  -15.1943   20.4170 N   0  0  0  0  0  0
  -31.8937  -14.6466   20.1690 O   0  0  0  0  0  0
  -21.6644   -6.8881   21.4243 O   0  0  0  0  0  0
  -22.3488  -14.5522   20.6709 O   0  0  0  0  0  0
  -24.6278  -31.8587   23.2026 C   0  0  0  0  0  0
  -25.9122  -32.4772   23.8356 C   0  0  1  0  0  0
  -27.2109  -27.3048   20.1246 C   0  0  0  0  0  0
  -25.5935  -33.8575   24.2283 N   0  0  0  0  0  0
  -23.4218  -30.4840   21.5449 C   0  0  2  0  0  0
  -24.8681  -28.9401   20.1075 C   0  0  0  0  0  0
  -22.7480  -29.4626   22.4926 C   0  0  0  0  0  0
  -18.0289  -28.1386   22.8493 C   0  0  0  0  0  0
  -24.1489  -36.7291   23.2639 C   0  0  0  0  0  0
  -25.9647  -30.7855   21.3762 C   0  0  0  0  0  0
  -26.0384  -29.4125   20.7178 C   0  0  0  0  0  0
  -27.2177  -28.6062   20.7177 C   0  0  0  0  0  0
  -26.0282  -26.8980   19.4721 C   0  0  0  0  0  0
  -24.8660  -27.6893   19.4730 C   0  0  0  0  0  0
  -23.6367  -29.8217   20.1589 C   0  0  0  0  0  0
  -25.4114  -36.3081   24.0330 C   0  0  1  0  0  0
  -20.5892  -28.3690   23.1280 C   0  0  2  0  0  0
  -20.6780  -26.9411   22.5410 C   0  0  0  0  0  0
  -19.5752  -26.6386   21.5215 C   0  0  0  0  0  0
  -18.1933  -26.7930   22.1632 C   0  0  0  0  0  0
  -19.1542  -28.8855   23.2883 C   0  0  0  0  0  0
  -18.9465  -30.1460   23.8895 C   0  0  0  0  0  0
  -17.6463  -30.6588   24.0565 C   0  0  0  0  0  0
  -25.9050  -34.9450   23.5104 C   0  0  0  0  0  0
  -16.5355  -29.9086   23.6333 C   0  0  0  0  0  0
  -16.7276  -28.6504   23.0354 C   0  0  0  0  0  0
  -26.4500  -31.6584   25.0727 C   0  0  0  0  0  0
  -25.3733  -31.3736   26.1455 C   0  0  0  0  0  0
  -27.0337  -30.3006   24.6187 C   0  0  0  0  0  0
  -27.6064  -32.4316   25.7492 C   0  0  0  0  0  0
  -27.5578  -37.1800   24.8465 C   0  0  0  0  0  0
  -21.4192  -29.3047   22.3671 N   0  0  0  0  0  0
  -26.4291  -37.3776   23.9408 N   0  0  0  0  0  0
  -24.6902  -31.0592   22.0980 N   0  0  0  0  0  0
  -23.4195  -28.8159   23.3005 O   0  0  0  0  0  0
  -28.2793  -26.3966   20.1742 O   0  0  0  0  0  0
  -26.5612  -34.8922   22.4666 O   0  0  0  0  0  0
  -23.5440  -32.1391   23.7349 O   0  0  0  0  0  0
  -30.5839  -19.6159   20.0669 C   0  0  0  0  0  0
  -30.0702  -20.9489   20.0721 C   0  0  0  0  0  0
  -28.0604  -20.1111   21.0695 C   0  0  0  0  0  0
  -29.8753  -18.4853   20.5815 C   0  0  0  0  0  0
  -28.7908  -21.2480   20.6046 C   0  0  0  0  0  0
  -28.5738  -18.7720   21.0677 C   0  0  0  0  0  0
  -28.6752  -23.7381   20.3971 C   0  0  0  0  0  0
  -30.6157  -17.1284   20.7321 C   0  0  0  0  0  0
  -27.9554  -25.0892   20.8143 C   0  0  0  0  0  0
  -28.2191  -22.5664   20.7612 N   0  0  0  0  0  0
  -30.0283  -15.8761   20.6419 N   0  0  0  0  0  0
  -31.8337  -17.2486   20.9187 O   0  0  0  0  0  0
  -27.8150  -17.7715   21.5787 F   0  0  0  0  0  0
  -31.4538  -12.4891   19.1586 H   0  0  0  0  0  0
  -30.3155  -11.4426   19.9533 H   0  0  0  0  0  0
  -29.7665  -11.7172   17.5071 H   0  0  0  0  0  0
  -29.6367  -13.4472   17.7169 H   0  0  0  0  0  0
  -27.8742  -11.2832   18.9096 H   0  0  0  0  0  0
  -27.3641  -12.5248   17.7979 H   0  0  0  0  0  0
  -27.6295  -14.2557   19.4602 H   0  0  0  0  0  0
  -28.7084  -12.1990   21.4471 H   0  0  0  0  0  0
  -28.4384  -13.8963   21.7686 H   0  0  0  0  0  0
  -25.2769   -9.5687   22.4759 H   0  0  0  0  0  0
  -24.0009   -7.4635   22.7473 H   0  0  0  0  0  0
  -21.0846   -8.8771   19.8953 H   0  0  0  0  0  0
  -22.3700  -10.9673   19.6163 H   0  0  0  0  0  0
  -21.2011   -7.6151   23.9716 H   0  0  0  0  0  0
  -21.1480   -6.0525   25.9078 H   0  0  0  0  0  0
  -22.0599   -2.7610   23.2847 H   0  0  0  0  0  0
  -22.4088  -11.9878   22.4817 H   0  0  0  0  0  0
  -21.1076  -13.1223   22.2627 H   0  0  0  0  0  0
  -24.6572  -15.8504   20.5544 H   0  0  0  0  0  0
  -26.2793  -15.6450   20.1375 H   0  0  0  0  0  0
  -26.7183  -32.5434   23.1098 H   0  0  0  0  0  0
  -25.0099  -33.9722   25.0439 H   0  0  0  0  0  0
  -22.7174  -31.3063   21.4033 H   0  0  0  0  0  0
  -23.3754  -35.9620   23.3301 H   0  0  0  0  0  0
  -24.3586  -36.8905   22.2053 H   0  0  0  0  0  0
  -23.7240  -37.6497   23.6654 H   0  0  0  0  0  0
  -26.0983  -31.5482   20.6077 H   0  0  0  0  0  0
  -26.8451  -30.8336   22.0053 H   0  0  0  0  0  0
  -28.1120  -28.9582   21.2129 H   0  0  0  0  0  0
  -25.9904  -25.9375   18.9776 H   0  0  0  0  0  0
  -23.9720  -27.3257   18.9851 H   0  0  0  0  0  0
  -23.7562  -30.5997   19.4038 H   0  0  0  0  0  0
  -22.7560  -29.2523   19.8551 H   0  0  0  0  0  0
  -25.1295  -36.1930   25.0823 H   0  0  0  0  0  0
  -20.9992  -28.3259   24.1398 H   0  0  0  0  0  0
  -20.5693  -26.2294   23.3609 H   0  0  0  0  0  0
  -21.6646  -26.7445   22.1193 H   0  0  0  0  0  0
  -19.6907  -25.6298   21.1241 H   0  0  0  0  0  0
  -19.6683  -27.3202   20.6750 H   0  0  0  0  0  0
  -17.4203  -26.6683   21.4031 H   0  0  0  0  0  0
  -18.0331  -26.0073   22.9027 H   0  0  0  0  0  0
  -19.7938  -30.7282   24.2255 H   0  0  0  0  0  0
  -17.5017  -31.6268   24.5164 H   0  0  0  0  0  0
  -15.5355  -30.2986   23.7661 H   0  0  0  0  0  0
  -15.8678  -28.0823   22.7064 H   0  0  0  0  0  0
  -24.5895  -30.7097   25.7791 H   0  0  0  0  0  0
  -24.8945  -32.2912   26.4881 H   0  0  0  0  0  0
  -25.8060  -30.8908   27.0227 H   0  0  0  0  0  0
  -26.2906  -29.6759   24.1214 H   0  0  0  0  0  0
  -27.4035  -29.7258   25.4690 H   0  0  0  0  0  0
  -27.8780  -30.4295   23.9410 H   0  0  0  0  0  0
  -27.2681  -33.3628   26.2052 H   0  0  0  0  0  0
  -28.3882  -32.6852   25.0319 H   0  0  0  0  0  0
  -28.0720  -31.8445   26.5419 H   0  0  0  0  0  0
  -28.2596  -38.0096   24.7515 H   0  0  0  0  0  0
  -28.1071  -36.2630   24.6285 H   0  0  0  0  0  0
  -27.2300  -37.1440   25.8868 H   0  0  0  0  0  0
  -20.9363  -29.8771   21.6887 H   0  0  0  0  0  0
  -26.0170  -38.2848   24.1417 H   0  0  0  0  0  0
  -31.5872  -19.4706   19.6908 H   0  0  0  0  0  0
  -30.6994  -21.7426   19.6943 H   0  0  0  0  0  0
  -27.0741  -20.2665   21.4829 H   0  0  0  0  0  0
  -29.5915  -23.8624   19.8142 H   0  0  0  0  0  0
  -28.1613  -25.2289   21.8759 H   0  0  0  0  0  0
  -26.8853  -24.8858   20.7799 H   0  0  0  0  0  0
  -29.0227  -15.8514   20.6549 H   0  0  0  0  0  0
  1 25  1  0  0  0
  1 30  2  0  0  0
  1 81  1  0  0  0
  2  3  1  0  0  0
  2 25  1  0  0  0
  2 84  1  0  0  0
  2 85  1  0  0  0
  3  4  1  0  0  0
  3 86  1  0  0  0
  3 87  1  0  0  0
  4  5  1  0  0  0
  4 88  1  0  0  0
  4 89  1  0  0  0
  5  6  1  0  0  0
  5 26  1  0  0  0
  5 90  1  0  0  0
  6 25  1  0  0  0
  6 91  1  0  0  0
  6 92  1  0  0  0
  7  8  2  0  0  0
  7 26  1  0  0  0
  7 29  1  0  0  0
  8  9  1  0  0  0
  8 22  1  0  0  0
  9 10  1  0  0  0
  9 27  2  0  0  0
 10 11  2  0  0  0
 10 15  1  0  0  0
 11 12  1  0  0  0
 11 93  1  0  0  0
 12 13  2  0  0  0
 12 94  1  0  0  0
 13 14  1  0  0  0
 13 31  1  0  0  0
 14 15  2  0  0  0
 14 95  1  0  0  0
 15 96  1  0  0  0
 16 17  2  0  0  0
 16 21  1  0  0  0
 16 31  1  0  0  0
 17 18  1  0  0  0
 17 97  1  0  0  0
 18 19  2  0  0  0
 18 98  1  0  0  0
 19 20  1  0  0  0
 19 24  1  0  0  0
 20 21  2  0  0  0
 20 99  1  0  0  0
 21 23  1  0  0  0
 22 28  1  0  0  0
 22 32  2  0  0  0
 26 27  1  0  0  0
 28100  1  0  0  0
 28101  1  0  0  0
 29102  1  0  0  0
 29103  1  0  0  0
 33 34  1  0  0  0
 33 66  1  0  0  0
 33 70  2  0  0  0
 34 36  1  0  0  0
 34 59  1  0  0  0
 34104  1  0  0  0
 35 44  2  0  0  0
 35 45  1  0  0  0
 35 68  1  0  0  0
 36 56  1  0  0  0
 36105  1  0  0  0
 37 39  1  0  0  0
 37 47  1  0  0  0
 37 66  1  0  0  0
 37106  1  0  0  0
 38 43  2  0  0  0
 38 46  1  0  0  0
 38 47  1  0  0  0
 39 64  1  0  0  0
 39 67  2  0  0  0
 40 52  1  0  0  0
 40 53  2  0  0  0
 40 58  1  0  0  0
 41107  1  0  0  0
 41108  1  0  0  0
 41109  1  0  0  0
 41 48  1  0  0  0
 42 43  1  0  0  0
 42 66  1  0  0  0
 42110  1  0  0  0
 42111  1  0  0  0
 43 44  1  0  0  0
 44112  1  0  0  0
 45 46  2  0  0  0
 45113  1  0  0  0
 46114  1  0  0  0
 47115  1  0  0  0
 47116  1  0  0  0
 48 56  1  0  0  0
 48 65  1  0  0  0
 48117  1  0  0  0
 49 50  1  0  0  0
 49 53  1  0  0  0
 49 64  1  0  0  0
 49118  1  0  0  0
 50 51  1  0  0  0
 50119  1  0  0  0
 50120  1  0  0  0
 51 52  1  0  0  0
 51121  1  0  0  0
 51122  1  0  0  0
 52123  1  0  0  0
 52124  1  0  0  0
 53 54  1  0  0  0
 54 55  2  0  0  0
 54125  1  0  0  0
 55 57  1  0  0  0
 55126  1  0  0  0
 56 69  2  0  0  0
 57 58  2  0  0  0
 57127  1  0  0  0
 58128  1  0  0  0
 59 60  1  0  0  0
 59 61  1  0  0  0
 59 62  1  0  0  0
 60129  1  0  0  0
 60130  1  0  0  0
 60131  1  0  0  0
 61132  1  0  0  0
 61133  1  0  0  0
 61134  1  0  0  0
 62135  1  0  0  0
 62136  1  0  0  0
 62137  1  0  0  0
 63 65  1  0  0  0
 63138  1  0  0  0
 63139  1  0  0  0
 63140  1  0  0  0
 64141  1  0  0  0
 65142  1  0  0  0
 68 79  1  0  0  0
 71 72  2  0  0  0
 71 74  1  0  0  0
 71143  1  0  0  0
 72 75  1  0  0  0
 72144  1  0  0  0
 73 75  2  0  0  0
 73 76  1  0  0  0
 73145  1  0  0  0
 74 76  2  0  0  0
 74 78  1  0  0  0
 75 80  1  0  0  0
 76 83  1  0  0  0
 77 79  1  0  0  0
 77 80  2  0  0  0
 77146  1  0  0  0
 78 81  1  0  0  0
 78 82  2  0  0  0
 79147  1  0  0  0
 79148  1  0  0  0
 81149  1  0  0  0
M  ISO  4   1 100  68 101  79 101  81 100
M  END
> <chiral flag>
0

> <version>
0

> <s_m_source_file>
/data/baiqing/PycharmProjects/Reinvent-master-3.2/result/LINK_invent/BTK/process_docking_weight1_custom_product_contain_oxygen_bond_distance_aromatic_linkinvent_7_9_3/rearranged_h_0092.sdf

> <i_m_source_file_index>
7

> <r_mmod_Potential_Energy-OPLS-2005>
112.583511352539

> <r_mmod_Stretch_Energy-OPLS-2005>
91.4567794799805

> <r_mmod_Bend_Energy-OPLS-2005>
169.932464599609

> <r_mmod_Torsional_Energy-OPLS-2005>
239.018981933594

> <r_mmod_Improper_Torsional_Energy-OPLS-2005>
6.20280027389526

> <r_mmod_Van_der_Waal_Energy-OPLS-2005>
156.562911987305

> <r_mmod_Electrostatic_Energy-OPLS-2005>
-402.642517089844

> <r_mmod_Solvation_Energy-OPLS-2005>
-216.218353271484

> <b_mmod_Minimization_Converged-OPLS-2005>
0

> <r_mmod_RMS_Derivative-OPLS-2005>
0.673451483249664

$$$$
7
                    3D
 Structure written by MMmdl.
150158  0  0  1  0            999 V2000
  -30.6110  -14.6672   20.4881 C   0  0  0  0  0  0
  -30.4439  -12.4085   19.4524 C   0  0  0  0  0  0
  -29.5091  -12.5110   18.2257 C   0  0  0  0  0  0
  -28.0322  -12.3457   18.6394 C   0  0  0  0  0  0
  -27.6528  -13.2198   19.8648 C   0  0  2  0  0  0
  -28.7018  -13.0832   20.9922 C   0  0  0  0  0  0
  -25.2534  -13.8159   20.5691 C   0  0  0  0  0  0
  -24.1804  -13.0409   20.9149 C   0  0  0  0  0  0
  -24.6396  -11.6891   20.8719 C   0  0  0  0  0  0
  -23.9067  -10.4277   21.0391 C   0  0  0  0  0  0
  -24.3617   -9.4198   21.9175 C   0  0  0  0  0  0
  -23.6290   -8.2235   22.0750 C   0  0  0  0  0  0
  -22.4272   -8.0275   21.3542 C   0  0  0  0  0  0
  -21.9907   -9.0245   20.4643 C   0  0  0  0  0  0
  -22.7236  -10.2120   20.3045 C   0  0  0  0  0  0
  -21.6852   -6.0734   22.5280 C   0  0  0  0  0  0
  -21.4014   -6.5638   23.8213 C   0  0  0  0  0  0
  -21.3659   -5.6790   24.9175 C   0  0  0  0  0  0
  -21.6044   -4.3053   24.7226 C   0  0  0  0  0  0
  -21.8818   -3.8145   23.4346 C   0  0  0  0  0  0
  -21.9192   -4.6962   22.3402 C   0  0  0  0  0  0
  -22.7828  -13.5201   21.1833 C   0  0  0  0  0  0
  -22.1663   -4.2148   21.0980 F   0  0  0  0  0  0
  -21.5628   -3.4536   25.7738 F   0  0  0  0  0  0
  -30.0143  -13.4331   20.4246 N   0  0  0  0  0  0
  -26.2997  -12.9365   20.3362 N   0  0  0  0  0  0
  -25.9338  -11.6511   20.5775 N   0  0  0  0  0  0
  -22.0484  -12.8196   22.0404 N   0  0  0  0  0  0
  -25.4136  -15.1896   20.4208 N   0  0  0  0  0  0
  -31.7790  -14.8346   20.1273 O   0  0  0  0  0  0
  -21.6634   -6.8875   21.4242 O   0  0  0  0  0  0
  -22.3509  -14.5519   20.6706 O   0  0  0  0  0  0
  -24.6274  -31.8591   23.2023 C   0  0  0  0  0  0
  -25.9117  -32.4776   23.8354 C   0  0  1  0  0  0
  -27.2244  -27.3074   20.1149 C   0  0  0  0  0  0
  -25.5927  -33.8578   24.2276 N   0  0  0  0  0  0
  -23.4214  -30.4839   21.5454 C   0  0  2  0  0  0
  -24.8678  -28.9390   20.1113 C   0  0  0  0  0  0
  -22.7480  -29.4625   22.4931 C   0  0  0  0  0  0
  -18.0289  -28.1387   22.8485 C   0  0  0  0  0  0
  -24.1489  -36.7294   23.2639 C   0  0  0  0  0  0
  -25.9645  -30.7865   21.3754 C   0  0  0  0  0  0
  -26.0386  -29.4137   20.7154 C   0  0  0  0  0  0
  -27.2199  -28.6108   20.7058 C   0  0  0  0  0  0
  -26.0264  -26.8904   19.4873 C   0  0  0  0  0  0
  -24.8642  -27.6829   19.4888 C   0  0  0  0  0  0
  -23.6366  -29.8204   20.1605 C   0  0  0  0  0  0
  -25.4114  -36.3082   24.0327 C   0  0  1  0  0  0
  -20.5889  -28.3693   23.1279 C   0  0  2  0  0  0
  -20.6776  -26.9415   22.5407 C   0  0  0  0  0  0
  -19.5753  -26.6385   21.5210 C   0  0  0  0  0  0
  -18.1934  -26.7929   22.1624 C   0  0  0  0  0  0
  -19.1541  -28.8856   23.2878 C   0  0  0  0  0  0
  -18.9464  -30.1458   23.8895 C   0  0  0  0  0  0
  -17.6464  -30.6589   24.0564 C   0  0  0  0  0  0
  -25.9053  -34.9452   23.5101 C   0  0  0  0  0  0
  -16.5355  -29.9087   23.6330 C   0  0  0  0  0  0
  -16.7276  -28.6505   23.0351 C   0  0  0  0  0  0
  -26.4498  -31.6590   25.0728 C   0  0  0  0  0  0
  -25.3727  -31.3732   26.1452 C   0  0  0  0  0  0
  -27.0345  -30.3012   24.6193 C   0  0  0  0  0  0
  -27.6053  -32.4329   25.7502 C   0  0  0  0  0  0
  -27.5580  -37.1802   24.8464 C   0  0  0  0  0  0
  -21.4193  -29.3045   22.3671 N   0  0  0  0  0  0
  -26.4291  -37.3777   23.9409 N   0  0  0  0  0  0
  -24.6901  -31.0596   22.0979 N   0  0  0  0  0  0
  -23.4200  -28.8163   23.3012 O   0  0  0  0  0  0
  -28.3382  -26.4461   20.1662 O   0  0  0  0  0  0
  -26.5623  -34.8919   22.4669 O   0  0  0  0  0  0
  -23.5434  -32.1396   23.7343 O   0  0  0  0  0  0
  -30.9686  -17.8967   20.4172 C   0  0  0  0  0  0
  -29.8589  -17.1394   20.6364 C   0  0  0  0  0  0
  -28.5863  -17.8773   20.7574 C   0  0  0  0  0  0
  -29.8183  -19.9876   20.4493 C   0  0  0  0  0  0
  -28.8728  -22.3707   20.3740 C   0  0  0  0  0  0
  -29.2436  -23.9180   20.3728 C   0  0  0  0  0  0
  -28.0984  -24.9815   20.0340 C   0  0  0  0  0  0
  -30.9357  -19.3169   20.3326 N   0  0  0  0  0  0
  -28.6468  -19.2359   20.6530 N   0  0  0  0  0  0
  -29.7639  -15.7076   20.7623 N   0  0  0  0  0  0
  -29.8710  -21.4230   20.3840 N   0  0  0  0  0  0
  -27.5059  -17.3086   20.9352 O   0  0  0  0  0  0
  -27.6799  -22.0529   20.3818 O   0  0  0  0  0  0
  -31.4833  -12.5423   19.1480 H   0  0  0  0  0  0
  -30.3877  -11.4147   19.8991 H   0  0  0  0  0  0
  -29.7758  -11.7570   17.4841 H   0  0  0  0  0  0
  -29.6454  -13.4784   17.7394 H   0  0  0  0  0  0
  -27.8726  -11.2929   18.8748 H   0  0  0  0  0  0
  -27.3763  -12.5709   17.7976 H   0  0  0  0  0  0
  -27.6631  -14.2532   19.5179 H   0  0  0  0  0  0
  -28.7196  -12.0634   21.3795 H   0  0  0  0  0  0
  -28.4477  -13.7189   21.8420 H   0  0  0  0  0  0
  -25.2761   -9.5677   22.4750 H   0  0  0  0  0  0
  -23.9998   -7.4630   22.7473 H   0  0  0  0  0  0
  -21.0834   -8.8760   19.8956 H   0  0  0  0  0  0
  -22.3690  -10.9655   19.6152 H   0  0  0  0  0  0
  -21.2006   -7.6146   23.9717 H   0  0  0  0  0  0
  -21.1485   -6.0520   25.9079 H   0  0  0  0  0  0
  -22.0599   -2.7608   23.2843 H   0  0  0  0  0  0
  -22.4103  -11.9855   22.4787 H   0  0  0  0  0  0
  -21.1113  -13.1236   22.2634 H   0  0  0  0  0  0
  -24.6432  -15.8273   20.5869 H   0  0  0  0  0  0
  -26.2932  -15.6823   20.2962 H   0  0  0  0  0  0
  -26.7183  -32.5442   23.1100 H   0  0  0  0  0  0
  -25.0067  -33.9725   25.0415 H   0  0  0  0  0  0
  -22.7156  -31.3049   21.4028 H   0  0  0  0  0  0
  -23.3750  -35.9628   23.3300 H   0  0  0  0  0  0
  -24.3580  -36.8918   22.2054 H   0  0  0  0  0  0
  -23.7244  -37.6495   23.6664 H   0  0  0  0  0  0
  -26.0975  -31.5506   20.6083 H   0  0  0  0  0  0
  -26.8440  -30.8340   22.0060 H   0  0  0  0  0  0
  -28.1175  -28.9710   21.1888 H   0  0  0  0  0  0
  -25.9530  -25.9325   18.9959 H   0  0  0  0  0  0
  -23.9667  -27.3131   19.0122 H   0  0  0  0  0  0
  -23.7570  -30.5977   19.4049 H   0  0  0  0  0  0
  -22.7561  -29.2514   19.8568 H   0  0  0  0  0  0
  -25.1294  -36.1932   25.0819 H   0  0  0  0  0  0
  -20.9982  -28.3269   24.1399 H   0  0  0  0  0  0
  -20.5677  -26.2304   23.3609 H   0  0  0  0  0  0
  -21.6647  -26.7446   22.1203 H   0  0  0  0  0  0
  -19.6916  -25.6295   21.1244 H   0  0  0  0  0  0
  -19.6689  -27.3192   20.6737 H   0  0  0  0  0  0
  -17.4202  -26.6673   21.4029 H   0  0  0  0  0  0
  -18.0340  -26.0074   22.9023 H   0  0  0  0  0  0
  -19.7940  -30.7274   24.2264 H   0  0  0  0  0  0
  -17.5020  -31.6269   24.5165 H   0  0  0  0  0  0
  -15.5356  -30.2989   23.7658 H   0  0  0  0  0  0
  -15.8677  -28.0826   22.7065 H   0  0  0  0  0  0
  -24.5897  -30.7089   25.7777 H   0  0  0  0  0  0
  -24.8924  -32.2901   26.4879 H   0  0  0  0  0  0
  -25.8046  -30.8904   27.0227 H   0  0  0  0  0  0
  -26.2925  -29.6761   24.1211 H   0  0  0  0  0  0
  -27.4031  -29.7271   25.4705 H   0  0  0  0  0  0
  -27.8799  -30.4296   23.9429 H   0  0  0  0  0  0
  -27.2658  -33.3625   26.2082 H   0  0  0  0  0  0
  -28.3863  -32.6898   25.0332 H   0  0  0  0  0  0
  -28.0723  -31.8455   26.5418 H   0  0  0  0  0  0
  -28.2594  -38.0102   24.7514 H   0  0  0  0  0  0
  -28.1079  -36.2633   24.6284 H   0  0  0  0  0  0
  -27.2300  -37.1445   25.8868 H   0  0  0  0  0  0
  -20.9371  -29.8771   21.6883 H   0  0  0  0  0  0
  -26.0171  -38.2852   24.1409 H   0  0  0  0  0  0
  -31.9453  -17.4460   20.3121 H   0  0  0  0  0  0
  -30.0730  -24.0662   19.6813 H   0  0  0  0  0  0
  -29.6366  -24.1457   21.3636 H   0  0  0  0  0  0
  -27.2367  -24.7332   20.6558 H   0  0  0  0  0  0
  -27.7985  -24.7879   19.0036 H   0  0  0  0  0  0
  -27.7762  -19.7399   20.7307 H   0  0  0  0  0  0
  -28.8290  -15.4142   21.0040 H   0  0  0  0  0  0
  -30.8014  -21.8120   20.3413 H   0  0  0  0  0  0
  1 25  1  0  0  0
  1 30  2  0  0  0
  1 80  1  0  0  0
  2  3  1  0  0  0
  2 25  1  0  0  0
  2 84  1  0  0  0
  2 85  1  0  0  0
  3  4  1  0  0  0
  3 86  1  0  0  0
  3 87  1  0  0  0
  4  5  1  0  0  0
  4 88  1  0  0  0
  4 89  1  0  0  0
  5  6  1  0  0  0
  5 26  1  0  0  0
  5 90  1  0  0  0
  6 25  1  0  0  0
  6 91  1  0  0  0
  6 92  1  0  0  0
  7  8  2  0  0  0
  7 26  1  0  0  0
  7 29  1  0  0  0
  8  9  1  0  0  0
  8 22  1  0  0  0
  9 10  1  0  0  0
  9 27  2  0  0  0
 10 11  2  0  0  0
 10 15  1  0  0  0
 11 12  1  0  0  0
 11 93  1  0  0  0
 12 13  2  0  0  0
 12 94  1  0  0  0
 13 14  1  0  0  0
 13 31  1  0  0  0
 14 15  2  0  0  0
 14 95  1  0  0  0
 15 96  1  0  0  0
 16 17  2  0  0  0
 16 21  1  0  0  0
 16 31  1  0  0  0
 17 18  1  0  0  0
 17 97  1  0  0  0
 18 19  2  0  0  0
 18 98  1  0  0  0
 19 20  1  0  0  0
 19 24  1  0  0  0
 20 21  2  0  0  0
 20 99  1  0  0  0
 21 23  1  0  0  0
 22 28  1  0  0  0
 22 32  2  0  0  0
 26 27  1  0  0  0
 28100  1  0  0  0
 28101  1  0  0  0
 29102  1  0  0  0
 29103  1  0  0  0
 33 34  1  0  0  0
 33 66  1  0  0  0
 33 70  2  0  0  0
 34 36  1  0  0  0
 34 59  1  0  0  0
 34104  1  0  0  0
 35 44  2  0  0  0
 35 45  1  0  0  0
 35 68  1  0  0  0
 36 56  1  0  0  0
 36105  1  0  0  0
 37 39  1  0  0  0
 37 47  1  0  0  0
 37 66  1  0  0  0
 37106  1  0  0  0
 38 43  2  0  0  0
 38 46  1  0  0  0
 38 47  1  0  0  0
 39 64  1  0  0  0
 39 67  2  0  0  0
 40 52  1  0  0  0
 40 53  2  0  0  0
 40 58  1  0  0  0
 41107  1  0  0  0
 41108  1  0  0  0
 41109  1  0  0  0
 41 48  1  0  0  0
 42 43  1  0  0  0
 42 66  1  0  0  0
 42110  1  0  0  0
 42111  1  0  0  0
 43 44  1  0  0  0
 44112  1  0  0  0
 45 46  2  0  0  0
 45113  1  0  0  0
 46114  1  0  0  0
 47115  1  0  0  0
 47116  1  0  0  0
 48 56  1  0  0  0
 48 65  1  0  0  0
 48117  1  0  0  0
 49 50  1  0  0  0
 49 53  1  0  0  0
 49 64  1  0  0  0
 49118  1  0  0  0
 50 51  1  0  0  0
 50119  1  0  0  0
 50120  1  0  0  0
 51 52  1  0  0  0
 51121  1  0  0  0
 51122  1  0  0  0
 52123  1  0  0  0
 52124  1  0  0  0
 53 54  1  0  0  0
 54 55  2  0  0  0
 54125  1  0  0  0
 55 57  1  0  0  0
 55126  1  0  0  0
 56 69  2  0  0  0
 57 58  2  0  0  0
 57127  1  0  0  0
 58128  1  0  0  0
 59 60  1  0  0  0
 59 61  1  0  0  0
 59 62  1  0  0  0
 60129  1  0  0  0
 60130  1  0  0  0
 60131  1  0  0  0
 61132  1  0  0  0
 61133  1  0  0  0
 61134  1  0  0  0
 62135  1  0  0  0
 62136  1  0  0  0
 62137  1  0  0  0
 63 65  1  0  0  0
 63138  1  0  0  0
 63139  1  0  0  0
 63140  1  0  0  0
 64141  1  0  0  0
 65142  1  0  0  0
 68 77  1  0  0  0
 71 72  2  0  0  0
 71 78  1  0  0  0
 71143  1  0  0  0
 72 73  1  0  0  0
 72 80  1  0  0  0
 73 79  1  0  0  0
 73 82  2  0  0  0
 74 78  2  0  0  0
 74 79  1  0  0  0
 74 81  1  0  0  0
 75 76  1  0  0  0
 75 81  1  0  0  0
 75 83  2  0  0  0
 76 77  1  0  0  0
 76144  1  0  0  0
 76145  1  0  0  0
 77146  1  0  0  0
 77147  1  0  0  0
 79148  1  0  0  0
 80149  1  0  0  0
 81150  1  0  0  0
M  ISO  4   1 100  68 101  77 101  80 100
M  END
> <chiral flag>
0

> <version>
0

> <s_m_source_file>
/data/baiqing/PycharmProjects/Reinvent-master-3.2/result/LINK_invent/BTK/process_docking_weight1_custom_product_contain_oxygen_bond_distance_aromatic_linkinvent_7_9_3/rearranged_h_0092.sdf

> <i_m_source_file_index>
8

> <r_mmod_Potential_Energy-OPLS-2005>
-255.537902832031

> <r_mmod_Stretch_Energy-OPLS-2005>
86.813835144043

> <r_mmod_Bend_Energy-OPLS-2005>
155.90641784668

> <r_mmod_Torsional_Energy-OPLS-2005>
191.54931640625

> <r_mmod_Improper_Torsional_Energy-OPLS-2005>
5.26408243179321

> <r_mmod_Van_der_Waal_Energy-OPLS-2005>
160.436935424805

> <r_mmod_Electrostatic_Energy-OPLS-2005>
-679.438293457031

> <r_mmod_Solvation_Energy-OPLS-2005>
-232.481597900391

> <b_mmod_Minimization_Converged-OPLS-2005>
0

> <r_mmod_RMS_Derivative-OPLS-2005>
0.344607055187225

$$$$
8
                    3D
 Structure written by MMmdl.
153162  0  0  1  0            999 V2000
  -30.6031  -14.7795   20.4512 C   0  0  0  0  0  0
  -30.4256  -12.4731   19.4837 C   0  0  0  0  0  0
  -29.5072  -12.5209   18.2403 C   0  0  0  0  0  0
  -28.0283  -12.3680   18.6435 C   0  0  0  0  0  0
  -27.6396  -13.2486   19.8659 C   0  0  2  0  0  0
  -28.6910  -13.1800   20.9981 C   0  0  0  0  0  0
  -25.2458  -13.8207   20.5718 C   0  0  0  0  0  0
  -24.1795  -13.0409   20.9213 C   0  0  0  0  0  0
  -24.6421  -11.6891   20.8767 C   0  0  0  0  0  0
  -23.9106  -10.4250   21.0366 C   0  0  0  0  0  0
  -24.3667   -9.4165   21.9134 C   0  0  0  0  0  0
  -23.6327   -8.2209   22.0716 C   0  0  0  0  0  0
  -22.4307   -8.0252   21.3517 C   0  0  0  0  0  0
  -21.9956   -9.0207   20.4621 C   0  0  0  0  0  0
  -22.7275  -10.2076   20.3015 C   0  0  0  0  0  0
  -21.6881   -6.0736   22.5256 C   0  0  0  0  0  0
  -21.4020   -6.5641   23.8186 C   0  0  0  0  0  0
  -21.3658   -5.6791   24.9152 C   0  0  0  0  0  0
  -21.6044   -4.3055   24.7210 C   0  0  0  0  0  0
  -21.8834   -3.8161   23.4322 C   0  0  0  0  0  0
  -21.9182   -4.6969   22.3365 C   0  0  0  0  0  0
  -22.7800  -13.5148   21.1847 C   0  0  0  0  0  0
  -22.1658   -4.2149   21.0952 F   0  0  0  0  0  0
  -21.5638   -3.4536   25.7721 F   0  0  0  0  0  0
  -29.9823  -13.5458   20.4080 N   0  0  0  0  0  0
  -26.2947  -12.9458   20.3412 N   0  0  0  0  0  0
  -25.9375  -11.6570   20.5842 N   0  0  0  0  0  0
  -22.0515  -12.8107   22.0436 N   0  0  0  0  0  0
  -25.4076  -15.1942   20.4048 N   0  0  0  0  0  0
  -31.7946  -14.8472   20.1355 O   0  0  0  0  0  0
  -21.6663   -6.8870   21.4220 O   0  0  0  0  0  0
  -22.3424  -14.5430   20.6687 O   0  0  0  0  0  0
  -24.6315  -31.8483   23.1941 C   0  0  0  0  0  0
  -25.9125  -32.4713   23.8285 C   0  0  1  0  0  0
  -27.2336  -27.2218   20.1316 C   0  0  0  0  0  0
  -25.5924  -33.8525   24.2199 N   0  0  0  0  0  0
  -23.4311  -30.4647   21.5409 C   0  0  2  0  0  0
  -24.8835  -28.9064   20.1077 C   0  0  0  0  0  0
  -22.7466  -29.4534   22.4935 C   0  0  0  0  0  0
  -18.0243  -28.1352   22.8478 C   0  0  0  0  0  0
  -24.1467  -36.7240   23.2642 C   0  0  0  0  0  0
  -25.9799  -30.7478   21.3830 C   0  0  0  0  0  0
  -26.0530  -29.3680   20.7201 C   0  0  0  0  0  0
  -27.2243  -28.5366   20.7220 C   0  0  0  0  0  0
  -26.0337  -26.8330   19.4915 C   0  0  0  0  0  0
  -24.8805  -27.6467   19.4848 C   0  0  0  0  0  0
  -23.6496  -29.7913   20.1582 C   0  0  0  0  0  0
  -25.4104  -36.3024   24.0320 C   0  0  1  0  0  0
  -20.5843  -28.3620   23.1300 C   0  0  2  0  0  0
  -20.6710  -26.9335   22.5431 C   0  0  0  0  0  0
  -19.5714  -26.6339   21.5203 C   0  0  0  0  0  0
  -18.1884  -26.7897   22.1605 C   0  0  0  0  0  0
  -19.1497  -28.8813   23.2885 C   0  0  0  0  0  0
  -18.9428  -30.1439   23.8874 C   0  0  0  0  0  0
  -17.6432  -30.6568   24.0549 C   0  0  0  0  0  0
  -25.9050  -34.9422   23.5052 C   0  0  0  0  0  0
  -16.5323  -29.9049   23.6367 C   0  0  0  0  0  0
  -16.7238  -28.6473   23.0371 C   0  0  0  0  0  0
  -26.4487  -31.6575   25.0707 C   0  0  0  0  0  0
  -25.3741  -31.3768   26.1450 C   0  0  0  0  0  0
  -27.0306  -30.2971   24.6273 C   0  0  0  0  0  0
  -27.6023  -32.4336   25.7461 C   0  0  0  0  0  0
  -27.5582  -37.1737   24.8443 C   0  0  0  0  0  0
  -21.4163  -29.2987   22.3700 N   0  0  0  0  0  0
  -26.4243  -37.3775   23.9458 N   0  0  0  0  0  0
  -24.7000  -31.0388   22.0957 N   0  0  0  0  0  0
  -23.4167  -28.8101   23.3042 O   0  0  0  0  0  0
  -28.3314  -26.3213   20.2538 O   0  0  0  0  0  0
  -26.5658  -34.8904   22.4642 O   0  0  0  0  0  0
  -23.5461  -32.1320   23.7213 O   0  0  0  0  0  0
  -27.5189  -22.8309   20.7861 C   0  0  0  0  0  0
  -29.2730  -18.5699   20.7099 C   0  0  0  0  0  0
  -31.2627  -17.7989   19.7525 C   0  0  0  0  0  0
  -28.5641  -23.5227   20.0989 C   0  0  0  0  0  0
  -30.1262  -17.3876   20.3988 C   0  0  0  0  0  0
  -29.5433  -22.5094   19.9606 C   0  0  0  0  0  0
  -27.8444  -21.5011   20.9368 C   0  0  0  0  0  0
  -29.7545  -19.8378   20.2785 C   0  0  0  0  0  0
  -30.9175  -22.6951   19.3824 C   0  0  0  0  0  0
  -28.5012  -25.0285   19.4817 C   0  0  0  0  0  0
  -29.0950  -21.1995   20.3911 N   0  0  0  0  0  0
  -29.8419  -15.9357   20.6748 N   0  0  0  0  0  0
  -27.0825  -20.5296   21.5074 O   0  0  0  0  0  0
  -31.3018  -19.5358   19.4979 S   0  0  0  0  0  0
  -31.4681  -12.5940   19.1836 H   0  0  0  0  0  0
  -30.3687  -11.5016   19.9767 H   0  0  0  0  0  0
  -29.7826  -11.7350   17.5358 H   0  0  0  0  0  0
  -29.6479  -13.4649   17.7134 H   0  0  0  0  0  0
  -27.8615  -11.3166   18.8737 H   0  0  0  0  0  0
  -27.3783  -12.5929   17.7971 H   0  0  0  0  0  0
  -27.6242  -14.2760   19.5088 H   0  0  0  0  0  0
  -28.7386  -12.1770   21.4287 H   0  0  0  0  0  0
  -28.4384  -13.8511   21.8201 H   0  0  0  0  0  0
  -25.2802   -9.5639   22.4719 H   0  0  0  0  0  0
  -24.0036   -7.4603   22.7434 H   0  0  0  0  0  0
  -21.0904   -8.8712   19.8926 H   0  0  0  0  0  0
  -22.3721  -10.9619   19.6140 H   0  0  0  0  0  0
  -21.2025   -7.6157   23.9698 H   0  0  0  0  0  0
  -21.1486   -6.0523   25.9049 H   0  0  0  0  0  0
  -22.0632   -2.7615   23.2817 H   0  0  0  0  0  0
  -22.4247  -11.9809   22.4820 H   0  0  0  0  0  0
  -21.1107  -13.1040   22.2652 H   0  0  0  0  0  0
  -24.6297  -15.8432   20.4742 H   0  0  0  0  0  0
  -26.2536  -15.6314   20.0624 H   0  0  0  0  0  0
  -26.7186  -32.5321   23.1003 H   0  0  0  0  0  0
  -25.0025  -33.9669   25.0316 H   0  0  0  0  0  0
  -22.7320  -31.2907   21.3898 H   0  0  0  0  0  0
  -23.3777  -35.9507   23.3173 H   0  0  0  0  0  0
  -24.3597  -36.9028   22.2088 H   0  0  0  0  0  0
  -23.7120  -37.6358   23.6771 H   0  0  0  0  0  0
  -26.1314  -31.5135   20.6195 H   0  0  0  0  0  0
  -26.8499  -30.7888   22.0257 H   0  0  0  0  0  0
  -28.1159  -28.8871   21.2233 H   0  0  0  0  0  0
  -25.9378  -25.8627   19.0320 H   0  0  0  0  0  0
  -23.9785  -27.2751   19.0156 H   0  0  0  0  0  0
  -23.7636  -30.5666   19.3986 H   0  0  0  0  0  0
  -22.7671  -29.2218   19.8604 H   0  0  0  0  0  0
  -25.1269  -36.1831   25.0811 H   0  0  0  0  0  0
  -20.9919  -28.3147   24.1431 H   0  0  0  0  0  0
  -20.5510  -26.2220   23.3622 H   0  0  0  0  0  0
  -21.6591  -26.7295   22.1288 H   0  0  0  0  0  0
  -19.6859  -25.6244   21.1245 H   0  0  0  0  0  0
  -19.6689  -27.3132   20.6728 H   0  0  0  0  0  0
  -17.4156  -26.6637   21.4016 H   0  0  0  0  0  0
  -18.0288  -26.0044   22.8995 H   0  0  0  0  0  0
  -19.7913  -30.7264   24.2213 H   0  0  0  0  0  0
  -17.4979  -31.6254   24.5104 H   0  0  0  0  0  0
  -15.5317  -30.2923   23.7734 H   0  0  0  0  0  0
  -15.8631  -28.0795   22.7104 H   0  0  0  0  0  0
  -24.5810  -30.7243   25.7779 H   0  0  0  0  0  0
  -24.9062  -32.2963   26.4982 H   0  0  0  0  0  0
  -25.8048  -30.8830   27.0164 H   0  0  0  0  0  0
  -26.2886  -29.6727   24.1276 H   0  0  0  0  0  0
  -27.3895  -29.7250   25.4831 H   0  0  0  0  0  0
  -27.8816  -30.4180   23.9567 H   0  0  0  0  0  0
  -27.2625  -33.3657   26.1988 H   0  0  0  0  0  0
  -28.3845  -32.6879   25.0295 H   0  0  0  0  0  0
  -28.0668  -31.8505   26.5423 H   0  0  0  0  0  0
  -28.2472  -38.0156   24.7654 H   0  0  0  0  0  0
  -28.1192  -36.2696   24.6013 H   0  0  0  0  0  0
  -27.2359  -37.1096   25.8856 H   0  0  0  0  0  0
  -20.9302  -29.8773   21.6992 H   0  0  0  0  0  0
  -26.0079  -38.2793   24.1643 H   0  0  0  0  0  0
  -26.5752  -23.2714   21.0883 H   0  0  0  0  0  0
  -28.3314  -18.4327   21.2214 H   0  0  0  0  0  0
  -32.0870  -17.1994   19.3833 H   0  0  0  0  0  0
  -31.2038  -23.7427   19.3526 H   0  0  0  0  0  0
  -30.9721  -22.3142   18.3649 H   0  0  0  0  0  0
  -31.6815  -22.2006   19.9831 H   0  0  0  0  0  0
  -27.8143  -25.0051   18.6386 H   0  0  0  0  0  0
  -29.4641  -25.1618   18.9884 H   0  0  0  0  0  0
  -28.8992  -15.7452   20.9855 H   0  0  0  0  0  0
  -26.2961  -20.9408   21.8520 H   0  0  0  0  0  0
  1 25  1  0  0  0
  1 30  2  0  0  0
  1 82  1  0  0  0
  2  3  1  0  0  0
  2 25  1  0  0  0
  2 85  1  0  0  0
  2 86  1  0  0  0
  3  4  1  0  0  0
  3 87  1  0  0  0
  3 88  1  0  0  0
  4  5  1  0  0  0
  4 89  1  0  0  0
  4 90  1  0  0  0
  5  6  1  0  0  0
  5 26  1  0  0  0
  5 91  1  0  0  0
  6 25  1  0  0  0
  6 92  1  0  0  0
  6 93  1  0  0  0
  7  8  2  0  0  0
  7 26  1  0  0  0
  7 29  1  0  0  0
  8  9  1  0  0  0
  8 22  1  0  0  0
  9 10  1  0  0  0
  9 27  2  0  0  0
 10 11  2  0  0  0
 10 15  1  0  0  0
 11 12  1  0  0  0
 11 94  1  0  0  0
 12 13  2  0  0  0
 12 95  1  0  0  0
 13 14  1  0  0  0
 13 31  1  0  0  0
 14 15  2  0  0  0
 14 96  1  0  0  0
 15 97  1  0  0  0
 16 17  2  0  0  0
 16 21  1  0  0  0
 16 31  1  0  0  0
 17 18  1  0  0  0
 17 98  1  0  0  0
 18 19  2  0  0  0
 18 99  1  0  0  0
 19 20  1  0  0  0
 19 24  1  0  0  0
 20 21  2  0  0  0
 20100  1  0  0  0
 21 23  1  0  0  0
 22 28  1  0  0  0
 22 32  2  0  0  0
 26 27  1  0  0  0
 28101  1  0  0  0
 28102  1  0  0  0
 29103  1  0  0  0
 29104  1  0  0  0
 33 34  1  0  0  0
 33 66  1  0  0  0
 33 70  2  0  0  0
 34 36  1  0  0  0
 34 59  1  0  0  0
 34105  1  0  0  0
 35 44  2  0  0  0
 35 45  1  0  0  0
 35 68  1  0  0  0
 36 56  1  0  0  0
 36106  1  0  0  0
 37 39  1  0  0  0
 37 47  1  0  0  0
 37 66  1  0  0  0
 37107  1  0  0  0
 38 43  2  0  0  0
 38 46  1  0  0  0
 38 47  1  0  0  0
 39 64  1  0  0  0
 39 67  2  0  0  0
 40 52  1  0  0  0
 40 53  2  0  0  0
 40 58  1  0  0  0
 41108  1  0  0  0
 41109  1  0  0  0
 41110  1  0  0  0
 41 48  1  0  0  0
 42 43  1  0  0  0
 42 66  1  0  0  0
 42111  1  0  0  0
 42112  1  0  0  0
 43 44  1  0  0  0
 44113  1  0  0  0
 45 46  2  0  0  0
 45114  1  0  0  0
 46115  1  0  0  0
 47116  1  0  0  0
 47117  1  0  0  0
 48 56  1  0  0  0
 48 65  1  0  0  0
 48118  1  0  0  0
 49 50  1  0  0  0
 49 53  1  0  0  0
 49 64  1  0  0  0
 49119  1  0  0  0
 50 51  1  0  0  0
 50120  1  0  0  0
 50121  1  0  0  0
 51 52  1  0  0  0
 51122  1  0  0  0
 51123  1  0  0  0
 52124  1  0  0  0
 52125  1  0  0  0
 53 54  1  0  0  0
 54 55  2  0  0  0
 54126  1  0  0  0
 55 57  1  0  0  0
 55127  1  0  0  0
 56 69  2  0  0  0
 57 58  2  0  0  0
 57128  1  0  0  0
 58129  1  0  0  0
 59 60  1  0  0  0
 59 61  1  0  0  0
 59 62  1  0  0  0
 60130  1  0  0  0
 60131  1  0  0  0
 60132  1  0  0  0
 61133  1  0  0  0
 61134  1  0  0  0
 61135  1  0  0  0
 62136  1  0  0  0
 62137  1  0  0  0
 62138  1  0  0  0
 63 65  1  0  0  0
 63139  1  0  0  0
 63140  1  0  0  0
 63141  1  0  0  0
 64142  1  0  0  0
 65143  1  0  0  0
 68 80  1  0  0  0
 71 74  1  0  0  0
 71 77  2  0  0  0
 71144  1  0  0  0
 72 75  1  0  0  0
 72 78  2  0  0  0
 72145  1  0  0  0
 73 75  2  0  0  0
 73 84  1  0  0  0
 73146  1  0  0  0
 74 76  2  0  0  0
 74 80  1  0  0  0
 75 82  1  0  0  0
 76 79  1  0  0  0
 76 81  1  0  0  0
 77 81  1  0  0  0
 77 83  1  0  0  0
 78 81  1  0  0  0
 78 84  1  0  0  0
 79147  1  0  0  0
 79148  1  0  0  0
 79149  1  0  0  0
 80150  1  0  0  0
 80151  1  0  0  0
 82152  1  0  0  0
 83153  1  0  0  0
M  ISO  4   1 100  68 101  80 101  82 100
M  END
> <chiral flag>
0

> <version>
0

> <s_m_source_file>
/data/baiqing/PycharmProjects/Reinvent-master-3.2/result/LINK_invent/BTK/process_docking_weight1_custom_product_contain_oxygen_bond_distance_aromatic_linkinvent_7_9_3/rearranged_h_0092.sdf

> <i_m_source_file_index>
9

> <r_mmod_Potential_Energy-OPLS-2005>
239.006454467773

> <r_mmod_Stretch_Energy-OPLS-2005>
156.914947509766

> <r_mmod_Bend_Energy-OPLS-2005>
201.778213500977

> <r_mmod_Torsional_Energy-OPLS-2005>
227.174880981445

> <r_mmod_Improper_Torsional_Energy-OPLS-2005>
5.41391468048096

> <r_mmod_Van_der_Waal_Energy-OPLS-2005>
124.90015411377

> <r_mmod_Electrostatic_Energy-OPLS-2005>
-361.888305664062

> <r_mmod_Solvation_Energy-OPLS-2005>
-219.710494995117

> <b_mmod_Minimization_Converged-OPLS-2005>
0

> <r_mmod_RMS_Derivative-OPLS-2005>
5.14097452163696

$$$$
9
                    3D
 Structure written by MMmdl.
162171  0  0  1  0            999 V2000
  -30.6665  -14.6513   20.5770 C   0  0  0  0  0  0
  -30.4220  -12.4220   19.4623 C   0  0  0  0  0  0
  -29.5002  -12.5301   18.2277 C   0  0  0  0  0  0
  -28.0266  -12.3489   18.6365 C   0  0  0  0  0  0
  -27.6455  -13.2242   19.8578 C   0  0  2  0  0  0
  -28.6809  -13.0997   20.9918 C   0  0  0  0  0  0
  -25.2515  -13.8183   20.5685 C   0  0  0  0  0  0
  -24.1787  -13.0439   20.9185 C   0  0  0  0  0  0
  -24.6383  -11.6916   20.8740 C   0  0  0  0  0  0
  -23.9063  -10.4301   21.0417 C   0  0  0  0  0  0
  -24.3605   -9.4226   21.9208 C   0  0  0  0  0  0
  -23.6288   -8.2257   22.0769 C   0  0  0  0  0  0
  -22.4283   -8.0284   21.3538 C   0  0  0  0  0  0
  -21.9932   -9.0257   20.4625 C   0  0  0  0  0  0
  -22.7247  -10.2149   20.3051 C   0  0  0  0  0  0
  -21.6871   -6.0737   22.5278 C   0  0  0  0  0  0
  -21.4034   -6.5635   23.8210 C   0  0  0  0  0  0
  -21.3669   -5.6785   24.9168 C   0  0  0  0  0  0
  -21.6048   -4.3050   24.7222 C   0  0  0  0  0  0
  -21.8830   -3.8147   23.4344 C   0  0  0  0  0  0
  -21.9205   -4.6966   22.3402 C   0  0  0  0  0  0
  -22.7816  -13.5227   21.1866 C   0  0  0  0  0  0
  -22.1657   -4.2151   21.0980 F   0  0  0  0  0  0
  -21.5625   -3.4529   25.7731 F   0  0  0  0  0  0
  -30.0027  -13.4495   20.4451 N   0  0  0  0  0  0
  -26.2936  -12.9383   20.3284 N   0  0  0  0  0  0
  -25.9307  -11.6534   20.5733 N   0  0  0  0  0  0
  -22.0425  -12.8207   22.0383 N   0  0  0  0  0  0
  -25.4234  -15.1904   20.4143 N   0  0  0  0  0  0
  -31.7654  -14.8136   20.0363 O   0  0  0  0  0  0
  -21.6646   -6.8882   21.4242 O   0  0  0  0  0  0
  -22.3535  -14.5557   20.6737 O   0  0  0  0  0  0
  -24.6265  -31.8582   23.2011 C   0  0  0  0  0  0
  -25.9107  -32.4769   23.8343 C   0  0  1  0  0  0
  -27.2221  -27.3028   20.1294 C   0  0  0  0  0  0
  -25.5917  -33.8570   24.2269 N   0  0  0  0  0  0
  -23.4212  -30.4809   21.5438 C   0  0  2  0  0  0
  -24.8686  -28.9312   20.1129 C   0  0  0  0  0  0
  -22.7475  -29.4614   22.4937 C   0  0  0  0  0  0
  -18.0285  -28.1381   22.8489 C   0  0  0  0  0  0
  -24.1492  -36.7295   23.2642 C   0  0  0  0  0  0
  -25.9627  -30.7858   21.3735 C   0  0  0  0  0  0
  -26.0379  -29.4105   20.7184 C   0  0  0  0  0  0
  -27.2200  -28.6088   20.7139 C   0  0  0  0  0  0
  -26.0349  -26.8813   19.4939 C   0  0  0  0  0  0
  -24.8691  -27.6724   19.4907 C   0  0  0  0  0  0
  -23.6368  -29.8128   20.1605 C   0  0  0  0  0  0
  -25.4118  -36.3082   24.0329 C   0  0  1  0  0  0
  -20.5888  -28.3686   23.1284 C   0  0  2  0  0  0
  -20.6774  -26.9407   22.5414 C   0  0  0  0  0  0
  -19.5752  -26.6380   21.5213 C   0  0  0  0  0  0
  -18.1931  -26.7921   22.1626 C   0  0  0  0  0  0
  -19.1539  -28.8850   23.2881 C   0  0  0  0  0  0
  -18.9461  -30.1452   23.8893 C   0  0  0  0  0  0
  -17.6463  -30.6583   24.0561 C   0  0  0  0  0  0
  -25.9053  -34.9448   23.5104 C   0  0  0  0  0  0
  -16.5353  -29.9083   23.6329 C   0  0  0  0  0  0
  -16.7273  -28.6501   23.0349 C   0  0  0  0  0  0
  -26.4488  -31.6586   25.0720 C   0  0  0  0  0  0
  -25.3721  -31.3727   26.1451 C   0  0  0  0  0  0
  -27.0334  -30.3010   24.6181 C   0  0  0  0  0  0
  -27.6043  -32.4327   25.7493 C   0  0  0  0  0  0
  -27.5581  -37.1805   24.8464 C   0  0  0  0  0  0
  -21.4188  -29.3038   22.3679 N   0  0  0  0  0  0
  -26.4295  -37.3776   23.9405 N   0  0  0  0  0  0
  -24.6888  -31.0595   22.0960 N   0  0  0  0  0  0
  -23.4192  -28.8161   23.3028 O   0  0  0  0  0  0
  -28.3306  -26.4383   20.1510 O   0  0  0  0  0  0
  -26.5627  -34.8914   22.4675 O   0  0  0  0  0  0
  -23.5425  -32.1384   23.7339 O   0  0  0  0  0  0
  -28.9682  -18.8767   19.4598 C   0  0  0  0  0  0
  -29.1677  -17.4949   19.7851 C   0  0  0  0  0  0
  -30.4919  -18.1683   21.6630 C   0  0  0  0  0  0
  -29.5439  -19.9566   20.2020 C   0  0  0  0  0  0
  -29.9459  -17.0868   20.9010 C   0  0  0  0  0  0
  -30.3189  -19.5506   21.3273 C   0  0  0  0  0  0
  -30.1433  -22.9375   18.0254 C   0  0  0  0  0  0
  -28.8569  -23.8115   19.8316 C   0  0  0  0  0  0
  -29.5201  -24.0148   18.6178 C   0  0  0  0  0  0
  -28.8540  -22.5084   20.3410 C   0  0  0  0  0  0
  -30.1852  -21.5847   18.5436 C   0  0  0  0  0  0
  -28.1124  -22.1870   21.6370 C   0  0  0  0  0  0
  -30.2109  -15.4601   22.7743 C   0  0  0  0  0  0
  -28.1188  -25.0190   20.5644 C   0  0  0  0  0  0
  -29.4937  -21.3600   19.6952 N   0  0  0  0  0  0
  -30.9700  -20.5051   22.1103 N   0  0  0  0  0  0
  -30.0974  -15.6705   21.3220 N   0  0  0  0  0  0
  -29.5845  -25.1132   18.0237 O   0  5  0  0  0  0
  -30.8250  -20.7148   17.9407 O   0  0  0  0  0  0
  -31.4653  -12.5307   19.1640 H   0  0  0  0  0  0
  -30.3478  -11.4276   19.9068 H   0  0  0  0  0  0
  -29.7764  -11.7844   17.4815 H   0  0  0  0  0  0
  -29.6313  -13.5021   17.7485 H   0  0  0  0  0  0
  -27.8739  -11.2940   18.8710 H   0  0  0  0  0  0
  -27.3684  -12.5718   17.7956 H   0  0  0  0  0  0
  -27.6609  -14.2586   19.5138 H   0  0  0  0  0  0
  -28.6942  -12.0854   21.3925 H   0  0  0  0  0  0
  -28.3813  -13.7419   21.8183 H   0  0  0  0  0  0
  -25.2738   -9.5706   22.4792 H   0  0  0  0  0  0
  -23.9992   -7.4661   22.7506 H   0  0  0  0  0  0
  -21.0898   -8.8764   19.8897 H   0  0  0  0  0  0
  -22.3708  -10.9702   19.6163 H   0  0  0  0  0  0
  -21.2024   -7.6143   23.9719 H   0  0  0  0  0  0
  -21.1479   -6.0508   25.9069 H   0  0  0  0  0  0
  -22.0601   -2.7609   23.2842 H   0  0  0  0  0  0
  -22.4001  -11.9832   22.4724 H   0  0  0  0  0  0
  -21.1055  -13.1275   22.2597 H   0  0  0  0  0  0
  -24.6621  -15.8514   20.5212 H   0  0  0  0  0  0
  -26.2922  -15.6274   20.1346 H   0  0  0  0  0  0
  -26.7178  -32.5436   23.1093 H   0  0  0  0  0  0
  -25.0038  -33.9713   25.0397 H   0  0  0  0  0  0
  -22.7152  -31.3012   21.3991 H   0  0  0  0  0  0
  -23.3751  -35.9632   23.3302 H   0  0  0  0  0  0
  -24.3586  -36.8919   22.2058 H   0  0  0  0  0  0
  -23.7250  -37.6497   23.6665 H   0  0  0  0  0  0
  -26.0946  -31.5480   20.6044 H   0  0  0  0  0  0
  -26.8425  -30.8357   22.0035 H   0  0  0  0  0  0
  -28.1186  -28.9728   21.1928 H   0  0  0  0  0  0
  -26.0005  -25.9200   19.0005 H   0  0  0  0  0  0
  -23.9749  -27.3013   19.0085 H   0  0  0  0  0  0
  -23.7552  -30.5869   19.4015 H   0  0  0  0  0  0
  -22.7563  -29.2420   19.8600 H   0  0  0  0  0  0
  -25.1301  -36.1931   25.0821 H   0  0  0  0  0  0
  -20.9979  -28.3256   24.1407 H   0  0  0  0  0  0
  -20.5671  -26.2293   23.3613 H   0  0  0  0  0  0
  -21.6642  -26.7432   22.1211 H   0  0  0  0  0  0
  -19.6911  -25.6290   21.1241 H   0  0  0  0  0  0
  -19.6685  -27.3190   20.6742 H   0  0  0  0  0  0
  -17.4199  -26.6665   21.4029 H   0  0  0  0  0  0
  -18.0335  -26.0063   22.9024 H   0  0  0  0  0  0
  -19.7939  -30.7268   24.2258 H   0  0  0  0  0  0
  -17.5018  -31.6261   24.5163 H   0  0  0  0  0  0
  -15.5355  -30.2983   23.7654 H   0  0  0  0  0  0
  -15.8674  -28.0818   22.7066 H   0  0  0  0  0  0
  -24.5894  -30.7075   25.7784 H   0  0  0  0  0  0
  -24.8914  -32.2894   26.4873 H   0  0  0  0  0  0
  -25.8048  -30.8905   27.0228 H   0  0  0  0  0  0
  -26.2911  -29.6759   24.1201 H   0  0  0  0  0  0
  -27.4028  -29.7265   25.4687 H   0  0  0  0  0  0
  -27.8779  -30.4297   23.9407 H   0  0  0  0  0  0
  -27.2644  -33.3625   26.2065 H   0  0  0  0  0  0
  -28.3850  -32.6893   25.0320 H   0  0  0  0  0  0
  -28.0711  -31.8455   26.5412 H   0  0  0  0  0  0
  -28.2601  -38.0100   24.7506 H   0  0  0  0  0  0
  -28.1074  -36.2631   24.6294 H   0  0  0  0  0  0
  -27.2297  -37.1459   25.8867 H   0  0  0  0  0  0
  -20.9368  -29.8761   21.6889 H   0  0  0  0  0  0
  -26.0173  -38.2852   24.1397 H   0  0  0  0  0  0
  -28.3887  -19.1100   18.5776 H   0  0  0  0  0  0
  -28.6983  -16.7446   19.1659 H   0  0  0  0  0  0
  -31.0925  -17.9365   22.5304 H   0  0  0  0  0  0
  -30.6526  -23.0972   17.0856 H   0  0  0  0  0  0
  -27.1023  -22.5966   21.6093 H   0  0  0  0  0  0
  -28.6308  -22.6301   22.4888 H   0  0  0  0  0  0
  -28.0014  -21.1232   21.8402 H   0  0  0  0  0  0
  -30.0540  -14.4250   23.0805 H   0  0  0  0  0  0
  -29.4758  -16.0625   23.3087 H   0  0  0  0  0  0
  -31.2037  -15.7425   23.1289 H   0  0  0  0  0  0
  -28.4367  -24.9854   21.6065 H   0  0  0  0  0  0
  -27.0589  -24.7712   20.5948 H   0  0  0  0  0  0
  -31.2687  -20.2372   23.0423 H   0  0  0  0  0  0
  -30.6108  -21.4549   22.0750 H   0  0  0  0  0  0
  1 25  1  0  0  0
  1 30  2  0  0  0
  1 87  1  0  0  0
  2  3  1  0  0  0
  2 25  1  0  0  0
  2 90  1  0  0  0
  2 91  1  0  0  0
  3  4  1  0  0  0
  3 92  1  0  0  0
  3 93  1  0  0  0
  4  5  1  0  0  0
  4 94  1  0  0  0
  4 95  1  0  0  0
  5  6  1  0  0  0
  5 26  1  0  0  0
  5 96  1  0  0  0
  6 25  1  0  0  0
  6 97  1  0  0  0
  6 98  1  0  0  0
  7  8  2  0  0  0
  7 26  1  0  0  0
  7 29  1  0  0  0
  8  9  1  0  0  0
  8 22  1  0  0  0
  9 10  1  0  0  0
  9 27  2  0  0  0
 10 11  2  0  0  0
 10 15  1  0  0  0
 11 12  1  0  0  0
 11 99  1  0  0  0
 12 13  2  0  0  0
 12100  1  0  0  0
 13 14  1  0  0  0
 13 31  1  0  0  0
 14 15  2  0  0  0
 14101  1  0  0  0
 15102  1  0  0  0
 16 17  2  0  0  0
 16 21  1  0  0  0
 16 31  1  0  0  0
 17 18  1  0  0  0
 17103  1  0  0  0
 18 19  2  0  0  0
 18104  1  0  0  0
 19 20  1  0  0  0
 19 24  1  0  0  0
 20 21  2  0  0  0
 20105  1  0  0  0
 21 23  1  0  0  0
 22 28  1  0  0  0
 22 32  2  0  0  0
 26 27  1  0  0  0
 28106  1  0  0  0
 28107  1  0  0  0
 29108  1  0  0  0
 29109  1  0  0  0
 33 34  1  0  0  0
 33 66  1  0  0  0
 33 70  2  0  0  0
 34 36  1  0  0  0
 34 59  1  0  0  0
 34110  1  0  0  0
 35 44  2  0  0  0
 35 45  1  0  0  0
 35 68  1  0  0  0
 36 56  1  0  0  0
 36111  1  0  0  0
 37 39  1  0  0  0
 37 47  1  0  0  0
 37 66  1  0  0  0
 37112  1  0  0  0
 38 43  2  0  0  0
 38 46  1  0  0  0
 38 47  1  0  0  0
 39 64  1  0  0  0
 39 67  2  0  0  0
 40 52  1  0  0  0
 40 53  2  0  0  0
 40 58  1  0  0  0
 41113  1  0  0  0
 41114  1  0  0  0
 41115  1  0  0  0
 41 48  1  0  0  0
 42 43  1  0  0  0
 42 66  1  0  0  0
 42116  1  0  0  0
 42117  1  0  0  0
 43 44  1  0  0  0
 44118  1  0  0  0
 45 46  2  0  0  0
 45119  1  0  0  0
 46120  1  0  0  0
 47121  1  0  0  0
 47122  1  0  0  0
 48 56  1  0  0  0
 48 65  1  0  0  0
 48123  1  0  0  0
 49 50  1  0  0  0
 49 53  1  0  0  0
 49 64  1  0  0  0
 49124  1  0  0  0
 50 51  1  0  0  0
 50125  1  0  0  0
 50126  1  0  0  0
 51 52  1  0  0  0
 51127  1  0  0  0
 51128  1  0  0  0
 52129  1  0  0  0
 52130  1  0  0  0
 53 54  1  0  0  0
 54 55  2  0  0  0
 54131  1  0  0  0
 55 57  1  0  0  0
 55132  1  0  0  0
 56 69  2  0  0  0
 57 58  2  0  0  0
 57133  1  0  0  0
 58134  1  0  0  0
 59 60  1  0  0  0
 59 61  1  0  0  0
 59 62  1  0  0  0
 60135  1  0  0  0
 60136  1  0  0  0
 60137  1  0  0  0
 61138  1  0  0  0
 61139  1  0  0  0
 61140  1  0  0  0
 62141  1  0  0  0
 62142  1  0  0  0
 62143  1  0  0  0
 63 65  1  0  0  0
 63144  1  0  0  0
 63145  1  0  0  0
 63146  1  0  0  0
 64147  1  0  0  0
 65148  1  0  0  0
 68 84  1  0  0  0
 71 72  2  0  0  0
 71 74  1  0  0  0
 71149  1  0  0  0
 72 75  1  0  0  0
 72150  1  0  0  0
 73 75  2  0  0  0
 73 76  1  0  0  0
 73151  1  0  0  0
 74 76  2  0  0  0
 74 85  1  0  0  0
 75 87  1  0  0  0
 76 86  1  0  0  0
 77 79  2  0  0  0
 77 81  1  0  0  0
 77152  1  0  0  0
 78 79  1  0  0  0
 78 80  2  0  0  0
 78 84  1  0  0  0
 79 88  1  0  0  0
 80 82  1  0  0  0
 80 85  1  0  0  0
 81 85  1  0  0  0
 81 89  2  0  0  0
 82153  1  0  0  0
 82154  1  0  0  0
 82155  1  0  0  0
 83 87  1  0  0  0
 83156  1  0  0  0
 83157  1  0  0  0
 83158  1  0  0  0
 84159  1  0  0  0
 84160  1  0  0  0
 86161  1  0  0  0
 86162  1  0  0  0
M  CHG  1  88  -1
M  ISO  4   1 100  68 101  84 101  87 100
M  END
> <chiral flag>
0

> <version>
0

> <s_m_source_file>
/data/baiqing/PycharmProjects/Reinvent-master-3.2/result/LINK_invent/BTK/process_docking_weight1_custom_product_contain_oxygen_bond_distance_aromatic_linkinvent_7_9_3/rearranged_h_0092.sdf

> <i_m_source_file_index>
10

> <r_mmod_Potential_Energy-OPLS-2005>
178.412750244141

> <r_mmod_Stretch_Energy-OPLS-2005>
118.323867797852

> <r_mmod_Bend_Energy-OPLS-2005>
206.597473144531

> <r_mmod_Torsional_Energy-OPLS-2005>
348.357757568359

> <r_mmod_Improper_Torsional_Energy-OPLS-2005>
8.24303340911865

> <r_mmod_Van_der_Waal_Energy-OPLS-2005>
181.049545288086

> <r_mmod_Electrostatic_Energy-OPLS-2005>
-266.679168701172

> <r_mmod_Solvation_Energy-OPLS-2005>
-470.168731689453

> <b_mmod_Minimization_Converged-OPLS-2005>
0

> <r_mmod_RMS_Derivative-OPLS-2005>
1.48401439189911

$$$$
10
                    3D
 Structure written by MMmdl.
165174  0  0  1  0            999 V2000
  -30.7507  -14.4364   20.4916 C   0  0  0  0  0  0
  -30.3995  -12.2616   19.4528 C   0  0  0  0  0  0
  -29.4918  -12.4576   18.2213 C   0  0  0  0  0  0
  -28.0112  -12.3486   18.6281 C   0  0  0  0  0  0
  -27.6546  -13.2142   19.8656 C   0  0  2  0  0  0
  -28.6959  -13.0530   21.0000 C   0  0  0  0  0  0
  -25.2546  -13.8187   20.5677 C   0  0  0  0  0  0
  -24.1815  -13.0453   20.9196 C   0  0  0  0  0  0
  -24.6381  -11.6923   20.8756 C   0  0  0  0  0  0
  -23.9062  -10.4304   21.0418 C   0  0  0  0  0  0
  -24.3613   -9.4211   21.9193 C   0  0  0  0  0  0
  -23.6283   -8.2248   22.0754 C   0  0  0  0  0  0
  -22.4263   -8.0287   21.3553 C   0  0  0  0  0  0
  -21.9905   -9.0271   20.4663 C   0  0  0  0  0  0
  -22.7238  -10.2143   20.3069 C   0  0  0  0  0  0
  -21.6859   -6.0737   22.5277 C   0  0  0  0  0  0
  -21.4024   -6.5639   23.8210 C   0  0  0  0  0  0
  -21.3656   -5.6789   24.9170 C   0  0  0  0  0  0
  -21.6030   -4.3052   24.7227 C   0  0  0  0  0  0
  -21.8820   -3.8152   23.4350 C   0  0  0  0  0  0
  -21.9197   -4.6967   22.3406 C   0  0  0  0  0  0
  -22.7823  -13.5250   21.1850 C   0  0  0  0  0  0
  -22.1657   -4.2160   21.0978 F   0  0  0  0  0  0
  -21.5626   -3.4531   25.7739 F   0  0  0  0  0  0
  -30.0324  -13.2867   20.4405 N   0  0  0  0  0  0
  -26.2983  -12.9371   20.3335 N   0  0  0  0  0  0
  -25.9313  -11.6530   20.5796 N   0  0  0  0  0  0
  -22.0465  -12.8243   22.0408 N   0  0  0  0  0  0
  -25.4253  -15.1899   20.4034 N   0  0  0  0  0  0
  -31.9254  -14.5155   20.1176 O   0  0  0  0  0  0
  -21.6635   -6.8880   21.4239 O   0  0  0  0  0  0
  -22.3520  -14.5558   20.6700 O   0  0  0  0  0  0
  -24.6114  -31.8691   23.2120 C   0  0  0  0  0  0
  -25.9016  -32.4834   23.8406 C   0  0  1  0  0  0
  -27.2365  -27.4579   20.1004 C   0  0  0  0  0  0
  -25.5864  -33.8632   24.2327 N   0  0  0  0  0  0
  -23.3993  -30.4921   21.5518 C   0  0  2  0  0  0
  -24.8480  -28.9631   20.1157 C   0  0  0  0  0  0
  -22.7399  -29.4652   22.4993 C   0  0  0  0  0  0
  -18.0271  -28.1364   22.8492 C   0  0  0  0  0  0
  -24.1479  -36.7319   23.2642 C   0  0  0  0  0  0
  -25.9264  -30.8433   21.3617 C   0  0  0  0  0  0
  -26.0063  -29.4806   20.7090 C   0  0  0  0  0  0
  -27.2058  -28.7366   20.6965 C   0  0  0  0  0  0
  -26.0642  -26.9533   19.4941 C   0  0  0  0  0  0
  -24.8708  -27.6970   19.5053 C   0  0  0  0  0  0
  -23.6071  -29.8232   20.1667 C   0  0  0  0  0  0
  -25.4103  -36.3122   24.0338 C   0  0  1  0  0  0
  -20.5858  -28.3640   23.1325 C   0  0  2  0  0  0
  -20.6753  -26.9377   22.5425 C   0  0  0  0  0  0
  -19.5737  -26.6379   21.5208 C   0  0  0  0  0  0
  -18.1914  -26.7911   22.1620 C   0  0  0  0  0  0
  -19.1519  -28.8816   23.2910 C   0  0  0  0  0  0
  -18.9451  -30.1422   23.8930 C   0  0  0  0  0  0
  -17.6457  -30.6575   24.0566 C   0  0  0  0  0  0
  -25.9021  -34.9482   23.5136 C   0  0  0  0  0  0
  -16.5348  -29.9084   23.6324 C   0  0  0  0  0  0
  -16.7258  -28.6496   23.0349 C   0  0  0  0  0  0
  -26.4451  -31.6622   25.0729 C   0  0  0  0  0  0
  -25.3727  -31.3748   26.1488 C   0  0  0  0  0  0
  -27.0270  -30.3062   24.6103 C   0  0  0  0  0  0
  -27.6034  -32.4337   25.7477 C   0  0  0  0  0  0
  -27.5572  -37.1822   24.8470 C   0  0  0  0  0  0
  -21.4126  -29.3015   22.3737 N   0  0  0  0  0  0
  -26.4297  -37.3797   23.9395 N   0  0  0  0  0  0
  -24.6642  -31.0810   22.1005 N   0  0  0  0  0  0
  -23.4182  -28.8183   23.3016 O   0  0  0  0  0  0
  -28.3939  -26.7142   20.1224 O   0  0  0  0  0  0
  -26.5586  -34.8930   22.4696 O   0  0  0  0  0  0
  -23.5313  -32.1418   23.7537 O   0  0  0  0  0  0
  -30.7318  -18.5997   21.2612 C   0  0  0  0  0  0
  -30.8250  -19.9922   21.4785 C   0  0  0  0  0  0
  -29.3626  -19.0017   19.2843 C   0  0  0  0  0  0
  -30.0391  -18.1017   20.1378 C   0  0  0  0  0  0
  -30.2095  -20.9016   20.5882 C   0  0  0  0  0  0
  -29.4497  -20.3905   19.5036 C   0  0  0  0  0  0
  -30.7105  -25.0903   20.4244 C   0  0  0  0  0  0
  -29.5041  -24.5962   20.7812 C   0  0  0  0  0  0
  -31.9164  -24.2412   20.4334 C   0  0  0  0  0  0
  -30.1874  -16.6967   19.7435 C   0  0  0  0  0  0
  -31.7696  -22.7797   20.8844 C   0  0  0  0  0  0
  -29.3015  -23.1329   21.1958 C   0  0  2  0  0  0
  -29.1441  -23.0139   22.7215 C   0  0  0  0  0  0
  -28.2341  -25.4379   20.7558 C   0  0  0  0  0  0
  -30.4006  -22.2932   20.7146 N   0  0  0  0  0  0
  -28.8586  -21.2675   18.5948 N   0  0  0  0  0  0
  -30.0255  -15.6661   20.6124 N   0  0  0  0  0  0
  -30.5345  -16.4961   18.4610 N   0  3  0  0  0  0
  -33.0254  -24.6630   20.0996 O   0  0  0  0  0  0
  -31.4504  -12.3047   19.1583 H   0  0  0  0  0  0
  -30.2555  -11.2688   19.8825 H   0  0  0  0  0  0
  -29.7228  -11.7044   17.4669 H   0  0  0  0  0  0
  -29.6841  -13.4248   17.7550 H   0  0  0  0  0  0
  -27.8095  -11.2986   18.8423 H   0  0  0  0  0  0
  -27.3688  -12.6125   17.7880 H   0  0  0  0  0  0
  -27.6838  -14.2515   19.5318 H   0  0  0  0  0  0
  -28.6487  -12.0493   21.4245 H   0  0  0  0  0  0
  -28.4823  -13.7362   21.8231 H   0  0  0  0  0  0
  -25.2761   -9.5694   22.4763 H   0  0  0  0  0  0
  -24.0016   -7.4628   22.7451 H   0  0  0  0  0  0
  -21.0852   -8.8794   19.8955 H   0  0  0  0  0  0
  -22.3707  -10.9686   19.6177 H   0  0  0  0  0  0
  -21.2019   -7.6149   23.9722 H   0  0  0  0  0  0
  -21.1466   -6.0515   25.9071 H   0  0  0  0  0  0
  -22.0605   -2.7620   23.2846 H   0  0  0  0  0  0
  -22.4081  -11.9920   22.4831 H   0  0  0  0  0  0
  -21.1085  -13.1282   22.2607 H   0  0  0  0  0  0
  -24.6512  -15.8387   20.4961 H   0  0  0  0  0  0
  -26.2601  -15.6249   20.0347 H   0  0  0  0  0  0
  -26.7090  -32.5562   23.1177 H   0  0  0  0  0  0
  -24.9998  -33.9800   25.0460 H   0  0  0  0  0  0
  -22.6873  -31.3081   21.4122 H   0  0  0  0  0  0
  -23.3723  -35.9677   23.3380 H   0  0  0  0  0  0
  -24.3557  -36.8857   22.2042 H   0  0  0  0  0  0
  -23.7270  -37.6562   23.6611 H   0  0  0  0  0  0
  -26.0358  -31.6119   20.5956 H   0  0  0  0  0  0
  -26.8140  -30.8968   21.9800 H   0  0  0  0  0  0
  -28.1000  -29.1307   21.1594 H   0  0  0  0  0  0
  -26.0667  -25.9889   19.0065 H   0  0  0  0  0  0
  -23.9809  -27.2927   19.0429 H   0  0  0  0  0  0
  -23.7095  -30.5945   19.4025 H   0  0  0  0  0  0
  -22.7344  -29.2355   19.8764 H   0  0  0  0  0  0
  -25.1288  -36.1997   25.0833 H   0  0  0  0  0  0
  -20.9946  -28.3201   24.1446 H   0  0  0  0  0  0
  -20.5626  -26.2247   23.3605 H   0  0  0  0  0  0
  -21.6629  -26.7402   22.1243 H   0  0  0  0  0  0
  -19.6901  -25.6295   21.1224 H   0  0  0  0  0  0
  -19.6680  -27.3203   20.6747 H   0  0  0  0  0  0
  -17.4179  -26.6651   21.4029 H   0  0  0  0  0  0
  -18.0320  -26.0049   22.9014 H   0  0  0  0  0  0
  -19.7928  -30.7214   24.2328 H   0  0  0  0  0  0
  -17.5019  -31.6262   24.5159 H   0  0  0  0  0  0
  -15.5348  -30.3001   23.7628 H   0  0  0  0  0  0
  -15.8654  -28.0821   22.7062 H   0  0  0  0  0  0
  -24.5858  -30.7137   25.7837 H   0  0  0  0  0  0
  -24.8959  -32.2923   26.4959 H   0  0  0  0  0  0
  -25.8074  -30.8895   27.0237 H   0  0  0  0  0  0
  -26.2812  -29.6841   24.1140 H   0  0  0  0  0  0
  -27.4019  -29.7282   25.4561 H   0  0  0  0  0  0
  -27.8658  -30.4374   23.9260 H   0  0  0  0  0  0
  -27.2649  -33.3610   26.2111 H   0  0  0  0  0  0
  -28.3804  -32.6951   25.0281 H   0  0  0  0  0  0
  -28.0752  -31.8437   26.5345 H   0  0  0  0  0  0
  -28.2650  -38.0058   24.7449 H   0  0  0  0  0  0
  -28.1002  -36.2593   24.6382 H   0  0  0  0  0  0
  -27.2284  -37.1593   25.8873 H   0  0  0  0  0  0
  -20.9278  -29.8729   21.6958 H   0  0  0  0  0  0
  -26.0195  -38.2886   24.1364 H   0  0  0  0  0  0
  -31.2697  -17.9260   21.9154 H   0  0  0  0  0  0
  -31.4084  -20.3562   22.3118 H   0  0  0  0  0  0
  -28.8315  -18.6287   18.4193 H   0  0  0  0  0  0
  -30.8261  -26.1198   20.1221 H   0  0  0  0  0  0
  -32.0681  -22.7001   21.9298 H   0  0  0  0  0  0
  -32.4559  -22.1636   20.3004 H   0  0  0  0  0  0
  -28.3749  -22.7856   20.7356 H   0  0  0  0  0  0
  -30.0344  -23.3522   23.2516 H   0  0  0  0  0  0
  -28.9500  -21.9839   23.0196 H   0  0  0  0  0  0
  -28.3058  -23.6109   23.0793 H   0  0  0  0  0  0
  -27.9013  -25.5869   21.7844 H   0  0  0  0  0  0
  -27.4669  -24.8489   20.2541 H   0  0  0  0  0  0
  -28.8068  -20.9579   17.6307 H   0  0  0  0  0  0
  -29.2358  -22.2064   18.6785 H   0  0  0  0  0  0
  -29.2150  -15.7652   21.1993 H   0  0  0  0  0  0
  -30.7047  -17.2950   17.8696 H   0  0  0  0  0  0
  -30.7842  -15.5852   18.1107 H   0  0  0  0  0  0
  1 25  1  0  0  0
  1 30  2  0  0  0
  1 87  1  0  0  0
  2  3  1  0  0  0
  2 25  1  0  0  0
  2 90  1  0  0  0
  2 91  1  0  0  0
  3  4  1  0  0  0
  3 92  1  0  0  0
  3 93  1  0  0  0
  4  5  1  0  0  0
  4 94  1  0  0  0
  4 95  1  0  0  0
  5  6  1  0  0  0
  5 26  1  0  0  0
  5 96  1  0  0  0
  6 25  1  0  0  0
  6 97  1  0  0  0
  6 98  1  0  0  0
  7  8  2  0  0  0
  7 26  1  0  0  0
  7 29  1  0  0  0
  8  9  1  0  0  0
  8 22  1  0  0  0
  9 10  1  0  0  0
  9 27  2  0  0  0
 10 11  2  0  0  0
 10 15  1  0  0  0
 11 12  1  0  0  0
 11 99  1  0  0  0
 12 13  2  0  0  0
 12100  1  0  0  0
 13 14  1  0  0  0
 13 31  1  0  0  0
 14 15  2  0  0  0
 14101  1  0  0  0
 15102  1  0  0  0
 16 17  2  0  0  0
 16 21  1  0  0  0
 16 31  1  0  0  0
 17 18  1  0  0  0
 17103  1  0  0  0
 18 19  2  0  0  0
 18104  1  0  0  0
 19 20  1  0  0  0
 19 24  1  0  0  0
 20 21  2  0  0  0
 20105  1  0  0  0
 21 23  1  0  0  0
 22 28  1  0  0  0
 22 32  2  0  0  0
 26 27  1  0  0  0
 28106  1  0  0  0
 28107  1  0  0  0
 29108  1  0  0  0
 29109  1  0  0  0
 33 34  1  0  0  0
 33 66  1  0  0  0
 33 70  2  0  0  0
 34 36  1  0  0  0
 34 59  1  0  0  0
 34110  1  0  0  0
 35 44  2  0  0  0
 35 45  1  0  0  0
 35 68  1  0  0  0
 36 56  1  0  0  0
 36111  1  0  0  0
 37 39  1  0  0  0
 37 47  1  0  0  0
 37 66  1  0  0  0
 37112  1  0  0  0
 38 43  2  0  0  0
 38 46  1  0  0  0
 38 47  1  0  0  0
 39 64  1  0  0  0
 39 67  2  0  0  0
 40 52  1  0  0  0
 40 53  2  0  0  0
 40 58  1  0  0  0
 41113  1  0  0  0
 41114  1  0  0  0
 41115  1  0  0  0
 41 48  1  0  0  0
 42 43  1  0  0  0
 42 66  1  0  0  0
 42116  1  0  0  0
 42117  1  0  0  0
 43 44  1  0  0  0
 44118  1  0  0  0
 45 46  2  0  0  0
 45119  1  0  0  0
 46120  1  0  0  0
 47121  1  0  0  0
 47122  1  0  0  0
 48 56  1  0  0  0
 48 65  1  0  0  0
 48123  1  0  0  0
 49 50  1  0  0  0
 49 53  1  0  0  0
 49 64  1  0  0  0
 49124  1  0  0  0
 50 51  1  0  0  0
 50125  1  0  0  0
 50126  1  0  0  0
 51 52  1  0  0  0
 51127  1  0  0  0
 51128  1  0  0  0
 52129  1  0  0  0
 52130  1  0  0  0
 53 54  1  0  0  0
 54 55  2  0  0  0
 54131  1  0  0  0
 55 57  1  0  0  0
 55132  1  0  0  0
 56 69  2  0  0  0
 57 58  2  0  0  0
 57133  1  0  0  0
 58134  1  0  0  0
 59 60  1  0  0  0
 59 61  1  0  0  0
 59 62  1  0  0  0
 60135  1  0  0  0
 60136  1  0  0  0
 60137  1  0  0  0
 61138  1  0  0  0
 61139  1  0  0  0
 61140  1  0  0  0
 62141  1  0  0  0
 62142  1  0  0  0
 62143  1  0  0  0
 63 65  1  0  0  0
 63144  1  0  0  0
 63145  1  0  0  0
 63146  1  0  0  0
 64147  1  0  0  0
 65148  1  0  0  0
 68 84  1  0  0  0
 71 72  2  0  0  0
 71 74  1  0  0  0
 71149  1  0  0  0
 72 75  1  0  0  0
 72150  1  0  0  0
 73 74  2  0  0  0
 73 76  1  0  0  0
 73151  1  0  0  0
 74 80  1  0  0  0
 75 76  2  0  0  0
 75 85  1  0  0  0
 76 86  1  0  0  0
 77 78  2  0  0  0
 77 79  1  0  0  0
 77152  1  0  0  0
 78 82  1  0  0  0
 78 84  1  0  0  0
 79 81  1  0  0  0
 79 89  2  0  0  0
 80 87  1  0  0  0
 80 88  2  0  0  0
 81 85  1  0  0  0
 81153  1  0  0  0
 81154  1  0  0  0
 82 83  1  0  0  0
 82 85  1  0  0  0
 82155  1  0  0  0
 83156  1  0  0  0
 83157  1  0  0  0
 83158  1  0  0  0
 84159  1  0  0  0
 84160  1  0  0  0
 86161  1  0  0  0
 86162  1  0  0  0
 87163  1  0  0  0
 88164  1  0  0  0
 88165  1  0  0  0
M  CHG  1  88   1
M  ISO  4   1 100  68 101  84 101  87 100
M  END
> <chiral flag>
0

> <version>
0

> <s_m_source_file>
/data/baiqing/PycharmProjects/Reinvent-master-3.2/result/LINK_invent/BTK/process_docking_weight1_custom_product_contain_oxygen_bond_distance_aromatic_linkinvent_7_9_3/rearranged_h_0092.sdf

> <i_m_source_file_index>
11

> <r_mmod_Potential_Energy-OPLS-2005>
-236.165969848633

> <r_mmod_Stretch_Energy-OPLS-2005>
35.688346862793

> <r_mmod_Bend_Energy-OPLS-2005>
103.273712158203

> <r_mmod_Torsional_Energy-OPLS-2005>
313.108245849609

> <r_mmod_Improper_Torsional_Energy-OPLS-2005>
18.3343982696533

> <r_mmod_Van_der_Waal_Energy-OPLS-2005>
174.717559814453

> <r_mmod_Electrostatic_Energy-OPLS-2005>
-441.356231689453

> <r_mmod_Solvation_Energy-OPLS-2005>
-458.817901611328

> <b_mmod_Minimization_Converged-OPLS-2005>
0

> <r_mmod_RMS_Derivative-OPLS-2005>
2.00517153739929

$$$$
11
                    3D
 Structure written by MMmdl.
155163  0  0  1  0            999 V2000
  -30.7492  -14.4554   20.5216 C   0  0  0  0  0  0
  -30.4001  -12.2846   19.4300 C   0  0  0  0  0  0
  -29.4840  -12.4734   18.2053 C   0  0  0  0  0  0
  -28.0083  -12.3449   18.6261 C   0  0  0  0  0  0
  -27.6526  -13.2117   19.8634 C   0  0  2  0  0  0
  -28.7007  -13.0496   20.9899 C   0  0  0  0  0  0
  -25.2539  -13.8167   20.5647 C   0  0  0  0  0  0
  -24.1818  -13.0438   20.9191 C   0  0  0  0  0  0
  -24.6385  -11.6909   20.8773 C   0  0  0  0  0  0
  -23.9055  -10.4289   21.0412 C   0  0  0  0  0  0
  -24.3612   -9.4200   21.9180 C   0  0  0  0  0  0
  -23.6283   -8.2239   22.0755 C   0  0  0  0  0  0
  -22.4266   -8.0275   21.3539 C   0  0  0  0  0  0
  -21.9902   -9.0246   20.4643 C   0  0  0  0  0  0
  -22.7234  -10.2123   20.3045 C   0  0  0  0  0  0
  -21.6850   -6.0728   22.5275 C   0  0  0  0  0  0
  -21.4012   -6.5640   23.8208 C   0  0  0  0  0  0
  -21.3655   -5.6789   24.9176 C   0  0  0  0  0  0
  -21.6039   -4.3050   24.7234 C   0  0  0  0  0  0
  -21.8810   -3.8144   23.4355 C   0  0  0  0  0  0
  -21.9194   -4.6958   22.3403 C   0  0  0  0  0  0
  -22.7834  -13.5236   21.1844 C   0  0  0  0  0  0
  -22.1662   -4.2141   21.0982 F   0  0  0  0  0  0
  -21.5622   -3.4535   25.7749 F   0  0  0  0  0  0
  -30.0256  -13.3096   20.4157 N   0  0  0  0  0  0
  -26.2975  -12.9349   20.3327 N   0  0  0  0  0  0
  -25.9323  -11.6511   20.5804 N   0  0  0  0  0  0
  -22.0474  -12.8208   22.0383 N   0  0  0  0  0  0
  -25.4211  -15.1876   20.3926 N   0  0  0  0  0  0
  -31.9258  -14.5258   20.1508 O   0  0  0  0  0  0
  -21.6625   -6.8875   21.4243 O   0  0  0  0  0  0
  -22.3531  -14.5566   20.6736 O   0  0  0  0  0  0
  -24.6123  -31.8678   23.2117 C   0  0  0  0  0  0
  -25.9021  -32.4821   23.8405 C   0  0  1  0  0  0
  -27.2426  -27.4527   20.0999 C   0  0  0  0  0  0
  -25.5884  -33.8622   24.2344 N   0  0  0  0  0  0
  -23.4005  -30.4895   21.5518 C   0  0  2  0  0  0
  -24.8489  -28.9530   20.1212 C   0  0  0  0  0  0
  -22.7396  -29.4652   22.5017 C   0  0  0  0  0  0
  -18.0268  -28.1370   22.8493 C   0  0  0  0  0  0
  -24.1476  -36.7305   23.2637 C   0  0  0  0  0  0
  -25.9266  -30.8395   21.3623 C   0  0  0  0  0  0
  -26.0076  -29.4744   20.7115 C   0  0  0  0  0  0
  -27.2096  -28.7331   20.6930 C   0  0  0  0  0  0
  -26.0686  -26.9356   19.5144 C   0  0  0  0  0  0
  -24.8741  -27.6821   19.5188 C   0  0  0  0  0  0
  -23.6083  -29.8165   20.1682 C   0  0  0  0  0  0
  -25.4094  -36.3114   24.0348 C   0  0  1  0  0  0
  -20.5854  -28.3652   23.1336 C   0  0  2  0  0  0
  -20.6758  -26.9384   22.5433 C   0  0  0  0  0  0
  -19.5748  -26.6384   21.5209 C   0  0  0  0  0  0
  -18.1916  -26.7930   22.1594 C   0  0  0  0  0  0
  -19.1516  -28.8826   23.2910 C   0  0  0  0  0  0
  -18.9443  -30.1430   23.8915 C   0  0  0  0  0  0
  -17.6445  -30.6575   24.0564 C   0  0  0  0  0  0
  -25.9026  -34.9476   23.5146 C   0  0  0  0  0  0
  -16.5335  -29.9073   23.6330 C   0  0  0  0  0  0
  -16.7257  -28.6495   23.0344 C   0  0  0  0  0  0
  -26.4459  -31.6589   25.0723 C   0  0  0  0  0  0
  -25.3729  -31.3694   26.1480 C   0  0  0  0  0  0
  -27.0286  -30.3031   24.6098 C   0  0  0  0  0  0
  -27.6070  -32.4290   25.7454 C   0  0  0  0  0  0
  -27.5601  -37.1777   24.8446 C   0  0  0  0  0  0
  -21.4128  -29.3014   22.3739 N   0  0  0  0  0  0
  -26.4277  -37.3808   23.9438 N   0  0  0  0  0  0
  -24.6642  -31.0802   22.1005 N   0  0  0  0  0  0
  -23.4173  -28.8206   23.3064 O   0  0  0  0  0  0
  -28.4180  -26.7412   20.0548 O   0  0  0  0  0  0
  -26.5592  -34.8932   22.4713 O   0  0  0  0  0  0
  -23.5321  -32.1423   23.7519 O   0  0  0  0  0  0
  -29.6150  -18.7431   19.3631 C   0  0  0  0  0  0
  -28.9201  -19.9554   19.1890 C   0  0  0  0  0  0
  -28.4121  -19.9948   21.5680 C   0  0  0  0  0  0
  -29.7062  -18.1334   20.6346 C   0  0  0  0  0  0
  -28.3338  -20.6052   20.2925 C   0  0  0  0  0  0
  -29.0817  -18.7589   21.7433 C   0  0  0  0  0  0
  -30.5569  -16.9395   20.7382 C   0  0  0  0  0  0
  -28.2362  -24.2699   20.0965 C   0  0  0  0  0  0
  -28.1378  -22.9631   20.9059 C   0  0  0  0  0  0
  -28.4603  -25.5730   20.8868 C   0  0  0  0  0  0
  -27.6886  -21.8344   20.0849 N   0  0  0  0  0  0
  -30.0359  -15.6816   20.7901 N   0  0  0  0  0  0
  -31.8758  -17.1756   20.6637 N   0  3  0  0  0  0
  -28.1527  -24.2503   18.8622 O   0  0  0  0  0  0
  -29.1649  -18.0668   23.3265 Cl  0  0  0  0  0  0
  -31.4479  -12.3378   19.1295 H   0  0  0  0  0  0
  -30.2618  -11.2900   19.8535 H   0  0  0  0  0  0
  -29.7172  -11.7284   17.4419 H   0  0  0  0  0  0
  -29.6605  -13.4478   17.7488 H   0  0  0  0  0  0
  -27.8253  -11.2924   18.8458 H   0  0  0  0  0  0
  -27.3545  -12.5981   17.7911 H   0  0  0  0  0  0
  -27.6786  -14.2486   19.5310 H   0  0  0  0  0  0
  -28.6702  -12.0379   21.3954 H   0  0  0  0  0  0
  -28.4839  -13.7127   21.8296 H   0  0  0  0  0  0
  -25.2760   -9.5658   22.4766 H   0  0  0  0  0  0
  -23.9970   -7.4643   22.7504 H   0  0  0  0  0  0
  -21.0818   -8.8784   19.8960 H   0  0  0  0  0  0
  -22.3718  -10.9663   19.6143 H   0  0  0  0  0  0
  -21.2006   -7.6143   23.9713 H   0  0  0  0  0  0
  -21.1472   -6.0520   25.9071 H   0  0  0  0  0  0
  -22.0593   -2.7608   23.2868 H   0  0  0  0  0  0
  -22.4086  -11.9845   22.4725 H   0  0  0  0  0  0
  -21.1098  -13.1234   22.2641 H   0  0  0  0  0  0
  -24.6305  -15.8208   20.4580 H   0  0  0  0  0  0
  -26.2068  -15.5984   19.9051 H   0  0  0  0  0  0
  -26.7102  -32.5543   23.1179 H   0  0  0  0  0  0
  -25.0031  -33.9785   25.0491 H   0  0  0  0  0  0
  -22.6888  -31.3049   21.4113 H   0  0  0  0  0  0
  -23.3762  -35.9611   23.3254 H   0  0  0  0  0  0
  -24.3600  -36.8961   22.2065 H   0  0  0  0  0  0
  -23.7185  -37.6480   23.6675 H   0  0  0  0  0  0
  -26.0387  -31.6061   20.5944 H   0  0  0  0  0  0
  -26.8143  -30.8925   21.9815 H   0  0  0  0  0  0
  -28.1102  -29.1388   21.1324 H   0  0  0  0  0  0
  -26.0771  -25.9646   19.0409 H   0  0  0  0  0  0
  -23.9839  -27.2744   19.0596 H   0  0  0  0  0  0
  -23.7114  -30.5889   19.4051 H   0  0  0  0  0  0
  -22.7333  -29.2315   19.8768 H   0  0  0  0  0  0
  -25.1256  -36.1978   25.0839 H   0  0  0  0  0  0
  -20.9940  -28.3204   24.1460 H   0  0  0  0  0  0
  -20.5637  -26.2244   23.3612 H   0  0  0  0  0  0
  -21.6634  -26.7405   22.1247 H   0  0  0  0  0  0
  -19.6908  -25.6299   21.1229 H   0  0  0  0  0  0
  -19.6718  -27.3211   20.6758 H   0  0  0  0  0  0
  -17.4200  -26.6702   21.3974 H   0  0  0  0  0  0
  -18.0278  -26.0044   22.8962 H   0  0  0  0  0  0
  -19.7916  -30.7248   24.2283 H   0  0  0  0  0  0
  -17.4992  -31.6263   24.5156 H   0  0  0  0  0  0
  -15.5337  -30.2972   23.7649 H   0  0  0  0  0  0
  -15.8658  -28.0820   22.7045 H   0  0  0  0  0  0
  -24.5951  -30.6971   25.7835 H   0  0  0  0  0  0
  -24.8851  -32.2835   26.4877 H   0  0  0  0  0  0
  -25.8091  -30.8931   27.0268 H   0  0  0  0  0  0
  -26.2826  -29.6784   24.1171 H   0  0  0  0  0  0
  -27.4074  -29.7283   25.4561 H   0  0  0  0  0  0
  -27.8653  -30.4358   23.9234 H   0  0  0  0  0  0
  -27.2737  -33.3596   26.2062 H   0  0  0  0  0  0
  -28.3843  -32.6826   25.0230 H   0  0  0  0  0  0
  -28.0770  -31.8375   26.5325 H   0  0  0  0  0  0
  -28.2555  -38.0139   24.7604 H   0  0  0  0  0  0
  -28.1159  -36.2684   24.6107 H   0  0  0  0  0  0
  -27.2353  -37.1231   25.8851 H   0  0  0  0  0  0
  -20.9278  -29.8711   21.6944 H   0  0  0  0  0  0
  -26.0165  -38.2868   24.1522 H   0  0  0  0  0  0
  -30.0957  -18.2910   18.5062 H   0  0  0  0  0  0
  -28.8708  -20.3974   18.2027 H   0  0  0  0  0  0
  -27.9601  -20.4728   22.4231 H   0  0  0  0  0  0
  -27.4372  -23.1169   21.7264 H   0  0  0  0  0  0
  -29.1159  -22.7600   21.3457 H   0  0  0  0  0  0
  -29.4495  -25.5195   21.3429 H   0  0  0  0  0  0
  -27.7371  -25.6376   21.6991 H   0  0  0  0  0  0
  -27.6314  -22.1193   19.1093 H   0  0  0  0  0  0
  -29.0486  -15.6806   20.9718 H   0  0  0  0  0  0
  -32.2374  -18.1173   20.6473 H   0  0  0  0  0  0
  -32.4972  -16.3851   20.5199 H   0  0  0  0  0  0
  1 25  1  0  0  0
  1 30  2  0  0  0
  1 82  1  0  0  0
  2  3  1  0  0  0
  2 25  1  0  0  0
  2 86  1  0  0  0
  2 87  1  0  0  0
  3  4  1  0  0  0
  3 88  1  0  0  0
  3 89  1  0  0  0
  4  5  1  0  0  0
  4 90  1  0  0  0
  4 91  1  0  0  0
  5  6  1  0  0  0
  5 26  1  0  0  0
  5 92  1  0  0  0
  6 25  1  0  0  0
  6 93  1  0  0  0
  6 94  1  0  0  0
  7  8  2  0  0  0
  7 26  1  0  0  0
  7 29  1  0  0  0
  8  9  1  0  0  0
  8 22  1  0  0  0
  9 10  1  0  0  0
  9 27  2  0  0  0
 10 11  2  0  0  0
 10 15  1  0  0  0
 11 12  1  0  0  0
 11 95  1  0  0  0
 12 13  2  0  0  0
 12 96  1  0  0  0
 13 14  1  0  0  0
 13 31  1  0  0  0
 14 15  2  0  0  0
 14 97  1  0  0  0
 15 98  1  0  0  0
 16 17  2  0  0  0
 16 21  1  0  0  0
 16 31  1  0  0  0
 17 18  1  0  0  0
 17 99  1  0  0  0
 18 19  2  0  0  0
 18100  1  0  0  0
 19 20  1  0  0  0
 19 24  1  0  0  0
 20 21  2  0  0  0
 20101  1  0  0  0
 21 23  1  0  0  0
 22 28  1  0  0  0
 22 32  2  0  0  0
 26 27  1  0  0  0
 28102  1  0  0  0
 28103  1  0  0  0
 29104  1  0  0  0
 29105  1  0  0  0
 33 34  1  0  0  0
 33 66  1  0  0  0
 33 70  2  0  0  0
 34 36  1  0  0  0
 34 59  1  0  0  0
 34106  1  0  0  0
 35 44  2  0  0  0
 35 45  1  0  0  0
 35 68  1  0  0  0
 36 56  1  0  0  0
 36107  1  0  0  0
 37 39  1  0  0  0
 37 47  1  0  0  0
 37 66  1  0  0  0
 37108  1  0  0  0
 38 43  2  0  0  0
 38 46  1  0  0  0
 38 47  1  0  0  0
 39 64  1  0  0  0
 39 67  2  0  0  0
 40 52  1  0  0  0
 40 53  2  0  0  0
 40 58  1  0  0  0
 41109  1  0  0  0
 41110  1  0  0  0
 41111  1  0  0  0
 41 48  1  0  0  0
 42 43  1  0  0  0
 42 66  1  0  0  0
 42112  1  0  0  0
 42113  1  0  0  0
 43 44  1  0  0  0
 44114  1  0  0  0
 45 46  2  0  0  0
 45115  1  0  0  0
 46116  1  0  0  0
 47117  1  0  0  0
 47118  1  0  0  0
 48 56  1  0  0  0
 48 65  1  0  0  0
 48119  1  0  0  0
 49 50  1  0  0  0
 49 53  1  0  0  0
 49 64  1  0  0  0
 49120  1  0  0  0
 50 51  1  0  0  0
 50121  1  0  0  0
 50122  1  0  0  0
 51 52  1  0  0  0
 51123  1  0  0  0
 51124  1  0  0  0
 52125  1  0  0  0
 52126  1  0  0  0
 53 54  1  0  0  0
 54 55  2  0  0  0
 54127  1  0  0  0
 55 57  1  0  0  0
 55128  1  0  0  0
 56 69  2  0  0  0
 57 58  2  0  0  0
 57129  1  0  0  0
 58130  1  0  0  0
 59 60  1  0  0  0
 59 61  1  0  0  0
 59 62  1  0  0  0
 60131  1  0  0  0
 60132  1  0  0  0
 60133  1  0  0  0
 61134  1  0  0  0
 61135  1  0  0  0
 61136  1  0  0  0
 62137  1  0  0  0
 62138  1  0  0  0
 62139  1  0  0  0
 63 65  1  0  0  0
 63140  1  0  0  0
 63141  1  0  0  0
 63142  1  0  0  0
 64143  1  0  0  0
 65144  1  0  0  0
 68 80  1  0  0  0
 71 72  2  0  0  0
 71 74  1  0  0  0
 71145  1  0  0  0
 72 75  1  0  0  0
 72146  1  0  0  0
 73 75  2  0  0  0
 73 76  1  0  0  0
 73147  1  0  0  0
 74 76  2  0  0  0
 74 77  1  0  0  0
 75 81  1  0  0  0
 76 85  1  0  0  0
 77 82  1  0  0  0
 77 83  2  0  0  0
 78 79  1  0  0  0
 78 80  1  0  0  0
 78 84  2  0  0  0
 79 81  1  0  0  0
 79148  1  0  0  0
 79149  1  0  0  0
 80150  1  0  0  0
 80151  1  0  0  0
 81152  1  0  0  0
 82153  1  0  0  0
 83154  1  0  0  0
 83155  1  0  0  0
M  CHG  1  83   1
M  ISO  4   1 100  68 101  80 101  82 100
M  END
> <chiral flag>
0

> <version>
0

> <s_m_source_file>
/data/baiqing/PycharmProjects/Reinvent-master-3.2/result/LINK_invent/BTK/process_docking_weight1_custom_product_contain_oxygen_bond_distance_aromatic_linkinvent_7_9_3/rearranged_h_0092.sdf

> <i_m_source_file_index>
12

> <r_mmod_Potential_Energy-OPLS-2005>
-186.561752319336

> <r_mmod_Stretch_Energy-OPLS-2005>
35.9175033569336

> <r_mmod_Bend_Energy-OPLS-2005>
101.331581115723

> <r_mmod_Torsional_Energy-OPLS-2005>
253.992416381836

> <r_mmod_Improper_Torsional_Energy-OPLS-2005>
13.8866395950317

> <r_mmod_Van_der_Waal_Energy-OPLS-2005>
159.240524291992

> <r_mmod_Electrostatic_Energy-OPLS-2005>
-322.712493896484

> <r_mmod_Solvation_Energy-OPLS-2005>
-446.044250488281

> <b_mmod_Minimization_Converged-OPLS-2005>
0

> <r_mmod_RMS_Derivative-OPLS-2005>
2.69217419624329

$$$$
12
                    3D
 Structure written by MMmdl.
157166  0  0  1  0            999 V2000
  -30.6664  -14.8448   20.4913 C   0  0  0  0  0  0
  -30.4155  -12.5336   19.5067 C   0  0  0  0  0  0
  -29.5153  -12.5454   18.2567 C   0  0  0  0  0  0
  -28.0512  -12.3305   18.6700 C   0  0  0  0  0  0
  -27.6335  -13.2546   19.8420 C   0  0  2  0  0  0
  -28.6693  -13.2760   20.9908 C   0  0  0  0  0  0
  -25.2287  -13.8064   20.5329 C   0  0  0  0  0  0
  -24.1726  -13.0346   20.9185 C   0  0  0  0  0  0
  -24.6420  -11.6875   20.8864 C   0  0  0  0  0  0
  -23.9093  -10.4258   21.0490 C   0  0  0  0  0  0
  -24.3630   -9.4163   21.9250 C   0  0  0  0  0  0
  -23.6269   -8.2206   22.0776 C   0  0  0  0  0  0
  -22.4249   -8.0272   21.3568 C   0  0  0  0  0  0
  -21.9911   -9.0255   20.4674 C   0  0  0  0  0  0
  -22.7272  -10.2109   20.3112 C   0  0  0  0  0  0
  -21.6844   -6.0728   22.5282 C   0  0  0  0  0  0
  -21.4001   -6.5612   23.8212 C   0  0  0  0  0  0
  -21.3674   -5.6764   24.9176 C   0  0  0  0  0  0
  -21.6034   -4.3032   24.7211 C   0  0  0  0  0  0
  -21.8828   -3.8124   23.4329 C   0  0  0  0  0  0
  -21.9187   -4.6958   22.3398 C   0  0  0  0  0  0
  -22.7737  -13.5170   21.1816 C   0  0  0  0  0  0
  -22.1681   -4.2156   21.0970 F   0  0  0  0  0  0
  -21.5625   -3.4511   25.7724 F   0  0  0  0  0  0
  -29.9726  -13.6381   20.4121 N   0  0  0  0  0  0
  -26.2879  -12.9447   20.3192 N   0  0  0  0  0  0
  -25.9385  -11.6564   20.5844 N   0  0  0  0  0  0
  -22.0384  -12.8230   22.0407 N   0  0  0  0  0  0
  -25.3473  -15.1625   20.2905 N   0  0  0  0  0  0
  -31.8072  -14.8646   20.0125 O   0  0  0  0  0  0
  -21.6611   -6.8871   21.4238 O   0  0  0  0  0  0
  -22.3473  -14.5480   20.6621 O   0  0  0  0  0  0
  -24.6380  -31.8486   23.1906 C   0  0  0  0  0  0
  -25.9178  -32.4722   23.8297 C   0  0  1  0  0  0
  -27.2308  -27.1925   20.1406 C   0  0  0  0  0  0
  -25.5948  -33.8525   24.2227 N   0  0  0  0  0  0
  -23.4401  -30.4705   21.5325 C   0  0  2  0  0  0
  -24.8928  -28.9004   20.1151 C   0  0  0  0  0  0
  -22.7564  -29.4577   22.4869 C   0  0  0  0  0  0
  -18.0312  -28.1382   22.8463 C   0  0  0  0  0  0
  -24.1506  -36.7260   23.2637 C   0  0  0  0  0  0
  -25.9914  -30.7424   21.3789 C   0  0  0  0  0  0
  -26.0679  -29.3552   20.7259 C   0  0  0  0  0  0
  -27.2387  -28.5164   20.7225 C   0  0  0  0  0  0
  -26.0287  -26.8277   19.4915 C   0  0  0  0  0  0
  -24.8809  -27.6456   19.4897 C   0  0  0  0  0  0
  -23.6651  -29.7938   20.1532 C   0  0  0  0  0  0
  -25.4122  -36.3033   24.0323 C   0  0  1  0  0  0
  -20.5918  -28.3702   23.1241 C   0  0  2  0  0  0
  -20.6789  -26.9424   22.5411 C   0  0  0  0  0  0
  -19.5771  -26.6371   21.5201 C   0  0  0  0  0  0
  -18.1945  -26.7919   22.1611 C   0  0  0  0  0  0
  -19.1567  -28.8862   23.2841 C   0  0  0  0  0  0
  -18.9480  -30.1452   23.8870 C   0  0  0  0  0  0
  -17.6473  -30.6572   24.0552 C   0  0  0  0  0  0
  -25.9054  -34.9416   23.5073 C   0  0  0  0  0  0
  -16.5365  -29.9058   23.6321 C   0  0  0  0  0  0
  -16.7289  -28.6482   23.0326 C   0  0  0  0  0  0
  -26.4498  -31.6551   25.0711 C   0  0  0  0  0  0
  -25.3729  -31.3738   26.1448 C   0  0  0  0  0  0
  -27.0292  -30.2919   24.6240 C   0  0  0  0  0  0
  -27.6034  -32.4303   25.7481 C   0  0  0  0  0  0
  -27.5593  -37.1784   24.8456 C   0  0  0  0  0  0
  -21.4253  -29.3051   22.3634 N   0  0  0  0  0  0
  -26.4280  -37.3753   23.9423 N   0  0  0  0  0  0
  -24.7089  -31.0433   22.0887 N   0  0  0  0  0  0
  -23.4255  -28.8122   23.2983 O   0  0  0  0  0  0
  -28.3147  -26.2567   20.1636 O   0  0  0  0  0  0
  -26.5631  -34.8917   22.4651 O   0  0  0  0  0  0
  -23.5517  -32.1337   23.7166 O   0  0  0  0  0  0
  -27.6848  -19.5131   20.4971 C   0  0  0  0  0  0
  -29.9116  -18.6213   20.5535 C   0  0  0  0  0  0
  -28.0388  -17.0913   20.7620 C   0  0  0  0  0  0
  -29.0626  -19.8362   20.4335 C   0  0  0  0  0  0
  -27.1806  -18.2054   20.6486 C   0  0  0  0  0  0
  -29.4372  -17.2265   20.7174 C   0  0  0  0  0  0
  -29.3588  -22.4045   21.2313 C   0  0  0  0  0  0
  -28.6640  -22.1635   19.3218 C   0  0  0  0  0  0
  -29.0770  -23.4933   20.0850 C   0  0  1  0  0  0
  -31.0690  -16.3325   22.3134 C   0  0  0  0  0  0
  -28.0641  -24.7591   20.4203 C   0  0  0  0  0  0
  -29.3895  -21.3137   20.3087 N   0  0  0  0  0  0
  -25.8023  -18.0252   20.7400 N   0  0  0  0  0  0
  -30.2166  -16.0076   21.1667 N   0  0  0  0  0  0
  -29.4050  -22.4085   22.4430 O   0  0  0  0  0  0
  -31.4631  -12.6145   19.2056 H   0  0  0  0  0  0
  -30.3390  -11.5762   20.0168 H   0  0  0  0  0  0
  -29.8261  -11.7728   17.5515 H   0  0  0  0  0  0
  -29.6209  -13.4940   17.7343 H   0  0  0  0  0  0
  -27.9412  -11.2860   18.9592 H   0  0  0  0  0  0
  -27.3920  -12.4820   17.8156 H   0  0  0  0  0  0
  -27.6058  -14.2606   19.4201 H   0  0  0  0  0  0
  -28.7229  -12.3103   21.4916 H   0  0  0  0  0  0
  -28.3747  -13.9997   21.7533 H   0  0  0  0  0  0
  -25.2808   -9.5588   22.4809 H   0  0  0  0  0  0
  -23.9990   -7.4571   22.7455 H   0  0  0  0  0  0
  -21.0867   -8.8792   19.8956 H   0  0  0  0  0  0
  -22.3795  -10.9650   19.6201 H   0  0  0  0  0  0
  -21.2000   -7.6121   23.9710 H   0  0  0  0  0  0
  -21.1494   -6.0496   25.9074 H   0  0  0  0  0  0
  -22.0594   -2.7585   23.2812 H   0  0  0  0  0  0
  -22.3992  -11.9928   22.4877 H   0  0  0  0  0  0
  -21.1015  -13.1277   22.2618 H   0  0  0  0  0  0
  -24.4351  -15.5788   20.1201 H   0  0  0  0  0  0
  -26.0021  -15.3937   19.5528 H   0  0  0  0  0  0
  -26.7253  -32.5349   23.1041 H   0  0  0  0  0  0
  -25.0117  -33.9661   25.0389 H   0  0  0  0  0  0
  -22.7365  -31.2883   21.3749 H   0  0  0  0  0  0
  -23.3780  -35.9574   23.3250 H   0  0  0  0  0  0
  -24.3631  -36.8939   22.2064 H   0  0  0  0  0  0
  -23.7244  -37.6450   23.6682 H   0  0  0  0  0  0
  -26.1421  -31.5022   20.6101 H   0  0  0  0  0  0
  -26.8631  -30.7948   22.0181 H   0  0  0  0  0  0
  -28.1371  -28.8634   21.2134 H   0  0  0  0  0  0
  -25.9490  -25.8814   18.9763 H   0  0  0  0  0  0
  -23.9797  -27.2920   19.0057 H   0  0  0  0  0  0
  -23.7974  -30.5587   19.3876 H   0  0  0  0  0  0
  -22.7831  -29.2249   19.8528 H   0  0  0  0  0  0
  -25.1301  -36.1856   25.0810 H   0  0  0  0  0  0
  -21.0003  -28.3289   24.1369 H   0  0  0  0  0  0
  -20.5664  -26.2328   23.3626 H   0  0  0  0  0  0
  -21.6663  -26.7425   22.1219 H   0  0  0  0  0  0
  -19.6936  -25.6278   21.1251 H   0  0  0  0  0  0
  -19.6688  -27.3163   20.6718 H   0  0  0  0  0  0
  -17.4227  -26.6657   21.3995 H   0  0  0  0  0  0
  -18.0334  -26.0064   22.9001 H   0  0  0  0  0  0
  -19.7957  -30.7267   24.2226 H   0  0  0  0  0  0
  -17.5025  -31.6239   24.5158 H   0  0  0  0  0  0
  -15.5352  -30.2937   23.7659 H   0  0  0  0  0  0
  -15.8692  -28.0779   22.7044 H   0  0  0  0  0  0
  -24.5895  -30.7070   25.7836 H   0  0  0  0  0  0
  -24.8906  -32.2907   26.4842 H   0  0  0  0  0  0
  -25.8071  -30.8977   27.0244 H   0  0  0  0  0  0
  -26.2830  -29.6713   24.1252 H   0  0  0  0  0  0
  -27.3892  -29.7171   25.4781 H   0  0  0  0  0  0
  -27.8768  -30.4135   23.9498 H   0  0  0  0  0  0
  -27.2609  -33.3624   26.1998 H   0  0  0  0  0  0
  -28.3848  -32.6853   25.0313 H   0  0  0  0  0  0
  -28.0669  -31.8464   26.5457 H   0  0  0  0  0  0
  -28.2560  -38.0128   24.7561 H   0  0  0  0  0  0
  -28.1132  -36.2669   24.6168 H   0  0  0  0  0  0
  -27.2340  -37.1320   25.8864 H   0  0  0  0  0  0
  -20.9473  -29.8779   21.6823 H   0  0  0  0  0  0
  -26.0151  -38.2815   24.1435 H   0  0  0  0  0  0
  -26.9687  -20.3198   20.4776 H   0  0  0  0  0  0
  -30.9796  -18.7799   20.5587 H   0  0  0  0  0  0
  -27.6202  -16.1225   20.9782 H   0  0  0  0  0  0
  -29.0729  -22.0841   18.3128 H   0  0  0  0  0  0
  -27.5814  -22.0202   19.2970 H   0  0  0  0  0  0
  -30.0090  -23.8637   19.6569 H   0  0  0  0  0  0
  -31.9120  -16.9528   21.9999 H   0  0  0  0  0  0
  -31.4656  -15.4461   22.8130 H   0  0  0  0  0  0
  -30.4958  -16.8901   23.0598 H   0  0  0  0  0  0
  -27.8923  -24.7295   21.4964 H   0  0  0  0  0  0
  -27.0943  -24.4773   20.0175 H   0  0  0  0  0  0
  -25.2113  -18.5810   20.1266 H   0  0  0  0  0  0
  -25.4859  -17.0527   20.7775 H   0  0  0  0  0  0
  1 25  1  0  0  0
  1 30  2  0  0  0
  1 84  1  0  0  0
  2  3  1  0  0  0
  2 25  1  0  0  0
  2 86  1  0  0  0
  2 87  1  0  0  0
  3  4  1  0  0  0
  3 88  1  0  0  0
  3 89  1  0  0  0
  4  5  1  0  0  0
  4 90  1  0  0  0
  4 91  1  0  0  0
  5  6  1  0  0  0
  5 26  1  0  0  0
  5 92  1  0  0  0
  6 25  1  0  0  0
  6 93  1  0  0  0
  6 94  1  0  0  0
  7  8  2  0  0  0
  7 26  1  0  0  0
  7 29  1  0  0  0
  8  9  1  0  0  0
  8 22  1  0  0  0
  9 10  1  0  0  0
  9 27  2  0  0  0
 10 11  2  0  0  0
 10 15  1  0  0  0
 11 12  1  0  0  0
 11 95  1  0  0  0
 12 13  2  0  0  0
 12 96  1  0  0  0
 13 14  1  0  0  0
 13 31  1  0  0  0
 14 15  2  0  0  0
 14 97  1  0  0  0
 15 98  1  0  0  0
 16 17  2  0  0  0
 16 21  1  0  0  0
 16 31  1  0  0  0
 17 18  1  0  0  0
 17 99  1  0  0  0
 18 19  2  0  0  0
 18100  1  0  0  0
 19 20  1  0  0  0
 19 24  1  0  0  0
 20 21  2  0  0  0
 20101  1  0  0  0
 21 23  1  0  0  0
 22 28  1  0  0  0
 22 32  2  0  0  0
 26 27  1  0  0  0
 28102  1  0  0  0
 28103  1  0  0  0
 29104  1  0  0  0
 29105  1  0  0  0
 33 34  1  0  0  0
 33 66  1  0  0  0
 33 70  2  0  0  0
 34 36  1  0  0  0
 34 59  1  0  0  0
 34106  1  0  0  0
 35 44  2  0  0  0
 35 45  1  0  0  0
 35 68  1  0  0  0
 36 56  1  0  0  0
 36107  1  0  0  0
 37 39  1  0  0  0
 37 47  1  0  0  0
 37 66  1  0  0  0
 37108  1  0  0  0
 38 43  2  0  0  0
 38 46  1  0  0  0
 38 47  1  0  0  0
 39 64  1  0  0  0
 39 67  2  0  0  0
 40 52  1  0  0  0
 40 53  2  0  0  0
 40 58  1  0  0  0
 41109  1  0  0  0
 41110  1  0  0  0
 41111  1  0  0  0
 41 48  1  0  0  0
 42 43  1  0  0  0
 42 66  1  0  0  0
 42112  1  0  0  0
 42113  1  0  0  0
 43 44  1  0  0  0
 44114  1  0  0  0
 45 46  2  0  0  0
 45115  1  0  0  0
 46116  1  0  0  0
 47117  1  0  0  0
 47118  1  0  0  0
 48 56  1  0  0  0
 48 65  1  0  0  0
 48119  1  0  0  0
 49 50  1  0  0  0
 49 53  1  0  0  0
 49 64  1  0  0  0
 49120  1  0  0  0
 50 51  1  0  0  0
 50121  1  0  0  0
 50122  1  0  0  0
 51 52  1  0  0  0
 51123  1  0  0  0
 51124  1  0  0  0
 52125  1  0  0  0
 52126  1  0  0  0
 53 54  1  0  0  0
 54 55  2  0  0  0
 54127  1  0  0  0
 55 57  1  0  0  0
 55128  1  0  0  0
 56 69  2  0  0  0
 57 58  2  0  0  0
 57129  1  0  0  0
 58130  1  0  0  0
 59 60  1  0  0  0
 59 61  1  0  0  0
 59 62  1  0  0  0
 60131  1  0  0  0
 60132  1  0  0  0
 60133  1  0  0  0
 61134  1  0  0  0
 61135  1  0  0  0
 61136  1  0  0  0
 62137  1  0  0  0
 62138  1  0  0  0
 62139  1  0  0  0
 63 65  1  0  0  0
 63140  1  0  0  0
 63141  1  0  0  0
 63142  1  0  0  0
 64143  1  0  0  0
 65144  1  0  0  0
 68 81  1  0  0  0
 71 74  2  0  0  0
 71 75  1  0  0  0
 71145  1  0  0  0
 72 74  1  0  0  0
 72 76  2  0  0  0
 72146  1  0  0  0
 73 75  2  0  0  0
 73 76  1  0  0  0
 73147  1  0  0  0
 74 82  1  0  0  0
 75 83  1  0  0  0
 76 84  1  0  0  0
 77 79  1  0  0  0
 77 82  1  0  0  0
 77 85  2  0  0  0
 78 79  1  0  0  0
 78 82  1  0  0  0
 78148  1  0  0  0
 78149  1  0  0  0
 79 81  1  0  0  0
 79150  1  0  0  0
 80 84  1  0  0  0
 80151  1  0  0  0
 80152  1  0  0  0
 80153  1  0  0  0
 81154  1  0  0  0
 81155  1  0  0  0
 83156  1  0  0  0
 83157  1  0  0  0
M  ISO  4   1 100  68 101  81 101  84 100
M  END
> <chiral flag>
0

> <version>
0

> <s_m_source_file>
/data/baiqing/PycharmProjects/Reinvent-master-3.2/result/LINK_invent/BTK/process_docking_weight1_custom_product_contain_oxygen_bond_distance_aromatic_linkinvent_7_9_3/rearranged_h_0092.sdf

> <i_m_source_file_index>
13

> <r_mmod_Potential_Energy-OPLS-2005>
596.312377929688

> <r_mmod_Stretch_Energy-OPLS-2005>
195.615158081055

> <r_mmod_Bend_Energy-OPLS-2005>
248.30143737793

> <r_mmod_Torsional_Energy-OPLS-2005>
357.228942871094

> <r_mmod_Improper_Torsional_Energy-OPLS-2005>
22.3241710662842

> <r_mmod_Van_der_Waal_Energy-OPLS-2005>
138.874893188477

> <r_mmod_Electrostatic_Energy-OPLS-2005>
-285.782623291016

> <r_mmod_Solvation_Energy-OPLS-2005>
-214.37760925293

> <b_mmod_Minimization_Converged-OPLS-2005>
0

> <r_mmod_RMS_Derivative-OPLS-2005>
5.50029563903809

$$$$
13
                    3D
 Structure written by MMmdl.
156165  0  0  1  0            999 V2000
  -30.5674  -14.6887   20.4720 C   0  0  0  0  0  0
  -30.4480  -12.4185   19.4494 C   0  0  0  0  0  0
  -29.5082  -12.5134   18.2242 C   0  0  0  0  0  0
  -28.0305  -12.3458   18.6366 C   0  0  0  0  0  0
  -27.6537  -13.2129   19.8687 C   0  0  2  0  0  0
  -28.7009  -13.0594   20.9929 C   0  0  0  0  0  0
  -25.2565  -13.8161   20.5735 C   0  0  0  0  0  0
  -24.1813  -13.0413   20.9120 C   0  0  0  0  0  0
  -24.6399  -11.6887   20.8687 C   0  0  0  0  0  0
  -23.9076  -10.4282   21.0378 C   0  0  0  0  0  0
  -24.3624   -9.4218   21.9171 C   0  0  0  0  0  0
  -23.6299   -8.2257   22.0754 C   0  0  0  0  0  0
  -22.4280   -8.0280   21.3539 C   0  0  0  0  0  0
  -21.9915   -9.0239   20.4633 C   0  0  0  0  0  0
  -22.7236  -10.2120   20.3042 C   0  0  0  0  0  0
  -21.6852   -6.0745   22.5294 C   0  0  0  0  0  0
  -21.4004   -6.5653   23.8225 C   0  0  0  0  0  0
  -21.3651   -5.6795   24.9177 C   0  0  0  0  0  0
  -21.6047   -4.3060   24.7223 C   0  0  0  0  0  0
  -21.8813   -3.8162   23.4340 C   0  0  0  0  0  0
  -21.9201   -4.6976   22.3396 C   0  0  0  0  0  0
  -22.7838  -13.5200   21.1803 C   0  0  0  0  0  0
  -22.1670   -4.2166   21.0962 F   0  0  0  0  0  0
  -21.5634   -3.4533   25.7738 F   0  0  0  0  0  0
  -30.0092  -13.4339   20.4271 N   0  0  0  0  0  0
  -26.3006  -12.9337   20.3393 N   0  0  0  0  0  0
  -25.9335  -11.6488   20.5764 N   0  0  0  0  0  0
  -22.0479  -12.8173   22.0347 N   0  0  0  0  0  0
  -25.4276  -15.1899   20.4355 N   0  0  0  0  0  0
  -31.7270  -14.8815   20.0924 O   0  0  0  0  0  0
  -21.6636   -6.8876   21.4255 O   0  0  0  0  0  0
  -22.3516  -14.5519   20.6690 O   0  0  0  0  0  0
  -24.6252  -31.8561   23.1971 C   0  0  0  0  0  0
  -25.9100  -32.4745   23.8306 C   0  0  1  0  0  0
  -27.2381  -27.3053   20.1064 C   0  0  0  0  0  0
  -25.5939  -33.8557   24.2234 N   0  0  0  0  0  0
  -23.4203  -30.4730   21.5429 C   0  0  2  0  0  0
  -24.8688  -28.9203   20.1099 C   0  0  0  0  0  0
  -22.7448  -29.4585   22.4947 C   0  0  0  0  0  0
  -18.0277  -28.1368   22.8490 C   0  0  0  0  0  0
  -24.1489  -36.7265   23.2630 C   0  0  0  0  0  0
  -25.9597  -30.7798   21.3708 C   0  0  0  0  0  0
  -26.0350  -29.4042   20.7152 C   0  0  0  0  0  0
  -27.2156  -28.6032   20.7107 C   0  0  0  0  0  0
  -26.0483  -26.8697   19.4854 C   0  0  0  0  0  0
  -24.8772  -27.6573   19.4930 C   0  0  0  0  0  0
  -23.6336  -29.7980   20.1612 C   0  0  0  0  0  0
  -25.4115  -36.3050   24.0309 C   0  0  1  0  0  0
  -20.5872  -28.3661   23.1294 C   0  0  2  0  0  0
  -20.6767  -26.9386   22.5419 C   0  0  0  0  0  0
  -19.5750  -26.6378   21.5210 C   0  0  0  0  0  0
  -18.1923  -26.7925   22.1606 C   0  0  0  0  0  0
  -19.1527  -28.8832   23.2889 C   0  0  0  0  0  0
  -18.9458  -30.1450   23.8886 C   0  0  0  0  0  0
  -17.6457  -30.6579   24.0563 C   0  0  0  0  0  0
  -25.9065  -34.9432   23.5062 C   0  0  0  0  0  0
  -16.5348  -29.9067   23.6351 C   0  0  0  0  0  0
  -16.7269  -28.6490   23.0362 C   0  0  0  0  0  0
  -26.4505  -31.6572   25.0689 C   0  0  0  0  0  0
  -25.3724  -31.3701   26.1397 C   0  0  0  0  0  0
  -27.0371  -30.3002   24.6148 C   0  0  0  0  0  0
  -27.6035  -32.4331   25.7484 C   0  0  0  0  0  0
  -27.5587  -37.1762   24.8428 C   0  0  0  0  0  0
  -21.4165  -29.3017   22.3690 N   0  0  0  0  0  0
  -26.4259  -37.3780   23.9429 N   0  0  0  0  0  0
  -24.6872  -31.0530   22.0944 N   0  0  0  0  0  0
  -23.4155  -28.8146   23.3054 O   0  0  0  0  0  0
  -28.3761  -26.4841   20.1862 O   0  0  0  0  0  0
  -26.5641  -34.8915   22.4634 O   0  0  0  0  0  0
  -23.5423  -32.1374   23.7306 O   0  0  0  0  0  0
  -27.1016  -23.3368   20.4774 C   0  0  0  0  0  0
  -28.2253  -19.1283   21.3734 C   0  0  0  0  0  0
  -29.9441  -19.4317   19.7504 C   0  0  0  0  0  0
  -28.3351  -23.8014   19.9472 C   0  0  0  0  0  0
  -28.8841  -20.0410   20.4970 C   0  0  0  0  0  0
  -28.5328  -17.7398   21.4592 C   0  0  0  0  0  0
  -29.5802  -17.1445   20.7089 C   0  0  0  0  0  0
  -30.2904  -18.0361   19.8472 C   0  0  0  0  0  0
  -27.1738  -21.9845   20.6875 C   0  0  0  0  0  0
  -29.1258  -22.6409   19.9278 C   0  0  0  0  0  0
  -28.5893  -25.2579   19.3780 C   0  0  0  0  0  0
  -28.4462  -21.4680   20.3822 N   0  0  0  0  0  0
  -27.7631  -16.9279   22.3022 N   0  0  0  0  0  0
  -29.7058  -15.6851   20.8545 N   0  0  0  0  0  0
  -26.1430  -21.1928   21.0950 O   0  0  0  0  0  0
  -30.4133  -22.5337   19.4951 O   0  0  0  0  0  0
  -31.2891  -17.5601   19.0662 F   0  0  0  0  0  0
  -31.4865  -12.5658   19.1439 H   0  0  0  0  0  0
  -30.4062  -11.4227   19.8920 H   0  0  0  0  0  0
  -29.7756  -11.7635   17.4776 H   0  0  0  0  0  0
  -29.6356  -13.4827   17.7408 H   0  0  0  0  0  0
  -27.8646  -11.2909   18.8546 H   0  0  0  0  0  0
  -27.3764  -12.5851   17.7976 H   0  0  0  0  0  0
  -27.6721  -14.2496   19.5312 H   0  0  0  0  0  0
  -28.7269  -12.0287   21.3472 H   0  0  0  0  0  0
  -28.4416  -13.6615   21.8646 H   0  0  0  0  0  0
  -25.2762   -9.5687   22.4751 H   0  0  0  0  0  0
  -24.0002   -7.4643   22.7475 H   0  0  0  0  0  0
  -21.0857   -8.8750   19.8926 H   0  0  0  0  0  0
  -22.3701  -10.9656   19.6149 H   0  0  0  0  0  0
  -21.1992   -7.6159   23.9740 H   0  0  0  0  0  0
  -21.1475   -6.0514   25.9075 H   0  0  0  0  0  0
  -22.0602   -2.7631   23.2840 H   0  0  0  0  0  0
  -22.4083  -11.9803   22.4682 H   0  0  0  0  0  0
  -21.1112  -13.1207   22.2584 H   0  0  0  0  0  0
  -24.6719  -15.8223   20.6714 H   0  0  0  0  0  0
  -26.3341  -15.6428   20.4793 H   0  0  0  0  0  0
  -26.7161  -32.5402   23.1056 H   0  0  0  0  0  0
  -25.0107  -33.9716   25.0395 H   0  0  0  0  0  0
  -22.7162  -31.2936   21.3956 H   0  0  0  0  0  0
  -23.3772  -35.9567   23.3212 H   0  0  0  0  0  0
  -24.3608  -36.8978   22.2060 H   0  0  0  0  0  0
  -23.7192  -37.6416   23.6726 H   0  0  0  0  0  0
  -26.0878  -31.5427   20.6018 H   0  0  0  0  0  0
  -26.8403  -30.8319   21.9986 H   0  0  0  0  0  0
  -28.1112  -28.9678   21.1962 H   0  0  0  0  0  0
  -25.9963  -25.8963   19.0210 H   0  0  0  0  0  0
  -23.9802  -27.2702   19.0294 H   0  0  0  0  0  0
  -23.7412  -30.5703   19.4001 H   0  0  0  0  0  0
  -22.7540  -29.2229   19.8646 H   0  0  0  0  0  0
  -25.1294  -36.1878   25.0797 H   0  0  0  0  0  0
  -20.9966  -28.3231   24.1412 H   0  0  0  0  0  0
  -20.5658  -26.2266   23.3609 H   0  0  0  0  0  0
  -21.6641  -26.7420   22.1213 H   0  0  0  0  0  0
  -19.6916  -25.6291   21.1237 H   0  0  0  0  0  0
  -19.6692  -27.3188   20.6736 H   0  0  0  0  0  0
  -17.4201  -26.6684   21.3996 H   0  0  0  0  0  0
  -18.0298  -26.0047   22.8968 H   0  0  0  0  0  0
  -19.7929  -30.7283   24.2227 H   0  0  0  0  0  0
  -17.4999  -31.6258   24.5161 H   0  0  0  0  0  0
  -15.5347  -30.2956   23.7691 H   0  0  0  0  0  0
  -15.8670  -28.0818   22.7072 H   0  0  0  0  0  0
  -24.5925  -30.7041   25.7709 H   0  0  0  0  0  0
  -24.8901  -32.2863   26.4800 H   0  0  0  0  0  0
  -25.8035  -30.8891   27.0185 H   0  0  0  0  0  0
  -26.2958  -29.6725   24.1191 H   0  0  0  0  0  0
  -27.4101  -29.7288   25.4662 H   0  0  0  0  0  0
  -27.8806  -30.4315   23.9362 H   0  0  0  0  0  0
  -27.2634  -33.3658   26.2011 H   0  0  0  0  0  0
  -28.3886  -32.6848   25.0339 H   0  0  0  0  0  0
  -28.0653  -31.8474   26.5450 H   0  0  0  0  0  0
  -28.2481  -38.0179   24.7660 H   0  0  0  0  0  0
  -28.1209  -36.2719   24.6037 H   0  0  0  0  0  0
  -27.2339  -37.1148   25.8829 H   0  0  0  0  0  0
  -20.9331  -29.8736   21.6909 H   0  0  0  0  0  0
  -26.0109  -38.2819   24.1545 H   0  0  0  0  0  0
  -26.2168  -23.9388   20.6256 H   0  0  0  0  0  0
  -27.4379  -19.4890   22.0121 H   0  0  0  0  0  0
  -30.5047  -20.0379   19.0569 H   0  0  0  0  0  0
  -28.0633  -25.3476   18.4259 H   0  0  0  0  0  0
  -29.6415  -25.2884   19.0951 H   0  0  0  0  0  0
  -27.0765  -17.4031   22.8790 H   0  0  0  0  0  0
  -28.2808  -16.2573   22.8575 H   0  0  0  0  0  0
  -28.8585  -15.3131   21.2549 H   0  0  0  0  0  0
  -25.3736  -21.7420   21.2006 H   0  0  0  0  0  0
  -30.7127  -23.3988   19.2406 H   0  0  0  0  0  0
  1 25  1  0  0  0
  1 30  2  0  0  0
  1 84  1  0  0  0
  2  3  1  0  0  0
  2 25  1  0  0  0
  2 88  1  0  0  0
  2 89  1  0  0  0
  3  4  1  0  0  0
  3 90  1  0  0  0
  3 91  1  0  0  0
  4  5  1  0  0  0
  4 92  1  0  0  0
  4 93  1  0  0  0
  5  6  1  0  0  0
  5 26  1  0  0  0
  5 94  1  0  0  0
  6 25  1  0  0  0
  6 95  1  0  0  0
  6 96  1  0  0  0
  7  8  2  0  0  0
  7 26  1  0  0  0
  7 29  1  0  0  0
  8  9  1  0  0  0
  8 22  1  0  0  0
  9 10  1  0  0  0
  9 27  2  0  0  0
 10 11  2  0  0  0
 10 15  1  0  0  0
 11 12  1  0  0  0
 11 97  1  0  0  0
 12 13  2  0  0  0
 12 98  1  0  0  0
 13 14  1  0  0  0
 13 31  1  0  0  0
 14 15  2  0  0  0
 14 99  1  0  0  0
 15100  1  0  0  0
 16 17  2  0  0  0
 16 21  1  0  0  0
 16 31  1  0  0  0
 17 18  1  0  0  0
 17101  1  0  0  0
 18 19  2  0  0  0
 18102  1  0  0  0
 19 20  1  0  0  0
 19 24  1  0  0  0
 20 21  2  0  0  0
 20103  1  0  0  0
 21 23  1  0  0  0
 22 28  1  0  0  0
 22 32  2  0  0  0
 26 27  1  0  0  0
 28104  1  0  0  0
 28105  1  0  0  0
 29106  1  0  0  0
 29107  1  0  0  0
 33 34  1  0  0  0
 33 66  1  0  0  0
 33 70  2  0  0  0
 34 36  1  0  0  0
 34 59  1  0  0  0
 34108  1  0  0  0
 35 44  2  0  0  0
 35 45  1  0  0  0
 35 68  1  0  0  0
 36 56  1  0  0  0
 36109  1  0  0  0
 37 39  1  0  0  0
 37 47  1  0  0  0
 37 66  1  0  0  0
 37110  1  0  0  0
 38 43  2  0  0  0
 38 46  1  0  0  0
 38 47  1  0  0  0
 39 64  1  0  0  0
 39 67  2  0  0  0
 40 52  1  0  0  0
 40 53  2  0  0  0
 40 58  1  0  0  0
 41111  1  0  0  0
 41112  1  0  0  0
 41113  1  0  0  0
 41 48  1  0  0  0
 42 43  1  0  0  0
 42 66  1  0  0  0
 42114  1  0  0  0
 42115  1  0  0  0
 43 44  1  0  0  0
 44116  1  0  0  0
 45 46  2  0  0  0
 45117  1  0  0  0
 46118  1  0  0  0
 47119  1  0  0  0
 47120  1  0  0  0
 48 56  1  0  0  0
 48 65  1  0  0  0
 48121  1  0  0  0
 49 50  1  0  0  0
 49 53  1  0  0  0
 49 64  1  0  0  0
 49122  1  0  0  0
 50 51  1  0  0  0
 50123  1  0  0  0
 50124  1  0  0  0
 51 52  1  0  0  0
 51125  1  0  0  0
 51126  1  0  0  0
 52127  1  0  0  0
 52128  1  0  0  0
 53 54  1  0  0  0
 54 55  2  0  0  0
 54129  1  0  0  0
 55 57  1  0  0  0
 55130  1  0  0  0
 56 69  2  0  0  0
 57 58  2  0  0  0
 57131  1  0  0  0
 58132  1  0  0  0
 59 60  1  0  0  0
 59 61  1  0  0  0
 59 62  1  0  0  0
 60133  1  0  0  0
 60134  1  0  0  0
 60135  1  0  0  0
 61136  1  0  0  0
 61137  1  0  0  0
 61138  1  0  0  0
 62139  1  0  0  0
 62140  1  0  0  0
 62141  1  0  0  0
 63 65  1  0  0  0
 63142  1  0  0  0
 63143  1  0  0  0
 63144  1  0  0  0
 64145  1  0  0  0
 65146  1  0  0  0
 68 81  1  0  0  0
 71 74  1  0  0  0
 71 79  2  0  0  0
 71147  1  0  0  0
 72 75  2  0  0  0
 72 76  1  0  0  0
 72148  1  0  0  0
 73 75  1  0  0  0
 73 78  2  0  0  0
 73149  1  0  0  0
 74 80  2  0  0  0
 74 81  1  0  0  0
 75 82  1  0  0  0
 76 77  2  0  0  0
 76 83  1  0  0  0
 77 78  1  0  0  0
 77 84  1  0  0  0
 78 87  1  0  0  0
 79 82  1  0  0  0
 79 85  1  0  0  0
 80 82  1  0  0  0
 80 86  1  0  0  0
 81150  1  0  0  0
 81151  1  0  0  0
 83152  1  0  0  0
 83153  1  0  0  0
 84154  1  0  0  0
 85155  1  0  0  0
 86156  1  0  0  0
M  ISO  4   1 100  68 101  81 101  84 100
M  END
> <chiral flag>
0

> <version>
0

> <s_m_source_file>
/data/baiqing/PycharmProjects/Reinvent-master-3.2/result/LINK_invent/BTK/process_docking_weight1_custom_product_contain_oxygen_bond_distance_aromatic_linkinvent_7_9_3/rearranged_h_0092.sdf

> <i_m_source_file_index>
14

> <r_mmod_Potential_Energy-OPLS-2005>
31.7380657196045

> <r_mmod_Stretch_Energy-OPLS-2005>
97.7399444580078

> <r_mmod_Bend_Energy-OPLS-2005>
186.945785522461

> <r_mmod_Torsional_Energy-OPLS-2005>
234.573226928711

> <r_mmod_Improper_Torsional_Energy-OPLS-2005>
10.6610116958618

> <r_mmod_Van_der_Waal_Energy-OPLS-2005>
144.122375488281

> <r_mmod_Electrostatic_Energy-OPLS-2005>
-462.902160644531

> <r_mmod_Solvation_Energy-OPLS-2005>
-239.804336547852

> <b_mmod_Minimization_Converged-OPLS-2005>
0

> <r_mmod_RMS_Derivative-OPLS-2005>
3.07948303222656

$$$$
14
                    3D
 Structure written by MMmdl.
154162  0  0  1  0            999 V2000
  -30.7170  -14.5024   20.4926 C   0  0  0  0  0  0
  -30.4212  -12.3108   19.4312 C   0  0  0  0  0  0
  -29.4983  -12.4659   18.2092 C   0  0  0  0  0  0
  -28.0284  -12.3051   18.6396 C   0  0  0  0  0  0
  -27.6581  -13.1853   19.8617 C   0  0  2  0  0  0
  -28.6997  -13.0648   20.9941 C   0  0  0  0  0  0
  -25.2686  -13.8102   20.5651 C   0  0  0  0  0  0
  -24.1899  -13.0407   20.9156 C   0  0  0  0  0  0
  -24.6416  -11.6883   20.8756 C   0  0  0  0  0  0
  -23.9064  -10.4279   21.0456 C   0  0  0  0  0  0
  -24.3634   -9.4191   21.9217 C   0  0  0  0  0  0
  -23.6308   -8.2229   22.0783 C   0  0  0  0  0  0
  -22.4284   -8.0294   21.3560 C   0  0  0  0  0  0
  -21.9930   -9.0277   20.4647 C   0  0  0  0  0  0
  -22.7276  -10.2151   20.3064 C   0  0  0  0  0  0
  -21.6850   -6.0749   22.5274 C   0  0  0  0  0  0
  -21.4022   -6.5646   23.8212 C   0  0  0  0  0  0
  -21.3661   -5.6797   24.9167 C   0  0  0  0  0  0
  -21.6035   -4.3049   24.7219 C   0  0  0  0  0  0
  -21.8819   -3.8155   23.4324 C   0  0  0  0  0  0
  -21.9203   -4.6973   22.3397 C   0  0  0  0  0  0
  -22.7935  -13.5267   21.1820 C   0  0  0  0  0  0
  -22.1671   -4.2165   21.0961 F   0  0  0  0  0  0
  -21.5636   -3.4533   25.7721 F   0  0  0  0  0  0
  -30.0245  -13.3341   20.4120 N   0  0  0  0  0  0
  -26.3033  -12.9193   20.3283 N   0  0  0  0  0  0
  -25.9334  -11.6383   20.5763 N   0  0  0  0  0  0
  -22.0542  -12.8303   22.0350 N   0  0  0  0  0  0
  -25.4470  -15.1820   20.4094 N   0  0  0  0  0  0
  -31.9076  -14.5630   20.1714 O   0  0  0  0  0  0
  -21.6641   -6.8898   21.4241 O   0  0  0  0  0  0
  -22.3663  -14.5584   20.6640 O   0  0  0  0  0  0
  -24.6154  -31.8678   23.2069 C   0  0  0  0  0  0
  -25.9025  -32.4834   23.8393 C   0  0  1  0  0  0
  -27.2475  -27.4320   20.1025 C   0  0  0  0  0  0
  -25.5869  -33.8630   24.2332 N   0  0  0  0  0  0
  -23.4087  -30.4927   21.5476 C   0  0  2  0  0  0
  -24.8577  -28.9541   20.1134 C   0  0  0  0  0  0
  -22.7429  -29.4719   22.4988 C   0  0  0  0  0  0
  -18.0289  -28.1418   22.8493 C   0  0  0  0  0  0
  -24.1485  -36.7326   23.2640 C   0  0  0  0  0  0
  -25.9358  -30.8396   21.3569 C   0  0  0  0  0  0
  -26.0175  -29.4702   20.7051 C   0  0  0  0  0  0
  -27.2204  -28.7217   20.6831 C   0  0  0  0  0  0
  -26.0730  -26.9361   19.4983 C   0  0  0  0  0  0
  -24.8798  -27.6860   19.5045 C   0  0  0  0  0  0
  -23.6145  -29.8165   20.1663 C   0  0  0  0  0  0
  -25.4119  -36.3130   24.0351 C   0  0  1  0  0  0
  -20.5863  -28.3732   23.1289 C   0  0  2  0  0  0
  -20.6817  -26.9472   22.5422 C   0  0  0  0  0  0
  -19.5778  -26.6442   21.5250 C   0  0  0  0  0  0
  -18.1958  -26.7974   22.1641 C   0  0  0  0  0  0
  -19.1525  -28.8886   23.2899 C   0  0  0  0  0  0
  -18.9435  -30.1495   23.8897 C   0  0  0  0  0  0
  -17.6446  -30.6612   24.0569 C   0  0  0  0  0  0
  -25.9038  -34.9495   23.5152 C   0  0  0  0  0  0
  -16.5344  -29.9126   23.6311 C   0  0  0  0  0  0
  -16.7273  -28.6533   23.0351 C   0  0  0  0  0  0
  -26.4444  -31.6603   25.0720 C   0  0  0  0  0  0
  -25.3720  -31.3698   26.1474 C   0  0  0  0  0  0
  -27.0266  -30.3060   24.6063 C   0  0  0  0  0  0
  -27.6031  -32.4338   25.7471 C   0  0  0  0  0  0
  -27.5595  -37.1818   24.8477 C   0  0  0  0  0  0
  -21.4158  -29.3056   22.3661 N   0  0  0  0  0  0
  -26.4313  -37.3809   23.9413 N   0  0  0  0  0  0
  -24.6718  -31.0807   22.0954 N   0  0  0  0  0  0
  -23.4165  -28.8306   23.3097 O   0  0  0  0  0  0
  -28.3836  -26.6451   20.1264 O   0  0  0  0  0  0
  -26.5606  -34.8939   22.4709 O   0  0  0  0  0  0
  -23.5343  -32.1431   23.7454 O   0  0  0  0  0  0
  -27.7545  -20.1302   19.3380 C   0  0  0  0  0  0
  -27.5015  -18.8171   18.9029 C   0  0  0  0  0  0
  -29.6955  -19.3349   20.5571 C   0  0  0  0  0  0
  -29.4356  -17.9827   20.1674 C   0  0  0  0  0  0
  -28.8792  -20.4164   20.1357 C   0  0  0  0  0  0
  -28.3440  -17.7549   19.2703 C   0  0  0  0  0  0
  -30.4077  -16.8956   20.6098 C   0  0  0  0  0  0
  -29.0599  -24.2406   20.4731 C   0  0  0  0  0  0
  -28.4175  -22.8169   20.6607 C   0  0  0  0  0  0
  -28.2319  -25.4621   20.9538 C   0  0  0  0  0  0
  -28.0488  -16.5316   18.6616 N   0  0  0  0  0  0
  -29.2468  -21.7800   20.3927 N   0  0  0  0  0  0
  -29.9637  -15.6131   20.6602 N   0  0  0  0  0  0
  -31.5574  -17.2281   20.9278 O   0  0  0  0  0  0
  -30.1872  -24.3883   19.9781 O   0  0  0  0  0  0
  -27.2549  -22.6642   21.0538 O   0  0  0  0  0  0
  -31.4657  -12.3925   19.1241 H   0  0  0  0  0  0
  -30.3166  -11.3146   19.8603 H   0  0  0  0  0  0
  -29.7482  -11.7158   17.4570 H   0  0  0  0  0  0
  -29.6487  -13.4351   17.7282 H   0  0  0  0  0  0
  -27.8863  -11.2536   18.8931 H   0  0  0  0  0  0
  -27.3618  -12.5081   17.8002 H   0  0  0  0  0  0
  -27.6704  -14.2086   19.5062 H   0  0  0  0  0  0
  -28.6747  -12.0707   21.4416 H   0  0  0  0  0  0
  -28.4619  -13.7602   21.8019 H   0  0  0  0  0  0
  -25.2791   -9.5664   22.4794 H   0  0  0  0  0  0
  -24.0011   -7.4617   22.7516 H   0  0  0  0  0  0
  -21.0860   -8.8818   19.8946 H   0  0  0  0  0  0
  -22.3775  -10.9712   19.6170 H   0  0  0  0  0  0
  -21.1995   -7.6152   23.9720 H   0  0  0  0  0  0
  -21.1494   -6.0516   25.9076 H   0  0  0  0  0  0
  -22.0597   -2.7622   23.2812 H   0  0  0  0  0  0
  -22.4173  -11.9987   22.4749 H   0  0  0  0  0  0
  -21.1136  -13.1367   22.2456 H   0  0  0  0  0  0
  -24.6748  -15.8347   20.4830 H   0  0  0  0  0  0
  -26.2915  -15.6107   20.0389 H   0  0  0  0  0  0
  -26.7107  -32.5571   23.1167 H   0  0  0  0  0  0
  -24.9981  -33.9796   25.0455 H   0  0  0  0  0  0
  -22.6990  -31.3085   21.4055 H   0  0  0  0  0  0
  -23.3740  -35.9650   23.3318 H   0  0  0  0  0  0
  -24.3577  -36.8921   22.2043 H   0  0  0  0  0  0
  -23.7234  -37.6545   23.6640 H   0  0  0  0  0  0
  -26.0395  -31.6049   20.5841 H   0  0  0  0  0  0
  -26.8249  -30.8980   21.9741 H   0  0  0  0  0  0
  -28.1191  -29.1269   21.1234 H   0  0  0  0  0  0
  -26.0804  -25.9629   19.0279 H   0  0  0  0  0  0
  -23.9913  -27.2839   19.0331 H   0  0  0  0  0  0
  -23.7163  -30.5852   19.4009 H   0  0  0  0  0  0
  -22.7409  -29.2274   19.8813 H   0  0  0  0  0  0
  -25.1282  -36.2007   25.0846 H   0  0  0  0  0  0
  -20.9932  -28.3371   24.1417 H   0  0  0  0  0  0
  -20.5789  -26.2372   23.3608 H   0  0  0  0  0  0
  -21.6681  -26.7555   22.1211 H   0  0  0  0  0  0
  -19.6928  -25.6368   21.1244 H   0  0  0  0  0  0
  -19.6718  -27.3259   20.6787 H   0  0  0  0  0  0
  -17.4235  -26.6725   21.4024 H   0  0  0  0  0  0
  -18.0328  -26.0120   22.9042 H   0  0  0  0  0  0
  -19.7895  -30.7328   24.2280 H   0  0  0  0  0  0
  -17.4983  -31.6286   24.5213 H   0  0  0  0  0  0
  -15.5328  -30.3033   23.7605 H   0  0  0  0  0  0
  -15.8649  -28.0862   22.7080 H   0  0  0  0  0  0
  -24.5871  -30.7069   25.7807 H   0  0  0  0  0  0
  -24.8918  -32.2838   26.4976 H   0  0  0  0  0  0
  -25.8059  -30.8825   27.0205 H   0  0  0  0  0  0
  -26.2777  -29.6835   24.1146 H   0  0  0  0  0  0
  -27.4075  -29.7291   25.4491 H   0  0  0  0  0  0
  -27.8590  -30.4402   23.9158 H   0  0  0  0  0  0
  -27.2630  -33.3615   26.2083 H   0  0  0  0  0  0
  -28.3775  -32.6943   25.0251 H   0  0  0  0  0  0
  -28.0746  -31.8453   26.5341 H   0  0  0  0  0  0
  -28.2638  -38.0088   24.7516 H   0  0  0  0  0  0
  -28.1063  -36.2633   24.6311 H   0  0  0  0  0  0
  -27.2313  -37.1488   25.8876 H   0  0  0  0  0  0
  -20.9348  -29.8690   21.6772 H   0  0  0  0  0  0
  -26.0211  -38.2898   24.1359 H   0  0  0  0  0  0
  -27.1166  -20.9221   18.9778 H   0  0  0  0  0  0
  -26.6836  -18.6400   18.2163 H   0  0  0  0  0  0
  -30.5515  -19.5542   21.1791 H   0  0  0  0  0  0
  -28.5792  -25.7205   21.9532 H   0  0  0  0  0  0
  -27.1856  -25.1767   21.0641 H   0  0  0  0  0  0
  -28.8411  -16.0074   18.3079 H   0  0  0  0  0  0
  -27.3271  -16.5656   17.9448 H   0  0  0  0  0  0
  -30.2128  -22.0400   20.2458 H   0  0  0  0  0  0
  -28.9665  -15.4800   20.6068 H   0  0  0  0  0  0
  1 25  1  0  0  0
  1 30  2  0  0  0
  1 83  1  0  0  0
  2  3  1  0  0  0
  2 25  1  0  0  0
  2 87  1  0  0  0
  2 88  1  0  0  0
  3  4  1  0  0  0
  3 89  1  0  0  0
  3 90  1  0  0  0
  4  5  1  0  0  0
  4 91  1  0  0  0
  4 92  1  0  0  0
  5  6  1  0  0  0
  5 26  1  0  0  0
  5 93  1  0  0  0
  6 25  1  0  0  0
  6 94  1  0  0  0
  6 95  1  0  0  0
  7  8  2  0  0  0
  7 26  1  0  0  0
  7 29  1  0  0  0
  8  9  1  0  0  0
  8 22  1  0  0  0
  9 10  1  0  0  0
  9 27  2  0  0  0
 10 11  2  0  0  0
 10 15  1  0  0  0
 11 12  1  0  0  0
 11 96  1  0  0  0
 12 13  2  0  0  0
 12 97  1  0  0  0
 13 14  1  0  0  0
 13 31  1  0  0  0
 14 15  2  0  0  0
 14 98  1  0  0  0
 15 99  1  0  0  0
 16 17  2  0  0  0
 16 21  1  0  0  0
 16 31  1  0  0  0
 17 18  1  0  0  0
 17100  1  0  0  0
 18 19  2  0  0  0
 18101  1  0  0  0
 19 20  1  0  0  0
 19 24  1  0  0  0
 20 21  2  0  0  0
 20102  1  0  0  0
 21 23  1  0  0  0
 22 28  1  0  0  0
 22 32  2  0  0  0
 26 27  1  0  0  0
 28103  1  0  0  0
 28104  1  0  0  0
 29105  1  0  0  0
 29106  1  0  0  0
 33 34  1  0  0  0
 33 66  1  0  0  0
 33 70  2  0  0  0
 34 36  1  0  0  0
 34 59  1  0  0  0
 34107  1  0  0  0
 35 44  2  0  0  0
 35 45  1  0  0  0
 35 68  1  0  0  0
 36 56  1  0  0  0
 36108  1  0  0  0
 37 39  1  0  0  0
 37 47  1  0  0  0
 37 66  1  0  0  0
 37109  1  0  0  0
 38 43  2  0  0  0
 38 46  1  0  0  0
 38 47  1  0  0  0
 39 64  1  0  0  0
 39 67  2  0  0  0
 40 52  1  0  0  0
 40 53  2  0  0  0
 40 58  1  0  0  0
 41110  1  0  0  0
 41111  1  0  0  0
 41112  1  0  0  0
 41 48  1  0  0  0
 42 43  1  0  0  0
 42 66  1  0  0  0
 42113  1  0  0  0
 42114  1  0  0  0
 43 44  1  0  0  0
 44115  1  0  0  0
 45 46  2  0  0  0
 45116  1  0  0  0
 46117  1  0  0  0
 47118  1  0  0  0
 47119  1  0  0  0
 48 56  1  0  0  0
 48 65  1  0  0  0
 48120  1  0  0  0
 49 50  1  0  0  0
 49 53  1  0  0  0
 49 64  1  0  0  0
 49121  1  0  0  0
 50 51  1  0  0  0
 50122  1  0  0  0
 50123  1  0  0  0
 51 52  1  0  0  0
 51124  1  0  0  0
 51125  1  0  0  0
 52126  1  0  0  0
 52127  1  0  0  0
 53 54  1  0  0  0
 54 55  2  0  0  0
 54128  1  0  0  0
 55 57  1  0  0  0
 55129  1  0  0  0
 56 69  2  0  0  0
 57 58  2  0  0  0
 57130  1  0  0  0
 58131  1  0  0  0
 59 60  1  0  0  0
 59 61  1  0  0  0
 59 62  1  0  0  0
 60132  1  0  0  0
 60133  1  0  0  0
 60134  1  0  0  0
 61135  1  0  0  0
 61136  1  0  0  0
 61137  1  0  0  0
 62138  1  0  0  0
 62139  1  0  0  0
 62140  1  0  0  0
 63 65  1  0  0  0
 63141  1  0  0  0
 63142  1  0  0  0
 63143  1  0  0  0
 64144  1  0  0  0
 65145  1  0  0  0
 68 80  1  0  0  0
 71 72  2  0  0  0
 71 75  1  0  0  0
 71146  1  0  0  0
 72 76  1  0  0  0
 72147  1  0  0  0
 73 74  1  0  0  0
 73 75  2  0  0  0
 73148  1  0  0  0
 74 76  2  0  0  0
 74 77  1  0  0  0
 75 82  1  0  0  0
 76 81  1  0  0  0
 77 83  1  0  0  0
 77 84  2  0  0  0
 78 79  1  0  0  0
 78 80  1  0  0  0
 78 85  2  0  0  0
 79 82  1  0  0  0
 79 86  2  0  0  0
 80149  1  0  0  0
 80150  1  0  0  0
 81151  1  0  0  0
 81152  1  0  0  0
 82153  1  0  0  0
 83154  1  0  0  0
M  ISO  4   1 100  68 101  80 101  83 100
M  END
> <chiral flag>
0

> <version>
0

> <s_m_source_file>
/data/baiqing/PycharmProjects/Reinvent-master-3.2/result/LINK_invent/BTK/process_docking_weight1_custom_product_contain_oxygen_bond_distance_aromatic_linkinvent_7_9_3/rearranged_h_0092.sdf

> <i_m_source_file_index>
15

> <r_mmod_Potential_Energy-OPLS-2005>
21.5491561889648

> <r_mmod_Stretch_Energy-OPLS-2005>
47.1029739379883

> <r_mmod_Bend_Energy-OPLS-2005>
102.596076965332

> <r_mmod_Torsional_Energy-OPLS-2005>
289.868194580078

> <r_mmod_Improper_Torsional_Energy-OPLS-2005>
13.8712320327759

> <r_mmod_Van_der_Waal_Energy-OPLS-2005>
164.946304321289

> <r_mmod_Electrostatic_Energy-OPLS-2005>
-379.636566162109

> <r_mmod_Solvation_Energy-OPLS-2005>
-240.991073608398

> <b_mmod_Minimization_Converged-OPLS-2005>
0

> <r_mmod_RMS_Derivative-OPLS-2005>
6.34765195846558

$$$$
15
                    3D
 Structure written by MMmdl.
164173  0  0  1  0            999 V2000
  -30.7866  -14.4584   20.6230 C   0  0  0  0  0  0
  -30.4157  -12.3210   19.4354 C   0  0  0  0  0  0
  -29.4912  -12.4921   18.2153 C   0  0  0  0  0  0
  -28.0187  -12.3423   18.6372 C   0  0  0  0  0  0
  -27.6607  -13.2166   19.8678 C   0  0  2  0  0  0
  -28.7028  -13.0563   20.9990 C   0  0  0  0  0  0
  -25.2602  -13.8195   20.5699 C   0  0  0  0  0  0
  -24.1862  -13.0465   20.9198 C   0  0  0  0  0  0
  -24.6431  -11.6933   20.8761 C   0  0  0  0  0  0
  -23.9090  -10.4315   21.0430 C   0  0  0  0  0  0
  -24.3627   -9.4217   21.9207 C   0  0  0  0  0  0
  -23.6297   -8.2253   22.0764 C   0  0  0  0  0  0
  -22.4298   -8.0293   21.3529 C   0  0  0  0  0  0
  -21.9938   -9.0274   20.4640 C   0  0  0  0  0  0
  -22.7273  -10.2148   20.3060 C   0  0  0  0  0  0
  -21.6850   -6.0755   22.5287 C   0  0  0  0  0  0
  -21.4012   -6.5653   23.8223 C   0  0  0  0  0  0
  -21.3656   -5.6798   24.9177 C   0  0  0  0  0  0
  -21.6032   -4.3059   24.7235 C   0  0  0  0  0  0
  -21.8814   -3.8161   23.4360 C   0  0  0  0  0  0
  -21.9200   -4.6983   22.3416 C   0  0  0  0  0  0
  -22.7872  -13.5244   21.1845 C   0  0  0  0  0  0
  -22.1661   -4.2173   21.0981 F   0  0  0  0  0  0
  -21.5641   -3.4536   25.7742 F   0  0  0  0  0  0
  -30.0390  -13.3306   20.4436 N   0  0  0  0  0  0
  -26.3041  -12.9392   20.3361 N   0  0  0  0  0  0
  -25.9360  -11.6547   20.5789 N   0  0  0  0  0  0
  -22.0486  -12.8229   22.0376 N   0  0  0  0  0  0
  -25.4338  -15.1911   20.4139 N   0  0  0  0  0  0
  -31.8721  -14.6157   20.0613 O   0  0  0  0  0  0
  -21.6637   -6.8909   21.4247 O   0  0  0  0  0  0
  -22.3575  -14.5565   20.6708 O   0  0  0  0  0  0
  -24.6191  -31.8691   23.2132 C   0  0  0  0  0  0
  -25.9067  -32.4828   23.8442 C   0  0  1  0  0  0
  -27.2286  -27.4036   20.1066 C   0  0  0  0  0  0
  -25.5921  -33.8628   24.2377 N   0  0  0  0  0  0
  -23.4109  -30.4947   21.5540 C   0  0  2  0  0  0
  -24.8593  -28.9682   20.1101 C   0  0  0  0  0  0
  -22.7466  -29.4644   22.4982 C   0  0  0  0  0  0
  -18.0287  -28.1355   22.8502 C   0  0  0  0  0  0
  -24.1480  -36.7286   23.2635 C   0  0  0  0  0  0
  -25.9444  -30.8257   21.3755 C   0  0  0  0  0  0
  -26.0228  -29.4614   20.7151 C   0  0  0  0  0  0
  -27.2135  -28.6888   20.7097 C   0  0  0  0  0  0
  -26.0510  -26.9585   19.4589 C   0  0  0  0  0  0
  -24.8718  -27.7183   19.4727 C   0  0  0  0  0  0
  -23.6220  -29.8366   20.1650 C   0  0  0  0  0  0
  -25.4102  -36.3120   24.0361 C   0  0  1  0  0  0
  -20.5881  -28.3641   23.1302 C   0  0  2  0  0  0
  -20.6743  -26.9366   22.5403 C   0  0  0  0  0  0
  -19.5723  -26.6367   21.5194 C   0  0  0  0  0  0
  -18.1908  -26.7909   22.1605 C   0  0  0  0  0  0
  -19.1543  -28.8824   23.2890 C   0  0  0  0  0  0
  -18.9466  -30.1432   23.8888 C   0  0  0  0  0  0
  -17.6463  -30.6553   24.0586 C   0  0  0  0  0  0
  -25.9036  -34.9481   23.5161 C   0  0  0  0  0  0
  -16.5352  -29.9060   23.6342 C   0  0  0  0  0  0
  -16.7285  -28.6479   23.0344 C   0  0  0  0  0  0
  -26.4477  -31.6617   25.0785 C   0  0  0  0  0  0
  -25.3727  -31.3693   26.1524 C   0  0  0  0  0  0
  -27.0366  -30.3098   24.6153 C   0  0  0  0  0  0
  -27.6058  -32.4334   25.7510 C   0  0  0  0  0  0
  -27.5584  -37.1795   24.8468 C   0  0  0  0  0  0
  -21.4185  -29.3021   22.3726 N   0  0  0  0  0  0
  -26.4293  -37.3805   23.9421 N   0  0  0  0  0  0
  -24.6759  -31.0769   22.1049 N   0  0  0  0  0  0
  -23.4229  -28.8180   23.3015 O   0  0  0  0  0  0
  -28.3430  -26.5778   20.1819 O   0  0  0  0  0  0
  -26.5586  -34.8934   22.4717 O   0  0  0  0  0  0
  -23.5372  -32.1454   23.7491 O   0  0  0  0  0  0
  -30.6891  -19.9575   20.2253 C   0  0  0  0  0  0
  -30.5300  -24.4133   20.7844 C   0  0  0  0  0  0
  -30.1507  -20.2480   22.5664 C   0  0  0  0  0  0
  -30.8749  -18.5663   20.4278 C   0  0  0  0  0  0
  -29.1194  -24.2007   20.7494 C   0  0  0  0  0  0
  -30.7123  -17.9932   21.7237 C   0  0  0  0  0  0
  -30.3474  -20.8113   21.2926 C   0  0  0  0  0  0
  -30.3186  -18.8620   22.7846 C   0  0  0  0  0  0
  -28.9226  -22.8469   20.9444 C   0  0  0  0  0  0
  -31.1243  -23.1955   20.9787 C   0  0  0  0  0  0
  -31.2959  -17.7305   19.2317 C   0  0  0  0  0  0
  -27.6499  -22.0533   21.0002 C   0  0  0  0  0  0
  -31.1143  -16.5202   22.0042 C   0  0  0  0  0  0
  -27.9996  -25.2153   20.5506 C   0  0  0  0  0  0
  -30.1539  -22.2097   21.0810 N   0  0  0  0  0  0
  -30.1046  -18.3877   24.0819 N   0  0  0  0  0  0
  -30.3016  -15.4176   21.4373 N   0  0  0  0  0  0
  -32.4469  -22.8957   21.0805 O   0  0  0  0  0  0
  -31.4596  -12.3933   19.1277 H   0  0  0  0  0  0
  -30.3117  -11.3233   19.8631 H   0  0  0  0  0  0
  -29.7358  -11.7472   17.4556 H   0  0  0  0  0  0
  -29.6511  -13.4703   17.7553 H   0  0  0  0  0  0
  -27.8530  -11.2908   18.8737 H   0  0  0  0  0  0
  -27.3566  -12.5687   17.8002 H   0  0  0  0  0  0
  -27.6905  -14.2529   19.5277 H   0  0  0  0  0  0
  -28.6833  -12.0427   21.4005 H   0  0  0  0  0  0
  -28.4558  -13.7108   21.8346 H   0  0  0  0  0  0
  -25.2772   -9.5696   22.4790 H   0  0  0  0  0  0
  -24.0006   -7.4652   22.7488 H   0  0  0  0  0  0
  -21.0880   -8.8798   19.8944 H   0  0  0  0  0  0
  -22.3749  -10.9687   19.6162 H   0  0  0  0  0  0
  -21.1974   -7.6154   23.9734 H   0  0  0  0  0  0
  -21.1482   -6.0519   25.9076 H   0  0  0  0  0  0
  -22.0597   -2.7626   23.2841 H   0  0  0  0  0  0
  -22.4061  -11.9845   22.4725 H   0  0  0  0  0  0
  -21.1086  -13.1244   22.2547 H   0  0  0  0  0  0
  -24.6733  -15.8505   20.5387 H   0  0  0  0  0  0
  -26.2966  -15.6304   20.1191 H   0  0  0  0  0  0
  -26.7151  -32.5576   23.1209 H   0  0  0  0  0  0
  -25.0154  -33.9780   25.0580 H   0  0  0  0  0  0
  -22.6993  -31.3107   21.4151 H   0  0  0  0  0  0
  -23.3770  -35.9590   23.3305 H   0  0  0  0  0  0
  -24.3579  -36.8901   22.2050 H   0  0  0  0  0  0
  -23.7189  -37.6478   23.6644 H   0  0  0  0  0  0
  -26.0653  -31.5912   20.6095 H   0  0  0  0  0  0
  -26.8260  -30.8727   22.0018 H   0  0  0  0  0  0
  -28.1028  -29.0534   21.2021 H   0  0  0  0  0  0
  -26.0122  -26.0190   18.9267 H   0  0  0  0  0  0
  -23.9883  -27.3357   18.9829 H   0  0  0  0  0  0
  -23.7295  -30.6164   19.4083 H   0  0  0  0  0  0
  -22.7451  -29.2563   19.8730 H   0  0  0  0  0  0
  -25.1256  -36.2007   25.0851 H   0  0  0  0  0  0
  -20.9964  -28.3184   24.1433 H   0  0  0  0  0  0
  -20.5642  -26.2231   23.3588 H   0  0  0  0  0  0
  -21.6613  -26.7407   22.1200 H   0  0  0  0  0  0
  -19.6902  -25.6298   21.1182 H   0  0  0  0  0  0
  -19.6670  -27.3205   20.6752 H   0  0  0  0  0  0
  -17.4185  -26.6714   21.3988 H   0  0  0  0  0  0
  -18.0286  -26.0041   22.8986 H   0  0  0  0  0  0
  -19.7955  -30.7245   24.2227 H   0  0  0  0  0  0
  -17.5029  -31.6239   24.5168 H   0  0  0  0  0  0
  -15.5342  -30.2936   23.7678 H   0  0  0  0  0  0
  -15.8685  -28.0798   22.7014 H   0  0  0  0  0  0
  -24.5936  -30.6990   25.7852 H   0  0  0  0  0  0
  -24.8836  -32.2814   26.4966 H   0  0  0  0  0  0
  -25.8073  -30.8892   27.0306 H   0  0  0  0  0  0
  -26.2958  -29.6798   24.1224 H   0  0  0  0  0  0
  -27.4211  -29.7379   25.4608 H   0  0  0  0  0  0
  -27.8736  -30.4466   23.9303 H   0  0  0  0  0  0
  -27.2735  -33.3671   26.2050 H   0  0  0  0  0  0
  -28.3859  -32.6842   25.0306 H   0  0  0  0  0  0
  -28.0735  -31.8494   26.5440 H   0  0  0  0  0  0
  -28.2577  -38.0121   24.7563 H   0  0  0  0  0  0
  -28.1106  -36.2651   24.6224 H   0  0  0  0  0  0
  -27.2310  -37.1361   25.8876 H   0  0  0  0  0  0
  -20.9337  -29.8828   21.7032 H   0  0  0  0  0  0
  -26.0204  -38.2891   24.1453 H   0  0  0  0  0  0
  -30.8271  -20.3897   19.2444 H   0  0  0  0  0  0
  -31.0398  -25.3612   20.6691 H   0  0  0  0  0  0
  -29.8697  -20.9006   23.3812 H   0  0  0  0  0  0
  -31.3948  -18.3366   18.3324 H   0  0  0  0  0  0
  -30.5532  -16.9632   19.0188 H   0  0  0  0  0  0
  -32.2619  -17.2594   19.4110 H   0  0  0  0  0  0
  -26.7743  -22.6938   21.0795 H   0  0  0  0  0  0
  -27.6359  -21.3888   21.8637 H   0  0  0  0  0  0
  -27.5343  -21.4395   20.1074 H   0  0  0  0  0  0
  -31.1551  -16.3438   23.0786 H   0  0  0  0  0  0
  -32.1599  -16.4289   21.7019 H   0  0  0  0  0  0
  -27.4237  -25.2363   21.4784 H   0  0  0  0  0  0
  -27.3707  -24.7475   19.7966 H   0  0  0  0  0  0
  -29.6208  -18.9896   24.7420 H   0  0  0  0  0  0
  -29.8564  -17.4124   24.2066 H   0  0  0  0  0  0
  -29.3993  -15.2508   21.8540 H   0  0  0  0  0  0
  -32.9352  -23.7118   21.0141 H   0  0  0  0  0  0
  1 25  1  0  0  0
  1 30  2  0  0  0
  1 87  1  0  0  0
  2  3  1  0  0  0
  2 25  1  0  0  0
  2 89  1  0  0  0
  2 90  1  0  0  0
  3  4  1  0  0  0
  3 91  1  0  0  0
  3 92  1  0  0  0
  4  5  1  0  0  0
  4 93  1  0  0  0
  4 94  1  0  0  0
  5  6  1  0  0  0
  5 26  1  0  0  0
  5 95  1  0  0  0
  6 25  1  0  0  0
  6 96  1  0  0  0
  6 97  1  0  0  0
  7  8  2  0  0  0
  7 26  1  0  0  0
  7 29  1  0  0  0
  8  9  1  0  0  0
  8 22  1  0  0  0
  9 10  1  0  0  0
  9 27  2  0  0  0
 10 11  2  0  0  0
 10 15  1  0  0  0
 11 12  1  0  0  0
 11 98  1  0  0  0
 12 13  2  0  0  0
 12 99  1  0  0  0
 13 14  1  0  0  0
 13 31  1  0  0  0
 14 15  2  0  0  0
 14100  1  0  0  0
 15101  1  0  0  0
 16 17  2  0  0  0
 16 21  1  0  0  0
 16 31  1  0  0  0
 17 18  1  0  0  0
 17102  1  0  0  0
 18 19  2  0  0  0
 18103  1  0  0  0
 19 20  1  0  0  0
 19 24  1  0  0  0
 20 21  2  0  0  0
 20104  1  0  0  0
 21 23  1  0  0  0
 22 28  1  0  0  0
 22 32  2  0  0  0
 26 27  1  0  0  0
 28105  1  0  0  0
 28106  1  0  0  0
 29107  1  0  0  0
 29108  1  0  0  0
 33 34  1  0  0  0
 33 66  1  0  0  0
 33 70  2  0  0  0
 34 36  1  0  0  0
 34 59  1  0  0  0
 34109  1  0  0  0
 35 44  2  0  0  0
 35 45  1  0  0  0
 35 68  1  0  0  0
 36 56  1  0  0  0
 36110  1  0  0  0
 37 39  1  0  0  0
 37 47  1  0  0  0
 37 66  1  0  0  0
 37111  1  0  0  0
 38 43  2  0  0  0
 38 46  1  0  0  0
 38 47  1  0  0  0
 39 64  1  0  0  0
 39 67  2  0  0  0
 40 52  1  0  0  0
 40 53  2  0  0  0
 40 58  1  0  0  0
 41112  1  0  0  0
 41113  1  0  0  0
 41114  1  0  0  0
 41 48  1  0  0  0
 42 43  1  0  0  0
 42 66  1  0  0  0
 42115  1  0  0  0
 42116  1  0  0  0
 43 44  1  0  0  0
 44117  1  0  0  0
 45 46  2  0  0  0
 45118  1  0  0  0
 46119  1  0  0  0
 47120  1  0  0  0
 47121  1  0  0  0
 48 56  1  0  0  0
 48 65  1  0  0  0
 48122  1  0  0  0
 49 50  1  0  0  0
 49 53  1  0  0  0
 49 64  1  0  0  0
 49123  1  0  0  0
 50 51  1  0  0  0
 50124  1  0  0  0
 50125  1  0  0  0
 51 52  1  0  0  0
 51126  1  0  0  0
 51127  1  0  0  0
 52128  1  0  0  0
 52129  1  0  0  0
 53 54  1  0  0  0
 54 55  2  0  0  0
 54130  1  0  0  0
 55 57  1  0  0  0
 55131  1  0  0  0
 56 69  2  0  0  0
 57 58  2  0  0  0
 57132  1  0  0  0
 58133  1  0  0  0
 59 60  1  0  0  0
 59 61  1  0  0  0
 59 62  1  0  0  0
 60134  1  0  0  0
 60135  1  0  0  0
 60136  1  0  0  0
 61137  1  0  0  0
 61138  1  0  0  0
 61139  1  0  0  0
 62140  1  0  0  0
 62141  1  0  0  0
 62142  1  0  0  0
 63 65  1  0  0  0
 63143  1  0  0  0
 63144  1  0  0  0
 63145  1  0  0  0
 64146  1  0  0  0
 65147  1  0  0  0
 68 84  1  0  0  0
 71 74  2  0  0  0
 71 77  1  0  0  0
 71148  1  0  0  0
 72 75  1  0  0  0
 72 80  2  0  0  0
 72149  1  0  0  0
 73 77  2  0  0  0
 73 78  1  0  0  0
 73150  1  0  0  0
 74 76  1  0  0  0
 74 81  1  0  0  0
 75 79  2  0  0  0
 75 84  1  0  0  0
 76 78  2  0  0  0
 76 83  1  0  0  0
 77 85  1  0  0  0
 78 86  1  0  0  0
 79 82  1  0  0  0
 79 85  1  0  0  0
 80 85  1  0  0  0
 80 88  1  0  0  0
 81151  1  0  0  0
 81152  1  0  0  0
 81153  1  0  0  0
 82154  1  0  0  0
 82155  1  0  0  0
 82156  1  0  0  0
 83 87  1  0  0  0
 83157  1  0  0  0
 83158  1  0  0  0
 84159  1  0  0  0
 84160  1  0  0  0
 86161  1  0  0  0
 86162  1  0  0  0
 87163  1  0  0  0
 88164  1  0  0  0
M  ISO  4   1 100  68 101  84 101  87 100
M  END
> <chiral flag>
0

> <version>
0

> <s_m_source_file>
/data/baiqing/PycharmProjects/Reinvent-master-3.2/result/LINK_invent/BTK/process_docking_weight1_custom_product_contain_oxygen_bond_distance_aromatic_linkinvent_7_9_3/rearranged_h_0092.sdf

> <i_m_source_file_index>
16

> <r_mmod_Potential_Energy-OPLS-2005>
-46.9428291320801

> <r_mmod_Stretch_Energy-OPLS-2005>
45.8250732421875

> <r_mmod_Bend_Energy-OPLS-2005>
112.151977539062

> <r_mmod_Torsional_Energy-OPLS-2005>
238.562393188477

> <r_mmod_Improper_Torsional_Energy-OPLS-2005>
6.06010866165161

> <r_mmod_Van_der_Waal_Energy-OPLS-2005>
152.945129394531

> <r_mmod_Electrostatic_Energy-OPLS-2005>
-392.660034179688

> <r_mmod_Solvation_Energy-OPLS-2005>
-230.715591430664

> <b_mmod_Minimization_Converged-OPLS-2005>
0

> <r_mmod_RMS_Derivative-OPLS-2005>
4.23855972290039

$$$$
16
                    3D
 Structure written by MMmdl.
150158  0  0  1  0            999 V2000
  -30.6023  -14.6861   20.4894 C   0  0  0  0  0  0
  -30.4451  -12.4195   19.4598 C   0  0  0  0  0  0
  -29.5129  -12.5131   18.2301 C   0  0  0  0  0  0
  -28.0363  -12.3433   18.6418 C   0  0  0  0  0  0
  -27.6533  -13.2194   19.8643 C   0  0  2  0  0  0
  -28.6996  -13.0894   20.9944 C   0  0  0  0  0  0
  -25.2547  -13.8164   20.5679 C   0  0  0  0  0  0
  -24.1813  -13.0424   20.9158 C   0  0  0  0  0  0
  -24.6395  -11.6902   20.8720 C   0  0  0  0  0  0
  -23.9063  -10.4286   21.0395 C   0  0  0  0  0  0
  -24.3614   -9.4205   21.9176 C   0  0  0  0  0  0
  -23.6287   -8.2243   22.0753 C   0  0  0  0  0  0
  -22.4268   -8.0279   21.3546 C   0  0  0  0  0  0
  -21.9902   -9.0251   20.4646 C   0  0  0  0  0  0
  -22.7232  -10.2129   20.3050 C   0  0  0  0  0  0
  -21.6854   -6.0728   22.5276 C   0  0  0  0  0  0
  -21.4018   -6.5632   23.8211 C   0  0  0  0  0  0
  -21.3659   -5.6785   24.9174 C   0  0  0  0  0  0
  -21.6043   -4.3049   24.7224 C   0  0  0  0  0  0
  -21.8820   -3.8140   23.4346 C   0  0  0  0  0  0
  -21.9194   -4.6955   22.3400 C   0  0  0  0  0  0
  -22.7839  -13.5221   21.1832 C   0  0  0  0  0  0
  -22.1663   -4.2142   21.0977 F   0  0  0  0  0  0
  -21.5626   -3.4535   25.7737 F   0  0  0  0  0  0
  -30.0115  -13.4467   20.4300 N   0  0  0  0  0  0
  -26.2994  -12.9356   20.3337 N   0  0  0  0  0  0
  -25.9331  -11.6505   20.5757 N   0  0  0  0  0  0
  -22.0486  -12.8226   22.0403 N   0  0  0  0  0  0
  -25.4227  -15.1888   20.4140 N   0  0  0  0  0  0
  -31.7645  -14.8538   20.1066 O   0  0  0  0  0  0
  -21.6637   -6.8873   21.4240 O   0  0  0  0  0  0
  -22.3518  -14.5527   20.6683 O   0  0  0  0  0  0
  -24.6276  -31.8579   23.2014 C   0  0  0  0  0  0
  -25.9116  -32.4768   23.8348 C   0  0  1  0  0  0
  -27.2274  -27.3013   20.1247 C   0  0  0  0  0  0
  -25.5921  -33.8569   24.2275 N   0  0  0  0  0  0
  -23.4232  -30.4800   21.5440 C   0  0  2  0  0  0
  -24.8728  -28.9313   20.1118 C   0  0  0  0  0  0
  -22.7484  -29.4610   22.4931 C   0  0  0  0  0  0
  -18.0285  -28.1389   22.8484 C   0  0  0  0  0  0
  -24.1488  -36.7292   23.2637 C   0  0  0  0  0  0
  -25.9658  -30.7819   21.3775 C   0  0  0  0  0  0
  -26.0413  -29.4065   20.7221 C   0  0  0  0  0  0
  -27.2219  -28.6016   20.7223 C   0  0  0  0  0  0
  -26.0404  -26.8865   19.4816 C   0  0  0  0  0  0
  -24.8745  -27.6763   19.4827 C   0  0  0  0  0  0
  -23.6406  -29.8135   20.1599 C   0  0  0  0  0  0
  -25.4109  -36.3076   24.0330 C   0  0  1  0  0  0
  -20.5886  -28.3692   23.1282 C   0  0  2  0  0  0
  -20.6777  -26.9412   22.5413 C   0  0  0  0  0  0
  -19.5753  -26.6383   21.5215 C   0  0  0  0  0  0
  -18.1931  -26.7931   22.1623 C   0  0  0  0  0  0
  -19.1538  -28.8858   23.2878 C   0  0  0  0  0  0
  -18.9460  -30.1458   23.8895 C   0  0  0  0  0  0
  -17.6459  -30.6589   24.0562 C   0  0  0  0  0  0
  -25.9048  -34.9446   23.5105 C   0  0  0  0  0  0
  -16.5350  -29.9087   23.6331 C   0  0  0  0  0  0
  -16.7270  -28.6505   23.0351 C   0  0  0  0  0  0
  -26.4492  -31.6582   25.0725 C   0  0  0  0  0  0
  -25.3719  -31.3737   26.1451 C   0  0  0  0  0  0
  -27.0334  -30.2998   24.6202 C   0  0  0  0  0  0
  -27.6053  -32.4317   25.7490 C   0  0  0  0  0  0
  -27.5587  -37.1788   24.8454 C   0  0  0  0  0  0
  -21.4196  -29.3039   22.3672 N   0  0  0  0  0  0
  -26.4284  -37.3776   23.9418 N   0  0  0  0  0  0
  -24.6908  -31.0570   22.0977 N   0  0  0  0  0  0
  -23.4197  -28.8149   23.3020 O   0  0  0  0  0  0
  -28.3282  -26.4251   20.1453 O   0  0  0  0  0  0
  -26.5622  -34.8917   22.4675 O   0  0  0  0  0  0
  -23.5434  -32.1388   23.7328 O   0  0  0  0  0  0
  -30.7636  -19.4068   20.0556 C   0  0  0  0  0  0
  -30.8747  -17.9815   20.1798 C   0  0  0  0  0  0
  -28.5285  -19.3341   20.9146 C   0  0  0  0  0  0
  -29.5916  -20.1389   20.4158 C   0  0  0  0  0  0
  -29.8046  -17.1891   20.6781 C   0  0  0  0  0  0
  -28.6355  -17.9136   21.0389 C   0  0  0  0  0  0
  -28.1086  -25.0501   20.4229 C   0  0  0  0  0  0
  -28.9623  -23.9902   20.1910 C   0  0  0  0  0  0
  -28.6016  -22.5679   20.5330 C   0  0  0  0  0  0
  -29.5527  -21.6116   20.2496 N   0  0  0  0  0  0
  -29.7778  -15.7258   20.8472 N   0  0  0  0  0  0
  -27.5213  -22.2598   21.0396 O   0  0  0  0  0  0
  -30.1605  -24.2319   19.6384 O   0  0  0  0  0  0
  -27.5747  -17.2173   21.5144 F   0  0  0  0  0  0
  -31.4846  -12.5543   19.1561 H   0  0  0  0  0  0
  -30.3914  -11.4270   19.9102 H   0  0  0  0  0  0
  -29.7845  -11.7571   17.4921 H   0  0  0  0  0  0
  -29.6469  -13.4789   17.7409 H   0  0  0  0  0  0
  -27.8801  -11.2906   18.8798 H   0  0  0  0  0  0
  -27.3811  -12.5644   17.7985 H   0  0  0  0  0  0
  -27.6650  -14.2522   19.5151 H   0  0  0  0  0  0
  -28.7220  -12.0694   21.3813 H   0  0  0  0  0  0
  -28.4382  -13.7223   21.8438 H   0  0  0  0  0  0
  -25.2760   -9.5682   22.4747 H   0  0  0  0  0  0
  -23.9995   -7.4636   22.7475 H   0  0  0  0  0  0
  -21.0832   -8.8770   19.8954 H   0  0  0  0  0  0
  -22.3690  -10.9666   19.6158 H   0  0  0  0  0  0
  -21.2016   -7.6141   23.9713 H   0  0  0  0  0  0
  -21.1477   -6.0516   25.9076 H   0  0  0  0  0  0
  -22.0600   -2.7603   23.2848 H   0  0  0  0  0  0
  -22.4099  -11.9892   22.4799 H   0  0  0  0  0  0
  -21.1112  -13.1270   22.2614 H   0  0  0  0  0  0
  -24.6613  -15.8414   20.5615 H   0  0  0  0  0  0
  -26.2981  -15.6516   20.2056 H   0  0  0  0  0  0
  -26.7184  -32.5435   23.1095 H   0  0  0  0  0  0
  -25.0056  -33.9710   25.0410 H   0  0  0  0  0  0
  -22.7179  -31.3010   21.3992 H   0  0  0  0  0  0
  -23.3756  -35.9616   23.3275 H   0  0  0  0  0  0
  -24.3592  -36.8934   22.2056 H   0  0  0  0  0  0
  -23.7230  -37.6482   23.6675 H   0  0  0  0  0  0
  -26.0993  -31.5440   20.6085 H   0  0  0  0  0  0
  -26.8452  -30.8325   22.0078 H   0  0  0  0  0  0
  -28.1182  -28.9590   21.2097 H   0  0  0  0  0  0
  -26.0048  -25.9256   18.9881 H   0  0  0  0  0  0
  -23.9810  -27.3082   18.9974 H   0  0  0  0  0  0
  -23.7605  -30.5898   19.4033 H   0  0  0  0  0  0
  -22.7606  -29.2433   19.8570 H   0  0  0  0  0  0
  -25.1283  -36.1925   25.0821 H   0  0  0  0  0  0
  -20.9972  -28.3269   24.1405 H   0  0  0  0  0  0
  -20.5679  -26.2297   23.3613 H   0  0  0  0  0  0
  -21.6646  -26.7447   22.1205 H   0  0  0  0  0  0
  -19.6914  -25.6293   21.1247 H   0  0  0  0  0  0
  -19.6692  -27.3190   20.6743 H   0  0  0  0  0  0
  -17.4201  -26.6675   21.4027 H   0  0  0  0  0  0
  -18.0329  -26.0077   22.9022 H   0  0  0  0  0  0
  -19.7936  -30.7276   24.2263 H   0  0  0  0  0  0
  -17.5014  -31.6272   24.5161 H   0  0  0  0  0  0
  -15.5352  -30.2988   23.7660 H   0  0  0  0  0  0
  -15.8669  -28.0822   22.7071 H   0  0  0  0  0  0
  -24.5880  -30.7101   25.7781 H   0  0  0  0  0  0
  -24.8926  -32.2912   26.4876 H   0  0  0  0  0  0
  -25.8030  -30.8910   27.0229 H   0  0  0  0  0  0
  -26.2915  -29.6748   24.1217 H   0  0  0  0  0  0
  -27.4004  -29.7258   25.4722 H   0  0  0  0  0  0
  -27.8797  -30.4271   23.9447 H   0  0  0  0  0  0
  -27.2664  -33.3614   26.2075 H   0  0  0  0  0  0
  -28.3854  -32.6884   25.0309 H   0  0  0  0  0  0
  -28.0733  -31.8439   26.5397 H   0  0  0  0  0  0
  -28.2569  -38.0122   24.7555 H   0  0  0  0  0  0
  -28.1119  -36.2657   24.6204 H   0  0  0  0  0  0
  -27.2319  -37.1346   25.8858 H   0  0  0  0  0  0
  -20.9377  -29.8755   21.6874 H   0  0  0  0  0  0
  -26.0164  -38.2842   24.1452 H   0  0  0  0  0  0
  -31.6166  -19.9458   19.6667 H   0  0  0  0  0  0
  -31.7985  -17.5059   19.8832 H   0  0  0  0  0  0
  -27.5965  -19.7889   21.2115 H   0  0  0  0  0  0
  -27.1386  -24.8862   20.8759 H   0  0  0  0  0  0
  -30.3835  -22.0286   19.8485 H   0  0  0  0  0  0
  -28.8880  -15.4006   21.1947 H   0  0  0  0  0  0
  -30.2117  -25.1691   19.4958 H   0  0  0  0  0  0
  1 25  1  0  0  0
  1 30  2  0  0  0
  1 81  1  0  0  0
  2  3  1  0  0  0
  2 25  1  0  0  0
  2 85  1  0  0  0
  2 86  1  0  0  0
  3  4  1  0  0  0
  3 87  1  0  0  0
  3 88  1  0  0  0
  4  5  1  0  0  0
  4 89  1  0  0  0
  4 90  1  0  0  0
  5  6  1  0  0  0
  5 26  1  0  0  0
  5 91  1  0  0  0
  6 25  1  0  0  0
  6 92  1  0  0  0
  6 93  1  0  0  0
  7  8  2  0  0  0
  7 26  1  0  0  0
  7 29  1  0  0  0
  8  9  1  0  0  0
  8 22  1  0  0  0
  9 10  1  0  0  0
  9 27  2  0  0  0
 10 11  2  0  0  0
 10 15  1  0  0  0
 11 12  1  0  0  0
 11 94  1  0  0  0
 12 13  2  0  0  0
 12 95  1  0  0  0
 13 14  1  0  0  0
 13 31  1  0  0  0
 14 15  2  0  0  0
 14 96  1  0  0  0
 15 97  1  0  0  0
 16 17  2  0  0  0
 16 21  1  0  0  0
 16 31  1  0  0  0
 17 18  1  0  0  0
 17 98  1  0  0  0
 18 19  2  0  0  0
 18 99  1  0  0  0
 19 20  1  0  0  0
 19 24  1  0  0  0
 20 21  2  0  0  0
 20100  1  0  0  0
 21 23  1  0  0  0
 22 28  1  0  0  0
 22 32  2  0  0  0
 26 27  1  0  0  0
 28101  1  0  0  0
 28102  1  0  0  0
 29103  1  0  0  0
 29104  1  0  0  0
 33 34  1  0  0  0
 33 66  1  0  0  0
 33 70  2  0  0  0
 34 36  1  0  0  0
 34 59  1  0  0  0
 34105  1  0  0  0
 35 44  2  0  0  0
 35 45  1  0  0  0
 35 68  1  0  0  0
 36 56  1  0  0  0
 36106  1  0  0  0
 37 39  1  0  0  0
 37 47  1  0  0  0
 37 66  1  0  0  0
 37107  1  0  0  0
 38 43  2  0  0  0
 38 46  1  0  0  0
 38 47  1  0  0  0
 39 64  1  0  0  0
 39 67  2  0  0  0
 40 52  1  0  0  0
 40 53  2  0  0  0
 40 58  1  0  0  0
 41108  1  0  0  0
 41109  1  0  0  0
 41110  1  0  0  0
 41 48  1  0  0  0
 42 43  1  0  0  0
 42 66  1  0  0  0
 42111  1  0  0  0
 42112  1  0  0  0
 43 44  1  0  0  0
 44113  1  0  0  0
 45 46  2  0  0  0
 45114  1  0  0  0
 46115  1  0  0  0
 47116  1  0  0  0
 47117  1  0  0  0
 48 56  1  0  0  0
 48 65  1  0  0  0
 48118  1  0  0  0
 49 50  1  0  0  0
 49 53  1  0  0  0
 49 64  1  0  0  0
 49119  1  0  0  0
 50 51  1  0  0  0
 50120  1  0  0  0
 50121  1  0  0  0
 51 52  1  0  0  0
 51122  1  0  0  0
 51123  1  0  0  0
 52124  1  0  0  0
 52125  1  0  0  0
 53 54  1  0  0  0
 54 55  2  0  0  0
 54126  1  0  0  0
 55 57  1  0  0  0
 55127  1  0  0  0
 56 69  2  0  0  0
 57 58  2  0  0  0
 57128  1  0  0  0
 58129  1  0  0  0
 59 60  1  0  0  0
 59 61  1  0  0  0
 59 62  1  0  0  0
 60130  1  0  0  0
 60131  1  0  0  0
 60132  1  0  0  0
 61133  1  0  0  0
 61134  1  0  0  0
 61135  1  0  0  0
 62136  1  0  0  0
 62137  1  0  0  0
 62138  1  0  0  0
 63 65  1  0  0  0
 63139  1  0  0  0
 63140  1  0  0  0
 63141  1  0  0  0
 64142  1  0  0  0
 65143  1  0  0  0
 68 77  1  0  0  0
 71 72  2  0  0  0
 71 74  1  0  0  0
 71144  1  0  0  0
 72 75  1  0  0  0
 72145  1  0  0  0
 73 74  2  0  0  0
 73 76  1  0  0  0
 73146  1  0  0  0
 74 80  1  0  0  0
 75 76  2  0  0  0
 75 81  1  0  0  0
 76 84  1  0  0  0
 77 78  2  0  0  0
 77147  1  0  0  0
 78 79  1  0  0  0
 78 83  1  0  0  0
 79 80  1  0  0  0
 79 82  2  0  0  0
 80148  1  0  0  0
 81149  1  0  0  0
 83150  1  0  0  0
M  ISO  4   1 100  68 101  77 101  81 100
M  END
> <chiral flag>
0

> <version>
0

> <s_m_source_file>
/data/baiqing/PycharmProjects/Reinvent-master-3.2/result/LINK_invent/BTK/process_docking_weight1_custom_product_contain_oxygen_bond_distance_aromatic_linkinvent_7_9_3/rearranged_h_0092.sdf

> <i_m_source_file_index>
17

> <r_mmod_Potential_Energy-OPLS-2005>
-27.2929592132568

> <r_mmod_Stretch_Energy-OPLS-2005>
88.6991806030273

> <r_mmod_Bend_Energy-OPLS-2005>
147.536422729492

> <r_mmod_Torsional_Energy-OPLS-2005>
205.766189575195

> <r_mmod_Improper_Torsional_Energy-OPLS-2005>
3.61781811714172

> <r_mmod_Van_der_Waal_Energy-OPLS-2005>
145.098480224609

> <r_mmod_Electrostatic_Energy-OPLS-2005>
-467.958587646484

> <r_mmod_Solvation_Energy-OPLS-2005>
-211.342819213867

> <b_mmod_Minimization_Converged-OPLS-2005>
0

> <r_mmod_RMS_Derivative-OPLS-2005>
0.558009803295135

$$$$
17
                    3D
 Structure written by MMmdl.
156164  0  0  1  0            999 V2000
  -30.6373  -14.8642   20.3515 C   0  0  0  0  0  0
  -30.4372  -12.5280   19.4384 C   0  0  0  0  0  0
  -29.4996  -12.4300   18.2192 C   0  0  0  0  0  0
  -28.0288  -12.2716   18.6637 C   0  0  0  0  0  0
  -27.6191  -13.2105   19.8323 C   0  0  2  0  0  0
  -28.6971  -13.2858   20.9322 C   0  0  0  0  0  0
  -25.2504  -13.8106   20.5826 C   0  0  0  0  0  0
  -24.1770  -13.0380   20.9285 C   0  0  0  0  0  0
  -24.6342  -11.6852   20.8814 C   0  0  0  0  0  0
  -23.9024  -10.4246   21.0437 C   0  0  0  0  0  0
  -24.3591   -9.4156   21.9195 C   0  0  0  0  0  0
  -23.6272   -8.2192   22.0750 C   0  0  0  0  0  0
  -22.4251   -8.0244   21.3543 C   0  0  0  0  0  0
  -21.9885   -9.0218   20.4642 C   0  0  0  0  0  0
  -22.7211  -10.2100   20.3064 C   0  0  0  0  0  0
  -21.6834   -6.0714   22.5274 C   0  0  0  0  0  0
  -21.3996   -6.5623   23.8206 C   0  0  0  0  0  0
  -21.3655   -5.6781   24.9177 C   0  0  0  0  0  0
  -21.6051   -4.3048   24.7227 C   0  0  0  0  0  0
  -21.8823   -3.8133   23.4350 C   0  0  0  0  0  0
  -21.9188   -4.6943   22.3405 C   0  0  0  0  0  0
  -22.7792  -13.5200   21.1885 C   0  0  0  0  0  0
  -22.1662   -4.2134   21.0981 F   0  0  0  0  0  0
  -21.5636   -3.4531   25.7741 F   0  0  0  0  0  0
  -29.9550  -13.6580   20.2669 N   0  0  0  0  0  0
  -26.2884  -12.9237   20.3413 N   0  0  0  0  0  0
  -25.9271  -11.6419   20.5872 N   0  0  0  0  0  0
  -22.0413  -12.8201   22.0421 N   0  0  0  0  0  0
  -25.4238  -15.1832   20.4267 N   0  0  0  0  0  0
  -31.8684  -14.8200   20.3163 O   0  0  0  0  0  0
  -21.6618   -6.8848   21.4235 O   0  0  0  0  0  0
  -22.3501  -14.5510   20.6707 O   0  0  0  0  0  0
  -24.6330  -31.8534   23.1949 C   0  0  0  0  0  0
  -25.9159  -32.4740   23.8303 C   0  0  1  0  0  0
  -27.2266  -27.2460   20.1253 C   0  0  0  0  0  0
  -25.5962  -33.8544   24.2237 N   0  0  0  0  0  0
  -23.4297  -30.4740   21.5381 C   0  0  2  0  0  0
  -24.8769  -28.9150   20.1038 C   0  0  0  0  0  0
  -22.7508  -29.4596   22.4895 C   0  0  0  0  0  0
  -18.0298  -28.1397   22.8485 C   0  0  0  0  0  0
  -24.1488  -36.7260   23.2636 C   0  0  0  0  0  0
  -25.9759  -30.7604   21.3752 C   0  0  0  0  0  0
  -26.0467  -29.3817   20.7149 C   0  0  0  0  0  0
  -27.2177  -28.5577   20.7169 C   0  0  0  0  0  0
  -26.0303  -26.8441   19.4905 C   0  0  0  0  0  0
  -24.8756  -27.6556   19.4804 C   0  0  0  0  0  0
  -23.6475  -29.8050   20.1538 C   0  0  0  0  0  0
  -25.4116  -36.3056   24.0325 C   0  0  1  0  0  0
  -20.5905  -28.3718   23.1261 C   0  0  2  0  0  0
  -20.6786  -26.9431   22.5415 C   0  0  0  0  0  0
  -19.5761  -26.6396   21.5217 C   0  0  0  0  0  0
  -18.1939  -26.7942   22.1624 C   0  0  0  0  0  0
  -19.1552  -28.8870   23.2872 C   0  0  0  0  0  0
  -18.9469  -30.1466   23.8896 C   0  0  0  0  0  0
  -17.6471  -30.6594   24.0566 C   0  0  0  0  0  0
  -25.9065  -34.9431   23.5080 C   0  0  0  0  0  0
  -16.5361  -29.9092   23.6332 C   0  0  0  0  0  0
  -16.7284  -28.6513   23.0354 C   0  0  0  0  0  0
  -26.4509  -31.6582   25.0712 C   0  0  0  0  0  0
  -25.3718  -31.3763   26.1425 C   0  0  0  0  0  0
  -27.0355  -30.2987   24.6230 C   0  0  0  0  0  0
  -27.6053  -32.4331   25.7497 C   0  0  0  0  0  0
  -27.5576  -37.1786   24.8460 C   0  0  0  0  0  0
  -21.4216  -29.3049   22.3640 N   0  0  0  0  0  0
  -26.4275  -37.3770   23.9415 N   0  0  0  0  0  0
  -24.6986  -31.0486   22.0922 N   0  0  0  0  0  0
  -23.4201  -28.8154   23.3014 O   0  0  0  0  0  0
  -28.3364  -26.3710   20.2328 O   0  0  0  0  0  0
  -26.5639  -34.8920   22.4653 O   0  0  0  0  0  0
  -23.5488  -32.1359   23.7246 O   0  0  0  0  0  0
  -30.1092  -18.6319   20.9559 C   0  0  0  0  0  0
  -30.3684  -17.2598   20.9833 C   0  0  0  0  0  0
  -29.4112  -19.5596   19.9999 C   0  0  0  0  0  0
  -29.1740  -19.0876   18.7507 C   0  0  0  0  0  0
  -29.7137  -17.7943   18.2188 C   0  0  0  0  0  0
  -29.4676  -16.3953   18.9114 C   0  0  0  0  0  0
  -28.4779  -23.6500   20.3615 C   0  0  0  0  0  0
  -29.8247  -22.4467   18.4631 C   0  0  0  0  0  0
  -28.4715  -25.0403   19.5289 C   0  0  0  0  0  0
  -29.3933  -22.3423   19.9367 C   0  0  2  0  0  0
  -30.0276  -16.1288   20.1334 N   0  0  0  0  0  0
  -28.5108  -19.8529   17.8095 N   0  0  0  0  0  0
  -28.9877  -20.9181   20.3629 N   0  0  0  0  0  0
  -30.2897  -17.7973   17.1220 O   0  0  0  0  0  0
  -28.9025  -15.5599   18.2021 O   0  0  0  0  0  0
  -27.7527  -23.5792   21.3581 O   0  0  0  0  0  0
  -31.4643  -12.6747   19.0975 H   0  0  0  0  0  0
  -30.4358  -11.5983   20.0086 H   0  0  0  0  0  0
  -29.7866  -11.5828   17.5953 H   0  0  0  0  0  0
  -29.6173  -13.3052   17.5812 H   0  0  0  0  0  0
  -27.9064  -11.2341   18.9790 H   0  0  0  0  0  0
  -27.3601  -12.4105   17.8135 H   0  0  0  0  0  0
  -27.5219  -14.1947   19.4026 H   0  0  0  0  0  0
  -28.7976  -12.3332   21.4538 H   0  0  0  0  0  0
  -28.4272  -14.0332   21.6815 H   0  0  0  0  0  0
  -25.2731   -9.5629   22.4780 H   0  0  0  0  0  0
  -23.9972   -7.4571   22.7453 H   0  0  0  0  0  0
  -21.0824   -8.8739   19.8950 H   0  0  0  0  0  0
  -22.3666  -10.9646   19.6185 H   0  0  0  0  0  0
  -21.1977   -7.6125   23.9702 H   0  0  0  0  0  0
  -21.1480   -6.0514   25.9078 H   0  0  0  0  0  0
  -22.0611   -2.7594   23.2855 H   0  0  0  0  0  0
  -22.4015  -11.9870   22.4844 H   0  0  0  0  0  0
  -21.1008  -13.1215   22.2584 H   0  0  0  0  0  0
  -24.6615  -15.8433   20.5351 H   0  0  0  0  0  0
  -26.2884  -15.6189   20.1345 H   0  0  0  0  0  0
  -26.7231  -32.5374   23.1049 H   0  0  0  0  0  0
  -25.0143  -33.9687   25.0407 H   0  0  0  0  0  0
  -22.7277  -31.2976   21.3927 H   0  0  0  0  0  0
  -23.3756  -35.9584   23.3303 H   0  0  0  0  0  0
  -24.3577  -36.8882   22.2050 H   0  0  0  0  0  0
  -23.7236  -37.6463   23.6655 H   0  0  0  0  0  0
  -26.1228  -31.5224   20.6098 H   0  0  0  0  0  0
  -26.8491  -30.8056   22.0147 H   0  0  0  0  0  0
  -28.1111  -28.9101   21.2131 H   0  0  0  0  0  0
  -25.9443  -25.8703   19.0343 H   0  0  0  0  0  0
  -23.9775  -27.2902   19.0018 H   0  0  0  0  0  0
  -23.7723  -30.5810   19.3975 H   0  0  0  0  0  0
  -22.7631  -29.2423   19.8494 H   0  0  0  0  0  0
  -25.1306  -36.1887   25.0818 H   0  0  0  0  0  0
  -21.0014  -28.3305   24.1377 H   0  0  0  0  0  0
  -20.5678  -26.2338   23.3632 H   0  0  0  0  0  0
  -21.6655  -26.7451   22.1213 H   0  0  0  0  0  0
  -19.6921  -25.6306   21.1253 H   0  0  0  0  0  0
  -19.6687  -27.3197   20.6739 H   0  0  0  0  0  0
  -17.4215  -26.6703   21.4017 H   0  0  0  0  0  0
  -18.0316  -26.0086   22.9018 H   0  0  0  0  0  0
  -19.7945  -30.7288   24.2259 H   0  0  0  0  0  0
  -17.5022  -31.6268   24.5181 H   0  0  0  0  0  0
  -15.5359  -30.2994   23.7656 H   0  0  0  0  0  0
  -15.8687  -28.0829   22.7067 H   0  0  0  0  0  0
  -24.5892  -30.7113   25.7756 H   0  0  0  0  0  0
  -24.8906  -32.2947   26.4797 H   0  0  0  0  0  0
  -25.8020  -30.8978   27.0232 H   0  0  0  0  0  0
  -26.2955  -29.6740   24.1210 H   0  0  0  0  0  0
  -27.3974  -29.7254   25.4777 H   0  0  0  0  0  0
  -27.8863  -30.4251   23.9528 H   0  0  0  0  0  0
  -27.2641  -33.3621   26.2076 H   0  0  0  0  0  0
  -28.3859  -32.6907   25.0327 H   0  0  0  0  0  0
  -28.0722  -31.8459   26.5420 H   0  0  0  0  0  0
  -28.2583  -38.0095   24.7535 H   0  0  0  0  0  0
  -28.1087  -36.2633   24.6244 H   0  0  0  0  0  0
  -27.2311  -37.1390   25.8867 H   0  0  0  0  0  0
  -20.9404  -29.8758   21.6823 H   0  0  0  0  0  0
  -26.0149  -38.2841   24.1418 H   0  0  0  0  0  0
  -30.5484  -19.1517   21.7976 H   0  0  0  0  0  0
  -30.9362  -16.9144   21.8377 H   0  0  0  0  0  0
  -30.3873  -23.3611   18.2814 H   0  0  0  0  0  0
  -28.9734  -22.4570   17.7831 H   0  0  0  0  0  0
  -30.4964  -21.6353   18.1827 H   0  0  0  0  0  0
  -27.7449  -24.9514   18.7239 H   0  0  0  0  0  0
  -29.4307  -25.1025   19.0208 H   0  0  0  0  0  0
  -30.3170  -22.4838   20.4990 H   0  0  0  0  0  0
  -28.7096  -19.6421   16.8389 H   0  0  0  0  0  0
  -28.4976  -20.8456   17.9996 H   0  0  0  0  0  0
  -28.6077  -20.9733   21.3040 H   0  0  0  0  0  0
  1 25  1  0  0  0
  1 30  2  0  0  0
  1 81  1  0  0  0
  2  3  1  0  0  0
  2 25  1  0  0  0
  2 87  1  0  0  0
  2 88  1  0  0  0
  3  4  1  0  0  0
  3 89  1  0  0  0
  3 90  1  0  0  0
  4  5  1  0  0  0
  4 91  1  0  0  0
  4 92  1  0  0  0
  5  6  1  0  0  0
  5 26  1  0  0  0
  5 93  1  0  0  0
  6 25  1  0  0  0
  6 94  1  0  0  0
  6 95  1  0  0  0
  7  8  2  0  0  0
  7 26  1  0  0  0
  7 29  1  0  0  0
  8  9  1  0  0  0
  8 22  1  0  0  0
  9 10  1  0  0  0
  9 27  2  0  0  0
 10 11  2  0  0  0
 10 15  1  0  0  0
 11 12  1  0  0  0
 11 96  1  0  0  0
 12 13  2  0  0  0
 12 97  1  0  0  0
 13 14  1  0  0  0
 13 31  1  0  0  0
 14 15  2  0  0  0
 14 98  1  0  0  0
 15 99  1  0  0  0
 16 17  2  0  0  0
 16 21  1  0  0  0
 16 31  1  0  0  0
 17 18  1  0  0  0
 17100  1  0  0  0
 18 19  2  0  0  0
 18101  1  0  0  0
 19 20  1  0  0  0
 19 24  1  0  0  0
 20 21  2  0  0  0
 20102  1  0  0  0
 21 23  1  0  0  0
 22 28  1  0  0  0
 22 32  2  0  0  0
 26 27  1  0  0  0
 28103  1  0  0  0
 28104  1  0  0  0
 29105  1  0  0  0
 29106  1  0  0  0
 33 34  1  0  0  0
 33 66  1  0  0  0
 33 70  2  0  0  0
 34 36  1  0  0  0
 34 59  1  0  0  0
 34107  1  0  0  0
 35 44  2  0  0  0
 35 45  1  0  0  0
 35 68  1  0  0  0
 36 56  1  0  0  0
 36108  1  0  0  0
 37 39  1  0  0  0
 37 47  1  0  0  0
 37 66  1  0  0  0
 37109  1  0  0  0
 38 43  2  0  0  0
 38 46  1  0  0  0
 38 47  1  0  0  0
 39 64  1  0  0  0
 39 67  2  0  0  0
 40 52  1  0  0  0
 40 53  2  0  0  0
 40 58  1  0  0  0
 41110  1  0  0  0
 41111  1  0  0  0
 41112  1  0  0  0
 41 48  1  0  0  0
 42 43  1  0  0  0
 42 66  1  0  0  0
 42113  1  0  0  0
 42114  1  0  0  0
 43 44  1  0  0  0
 44115  1  0  0  0
 45 46  2  0  0  0
 45116  1  0  0  0
 46117  1  0  0  0
 47118  1  0  0  0
 47119  1  0  0  0
 48 56  1  0  0  0
 48 65  1  0  0  0
 48120  1  0  0  0
 49 50  1  0  0  0
 49 53  1  0  0  0
 49 64  1  0  0  0
 49121  1  0  0  0
 50 51  1  0  0  0
 50122  1  0  0  0
 50123  1  0  0  0
 51 52  1  0  0  0
 51124  1  0  0  0
 51125  1  0  0  0
 52126  1  0  0  0
 52127  1  0  0  0
 53 54  1  0  0  0
 54 55  2  0  0  0
 54128  1  0  0  0
 55 57  1  0  0  0
 55129  1  0  0  0
 56 69  2  0  0  0
 57 58  2  0  0  0
 57130  1  0  0  0
 58131  1  0  0  0
 59 60  1  0  0  0
 59 61  1  0  0  0
 59 62  1  0  0  0
 60132  1  0  0  0
 60133  1  0  0  0
 60134  1  0  0  0
 61135  1  0  0  0
 61136  1  0  0  0
 61137  1  0  0  0
 62138  1  0  0  0
 62139  1  0  0  0
 62140  1  0  0  0
 63 65  1  0  0  0
 63141  1  0  0  0
 63142  1  0  0  0
 63143  1  0  0  0
 64144  1  0  0  0
 65145  1  0  0  0
 68 79  1  0  0  0
 71 72  2  0  0  0
 71 73  1  0  0  0
 71146  1  0  0  0
 72 81  1  0  0  0
 72147  1  0  0  0
 73 74  2  0  0  0
 73 83  1  0  0  0
 74 75  1  0  0  0
 74 82  1  0  0  0
 75 76  1  0  0  0
 75 84  2  0  0  0
 76 81  1  0  0  0
 76 85  2  0  0  0
 77 79  1  0  0  0
 77 80  1  0  0  0
 77 86  2  0  0  0
 78148  1  0  0  0
 78149  1  0  0  0
 78150  1  0  0  0
 78 80  1  0  0  0
 79151  1  0  0  0
 79152  1  0  0  0
 80 83  1  0  0  0
 80153  1  0  0  0
 82154  1  0  0  0
 82155  1  0  0  0
 83156  1  0  0  0
M  ISO  4   1 100  68 101  79 101  81 100
M  END
> <chiral flag>
0

> <version>
0

> <s_m_source_file>
/data/baiqing/PycharmProjects/Reinvent-master-3.2/result/LINK_invent/BTK/process_docking_weight1_custom_product_contain_oxygen_bond_distance_aromatic_linkinvent_7_9_3/rearranged_h_0092.sdf

> <i_m_source_file_index>
18

> <r_mmod_Potential_Energy-OPLS-2005>
638.560852050781

> <r_mmod_Stretch_Energy-OPLS-2005>
164.8388671875

> <r_mmod_Bend_Energy-OPLS-2005>
252.916259765625

> <r_mmod_Torsional_Energy-OPLS-2005>
379.797454833984

> <r_mmod_Improper_Torsional_Energy-OPLS-2005>
19.0400352478027

> <r_mmod_Van_der_Waal_Energy-OPLS-2005>
155.279159545898

> <r_mmod_Electrostatic_Energy-OPLS-2005>
-226.874633789062

> <r_mmod_Solvation_Energy-OPLS-2005>
-244.557632446289

> <b_mmod_Minimization_Converged-OPLS-2005>
0

> <r_mmod_RMS_Derivative-OPLS-2005>
2.061851978302

$$$$
18
                    3D
 Structure written by MMmdl.
158167  0  0  1  0            999 V2000
  -30.7148  -14.4705   20.5905 C   0  0  0  0  0  0
  -30.4190  -12.3251   19.4003 C   0  0  0  0  0  0
  -29.4886  -12.4899   18.1858 C   0  0  0  0  0  0
  -28.0134  -12.3428   18.6139 C   0  0  0  0  0  0
  -27.6511  -13.2034   19.8556 C   0  0  2  0  0  0
  -28.6951  -13.0225   20.9751 C   0  0  0  0  0  0
  -25.2562  -13.8148   20.5672 C   0  0  0  0  0  0
  -24.1833  -13.0449   20.9212 C   0  0  0  0  0  0
  -24.6374  -11.6911   20.8738 C   0  0  0  0  0  0
  -23.9043  -10.4302   21.0424 C   0  0  0  0  0  0
  -24.3593   -9.4216   21.9202 C   0  0  0  0  0  0
  -23.6281   -8.2240   22.0769 C   0  0  0  0  0  0
  -22.4255   -8.0281   21.3570 C   0  0  0  0  0  0
  -21.9897   -9.0256   20.4670 C   0  0  0  0  0  0
  -22.7217  -10.2143   20.3078 C   0  0  0  0  0  0
  -21.6860   -6.0734   22.5279 C   0  0  0  0  0  0
  -21.4017   -6.5642   23.8210 C   0  0  0  0  0  0
  -21.3656   -5.6791   24.9176 C   0  0  0  0  0  0
  -21.6033   -4.3053   24.7229 C   0  0  0  0  0  0
  -21.8813   -3.8152   23.4347 C   0  0  0  0  0  0
  -21.9203   -4.6967   22.3402 C   0  0  0  0  0  0
  -22.7844  -13.5271   21.1843 C   0  0  0  0  0  0
  -22.1669   -4.2152   21.0981 F   0  0  0  0  0  0
  -21.5626   -3.4540   25.7744 F   0  0  0  0  0  0
  -30.0095  -13.3269   20.3933 N   0  0  0  0  0  0
  -26.2970  -12.9307   20.3278 N   0  0  0  0  0  0
  -25.9288  -11.6476   20.5711 N   0  0  0  0  0  0
  -22.0478  -12.8289   22.0391 N   0  0  0  0  0  0
  -25.4233  -15.1868   20.4001 N   0  0  0  0  0  0
  -31.8932  -14.5836   20.2357 O   0  0  0  0  0  0
  -21.6636   -6.8871   21.4238 O   0  0  0  0  0  0
  -22.3551  -14.5582   20.6680 O   0  0  0  0  0  0
  -24.6156  -31.8678   23.2153 C   0  0  0  0  0  0
  -25.9085  -32.4806   23.8404 C   0  0  1  0  0  0
  -27.2044  -27.4275   20.0825 C   0  0  0  0  0  0
  -25.5948  -33.8594   24.2329 N   0  0  0  0  0  0
  -23.3986  -30.5023   21.5561 C   0  0  2  0  0  0
  -24.8350  -28.9793   20.1116 C   0  0  0  0  0  0
  -22.7385  -29.4699   22.4982 C   0  0  0  0  0  0
  -18.0272  -28.1389   22.8490 C   0  0  0  0  0  0
  -24.1493  -36.7328   23.2648 C   0  0  0  0  0  0
  -25.9303  -30.8337   21.3703 C   0  0  0  0  0  0
  -25.9998  -29.4707   20.7137 C   0  0  0  0  0  0
  -27.1873  -28.7020   20.7017 C   0  0  0  0  0  0
  -26.0185  -26.9649   19.4609 C   0  0  0  0  0  0
  -24.8391  -27.7253   19.4860 C   0  0  0  0  0  0
  -23.6035  -29.8503   20.1660 C   0  0  0  0  0  0
  -25.4118  -36.3107   24.0341 C   0  0  1  0  0  0
  -20.5857  -28.3675   23.1306 C   0  0  2  0  0  0
  -20.6773  -26.9415   22.5407 C   0  0  0  0  0  0
  -19.5749  -26.6407   21.5210 C   0  0  0  0  0  0
  -18.1924  -26.7950   22.1622 C   0  0  0  0  0  0
  -19.1517  -28.8845   23.2907 C   0  0  0  0  0  0
  -18.9460  -30.1457   23.8904 C   0  0  0  0  0  0
  -17.6466  -30.6595   24.0573 C   0  0  0  0  0  0
  -25.9038  -34.9463   23.5131 C   0  0  0  0  0  0
  -16.5351  -29.9097   23.6333 C   0  0  0  0  0  0
  -16.7267  -28.6528   23.0329 C   0  0  0  0  0  0
  -26.4500  -31.6568   25.0721 C   0  0  0  0  0  0
  -25.3790  -31.3687   26.1494 C   0  0  0  0  0  0
  -27.0336  -30.3003   24.6106 C   0  0  0  0  0  0
  -27.6060  -32.4285   25.7494 C   0  0  0  0  0  0
  -27.5560  -37.1852   24.8486 C   0  0  0  0  0  0
  -21.4109  -29.3059   22.3719 N   0  0  0  0  0  0
  -26.4307  -37.3780   23.9383 N   0  0  0  0  0  0
  -24.6663  -31.0816   22.1049 N   0  0  0  0  0  0
  -23.4175  -28.8238   23.3014 O   0  0  0  0  0  0
  -28.3587  -26.6651   20.1144 O   0  0  0  0  0  0
  -26.5562  -34.8920   22.4661 O   0  0  0  0  0  0
  -23.5368  -32.1415   23.7579 O   0  0  0  0  0  0
  -29.7305  -18.8991   22.3397 C   0  0  0  0  0  0
  -29.6986  -20.2893   22.1084 C   0  0  0  0  0  0
  -30.1498  -19.8950   19.7490 C   0  0  0  0  0  0
  -30.0427  -17.9936   21.2982 C   0  0  0  0  0  0
  -29.9918  -20.7999   20.8248 C   0  0  0  0  0  0
  -30.1825  -18.5006   19.9817 C   0  0  0  0  0  0
  -29.2157  -23.0755   20.3753 C   0  0  0  0  0  0
  -29.3851  -24.3960   20.1302 C   0  0  0  0  0  0
  -31.5377  -22.6542   20.8413 C   0  0  0  0  0  0
  -30.4859  -16.5925   21.6494 C   0  0  0  0  0  0
  -30.7674  -25.0185   20.1835 C   0  0  0  0  0  0
  -31.7351  -24.1663   21.0199 C   0  0  0  0  0  0
  -28.2316  -25.2914   19.7083 C   0  0  0  0  0  0
  -30.2701  -22.1937   20.6710 N   0  0  0  0  0  0
  -29.9918  -15.5468   20.9621 N   0  0  0  0  0  0
  -32.5317  -21.9193   20.8900 O   0  0  0  0  0  0
  -31.2889  -16.4492   22.5805 O   0  0  0  0  0  0
  -30.4587  -17.6720   18.9447 F   0  0  0  0  0  0
  -31.4574  -12.4390   19.0882 H   0  0  0  0  0  0
  -30.3383  -11.3206   19.8186 H   0  0  0  0  0  0
  -29.7343  -11.7441   17.4283 H   0  0  0  0  0  0
  -29.6472  -13.4675   17.7231 H   0  0  0  0  0  0
  -27.8412  -11.2882   18.8324 H   0  0  0  0  0  0
  -27.3563  -12.5853   17.7792 H   0  0  0  0  0  0
  -27.6819  -14.2422   19.5282 H   0  0  0  0  0  0
  -28.6801  -12.0012   21.3597 H   0  0  0  0  0  0
  -28.4552  -13.6676   21.8226 H   0  0  0  0  0  0
  -25.2743   -9.5692   22.4760 H   0  0  0  0  0  0
  -24.0009   -7.4621   22.7475 H   0  0  0  0  0  0
  -21.0843   -8.8772   19.8953 H   0  0  0  0  0  0
  -22.3698  -10.9672   19.6167 H   0  0  0  0  0  0
  -21.2003   -7.6144   23.9724 H   0  0  0  0  0  0
  -21.1477   -6.0519   25.9079 H   0  0  0  0  0  0
  -22.0593   -2.7614   23.2849 H   0  0  0  0  0  0
  -22.4091  -11.9973   22.4824 H   0  0  0  0  0  0
  -21.1073  -13.1298   22.2523 H   0  0  0  0  0  0
  -24.6364  -15.8221   20.4758 H   0  0  0  0  0  0
  -26.2489  -15.6223   20.0112 H   0  0  0  0  0  0
  -26.7155  -32.5500   23.1169 H   0  0  0  0  0  0
  -25.0137  -33.9705   25.0510 H   0  0  0  0  0  0
  -22.6874  -31.3199   21.4284 H   0  0  0  0  0  0
  -23.3697  -35.9721   23.3382 H   0  0  0  0  0  0
  -24.3584  -36.8843   22.2041 H   0  0  0  0  0  0
  -23.7305  -37.6593   23.6598 H   0  0  0  0  0  0
  -26.0525  -31.6030   20.6053 H   0  0  0  0  0  0
  -26.8160  -30.8759   21.9921 H   0  0  0  0  0  0
  -28.0825  -29.0745   21.1814 H   0  0  0  0  0  0
  -25.9656  -26.0182   18.9430 H   0  0  0  0  0  0
  -23.9441  -27.3457   19.0112 H   0  0  0  0  0  0
  -23.7141  -30.6321   19.4132 H   0  0  0  0  0  0
  -22.7227  -29.2800   19.8662 H   0  0  0  0  0  0
  -25.1308  -36.1981   25.0836 H   0  0  0  0  0  0
  -20.9957  -28.3277   24.1426 H   0  0  0  0  0  0
  -20.5691  -26.2295   23.3606 H   0  0  0  0  0  0
  -21.6644  -26.7487   22.1187 H   0  0  0  0  0  0
  -19.6909  -25.6329   21.1221 H   0  0  0  0  0  0
  -19.6681  -27.3221   20.6748 H   0  0  0  0  0  0
  -17.4193  -26.6675   21.4026 H   0  0  0  0  0  0
  -18.0338  -26.0089   22.9017 H   0  0  0  0  0  0
  -19.7937  -30.7266   24.2269 H   0  0  0  0  0  0
  -17.5029  -31.6276   24.5181 H   0  0  0  0  0  0
  -15.5349  -30.3000   23.7683 H   0  0  0  0  0  0
  -15.8671  -28.0871   22.7006 H   0  0  0  0  0  0
  -24.5952  -30.7032   25.7877 H   0  0  0  0  0  0
  -24.9016  -32.2844   26.4969 H   0  0  0  0  0  0
  -25.8179  -30.8856   27.0230 H   0  0  0  0  0  0
  -26.2876  -29.6745   24.1190 H   0  0  0  0  0  0
  -27.4126  -29.7264   25.4572 H   0  0  0  0  0  0
  -27.8713  -30.4311   23.9258 H   0  0  0  0  0  0
  -27.2649  -33.3545   26.2132 H   0  0  0  0  0  0
  -28.3857  -32.6884   25.0329 H   0  0  0  0  0  0
  -28.0755  -31.8372   26.5365 H   0  0  0  0  0  0
  -28.2689  -38.0034   24.7373 H   0  0  0  0  0  0
  -28.0933  -36.2556   24.6527 H   0  0  0  0  0  0
  -27.2254  -37.1784   25.8886 H   0  0  0  0  0  0
  -20.9253  -29.8792   21.6951 H   0  0  0  0  0  0
  -26.0196  -38.2888   24.1252 H   0  0  0  0  0  0
  -29.6165  -18.5391   23.3542 H   0  0  0  0  0  0
  -29.5488  -20.9634   22.9403 H   0  0  0  0  0  0
  -30.3553  -20.2662   18.7558 H   0  0  0  0  0  0
  -28.2555  -22.5869   20.3112 H   0  0  0  0  0  0
  -30.7128  -26.0182   20.6174 H   0  0  0  0  0  0
  -31.1405  -25.1332   19.1642 H   0  0  0  0  0  0
  -32.7700  -24.4392   20.8147 H   0  0  0  0  0  0
  -31.5624  -24.3719   22.0761 H   0  0  0  0  0  0
  -27.3316  -24.8380   20.1275 H   0  0  0  0  0  0
  -28.1646  -25.2481   18.6218 H   0  0  0  0  0  0
  -29.0653  -15.6231   20.5800 H   0  0  0  0  0  0
  1 25  1  0  0  0
  1 30  2  0  0  0
  1 85  1  0  0  0
  2  3  1  0  0  0
  2 25  1  0  0  0
  2 89  1  0  0  0
  2 90  1  0  0  0
  3  4  1  0  0  0
  3 91  1  0  0  0
  3 92  1  0  0  0
  4  5  1  0  0  0
  4 93  1  0  0  0
  4 94  1  0  0  0
  5  6  1  0  0  0
  5 26  1  0  0  0
  5 95  1  0  0  0
  6 25  1  0  0  0
  6 96  1  0  0  0
  6 97  1  0  0  0
  7  8  2  0  0  0
  7 26  1  0  0  0
  7 29  1  0  0  0
  8  9  1  0  0  0
  8 22  1  0  0  0
  9 10  1  0  0  0
  9 27  2  0  0  0
 10 11  2  0  0  0
 10 15  1  0  0  0
 11 12  1  0  0  0
 11 98  1  0  0  0
 12 13  2  0  0  0
 12 99  1  0  0  0
 13 14  1  0  0  0
 13 31  1  0  0  0
 14 15  2  0  0  0
 14100  1  0  0  0
 15101  1  0  0  0
 16 17  2  0  0  0
 16 21  1  0  0  0
 16 31  1  0  0  0
 17 18  1  0  0  0
 17102  1  0  0  0
 18 19  2  0  0  0
 18103  1  0  0  0
 19 20  1  0  0  0
 19 24  1  0  0  0
 20 21  2  0  0  0
 20104  1  0  0  0
 21 23  1  0  0  0
 22 28  1  0  0  0
 22 32  2  0  0  0
 26 27  1  0  0  0
 28105  1  0  0  0
 28106  1  0  0  0
 29107  1  0  0  0
 29108  1  0  0  0
 33 34  1  0  0  0
 33 66  1  0  0  0
 33 70  2  0  0  0
 34 36  1  0  0  0
 34 59  1  0  0  0
 34109  1  0  0  0
 35 44  2  0  0  0
 35 45  1  0  0  0
 35 68  1  0  0  0
 36 56  1  0  0  0
 36110  1  0  0  0
 37 39  1  0  0  0
 37 47  1  0  0  0
 37 66  1  0  0  0
 37111  1  0  0  0
 38 43  2  0  0  0
 38 46  1  0  0  0
 38 47  1  0  0  0
 39 64  1  0  0  0
 39 67  2  0  0  0
 40 52  1  0  0  0
 40 53  2  0  0  0
 40 58  1  0  0  0
 41112  1  0  0  0
 41113  1  0  0  0
 41114  1  0  0  0
 41 48  1  0  0  0
 42 43  1  0  0  0
 42 66  1  0  0  0
 42115  1  0  0  0
 42116  1  0  0  0
 43 44  1  0  0  0
 44117  1  0  0  0
 45 46  2  0  0  0
 45118  1  0  0  0
 46119  1  0  0  0
 47120  1  0  0  0
 47121  1  0  0  0
 48 56  1  0  0  0
 48 65  1  0  0  0
 48122  1  0  0  0
 49 50  1  0  0  0
 49 53  1  0  0  0
 49 64  1  0  0  0
 49123  1  0  0  0
 50 51  1  0  0  0
 50124  1  0  0  0
 50125  1  0  0  0
 51 52  1  0  0  0
 51126  1  0  0  0
 51127  1  0  0  0
 52128  1  0  0  0
 52129  1  0  0  0
 53 54  1  0  0  0
 54 55  2  0  0  0
 54130  1  0  0  0
 55 57  1  0  0  0
 55131  1  0  0  0
 56 69  2  0  0  0
 57 58  2  0  0  0
 57132  1  0  0  0
 58133  1  0  0  0
 59 60  1  0  0  0
 59 61  1  0  0  0
 59 62  1  0  0  0
 60134  1  0  0  0
 60135  1  0  0  0
 60136  1  0  0  0
 61137  1  0  0  0
 61138  1  0  0  0
 61139  1  0  0  0
 62140  1  0  0  0
 62141  1  0  0  0
 62142  1  0  0  0
 63 65  1  0  0  0
 63143  1  0  0  0
 63144  1  0  0  0
 63145  1  0  0  0
 64146  1  0  0  0
 65147  1  0  0  0
 68 83  1  0  0  0
 71 72  2  0  0  0
 71 74  1  0  0  0
 71148  1  0  0  0
 72 75  1  0  0  0
 72149  1  0  0  0
 73 75  2  0  0  0
 73 76  1  0  0  0
 73150  1  0  0  0
 74 76  2  0  0  0
 74 80  1  0  0  0
 75 84  1  0  0  0
 76 88  1  0  0  0
 77 78  2  0  0  0
 77 84  1  0  0  0
 77151  1  0  0  0
 78 81  1  0  0  0
 78 83  1  0  0  0
 79 82  1  0  0  0
 79 84  1  0  0  0
 79 86  2  0  0  0
 80 85  1  0  0  0
 80 87  2  0  0  0
 81 82  1  0  0  0
 81152  1  0  0  0
 81153  1  0  0  0
 82154  1  0  0  0
 82155  1  0  0  0
 83156  1  0  0  0
 83157  1  0  0  0
 85158  1  0  0  0
M  ISO  4   1 100  68 101  83 101  85 100
M  END
> <chiral flag>
0

> <version>
0

> <s_m_source_file>
/data/baiqing/PycharmProjects/Reinvent-master-3.2/result/LINK_invent/BTK/process_docking_weight1_custom_product_contain_oxygen_bond_distance_aromatic_linkinvent_7_9_3/rearranged_h_0092.sdf

> <i_m_source_file_index>
19

> <r_mmod_Potential_Energy-OPLS-2005>
91.5925369262695

> <r_mmod_Stretch_Energy-OPLS-2005>
37.8566780090332

> <r_mmod_Bend_Energy-OPLS-2005>
94.0141372680664

> <r_mmod_Torsional_Energy-OPLS-2005>
350.790405273438

> <r_mmod_Improper_Torsional_Energy-OPLS-2005>
8.66833782196045

> <r_mmod_Van_der_Waal_Energy-OPLS-2005>
181.203857421875

> <r_mmod_Electrostatic_Energy-OPLS-2005>
-372.467712402344

> <r_mmod_Solvation_Energy-OPLS-2005>
-229.796585083008

> <b_mmod_Minimization_Converged-OPLS-2005>
0

> <r_mmod_RMS_Derivative-OPLS-2005>
3.88799166679382

$$$$
19
                    3D
 Structure written by MMmdl.
161170  0  0  1  0            999 V2000
  -30.5980  -14.6509   20.5141 C   0  0  0  0  0  0
  -30.4466  -12.4042   19.4478 C   0  0  0  0  0  0
  -29.5125  -12.5249   18.2211 C   0  0  0  0  0  0
  -28.0329  -12.3608   18.6268 C   0  0  0  0  0  0
  -27.6567  -13.2164   19.8655 C   0  0  2  0  0  0
  -28.7000  -13.0424   20.9917 C   0  0  0  0  0  0
  -25.2563  -13.8167   20.5678 C   0  0  0  0  0  0
  -24.1818  -13.0428   20.9150 C   0  0  0  0  0  0
  -24.6386  -11.6902   20.8691 C   0  0  0  0  0  0
  -23.9050  -10.4287   21.0371 C   0  0  0  0  0  0
  -24.3604   -9.4206   21.9150 C   0  0  0  0  0  0
  -23.6286   -8.2238   22.0730 C   0  0  0  0  0  0
  -22.4266   -8.0268   21.3534 C   0  0  0  0  0  0
  -21.9892   -9.0233   20.4634 C   0  0  0  0  0  0
  -22.7215  -10.2115   20.3035 C   0  0  0  0  0  0
  -21.6853   -6.0720   22.5275 C   0  0  0  0  0  0
  -21.4021   -6.5626   23.8205 C   0  0  0  0  0  0
  -21.3660   -5.6780   24.9168 C   0  0  0  0  0  0
  -21.6045   -4.3042   24.7225 C   0  0  0  0  0  0
  -21.8822   -3.8132   23.4346 C   0  0  0  0  0  0
  -21.9192   -4.6950   22.3402 C   0  0  0  0  0  0
  -22.7839  -13.5217   21.1825 C   0  0  0  0  0  0
  -22.1661   -4.2133   21.0980 F   0  0  0  0  0  0
  -21.5628   -3.4528   25.7738 F   0  0  0  0  0  0
  -30.0165  -13.4090   20.4423 N   0  0  0  0  0  0
  -26.3000  -12.9348   20.3305 N   0  0  0  0  0  0
  -25.9319  -11.6499   20.5700 N   0  0  0  0  0  0
  -22.0493  -12.8224   22.0402 N   0  0  0  0  0  0
  -25.4285  -15.1888   20.4147 N   0  0  0  0  0  0
  -31.7311  -14.8553   20.0658 O   0  0  0  0  0  0
  -21.6637   -6.8862   21.4235 O   0  0  0  0  0  0
  -22.3510  -14.5511   20.6657 O   0  0  0  0  0  0
  -24.6264  -31.8570   23.1987 C   0  0  0  0  0  0
  -25.9114  -32.4753   23.8314 C   0  0  1  0  0  0
  -27.2366  -27.3075   20.1108 C   0  0  0  0  0  0
  -25.5928  -33.8557   24.2241 N   0  0  0  0  0  0
  -23.4206  -30.4774   21.5398 C   0  0  2  0  0  0
  -24.8694  -28.9258   20.1066 C   0  0  0  0  0  0
  -22.7476  -29.4603   22.4914 C   0  0  0  0  0  0
  -18.0288  -28.1385   22.8482 C   0  0  0  0  0  0
  -24.1487  -36.7274   23.2645 C   0  0  0  0  0  0
  -25.9610  -30.7808   21.3735 C   0  0  0  0  0  0
  -26.0341  -29.4067   20.7150 C   0  0  0  0  0  0
  -27.2137  -28.6059   20.7121 C   0  0  0  0  0  0
  -26.0446  -26.8719   19.4900 C   0  0  0  0  0  0
  -24.8764  -27.6630   19.4879 C   0  0  0  0  0  0
  -23.6365  -29.8071   20.1556 C   0  0  0  0  0  0
  -25.4116  -36.3063   24.0324 C   0  0  1  0  0  0
  -20.5886  -28.3683   23.1279 C   0  0  2  0  0  0
  -20.6768  -26.9402   22.5418 C   0  0  0  0  0  0
  -19.5752  -26.6378   21.5211 C   0  0  0  0  0  0
  -18.1930  -26.7930   22.1615 C   0  0  0  0  0  0
  -19.1541  -28.8853   23.2877 C   0  0  0  0  0  0
  -18.9468  -30.1456   23.8888 C   0  0  0  0  0  0
  -17.6471  -30.6592   24.0556 C   0  0  0  0  0  0
  -25.9056  -34.9437   23.5086 C   0  0  0  0  0  0
  -16.5360  -29.9089   23.6329 C   0  0  0  0  0  0
  -16.7277  -28.6508   23.0348 C   0  0  0  0  0  0
  -26.4503  -31.6580   25.0698 C   0  0  0  0  0  0
  -25.3751  -31.3723   26.1438 C   0  0  0  0  0  0
  -27.0357  -30.3004   24.6169 C   0  0  0  0  0  0
  -27.6042  -32.4341   25.7479 C   0  0  0  0  0  0
  -27.5571  -37.1796   24.8462 C   0  0  0  0  0  0
  -21.4188  -29.3027   22.3664 N   0  0  0  0  0  0
  -26.4281  -37.3767   23.9409 N   0  0  0  0  0  0
  -24.6876  -31.0566   22.0934 N   0  0  0  0  0  0
  -23.4196  -28.8160   23.3013 O   0  0  0  0  0  0
  -28.3841  -26.4973   20.1926 O   0  0  0  0  0  0
  -26.5630  -34.8916   22.4652 O   0  0  0  0  0  0
  -23.5429  -32.1375   23.7313 O   0  0  0  0  0  0
  -29.3607  -19.3276   21.8994 C   0  0  0  0  0  0
  -29.6953  -17.9462   21.9949 C   0  0  0  0  0  0
  -29.5471  -17.7490   19.6080 C   0  0  0  0  0  0
  -29.0421  -19.9627   20.6688 C   0  0  0  0  0  0
  -29.1814  -19.1360   19.5078 C   0  0  0  0  0  0
  -29.7699  -17.1035   20.8569 C   0  0  0  0  0  0
  -28.1332  -23.8776   20.2741 C   0  0  0  0  0  0
  -30.8858  -24.0340   19.6517 C   0  0  0  0  0  0
  -30.0341  -25.1365   18.9990 C   0  0  0  0  0  0
  -30.1839  -22.6688   19.5505 C   0  0  0  0  0  0
  -28.5624  -25.1980   19.4879 C   0  0  2  0  0  0
  -28.8664  -19.6889   18.1286 C   0  0  0  0  0  0
  -28.3224  -21.3808   20.7113 C   0  0  0  0  0  0
  -28.8528  -22.6915   20.1652 N   0  0  0  0  0  0
  -29.8176  -15.6486   21.0385 N   0  0  0  0  0  0
  -27.0946  -23.9237   20.9407 O   0  0  0  0  0  0
  -31.4863  -12.5431   19.1456 H   0  0  0  0  0  0
  -30.3948  -11.4017   19.8763 H   0  0  0  0  0  0
  -29.7798  -11.7822   17.4682 H   0  0  0  0  0  0
  -29.6523  -13.4977   17.7472 H   0  0  0  0  0  0
  -27.8619  -11.3055   18.8412 H   0  0  0  0  0  0
  -27.3819  -12.6072   17.7862 H   0  0  0  0  0  0
  -27.6827  -14.2577   19.5418 H   0  0  0  0  0  0
  -28.7139  -12.0068   21.3348 H   0  0  0  0  0  0
  -28.4375  -13.6344   21.8685 H   0  0  0  0  0  0
  -25.2763   -9.5686   22.4696 H   0  0  0  0  0  0
  -24.0004   -7.4638   22.7455 H   0  0  0  0  0  0
  -21.0815   -8.8745   19.8955 H   0  0  0  0  0  0
  -22.3665  -10.9634   19.6129 H   0  0  0  0  0  0
  -21.2025   -7.6137   23.9709 H   0  0  0  0  0  0
  -21.1477   -6.0506   25.9066 H   0  0  0  0  0  0
  -22.0607   -2.7597   23.2846 H   0  0  0  0  0  0
  -22.4137  -11.9925   22.4845 H   0  0  0  0  0  0
  -21.1090  -13.1210   22.2574 H   0  0  0  0  0  0
  -24.6665  -15.8474   20.5367 H   0  0  0  0  0  0
  -26.2903  -15.6314   20.1211 H   0  0  0  0  0  0
  -26.7177  -32.5412   23.1051 H   0  0  0  0  0  0
  -25.0065  -33.9689   25.0380 H   0  0  0  0  0  0
  -22.7150  -31.2976   21.3935 H   0  0  0  0  0  0
  -23.3747  -35.9608   23.3315 H   0  0  0  0  0  0
  -24.3571  -36.8891   22.2056 H   0  0  0  0  0  0
  -23.7249  -37.6478   23.6669 H   0  0  0  0  0  0
  -26.0997  -31.5457   20.6084 H   0  0  0  0  0  0
  -26.8391  -30.8248   22.0061 H   0  0  0  0  0  0
  -28.1061  -28.9687   21.2018 H   0  0  0  0  0  0
  -25.9796  -25.8975   19.0305 H   0  0  0  0  0  0
  -23.9797  -27.2828   19.0180 H   0  0  0  0  0  0
  -23.7557  -30.5813   19.3968 H   0  0  0  0  0  0
  -22.7566  -29.2362   19.8539 H   0  0  0  0  0  0
  -25.1305  -36.1894   25.0817 H   0  0  0  0  0  0
  -20.9972  -28.3269   24.1402 H   0  0  0  0  0  0
  -20.5646  -26.2303   23.3626 H   0  0  0  0  0  0
  -21.6645  -26.7420   22.1232 H   0  0  0  0  0  0
  -19.6908  -25.6287   21.1250 H   0  0  0  0  0  0
  -19.6692  -27.3183   20.6736 H   0  0  0  0  0  0
  -17.4199  -26.6674   21.4016 H   0  0  0  0  0  0
  -18.0322  -26.0078   22.9018 H   0  0  0  0  0  0
  -19.7953  -30.7266   24.2250 H   0  0  0  0  0  0
  -17.5036  -31.6269   24.5163 H   0  0  0  0  0  0
  -15.5362  -30.2988   23.7665 H   0  0  0  0  0  0
  -15.8675  -28.0828   22.7057 H   0  0  0  0  0  0
  -24.5912  -30.7084   25.7779 H   0  0  0  0  0  0
  -24.8968  -32.2897   26.4883 H   0  0  0  0  0  0
  -25.8101  -30.8892   27.0198 H   0  0  0  0  0  0
  -26.2933  -29.6747   24.1206 H   0  0  0  0  0  0
  -27.4062  -29.7270   25.4674 H   0  0  0  0  0  0
  -27.8799  -30.4280   23.9390 H   0  0  0  0  0  0
  -27.2617  -33.3631   26.2048 H   0  0  0  0  0  0
  -28.3861  -32.6926   25.0327 H   0  0  0  0  0  0
  -28.0707  -31.8488   26.5411 H   0  0  0  0  0  0
  -28.2593  -38.0089   24.7502 H   0  0  0  0  0  0
  -28.1063  -36.2620   24.6293 H   0  0  0  0  0  0
  -27.2293  -37.1457   25.8867 H   0  0  0  0  0  0
  -20.9369  -29.8741   21.6865 H   0  0  0  0  0  0
  -26.0152  -38.2835   24.1416 H   0  0  0  0  0  0
  -29.2609  -19.8891   22.8186 H   0  0  0  0  0  0
  -29.8360  -17.5200   22.9790 H   0  0  0  0  0  0
  -29.5657  -17.1519   18.7065 H   0  0  0  0  0  0
  -31.0706  -24.2785   20.6996 H   0  0  0  0  0  0
  -31.8654  -23.9850   19.1738 H   0  0  0  0  0  0
  -30.0365  -24.9769   17.9195 H   0  0  0  0  0  0
  -30.5214  -26.1000   19.1496 H   0  0  0  0  0  0
  -30.8072  -21.9144   20.0310 H   0  0  0  0  0  0
  -30.0871  -22.3760   18.5044 H   0  0  0  0  0  0
  -27.9603  -25.2202   18.5804 H   0  0  0  0  0  0
  -28.5713  -18.8932   17.4435 H   0  0  0  0  0  0
  -29.7469  -20.1745   17.7082 H   0  0  0  0  0  0
  -28.0522  -20.4118   18.1551 H   0  0  0  0  0  0
  -28.0869  -21.5739   21.7588 H   0  0  0  0  0  0
  -27.3459  -21.2270   20.2507 H   0  0  0  0  0  0
  -29.0291  -15.2803   21.5494 H   0  0  0  0  0  0
  1 25  1  0  0  0
  1 30  2  0  0  0
  1 85  1  0  0  0
  2  3  1  0  0  0
  2 25  1  0  0  0
  2 87  1  0  0  0
  2 88  1  0  0  0
  3  4  1  0  0  0
  3 89  1  0  0  0
  3 90  1  0  0  0
  4  5  1  0  0  0
  4 91  1  0  0  0
  4 92  1  0  0  0
  5  6  1  0  0  0
  5 26  1  0  0  0
  5 93  1  0  0  0
  6 25  1  0  0  0
  6 94  1  0  0  0
  6 95  1  0  0  0
  7  8  2  0  0  0
  7 26  1  0  0  0
  7 29  1  0  0  0
  8  9  1  0  0  0
  8 22  1  0  0  0
  9 10  1  0  0  0
  9 27  2  0  0  0
 10 11  2  0  0  0
 10 15  1  0  0  0
 11 12  1  0  0  0
 11 96  1  0  0  0
 12 13  2  0  0  0
 12 97  1  0  0  0
 13 14  1  0  0  0
 13 31  1  0  0  0
 14 15  2  0  0  0
 14 98  1  0  0  0
 15 99  1  0  0  0
 16 17  2  0  0  0
 16 21  1  0  0  0
 16 31  1  0  0  0
 17 18  1  0  0  0
 17100  1  0  0  0
 18 19  2  0  0  0
 18101  1  0  0  0
 19 20  1  0  0  0
 19 24  1  0  0  0
 20 21  2  0  0  0
 20102  1  0  0  0
 21 23  1  0  0  0
 22 28  1  0  0  0
 22 32  2  0  0  0
 26 27  1  0  0  0
 28103  1  0  0  0
 28104  1  0  0  0
 29105  1  0  0  0
 29106  1  0  0  0
 33 34  1  0  0  0
 33 66  1  0  0  0
 33 70  2  0  0  0
 34 36  1  0  0  0
 34 59  1  0  0  0
 34107  1  0  0  0
 35 44  2  0  0  0
 35 45  1  0  0  0
 35 68  1  0  0  0
 36 56  1  0  0  0
 36108  1  0  0  0
 37 39  1  0  0  0
 37 47  1  0  0  0
 37 66  1  0  0  0
 37109  1  0  0  0
 38 43  2  0  0  0
 38 46  1  0  0  0
 38 47  1  0  0  0
 39 64  1  0  0  0
 39 67  2  0  0  0
 40 52  1  0  0  0
 40 53  2  0  0  0
 40 58  1  0  0  0
 41110  1  0  0  0
 41111  1  0  0  0
 41112  1  0  0  0
 41 48  1  0  0  0
 42 43  1  0  0  0
 42 66  1  0  0  0
 42113  1  0  0  0
 42114  1  0  0  0
 43 44  1  0  0  0
 44115  1  0  0  0
 45 46  2  0  0  0
 45116  1  0  0  0
 46117  1  0  0  0
 47118  1  0  0  0
 47119  1  0  0  0
 48 56  1  0  0  0
 48 65  1  0  0  0
 48120  1  0  0  0
 49 50  1  0  0  0
 49 53  1  0  0  0
 49 64  1  0  0  0
 49121  1  0  0  0
 50 51  1  0  0  0
 50122  1  0  0  0
 50123  1  0  0  0
 51 52  1  0  0  0
 51124  1  0  0  0
 51125  1  0  0  0
 52126  1  0  0  0
 52127  1  0  0  0
 53 54  1  0  0  0
 54 55  2  0  0  0
 54128  1  0  0  0
 55 57  1  0  0  0
 55129  1  0  0  0
 56 69  2  0  0  0
 57 58  2  0  0  0
 57130  1  0  0  0
 58131  1  0  0  0
 59 60  1  0  0  0
 59 61  1  0  0  0
 59 62  1  0  0  0
 60132  1  0  0  0
 60133  1  0  0  0
 60134  1  0  0  0
 61135  1  0  0  0
 61136  1  0  0  0
 61137  1  0  0  0
 62138  1  0  0  0
 62139  1  0  0  0
 62140  1  0  0  0
 63 65  1  0  0  0
 63141  1  0  0  0
 63142  1  0  0  0
 63143  1  0  0  0
 64144  1  0  0  0
 65145  1  0  0  0
 68 81  1  0  0  0
 71 72  2  0  0  0
 71 74  1  0  0  0
 71146  1  0  0  0
 72 76  1  0  0  0
 72147  1  0  0  0
 73 75  1  0  0  0
 73 76  2  0  0  0
 73148  1  0  0  0
 74 75  2  0  0  0
 74 83  1  0  0  0
 75 82  1  0  0  0
 76 85  1  0  0  0
 77 81  1  0  0  0
 77 84  1  0  0  0
 77 86  2  0  0  0
 78 79  1  0  0  0
 78 80  1  0  0  0
 78149  1  0  0  0
 78150  1  0  0  0
 79 81  1  0  0  0
 79151  1  0  0  0
 79152  1  0  0  0
 80 84  1  0  0  0
 80153  1  0  0  0
 80154  1  0  0  0
 81155  1  0  0  0
 82156  1  0  0  0
 82157  1  0  0  0
 82158  1  0  0  0
 83 84  1  0  0  0
 83159  1  0  0  0
 83160  1  0  0  0
 85161  1  0  0  0
M  ISO  4   1 100  68 101  81 101  85 100
M  END
> <chiral flag>
0

> <version>
0

> <s_m_source_file>
/data/baiqing/PycharmProjects/Reinvent-master-3.2/result/LINK_invent/BTK/process_docking_weight1_custom_product_contain_oxygen_bond_distance_aromatic_linkinvent_7_9_3/rearranged_h_0092.sdf

> <i_m_source_file_index>
20

> <r_mmod_Potential_Energy-OPLS-2005>
173.306228637695

> <r_mmod_Stretch_Energy-OPLS-2005>
94.7043380737305

> <r_mmod_Bend_Energy-OPLS-2005>
168.754257202148

> <r_mmod_Torsional_Energy-OPLS-2005>
274.311218261719

> <r_mmod_Improper_Torsional_Energy-OPLS-2005>
6.43611001968384

> <r_mmod_Van_der_Waal_Energy-OPLS-2005>
146.141632080078

> <r_mmod_Electrostatic_Energy-OPLS-2005>
-336.319671630859

> <r_mmod_Solvation_Energy-OPLS-2005>
-232.14079284668

> <b_mmod_Minimization_Converged-OPLS-2005>
0

> <r_mmod_RMS_Derivative-OPLS-2005>
1.53249526023865

$$$$
20
                    3D
 Structure written by MMmdl.
159168  0  0  1  0            999 V2000
  -30.6089  -14.7597   20.3796 C   0  0  0  0  0  0
  -30.4413  -12.4555   19.4576 C   0  0  0  0  0  0
  -29.4964  -12.4105   18.2367 C   0  0  0  0  0  0
  -28.0226  -12.2852   18.6625 C   0  0  0  0  0  0
  -27.6333  -13.2235   19.8345 C   0  0  2  0  0  0
  -28.6884  -13.2089   20.9597 C   0  0  0  0  0  0
  -25.2497  -13.8177   20.5699 C   0  0  0  0  0  0
  -24.1778  -13.0431   20.9167 C   0  0  0  0  0  0
  -24.6381  -11.6895   20.8772 C   0  0  0  0  0  0
  -23.9075  -10.4273   21.0436 C   0  0  0  0  0  0
  -24.3614   -9.4185   21.9234 C   0  0  0  0  0  0
  -23.6267   -8.2233   22.0798 C   0  0  0  0  0  0
  -22.4261   -8.0271   21.3567 C   0  0  0  0  0  0
  -21.9891   -9.0254   20.4688 C   0  0  0  0  0  0
  -22.7237  -10.2125   20.3097 C   0  0  0  0  0  0
  -21.6841   -6.0717   22.5288 C   0  0  0  0  0  0
  -21.4013   -6.5632   23.8225 C   0  0  0  0  0  0
  -21.3648   -5.6794   24.9194 C   0  0  0  0  0  0
  -21.6038   -4.3056   24.7238 C   0  0  0  0  0  0
  -21.8815   -3.8130   23.4366 C   0  0  0  0  0  0
  -21.9184   -4.6946   22.3417 C   0  0  0  0  0  0
  -22.7805  -13.5216   21.1807 C   0  0  0  0  0  0
  -22.1647   -4.2130   21.0997 F   0  0  0  0  0  0
  -21.5612   -3.4548   25.7755 F   0  0  0  0  0  0
  -29.9793  -13.5388   20.3473 N   0  0  0  0  0  0
  -26.2915  -12.9379   20.3278 N   0  0  0  0  0  0
  -25.9315  -11.6538   20.5838 N   0  0  0  0  0  0
  -22.0452  -12.8263   22.0389 N   0  0  0  0  0  0
  -25.4232  -15.1916   20.4146 N   0  0  0  0  0  0
  -31.8385  -14.7978   20.2689 O   0  0  0  0  0  0
  -21.6626   -6.8862   21.4253 O   0  0  0  0  0  0
  -22.3528  -14.5557   20.6677 O   0  0  0  0  0  0
  -24.6294  -31.8553   23.1980 C   0  0  0  0  0  0
  -25.9149  -32.4749   23.8322 C   0  0  1  0  0  0
  -27.2172  -27.2799   20.1373 C   0  0  0  0  0  0
  -25.5982  -33.8547   24.2268 N   0  0  0  0  0  0
  -23.4223  -30.4824   21.5372 C   0  0  2  0  0  0
  -24.8692  -28.9271   20.1068 C   0  0  0  0  0  0
  -22.7470  -29.4611   22.4856 C   0  0  0  0  0  0
  -18.0311  -28.1352   22.8498 C   0  0  0  0  0  0
  -24.1464  -36.7252   23.2630 C   0  0  0  0  0  0
  -25.9642  -30.7802   21.3637 C   0  0  0  0  0  0
  -26.0355  -29.3986   20.7187 C   0  0  0  0  0  0
  -27.2079  -28.5848   20.7243 C   0  0  0  0  0  0
  -26.0253  -26.8621   19.5042 C   0  0  0  0  0  0
  -24.8691  -27.6675   19.4864 C   0  0  0  0  0  0
  -23.6362  -29.8107   20.1530 C   0  0  0  0  0  0
  -25.4093  -36.3040   24.0318 C   0  0  1  0  0  0
  -20.5904  -28.3644   23.1259 C   0  0  2  0  0  0
  -20.6762  -26.9354   22.5391 C   0  0  0  0  0  0
  -19.5746  -26.6359   21.5178 C   0  0  0  0  0  0
  -18.1933  -26.7915   22.1606 C   0  0  0  0  0  0
  -19.1561  -28.8820   23.2894 C   0  0  0  0  0  0
  -18.9487  -30.1435   23.8904 C   0  0  0  0  0  0
  -17.6482  -30.6562   24.0562 C   0  0  0  0  0  0
  -25.9037  -34.9422   23.5069 C   0  0  0  0  0  0
  -16.5370  -29.9054   23.6352 C   0  0  0  0  0  0
  -16.7305  -28.6474   23.0375 C   0  0  0  0  0  0
  -26.4506  -31.6584   25.0722 C   0  0  0  0  0  0
  -25.3739  -31.3729   26.1454 C   0  0  0  0  0  0
  -27.0329  -30.3025   24.6146 C   0  0  0  0  0  0
  -27.6047  -32.4303   25.7532 C   0  0  0  0  0  0
  -27.5545  -37.1770   24.8470 C   0  0  0  0  0  0
  -21.4168  -29.3027   22.3643 N   0  0  0  0  0  0
  -26.4242  -37.3765   23.9434 N   0  0  0  0  0  0
  -24.6926  -31.0575   22.0911 N   0  0  0  0  0  0
  -23.4205  -28.8109   23.2888 O   0  0  0  0  0  0
  -28.3385  -26.4337   20.2508 O   0  0  0  0  0  0
  -26.5541  -34.8889   22.4595 O   0  0  0  0  0  0
  -23.5461  -32.1317   23.7357 O   0  0  0  0  0  0
  -30.3488  -19.5734   20.4184 C   0  0  0  0  0  0
  -28.1003  -18.9543   20.8333 C   0  0  0  0  0  0
  -29.0318  -20.0141   20.6634 C   0  0  0  0  0  0
  -30.6609  -18.1846   20.2850 C   0  0  0  0  0  0
  -29.6479  -17.1794   20.4258 C   0  0  0  0  0  0
  -27.9601  -23.4209   21.6545 C   0  0  0  0  0  0
  -28.4142  -23.7296   20.4243 C   0  0  0  0  0  0
  -28.1251  -21.9854   21.8823 C   0  0  0  0  0  0
  -28.8872  -22.4430   19.8659 C   0  0  0  0  0  0
  -27.2822  -24.3097   22.6892 C   0  0  0  0  0  0
  -29.8319  -15.8637   18.3996 C   0  0  0  0  0  0
  -28.4336  -25.0928   19.6064 C   0  0  0  0  0  0
  -28.3861  -17.6163   20.7079 N   0  0  0  0  0  0
  -28.6822  -21.4488   20.7795 N   0  0  0  0  0  0
  -31.9601  -17.8535   19.8977 N   0  0  0  0  0  0
  -29.8679  -15.8265   19.8746 N   0  0  0  0  0  0
  -27.8262  -21.3457   22.8945 O   0  0  0  0  0  0
  -29.3698  -22.2536   18.7436 O   0  0  0  0  0  0
  -31.4612  -12.6223   19.1106 H   0  0  0  0  0  0
  -30.4513  -11.5064   19.9941 H   0  0  0  0  0  0
  -29.7632  -11.5662   17.5999 H   0  0  0  0  0  0
  -29.6207  -13.2952   17.6176 H   0  0  0  0  0  0
  -27.8677  -11.2461   18.9548 H   0  0  0  0  0  0
  -27.3675  -12.4539   17.8084 H   0  0  0  0  0  0
  -27.6028  -14.2275   19.4179 H   0  0  0  0  0  0
  -28.7411  -12.2310   21.4373 H   0  0  0  0  0  0
  -28.4315  -13.9310   21.7392 H   0  0  0  0  0  0
  -25.2757   -9.5635   22.4828 H   0  0  0  0  0  0
  -23.9925   -7.4647   22.7558 H   0  0  0  0  0  0
  -21.0798   -8.8803   19.9025 H   0  0  0  0  0  0
  -22.3700  -10.9673   19.6219 H   0  0  0  0  0  0
  -21.2005   -7.6141   23.9712 H   0  0  0  0  0  0
  -21.1465   -6.0533   25.9093 H   0  0  0  0  0  0
  -22.0590   -2.7585   23.2888 H   0  0  0  0  0  0
  -22.3980  -11.9832   22.4686 H   0  0  0  0  0  0
  -21.1136  -13.1407   22.2678 H   0  0  0  0  0  0
  -24.6687  -15.8517   20.5699 H   0  0  0  0  0  0
  -26.2950  -15.6435   20.1629 H   0  0  0  0  0  0
  -26.7219  -32.5390   23.1057 H   0  0  0  0  0  0
  -25.0386  -33.9698   25.0585 H   0  0  0  0  0  0
  -22.7220  -31.3074   21.3886 H   0  0  0  0  0  0
  -23.3715  -35.9589   23.3304 H   0  0  0  0  0  0
  -24.3554  -36.8870   22.2041 H   0  0  0  0  0  0
  -23.7220  -37.6458   23.6649 H   0  0  0  0  0  0
  -26.0769  -31.5268   20.5764 H   0  0  0  0  0  0
  -26.8568  -30.8511   21.9746 H   0  0  0  0  0  0
  -28.1022  -28.9368   21.2189 H   0  0  0  0  0  0
  -25.9317  -25.8874   19.0510 H   0  0  0  0  0  0
  -23.9746  -27.3009   19.0045 H   0  0  0  0  0  0
  -23.7491  -30.5833   19.3906 H   0  0  0  0  0  0
  -22.7572  -29.2364   19.8543 H   0  0  0  0  0  0
  -25.1258  -36.1859   25.0803 H   0  0  0  0  0  0
  -21.0064  -28.3190   24.1345 H   0  0  0  0  0  0
  -20.5588  -26.2227   23.3579 H   0  0  0  0  0  0
  -21.6630  -26.7309   22.1209 H   0  0  0  0  0  0
  -19.6880  -25.6265   21.1219 H   0  0  0  0  0  0
  -19.6710  -27.3144   20.6691 H   0  0  0  0  0  0
  -17.4188  -26.6689   21.4017 H   0  0  0  0  0  0
  -18.0351  -26.0030   22.8980 H   0  0  0  0  0  0
  -19.7962  -30.7258   24.2243 H   0  0  0  0  0  0
  -17.5042  -31.6268   24.5101 H   0  0  0  0  0  0
  -15.5376  -30.2945   23.7684 H   0  0  0  0  0  0
  -15.8707  -28.0796   22.7080 H   0  0  0  0  0  0
  -24.5947  -30.7037   25.7803 H   0  0  0  0  0  0
  -24.8892  -32.2888   26.4846 H   0  0  0  0  0  0
  -25.8061  -30.8952   27.0257 H   0  0  0  0  0  0
  -26.2874  -29.6828   24.1168 H   0  0  0  0  0  0
  -27.4073  -29.7258   25.4617 H   0  0  0  0  0  0
  -27.8705  -30.4340   23.9303 H   0  0  0  0  0  0
  -27.2664  -33.3606   26.2100 H   0  0  0  0  0  0
  -28.3888  -32.6882   25.0405 H   0  0  0  0  0  0
  -28.0681  -31.8430   26.5479 H   0  0  0  0  0  0
  -28.2542  -38.0088   24.7534 H   0  0  0  0  0  0
  -28.1049  -36.2617   24.6240 H   0  0  0  0  0  0
  -27.2276  -37.1348   25.8878 H   0  0  0  0  0  0
  -20.9271  -29.8847   21.6976 H   0  0  0  0  0  0
  -26.0099  -38.2804   24.1527 H   0  0  0  0  0  0
  -31.1286  -20.3089   20.2948 H   0  0  0  0  0  0
  -27.0642  -19.1807   21.0378 H   0  0  0  0  0  0
  -27.4133  -25.3701   22.4838 H   0  0  0  0  0  0
  -27.6610  -24.1007   23.6932 H   0  0  0  0  0  0
  -26.2104  -24.1065   22.7009 H   0  0  0  0  0  0
  -28.8760  -15.4998   18.0306 H   0  0  0  0  0  0
  -30.6314  -15.2882   17.9293 H   0  0  0  0  0  0
  -29.9486  -16.8765   18.0098 H   0  0  0  0  0  0
  -27.7725  -24.9937   18.7480 H   0  0  0  0  0  0
  -29.4188  -25.1144   19.1399 H   0  0  0  0  0  0
  -32.4431  -18.5596   19.3504 H   0  0  0  0  0  0
  -32.0854  -16.9222   19.5090 H   0  0  0  0  0  0
  1 25  1  0  0  0
  1 30  2  0  0  0
  1 86  1  0  0  0
  2  3  1  0  0  0
  2 25  1  0  0  0
  2 89  1  0  0  0
  2 90  1  0  0  0
  3  4  1  0  0  0
  3 91  1  0  0  0
  3 92  1  0  0  0
  4  5  1  0  0  0
  4 93  1  0  0  0
  4 94  1  0  0  0
  5  6  1  0  0  0
  5 26  1  0  0  0
  5 95  1  0  0  0
  6 25  1  0  0  0
  6 96  1  0  0  0
  6 97  1  0  0  0
  7  8  2  0  0  0
  7 26  1  0  0  0
  7 29  1  0  0  0
  8  9  1  0  0  0
  8 22  1  0  0  0
  9 10  1  0  0  0
  9 27  2  0  0  0
 10 11  2  0  0  0
 10 15  1  0  0  0
 11 12  1  0  0  0
 11 98  1  0  0  0
 12 13  2  0  0  0
 12 99  1  0  0  0
 13 14  1  0  0  0
 13 31  1  0  0  0
 14 15  2  0  0  0
 14100  1  0  0  0
 15101  1  0  0  0
 16 17  2  0  0  0
 16 21  1  0  0  0
 16 31  1  0  0  0
 17 18  1  0  0  0
 17102  1  0  0  0
 18 19  2  0  0  0
 18103  1  0  0  0
 19 20  1  0  0  0
 19 24  1  0  0  0
 20 21  2  0  0  0
 20104  1  0  0  0
 21 23  1  0  0  0
 22 28  1  0  0  0
 22 32  2  0  0  0
 26 27  1  0  0  0
 28105  1  0  0  0
 28106  1  0  0  0
 29107  1  0  0  0
 29108  1  0  0  0
 33 34  1  0  0  0
 33 66  1  0  0  0
 33 70  2  0  0  0
 34 36  1  0  0  0
 34 59  1  0  0  0
 34109  1  0  0  0
 35 44  2  0  0  0
 35 45  1  0  0  0
 35 68  1  0  0  0
 36 56  1  0  0  0
 36110  1  0  0  0
 37 39  1  0  0  0
 37 47  1  0  0  0
 37 66  1  0  0  0
 37111  1  0  0  0
 38 43  2  0  0  0
 38 46  1  0  0  0
 38 47  1  0  0  0
 39 64  1  0  0  0
 39 67  2  0  0  0
 40 52  1  0  0  0
 40 53  2  0  0  0
 40 58  1  0  0  0
 41112  1  0  0  0
 41113  1  0  0  0
 41114  1  0  0  0
 41 48  1  0  0  0
 42 43  1  0  0  0
 42 66  1  0  0  0
 42115  1  0  0  0
 42116  1  0  0  0
 43 44  1  0  0  0
 44117  1  0  0  0
 45 46  2  0  0  0
 45118  1  0  0  0
 46119  1  0  0  0
 47120  1  0  0  0
 47121  1  0  0  0
 48 56  1  0  0  0
 48 65  1  0  0  0
 48122  1  0  0  0
 49 50  1  0  0  0
 49 53  1  0  0  0
 49 64  1  0  0  0
 49123  1  0  0  0
 50 51  1  0  0  0
 50124  1  0  0  0
 50125  1  0  0  0
 51 52  1  0  0  0
 51126  1  0  0  0
 51127  1  0  0  0
 52128  1  0  0  0
 52129  1  0  0  0
 53 54  1  0  0  0
 54 55  2  0  0  0
 54130  1  0  0  0
 55 57  1  0  0  0
 55131  1  0  0  0
 56 69  2  0  0  0
 57 58  2  0  0  0
 57132  1  0  0  0
 58133  1  0  0  0
 59 60  1  0  0  0
 59 61  1  0  0  0
 59 62  1  0  0  0
 60134  1  0  0  0
 60135  1  0  0  0
 60136  1  0  0  0
 61137  1  0  0  0
 61138  1  0  0  0
 61139  1  0  0  0
 62140  1  0  0  0
 62141  1  0  0  0
 62142  1  0  0  0
 63 65  1  0  0  0
 63143  1  0  0  0
 63144  1  0  0  0
 63145  1  0  0  0
 64146  1  0  0  0
 65147  1  0  0  0
 68 82  1  0  0  0
 71 73  2  0  0  0
 71 74  1  0  0  0
 71148  1  0  0  0
 72 73  1  0  0  0
 72 83  2  0  0  0
 72149  1  0  0  0
 73 84  1  0  0  0
 74 75  2  0  0  0
 74 85  1  0  0  0
 75 83  1  0  0  0
 75 86  1  0  0  0
 76 77  2  0  0  0
 76 78  1  0  0  0
 76 80  1  0  0  0
 77 79  1  0  0  0
 77 82  1  0  0  0
 78 84  1  0  0  0
 78 87  2  0  0  0
 79 84  1  0  0  0
 79 88  2  0  0  0
 80150  1  0  0  0
 80151  1  0  0  0
 80152  1  0  0  0
 81 86  1  0  0  0
 81153  1  0  0  0
 81154  1  0  0  0
 81155  1  0  0  0
 82156  1  0  0  0
 82157  1  0  0  0
 85158  1  0  0  0
 85159  1  0  0  0
M  ISO  4   1 100  68 101  82 101  86 100
M  END
> <chiral flag>
0

> <version>
0

> <s_m_source_file>
/data/baiqing/PycharmProjects/Reinvent-master-3.2/result/LINK_invent/BTK/process_docking_weight1_custom_product_contain_oxygen_bond_distance_aromatic_linkinvent_7_9_3/rearranged_h_0092.sdf

> <i_m_source_file_index>
21

> <r_mmod_Potential_Energy-OPLS-2005>
197.369995117188

> <r_mmod_Stretch_Energy-OPLS-2005>
96.7046279907227

> <r_mmod_Bend_Energy-OPLS-2005>
215.60888671875

> <r_mmod_Torsional_Energy-OPLS-2005>
354.1494140625

> <r_mmod_Improper_Torsional_Energy-OPLS-2005>
35.5335311889648

> <r_mmod_Van_der_Waal_Energy-OPLS-2005>
135.977432250977

> <r_mmod_Electrostatic_Energy-OPLS-2005>
-518.208374023438

> <r_mmod_Solvation_Energy-OPLS-2005>
-218.085098266602

> <b_mmod_Minimization_Converged-OPLS-2005>
0

> <r_mmod_RMS_Derivative-OPLS-2005>
4.98893070220947

$$$$
21
                    3D
 Structure written by MMmdl.
159168  0  0  1  0            999 V2000
  -30.7781  -14.3937   20.6388 C   0  0  0  0  0  0
  -30.4064  -12.2940   19.3979 C   0  0  0  0  0  0
  -29.4806  -12.5139   18.1888 C   0  0  0  0  0  0
  -28.0059  -12.3711   18.6097 C   0  0  0  0  0  0
  -27.6584  -13.2087   19.8695 C   0  0  2  0  0  0
  -28.7025  -12.9928   20.9865 C   0  0  0  0  0  0
  -25.2593  -13.8161   20.5695 C   0  0  0  0  0  0
  -24.1837  -13.0444   20.9179 C   0  0  0  0  0  0
  -24.6386  -11.6908   20.8726 C   0  0  0  0  0  0
  -23.9059  -10.4290   21.0397 C   0  0  0  0  0  0
  -24.3613   -9.4212   21.9181 C   0  0  0  0  0  0
  -23.6288   -8.2245   22.0755 C   0  0  0  0  0  0
  -22.4271   -8.0277   21.3538 C   0  0  0  0  0  0
  -21.9900   -9.0251   20.4643 C   0  0  0  0  0  0
  -22.7231  -10.2127   20.3054 C   0  0  0  0  0  0
  -21.6854   -6.0731   22.5281 C   0  0  0  0  0  0
  -21.4010   -6.5641   23.8212 C   0  0  0  0  0  0
  -21.3660   -5.6792   24.9171 C   0  0  0  0  0  0
  -21.6046   -4.3056   24.7224 C   0  0  0  0  0  0
  -21.8822   -3.8143   23.4346 C   0  0  0  0  0  0
  -21.9197   -4.6958   22.3403 C   0  0  0  0  0  0
  -22.7865  -13.5254   21.1850 C   0  0  0  0  0  0
  -22.1669   -4.2152   21.0980 F   0  0  0  0  0  0
  -21.5627   -3.4540   25.7735 F   0  0  0  0  0  0
  -30.0317  -13.2790   20.4225 N   0  0  0  0  0  0
  -26.3017  -12.9329   20.3356 N   0  0  0  0  0  0
  -25.9313  -11.6489   20.5745 N   0  0  0  0  0  0
  -22.0512  -12.8233   22.0395 N   0  0  0  0  0  0
  -25.4342  -15.1880   20.4116 N   0  0  0  0  0  0
  -31.9027  -14.5363   20.1477 O   0  0  0  0  0  0
  -21.6639   -6.8874   21.4240 O   0  0  0  0  0  0
  -22.3556  -14.5570   20.6723 O   0  0  0  0  0  0
  -24.6110  -31.8690   23.2138 C   0  0  0  0  0  0
  -25.9015  -32.4828   23.8420 C   0  0  1  0  0  0
  -27.2346  -27.4615   20.0735 C   0  0  0  0  0  0
  -25.5878  -33.8627   24.2333 N   0  0  0  0  0  0
  -23.3972  -30.4935   21.5554 C   0  0  2  0  0  0
  -24.8400  -28.9644   20.1183 C   0  0  0  0  0  0
  -22.7385  -29.4664   22.5031 C   0  0  0  0  0  0
  -18.0255  -28.1375   22.8513 C   0  0  0  0  0  0
  -24.1473  -36.7329   23.2641 C   0  0  0  0  0  0
  -25.9242  -30.8415   21.3627 C   0  0  0  0  0  0
  -26.0014  -29.4790   20.7071 C   0  0  0  0  0  0
  -27.2001  -28.7336   20.6852 C   0  0  0  0  0  0
  -26.0423  -26.9439   19.5109 C   0  0  0  0  0  0
  -24.8525  -27.6933   19.5218 C   0  0  0  0  0  0
  -23.6015  -29.8272   20.1702 C   0  0  0  0  0  0
  -25.4101  -36.3129   24.0342 C   0  0  1  0  0  0
  -20.5842  -28.3656   23.1349 C   0  0  2  0  0  0
  -20.6741  -26.9393   22.5445 C   0  0  0  0  0  0
  -19.5721  -26.6388   21.5240 C   0  0  0  0  0  0
  -18.1896  -26.7926   22.1639 C   0  0  0  0  0  0
  -19.1501  -28.8835   23.2923 C   0  0  0  0  0  0
  -18.9429  -30.1448   23.8928 C   0  0  0  0  0  0
  -17.6427  -30.6577   24.0592 C   0  0  0  0  0  0
  -25.9024  -34.9489   23.5136 C   0  0  0  0  0  0
  -16.5322  -29.9088   23.6334 C   0  0  0  0  0  0
  -16.7240  -28.6505   23.0357 C   0  0  0  0  0  0
  -26.4454  -31.6613   25.0746 C   0  0  0  0  0  0
  -25.3735  -31.3723   26.1509 C   0  0  0  0  0  0
  -27.0253  -30.3044   24.6124 C   0  0  0  0  0  0
  -27.6053  -32.4326   25.7492 C   0  0  0  0  0  0
  -27.5575  -37.1822   24.8457 C   0  0  0  0  0  0
  -21.4116  -29.3032   22.3771 N   0  0  0  0  0  0
  -26.4289  -37.3808   23.9396 N   0  0  0  0  0  0
  -24.6625  -31.0808   22.1030 N   0  0  0  0  0  0
  -23.4168  -28.8186   23.3047 O   0  0  0  0  0  0
  -28.4178  -26.7521   20.0691 O   0  0  0  0  0  0
  -26.5598  -34.8941   22.4704 O   0  0  0  0  0  0
  -23.5312  -32.1440   23.7545 O   0  0  0  0  0  0
  -30.0884  -18.7901   22.4479 C   0  0  0  0  0  0
  -30.2183  -18.1682   20.1071 C   0  0  0  0  0  0
  -29.7915  -20.1187   22.0741 C   0  0  0  0  0  0
  -29.9574  -19.5015   19.7367 C   0  0  0  0  0  0
  -30.3089  -17.8046   21.4658 C   0  0  0  0  0  0
  -29.7437  -20.5087   20.7102 C   0  0  0  0  0  0
  -29.2186  -24.5897   19.4344 C   0  0  0  0  0  0
  -28.5700  -25.7360   19.1625 C   0  0  0  0  0  0
  -30.8014  -16.4363   21.8393 C   0  0  0  0  0  0
  -29.2766  -23.4476   18.4409 C   0  0  0  0  0  0
  -29.9175  -24.2962   20.7520 C   0  0  0  0  0  0
  -28.7868  -22.1434   19.0918 C   0  0  0  0  0  0
  -29.5338  -22.9204   21.3370 C   0  0  0  0  0  0
  -29.5349  -21.8577   20.3223 N   0  0  0  0  0  0
  -30.1628  -15.3971   21.2830 N   0  0  0  0  0  0
  -31.7701  -16.3220   22.5989 O   0  0  0  0  0  0
  -31.4515  -12.3707   19.0928 H   0  0  0  0  0  0
  -30.2889  -11.2820   19.7884 H   0  0  0  0  0  0
  -29.7135  -11.8001   17.3979 H   0  0  0  0  0  0
  -29.6505  -13.5061   17.7667 H   0  0  0  0  0  0
  -27.8182  -11.3142   18.8030 H   0  0  0  0  0  0
  -27.3504  -12.6468   17.7830 H   0  0  0  0  0  0
  -27.7027  -14.2564   19.5728 H   0  0  0  0  0  0
  -28.6710  -11.9626   21.3429 H   0  0  0  0  0  0
  -28.4693  -13.6046   21.8584 H   0  0  0  0  0  0
  -25.2760   -9.5695   22.4755 H   0  0  0  0  0  0
  -24.0005   -7.4644   22.7474 H   0  0  0  0  0  0
  -21.0839   -8.8769   19.8945 H   0  0  0  0  0  0
  -22.3699  -10.9664   19.6160 H   0  0  0  0  0  0
  -21.1992   -7.6151   23.9716 H   0  0  0  0  0  0
  -21.1479   -6.0518   25.9074 H   0  0  0  0  0  0
  -22.0598   -2.7606   23.2845 H   0  0  0  0  0  0
  -22.4125  -11.9869   22.4734 H   0  0  0  0  0  0
  -21.1133  -13.1258   22.2625 H   0  0  0  0  0  0
  -24.6703  -15.8461   20.5210 H   0  0  0  0  0  0
  -26.2899  -15.6249   20.0925 H   0  0  0  0  0  0
  -26.7093  -32.5518   23.1193 H   0  0  0  0  0  0
  -24.9987  -33.9787   25.0447 H   0  0  0  0  0  0
  -22.6861  -31.3108   21.4196 H   0  0  0  0  0  0
  -23.3742  -35.9656   23.3300 H   0  0  0  0  0  0
  -24.3542  -36.8959   22.2048 H   0  0  0  0  0  0
  -23.7226  -37.6530   23.6660 H   0  0  0  0  0  0
  -26.0336  -31.6121   20.5983 H   0  0  0  0  0  0
  -26.8133  -30.8938   21.9800 H   0  0  0  0  0  0
  -28.1005  -29.1295   21.1350 H   0  0  0  0  0  0
  -26.0128  -25.9612   19.0619 H   0  0  0  0  0  0
  -23.9542  -27.2846   19.0783 H   0  0  0  0  0  0
  -23.7020  -30.6020   19.4097 H   0  0  0  0  0  0
  -22.7258  -29.2430   19.8811 H   0  0  0  0  0  0
  -25.1299  -36.1998   25.0843 H   0  0  0  0  0  0
  -20.9936  -28.3212   24.1468 H   0  0  0  0  0  0
  -20.5630  -26.2271   23.3630 H   0  0  0  0  0  0
  -21.6607  -26.7417   22.1229 H   0  0  0  0  0  0
  -19.6872  -25.6308   21.1243 H   0  0  0  0  0  0
  -19.6658  -27.3225   20.6789 H   0  0  0  0  0  0
  -17.4172  -26.6707   21.4025 H   0  0  0  0  0  0
  -18.0256  -26.0052   22.9005 H   0  0  0  0  0  0
  -19.7900  -30.7275   24.2299 H   0  0  0  0  0  0
  -17.4971  -31.6250   24.5201 H   0  0  0  0  0  0
  -15.5323  -30.3000   23.7635 H   0  0  0  0  0  0
  -15.8637  -28.0831   22.7064 H   0  0  0  0  0  0
  -24.5894  -30.7091   25.7840 H   0  0  0  0  0  0
  -24.8948  -32.2878   26.4997 H   0  0  0  0  0  0
  -25.8096  -30.8849   27.0241 H   0  0  0  0  0  0
  -26.2770  -29.6829   24.1192 H   0  0  0  0  0  0
  -27.4003  -29.7272   25.4588 H   0  0  0  0  0  0
  -27.8632  -30.4334   23.9272 H   0  0  0  0  0  0
  -27.2700  -33.3637   26.2080 H   0  0  0  0  0  0
  -28.3850  -32.6877   25.0300 H   0  0  0  0  0  0
  -28.0742  -31.8444   26.5390 H   0  0  0  0  0  0
  -28.2640  -38.0077   24.7471 H   0  0  0  0  0  0
  -28.1038  -36.2618   24.6333 H   0  0  0  0  0  0
  -27.2276  -37.1520   25.8857 H   0  0  0  0  0  0
  -20.9274  -29.8802   21.7033 H   0  0  0  0  0  0
  -26.0191  -38.2898   24.1393 H   0  0  0  0  0  0
  -30.1714  -18.5350   23.4950 H   0  0  0  0  0  0
  -30.4234  -17.4398   19.3357 H   0  0  0  0  0  0
  -29.6310  -20.8268   22.8721 H   0  0  0  0  0  0
  -29.9805  -19.7259   18.6817 H   0  0  0  0  0  0
  -28.0922  -25.9377   18.2128 H   0  0  0  0  0  0
  -30.3045  -23.3307   18.0946 H   0  0  0  0  0  0
  -28.6748  -23.6793   17.5602 H   0  0  0  0  0  0
  -29.7270  -25.0827   21.4826 H   0  0  0  0  0  0
  -30.9911  -24.3159   20.5597 H   0  0  0  0  0  0
  -28.8269  -21.3481   18.3521 H   0  0  0  0  0  0
  -27.7325  -22.2441   19.3542 H   0  0  0  0  0  0
  -28.5409  -22.9736   21.7867 H   0  0  0  0  0  0
  -30.2385  -22.7029   22.1402 H   0  0  0  0  0  0
  -29.1643  -15.4552   21.1853 H   0  0  0  0  0  0
  1 25  1  0  0  0
  1 30  2  0  0  0
  1 85  1  0  0  0
  2  3  1  0  0  0
  2 25  1  0  0  0
  2 87  1  0  0  0
  2 88  1  0  0  0
  3  4  1  0  0  0
  3 89  1  0  0  0
  3 90  1  0  0  0
  4  5  1  0  0  0
  4 91  1  0  0  0
  4 92  1  0  0  0
  5  6  1  0  0  0
  5 26  1  0  0  0
  5 93  1  0  0  0
  6 25  1  0  0  0
  6 94  1  0  0  0
  6 95  1  0  0  0
  7  8  2  0  0  0
  7 26  1  0  0  0
  7 29  1  0  0  0
  8  9  1  0  0  0
  8 22  1  0  0  0
  9 10  1  0  0  0
  9 27  2  0  0  0
 10 11  2  0  0  0
 10 15  1  0  0  0
 11 12  1  0  0  0
 11 96  1  0  0  0
 12 13  2  0  0  0
 12 97  1  0  0  0
 13 14  1  0  0  0
 13 31  1  0  0  0
 14 15  2  0  0  0
 14 98  1  0  0  0
 15 99  1  0  0  0
 16 17  2  0  0  0
 16 21  1  0  0  0
 16 31  1  0  0  0
 17 18  1  0  0  0
 17100  1  0  0  0
 18 19  2  0  0  0
 18101  1  0  0  0
 19 20  1  0  0  0
 19 24  1  0  0  0
 20 21  2  0  0  0
 20102  1  0  0  0
 21 23  1  0  0  0
 22 28  1  0  0  0
 22 32  2  0  0  0
 26 27  1  0  0  0
 28103  1  0  0  0
 28104  1  0  0  0
 29105  1  0  0  0
 29106  1  0  0  0
 33 34  1  0  0  0
 33 66  1  0  0  0
 33 70  2  0  0  0
 34 36  1  0  0  0
 34 59  1  0  0  0
 34107  1  0  0  0
 35 44  2  0  0  0
 35 45  1  0  0  0
 35 68  1  0  0  0
 36 56  1  0  0  0
 36108  1  0  0  0
 37 39  1  0  0  0
 37 47  1  0  0  0
 37 66  1  0  0  0
 37109  1  0  0  0
 38 43  2  0  0  0
 38 46  1  0  0  0
 38 47  1  0  0  0
 39 64  1  0  0  0
 39 67  2  0  0  0
 40 52  1  0  0  0
 40 53  2  0  0  0
 40 58  1  0  0  0
 41110  1  0  0  0
 41111  1  0  0  0
 41112  1  0  0  0
 41 48  1  0  0  0
 42 43  1  0  0  0
 42 66  1  0  0  0
 42113  1  0  0  0
 42114  1  0  0  0
 43 44  1  0  0  0
 44115  1  0  0  0
 45 46  2  0  0  0
 45116  1  0  0  0
 46117  1  0  0  0
 47118  1  0  0  0
 47119  1  0  0  0
 48 56  1  0  0  0
 48 65  1  0  0  0
 48120  1  0  0  0
 49 50  1  0  0  0
 49 53  1  0  0  0
 49 64  1  0  0  0
 49121  1  0  0  0
 50 51  1  0  0  0
 50122  1  0  0  0
 50123  1  0  0  0
 51 52  1  0  0  0
 51124  1  0  0  0
 51125  1  0  0  0
 52126  1  0  0  0
 52127  1  0  0  0
 53 54  1  0  0  0
 54 55  2  0  0  0
 54128  1  0  0  0
 55 57  1  0  0  0
 55129  1  0  0  0
 56 69  2  0  0  0
 57 58  2  0  0  0
 57130  1  0  0  0
 58131  1  0  0  0
 59 60  1  0  0  0
 59 61  1  0  0  0
 59 62  1  0  0  0
 60132  1  0  0  0
 60133  1  0  0  0
 60134  1  0  0  0
 61135  1  0  0  0
 61136  1  0  0  0
 61137  1  0  0  0
 62138  1  0  0  0
 62139  1  0  0  0
 62140  1  0  0  0
 63 65  1  0  0  0
 63141  1  0  0  0
 63142  1  0  0  0
 63143  1  0  0  0
 64144  1  0  0  0
 65145  1  0  0  0
 68 78  1  0  0  0
 71 73  2  0  0  0
 71 75  1  0  0  0
 71146  1  0  0  0
 72 74  1  0  0  0
 72 75  2  0  0  0
 72147  1  0  0  0
 73 76  1  0  0  0
 73148  1  0  0  0
 74 76  2  0  0  0
 74149  1  0  0  0
 75 79  1  0  0  0
 76 84  1  0  0  0
 77 78  2  0  0  0
 77 80  1  0  0  0
 77 81  1  0  0  0
 78150  1  0  0  0
 79 85  1  0  0  0
 79 86  2  0  0  0
 80 82  1  0  0  0
 80151  1  0  0  0
 80152  1  0  0  0
 81 83  1  0  0  0
 81153  1  0  0  0
 81154  1  0  0  0
 82 84  1  0  0  0
 82155  1  0  0  0
 82156  1  0  0  0
 83 84  1  0  0  0
 83157  1  0  0  0
 83158  1  0  0  0
 85159  1  0  0  0
M  ISO  4   1 100  68 101  78 101  85 100
M  END
> <chiral flag>
0

> <version>
0

> <s_m_source_file>
/data/baiqing/PycharmProjects/Reinvent-master-3.2/result/LINK_invent/BTK/process_docking_weight1_custom_product_contain_oxygen_bond_distance_aromatic_linkinvent_7_9_3/rearranged_h_0092.sdf

> <i_m_source_file_index>
22

> <r_mmod_Potential_Energy-OPLS-2005>
-61.5432167053223

> <r_mmod_Stretch_Energy-OPLS-2005>
34.8485565185547

> <r_mmod_Bend_Energy-OPLS-2005>
104.137817382812

> <r_mmod_Torsional_Energy-OPLS-2005>
277.81884765625

> <r_mmod_Improper_Torsional_Energy-OPLS-2005>
5.79231739044189

> <r_mmod_Van_der_Waal_Energy-OPLS-2005>
181.181884765625

> <r_mmod_Electrostatic_Energy-OPLS-2005>
-446.921569824219

> <r_mmod_Solvation_Energy-OPLS-2005>
-230.878509521484

> <b_mmod_Minimization_Converged-OPLS-2005>
0

> <r_mmod_RMS_Derivative-OPLS-2005>
1.80757772922516

$$$$
22
                    3D
 Structure written by MMmdl.
152160  0  0  1  0            999 V2000
  -30.5594  -15.1347   20.3575 C   0  0  0  0  0  0
  -30.4127  -12.7068   19.5547 C   0  0  0  0  0  0
  -29.5309  -12.5551   18.2939 C   0  0  0  0  0  0
  -28.0703  -12.3092   18.7010 C   0  0  0  0  0  0
  -27.6088  -13.2814   19.8159 C   0  0  2  0  0  0
  -28.6327  -13.4484   20.9575 C   0  0  0  0  0  0
  -25.2372  -13.8273   20.5735 C   0  0  0  0  0  0
  -24.1741  -13.0456   20.9282 C   0  0  0  0  0  0
  -24.6401  -11.6957   20.8767 C   0  0  0  0  0  0
  -23.9093  -10.4306   21.0411 C   0  0  0  0  0  0
  -24.3636   -9.4217   21.9175 C   0  0  0  0  0  0
  -23.6321   -8.2249   22.0744 C   0  0  0  0  0  0
  -22.4302   -8.0289   21.3541 C   0  0  0  0  0  0
  -21.9928   -9.0262   20.4642 C   0  0  0  0  0  0
  -22.7258  -10.2137   20.3051 C   0  0  0  0  0  0
  -21.6846   -6.0741   22.5281 C   0  0  0  0  0  0
  -21.4026   -6.5645   23.8221 C   0  0  0  0  0  0
  -21.3667   -5.6784   24.9176 C   0  0  0  0  0  0
  -21.6047   -4.3054   24.7217 C   0  0  0  0  0  0
  -21.8818   -3.8149   23.4338 C   0  0  0  0  0  0
  -21.9193   -4.6965   22.3396 C   0  0  0  0  0  0
  -22.7747  -13.5210   21.1906 C   0  0  0  0  0  0
  -22.1664   -4.2160   21.0970 F   0  0  0  0  0  0
  -21.5621   -3.4521   25.7727 F   0  0  0  0  0  0
  -29.9036  -13.8786   20.3607 N   0  0  0  0  0  0
  -26.2791  -12.9565   20.3153 N   0  0  0  0  0  0
  -25.9335  -11.6664   20.5688 N   0  0  0  0  0  0
  -22.0415  -12.8201   22.0469 N   0  0  0  0  0  0
  -25.3981  -15.2010   20.4118 N   0  0  0  0  0  0
  -31.7724  -15.0026   20.1467 O   0  0  0  0  0  0
  -21.6660   -6.8886   21.4244 O   0  0  0  0  0  0
  -22.3425  -14.5497   20.6743 O   0  0  0  0  0  0
  -24.6562  -31.8313   23.1767 C   0  0  0  0  0  0
  -25.9291  -32.4604   23.8179 C   0  0  1  0  0  0
  -27.2084  -27.0126   20.1703 C   0  0  0  0  0  0
  -25.5991  -33.8417   24.2081 N   0  0  0  0  0  0
  -23.4636  -30.4520   21.5227 C   0  0  2  0  0  0
  -24.9119  -28.8538   20.1099 C   0  0  0  0  0  0
  -22.7614  -29.4512   22.4768 C   0  0  0  0  0  0
  -18.0312  -28.1425   22.8457 C   0  0  0  0  0  0
  -24.1499  -36.7218   23.2623 C   0  0  0  0  0  0
  -26.0290  -30.6699   21.3886 C   0  0  0  0  0  0
  -26.0967  -29.2677   20.7308 C   0  0  0  0  0  0
  -27.2441  -28.3686   20.7348 C   0  0  0  0  0  0
  -25.9917  -26.7252   19.5124 C   0  0  0  0  0  0
  -24.8779  -27.5983   19.4842 C   0  0  0  0  0  0
  -23.6982  -29.7768   20.1441 C   0  0  0  0  0  0
  -25.4119  -36.2945   24.0280 C   0  0  1  0  0  0
  -20.5936  -28.3768   23.1196 C   0  0  2  0  0  0
  -20.6807  -26.9461   22.5403 C   0  0  0  0  0  0
  -19.5781  -26.6392   21.5224 C   0  0  0  0  0  0
  -18.1957  -26.7954   22.1622 C   0  0  0  0  0  0
  -19.1571  -28.8914   23.2810 C   0  0  0  0  0  0
  -18.9482  -30.1502   23.8849 C   0  0  0  0  0  0
  -17.6482  -30.6615   24.0565 C   0  0  0  0  0  0
  -25.9102  -34.9345   23.4980 C   0  0  0  0  0  0
  -16.5369  -29.9115   23.6343 C   0  0  0  0  0  0
  -16.7296  -28.6539   23.0344 C   0  0  0  0  0  0
  -26.4586  -31.6527   25.0681 C   0  0  0  0  0  0
  -25.3751  -31.3789   26.1371 C   0  0  0  0  0  0
  -27.0457  -30.2882   24.6378 C   0  0  0  0  0  0
  -27.6057  -32.4329   25.7517 C   0  0  0  0  0  0
  -27.5590  -37.1703   24.8405 C   0  0  0  0  0  0
  -21.4296  -29.3060   22.3529 N   0  0  0  0  0  0
  -26.4219  -37.3717   23.9468 N   0  0  0  0  0  0
  -24.7366  -31.0084   22.0834 N   0  0  0  0  0  0
  -23.4219  -28.8047   23.2936 O   0  0  0  0  0  0
  -28.2278  -25.9535   20.2501 O   0  0  0  0  0  0
  -26.5690  -34.8888   22.4567 O   0  0  0  0  0  0
  -23.5654  -32.1227   23.6946 O   0  0  0  0  0  0
  -29.9659  -16.6410   20.3628 C   0  0  0  0  0  0
  -30.6060  -17.7066   19.7555 C   0  0  0  0  0  0
  -28.4734  -18.6051   21.0752 C   0  0  0  0  0  0
  -30.2223  -19.2612   19.6557 C   0  0  0  0  0  0
  -28.8813  -22.9039   20.3766 C   0  0  0  0  0  0
  -28.3264  -21.2426   20.3080 C   0  0  0  0  0  0
  -27.9455  -24.3718   20.0886 C   0  0  0  0  0  0
  -29.0449  -19.7467   20.4642 N   0  0  0  0  0  0
  -28.8527  -17.2332   21.0318 N   0  3  0  0  0  0
  -27.3903  -18.8443   21.8252 N   0  0  0  0  0  0
  -31.7714  -17.5566   19.1046 O   0  0  0  0  0  0
  -31.4531  -12.8181   19.2500 H   0  0  0  0  0  0
  -30.3929  -11.7895   20.1457 H   0  0  0  0  0  0
  -29.8927  -11.7374   17.6674 H   0  0  0  0  0  0
  -29.5987  -13.4625   17.6928 H   0  0  0  0  0  0
  -28.0011  -11.2820   19.0616 H   0  0  0  0  0  0
  -27.4095  -12.3729   17.8353 H   0  0  0  0  0  0
  -27.5317  -14.2527   19.3246 H   0  0  0  0  0  0
  -28.7506  -12.5218   21.5237 H   0  0  0  0  0  0
  -28.2890  -14.2021   21.6655 H   0  0  0  0  0  0
  -25.2772   -9.5707   22.4762 H   0  0  0  0  0  0
  -24.0030   -7.4626   22.7454 H   0  0  0  0  0  0
  -21.0861   -8.8777   19.8949 H   0  0  0  0  0  0
  -22.3713  -10.9670   19.6165 H   0  0  0  0  0  0
  -21.2043   -7.6154   23.9736 H   0  0  0  0  0  0
  -21.1478   -6.0509   25.9078 H   0  0  0  0  0  0
  -22.0597   -2.7617   23.2824 H   0  0  0  0  0  0
  -22.4030  -11.9869   22.4854 H   0  0  0  0  0  0
  -21.1014  -13.1209   22.2663 H   0  0  0  0  0  0
  -24.5934  -15.8167   20.4471 H   0  0  0  0  0  0
  -26.1803  -15.6046   19.9149 H   0  0  0  0  0  0
  -26.7347  -32.5171   23.0891 H   0  0  0  0  0  0
  -25.0122  -33.9499   25.0214 H   0  0  0  0  0  0
  -22.7735  -31.2820   21.3600 H   0  0  0  0  0  0
  -23.3782  -35.9517   23.3112 H   0  0  0  0  0  0
  -24.3633  -36.9044   22.2080 H   0  0  0  0  0  0
  -23.7225  -37.6336   23.6799 H   0  0  0  0  0  0
  -26.1965  -31.4182   20.6129 H   0  0  0  0  0  0
  -26.8934  -30.7233   22.0382 H   0  0  0  0  0  0
  -28.1461  -28.6863   21.2379 H   0  0  0  0  0  0
  -25.8633  -25.7622   19.0410 H   0  0  0  0  0  0
  -23.9694  -27.2737   18.9964 H   0  0  0  0  0  0
  -23.8550  -30.5504   19.3902 H   0  0  0  0  0  0
  -22.8076  -29.2351   19.8207 H   0  0  0  0  0  0
  -25.1309  -36.1677   25.0756 H   0  0  0  0  0  0
  -21.0031  -28.3384   24.1319 H   0  0  0  0  0  0
  -20.5727  -26.2393   23.3640 H   0  0  0  0  0  0
  -21.6670  -26.7473   22.1193 H   0  0  0  0  0  0
  -19.6951  -25.6290   21.1292 H   0  0  0  0  0  0
  -19.6726  -27.3172   20.6734 H   0  0  0  0  0  0
  -17.4235  -26.6671   21.4023 H   0  0  0  0  0  0
  -18.0347  -26.0138   22.9060 H   0  0  0  0  0  0
  -19.7960  -30.7325   24.2203 H   0  0  0  0  0  0
  -17.5044  -31.6293   24.5178 H   0  0  0  0  0  0
  -15.5372  -30.3011   23.7717 H   0  0  0  0  0  0
  -15.8687  -28.0875   22.7060 H   0  0  0  0  0  0
  -24.5872  -30.7211   25.7699 H   0  0  0  0  0  0
  -24.9047  -32.3023   26.4753 H   0  0  0  0  0  0
  -25.8022  -30.8966   27.0175 H   0  0  0  0  0  0
  -26.3103  -29.6565   24.1390 H   0  0  0  0  0  0
  -27.3989  -29.7243   25.5027 H   0  0  0  0  0  0
  -27.9052  -30.4024   23.9768 H   0  0  0  0  0  0
  -27.2557  -33.3607   26.2058 H   0  0  0  0  0  0
  -28.3935  -32.6934   25.0435 H   0  0  0  0  0  0
  -28.0670  -31.8497   26.5503 H   0  0  0  0  0  0
  -28.2374  -38.0217   24.7732 H   0  0  0  0  0  0
  -28.1304  -36.2773   24.5840 H   0  0  0  0  0  0
  -27.2365  -37.0858   25.8793 H   0  0  0  0  0  0
  -20.9522  -29.8772   21.6694 H   0  0  0  0  0  0
  -26.0025  -38.2698   24.1696 H   0  0  0  0  0  0
  -30.0342  -19.4966   18.6069 H   0  0  0  0  0  0
  -31.0917  -19.8495   19.9504 H   0  0  0  0  0  0
  -29.7547  -22.9633   19.7243 H   0  0  0  0  0  0
  -29.2975  -23.0152   21.3778 H   0  0  0  0  0  0
  -27.7514  -21.1603   19.3865 H   0  0  0  0  0  0
  -27.5608  -21.2365   21.0824 H   0  0  0  0  0  0
  -27.0137  -24.2184   20.6335 H   0  0  0  0  0  0
  -27.6582  -24.2808   19.0402 H   0  0  0  0  0  0
  -28.2428  -16.6603   21.5913 H   0  0  0  0  0  0
  -27.1034  -19.7955   22.0084 H   0  0  0  0  0  0
  -26.8789  -18.1194   22.3096 H   0  0  0  0  0  0
  -32.0606  -16.6583   19.2442 H   0  0  0  0  0  0
  1 25  1  0  0  0
  1 30  2  0  0  0
  1 71  1  0  0  0
  2  3  1  0  0  0
  2 25  1  0  0  0
  2 82  1  0  0  0
  2 83  1  0  0  0
  3  4  1  0  0  0
  3 84  1  0  0  0
  3 85  1  0  0  0
  4  5  1  0  0  0
  4 86  1  0  0  0
  4 87  1  0  0  0
  5  6  1  0  0  0
  5 26  1  0  0  0
  5 88  1  0  0  0
  6 25  1  0  0  0
  6 89  1  0  0  0
  6 90  1  0  0  0
  7  8  2  0  0  0
  7 26  1  0  0  0
  7 29  1  0  0  0
  8  9  1  0  0  0
  8 22  1  0  0  0
  9 10  1  0  0  0
  9 27  2  0  0  0
 10 11  2  0  0  0
 10 15  1  0  0  0
 11 12  1  0  0  0
 11 91  1  0  0  0
 12 13  2  0  0  0
 12 92  1  0  0  0
 13 14  1  0  0  0
 13 31  1  0  0  0
 14 15  2  0  0  0
 14 93  1  0  0  0
 15 94  1  0  0  0
 16 17  2  0  0  0
 16 21  1  0  0  0
 16 31  1  0  0  0
 17 18  1  0  0  0
 17 95  1  0  0  0
 18 19  2  0  0  0
 18 96  1  0  0  0
 19 20  1  0  0  0
 19 24  1  0  0  0
 20 21  2  0  0  0
 20 97  1  0  0  0
 21 23  1  0  0  0
 22 28  1  0  0  0
 22 32  2  0  0  0
 26 27  1  0  0  0
 28 98  1  0  0  0
 28 99  1  0  0  0
 29100  1  0  0  0
 29101  1  0  0  0
 33 34  1  0  0  0
 33 66  1  0  0  0
 33 70  2  0  0  0
 34 36  1  0  0  0
 34 59  1  0  0  0
 34102  1  0  0  0
 35 44  2  0  0  0
 35 45  1  0  0  0
 35 68  1  0  0  0
 36 56  1  0  0  0
 36103  1  0  0  0
 37 39  1  0  0  0
 37 47  1  0  0  0
 37 66  1  0  0  0
 37104  1  0  0  0
 38 43  2  0  0  0
 38 46  1  0  0  0
 38 47  1  0  0  0
 39 64  1  0  0  0
 39 67  2  0  0  0
 40 52  1  0  0  0
 40 53  2  0  0  0
 40 58  1  0  0  0
 41105  1  0  0  0
 41106  1  0  0  0
 41107  1  0  0  0
 41 48  1  0  0  0
 42 43  1  0  0  0
 42 66  1  0  0  0
 42108  1  0  0  0
 42109  1  0  0  0
 43 44  1  0  0  0
 44110  1  0  0  0
 45 46  2  0  0  0
 45111  1  0  0  0
 46112  1  0  0  0
 47113  1  0  0  0
 47114  1  0  0  0
 48 56  1  0  0  0
 48 65  1  0  0  0
 48115  1  0  0  0
 49 50  1  0  0  0
 49 53  1  0  0  0
 49 64  1  0  0  0
 49116  1  0  0  0
 50 51  1  0  0  0
 50117  1  0  0  0
 50118  1  0  0  0
 51 52  1  0  0  0
 51119  1  0  0  0
 51120  1  0  0  0
 52121  1  0  0  0
 52122  1  0  0  0
 53 54  1  0  0  0
 54 55  2  0  0  0
 54123  1  0  0  0
 55 57  1  0  0  0
 55124  1  0  0  0
 56 69  2  0  0  0
 57 58  2  0  0  0
 57125  1  0  0  0
 58126  1  0  0  0
 59 60  1  0  0  0
 59 61  1  0  0  0
 59 62  1  0  0  0
 60127  1  0  0  0
 60128  1  0  0  0
 60129  1  0  0  0
 61130  1  0  0  0
 61131  1  0  0  0
 61132  1  0  0  0
 62133  1  0  0  0
 62134  1  0  0  0
 62135  1  0  0  0
 63 65  1  0  0  0
 63136  1  0  0  0
 63137  1  0  0  0
 63138  1  0  0  0
 64139  1  0  0  0
 65140  1  0  0  0
 68 77  1  0  0  0
 71 72  2  0  0  0
 71 79  1  0  0  0
 72 74  1  0  0  0
 72 81  1  0  0  0
 73 78  1  0  0  0
 73 79  2  0  0  0
 73 80  1  0  0  0
 74 78  1  0  0  0
 74141  1  0  0  0
 74142  1  0  0  0
 75 76  1  0  0  0
 75 77  1  0  0  0
 75143  1  0  0  0
 75144  1  0  0  0
 76 78  1  0  0  0
 76145  1  0  0  0
 76146  1  0  0  0
 77147  1  0  0  0
 77148  1  0  0  0
 79149  1  0  0  0
 80150  1  0  0  0
 80151  1  0  0  0
 81152  1  0  0  0
M  CHG  1  79   1
M  ISO  4   1 100  68 101  71 100  77 101
M  END
> <chiral flag>
0

> <version>
0

> <s_m_source_file>
/data/baiqing/PycharmProjects/Reinvent-master-3.2/result/LINK_invent/BTK/process_docking_weight1_custom_product_contain_oxygen_bond_distance_aromatic_linkinvent_7_9_3/rearranged_h_0092.sdf

> <i_m_source_file_index>
23

> <r_mmod_Potential_Energy-OPLS-2005>
824.378967285156

> <r_mmod_Stretch_Energy-OPLS-2005>
425.439025878906

> <r_mmod_Bend_Energy-OPLS-2005>
424.650573730469

> <r_mmod_Torsional_Energy-OPLS-2005>
195.078155517578

> <r_mmod_Improper_Torsional_Energy-OPLS-2005>
6.7266731262207

> <r_mmod_Van_der_Waal_Energy-OPLS-2005>
124.227783203125

> <r_mmod_Electrostatic_Energy-OPLS-2005>
-237.55632019043

> <r_mmod_Solvation_Energy-OPLS-2005>
-446.193481445312

> <b_mmod_Minimization_Converged-OPLS-2005>
0

> <r_mmod_RMS_Derivative-OPLS-2005>
3.49748587608337

$$$$
23
                    3D
 Structure written by MMmdl.
149157  0  0  1  0            999 V2000
  -30.5038  -15.0128   20.4193 C   0  0  0  0  0  0
  -30.4504  -12.6276   19.5084 C   0  0  0  0  0  0
  -29.5344  -12.5499   18.2641 C   0  0  0  0  0  0
  -28.0723  -12.3140   18.6849 C   0  0  0  0  0  0
  -27.6360  -13.2483   19.8437 C   0  0  2  0  0  0
  -28.6776  -13.2870   20.9818 C   0  0  0  0  0  0
  -25.2472  -13.8223   20.5706 C   0  0  0  0  0  0
  -24.1800  -13.0450   20.9242 C   0  0  0  0  0  0
  -24.6410  -11.6928   20.8768 C   0  0  0  0  0  0
  -23.9077  -10.4312   21.0419 C   0  0  0  0  0  0
  -24.3623   -9.4215   21.9185 C   0  0  0  0  0  0
  -23.6299   -8.2251   22.0748 C   0  0  0  0  0  0
  -22.4276   -8.0286   21.3543 C   0  0  0  0  0  0
  -21.9922   -9.0271   20.4642 C   0  0  0  0  0  0
  -22.7256  -10.2151   20.3061 C   0  0  0  0  0  0
  -21.6858   -6.0736   22.5286 C   0  0  0  0  0  0
  -21.4021   -6.5639   23.8219 C   0  0  0  0  0  0
  -21.3668   -5.6787   24.9182 C   0  0  0  0  0  0
  -21.6039   -4.3048   24.7230 C   0  0  0  0  0  0
  -21.8811   -3.8142   23.4353 C   0  0  0  0  0  0
  -21.9192   -4.6962   22.3413 C   0  0  0  0  0  0
  -22.7818  -13.5236   21.1913 C   0  0  0  0  0  0
  -22.1649   -4.2144   21.0990 F   0  0  0  0  0  0
  -21.5633   -3.4529   25.7748 F   0  0  0  0  0  0
  -29.9460  -13.7274   20.3858 N   0  0  0  0  0  0
  -26.2915  -12.9457   20.3263 N   0  0  0  0  0  0
  -25.9344  -11.6566   20.5729 N   0  0  0  0  0  0
  -22.0458  -12.8208   22.0445 N   0  0  0  0  0  0
  -25.4116  -15.1961   20.4114 N   0  0  0  0  0  0
  -31.7028  -15.1007   20.1260 O   0  0  0  0  0  0
  -21.6634   -6.8885   21.4251 O   0  0  0  0  0  0
  -22.3528  -14.5581   20.6792 O   0  0  0  0  0  0
  -24.6465  -31.8422   23.1849 C   0  0  0  0  0  0
  -25.9216  -32.4676   23.8269 C   0  0  1  0  0  0
  -27.2278  -27.1018   20.1679 C   0  0  0  0  0  0
  -25.5965  -33.8495   24.2182 N   0  0  0  0  0  0
  -23.4554  -30.4551   21.5305 C   0  0  2  0  0  0
  -24.9118  -28.8736   20.1157 C   0  0  0  0  0  0
  -22.7581  -29.4511   22.4840 C   0  0  0  0  0  0
  -18.0312  -28.1404   22.8461 C   0  0  0  0  0  0
  -24.1495  -36.7253   23.2644 C   0  0  0  0  0  0
  -26.0120  -30.7040   21.3891 C   0  0  0  0  0  0
  -26.0902  -29.3071   20.7388 C   0  0  0  0  0  0
  -27.2528  -28.4374   20.7511 C   0  0  0  0  0  0
  -26.0275  -26.7792   19.5014 C   0  0  0  0  0  0
  -24.8928  -27.6201   19.4847 C   0  0  0  0  0  0
  -23.6861  -29.7782   20.1525 C   0  0  0  0  0  0
  -25.4125  -36.3018   24.0314 C   0  0  1  0  0  0
  -20.5924  -28.3738   23.1225 C   0  0  2  0  0  0
  -20.6807  -26.9434   22.5403 C   0  0  0  0  0  0
  -19.5792  -26.6378   21.5218 C   0  0  0  0  0  0
  -18.1964  -26.7942   22.1617 C   0  0  0  0  0  0
  -19.1563  -28.8892   23.2829 C   0  0  0  0  0  0
  -18.9482  -30.1491   23.8852 C   0  0  0  0  0  0
  -17.6473  -30.6588   24.0552 C   0  0  0  0  0  0
  -25.9080  -34.9400   23.5047 C   0  0  0  0  0  0
  -16.5367  -29.9069   23.6331 C   0  0  0  0  0  0
  -16.7292  -28.6492   23.0346 C   0  0  0  0  0  0
  -26.4523  -31.6552   25.0718 C   0  0  0  0  0  0
  -25.3692  -31.3771   26.1395 C   0  0  0  0  0  0
  -27.0398  -30.2950   24.6325 C   0  0  0  0  0  0
  -27.6049  -32.4334   25.7510 C   0  0  0  0  0  0
  -27.5566  -37.1789   24.8474 C   0  0  0  0  0  0
  -21.4264  -29.3047   22.3586 N   0  0  0  0  0  0
  -26.4291  -37.3726   23.9389 N   0  0  0  0  0  0
  -24.7238  -31.0240   22.0890 N   0  0  0  0  0  0
  -23.4209  -28.8058   23.3002 O   0  0  0  0  0  0
  -28.2186  -26.0341   20.2143 O   0  0  0  0  0  0
  -26.5674  -34.8906   22.4624 O   0  0  0  0  0  0
  -23.5573  -32.1321   23.7024 O   0  0  0  0  0  0
  -29.7509  -20.1257   21.4425 C   0  0  0  0  0  0
  -29.9604  -18.6696   21.5309 C   0  0  0  0  0  0
  -29.0093  -19.8548   19.2416 C   0  0  0  0  0  0
  -29.2448  -20.8296   20.2823 C   0  0  0  0  0  0
  -29.7102  -17.7040   20.4801 C   0  0  0  0  0  0
  -29.1994  -18.4051   19.3305 C   0  0  0  0  0  0
  -29.0881  -22.4418   20.0353 C   0  0  0  0  0  0
  -28.0179  -24.8726   21.0520 C   0  0  0  0  0  0
  -29.6686  -16.1550   20.6365 N   0  0  0  0  0  0
  -28.4119  -23.4724   20.9492 N   0  0  0  0  0  0
  -27.3442  -25.2192   22.1673 N   0  3  0  0  0  0
  -29.5074  -22.8743   18.9552 O   0  0  0  0  0  0
  -28.8368  -17.6615   18.2580 F   0  0  0  0  0  0
  -31.4844  -12.7991   19.2008 H   0  0  0  0  0  0
  -30.4479  -11.6784   20.0484 H   0  0  0  0  0  0
  -29.8706  -11.7559   17.5971 H   0  0  0  0  0  0
  -29.6037  -13.4789   17.6974 H   0  0  0  0  0  0
  -27.9947  -11.2741   19.0046 H   0  0  0  0  0  0
  -27.4020  -12.4291   17.8329 H   0  0  0  0  0  0
  -27.5943  -14.2473   19.4100 H   0  0  0  0  0  0
  -28.7863  -12.3115   21.4523 H   0  0  0  0  0  0
  -28.3653  -13.9751   21.7669 H   0  0  0  0  0  0
  -25.2771   -9.5679   22.4753 H   0  0  0  0  0  0
  -24.0000   -7.4644   22.7471 H   0  0  0  0  0  0
  -21.0853   -8.8807   19.8942 H   0  0  0  0  0  0
  -22.3739  -10.9687   19.6158 H   0  0  0  0  0  0
  -21.2005   -7.6139   23.9744 H   0  0  0  0  0  0
  -21.1505   -6.0502   25.9096 H   0  0  0  0  0  0
  -22.0583   -2.7598   23.2858 H   0  0  0  0  0  0
  -22.4046  -11.9827   22.4789 H   0  0  0  0  0  0
  -21.1079  -13.1228   22.2674 H   0  0  0  0  0  0
  -24.6413  -15.8438   20.5414 H   0  0  0  0  0  0
  -26.2365  -15.6370   20.0260 H   0  0  0  0  0  0
  -26.7282  -32.5289   23.1004 H   0  0  0  0  0  0
  -25.0066  -33.9606   25.0304 H   0  0  0  0  0  0
  -22.7629  -31.2826   21.3693 H   0  0  0  0  0  0
  -23.3747  -35.9594   23.3323 H   0  0  0  0  0  0
  -24.3576  -36.8874   22.2052 H   0  0  0  0  0  0
  -23.7270  -37.6466   23.6679 H   0  0  0  0  0  0
  -26.1714  -31.4532   20.6127 H   0  0  0  0  0  0
  -26.8820  -30.7596   22.0290 H   0  0  0  0  0  0
  -28.1540  -28.7617   21.2540 H   0  0  0  0  0  0
  -25.9446  -25.8164   19.0175 H   0  0  0  0  0  0
  -23.9901  -27.2740   18.9963 H   0  0  0  0  0  0
  -23.8194  -30.5509   19.3956 H   0  0  0  0  0  0
  -22.8021  -29.2194   19.8391 H   0  0  0  0  0  0
  -25.1314  -36.1846   25.0811 H   0  0  0  0  0  0
  -21.0042  -28.3354   24.1339 H   0  0  0  0  0  0
  -20.5711  -26.2348   23.3613 H   0  0  0  0  0  0
  -21.6667  -26.7397   22.1191 H   0  0  0  0  0  0
  -19.6933  -25.6278   21.1271 H   0  0  0  0  0  0
  -19.6746  -27.3154   20.6724 H   0  0  0  0  0  0
  -17.4239  -26.6680   21.4015 H   0  0  0  0  0  0
  -18.0338  -26.0120   22.9046 H   0  0  0  0  0  0
  -19.7949  -30.7336   24.2204 H   0  0  0  0  0  0
  -17.5003  -31.6262   24.5161 H   0  0  0  0  0  0
  -15.5357  -30.2943   23.7671 H   0  0  0  0  0  0
  -15.8704  -28.0778   22.7092 H   0  0  0  0  0  0
  -24.5882  -30.7113   25.7714 H   0  0  0  0  0  0
  -24.8858  -32.2951   26.4746 H   0  0  0  0  0  0
  -25.7943  -30.8999   27.0228 H   0  0  0  0  0  0
  -26.3023  -29.6676   24.1307 H   0  0  0  0  0  0
  -27.3970  -29.7260   25.4920 H   0  0  0  0  0  0
  -27.8954  -30.4196   23.9684 H   0  0  0  0  0  0
  -27.2640  -33.3665   26.2010 H   0  0  0  0  0  0
  -28.3888  -32.6841   25.0355 H   0  0  0  0  0  0
  -28.0670  -31.8509   26.5482 H   0  0  0  0  0  0
  -28.2600  -38.0063   24.7456 H   0  0  0  0  0  0
  -28.1044  -36.2592   24.6380 H   0  0  0  0  0  0
  -27.2292  -37.1532   25.8884 H   0  0  0  0  0  0
  -20.9480  -29.8760   21.6758 H   0  0  0  0  0  0
  -26.0166  -38.2811   24.1345 H   0  0  0  0  0  0
  -30.0103  -20.7082   22.3164 H   0  0  0  0  0  0
  -30.3163  -18.2851   22.4756 H   0  0  0  0  0  0
  -28.6372  -20.2378   18.3027 H   0  0  0  0  0  0
  -28.7307  -15.8371   20.8310 H   0  0  0  0  0  0
  -28.0851  -23.0428   21.7938 H   0  0  0  0  0  0
  -27.0408  -26.1762   22.2640 H   0  0  0  0  0  0
  -27.1243  -24.5878   22.9212 H   0  0  0  0  0  0
  1 25  1  0  0  0
  1 30  2  0  0  0
  1 79  1  0  0  0
  2  3  1  0  0  0
  2 25  1  0  0  0
  2 84  1  0  0  0
  2 85  1  0  0  0
  3  4  1  0  0  0
  3 86  1  0  0  0
  3 87  1  0  0  0
  4  5  1  0  0  0
  4 88  1  0  0  0
  4 89  1  0  0  0
  5  6  1  0  0  0
  5 26  1  0  0  0
  5 90  1  0  0  0
  6 25  1  0  0  0
  6 91  1  0  0  0
  6 92  1  0  0  0
  7  8  2  0  0  0
  7 26  1  0  0  0
  7 29  1  0  0  0
  8  9  1  0  0  0
  8 22  1  0  0  0
  9 10  1  0  0  0
  9 27  2  0  0  0
 10 11  2  0  0  0
 10 15  1  0  0  0
 11 12  1  0  0  0
 11 93  1  0  0  0
 12 13  2  0  0  0
 12 94  1  0  0  0
 13 14  1  0  0  0
 13 31  1  0  0  0
 14 15  2  0  0  0
 14 95  1  0  0  0
 15 96  1  0  0  0
 16 17  2  0  0  0
 16 21  1  0  0  0
 16 31  1  0  0  0
 17 18  1  0  0  0
 17 97  1  0  0  0
 18 19  2  0  0  0
 18 98  1  0  0  0
 19 20  1  0  0  0
 19 24  1  0  0  0
 20 21  2  0  0  0
 20 99  1  0  0  0
 21 23  1  0  0  0
 22 28  1  0  0  0
 22 32  2  0  0  0
 26 27  1  0  0  0
 28100  1  0  0  0
 28101  1  0  0  0
 29102  1  0  0  0
 29103  1  0  0  0
 33 34  1  0  0  0
 33 66  1  0  0  0
 33 70  2  0  0  0
 34 36  1  0  0  0
 34 59  1  0  0  0
 34104  1  0  0  0
 35 44  2  0  0  0
 35 45  1  0  0  0
 35 68  1  0  0  0
 36 56  1  0  0  0
 36105  1  0  0  0
 37 39  1  0  0  0
 37 47  1  0  0  0
 37 66  1  0  0  0
 37106  1  0  0  0
 38 43  2  0  0  0
 38 46  1  0  0  0
 38 47  1  0  0  0
 39 64  1  0  0  0
 39 67  2  0  0  0
 40 52  1  0  0  0
 40 53  2  0  0  0
 40 58  1  0  0  0
 41107  1  0  0  0
 41108  1  0  0  0
 41109  1  0  0  0
 41 48  1  0  0  0
 42 43  1  0  0  0
 42 66  1  0  0  0
 42110  1  0  0  0
 42111  1  0  0  0
 43 44  1  0  0  0
 44112  1  0  0  0
 45 46  2  0  0  0
 45113  1  0  0  0
 46114  1  0  0  0
 47115  1  0  0  0
 47116  1  0  0  0
 48 56  1  0  0  0
 48 65  1  0  0  0
 48117  1  0  0  0
 49 50  1  0  0  0
 49 53  1  0  0  0
 49 64  1  0  0  0
 49118  1  0  0  0
 50 51  1  0  0  0
 50119  1  0  0  0
 50120  1  0  0  0
 51 52  1  0  0  0
 51121  1  0  0  0
 51122  1  0  0  0
 52123  1  0  0  0
 52124  1  0  0  0
 53 54  1  0  0  0
 54 55  2  0  0  0
 54125  1  0  0  0
 55 57  1  0  0  0
 55126  1  0  0  0
 56 69  2  0  0  0
 57 58  2  0  0  0
 57127  1  0  0  0
 58128  1  0  0  0
 59 60  1  0  0  0
 59 61  1  0  0  0
 59 62  1  0  0  0
 60129  1  0  0  0
 60130  1  0  0  0
 60131  1  0  0  0
 61132  1  0  0  0
 61133  1  0  0  0
 61134  1  0  0  0
 62135  1  0  0  0
 62136  1  0  0  0
 62137  1  0  0  0
 63 65  1  0  0  0
 63138  1  0  0  0
 63139  1  0  0  0
 63140  1  0  0  0
 64141  1  0  0  0
 65142  1  0  0  0
 68 78  1  0  0  0
 71 72  2  0  0  0
 71 74  1  0  0  0
 71143  1  0  0  0
 72 75  1  0  0  0
 72144  1  0  0  0
 73 74  2  0  0  0
 73 76  1  0  0  0
 73145  1  0  0  0
 74 77  1  0  0  0
 75 76  2  0  0  0
 75 79  1  0  0  0
 76 83  1  0  0  0
 77 80  1  0  0  0
 77 82  2  0  0  0
 78 80  1  0  0  0
 78 81  2  0  0  0
 79146  1  0  0  0
 80147  1  0  0  0
 81148  1  0  0  0
 81149  1  0  0  0
M  CHG  1  81   1
M  ISO  4   1 100  68 101  78 101  79 100
M  END
> <chiral flag>
0

> <version>
0

> <s_m_source_file>
/data/baiqing/PycharmProjects/Reinvent-master-3.2/result/LINK_invent/BTK/process_docking_weight1_custom_product_contain_oxygen_bond_distance_aromatic_linkinvent_7_9_3/rearranged_h_0092.sdf

> <i_m_source_file_index>
24

> <r_mmod_Potential_Energy-OPLS-2005>
417.677490234375

> <r_mmod_Stretch_Energy-OPLS-2005>
267.221557617188

> <r_mmod_Bend_Energy-OPLS-2005>
351.049591064453

> <r_mmod_Torsional_Energy-OPLS-2005>
273.054473876953

> <r_mmod_Improper_Torsional_Energy-OPLS-2005>
6.85687017440796

> <r_mmod_Van_der_Waal_Energy-OPLS-2005>
128.90104675293

> <r_mmod_Electrostatic_Energy-OPLS-2005>
-341.089508056641

> <r_mmod_Solvation_Energy-OPLS-2005>
-510.924194335938

> <b_mmod_Minimization_Converged-OPLS-2005>
0

> <r_mmod_RMS_Derivative-OPLS-2005>
4.51610422134399

$$$$
24
                    3D
 Structure written by MMmdl.
158166  0  0  1  0            999 V2000
  -30.6373  -14.6897   20.3819 C   0  0  0  0  0  0
  -30.4420  -12.3861   19.4524 C   0  0  0  0  0  0
  -29.4974  -12.3469   18.2281 C   0  0  0  0  0  0
  -28.0129  -12.2828   18.6463 C   0  0  0  0  0  0
  -27.6389  -13.2023   19.8419 C   0  0  2  0  0  0
  -28.7016  -13.1637   20.9586 C   0  0  0  0  0  0
  -25.2555  -13.8141   20.5749 C   0  0  0  0  0  0
  -24.1807  -13.0424   20.9258 C   0  0  0  0  0  0
  -24.6358  -11.6895   20.8804 C   0  0  0  0  0  0
  -23.9011  -10.4288   21.0436 C   0  0  0  0  0  0
  -24.3562   -9.4197   21.9209 C   0  0  0  0  0  0
  -23.6261   -8.2230   22.0763 C   0  0  0  0  0  0
  -22.4258   -8.0261   21.3543 C   0  0  0  0  0  0
  -21.9881   -9.0237   20.4661 C   0  0  0  0  0  0
  -22.7188  -10.2128   20.3071 C   0  0  0  0  0  0
  -21.6848   -6.0708   22.5286 C   0  0  0  0  0  0
  -21.4025   -6.5633   23.8207 C   0  0  0  0  0  0
  -21.3667   -5.6801   24.9183 C   0  0  0  0  0  0
  -21.6036   -4.3058   24.7259 C   0  0  0  0  0  0
  -21.8817   -3.8135   23.4386 C   0  0  0  0  0  0
  -21.9197   -4.6938   22.3430 C   0  0  0  0  0  0
  -22.7838  -13.5234   21.1897 C   0  0  0  0  0  0
  -22.1660   -4.2104   21.1018 F   0  0  0  0  0  0
  -21.5616   -3.4554   25.7782 F   0  0  0  0  0  0
  -29.9935  -13.4760   20.3363 N   0  0  0  0  0  0
  -26.2942  -12.9279   20.3350 N   0  0  0  0  0  0
  -25.9277  -11.6465   20.5863 N   0  0  0  0  0  0
  -22.0442  -12.8220   22.0430 N   0  0  0  0  0  0
  -25.4291  -15.1851   20.4155 N   0  0  0  0  0  0
  -31.8694  -14.7363   20.3559 O   0  0  0  0  0  0
  -21.6637   -6.8850   21.4252 O   0  0  0  0  0  0
  -22.3536  -14.5519   20.6709 O   0  0  0  0  0  0
  -24.6274  -31.8606   23.2050 C   0  0  0  0  0  0
  -25.9116  -32.4781   23.8390 C   0  0  1  0  0  0
  -27.2194  -27.3258   20.1197 C   0  0  0  0  0  0
  -25.5931  -33.8583   24.2318 N   0  0  0  0  0  0
  -23.4209  -30.4859   21.5457 C   0  0  2  0  0  0
  -24.8679  -28.9471   20.1088 C   0  0  0  0  0  0
  -22.7474  -29.4620   22.4920 C   0  0  0  0  0  0
  -18.0279  -28.1358   22.8511 C   0  0  0  0  0  0
  -24.1488  -36.7302   23.2642 C   0  0  0  0  0  0
  -25.9645  -30.7960   21.3763 C   0  0  0  0  0  0
  -26.0366  -29.4249   20.7151 C   0  0  0  0  0  0
  -27.2173  -28.6265   20.7075 C   0  0  0  0  0  0
  -26.0301  -26.9059   19.4771 C   0  0  0  0  0  0
  -24.8658  -27.6929   19.4812 C   0  0  0  0  0  0
  -23.6369  -29.8261   20.1593 C   0  0  0  0  0  0
  -25.4105  -36.3085   24.0343 C   0  0  1  0  0  0
  -20.5883  -28.3686   23.1281 C   0  0  2  0  0  0
  -20.6746  -26.9400   22.5413 C   0  0  0  0  0  0
  -19.5719  -26.6368   21.5212 C   0  0  0  0  0  0
  -18.1903  -26.7907   22.1627 C   0  0  0  0  0  0
  -19.1535  -28.8837   23.2896 C   0  0  0  0  0  0
  -18.9453  -30.1434   23.8922 C   0  0  0  0  0  0
  -17.6450  -30.6569   24.0555 C   0  0  0  0  0  0
  -25.9035  -34.9453   23.5123 C   0  0  0  0  0  0
  -16.5346  -29.9074   23.6306 C   0  0  0  0  0  0
  -16.7265  -28.6474   23.0369 C   0  0  0  0  0  0
  -26.4495  -31.6579   25.0754 C   0  0  0  0  0  0
  -25.3730  -31.3725   26.1480 C   0  0  0  0  0  0
  -27.0329  -30.2987   24.6228 C   0  0  0  0  0  0
  -27.6045  -32.4320   25.7528 C   0  0  0  0  0  0
  -27.5584  -37.1796   24.8450 C   0  0  0  0  0  0
  -21.4180  -29.3062   22.3690 N   0  0  0  0  0  0
  -26.4281  -37.3779   23.9421 N   0  0  0  0  0  0
  -24.6900  -31.0629   22.0993 N   0  0  0  0  0  0
  -23.4202  -28.8135   23.2972 O   0  0  0  0  0  0
  -28.3268  -26.4686   20.1952 O   0  0  0  0  0  0
  -26.5608  -34.8918   22.4689 O   0  0  0  0  0  0
  -23.5431  -32.1401   23.7363 O   0  0  0  0  0  0
  -28.7193  -17.7948   20.8291 C   0  0  0  0  0  0
  -28.6391  -19.2162   20.9530 C   0  0  0  0  0  0
  -31.0690  -17.9666   20.3289 C   0  0  0  0  0  0
  -29.9222  -17.1365   20.4448 C   0  0  0  0  0  0
  -29.7693  -20.0510   20.7272 C   0  0  0  0  0  0
  -30.9968  -19.3824   20.4661 C   0  0  0  0  0  0
  -29.7102  -15.8100   18.5413 C   0  0  0  0  0  0
  -28.7871  -22.4437   20.5820 C   0  0  0  0  0  0
  -28.4775  -16.5334   17.9870 C   0  0  0  0  0  0
  -29.1587  -23.9807   20.6081 C   0  0  0  0  0  0
  -28.0661  -25.0139   20.0988 C   0  0  0  0  0  0
  -32.1650  -20.1252   20.2807 N   0  0  0  0  0  0
  -29.7721  -21.5133   20.7671 N   0  0  0  0  0  0
  -29.9206  -15.7758   19.8892 N   0  0  0  0  0  0
  -30.5322  -15.4054   17.7099 O   0  0  0  0  0  0
  -27.6122  -22.1158   20.4065 O   0  0  0  0  0  0
  -31.4743  -12.5238   19.1256 H   0  0  0  0  0  0
  -30.4204  -11.4353   19.9875 H   0  0  0  0  0  0
  -29.7346  -11.4680   17.6263 H   0  0  0  0  0  0
  -29.6585  -13.1833   17.5583 H   0  0  0  0  0  0
  -27.8105  -11.2454   18.9126 H   0  0  0  0  0  0
  -27.3710  -12.4991   17.7907 H   0  0  0  0  0  0
  -27.6164  -14.2114   19.4496 H   0  0  0  0  0  0
  -28.7372  -12.1872   21.4433 H   0  0  0  0  0  0
  -28.4625  -13.8955   21.7327 H   0  0  0  0  0  0
  -25.2691   -9.5671   22.4796 H   0  0  0  0  0  0
  -23.9967   -7.4625   22.7488 H   0  0  0  0  0  0
  -21.0799   -8.8753   19.8983 H   0  0  0  0  0  0
  -22.3638  -10.9663   19.6186 H   0  0  0  0  0  0
  -21.2027   -7.6139   23.9693 H   0  0  0  0  0  0
  -21.1489   -6.0548   25.9077 H   0  0  0  0  0  0
  -22.0590   -2.7593   23.2928 H   0  0  0  0  0  0
  -22.4037  -11.9881   22.4834 H   0  0  0  0  0  0
  -21.1044  -13.1229   22.2593 H   0  0  0  0  0  0
  -24.6679  -15.8418   20.5440 H   0  0  0  0  0  0
  -26.2869  -15.6287   20.1191 H   0  0  0  0  0  0
  -26.7200  -32.5453   23.1156 H   0  0  0  0  0  0
  -25.0060  -33.9738   25.0452 H   0  0  0  0  0  0
  -22.7151  -31.3066   21.4004 H   0  0  0  0  0  0
  -23.3752  -35.9621   23.3242 H   0  0  0  0  0  0
  -24.3586  -36.8990   22.2066 H   0  0  0  0  0  0
  -23.7242  -37.6492   23.6696 H   0  0  0  0  0  0
  -26.1002  -31.5649   20.6141 H   0  0  0  0  0  0
  -26.8453  -30.8397   22.0057 H   0  0  0  0  0  0
  -28.1168  -28.9833   21.1896 H   0  0  0  0  0  0
  -25.9700  -25.9512   18.9750 H   0  0  0  0  0  0
  -23.9701  -27.3246   19.0004 H   0  0  0  0  0  0
  -23.7606  -30.6063   19.4080 H   0  0  0  0  0  0
  -22.7578  -29.2581   19.8499 H   0  0  0  0  0  0
  -25.1275  -36.1935   25.0835 H   0  0  0  0  0  0
  -20.9980  -28.3252   24.1399 H   0  0  0  0  0  0
  -20.5605  -26.2303   23.3626 H   0  0  0  0  0  0
  -21.6619  -26.7368   22.1246 H   0  0  0  0  0  0
  -19.6868  -25.6270   21.1262 H   0  0  0  0  0  0
  -19.6648  -27.3168   20.6734 H   0  0  0  0  0  0
  -17.4167  -26.6703   21.4022 H   0  0  0  0  0  0
  -18.0264  -26.0028   22.9001 H   0  0  0  0  0  0
  -19.7918  -30.7247   24.2328 H   0  0  0  0  0  0
  -17.4987  -31.6251   24.5147 H   0  0  0  0  0  0
  -15.5343  -30.2986   23.7574 H   0  0  0  0  0  0
  -15.8666  -28.0777   22.7097 H   0  0  0  0  0  0
  -24.5911  -30.7059   25.7828 H   0  0  0  0  0  0
  -24.8913  -32.2894   26.4885 H   0  0  0  0  0  0
  -25.8069  -30.8937   27.0267 H   0  0  0  0  0  0
  -26.2919  -29.6754   24.1210 H   0  0  0  0  0  0
  -27.3955  -29.7227   25.4756 H   0  0  0  0  0  0
  -27.8817  -30.4250   23.9503 H   0  0  0  0  0  0
  -27.2644  -33.3619   26.2101 H   0  0  0  0  0  0
  -28.3852  -32.6894   25.0357 H   0  0  0  0  0  0
  -28.0707  -31.8456   26.5460 H   0  0  0  0  0  0
  -28.2551  -38.0136   24.7524 H   0  0  0  0  0  0
  -28.1133  -36.2666   24.6214 H   0  0  0  0  0  0
  -27.2314  -37.1382   25.8856 H   0  0  0  0  0  0
  -20.9328  -29.8879   21.7001 H   0  0  0  0  0  0
  -26.0154  -38.2852   24.1418 H   0  0  0  0  0  0
  -27.8086  -17.2238   20.9340 H   0  0  0  0  0  0
  -27.6819  -19.6578   21.1885 H   0  0  0  0  0  0
  -32.0044  -17.5145   20.0316 H   0  0  0  0  0  0
  -28.5634  -17.6138   18.0897 H   0  0  0  0  0  0
  -27.5661  -16.2090   18.4842 H   0  0  0  0  0  0
  -28.3666  -16.3159   16.9250 H   0  0  0  0  0  0
  -30.0690  -24.1198   20.0263 H   0  0  0  0  0  0
  -29.4198  -24.2322   21.6364 H   0  0  0  0  0  0
  -27.1444  -24.7902   20.6418 H   0  0  0  0  0  0
  -27.8701  -24.7844   19.0504 H   0  0  0  0  0  0
  -32.9618  -19.6263   19.8976 H   0  0  0  0  0  0
  -32.0807  -21.0446   19.8664 H   0  0  0  0  0  0
  -30.6985  -21.9020   20.8748 H   0  0  0  0  0  0
  1 25  1  0  0  0
  1 30  2  0  0  0
  1 84  1  0  0  0
  2  3  1  0  0  0
  2 25  1  0  0  0
  2 87  1  0  0  0
  2 88  1  0  0  0
  3  4  1  0  0  0
  3 89  1  0  0  0
  3 90  1  0  0  0
  4  5  1  0  0  0
  4 91  1  0  0  0
  4 92  1  0  0  0
  5  6  1  0  0  0
  5 26  1  0  0  0
  5 93  1  0  0  0
  6 25  1  0  0  0
  6 94  1  0  0  0
  6 95  1  0  0  0
  7  8  2  0  0  0
  7 26  1  0  0  0
  7 29  1  0  0  0
  8  9  1  0  0  0
  8 22  1  0  0  0
  9 10  1  0  0  0
  9 27  2  0  0  0
 10 11  2  0  0  0
 10 15  1  0  0  0
 11 12  1  0  0  0
 11 96  1  0  0  0
 12 13  2  0  0  0
 12 97  1  0  0  0
 13 14  1  0  0  0
 13 31  1  0  0  0
 14 15  2  0  0  0
 14 98  1  0  0  0
 15 99  1  0  0  0
 16 17  2  0  0  0
 16 21  1  0  0  0
 16 31  1  0  0  0
 17 18  1  0  0  0
 17100  1  0  0  0
 18 19  2  0  0  0
 18101  1  0  0  0
 19 20  1  0  0  0
 19 24  1  0  0  0
 20 21  2  0  0  0
 20102  1  0  0  0
 21 23  1  0  0  0
 22 28  1  0  0  0
 22 32  2  0  0  0
 26 27  1  0  0  0
 28103  1  0  0  0
 28104  1  0  0  0
 29105  1  0  0  0
 29106  1  0  0  0
 33 34  1  0  0  0
 33 66  1  0  0  0
 33 70  2  0  0  0
 34 36  1  0  0  0
 34 59  1  0  0  0
 34107  1  0  0  0
 35 44  2  0  0  0
 35 45  1  0  0  0
 35 68  1  0  0  0
 36 56  1  0  0  0
 36108  1  0  0  0
 37 39  1  0  0  0
 37 47  1  0  0  0
 37 66  1  0  0  0
 37109  1  0  0  0
 38 43  2  0  0  0
 38 46  1  0  0  0
 38 47  1  0  0  0
 39 64  1  0  0  0
 39 67  2  0  0  0
 40 52  1  0  0  0
 40 53  2  0  0  0
 40 58  1  0  0  0
 41110  1  0  0  0
 41111  1  0  0  0
 41112  1  0  0  0
 41 48  1  0  0  0
 42 43  1  0  0  0
 42 66  1  0  0  0
 42113  1  0  0  0
 42114  1  0  0  0
 43 44  1  0  0  0
 44115  1  0  0  0
 45 46  2  0  0  0
 45116  1  0  0  0
 46117  1  0  0  0
 47118  1  0  0  0
 47119  1  0  0  0
 48 56  1  0  0  0
 48 65  1  0  0  0
 48120  1  0  0  0
 49 50  1  0  0  0
 49 53  1  0  0  0
 49 64  1  0  0  0
 49121  1  0  0  0
 50 51  1  0  0  0
 50122  1  0  0  0
 50123  1  0  0  0
 51 52  1  0  0  0
 51124  1  0  0  0
 51125  1  0  0  0
 52126  1  0  0  0
 52127  1  0  0  0
 53 54  1  0  0  0
 54 55  2  0  0  0
 54128  1  0  0  0
 55 57  1  0  0  0
 55129  1  0  0  0
 56 69  2  0  0  0
 57 58  2  0  0  0
 57130  1  0  0  0
 58131  1  0  0  0
 59 60  1  0  0  0
 59 61  1  0  0  0
 59 62  1  0  0  0
 60132  1  0  0  0
 60133  1  0  0  0
 60134  1  0  0  0
 61135  1  0  0  0
 61136  1  0  0  0
 61137  1  0  0  0
 62138  1  0  0  0
 62139  1  0  0  0
 62140  1  0  0  0
 63 65  1  0  0  0
 63141  1  0  0  0
 63142  1  0  0  0
 63143  1  0  0  0
 64144  1  0  0  0
 65145  1  0  0  0
 68 81  1  0  0  0
 71 72  2  0  0  0
 71 74  1  0  0  0
 71146  1  0  0  0
 72 75  1  0  0  0
 72147  1  0  0  0
 73 74  2  0  0  0
 73 76  1  0  0  0
 73148  1  0  0  0
 74 84  1  0  0  0
 75 76  2  0  0  0
 75 83  1  0  0  0
 76 82  1  0  0  0
 77 79  1  0  0  0
 77 84  1  0  0  0
 77 85  2  0  0  0
 78 80  1  0  0  0
 78 83  1  0  0  0
 78 86  2  0  0  0
 79149  1  0  0  0
 79150  1  0  0  0
 79151  1  0  0  0
 80 81  1  0  0  0
 80152  1  0  0  0
 80153  1  0  0  0
 81154  1  0  0  0
 81155  1  0  0  0
 82156  1  0  0  0
 82157  1  0  0  0
 83158  1  0  0  0
M  ISO  4   1 100  68 101  81 101  84 100
M  END
> <chiral flag>
0

> <version>
0

> <s_m_source_file>
/data/baiqing/PycharmProjects/Reinvent-master-3.2/result/LINK_invent/BTK/process_docking_weight1_custom_product_contain_oxygen_bond_distance_aromatic_linkinvent_7_9_3/rearranged_h_0092.sdf

> <i_m_source_file_index>
25

> <r_mmod_Potential_Energy-OPLS-2005>
181.443893432617

> <r_mmod_Stretch_Energy-OPLS-2005>
81.6779479980469

> <r_mmod_Bend_Energy-OPLS-2005>
140.352737426758

> <r_mmod_Torsional_Energy-OPLS-2005>
374.990692138672

> <r_mmod_Improper_Torsional_Energy-OPLS-2005>
29.2967262268066

> <r_mmod_Van_der_Waal_Energy-OPLS-2005>
158.679763793945

> <r_mmod_Electrostatic_Energy-OPLS-2005>
-447.210021972656

> <r_mmod_Solvation_Energy-OPLS-2005>
-234.051071166992

> <b_mmod_Minimization_Converged-OPLS-2005>
0

> <r_mmod_RMS_Derivative-OPLS-2005>
2.76307439804077

$$$$
25
                    3D
 Structure written by MMmdl.
162171  0  0  1  0            999 V2000
  -30.7477  -14.5325   20.5157 C   0  0  0  0  0  0
  -30.4007  -12.3374   19.4368 C   0  0  0  0  0  0
  -29.4845  -12.4932   18.2078 C   0  0  0  0  0  0
  -28.0114  -12.3491   18.6315 C   0  0  0  0  0  0
  -27.6466  -13.2276   19.8577 C   0  0  2  0  0  0
  -28.6973  -13.1082   20.9857 C   0  0  0  0  0  0
  -25.2520  -13.8197   20.5718 C   0  0  0  0  0  0
  -24.1801  -13.0443   20.9201 C   0  0  0  0  0  0
  -24.6395  -11.6925   20.8755 C   0  0  0  0  0  0
  -23.9085  -10.4291   21.0410 C   0  0  0  0  0  0
  -24.3633   -9.4205   21.9185 C   0  0  0  0  0  0
  -23.6299   -8.2246   22.0758 C   0  0  0  0  0  0
  -22.4275   -8.0285   21.3563 C   0  0  0  0  0  0
  -21.9922   -9.0252   20.4657 C   0  0  0  0  0  0
  -22.7258  -10.2128   20.3063 C   0  0  0  0  0  0
  -21.6857   -6.0731   22.5278 C   0  0  0  0  0  0
  -21.4009   -6.5635   23.8209 C   0  0  0  0  0  0
  -21.3668   -5.6798   24.9175 C   0  0  0  0  0  0
  -21.6034   -4.3058   24.7228 C   0  0  0  0  0  0
  -21.8825   -3.8143   23.4354 C   0  0  0  0  0  0
  -21.9194   -4.6955   22.3404 C   0  0  0  0  0  0
  -22.7817  -13.5213   21.1849 C   0  0  0  0  0  0
  -22.1660   -4.2139   21.0985 F   0  0  0  0  0  0
  -21.5647   -3.4548   25.7749 F   0  0  0  0  0  0
  -30.0159  -13.3854   20.4004 N   0  0  0  0  0  0
  -26.2962  -12.9415   20.3345 N   0  0  0  0  0  0
  -25.9330  -11.6554   20.5805 N   0  0  0  0  0  0
  -22.0471  -12.8203   22.0426 N   0  0  0  0  0  0
  -25.4201  -15.1916   20.4123 N   0  0  0  0  0  0
  -31.9159  -14.5570   20.1250 O   0  0  0  0  0  0
  -21.6652   -6.8877   21.4245 O   0  0  0  0  0  0
  -22.3501  -14.5520   20.6694 O   0  0  0  0  0  0
  -24.6387  -31.8692   23.2139 C   0  0  0  0  0  0
  -25.9208  -32.4847   23.8461 C   0  0  1  0  0  0
  -27.2314  -27.3886   20.1158 C   0  0  0  0  0  0
  -25.5990  -33.8633   24.2379 N   0  0  0  0  0  0
  -23.4465  -30.4952   21.5685 C   0  0  2  0  0  0
  -24.8710  -28.9567   20.1149 C   0  0  0  0  0  0
  -22.7817  -29.4778   22.5228 C   0  0  0  0  0  0
  -17.9963  -28.1184   22.8707 C   0  0  0  0  0  0
  -24.1501  -36.7316   23.2632 C   0  0  0  0  0  0
  -25.9664  -30.8212   21.3727 C   0  0  0  0  0  0
  -26.0361  -29.4532   20.7156 C   0  0  0  0  0  0
  -27.2226  -28.6758   20.7167 C   0  0  0  0  0  0
  -26.0538  -26.9184   19.5027 C   0  0  0  0  0  0
  -24.8761  -27.6904   19.5042 C   0  0  0  0  0  0
  -23.6384  -29.8323   20.1772 C   0  0  0  0  0  0
  -25.4120  -36.3115   24.0338 C   0  0  1  0  0  0
  -20.4794  -28.4613   22.7776 C   0  0  2  0  0  0
  -20.6951  -26.9636   22.5337 C   0  0  0  0  0  0
  -19.5586  -26.4543   21.6196 C   0  0  0  0  0  0
  -18.1577  -26.7506   22.2015 C   0  0  0  0  0  0
  -19.1167  -28.8965   23.2506 C   0  0  0  0  0  0
  -18.9379  -30.1479   23.8757 C   0  0  0  0  0  0
  -17.6407  -30.6505   24.0805 C   0  0  0  0  0  0
  -25.9073  -34.9478   23.5130 C   0  0  0  0  0  0
  -16.5231  -29.8965   23.6759 C   0  0  0  0  0  0
  -16.7014  -28.6293   23.0892 C   0  0  0  0  0  0
  -26.4560  -31.6589   25.0781 C   0  0  0  0  0  0
  -25.3776  -31.3693   26.1478 C   0  0  0  0  0  0
  -27.0382  -30.3018   24.6170 C   0  0  0  0  0  0
  -27.6129  -32.4287   25.7575 C   0  0  0  0  0  0
  -27.5584  -37.1828   24.8467 C   0  0  0  0  0  0
  -21.4581  -29.4536   22.4142 N   0  0  0  0  0  0
  -26.4295  -37.3807   23.9415 N   0  0  0  0  0  0
  -24.7059  -31.0760   22.1091 N   0  0  0  0  0  0
  -23.4290  -28.7448   23.2701 O   0  0  0  0  0  0
  -28.3163  -26.5322   20.1504 O   0  0  0  0  0  0
  -26.5616  -34.8927   22.4679 O   0  0  0  0  0  0
  -23.5528  -32.1444   23.7457 O   0  0  0  0  0  0
  -29.3975  -18.6734   22.3092 C   0  0  0  0  0  0
  -28.8340  -19.9641   22.4060 C   0  0  0  0  0  0
  -29.1215  -20.2822   20.0319 C   0  0  0  0  0  0
  -29.8388  -18.1565   21.0731 C   0  0  0  0  0  0
  -28.6921  -20.8094   21.2738 C   0  0  0  0  0  0
  -29.6741  -18.9657   19.9113 C   0  0  0  0  0  0
  -28.6730  -24.5905   21.6641 C   0  0  0  0  0  0
  -28.7835  -24.2831   23.1091 C   0  0  0  0  0  0
  -28.5209  -25.9148   21.3690 C   0  0  0  0  0  0
  -30.6761  -16.8892   21.0622 C   0  0  0  0  0  0
  -28.6742  -23.3306   20.7452 C   0  0  0  0  0  0
  -27.9968  -23.0797   23.6398 C   0  0  0  0  0  0
  -27.2240  -22.3602   22.5184 C   0  0  0  0  0  0
  -29.6112  -19.0548   17.5103 C   0  0  0  0  0  0
  -28.0994  -22.1070   21.3749 N   0  0  0  0  0  0
  -30.0903  -15.6740   20.8669 N   0  0  0  0  0  0
  -29.4576  -24.9521   23.8995 O   0  0  0  0  0  0
  -31.8842  -17.0443   21.2766 O   0  0  0  0  0  0
  -30.0959  -18.4472   18.7029 O   0  0  0  0  0  0
  -31.4486  -12.3851   19.1355 H   0  0  0  0  0  0
  -30.2694  -11.3542   19.8884 H   0  0  0  0  0  0
  -29.7310  -11.7439   17.4534 H   0  0  0  0  0  0
  -29.6426  -13.4649   17.7370 H   0  0  0  0  0  0
  -27.8410  -11.2982   18.8696 H   0  0  0  0  0  0
  -27.3540  -12.5863   17.7944 H   0  0  0  0  0  0
  -27.6627  -14.2581   19.5063 H   0  0  0  0  0  0
  -28.6886  -12.1086   21.4205 H   0  0  0  0  0  0
  -28.4707  -13.7986   21.7987 H   0  0  0  0  0  0
  -25.2778   -9.5679   22.4771 H   0  0  0  0  0  0
  -24.0004   -7.4640   22.7479 H   0  0  0  0  0  0
  -21.0855   -8.8777   19.8960 H   0  0  0  0  0  0
  -22.3715  -10.9674   19.6172 H   0  0  0  0  0  0
  -21.1991   -7.6140   23.9710 H   0  0  0  0  0  0
  -21.1491   -6.0525   25.9078 H   0  0  0  0  0  0
  -22.0594   -2.7609   23.2858 H   0  0  0  0  0  0
  -22.4099  -11.9844   22.4771 H   0  0  0  0  0  0
  -21.1085  -13.1216   22.2669 H   0  0  0  0  0  0
  -24.6475  -15.8417   20.5107 H   0  0  0  0  0  0
  -26.2614  -15.6347   20.0662 H   0  0  0  0  0  0
  -26.7281  -32.5557   23.1223 H   0  0  0  0  0  0
  -25.0134  -33.9791   25.0529 H   0  0  0  0  0  0
  -22.7472  -31.3220   21.4277 H   0  0  0  0  0  0
  -23.3766  -35.9647   23.3312 H   0  0  0  0  0  0
  -24.3592  -36.8919   22.2041 H   0  0  0  0  0  0
  -23.7253  -37.6525   23.6639 H   0  0  0  0  0  0
  -26.0860  -31.5889   20.6074 H   0  0  0  0  0  0
  -26.8504  -30.8700   21.9963 H   0  0  0  0  0  0
  -28.1182  -29.0435   21.1973 H   0  0  0  0  0  0
  -26.0407  -25.9335   19.0575 H   0  0  0  0  0  0
  -23.9779  -27.3001   19.0472 H   0  0  0  0  0  0
  -23.7515  -30.6124   19.4241 H   0  0  0  0  0  0
  -22.7558  -29.2620   19.8843 H   0  0  0  0  0  0
  -25.1294  -36.1983   25.0831 H   0  0  0  0  0  0
  -20.1680  -28.6841   21.7561 H   0  0  0  0  0  0
  -20.6846  -26.4295   23.4861 H   0  0  0  0  0  0
  -21.6638  -26.7675   22.0735 H   0  0  0  0  0  0
  -19.6629  -25.3830   21.4489 H   0  0  0  0  0  0
  -19.6458  -26.9097   20.6311 H   0  0  0  0  0  0
  -17.4064  -26.6362   21.4196 H   0  0  0  0  0  0
  -17.9205  -25.9985   22.9572 H   0  0  0  0  0  0
  -19.7959  -30.7502   24.1460 H   0  0  0  0  0  0
  -17.5046  -31.6218   24.5335 H   0  0  0  0  0  0
  -15.5261  -30.2880   23.8259 H   0  0  0  0  0  0
  -15.8330  -28.0571   22.7917 H   0  0  0  0  0  0
  -24.5965  -30.7045   25.7752 H   0  0  0  0  0  0
  -24.8960  -32.2859   26.4908 H   0  0  0  0  0  0
  -25.8082  -30.8835   27.0255 H   0  0  0  0  0  0
  -26.2936  -29.6784   24.1202 H   0  0  0  0  0  0
  -27.4105  -29.7232   25.4642 H   0  0  0  0  0  0
  -27.8805  -30.4304   23.9365 H   0  0  0  0  0  0
  -27.2757  -33.3574   26.2199 H   0  0  0  0  0  0
  -28.3952  -32.6870   25.0418 H   0  0  0  0  0  0
  -28.0809  -31.8381   26.5469 H   0  0  0  0  0  0
  -28.2613  -38.0116   24.7519 H   0  0  0  0  0  0
  -28.1071  -36.2653   24.6295 H   0  0  0  0  0  0
  -27.2308  -37.1481   25.8871 H   0  0  0  0  0  0
  -21.0734  -30.1933   21.8435 H   0  0  0  0  0  0
  -26.0190  -38.2886   24.1418 H   0  0  0  0  0  0
  -29.5336  -18.0891   23.2072 H   0  0  0  0  0  0
  -28.5415  -20.2938   23.3914 H   0  0  0  0  0  0
  -29.0119  -20.9118   19.1627 H   0  0  0  0  0  0
  -28.5176  -26.6517   22.1618 H   0  0  0  0  0  0
  -28.1326  -23.5556   19.8249 H   0  0  0  0  0  0
  -29.7072  -23.1354   20.4540 H   0  0  0  0  0  0
  -27.3076  -23.4106   24.4155 H   0  0  0  0  0  0
  -28.7013  -22.3966   24.1161 H   0  0  0  0  0  0
  -26.3980  -22.9861   22.1774 H   0  0  0  0  0  0
  -26.7523  -21.4466   22.8843 H   0  0  0  0  0  0
  -29.9400  -18.4694   16.6516 H   0  0  0  0  0  0
  -29.9971  -20.0666   17.3787 H   0  0  0  0  0  0
  -28.5200  -19.0810   17.4963 H   0  0  0  0  0  0
  -29.0877  -15.6346   20.9198 H   0  0  0  0  0  0
  1 25  1  0  0  0
  1 30  2  0  0  0
  1 86  1  0  0  0
  2  3  1  0  0  0
  2 25  1  0  0  0
  2 90  1  0  0  0
  2 91  1  0  0  0
  3  4  1  0  0  0
  3 92  1  0  0  0
  3 93  1  0  0  0
  4  5  1  0  0  0
  4 94  1  0  0  0
  4 95  1  0  0  0
  5  6  1  0  0  0
  5 26  1  0  0  0
  5 96  1  0  0  0
  6 25  1  0  0  0
  6 97  1  0  0  0
  6 98  1  0  0  0
  7  8  2  0  0  0
  7 26  1  0  0  0
  7 29  1  0  0  0
  8  9  1  0  0  0
  8 22  1  0  0  0
  9 10  1  0  0  0
  9 27  2  0  0  0
 10 11  2  0  0  0
 10 15  1  0  0  0
 11 12  1  0  0  0
 11 99  1  0  0  0
 12 13  2  0  0  0
 12100  1  0  0  0
 13 14  1  0  0  0
 13 31  1  0  0  0
 14 15  2  0  0  0
 14101  1  0  0  0
 15102  1  0  0  0
 16 17  2  0  0  0
 16 21  1  0  0  0
 16 31  1  0  0  0
 17 18  1  0  0  0
 17103  1  0  0  0
 18 19  2  0  0  0
 18104  1  0  0  0
 19 20  1  0  0  0
 19 24  1  0  0  0
 20 21  2  0  0  0
 20105  1  0  0  0
 21 23  1  0  0  0
 22 28  1  0  0  0
 22 32  2  0  0  0
 26 27  1  0  0  0
 28106  1  0  0  0
 28107  1  0  0  0
 29108  1  0  0  0
 29109  1  0  0  0
 33 34  1  0  0  0
 33 66  1  0  0  0
 33 70  2  0  0  0
 34 36  1  0  0  0
 34 59  1  0  0  0
 34110  1  0  0  0
 35 44  2  0  0  0
 35 45  1  0  0  0
 35 68  1  0  0  0
 36 56  1  0  0  0
 36111  1  0  0  0
 37 39  1  0  0  0
 37 47  1  0  0  0
 37 66  1  0  0  0
 37112  1  0  0  0
 38 43  2  0  0  0
 38 46  1  0  0  0
 38 47  1  0  0  0
 39 64  1  0  0  0
 39 67  2  0  0  0
 40 52  1  0  0  0
 40 53  2  0  0  0
 40 58  1  0  0  0
 41113  1  0  0  0
 41114  1  0  0  0
 41115  1  0  0  0
 41 48  1  0  0  0
 42 43  1  0  0  0
 42 66  1  0  0  0
 42116  1  0  0  0
 42117  1  0  0  0
 43 44  1  0  0  0
 44118  1  0  0  0
 45 46  2  0  0  0
 45119  1  0  0  0
 46120  1  0  0  0
 47121  1  0  0  0
 47122  1  0  0  0
 48 56  1  0  0  0
 48 65  1  0  0  0
 48123  1  0  0  0
 49 50  1  0  0  0
 49 53  1  0  0  0
 49 64  1  0  0  0
 49124  1  0  0  0
 50 51  1  0  0  0
 50125  1  0  0  0
 50126  1  0  0  0
 51 52  1  0  0  0
 51127  1  0  0  0
 51128  1  0  0  0
 52129  1  0  0  0
 52130  1  0  0  0
 53 54  1  0  0  0
 54 55  2  0  0  0
 54131  1  0  0  0
 55 57  1  0  0  0
 55132  1  0  0  0
 56 69  2  0  0  0
 57 58  2  0  0  0
 57133  1  0  0  0
 58134  1  0  0  0
 59 60  1  0  0  0
 59 61  1  0  0  0
 59 62  1  0  0  0
 60135  1  0  0  0
 60136  1  0  0  0
 60137  1  0  0  0
 61138  1  0  0  0
 61139  1  0  0  0
 61140  1  0  0  0
 62141  1  0  0  0
 62142  1  0  0  0
 62143  1  0  0  0
 63 65  1  0  0  0
 63144  1  0  0  0
 63145  1  0  0  0
 63146  1  0  0  0
 64147  1  0  0  0
 65148  1  0  0  0
 68 79  1  0  0  0
 71 72  2  0  0  0
 71 74  1  0  0  0
 71149  1  0  0  0
 72 75  1  0  0  0
 72150  1  0  0  0
 73 75  2  0  0  0
 73 76  1  0  0  0
 73151  1  0  0  0
 74 76  2  0  0  0
 74 80  1  0  0  0
 75 85  1  0  0  0
 76 89  1  0  0  0
 77 78  1  0  0  0
 77 79  2  0  0  0
 77 81  1  0  0  0
 78 82  1  0  0  0
 78 87  2  0  0  0
 79152  1  0  0  0
 80 86  1  0  0  0
 80 88  2  0  0  0
 81 85  1  0  0  0
 81153  1  0  0  0
 81154  1  0  0  0
 82 83  1  0  0  0
 82155  1  0  0  0
 82156  1  0  0  0
 83 85  1  0  0  0
 83157  1  0  0  0
 83158  1  0  0  0
 84 89  1  0  0  0
 84159  1  0  0  0
 84160  1  0  0  0
 84161  1  0  0  0
 86162  1  0  0  0
M  ISO  4   1 100  68 101  79 101  86 100
M  END
> <chiral flag>
0

> <version>
0

> <s_m_source_file>
/data/baiqing/PycharmProjects/Reinvent-master-3.2/result/LINK_invent/BTK/process_docking_weight1_custom_product_contain_oxygen_bond_distance_aromatic_linkinvent_7_9_3/rearranged_h_0092.sdf

> <i_m_source_file_index>
26

> <r_mmod_Potential_Energy-OPLS-2005>
172.490112304688

> <r_mmod_Stretch_Energy-OPLS-2005>
51.538444519043

> <r_mmod_Bend_Energy-OPLS-2005>
236.238296508789

> <r_mmod_Torsional_Energy-OPLS-2005>
271.804168701172

> <r_mmod_Improper_Torsional_Energy-OPLS-2005>
9.01733303070068

> <r_mmod_Van_der_Waal_Energy-OPLS-2005>
184.211563110352

> <r_mmod_Electrostatic_Energy-OPLS-2005>
-377.619598388672

> <r_mmod_Solvation_Energy-OPLS-2005>
-256.322631835938

> <b_mmod_Minimization_Converged-OPLS-2005>
0

> <r_mmod_RMS_Derivative-OPLS-2005>
3.57698678970337

$$$$
26
                    3D
 Structure written by MMmdl.
152160  0  0  1  0            999 V2000
  -30.7149  -14.5571   20.5359 C   0  0  0  0  0  0
  -30.4146  -12.3591   19.4355 C   0  0  0  0  0  0
  -29.4893  -12.4847   18.2098 C   0  0  0  0  0  0
  -28.0177  -12.3268   18.6351 C   0  0  0  0  0  0
  -27.6455  -13.2167   19.8512 C   0  0  2  0  0  0
  -28.6923  -13.1022   20.9811 C   0  0  0  0  0  0
  -25.2539  -13.8179   20.5689 C   0  0  0  0  0  0
  -24.1810  -13.0445   20.9204 C   0  0  0  0  0  0
  -24.6371  -11.6915   20.8745 C   0  0  0  0  0  0
  -23.9044  -10.4297   21.0403 C   0  0  0  0  0  0
  -24.3599   -9.4216   21.9182 C   0  0  0  0  0  0
  -23.6281   -8.2246   22.0752 C   0  0  0  0  0  0
  -22.4266   -8.0273   21.3542 C   0  0  0  0  0  0
  -21.9893   -9.0244   20.4646 C   0  0  0  0  0  0
  -22.7213  -10.2132   20.3054 C   0  0  0  0  0  0
  -21.6855   -6.0723   22.5271 C   0  0  0  0  0  0
  -21.4014   -6.5630   23.8201 C   0  0  0  0  0  0
  -21.3656   -5.6788   24.9167 C   0  0  0  0  0  0
  -21.6039   -4.3050   24.7223 C   0  0  0  0  0  0
  -21.8825   -3.8139   23.4345 C   0  0  0  0  0  0
  -21.9198   -4.6952   22.3399 C   0  0  0  0  0  0
  -22.7833  -13.5239   21.1852 C   0  0  0  0  0  0
  -22.1668   -4.2134   21.0978 F   0  0  0  0  0  0
  -21.5627   -3.4539   25.7741 F   0  0  0  0  0  0
  -30.0058  -13.3994   20.3964 N   0  0  0  0  0  0
  -26.2949  -12.9358   20.3298 N   0  0  0  0  0  0
  -25.9297  -11.6513   20.5761 N   0  0  0  0  0  0
  -22.0470  -12.8241   22.0410 N   0  0  0  0  0  0
  -25.4263  -15.1899   20.4101 N   0  0  0  0  0  0
  -31.8990  -14.6085   20.1911 O   0  0  0  0  0  0
  -21.6639   -6.8864   21.4230 O   0  0  0  0  0  0
  -22.3520  -14.5537   20.6686 O   0  0  0  0  0  0
  -24.6221  -31.8642   23.2060 C   0  0  0  0  0  0
  -25.9101  -32.4789   23.8361 C   0  0  1  0  0  0
  -27.2221  -27.3818   20.0897 C   0  0  0  0  0  0
  -25.5953  -33.8584   24.2311 N   0  0  0  0  0  0
  -23.4106  -30.4878   21.5499 C   0  0  2  0  0  0
  -24.8532  -28.9506   20.1123 C   0  0  0  0  0  0
  -22.7447  -29.4638   22.4993 C   0  0  0  0  0  0
  -18.0276  -28.1367   22.8474 C   0  0  0  0  0  0
  -24.1490  -36.7287   23.2635 C   0  0  0  0  0  0
  -25.9461  -30.8123   21.3657 C   0  0  0  0  0  0
  -26.0211  -29.4439   20.7102 C   0  0  0  0  0  0
  -27.2104  -28.6661   20.6982 C   0  0  0  0  0  0
  -26.0258  -26.9136   19.5000 C   0  0  0  0  0  0
  -24.8524  -27.6862   19.5044 C   0  0  0  0  0  0
  -23.6185  -29.8220   20.1647 C   0  0  0  0  0  0
  -25.4104  -36.3078   24.0341 C   0  0  1  0  0  0
  -20.5871  -28.3653   23.1306 C   0  0  2  0  0  0
  -20.6768  -26.9388   22.5405 C   0  0  0  0  0  0
  -19.5748  -26.6378   21.5195 C   0  0  0  0  0  0
  -18.1927  -26.7916   22.1605 C   0  0  0  0  0  0
  -19.1528  -28.8828   23.2883 C   0  0  0  0  0  0
  -18.9454  -30.1438   23.8884 C   0  0  0  0  0  0
  -17.6455  -30.6571   24.0551 C   0  0  0  0  0  0
  -25.9043  -34.9451   23.5117 C   0  0  0  0  0  0
  -16.5346  -29.9060   23.6333 C   0  0  0  0  0  0
  -16.7266  -28.6484   23.0341 C   0  0  0  0  0  0
  -26.4506  -31.6576   25.0706 C   0  0  0  0  0  0
  -25.3778  -31.3709   26.1469 C   0  0  0  0  0  0
  -27.0324  -30.3005   24.6102 C   0  0  0  0  0  0
  -27.6077  -32.4292   25.7477 C   0  0  0  0  0  0
  -27.5573  -37.1793   24.8465 C   0  0  0  0  0  0
  -21.4169  -29.3028   22.3730 N   0  0  0  0  0  0
  -26.4285  -37.3768   23.9416 N   0  0  0  0  0  0
  -24.6782  -31.0698   22.0982 N   0  0  0  0  0  0
  -23.4199  -28.8172   23.3048 O   0  0  0  0  0  0
  -28.3424  -26.5592   20.1049 O   0  0  0  0  0  0
  -26.5582  -34.8923   22.4664 O   0  0  0  0  0  0
  -23.5404  -32.1426   23.7429 O   0  0  0  0  0  0
  -29.9756  -19.3079   21.7450 C   0  0  0  0  0  0
  -29.5822  -20.6187   21.3619 C   0  0  0  0  0  0
  -29.2743  -18.4360   19.5997 C   0  0  0  0  0  0
  -29.8615  -18.1982   20.8638 C   0  0  0  0  0  0
  -29.0731  -20.8622   20.0635 C   0  0  0  0  0  0
  -28.8986  -19.7457   19.2074 C   0  0  0  0  0  0
  -28.5500  -25.7677   18.9906 C   0  0  0  0  0  0
  -30.5677  -16.8846   21.1822 C   0  0  0  0  0  0
  -28.7373  -24.4185   18.8836 C   0  0  0  0  0  0
  -28.8033  -23.4322   19.9893 C   0  0  0  0  0  0
  -28.8119  -22.1641   19.5022 N   0  0  0  0  0  0
  -30.0169  -15.6928   20.8246 N   0  0  0  0  0  0
  -31.6464  -16.9644   21.7838 O   0  0  0  0  0  0
  -28.8316  -23.6964   21.1931 O   0  0  0  0  0  0
  -28.8732  -23.9410   17.6312 O   0  0  0  0  0  0
  -28.4097  -19.9444   17.9595 F   0  0  0  0  0  0
  -31.4572  -12.4506   19.1253 H   0  0  0  0  0  0
  -30.3240  -11.3716   19.8900 H   0  0  0  0  0  0
  -29.7459  -11.7283   17.4669 H   0  0  0  0  0  0
  -29.6364  -13.4520   17.7271 H   0  0  0  0  0  0
  -27.8647  -11.2767   18.8869 H   0  0  0  0  0  0
  -27.3540  -12.5342   17.7948 H   0  0  0  0  0  0
  -27.6579  -14.2450   19.4906 H   0  0  0  0  0  0
  -28.6930  -12.1004   21.4116 H   0  0  0  0  0  0
  -28.4516  -13.7835   21.7990 H   0  0  0  0  0  0
  -25.2742   -9.5699   22.4758 H   0  0  0  0  0  0
  -23.9992   -7.4641   22.7474 H   0  0  0  0  0  0
  -21.0825   -8.8748   19.8958 H   0  0  0  0  0  0
  -22.3653  -10.9662   19.6162 H   0  0  0  0  0  0
  -21.2007   -7.6139   23.9695 H   0  0  0  0  0  0
  -21.1468   -6.0524   25.9066 H   0  0  0  0  0  0
  -22.0609   -2.7599   23.2854 H   0  0  0  0  0  0
  -22.4077  -11.9906   22.4819 H   0  0  0  0  0  0
  -21.1075  -13.1261   22.2583 H   0  0  0  0  0  0
  -24.6600  -15.8453   20.5162 H   0  0  0  0  0  0
  -26.2720  -15.6255   20.0674 H   0  0  0  0  0  0
  -26.7161  -32.5481   23.1105 H   0  0  0  0  0  0
  -25.0176  -33.9730   25.0506 H   0  0  0  0  0  0
  -22.7005  -31.3052   21.4095 H   0  0  0  0  0  0
  -23.3748  -35.9623   23.3300 H   0  0  0  0  0  0
  -24.3593  -36.8894   22.2049 H   0  0  0  0  0  0
  -23.7250  -37.6500   23.6642 H   0  0  0  0  0  0
  -26.0682  -31.5771   20.5973 H   0  0  0  0  0  0
  -26.8305  -30.8627   21.9889 H   0  0  0  0  0  0
  -28.1106  -29.0370   21.1670 H   0  0  0  0  0  0
  -25.9836  -25.9327   19.0471 H   0  0  0  0  0  0
  -23.9518  -27.2946   19.0498 H   0  0  0  0  0  0
  -23.7256  -30.5946   19.4027 H   0  0  0  0  0  0
  -22.7411  -29.2427   19.8710 H   0  0  0  0  0  0
  -25.1272  -36.1928   25.0831 H   0  0  0  0  0  0
  -20.9939  -28.3213   24.1436 H   0  0  0  0  0  0
  -20.5653  -26.2253   23.3587 H   0  0  0  0  0  0
  -21.6643  -26.7434   22.1203 H   0  0  0  0  0  0
  -19.6907  -25.6292   21.1217 H   0  0  0  0  0  0
  -19.6687  -27.3193   20.6728 H   0  0  0  0  0  0
  -17.4191  -26.6649   21.4014 H   0  0  0  0  0  0
  -18.0336  -26.0065   22.9006 H   0  0  0  0  0  0
  -19.7937  -30.7252   24.2247 H   0  0  0  0  0  0
  -17.5013  -31.6255   24.5143 H   0  0  0  0  0  0
  -15.5343  -30.2940   23.7687 H   0  0  0  0  0  0
  -15.8669  -28.0798   22.7054 H   0  0  0  0  0  0
  -24.5935  -30.7057   25.7840 H   0  0  0  0  0  0
  -24.8993  -32.2875   26.4925 H   0  0  0  0  0  0
  -25.8157  -30.8886   27.0219 H   0  0  0  0  0  0
  -26.2858  -29.6759   24.1178 H   0  0  0  0  0  0
  -27.4107  -29.7249   25.4562 H   0  0  0  0  0  0
  -27.8693  -30.4303   23.9237 H   0  0  0  0  0  0
  -27.2692  -33.3590   26.2057 H   0  0  0  0  0  0
  -28.3891  -32.6848   25.0309 H   0  0  0  0  0  0
  -28.0729  -31.8409   26.5398 H   0  0  0  0  0  0
  -28.2592  -38.0083   24.7501 H   0  0  0  0  0  0
  -28.1069  -36.2622   24.6293 H   0  0  0  0  0  0
  -27.2303  -37.1447   25.8871 H   0  0  0  0  0  0
  -20.9341  -29.8740   21.6935 H   0  0  0  0  0  0
  -26.0169  -38.2850   24.1404 H   0  0  0  0  0  0
  -30.4374  -19.1679   22.7133 H   0  0  0  0  0  0
  -29.7390  -21.4358   22.0511 H   0  0  0  0  0  0
  -29.1871  -17.6320   18.8831 H   0  0  0  0  0  0
  -28.5310  -26.3899   18.1052 H   0  0  0  0  0  0
  -28.6854  -22.1643   18.4969 H   0  0  0  0  0  0
  -29.0207  -15.6705   20.6942 H   0  0  0  0  0  0
  -28.8012  -24.6734   17.0338 H   0  0  0  0  0  0
  1 25  1  0  0  0
  1 30  2  0  0  0
  1 82  1  0  0  0
  2  3  1  0  0  0
  2 25  1  0  0  0
  2 87  1  0  0  0
  2 88  1  0  0  0
  3  4  1  0  0  0
  3 89  1  0  0  0
  3 90  1  0  0  0
  4  5  1  0  0  0
  4 91  1  0  0  0
  4 92  1  0  0  0
  5  6  1  0  0  0
  5 26  1  0  0  0
  5 93  1  0  0  0
  6 25  1  0  0  0
  6 94  1  0  0  0
  6 95  1  0  0  0
  7  8  2  0  0  0
  7 26  1  0  0  0
  7 29  1  0  0  0
  8  9  1  0  0  0
  8 22  1  0  0  0
  9 10  1  0  0  0
  9 27  2  0  0  0
 10 11  2  0  0  0
 10 15  1  0  0  0
 11 12  1  0  0  0
 11 96  1  0  0  0
 12 13  2  0  0  0
 12 97  1  0  0  0
 13 14  1  0  0  0
 13 31  1  0  0  0
 14 15  2  0  0  0
 14 98  1  0  0  0
 15 99  1  0  0  0
 16 17  2  0  0  0
 16 21  1  0  0  0
 16 31  1  0  0  0
 17 18  1  0  0  0
 17100  1  0  0  0
 18 19  2  0  0  0
 18101  1  0  0  0
 19 20  1  0  0  0
 19 24  1  0  0  0
 20 21  2  0  0  0
 20102  1  0  0  0
 21 23  1  0  0  0
 22 28  1  0  0  0
 22 32  2  0  0  0
 26 27  1  0  0  0
 28103  1  0  0  0
 28104  1  0  0  0
 29105  1  0  0  0
 29106  1  0  0  0
 33 34  1  0  0  0
 33 66  1  0  0  0
 33 70  2  0  0  0
 34 36  1  0  0  0
 34 59  1  0  0  0
 34107  1  0  0  0
 35 44  2  0  0  0
 35 45  1  0  0  0
 35 68  1  0  0  0
 36 56  1  0  0  0
 36108  1  0  0  0
 37 39  1  0  0  0
 37 47  1  0  0  0
 37 66  1  0  0  0
 37109  1  0  0  0
 38 43  2  0  0  0
 38 46  1  0  0  0
 38 47  1  0  0  0
 39 64  1  0  0  0
 39 67  2  0  0  0
 40 52  1  0  0  0
 40 53  2  0  0  0
 40 58  1  0  0  0
 41110  1  0  0  0
 41111  1  0  0  0
 41112  1  0  0  0
 41 48  1  0  0  0
 42 43  1  0  0  0
 42 66  1  0  0  0
 42113  1  0  0  0
 42114  1  0  0  0
 43 44  1  0  0  0
 44115  1  0  0  0
 45 46  2  0  0  0
 45116  1  0  0  0
 46117  1  0  0  0
 47118  1  0  0  0
 47119  1  0  0  0
 48 56  1  0  0  0
 48 65  1  0  0  0
 48120  1  0  0  0
 49 50  1  0  0  0
 49 53  1  0  0  0
 49 64  1  0  0  0
 49121  1  0  0  0
 50 51  1  0  0  0
 50122  1  0  0  0
 50123  1  0  0  0
 51 52  1  0  0  0
 51124  1  0  0  0
 51125  1  0  0  0
 52126  1  0  0  0
 52127  1  0  0  0
 53 54  1  0  0  0
 54 55  2  0  0  0
 54128  1  0  0  0
 55 57  1  0  0  0
 55129  1  0  0  0
 56 69  2  0  0  0
 57 58  2  0  0  0
 57130  1  0  0  0
 58131  1  0  0  0
 59 60  1  0  0  0
 59 61  1  0  0  0
 59 62  1  0  0  0
 60132  1  0  0  0
 60133  1  0  0  0
 60134  1  0  0  0
 61135  1  0  0  0
 61136  1  0  0  0
 61137  1  0  0  0
 62138  1  0  0  0
 62139  1  0  0  0
 62140  1  0  0  0
 63 65  1  0  0  0
 63141  1  0  0  0
 63142  1  0  0  0
 63143  1  0  0  0
 64144  1  0  0  0
 65145  1  0  0  0
 68 77  1  0  0  0
 71 72  2  0  0  0
 71 74  1  0  0  0
 71146  1  0  0  0
 72 75  1  0  0  0
 72147  1  0  0  0
 73 74  2  0  0  0
 73 76  1  0  0  0
 73148  1  0  0  0
 74 78  1  0  0  0
 75 76  2  0  0  0
 75 81  1  0  0  0
 76 86  1  0  0  0
 77 79  2  0  0  0
 77149  1  0  0  0
 78 82  1  0  0  0
 78 83  2  0  0  0
 79 80  1  0  0  0
 79 85  1  0  0  0
 80 81  1  0  0  0
 80 84  2  0  0  0
 81150  1  0  0  0
 82151  1  0  0  0
 85152  1  0  0  0
M  ISO  4   1 100  68 101  77 101  82 100
M  END
> <chiral flag>
0

> <version>
0

> <s_m_source_file>
/data/baiqing/PycharmProjects/Reinvent-master-3.2/result/LINK_invent/BTK/process_docking_weight1_custom_product_contain_oxygen_bond_distance_aromatic_linkinvent_7_9_3/rearranged_h_0092.sdf

> <i_m_source_file_index>
27

> <r_mmod_Potential_Energy-OPLS-2005>
-125.485412597656

> <r_mmod_Stretch_Energy-OPLS-2005>
50.0262145996094

> <r_mmod_Bend_Energy-OPLS-2005>
134.972015380859

> <r_mmod_Torsional_Energy-OPLS-2005>
248.221466064453

> <r_mmod_Improper_Torsional_Energy-OPLS-2005>
7.37952136993408

> <r_mmod_Van_der_Waal_Energy-OPLS-2005>
164.899398803711

> <r_mmod_Electrostatic_Energy-OPLS-2005>
-516.856750488281

> <r_mmod_Solvation_Energy-OPLS-2005>
-247.192718505859

> <b_mmod_Minimization_Converged-OPLS-2005>
0

> <r_mmod_RMS_Derivative-OPLS-2005>
1.41733479499817

$$$$
27
                    3D
 Structure written by MMmdl.
158167  0  0  1  0            999 V2000
  -30.5596  -14.8869   20.5021 C   0  0  0  0  0  0
  -30.4505  -12.5590   19.4996 C   0  0  0  0  0  0
  -29.5264  -12.5558   18.2559 C   0  0  0  0  0  0
  -28.0544  -12.3411   18.6584 C   0  0  0  0  0  0
  -27.6448  -13.2348   19.8564 C   0  0  2  0  0  0
  -28.6836  -13.1613   20.9934 C   0  0  0  0  0  0
  -25.2521  -13.8183   20.5687 C   0  0  0  0  0  0
  -24.1806  -13.0429   20.9179 C   0  0  0  0  0  0
  -24.6396  -11.6907   20.8718 C   0  0  0  0  0  0
  -23.9069  -10.4292   21.0389 C   0  0  0  0  0  0
  -24.3621   -9.4209   21.9172 C   0  0  0  0  0  0
  -23.6288   -8.2247   22.0752 C   0  0  0  0  0  0
  -22.4269   -8.0285   21.3544 C   0  0  0  0  0  0
  -21.9908   -9.0254   20.4643 C   0  0  0  0  0  0
  -22.7239  -10.2130   20.3043 C   0  0  0  0  0  0
  -21.6854   -6.0731   22.5275 C   0  0  0  0  0  0
  -21.4016   -6.5636   23.8208 C   0  0  0  0  0  0
  -21.3661   -5.6787   24.9172 C   0  0  0  0  0  0
  -21.6044   -4.3048   24.7225 C   0  0  0  0  0  0
  -21.8818   -3.8141   23.4347 C   0  0  0  0  0  0
  -21.9194   -4.6958   22.3402 C   0  0  0  0  0  0
  -22.7831  -13.5219   21.1851 C   0  0  0  0  0  0
  -22.1658   -4.2141   21.0977 F   0  0  0  0  0  0
  -21.5631   -3.4536   25.7739 F   0  0  0  0  0  0
  -29.9777  -13.6136   20.4466 N   0  0  0  0  0  0
  -26.2948  -12.9391   20.3269 N   0  0  0  0  0  0
  -25.9330  -11.6528   20.5714 N   0  0  0  0  0  0
  -22.0483  -12.8206   22.0412 N   0  0  0  0  0  0
  -25.4215  -15.1906   20.4123 N   0  0  0  0  0  0
  -31.6828  -15.0268   20.0010 O   0  0  0  0  0  0
  -21.6637   -6.8876   21.4238 O   0  0  0  0  0  0
  -22.3514  -14.5526   20.6704 O   0  0  0  0  0  0
  -24.6405  -31.8456   23.1918 C   0  0  0  0  0  0
  -25.9176  -32.4705   23.8311 C   0  0  1  0  0  0
  -27.2250  -27.1603   20.1401 C   0  0  0  0  0  0
  -25.5945  -33.8516   24.2220 N   0  0  0  0  0  0
  -23.4440  -30.4656   21.5361 C   0  0  2  0  0  0
  -24.8960  -28.9026   20.1068 C   0  0  0  0  0  0
  -22.7558  -29.4537   22.4862 C   0  0  0  0  0  0
  -18.0302  -28.1393   22.8480 C   0  0  0  0  0  0
  -24.1489  -36.7261   23.2646 C   0  0  0  0  0  0
  -25.9989  -30.7244   21.3910 C   0  0  0  0  0  0
  -26.0701  -29.3392   20.7319 C   0  0  0  0  0  0
  -27.2296  -28.4803   20.7421 C   0  0  0  0  0  0
  -26.0292  -26.8349   19.4566 C   0  0  0  0  0  0
  -24.8879  -27.6627   19.4554 C   0  0  0  0  0  0
  -23.6701  -29.7995   20.1540 C   0  0  0  0  0  0
  -25.4116  -36.3043   24.0326 C   0  0  1  0  0  0
  -20.5915  -28.3707   23.1241 C   0  0  2  0  0  0
  -20.6788  -26.9413   22.5402 C   0  0  0  0  0  0
  -19.5763  -26.6375   21.5214 C   0  0  0  0  0  0
  -18.1942  -26.7932   22.1620 C   0  0  0  0  0  0
  -19.1558  -28.8870   23.2853 C   0  0  0  0  0  0
  -18.9479  -30.1473   23.8867 C   0  0  0  0  0  0
  -17.6474  -30.6592   24.0569 C   0  0  0  0  0  0
  -25.9062  -34.9411   23.5075 C   0  0  0  0  0  0
  -16.5363  -29.9083   23.6345 C   0  0  0  0  0  0
  -16.7289  -28.6505   23.0359 C   0  0  0  0  0  0
  -26.4519  -31.6571   25.0740 C   0  0  0  0  0  0
  -25.3720  -31.3738   26.1445 C   0  0  0  0  0  0
  -27.0391  -30.2976   24.6302 C   0  0  0  0  0  0
  -27.6054  -32.4343   25.7506 C   0  0  0  0  0  0
  -27.5571  -37.1784   24.8468 C   0  0  0  0  0  0
  -21.4250  -29.3036   22.3615 N   0  0  0  0  0  0
  -26.4283  -37.3747   23.9412 N   0  0  0  0  0  0
  -24.7139  -31.0331   22.0946 N   0  0  0  0  0  0
  -23.4209  -28.8079   23.3004 O   0  0  0  0  0  0
  -28.2817  -26.1859   20.2598 O   0  0  0  0  0  0
  -26.5650  -34.8902   22.4654 O   0  0  0  0  0  0
  -23.5528  -32.1316   23.7146 O   0  0  0  0  0  0
  -30.5321  -18.4750   19.9757 C   0  0  0  0  0  0
  -30.3831  -19.8958   19.6901 C   0  0  0  0  0  0
  -28.4838  -20.0056   21.0656 C   0  0  0  0  0  0
  -29.6577  -17.7069   20.8163 C   0  0  0  0  0  0
  -29.3475  -20.7542   20.2151 C   0  0  0  0  0  0
  -28.6090  -18.5840   21.3351 C   0  0  0  0  0  0
  -28.7652  -23.3930   20.4552 C   0  0  0  0  0  0
  -29.8386  -16.1508   21.2748 C   0  0  0  0  0  0
  -29.6096  -23.7125   17.7918 C   0  0  0  0  0  0
  -28.6557  -24.8347   18.2192 C   0  0  0  0  0  0
  -29.1116  -22.3414   18.2798 C   0  0  0  0  0  0
  -28.1898  -24.7477   19.6888 C   0  0  2  0  0  0
  -29.4105  -15.8796   22.4370 N   0  0  0  0  0  0
  -29.0868  -22.1960   19.7487 N   0  0  0  0  0  0
  -27.5906  -18.0865   22.1553 N   0  0  0  0  0  0
  -28.8779  -23.4394   21.6851 O   0  0  0  0  0  0
  -31.4846  -12.7191   19.1903 H   0  0  0  0  0  0
  -30.4450  -11.5812   19.9835 H   0  0  0  0  0  0
  -29.8396  -11.7826   17.5530 H   0  0  0  0  0  0
  -29.6237  -13.5063   17.7296 H   0  0  0  0  0  0
  -27.9319  -11.2905   18.9240 H   0  0  0  0  0  0
  -27.3966  -12.5187   17.8066 H   0  0  0  0  0  0
  -27.6394  -14.2600   19.4858 H   0  0  0  0  0  0
  -28.7612  -12.1409   21.3715 H   0  0  0  0  0  0
  -28.3473  -13.7469   21.8439 H   0  0  0  0  0  0
  -25.2768   -9.5691   22.4739 H   0  0  0  0  0  0
  -23.9997   -7.4648   22.7481 H   0  0  0  0  0  0
  -21.0834   -8.8771   19.8953 H   0  0  0  0  0  0
  -22.3692  -10.9665   19.6148 H   0  0  0  0  0  0
  -21.2002   -7.6142   23.9711 H   0  0  0  0  0  0
  -21.1484   -6.0516   25.9074 H   0  0  0  0  0  0
  -22.0593   -2.7603   23.2848 H   0  0  0  0  0  0
  -22.4121  -11.9876   22.4804 H   0  0  0  0  0  0
  -21.1102  -13.1218   22.2619 H   0  0  0  0  0  0
  -24.6550  -15.8450   20.5271 H   0  0  0  0  0  0
  -26.2733  -15.6308   20.0894 H   0  0  0  0  0  0
  -26.7231  -32.5314   23.1035 H   0  0  0  0  0  0
  -25.0094  -33.9660   25.0372 H   0  0  0  0  0  0
  -22.7454  -31.2910   21.3840 H   0  0  0  0  0  0
  -23.3757  -35.9586   23.3297 H   0  0  0  0  0  0
  -24.3567  -36.8898   22.2057 H   0  0  0  0  0  0
  -23.7235  -37.6455   23.6683 H   0  0  0  0  0  0
  -26.1537  -31.4786   20.6188 H   0  0  0  0  0  0
  -26.8707  -30.7748   22.0310 H   0  0  0  0  0  0
  -28.1167  -28.8043   21.2669 H   0  0  0  0  0  0
  -25.9192  -25.9056   18.9225 H   0  0  0  0  0  0
  -23.9946  -27.3262   18.9475 H   0  0  0  0  0  0
  -23.8018  -30.5774   19.4013 H   0  0  0  0  0  0
  -22.7879  -29.2380   19.8418 H   0  0  0  0  0  0
  -25.1300  -36.1879   25.0817 H   0  0  0  0  0  0
  -21.0015  -28.3292   24.1358 H   0  0  0  0  0  0
  -20.5691  -26.2319   23.3618 H   0  0  0  0  0  0
  -21.6652  -26.7423   22.1188 H   0  0  0  0  0  0
  -19.6926  -25.6282   21.1252 H   0  0  0  0  0  0
  -19.6712  -27.3186   20.6747 H   0  0  0  0  0  0
  -17.4215  -26.6689   21.4021 H   0  0  0  0  0  0
  -18.0336  -26.0080   22.9019 H   0  0  0  0  0  0
  -19.7956  -30.7307   24.2208 H   0  0  0  0  0  0
  -17.5028  -31.6268   24.5177 H   0  0  0  0  0  0
  -15.5367  -30.2983   23.7680 H   0  0  0  0  0  0
  -15.8686  -28.0823   22.7083 H   0  0  0  0  0  0
  -24.5918  -30.7060   25.7771 H   0  0  0  0  0  0
  -24.8897  -32.2914   26.4826 H   0  0  0  0  0  0
  -25.8025  -30.8950   27.0251 H   0  0  0  0  0  0
  -26.3006  -29.6697   24.1300 H   0  0  0  0  0  0
  -27.4012  -29.7267   25.4865 H   0  0  0  0  0  0
  -27.8912  -30.4232   23.9615 H   0  0  0  0  0  0
  -27.2654  -33.3678   26.1997 H   0  0  0  0  0  0
  -28.3893  -32.6837   25.0345 H   0  0  0  0  0  0
  -28.0686  -31.8527   26.5486 H   0  0  0  0  0  0
  -28.2579  -38.0091   24.7510 H   0  0  0  0  0  0
  -28.1081  -36.2615   24.6302 H   0  0  0  0  0  0
  -27.2293  -37.1433   25.8875 H   0  0  0  0  0  0
  -20.9448  -29.8768   21.6816 H   0  0  0  0  0  0
  -26.0158  -38.2817   24.1424 H   0  0  0  0  0  0
  -31.3713  -17.9594   19.5313 H   0  0  0  0  0  0
  -31.1145  -20.3330   19.0239 H   0  0  0  0  0  0
  -27.6478  -20.5407   21.4938 H   0  0  0  0  0  0
  -30.6111  -23.9006   18.1837 H   0  0  0  0  0  0
  -29.7076  -23.7123   16.7056 H   0  0  0  0  0  0
  -27.7776  -24.8282   17.5733 H   0  0  0  0  0  0
  -29.1450  -25.7921   18.0370 H   0  0  0  0  0  0
  -29.7370  -21.5812   17.8167 H   0  0  0  0  0  0
  -28.1051  -22.1564   17.9022 H   0  0  0  0  0  0
  -27.1394  -24.4705   19.6828 H   0  0  0  0  0  0
  -28.9985  -16.7179   22.8416 H   0  0  0  0  0  0
  -26.7684  -18.6648   22.2961 H   0  0  0  0  0  0
  -27.3525  -17.1021   22.0826 H   0  0  0  0  0  0
  1 25  1  0  0  0
  1 30  2  0  0  0
  1 78  1  0  0  0
  2  3  1  0  0  0
  2 25  1  0  0  0
  2 87  1  0  0  0
  2 88  1  0  0  0
  3  4  1  0  0  0
  3 89  1  0  0  0
  3 90  1  0  0  0
  4  5  1  0  0  0
  4 91  1  0  0  0
  4 92  1  0  0  0
  5  6  1  0  0  0
  5 26  1  0  0  0
  5 93  1  0  0  0
  6 25  1  0  0  0
  6 94  1  0  0  0
  6 95  1  0  0  0
  7  8  2  0  0  0
  7 26  1  0  0  0
  7 29  1  0  0  0
  8  9  1  0  0  0
  8 22  1  0  0  0
  9 10  1  0  0  0
  9 27  2  0  0  0
 10 11  2  0  0  0
 10 15  1  0  0  0
 11 12  1  0  0  0
 11 96  1  0  0  0
 12 13  2  0  0  0
 12 97  1  0  0  0
 13 14  1  0  0  0
 13 31  1  0  0  0
 14 15  2  0  0  0
 14 98  1  0  0  0
 15 99  1  0  0  0
 16 17  2  0  0  0
 16 21  1  0  0  0
 16 31  1  0  0  0
 17 18  1  0  0  0
 17100  1  0  0  0
 18 19  2  0  0  0
 18101  1  0  0  0
 19 20  1  0  0  0
 19 24  1  0  0  0
 20 21  2  0  0  0
 20102  1  0  0  0
 21 23  1  0  0  0
 22 28  1  0  0  0
 22 32  2  0  0  0
 26 27  1  0  0  0
 28103  1  0  0  0
 28104  1  0  0  0
 29105  1  0  0  0
 29106  1  0  0  0
 33 34  1  0  0  0
 33 66  1  0  0  0
 33 70  2  0  0  0
 34 36  1  0  0  0
 34 59  1  0  0  0
 34107  1  0  0  0
 35 44  2  0  0  0
 35 45  1  0  0  0
 35 68  1  0  0  0
 36 56  1  0  0  0
 36108  1  0  0  0
 37 39  1  0  0  0
 37 47  1  0  0  0
 37 66  1  0  0  0
 37109  1  0  0  0
 38 43  2  0  0  0
 38 46  1  0  0  0
 38 47  1  0  0  0
 39 64  1  0  0  0
 39 67  2  0  0  0
 40 52  1  0  0  0
 40 53  2  0  0  0
 40 58  1  0  0  0
 41110  1  0  0  0
 41111  1  0  0  0
 41112  1  0  0  0
 41 48  1  0  0  0
 42 43  1  0  0  0
 42 66  1  0  0  0
 42113  1  0  0  0
 42114  1  0  0  0
 43 44  1  0  0  0
 44115  1  0  0  0
 45 46  2  0  0  0
 45116  1  0  0  0
 46117  1  0  0  0
 47118  1  0  0  0
 47119  1  0  0  0
 48 56  1  0  0  0
 48 65  1  0  0  0
 48120  1  0  0  0
 49 50  1  0  0  0
 49 53  1  0  0  0
 49 64  1  0  0  0
 49121  1  0  0  0
 50 51  1  0  0  0
 50122  1  0  0  0
 50123  1  0  0  0
 51 52  1  0  0  0
 51124  1  0  0  0
 51125  1  0  0  0
 52126  1  0  0  0
 52127  1  0  0  0
 53 54  1  0  0  0
 54 55  2  0  0  0
 54128  1  0  0  0
 55 57  1  0  0  0
 55129  1  0  0  0
 56 69  2  0  0  0
 57 58  2  0  0  0
 57130  1  0  0  0
 58131  1  0  0  0
 59 60  1  0  0  0
 59 61  1  0  0  0
 59 62  1  0  0  0
 60132  1  0  0  0
 60133  1  0  0  0
 60134  1  0  0  0
 61135  1  0  0  0
 61136  1  0  0  0
 61137  1  0  0  0
 62138  1  0  0  0
 62139  1  0  0  0
 62140  1  0  0  0
 63 65  1  0  0  0
 63141  1  0  0  0
 63142  1  0  0  0
 63143  1  0  0  0
 64144  1  0  0  0
 65145  1  0  0  0
 68 82  1  0  0  0
 71 72  2  0  0  0
 71 74  1  0  0  0
 71146  1  0  0  0
 72 75  1  0  0  0
 72147  1  0  0  0
 73 75  2  0  0  0
 73 76  1  0  0  0
 73148  1  0  0  0
 74 76  2  0  0  0
 74 78  1  0  0  0
 75 84  1  0  0  0
 76 85  1  0  0  0
 77 82  1  0  0  0
 77 84  1  0  0  0
 77 86  2  0  0  0
 78 83  2  0  0  0
 79 80  1  0  0  0
 79 81  1  0  0  0
 79149  1  0  0  0
 79150  1  0  0  0
 80 82  1  0  0  0
 80151  1  0  0  0
 80152  1  0  0  0
 81 84  1  0  0  0
 81153  1  0  0  0
 81154  1  0  0  0
 82155  1  0  0  0
 83156  1  0  0  0
 85157  1  0  0  0
 85158  1  0  0  0
M  ISO  4   1 100  68 101  78 100  82 101
M  END
> <chiral flag>
0

> <version>
0

> <s_m_source_file>
/data/baiqing/PycharmProjects/Reinvent-master-3.2/result/LINK_invent/BTK/process_docking_weight1_custom_product_contain_oxygen_bond_distance_aromatic_linkinvent_7_9_3/rearranged_h_0092.sdf

> <i_m_source_file_index>
28

> <r_mmod_Potential_Energy-OPLS-2005>
779.380981445312

> <r_mmod_Stretch_Energy-OPLS-2005>
251.653671264648

> <r_mmod_Bend_Energy-OPLS-2005>
272.249725341797

> <r_mmod_Torsional_Energy-OPLS-2005>
270.205993652344

> <r_mmod_Improper_Torsional_Energy-OPLS-2005>
7.82352590560913

> <r_mmod_Van_der_Waal_Energy-OPLS-2005>
162.474945068359

> <r_mmod_Electrostatic_Energy-OPLS-2005>
-120.198471069336

> <r_mmod_Solvation_Energy-OPLS-2005>
-223.995269775391

> <b_mmod_Minimization_Converged-OPLS-2005>
0

> <r_mmod_RMS_Derivative-OPLS-2005>
1.38248121738434

$$$$
28
                    3D
 Structure written by MMmdl.
159168  0  0  1  0            999 V2000
  -30.7270  -14.6201   20.4690 C   0  0  0  0  0  0
  -30.3976  -12.3577   19.4779 C   0  0  0  0  0  0
  -29.4995  -12.4855   18.2321 C   0  0  0  0  0  0
  -28.0227  -12.3424   18.6397 C   0  0  0  0  0  0
  -27.6444  -13.2404   19.8490 C   0  0  2  0  0  0
  -28.6889  -13.1703   20.9837 C   0  0  0  0  0  0
  -25.2520  -13.8226   20.5726 C   0  0  0  0  0  0
  -24.1805  -13.0466   20.9194 C   0  0  0  0  0  0
  -24.6392  -11.6943   20.8722 C   0  0  0  0  0  0
  -23.9059  -10.4307   21.0384 C   0  0  0  0  0  0
  -24.3609   -9.4224   21.9171 C   0  0  0  0  0  0
  -23.6290   -8.2254   22.0749 C   0  0  0  0  0  0
  -22.4273   -8.0284   21.3541 C   0  0  0  0  0  0
  -21.9902   -9.0251   20.4643 C   0  0  0  0  0  0
  -22.7221  -10.2137   20.3043 C   0  0  0  0  0  0
  -21.6858   -6.0734   22.5272 C   0  0  0  0  0  0
  -21.4023   -6.5636   23.8208 C   0  0  0  0  0  0
  -21.3661   -5.6785   24.9166 C   0  0  0  0  0  0
  -21.6039   -4.3048   24.7217 C   0  0  0  0  0  0
  -21.8820   -3.8142   23.4337 C   0  0  0  0  0  0
  -21.9202   -4.6961   22.3394 C   0  0  0  0  0  0
  -22.7824  -13.5230   21.1869 C   0  0  0  0  0  0
  -22.1668   -4.2142   21.0976 F   0  0  0  0  0  0
  -21.5624   -3.4536   25.7732 F   0  0  0  0  0  0
  -30.0143  -13.4450   20.4118 N   0  0  0  0  0  0
  -26.2955  -12.9455   20.3298 N   0  0  0  0  0  0
  -25.9325  -11.6578   20.5729 N   0  0  0  0  0  0
  -22.0484  -12.8204   22.0425 N   0  0  0  0  0  0
  -25.4243  -15.1949   20.4231 N   0  0  0  0  0  0
  -31.8959  -14.5241   20.1068 O   0  0  0  0  0  0
  -21.6644   -6.8880   21.4235 O   0  0  0  0  0  0
  -22.3486  -14.5526   20.6718 O   0  0  0  0  0  0
  -24.6224  -31.8630   23.2055 C   0  0  0  0  0  0
  -25.9080  -32.4791   23.8374 C   0  0  1  0  0  0
  -27.2184  -27.3575   20.1069 C   0  0  0  0  0  0
  -25.5906  -33.8597   24.2309 N   0  0  0  0  0  0
  -23.4133  -30.4901   21.5461 C   0  0  2  0  0  0
  -24.8607  -28.9536   20.1073 C   0  0  0  0  0  0
  -22.7450  -29.4657   22.4935 C   0  0  0  0  0  0
  -18.0290  -28.1387   22.8496 C   0  0  0  0  0  0
  -24.1485  -36.7295   23.2646 C   0  0  0  0  0  0
  -25.9531  -30.8045   21.3735 C   0  0  0  0  0  0
  -26.0285  -29.4365   20.7137 C   0  0  0  0  0  0
  -27.2140  -28.6482   20.7086 C   0  0  0  0  0  0
  -26.0386  -26.9319   19.4567 C   0  0  0  0  0  0
  -24.8649  -27.7035   19.4722 C   0  0  0  0  0  0
  -23.6257  -29.8270   20.1604 C   0  0  0  0  0  0
  -25.4113  -36.3094   24.0345 C   0  0  1  0  0  0
  -20.5885  -28.3689   23.1290 C   0  0  2  0  0  0
  -20.6775  -26.9421   22.5402 C   0  0  0  0  0  0
  -19.5749  -26.6393   21.5199 C   0  0  0  0  0  0
  -18.1937  -26.7930   22.1621 C   0  0  0  0  0  0
  -19.1542  -28.8854   23.2892 C   0  0  0  0  0  0
  -18.9465  -30.1465   23.8905 C   0  0  0  0  0  0
  -17.6459  -30.6590   24.0580 C   0  0  0  0  0  0
  -25.9039  -34.9464   23.5123 C   0  0  0  0  0  0
  -16.5353  -29.9094   23.6338 C   0  0  0  0  0  0
  -16.7277  -28.6509   23.0364 C   0  0  0  0  0  0
  -26.4475  -31.6586   25.0726 C   0  0  0  0  0  0
  -25.3721  -31.3715   26.1461 C   0  0  0  0  0  0
  -27.0323  -30.3018   24.6148 C   0  0  0  0  0  0
  -27.6046  -32.4303   25.7482 C   0  0  0  0  0  0
  -27.5585  -37.1811   24.8469 C   0  0  0  0  0  0
  -21.4165  -29.3051   22.3680 N   0  0  0  0  0  0
  -26.4289  -37.3788   23.9411 N   0  0  0  0  0  0
  -24.6815  -31.0684   22.0987 N   0  0  0  0  0  0
  -23.4182  -28.8205   23.3008 O   0  0  0  0  0  0
  -28.3091  -26.4856   20.1702 O   0  0  0  0  0  0
  -26.5603  -34.8915   22.4683 O   0  0  0  0  0  0
  -23.5397  -32.1414   23.7398 O   0  0  0  0  0  0
  -28.0219  -26.1216   24.4120 C   0  0  0  0  0  0
  -30.5504  -21.2013   20.7383 C   0  0  0  0  0  0
  -31.0844  -19.8911   20.8292 C   0  0  0  0  0  0
  -28.5180  -26.1349   23.0750 C   0  0  0  0  0  0
  -28.8736  -18.9153   20.7159 C   0  0  0  0  0  0
  -26.9149  -25.3270   24.5576 C   0  0  0  0  0  0
  -29.1547  -21.4064   20.6471 C   0  0  0  0  0  0
  -28.3323  -20.2363   20.6362 C   0  0  0  0  0  0
  -30.2679  -18.7291   20.8290 C   0  0  0  0  0  0
  -27.7771  -25.3616   22.2132 C   0  0  0  0  0  0
  -29.0160  -23.9933   20.4906 C   0  0  0  0  0  0
  -27.9857  -25.1581   20.7375 C   0  0  2  0  0  0
  -30.1775  -15.8339   20.8358 N   0  5  0  0  0  0
  -26.9477  -20.3734   20.5524 N   0  0  0  0  0  0
  -28.5306  -22.7200   20.6142 N   0  0  0  0  0  0
  -30.1869  -24.2488   20.1914 O   0  0  0  0  0  0
  -32.1559  -17.2621   19.8769 O   0  0  0  0  0  0
  -31.7584  -17.1960   22.3432 O   0  0  0  0  0  0
  -26.4505  -24.5932   23.0492 S   0  0  0  0  0  0
  -31.1880  -17.1331   20.9848 S   0  0  0  0  0  0
  -31.4473  -12.3797   19.1818 H   0  0  0  0  0  0
  -30.2524  -11.3867   19.9541 H   0  0  0  0  0  0
  -29.7577  -11.7199   17.4989 H   0  0  0  0  0  0
  -29.6619  -13.4494   17.7476 H   0  0  0  0  0  0
  -27.8565  -11.2936   18.8913 H   0  0  0  0  0  0
  -27.3695  -12.5587   17.7918 H   0  0  0  0  0  0
  -27.6467  -14.2659   19.4789 H   0  0  0  0  0  0
  -28.6810  -12.1885   21.4600 H   0  0  0  0  0  0
  -28.4513  -13.8950   21.7643 H   0  0  0  0  0  0
  -25.2764   -9.5709   22.4736 H   0  0  0  0  0  0
  -24.0014   -7.4644   22.7464 H   0  0  0  0  0  0
  -21.0840   -8.8751   19.8949 H   0  0  0  0  0  0
  -22.3670  -10.9665   19.6143 H   0  0  0  0  0  0
  -21.2017   -7.6149   23.9699 H   0  0  0  0  0  0
  -21.1486   -6.0526   25.9066 H   0  0  0  0  0  0
  -22.0603   -2.7605   23.2833 H   0  0  0  0  0  0
  -22.4136  -11.9878   22.4802 H   0  0  0  0  0  0
  -21.1093  -13.1207   22.2638 H   0  0  0  0  0  0
  -24.6739  -15.8632   20.5624 H   0  0  0  0  0  0
  -26.3060  -15.6299   20.1737 H   0  0  0  0  0  0
  -26.7166  -32.5480   23.1152 H   0  0  0  0  0  0
  -25.0081  -33.9742   25.0468 H   0  0  0  0  0  0
  -22.7067  -31.3107   21.4063 H   0  0  0  0  0  0
  -23.3737  -35.9637   23.3303 H   0  0  0  0  0  0
  -24.3579  -36.8891   22.2058 H   0  0  0  0  0  0
  -23.7224  -37.6498   23.6651 H   0  0  0  0  0  0
  -26.0806  -31.5699   20.6056 H   0  0  0  0  0  0
  -26.8350  -30.8530   22.0003 H   0  0  0  0  0  0
  -28.1069  -29.0052   21.2028 H   0  0  0  0  0  0
  -26.0044  -25.9869   18.9354 H   0  0  0  0  0  0
  -23.9741  -27.3309   18.9862 H   0  0  0  0  0  0
  -23.7409  -30.6030   19.4030 H   0  0  0  0  0  0
  -22.7475  -29.2537   19.8575 H   0  0  0  0  0  0
  -25.1285  -36.1960   25.0839 H   0  0  0  0  0  0
  -21.0019  -28.3258   24.1390 H   0  0  0  0  0  0
  -20.5657  -26.2313   23.3597 H   0  0  0  0  0  0
  -21.6659  -26.7441   22.1220 H   0  0  0  0  0  0
  -19.6896  -25.6295   21.1248 H   0  0  0  0  0  0
  -19.6676  -27.3197   20.6722 H   0  0  0  0  0  0
  -17.4209  -26.6702   21.4023 H   0  0  0  0  0  0
  -18.0346  -26.0053   22.9006 H   0  0  0  0  0  0
  -19.7938  -30.7305   24.2260 H   0  0  0  0  0  0
  -17.5008  -31.6267   24.5192 H   0  0  0  0  0  0
  -15.5360  -30.3007   23.7633 H   0  0  0  0  0  0
  -15.8681  -28.0834   22.7067 H   0  0  0  0  0  0
  -24.5895  -30.7063   25.7794 H   0  0  0  0  0  0
  -24.8917  -32.2883   26.4894 H   0  0  0  0  0  0
  -25.8056  -30.8894   27.0227 H   0  0  0  0  0  0
  -26.2909  -29.6762   24.1174 H   0  0  0  0  0  0
  -27.4044  -29.7259   25.4624 H   0  0  0  0  0  0
  -27.8751  -30.4309   23.9355 H   0  0  0  0  0  0
  -27.2685  -33.3614   26.2050 H   0  0  0  0  0  0
  -28.3862  -32.6833   25.0309 H   0  0  0  0  0  0
  -28.0710  -31.8430   26.5391 H   0  0  0  0  0  0
  -28.2620  -38.0097   24.7528 H   0  0  0  0  0  0
  -28.1065  -36.2634   24.6289 H   0  0  0  0  0  0
  -27.2317  -37.1457   25.8877 H   0  0  0  0  0  0
  -20.9328  -29.8773   21.6904 H   0  0  0  0  0  0
  -26.0169  -38.2860   24.1403 H   0  0  0  0  0  0
  -28.4875  -26.6860   25.2081 H   0  0  0  0  0  0
  -31.2325  -22.0384   20.7596 H   0  0  0  0  0  0
  -32.1566  -19.7658   20.9080 H   0  0  0  0  0  0
  -29.3848  -26.7160   22.7886 H   0  0  0  0  0  0
  -28.2342  -18.0425   20.7111 H   0  0  0  0  0  0
  -26.3392  -25.1307   25.4549 H   0  0  0  0  0  0
  -27.0619  -24.7775   20.3100 H   0  0  0  0  0  0
  -26.4094  -19.5253   20.6938 H   0  0  0  0  0  0
  -26.5250  -21.1518   21.0406 H   0  0  0  0  0  0
  -27.5292  -22.6837   20.7255 H   0  0  0  0  0  0
  1 25  1  0  0  0
  1 30  2  0  0  0
  1 83  1  0  0  0
  2  3  1  0  0  0
  2 25  1  0  0  0
  2 91  1  0  0  0
  2 92  1  0  0  0
  3  4  1  0  0  0
  3 93  1  0  0  0
  3 94  1  0  0  0
  4  5  1  0  0  0
  4 95  1  0  0  0
  4 96  1  0  0  0
  5  6  1  0  0  0
  5 26  1  0  0  0
  5 97  1  0  0  0
  6 25  1  0  0  0
  6 98  1  0  0  0
  6 99  1  0  0  0
  7  8  2  0  0  0
  7 26  1  0  0  0
  7 29  1  0  0  0
  8  9  1  0  0  0
  8 22  1  0  0  0
  9 10  1  0  0  0
  9 27  2  0  0  0
 10 11  2  0  0  0
 10 15  1  0  0  0
 11 12  1  0  0  0
 11100  1  0  0  0
 12 13  2  0  0  0
 12101  1  0  0  0
 13 14  1  0  0  0
 13 31  1  0  0  0
 14 15  2  0  0  0
 14102  1  0  0  0
 15103  1  0  0  0
 16 17  2  0  0  0
 16 21  1  0  0  0
 16 31  1  0  0  0
 17 18  1  0  0  0
 17104  1  0  0  0
 18 19  2  0  0  0
 18105  1  0  0  0
 19 20  1  0  0  0
 19 24  1  0  0  0
 20 21  2  0  0  0
 20106  1  0  0  0
 21 23  1  0  0  0
 22 28  1  0  0  0
 22 32  2  0  0  0
 26 27  1  0  0  0
 28107  1  0  0  0
 28108  1  0  0  0
 29109  1  0  0  0
 29110  1  0  0  0
 33 34  1  0  0  0
 33 66  1  0  0  0
 33 70  2  0  0  0
 34 36  1  0  0  0
 34 59  1  0  0  0
 34111  1  0  0  0
 35 44  2  0  0  0
 35 45  1  0  0  0
 35 68  1  0  0  0
 36 56  1  0  0  0
 36112  1  0  0  0
 37 39  1  0  0  0
 37 47  1  0  0  0
 37 66  1  0  0  0
 37113  1  0  0  0
 38 43  2  0  0  0
 38 46  1  0  0  0
 38 47  1  0  0  0
 39 64  1  0  0  0
 39 67  2  0  0  0
 40 52  1  0  0  0
 40 53  2  0  0  0
 40 58  1  0  0  0
 41114  1  0  0  0
 41115  1  0  0  0
 41116  1  0  0  0
 41 48  1  0  0  0
 42 43  1  0  0  0
 42 66  1  0  0  0
 42117  1  0  0  0
 42118  1  0  0  0
 43 44  1  0  0  0
 44119  1  0  0  0
 45 46  2  0  0  0
 45120  1  0  0  0
 46121  1  0  0  0
 47122  1  0  0  0
 47123  1  0  0  0
 48 56  1  0  0  0
 48 65  1  0  0  0
 48124  1  0  0  0
 49 50  1  0  0  0
 49 53  1  0  0  0
 49 64  1  0  0  0
 49125  1  0  0  0
 50 51  1  0  0  0
 50126  1  0  0  0
 50127  1  0  0  0
 51 52  1  0  0  0
 51128  1  0  0  0
 51129  1  0  0  0
 52130  1  0  0  0
 52131  1  0  0  0
 53 54  1  0  0  0
 54 55  2  0  0  0
 54132  1  0  0  0
 55 57  1  0  0  0
 55133  1  0  0  0
 56 69  2  0  0  0
 57 58  2  0  0  0
 57134  1  0  0  0
 58135  1  0  0  0
 59 60  1  0  0  0
 59 61  1  0  0  0
 59 62  1  0  0  0
 60136  1  0  0  0
 60137  1  0  0  0
 60138  1  0  0  0
 61139  1  0  0  0
 61140  1  0  0  0
 61141  1  0  0  0
 62142  1  0  0  0
 62143  1  0  0  0
 62144  1  0  0  0
 63 65  1  0  0  0
 63145  1  0  0  0
 63146  1  0  0  0
 63147  1  0  0  0
 64148  1  0  0  0
 65149  1  0  0  0
 68 82  1  0  0  0
 71 74  1  0  0  0
 71 76  2  0  0  0
 71150  1  0  0  0
 72 73  2  0  0  0
 72 77  1  0  0  0
 72151  1  0  0  0
 73 79  1  0  0  0
 73152  1  0  0  0
 74 80  2  0  0  0
 74153  1  0  0  0
 75 78  1  0  0  0
 75 79  2  0  0  0
 75154  1  0  0  0
 76 89  1  0  0  0
 76155  1  0  0  0
 77 78  2  0  0  0
 77 85  1  0  0  0
 78 84  1  0  0  0
 79 90  1  0  0  0
 80 82  1  0  0  0
 80 89  1  0  0  0
 81 82  1  0  0  0
 81 85  1  0  0  0
 81 86  2  0  0  0
 82156  1  0  0  0
 83 90  1  0  0  0
 84157  1  0  0  0
 84158  1  0  0  0
 85159  1  0  0  0
 87 90  2  0  0  0
 88 90  2  0  0  0
M  CHG  1  83  -1
M  ISO  4   1 100  68 101  82 101  83 100
M  END
> <chiral flag>
0

> <version>
0

> <s_m_source_file>
/data/baiqing/PycharmProjects/Reinvent-master-3.2/result/LINK_invent/BTK/process_docking_weight1_custom_product_contain_oxygen_bond_distance_aromatic_linkinvent_7_9_3/rearranged_h_0092.sdf

> <i_m_source_file_index>
29

> <r_mmod_Potential_Energy-OPLS-2005>
-354.382354736328

> <r_mmod_Stretch_Energy-OPLS-2005>
68.3379592895508

> <r_mmod_Bend_Energy-OPLS-2005>
177.083862304688

> <r_mmod_Torsional_Energy-OPLS-2005>
208.704833984375

> <r_mmod_Improper_Torsional_Energy-OPLS-2005>
6.28461742401123

> <r_mmod_Van_der_Waal_Energy-OPLS-2005>
140.837478637695

> <r_mmod_Electrostatic_Energy-OPLS-2005>
-516.148864746094

> <r_mmod_Solvation_Energy-OPLS-2005>
-489.689544677734

> <b_mmod_Minimization_Converged-OPLS-2005>
0

> <r_mmod_RMS_Derivative-OPLS-2005>
2.47310447692871

$$$$
29
                    3D
 Structure written by MMmdl.
159168  0  0  1  0            999 V2000
  -30.6363  -14.6850   20.5908 C   0  0  0  0  0  0
  -30.4325  -12.4488   19.4656 C   0  0  0  0  0  0
  -29.5080  -12.5337   18.2311 C   0  0  0  0  0  0
  -28.0346  -12.3466   18.6373 C   0  0  0  0  0  0
  -27.6455  -13.2223   19.8544 C   0  0  2  0  0  0
  -28.6771  -13.0955   20.9896 C   0  0  0  0  0  0
  -25.2530  -13.8179   20.5664 C   0  0  0  0  0  0
  -24.1807  -13.0436   20.9169 C   0  0  0  0  0  0
  -24.6387  -11.6909   20.8723 C   0  0  0  0  0  0
  -23.9063  -10.4298   21.0396 C   0  0  0  0  0  0
  -24.3621   -9.4217   21.9178 C   0  0  0  0  0  0
  -23.6304   -8.2248   22.0755 C   0  0  0  0  0  0
  -22.4284   -8.0283   21.3541 C   0  0  0  0  0  0
  -21.9911   -9.0251   20.4644 C   0  0  0  0  0  0
  -22.7233  -10.2136   20.3051 C   0  0  0  0  0  0
  -21.6856   -6.0739   22.5279 C   0  0  0  0  0  0
  -21.4012   -6.5641   23.8210 C   0  0  0  0  0  0
  -21.3660   -5.6793   24.9175 C   0  0  0  0  0  0
  -21.6047   -4.3057   24.7224 C   0  0  0  0  0  0
  -21.8820   -3.8149   23.4343 C   0  0  0  0  0  0
  -21.9195   -4.6966   22.3402 C   0  0  0  0  0  0
  -22.7833  -13.5224   21.1856 C   0  0  0  0  0  0
  -22.1661   -4.2153   21.0979 F   0  0  0  0  0  0
  -21.5636   -3.4544   25.7737 F   0  0  0  0  0  0
  -29.9951  -13.4693   20.4484 N   0  0  0  0  0  0
  -26.2936  -12.9362   20.3242 N   0  0  0  0  0  0
  -25.9304  -11.6511   20.5699 N   0  0  0  0  0  0
  -22.0492  -12.8208   22.0418 N   0  0  0  0  0  0
  -25.4270  -15.1898   20.4123 N   0  0  0  0  0  0
  -31.7261  -14.8730   20.0394 O   0  0  0  0  0  0
  -21.6643   -6.8883   21.4240 O   0  0  0  0  0  0
  -22.3515  -14.5541   20.6734 O   0  0  0  0  0  0
  -24.6294  -31.8560   23.1987 C   0  0  0  0  0  0
  -25.9131  -32.4754   23.8323 C   0  0  1  0  0  0
  -27.2182  -27.2788   20.1118 C   0  0  0  0  0  0
  -25.5941  -33.8560   24.2253 N   0  0  0  0  0  0
  -23.4235  -30.4788   21.5423 C   0  0  2  0  0  0
  -24.8671  -28.9258   20.1076 C   0  0  0  0  0  0
  -22.7471  -29.4612   22.4930 C   0  0  0  0  0  0
  -18.0272  -28.1381   22.8494 C   0  0  0  0  0  0
  -24.1484  -36.7275   23.2632 C   0  0  0  0  0  0
  -25.9668  -30.7732   21.3733 C   0  0  0  0  0  0
  -26.0364  -29.3968   20.7158 C   0  0  0  0  0  0
  -27.2110  -28.5826   20.7108 C   0  0  0  0  0  0
  -26.0191  -26.8621   19.4915 C   0  0  0  0  0  0
  -24.8623  -27.6662   19.4886 C   0  0  0  0  0  0
  -23.6372  -29.8111   20.1584 C   0  0  0  0  0  0
  -25.4107  -36.3063   24.0323 C   0  0  1  0  0  0
  -20.5873  -28.3699   23.1283 C   0  0  2  0  0  0
  -20.6769  -26.9413   22.5425 C   0  0  0  0  0  0
  -19.5744  -26.6382   21.5227 C   0  0  0  0  0  0
  -18.1917  -26.7931   22.1619 C   0  0  0  0  0  0
  -19.1522  -28.8852   23.2892 C   0  0  0  0  0  0
  -18.9450  -30.1454   23.8915 C   0  0  0  0  0  0
  -17.6453  -30.6594   24.0564 C   0  0  0  0  0  0
  -25.9063  -34.9439   23.5086 C   0  0  0  0  0  0
  -16.5348  -29.9090   23.6334 C   0  0  0  0  0  0
  -16.7262  -28.6498   23.0373 C   0  0  0  0  0  0
  -26.4493  -31.6580   25.0715 C   0  0  0  0  0  0
  -25.3715  -31.3737   26.1442 C   0  0  0  0  0  0
  -27.0324  -30.2980   24.6205 C   0  0  0  0  0  0
  -27.6070  -32.4305   25.7473 C   0  0  0  0  0  0
  -27.5593  -37.1754   24.8430 C   0  0  0  0  0  0
  -21.4181  -29.3050   22.3672 N   0  0  0  0  0  0
  -26.4260  -37.3787   23.9451 N   0  0  0  0  0  0
  -24.6928  -31.0541   22.0953 N   0  0  0  0  0  0
  -23.4178  -28.8160   23.3030 O   0  0  0  0  0  0
  -28.3403  -26.4284   20.1887 O   0  0  0  0  0  0
  -26.5642  -34.8914   22.4664 O   0  0  0  0  0  0
  -23.5454  -32.1381   23.7299 O   0  0  0  0  0  0
  -29.5417  -19.4679   21.9586 C   0  0  0  0  0  0
  -29.8654  -18.0926   22.1390 C   0  0  0  0  0  0
  -27.5811  -23.3522   21.2529 C   0  0  0  0  0  0
  -29.4468  -17.6726   19.8296 C   0  0  0  0  0  0
  -28.4078  -23.7213   20.1532 C   0  0  0  0  0  0
  -29.1229  -20.0149   20.7192 C   0  0  0  0  0  0
  -29.8220  -17.1172   21.0936 C   0  0  0  0  0  0
  -29.1004  -19.0648   19.6469 C   0  0  0  0  0  0
  -29.0602  -22.5213   19.8107 C   0  0  0  0  0  0
  -27.7515  -22.0163   21.5149 C   0  0  0  0  0  0
  -30.0434  -22.2884   18.7073 C   0  0  0  0  0  0
  -30.1256  -15.3186   22.8281 C   0  0  0  0  0  0
  -28.4677  -25.1430   19.4409 C   0  0  0  0  0  0
  -28.6809  -21.4347   20.6546 N   0  0  0  0  0  0
  -30.0663  -15.6667   21.3943 N   0  0  0  0  0  0
  -27.1215  -21.2713   22.4629 O   0  0  0  0  0  0
  -28.7058  -19.4698   18.4152 F   0  0  0  0  0  0
  -31.4725  -12.5849   19.1661 H   0  0  0  0  0  0
  -30.3837  -11.4551   19.9129 H   0  0  0  0  0  0
  -29.7918  -11.7828   17.4937 H   0  0  0  0  0  0
  -29.6336  -13.5019   17.7465 H   0  0  0  0  0  0
  -27.8875  -11.2926   18.8780 H   0  0  0  0  0  0
  -27.3770  -12.5585   17.7932 H   0  0  0  0  0  0
  -27.6622  -14.2562   19.5093 H   0  0  0  0  0  0
  -28.7030  -12.0770   21.3785 H   0  0  0  0  0  0
  -28.3607  -13.7216   21.8216 H   0  0  0  0  0  0
  -25.2766   -9.5696   22.4744 H   0  0  0  0  0  0
  -24.0019   -7.4640   22.7472 H   0  0  0  0  0  0
  -21.0846   -8.8768   19.8945 H   0  0  0  0  0  0
  -22.3693  -10.9673   19.6165 H   0  0  0  0  0  0
  -21.1998   -7.6147   23.9718 H   0  0  0  0  0  0
  -21.1479   -6.0522   25.9078 H   0  0  0  0  0  0
  -22.0599   -2.7610   23.2847 H   0  0  0  0  0  0
  -22.4117  -11.9857   22.4767 H   0  0  0  0  0  0
  -21.1112  -13.1224   22.2653 H   0  0  0  0  0  0
  -24.6698  -15.8518   20.5396 H   0  0  0  0  0  0
  -26.2915  -15.6277   20.1186 H   0  0  0  0  0  0
  -26.7201  -32.5398   23.1068 H   0  0  0  0  0  0
  -25.0089  -33.9707   25.0398 H   0  0  0  0  0  0
  -22.7199  -31.3017   21.3980 H   0  0  0  0  0  0
  -23.3778  -35.9567   23.3208 H   0  0  0  0  0  0
  -24.3611  -36.8992   22.2072 H   0  0  0  0  0  0
  -23.7181  -37.6419   23.6720 H   0  0  0  0  0  0
  -26.1028  -31.5336   20.6029 H   0  0  0  0  0  0
  -26.8469  -30.8224   22.0032 H   0  0  0  0  0  0
  -28.1080  -28.9387   21.1976 H   0  0  0  0  0  0
  -25.9316  -25.8889   19.0346 H   0  0  0  0  0  0
  -23.9622  -27.2965   19.0174 H   0  0  0  0  0  0
  -23.7542  -30.5874   19.4006 H   0  0  0  0  0  0
  -22.7548  -29.2422   19.8589 H   0  0  0  0  0  0
  -25.1272  -36.1887   25.0806 H   0  0  0  0  0  0
  -20.9977  -28.3290   24.1399 H   0  0  0  0  0  0
  -20.5666  -26.2315   23.3636 H   0  0  0  0  0  0
  -21.6642  -26.7437   22.1227 H   0  0  0  0  0  0
  -19.6919  -25.6296   21.1253 H   0  0  0  0  0  0
  -19.6685  -27.3202   20.6767 H   0  0  0  0  0  0
  -17.4197  -26.6703   21.4003 H   0  0  0  0  0  0
  -18.0289  -26.0054   22.8987 H   0  0  0  0  0  0
  -19.7931  -30.7262   24.2299 H   0  0  0  0  0  0
  -17.5007  -31.6271   24.5164 H   0  0  0  0  0  0
  -15.5350  -30.3001   23.7649 H   0  0  0  0  0  0
  -15.8658  -28.0820   22.7104 H   0  0  0  0  0  0
  -24.5963  -30.6982   25.7804 H   0  0  0  0  0  0
  -24.8812  -32.2894   26.4759 H   0  0  0  0  0  0
  -25.8048  -30.9039   27.0277 H   0  0  0  0  0  0
  -26.2891  -29.6743   24.1227 H   0  0  0  0  0  0
  -27.3982  -29.7245   25.4732 H   0  0  0  0  0  0
  -27.8779  -30.4249   23.9445 H   0  0  0  0  0  0
  -27.2720  -33.3645   26.2001 H   0  0  0  0  0  0
  -28.3894  -32.6797   25.0292 H   0  0  0  0  0  0
  -28.0709  -31.8448   26.5417 H   0  0  0  0  0  0
  -28.2494  -38.0163   24.7655 H   0  0  0  0  0  0
  -28.1194  -36.2714   24.6002 H   0  0  0  0  0  0
  -27.2355  -37.1107   25.8829 H   0  0  0  0  0  0
  -20.9359  -29.8773   21.6880 H   0  0  0  0  0  0
  -26.0113  -38.2817   24.1583 H   0  0  0  0  0  0
  -29.5773  -20.1167   22.8217 H   0  0  0  0  0  0
  -30.1329  -17.8119   23.1457 H   0  0  0  0  0  0
  -26.9063  -24.0094   21.7840 H   0  0  0  0  0  0
  -29.3747  -17.0195   18.9728 H   0  0  0  0  0  0
  -30.5713  -23.2039   18.4425 H   0  0  0  0  0  0
  -29.5385  -21.9238   17.8122 H   0  0  0  0  0  0
  -30.7954  -21.5523   18.9921 H   0  0  0  0  0  0
  -30.9883  -15.7886   23.3015 H   0  0  0  0  0  0
  -30.2211  -14.2495   23.0290 H   0  0  0  0  0  0
  -29.2214  -15.6500   23.3409 H   0  0  0  0  0  0
  -27.8132  -25.1151   18.5716 H   0  0  0  0  0  0
  -29.4617  -25.1976   18.9987 H   0  0  0  0  0  0
  -26.4864  -21.8326   22.8956 H   0  0  0  0  0  0
  1 25  1  0  0  0
  1 30  2  0  0  0
  1 85  1  0  0  0
  2  3  1  0  0  0
  2 25  1  0  0  0
  2 88  1  0  0  0
  2 89  1  0  0  0
  3  4  1  0  0  0
  3 90  1  0  0  0
  3 91  1  0  0  0
  4  5  1  0  0  0
  4 92  1  0  0  0
  4 93  1  0  0  0
  5  6  1  0  0  0
  5 26  1  0  0  0
  5 94  1  0  0  0
  6 25  1  0  0  0
  6 95  1  0  0  0
  6 96  1  0  0  0
  7  8  2  0  0  0
  7 26  1  0  0  0
  7 29  1  0  0  0
  8  9  1  0  0  0
  8 22  1  0  0  0
  9 10  1  0  0  0
  9 27  2  0  0  0
 10 11  2  0  0  0
 10 15  1  0  0  0
 11 12  1  0  0  0
 11 97  1  0  0  0
 12 13  2  0  0  0
 12 98  1  0  0  0
 13 14  1  0  0  0
 13 31  1  0  0  0
 14 15  2  0  0  0
 14 99  1  0  0  0
 15100  1  0  0  0
 16 17  2  0  0  0
 16 21  1  0  0  0
 16 31  1  0  0  0
 17 18  1  0  0  0
 17101  1  0  0  0
 18 19  2  0  0  0
 18102  1  0  0  0
 19 20  1  0  0  0
 19 24  1  0  0  0
 20 21  2  0  0  0
 20103  1  0  0  0
 21 23  1  0  0  0
 22 28  1  0  0  0
 22 32  2  0  0  0
 26 27  1  0  0  0
 28104  1  0  0  0
 28105  1  0  0  0
 29106  1  0  0  0
 29107  1  0  0  0
 33 34  1  0  0  0
 33 66  1  0  0  0
 33 70  2  0  0  0
 34 36  1  0  0  0
 34 59  1  0  0  0
 34108  1  0  0  0
 35 44  2  0  0  0
 35 45  1  0  0  0
 35 68  1  0  0  0
 36 56  1  0  0  0
 36109  1  0  0  0
 37 39  1  0  0  0
 37 47  1  0  0  0
 37 66  1  0  0  0
 37110  1  0  0  0
 38 43  2  0  0  0
 38 46  1  0  0  0
 38 47  1  0  0  0
 39 64  1  0  0  0
 39 67  2  0  0  0
 40 52  1  0  0  0
 40 53  2  0  0  0
 40 58  1  0  0  0
 41111  1  0  0  0
 41112  1  0  0  0
 41113  1  0  0  0
 41 48  1  0  0  0
 42 43  1  0  0  0
 42 66  1  0  0  0
 42114  1  0  0  0
 42115  1  0  0  0
 43 44  1  0  0  0
 44116  1  0  0  0
 45 46  2  0  0  0
 45117  1  0  0  0
 46118  1  0  0  0
 47119  1  0  0  0
 47120  1  0  0  0
 48 56  1  0  0  0
 48 65  1  0  0  0
 48121  1  0  0  0
 49 50  1  0  0  0
 49 53  1  0  0  0
 49 64  1  0  0  0
 49122  1  0  0  0
 50 51  1  0  0  0
 50123  1  0  0  0
 50124  1  0  0  0
 51 52  1  0  0  0
 51125  1  0  0  0
 51126  1  0  0  0
 52127  1  0  0  0
 52128  1  0  0  0
 53 54  1  0  0  0
 54 55  2  0  0  0
 54129  1  0  0  0
 55 57  1  0  0  0
 55130  1  0  0  0
 56 69  2  0  0  0
 57 58  2  0  0  0
 57131  1  0  0  0
 58132  1  0  0  0
 59 60  1  0  0  0
 59 61  1  0  0  0
 59 62  1  0  0  0
 60133  1  0  0  0
 60134  1  0  0  0
 60135  1  0  0  0
 61136  1  0  0  0
 61137  1  0  0  0
 61138  1  0  0  0
 62139  1  0  0  0
 62140  1  0  0  0
 62141  1  0  0  0
 63 65  1  0  0  0
 63142  1  0  0  0
 63143  1  0  0  0
 63144  1  0  0  0
 64145  1  0  0  0
 65146  1  0  0  0
 68 83  1  0  0  0
 71 72  2  0  0  0
 71 76  1  0  0  0
 71147  1  0  0  0
 72 77  1  0  0  0
 72148  1  0  0  0
 73 75  1  0  0  0
 73 80  2  0  0  0
 73149  1  0  0  0
 74 77  2  0  0  0
 74 78  1  0  0  0
 74150  1  0  0  0
 75 79  2  0  0  0
 75 83  1  0  0  0
 76 78  2  0  0  0
 76 84  1  0  0  0
 77 85  1  0  0  0
 78 87  1  0  0  0
 79 81  1  0  0  0
 79 84  1  0  0  0
 80 84  1  0  0  0
 80 86  1  0  0  0
 81151  1  0  0  0
 81152  1  0  0  0
 81153  1  0  0  0
 82 85  1  0  0  0
 82154  1  0  0  0
 82155  1  0  0  0
 82156  1  0  0  0
 83157  1  0  0  0
 83158  1  0  0  0
 86159  1  0  0  0
M  ISO  4   1 100  68 101  83 101  85 100
M  END
> <chiral flag>
0

> <version>
0

> <s_m_source_file>
/data/baiqing/PycharmProjects/Reinvent-master-3.2/result/LINK_invent/BTK/process_docking_weight1_custom_product_contain_oxygen_bond_distance_aromatic_linkinvent_7_9_3/rearranged_h_0092.sdf

> <i_m_source_file_index>
30

> <r_mmod_Potential_Energy-OPLS-2005>
301.920227050781

> <r_mmod_Stretch_Energy-OPLS-2005>
114.263832092285

> <r_mmod_Bend_Energy-OPLS-2005>
174.627883911133

> <r_mmod_Torsional_Energy-OPLS-2005>
290.214263916016

> <r_mmod_Improper_Torsional_Energy-OPLS-2005>
3.67681980133057

> <r_mmod_Van_der_Waal_Energy-OPLS-2005>
145.533828735352

> <r_mmod_Electrostatic_Energy-OPLS-2005>
-291.217102050781

> <r_mmod_Solvation_Energy-OPLS-2005>
-200.198577880859

> <b_mmod_Minimization_Converged-OPLS-2005>
0

> <r_mmod_RMS_Derivative-OPLS-2005>
1.71251690387726

$$$$
30
                    3D
 Structure written by MMmdl.
161170  0  0  1  0            999 V2000
  -30.7038  -14.6594   20.6004 C   0  0  0  0  0  0
  -30.4296  -12.4351   19.4788 C   0  0  0  0  0  0
  -29.5107  -12.5318   18.2429 C   0  0  0  0  0  0
  -28.0393  -12.3488   18.6506 C   0  0  0  0  0  0
  -27.6519  -13.2325   19.8631 C   0  0  2  0  0  0
  -28.6883  -13.1334   21.0029 C   0  0  0  0  0  0
  -25.2559  -13.8207   20.5722 C   0  0  0  0  0  0
  -24.1823  -13.0451   20.9181 C   0  0  0  0  0  0
  -24.6419  -11.6927   20.8712 C   0  0  0  0  0  0
  -23.9102  -10.4296   21.0377 C   0  0  0  0  0  0
  -24.3641   -9.4211   21.9164 C   0  0  0  0  0  0
  -23.6313   -8.2246   22.0734 C   0  0  0  0  0  0
  -22.4296   -8.0277   21.3528 C   0  0  0  0  0  0
  -21.9942   -9.0254   20.4632 C   0  0  0  0  0  0
  -22.7266  -10.2134   20.3035 C   0  0  0  0  0  0
  -21.6857   -6.0748   22.5283 C   0  0  0  0  0  0
  -21.4017   -6.5644   23.8211 C   0  0  0  0  0  0
  -21.3660   -5.6790   24.9173 C   0  0  0  0  0  0
  -21.6034   -4.3055   24.7226 C   0  0  0  0  0  0
  -21.8808   -3.8160   23.4347 C   0  0  0  0  0  0
  -21.9193   -4.6978   22.3403 C   0  0  0  0  0  0
  -22.7847  -13.5234   21.1862 C   0  0  0  0  0  0
  -22.1656   -4.2158   21.0984 F   0  0  0  0  0  0
  -21.5642   -3.4536   25.7745 F   0  0  0  0  0  0
  -30.0163  -13.4690   20.4578 N   0  0  0  0  0  0
  -26.2992  -12.9424   20.3321 N   0  0  0  0  0  0
  -25.9360  -11.6568   20.5746 N   0  0  0  0  0  0
  -22.0509  -12.8200   22.0412 N   0  0  0  0  0  0
  -25.4296  -15.1925   20.4233 N   0  0  0  0  0  0
  -31.7811  -14.8209   20.0179 O   0  0  0  0  0  0
  -21.6643   -6.8890   21.4241 O   0  0  0  0  0  0
  -22.3509  -14.5538   20.6730 O   0  0  0  0  0  0
  -24.6301  -31.8563   23.2031 C   0  0  0  0  0  0
  -25.9136  -32.4764   23.8351 C   0  0  1  0  0  0
  -27.2259  -27.2844   20.1171 C   0  0  0  0  0  0
  -25.5941  -33.8564   24.2270 N   0  0  0  0  0  0
  -23.4250  -30.4818   21.5470 C   0  0  2  0  0  0
  -24.8735  -28.9406   20.1090 C   0  0  0  0  0  0
  -22.7484  -29.4617   22.4936 C   0  0  0  0  0  0
  -18.0284  -28.1385   22.8493 C   0  0  0  0  0  0
  -24.1485  -36.7287   23.2632 C   0  0  0  0  0  0
  -25.9706  -30.7766   21.3808 C   0  0  0  0  0  0
  -26.0464  -29.4031   20.7193 C   0  0  0  0  0  0
  -27.2245  -28.5889   20.7147 C   0  0  0  0  0  0
  -26.0265  -26.8984   19.4670 C   0  0  0  0  0  0
  -24.8681  -27.6938   19.4733 C   0  0  0  0  0  0
  -23.6410  -29.8212   20.1617 C   0  0  0  0  0  0
  -25.4110  -36.3077   24.0324 C   0  0  1  0  0  0
  -20.5884  -28.3696   23.1276 C   0  0  2  0  0  0
  -20.6768  -26.9409   22.5415 C   0  0  0  0  0  0
  -19.5748  -26.6379   21.5215 C   0  0  0  0  0  0
  -18.1929  -26.7931   22.1623 C   0  0  0  0  0  0
  -19.1535  -28.8860   23.2878 C   0  0  0  0  0  0
  -18.9458  -30.1462   23.8892 C   0  0  0  0  0  0
  -17.6461  -30.6594   24.0566 C   0  0  0  0  0  0
  -25.9054  -34.9449   23.5100 C   0  0  0  0  0  0
  -16.5352  -29.9093   23.6335 C   0  0  0  0  0  0
  -16.7273  -28.6505   23.0365 C   0  0  0  0  0  0
  -26.4502  -31.6576   25.0730 C   0  0  0  0  0  0
  -25.3731  -31.3710   26.1451 C   0  0  0  0  0  0
  -27.0349  -30.2997   24.6209 C   0  0  0  0  0  0
  -27.6055  -32.4315   25.7504 C   0  0  0  0  0  0
  -27.5596  -37.1774   24.8443 C   0  0  0  0  0  0
  -21.4193  -29.3055   22.3674 N   0  0  0  0  0  0
  -26.4273  -37.3791   23.9438 N   0  0  0  0  0  0
  -24.6942  -31.0540   22.1008 N   0  0  0  0  0  0
  -23.4185  -28.8149   23.3027 O   0  0  0  0  0  0
  -28.3130  -26.3776   20.1910 O   0  0  0  0  0  0
  -26.5629  -34.8920   22.4667 O   0  0  0  0  0  0
  -23.5463  -32.1391   23.7337 O   0  0  0  0  0  0
  -29.2587  -19.1035   19.8850 C   0  0  0  0  0  0
  -30.6987  -19.4812   21.7532 C   0  0  0  0  0  0
  -29.3904  -17.6810   20.0688 C   0  0  0  0  0  0
  -30.8306  -18.0722   21.9363 C   0  0  0  0  0  0
  -30.3674  -23.7552   20.5341 C   0  0  0  0  0  0
  -28.9645  -23.7279   20.2817 C   0  0  0  0  0  0
  -29.9016  -20.0606   20.7283 C   0  0  0  0  0  0
  -30.1724  -17.1071   21.1156 C   0  0  0  0  0  0
  -30.8271  -22.4669   20.6965 C   0  0  0  0  0  0
  -28.6680  -22.3578   20.3185 C   0  0  0  0  0  0
  -29.6006  -16.6483   24.8588 C   0  0  0  0  0  0
  -29.3173  -15.9336   23.7585 C   0  0  0  0  0  0
  -27.9912  -24.9328   19.9632 C   0  0  0  0  0  0
  -30.3691  -15.2990   22.8642 C   0  0  0  0  0  0
  -29.7924  -21.5332   20.5802 N   0  0  0  0  0  0
  -30.2129  -15.6512   21.4341 N   0  0  0  0  0  0
  -32.1111  -22.0707   20.9241 O   0  0  0  0  0  0
  -27.4542  -21.7648   20.1437 O   0  0  0  0  0  0
  -31.4723  -12.5407   19.1752 H   0  0  0  0  0  0
  -30.3604  -11.4483   19.9372 H   0  0  0  0  0  0
  -29.7919  -11.7794   17.5048 H   0  0  0  0  0  0
  -29.6448  -13.5020   17.7620 H   0  0  0  0  0  0
  -27.8947  -11.2969   18.8995 H   0  0  0  0  0  0
  -27.3839  -12.5586   17.8048 H   0  0  0  0  0  0
  -27.6618  -14.2622   19.5054 H   0  0  0  0  0  0
  -28.7033  -12.1295   21.4301 H   0  0  0  0  0  0
  -28.3870  -13.7993   21.8099 H   0  0  0  0  0  0
  -25.2771   -9.5713   22.4762 H   0  0  0  0  0  0
  -24.0016   -7.4652   22.7484 H   0  0  0  0  0  0
  -21.0857   -8.8800   19.8950 H   0  0  0  0  0  0
  -22.3718  -10.9695   19.6168 H   0  0  0  0  0  0
  -21.1994   -7.6148   23.9732 H   0  0  0  0  0  0
  -21.1497   -6.0516   25.9077 H   0  0  0  0  0  0
  -22.0586   -2.7626   23.2850 H   0  0  0  0  0  0
  -22.4126  -11.9833   22.4752 H   0  0  0  0  0  0
  -21.1140  -13.1231   22.2643 H   0  0  0  0  0  0
  -24.6696  -15.8536   20.5414 H   0  0  0  0  0  0
  -26.3035  -15.6356   20.1677 H   0  0  0  0  0  0
  -26.7198  -32.5430   23.1094 H   0  0  0  0  0  0
  -25.0072  -33.9688   25.0407 H   0  0  0  0  0  0
  -22.7223  -31.3051   21.4056 H   0  0  0  0  0  0
  -23.3775  -35.9581   23.3226 H   0  0  0  0  0  0
  -24.3595  -36.8987   22.2060 H   0  0  0  0  0  0
  -23.7179  -37.6444   23.6705 H   0  0  0  0  0  0
  -26.1095  -31.5405   20.6140 H   0  0  0  0  0  0
  -26.8478  -30.8215   22.0141 H   0  0  0  0  0  0
  -28.1188  -28.9402   21.2105 H   0  0  0  0  0  0
  -25.9366  -25.9552   18.9510 H   0  0  0  0  0  0
  -23.9718  -27.3325   18.9873 H   0  0  0  0  0  0
  -23.7604  -30.6015   19.4086 H   0  0  0  0  0  0
  -22.7586  -29.2529   19.8595 H   0  0  0  0  0  0
  -25.1271  -36.1920   25.0808 H   0  0  0  0  0  0
  -20.9975  -28.3275   24.1393 H   0  0  0  0  0  0
  -20.5670  -26.2294   23.3608 H   0  0  0  0  0  0
  -21.6639  -26.7431   22.1215 H   0  0  0  0  0  0
  -19.6910  -25.6292   21.1241 H   0  0  0  0  0  0
  -19.6691  -27.3186   20.6744 H   0  0  0  0  0  0
  -17.4192  -26.6689   21.4025 H   0  0  0  0  0  0
  -18.0326  -26.0060   22.9007 H   0  0  0  0  0  0
  -19.7937  -30.7282   24.2250 H   0  0  0  0  0  0
  -17.5017  -31.6271   24.5171 H   0  0  0  0  0  0
  -15.5351  -30.2998   23.7655 H   0  0  0  0  0  0
  -15.8675  -28.0825   22.7084 H   0  0  0  0  0  0
  -24.5929  -30.7028   25.7787 H   0  0  0  0  0  0
  -24.8895  -32.2864   26.4862 H   0  0  0  0  0  0
  -25.8060  -30.8909   27.0236 H   0  0  0  0  0  0
  -26.2931  -29.6747   24.1227 H   0  0  0  0  0  0
  -27.4018  -29.7258   25.4728 H   0  0  0  0  0  0
  -27.8813  -30.4271   23.9460 H   0  0  0  0  0  0
  -27.2673  -33.3633   26.2046 H   0  0  0  0  0  0
  -28.3885  -32.6839   25.0344 H   0  0  0  0  0  0
  -28.0695  -31.8456   26.5447 H   0  0  0  0  0  0
  -28.2522  -38.0168   24.7649 H   0  0  0  0  0  0
  -28.1184  -36.2705   24.6068 H   0  0  0  0  0  0
  -27.2340  -37.1188   25.8846 H   0  0  0  0  0  0
  -20.9361  -29.8775   21.6888 H   0  0  0  0  0  0
  -26.0148  -38.2837   24.1549 H   0  0  0  0  0  0
  -28.6403  -19.4627   19.0744 H   0  0  0  0  0  0
  -31.2266  -20.1316   22.4363 H   0  0  0  0  0  0
  -28.8388  -17.0283   19.4075 H   0  0  0  0  0  0
  -31.4469  -17.7486   22.7618 H   0  0  0  0  0  0
  -30.9828  -24.6437   20.5701 H   0  0  0  0  0  0
  -28.8174  -17.0749   25.4684 H   0  0  0  0  0  0
  -30.6205  -16.8203   25.1712 H   0  0  0  0  0  0
  -28.2837  -15.7793   23.4800 H   0  0  0  0  0  0
  -27.0754  -24.6985   20.5064 H   0  0  0  0  0  0
  -27.7670  -24.8173   18.9033 H   0  0  0  0  0  0
  -30.3045  -14.2212   23.0348 H   0  0  0  0  0  0
  -31.3693  -15.5741   23.2023 H   0  0  0  0  0  0
  -32.6586  -22.8503   20.9267 H   0  0  0  0  0  0
  -26.7926  -22.4449   20.0827 H   0  0  0  0  0  0
  1 25  1  0  0  0
  1 30  2  0  0  0
  1 86  1  0  0  0
  2  3  1  0  0  0
  2 25  1  0  0  0
  2 89  1  0  0  0
  2 90  1  0  0  0
  3  4  1  0  0  0
  3 91  1  0  0  0
  3 92  1  0  0  0
  4  5  1  0  0  0
  4 93  1  0  0  0
  4 94  1  0  0  0
  5  6  1  0  0  0
  5 26  1  0  0  0
  5 95  1  0  0  0
  6 25  1  0  0  0
  6 96  1  0  0  0
  6 97  1  0  0  0
  7  8  2  0  0  0
  7 26  1  0  0  0
  7 29  1  0  0  0
  8  9  1  0  0  0
  8 22  1  0  0  0
  9 10  1  0  0  0
  9 27  2  0  0  0
 10 11  2  0  0  0
 10 15  1  0  0  0
 11 12  1  0  0  0
 11 98  1  0  0  0
 12 13  2  0  0  0
 12 99  1  0  0  0
 13 14  1  0  0  0
 13 31  1  0  0  0
 14 15  2  0  0  0
 14100  1  0  0  0
 15101  1  0  0  0
 16 17  2  0  0  0
 16 21  1  0  0  0
 16 31  1  0  0  0
 17 18  1  0  0  0
 17102  1  0  0  0
 18 19  2  0  0  0
 18103  1  0  0  0
 19 20  1  0  0  0
 19 24  1  0  0  0
 20 21  2  0  0  0
 20104  1  0  0  0
 21 23  1  0  0  0
 22 28  1  0  0  0
 22 32  2  0  0  0
 26 27  1  0  0  0
 28105  1  0  0  0
 28106  1  0  0  0
 29107  1  0  0  0
 29108  1  0  0  0
 33 34  1  0  0  0
 33 66  1  0  0  0
 33 70  2  0  0  0
 34 36  1  0  0  0
 34 59  1  0  0  0
 34109  1  0  0  0
 35 44  2  0  0  0
 35 45  1  0  0  0
 35 68  1  0  0  0
 36 56  1  0  0  0
 36110  1  0  0  0
 37 39  1  0  0  0
 37 47  1  0  0  0
 37 66  1  0  0  0
 37111  1  0  0  0
 38 43  2  0  0  0
 38 46  1  0  0  0
 38 47  1  0  0  0
 39 64  1  0  0  0
 39 67  2  0  0  0
 40 52  1  0  0  0
 40 53  2  0  0  0
 40 58  1  0  0  0
 41112  1  0  0  0
 41113  1  0  0  0
 41114  1  0  0  0
 41 48  1  0  0  0
 42 43  1  0  0  0
 42 66  1  0  0  0
 42115  1  0  0  0
 42116  1  0  0  0
 43 44  1  0  0  0
 44117  1  0  0  0
 45 46  2  0  0  0
 45118  1  0  0  0
 46119  1  0  0  0
 47120  1  0  0  0
 47121  1  0  0  0
 48 56  1  0  0  0
 48 65  1  0  0  0
 48122  1  0  0  0
 49 50  1  0  0  0
 49 53  1  0  0  0
 49 64  1  0  0  0
 49123  1  0  0  0
 50 51  1  0  0  0
 50124  1  0  0  0
 50125  1  0  0  0
 51 52  1  0  0  0
 51126  1  0  0  0
 51127  1  0  0  0
 52128  1  0  0  0
 52129  1  0  0  0
 53 54  1  0  0  0
 54 55  2  0  0  0
 54130  1  0  0  0
 55 57  1  0  0  0
 55131  1  0  0  0
 56 69  2  0  0  0
 57 58  2  0  0  0
 57132  1  0  0  0
 58133  1  0  0  0
 59 60  1  0  0  0
 59 61  1  0  0  0
 59 62  1  0  0  0
 60134  1  0  0  0
 60135  1  0  0  0
 60136  1  0  0  0
 61137  1  0  0  0
 61138  1  0  0  0
 61139  1  0  0  0
 62140  1  0  0  0
 62141  1  0  0  0
 62142  1  0  0  0
 63 65  1  0  0  0
 63143  1  0  0  0
 63144  1  0  0  0
 63145  1  0  0  0
 64146  1  0  0  0
 65147  1  0  0  0
 68 83  1  0  0  0
 71 73  2  0  0  0
 71 77  1  0  0  0
 71148  1  0  0  0
 72 74  1  0  0  0
 72 77  2  0  0  0
 72149  1  0  0  0
 73 78  1  0  0  0
 73150  1  0  0  0
 74 78  2  0  0  0
 74151  1  0  0  0
 75 76  1  0  0  0
 75 79  2  0  0  0
 75152  1  0  0  0
 76 80  2  0  0  0
 76 83  1  0  0  0
 77 85  1  0  0  0
 78 86  1  0  0  0
 79 85  1  0  0  0
 79 87  1  0  0  0
 80 85  1  0  0  0
 80 88  1  0  0  0
 81 82  2  0  0  0
 81153  1  0  0  0
 81154  1  0  0  0
 82 84  1  0  0  0
 82155  1  0  0  0
 83156  1  0  0  0
 83157  1  0  0  0
 84 86  1  0  0  0
 84158  1  0  0  0
 84159  1  0  0  0
 87160  1  0  0  0
 88161  1  0  0  0
M  ISO  4   1 100  68 101  83 101  86 100
M  END
> <chiral flag>
0

> <version>
0

> <s_m_source_file>
/data/baiqing/PycharmProjects/Reinvent-master-3.2/result/LINK_invent/BTK/process_docking_weight1_custom_product_contain_oxygen_bond_distance_aromatic_linkinvent_7_9_3/rearranged_h_0092.sdf

> <i_m_source_file_index>
31

> <r_mmod_Potential_Energy-OPLS-2005>
305.764831542969

> <r_mmod_Stretch_Energy-OPLS-2005>
106.98802947998

> <r_mmod_Bend_Energy-OPLS-2005>
158.882873535156

> <r_mmod_Torsional_Energy-OPLS-2005>
297.049499511719

> <r_mmod_Improper_Torsional_Energy-OPLS-2005>
4.30582475662231

> <r_mmod_Van_der_Waal_Energy-OPLS-2005>
148.226318359375

> <r_mmod_Electrostatic_Energy-OPLS-2005>
-253.65852355957

> <r_mmod_Solvation_Energy-OPLS-2005>
-219.413864135742

> <b_mmod_Minimization_Converged-OPLS-2005>
0

> <r_mmod_RMS_Derivative-OPLS-2005>
2.11974763870239

$$$$
31
                    3D
 Structure written by MMmdl.
161170  0  0  1  0            999 V2000
  -30.6118  -14.7930   20.4394 C   0  0  0  0  0  0
  -30.4583  -12.5020   19.4785 C   0  0  0  0  0  0
  -29.5395  -12.5074   18.2429 C   0  0  0  0  0  0
  -28.0624  -12.3209   18.6438 C   0  0  0  0  0  0
  -27.6405  -13.2379   19.8270 C   0  0  2  0  0  0
  -28.6806  -13.2274   20.9656 C   0  0  0  0  0  0
  -25.2518  -13.8194   20.5559 C   0  0  0  0  0  0
  -24.1869  -13.0415   20.9236 C   0  0  0  0  0  0
  -24.6508  -11.6899   20.8778 C   0  0  0  0  0  0
  -23.9199  -10.4274   21.0425 C   0  0  0  0  0  0
  -24.3723   -9.4172   21.9178 C   0  0  0  0  0  0
  -23.6331   -8.2264   22.0796 C   0  0  0  0  0  0
  -22.4332   -8.0305   21.3565 C   0  0  0  0  0  0
  -21.9979   -9.0304   20.4684 C   0  0  0  0  0  0
  -22.7375  -10.2138   20.3063 C   0  0  0  0  0  0
  -21.6860   -6.0782   22.5298 C   0  0  0  0  0  0
  -21.4015   -6.5665   23.8233 C   0  0  0  0  0  0
  -21.3637   -5.6797   24.9170 C   0  0  0  0  0  0
  -21.6058   -4.3074   24.7211 C   0  0  0  0  0  0
  -21.8832   -3.8189   23.4319 C   0  0  0  0  0  0
  -21.9185   -4.7018   22.3388 C   0  0  0  0  0  0
  -22.7892  -13.5187   21.1835 C   0  0  0  0  0  0
  -22.1661   -4.2210   21.0982 F   0  0  0  0  0  0
  -21.5594   -3.4546   25.7727 F   0  0  0  0  0  0
  -29.9843  -13.5703   20.3875 N   0  0  0  0  0  0
  -26.2965  -12.9406   20.3117 N   0  0  0  0  0  0
  -25.9433  -11.6562   20.5752 N   0  0  0  0  0  0
  -22.0486  -12.8218   22.0392 N   0  0  0  0  0  0
  -25.4080  -15.1906   20.3740 N   0  0  0  0  0  0
  -31.8422  -14.8455   20.3244 O   0  0  0  0  0  0
  -21.6637   -6.8933   21.4284 O   0  0  0  0  0  0
  -22.3594  -14.5462   20.6621 O   0  0  0  0  0  0
  -24.6310  -31.8567   23.2036 C   0  0  0  0  0  0
  -25.9166  -32.4727   23.8331 C   0  0  1  0  0  0
  -27.2053  -27.3004   20.1232 C   0  0  0  0  0  0
  -25.5970  -33.8538   24.2234 N   0  0  0  0  0  0
  -23.4188  -30.4915   21.5472 C   0  0  2  0  0  0
  -24.8626  -28.9577   20.1060 C   0  0  0  0  0  0
  -22.7472  -29.4654   22.4887 C   0  0  0  0  0  0
  -18.0276  -28.1417   22.8488 C   0  0  0  0  0  0
  -24.1480  -36.7305   23.2641 C   0  0  0  0  0  0
  -25.9663  -30.7892   21.3760 C   0  0  0  0  0  0
  -26.0354  -29.4202   20.7107 C   0  0  0  0  0  0
  -27.2107  -28.6072   20.7085 C   0  0  0  0  0  0
  -26.0074  -26.9073   19.4828 C   0  0  0  0  0  0
  -24.8515  -27.7048   19.4776 C   0  0  0  0  0  0
  -23.6328  -29.8399   20.1569 C   0  0  0  0  0  0
  -25.4103  -36.3038   24.0296 C   0  0  1  0  0  0
  -20.5891  -28.3717   23.1295 C   0  0  2  0  0  0
  -20.6799  -26.9417   22.5460 C   0  0  0  0  0  0
  -19.5751  -26.6395   21.5293 C   0  0  0  0  0  0
  -18.1915  -26.7943   22.1651 C   0  0  0  0  0  0
  -19.1543  -28.8885   23.2872 C   0  0  0  0  0  0
  -18.9446  -30.1499   23.8856 C   0  0  0  0  0  0
  -17.6455  -30.6596   24.0598 C   0  0  0  0  0  0
  -25.9060  -34.9425   23.5049 C   0  0  0  0  0  0
  -16.5346  -29.9104   23.6360 C   0  0  0  0  0  0
  -16.7269  -28.6557   23.0311 C   0  0  0  0  0  0
  -26.4548  -31.6536   25.0702 C   0  0  0  0  0  0
  -25.3782  -31.3759   26.1432 C   0  0  0  0  0  0
  -27.0410  -30.2911   24.6248 C   0  0  0  0  0  0
  -27.6023  -32.4343   25.7511 C   0  0  0  0  0  0
  -27.5543  -37.1793   24.8447 C   0  0  0  0  0  0
  -21.4183  -29.3079   22.3660 N   0  0  0  0  0  0
  -26.4259  -37.3756   23.9399 N   0  0  0  0  0  0
  -24.6907  -31.0632   22.0986 N   0  0  0  0  0  0
  -23.4230  -28.8181   23.2941 O   0  0  0  0  0  0
  -28.2952  -26.4062   20.1969 O   0  0  0  0  0  0
  -26.5612  -34.8876   22.4618 O   0  0  0  0  0  0
  -23.5476  -32.1370   23.7381 O   0  0  0  0  0  0
  -29.8295  -18.6970   20.4446 C   0  0  0  0  0  0
  -28.2420  -17.2164   21.5404 C   0  0  0  0  0  0
  -29.3840  -17.3352   20.7124 C   0  0  0  0  0  0
  -29.1918  -19.8935   20.9758 C   0  0  0  0  0  0
  -27.6004  -18.3509   22.0815 C   0  0  0  0  0  0
  -28.0874  -19.6585   21.8408 C   0  0  0  0  0  0
  -30.2634  -24.1748   20.8824 C   0  0  0  0  0  0
  -29.0536  -23.8485   20.3994 C   0  0  0  0  0  0
  -31.2943  -23.1538   21.1688 C   0  0  0  0  0  0
  -29.8103  -16.0779   19.9075 C   0  0  0  0  0  0
  -28.7060  -22.3379   20.1102 C   0  0  0  0  0  0
  -30.9681  -21.6375   21.0909 C   0  0  0  0  0  0
  -27.9771  -24.9516   20.0675 C   0  0  0  0  0  0
  -29.5334  -16.1149   18.6712 N   0  0  0  0  0  0
  -29.5940  -21.2710   20.7115 N   0  0  0  0  0  0
  -26.4399  -18.1862   22.8422 N   0  0  0  0  0  0
  -27.4611  -20.7315   22.4814 N   0  0  0  0  0  0
  -32.4463  -23.4848   21.4605 O   0  0  0  0  0  0
  -31.4915  -12.6710   19.1657 H   0  0  0  0  0  0
  -30.4445  -11.5396   19.9904 H   0  0  0  0  0  0
  -29.8498  -11.7258   17.5493 H   0  0  0  0  0  0
  -29.6659  -13.4515   17.7105 H   0  0  0  0  0  0
  -27.9345  -11.2752   18.9276 H   0  0  0  0  0  0
  -27.4189  -12.4846   17.7783 H   0  0  0  0  0  0
  -27.6106  -14.2481   19.4205 H   0  0  0  0  0  0
  -28.7262  -12.2556   21.4548 H   0  0  0  0  0  0
  -28.4047  -13.9526   21.7330 H   0  0  0  0  0  0
  -25.2868   -9.5612   22.4739 H   0  0  0  0  0  0
  -23.9984   -7.4688   22.7558 H   0  0  0  0  0  0
  -21.0873   -8.8910   19.9019 H   0  0  0  0  0  0
  -22.3882  -10.9710   19.6189 H   0  0  0  0  0  0
  -21.2038   -7.6176   23.9781 H   0  0  0  0  0  0
  -21.1423   -6.0492   25.9069 H   0  0  0  0  0  0
  -22.0633   -2.7659   23.2811 H   0  0  0  0  0  0
  -22.4052  -11.9905   22.4890 H   0  0  0  0  0  0
  -21.1184  -13.1449   22.2596 H   0  0  0  0  0  0
  -24.5920  -15.7930   20.3917 H   0  0  0  0  0  0
  -26.1685  -15.5890   19.8406 H   0  0  0  0  0  0
  -26.7236  -32.5363   23.1066 H   0  0  0  0  0  0
  -25.0133  -33.9696   25.0374 H   0  0  0  0  0  0
  -22.7117  -31.3123   21.4081 H   0  0  0  0  0  0
  -23.3707  -35.9678   23.3293 H   0  0  0  0  0  0
  -24.3592  -36.8964   22.2075 H   0  0  0  0  0  0
  -23.7273  -37.6505   23.6704 H   0  0  0  0  0  0
  -26.1104  -31.5584   20.6165 H   0  0  0  0  0  0
  -26.8468  -30.8218   22.0078 H   0  0  0  0  0  0
  -28.1008  -28.9602   21.2086 H   0  0  0  0  0  0
  -25.9095  -25.9545   18.9908 H   0  0  0  0  0  0
  -23.9521  -27.3406   18.9981 H   0  0  0  0  0  0
  -23.7532  -30.6258   19.4085 H   0  0  0  0  0  0
  -22.7441  -29.2841   19.8490 H   0  0  0  0  0  0
  -25.1282  -36.1870   25.0788 H   0  0  0  0  0  0
  -20.9958  -28.3324   24.1425 H   0  0  0  0  0  0
  -20.5819  -26.2284   23.3648 H   0  0  0  0  0  0
  -21.6636  -26.7530   22.1163 H   0  0  0  0  0  0
  -19.6923  -25.6340   21.1244 H   0  0  0  0  0  0
  -19.6695  -27.3277   20.6879 H   0  0  0  0  0  0
  -17.4211  -26.6736   21.4014 H   0  0  0  0  0  0
  -18.0218  -26.0110   22.9049 H   0  0  0  0  0  0
  -19.7949  -30.7353   24.2102 H   0  0  0  0  0  0
  -17.5026  -31.6226   24.5269 H   0  0  0  0  0  0
  -15.5352  -30.2995   23.7738 H   0  0  0  0  0  0
  -15.8654  -28.0936   22.6941 H   0  0  0  0  0  0
  -24.5879  -30.7165   25.7845 H   0  0  0  0  0  0
  -24.9090  -32.2980   26.4864 H   0  0  0  0  0  0
  -25.8115  -30.8947   27.0198 H   0  0  0  0  0  0
  -26.3031  -29.6571   24.1307 H   0  0  0  0  0  0
  -27.4072  -29.7245   25.4826 H   0  0  0  0  0  0
  -27.8892  -30.4114   23.9490 H   0  0  0  0  0  0
  -27.2505  -33.3618   26.2035 H   0  0  0  0  0  0
  -28.3867  -32.6960   25.0406 H   0  0  0  0  0  0
  -28.0609  -31.8511   26.5499 H   0  0  0  0  0  0
  -28.2541  -38.0099   24.7462 H   0  0  0  0  0  0
  -28.1010  -36.2624   24.6274 H   0  0  0  0  0  0
  -27.2228  -37.1437   25.8829 H   0  0  0  0  0  0
  -20.9322  -29.8796   21.6881 H   0  0  0  0  0  0
  -26.0086  -38.2783   24.1481 H   0  0  0  0  0  0
  -30.6494  -18.8135   19.7526 H   0  0  0  0  0  0
  -27.7943  -16.2463   21.7069 H   0  0  0  0  0  0
  -30.5167  -25.2117   21.0509 H   0  0  0  0  0  0
  -28.7739  -22.2283   19.0281 H   0  0  0  0  0  0
  -27.6569  -22.1659   20.3485 H   0  0  0  0  0  0
  -31.1993  -21.2131   22.0696 H   0  0  0  0  0  0
  -31.6665  -21.1806   20.3913 H   0  0  0  0  0  0
  -27.1125  -24.7292   20.6992 H   0  0  0  0  0  0
  -27.6661  -24.7661   19.0393 H   0  0  0  0  0  0
  -29.0608  -16.9750   18.4244 H   0  0  0  0  0  0
  -25.8294  -17.4252   22.5638 H   0  0  0  0  0  0
  -25.9241  -19.0439   23.0068 H   0  0  0  0  0  0
  -27.9176  -21.5979   22.2194 H   0  0  0  0  0  0
  -26.4612  -20.7830   22.3482 H   0  0  0  0  0  0
  1 25  1  0  0  0
  1 30  2  0  0  0
  1 80  1  0  0  0
  2  3  1  0  0  0
  2 25  1  0  0  0
  2 89  1  0  0  0
  2 90  1  0  0  0
  3  4  1  0  0  0
  3 91  1  0  0  0
  3 92  1  0  0  0
  4  5  1  0  0  0
  4 93  1  0  0  0
  4 94  1  0  0  0
  5  6  1  0  0  0
  5 26  1  0  0  0
  5 95  1  0  0  0
  6 25  1  0  0  0
  6 96  1  0  0  0
  6 97  1  0  0  0
  7  8  2  0  0  0
  7 26  1  0  0  0
  7 29  1  0  0  0
  8  9  1  0  0  0
  8 22  1  0  0  0
  9 10  1  0  0  0
  9 27  2  0  0  0
 10 11  2  0  0  0
 10 15  1  0  0  0
 11 12  1  0  0  0
 11 98  1  0  0  0
 12 13  2  0  0  0
 12 99  1  0  0  0
 13 14  1  0  0  0
 13 31  1  0  0  0
 14 15  2  0  0  0
 14100  1  0  0  0
 15101  1  0  0  0
 16 17  2  0  0  0
 16 21  1  0  0  0
 16 31  1  0  0  0
 17 18  1  0  0  0
 17102  1  0  0  0
 18 19  2  0  0  0
 18103  1  0  0  0
 19 20  1  0  0  0
 19 24  1  0  0  0
 20 21  2  0  0  0
 20104  1  0  0  0
 21 23  1  0  0  0
 22 28  1  0  0  0
 22 32  2  0  0  0
 26 27  1  0  0  0
 28105  1  0  0  0
 28106  1  0  0  0
 29107  1  0  0  0
 29108  1  0  0  0
 33 34  1  0  0  0
 33 66  1  0  0  0
 33 70  2  0  0  0
 34 36  1  0  0  0
 34 59  1  0  0  0
 34109  1  0  0  0
 35 44  2  0  0  0
 35 45  1  0  0  0
 35 68  1  0  0  0
 36 56  1  0  0  0
 36110  1  0  0  0
 37 39  1  0  0  0
 37 47  1  0  0  0
 37 66  1  0  0  0
 37111  1  0  0  0
 38 43  2  0  0  0
 38 46  1  0  0  0
 38 47  1  0  0  0
 39 64  1  0  0  0
 39 67  2  0  0  0
 40 52  1  0  0  0
 40 53  2  0  0  0
 40 58  1  0  0  0
 41112  1  0  0  0
 41113  1  0  0  0
 41114  1  0  0  0
 41 48  1  0  0  0
 42 43  1  0  0  0
 42 66  1  0  0  0
 42115  1  0  0  0
 42116  1  0  0  0
 43 44  1  0  0  0
 44117  1  0  0  0
 45 46  2  0  0  0
 45118  1  0  0  0
 46119  1  0  0  0
 47120  1  0  0  0
 47121  1  0  0  0
 48 56  1  0  0  0
 48 65  1  0  0  0
 48122  1  0  0  0
 49 50  1  0  0  0
 49 53  1  0  0  0
 49 64  1  0  0  0
 49123  1  0  0  0
 50 51  1  0  0  0
 50124  1  0  0  0
 50125  1  0  0  0
 51 52  1  0  0  0
 51126  1  0  0  0
 51127  1  0  0  0
 52128  1  0  0  0
 52129  1  0  0  0
 53 54  1  0  0  0
 54 55  2  0  0  0
 54130  1  0  0  0
 55 57  1  0  0  0
 55131  1  0  0  0
 56 69  2  0  0  0
 57 58  2  0  0  0
 57132  1  0  0  0
 58133  1  0  0  0
 59 60  1  0  0  0
 59 61  1  0  0  0
 59 62  1  0  0  0
 60134  1  0  0  0
 60135  1  0  0  0
 60136  1  0  0  0
 61137  1  0  0  0
 61138  1  0  0  0
 61139  1  0  0  0
 62140  1  0  0  0
 62141  1  0  0  0
 62142  1  0  0  0
 63 65  1  0  0  0
 63143  1  0  0  0
 63144  1  0  0  0
 63145  1  0  0  0
 64146  1  0  0  0
 65147  1  0  0  0
 68 83  1  0  0  0
 71 73  2  0  0  0
 71 74  1  0  0  0
 71148  1  0  0  0
 72 73  1  0  0  0
 72 75  2  0  0  0
 72149  1  0  0  0
 73 80  1  0  0  0
 74 76  2  0  0  0
 74 85  1  0  0  0
 75 76  1  0  0  0
 75 86  1  0  0  0
 76 87  1  0  0  0
 77 78  2  0  0  0
 77 79  1  0  0  0
 77150  1  0  0  0
 78 81  1  0  0  0
 78 83  1  0  0  0
 79 82  1  0  0  0
 79 88  2  0  0  0
 80 84  2  0  0  0
 81 85  1  0  0  0
 81151  1  0  0  0
 81152  1  0  0  0
 82 85  1  0  0  0
 82153  1  0  0  0
 82154  1  0  0  0
 83155  1  0  0  0
 83156  1  0  0  0
 84157  1  0  0  0
 86158  1  0  0  0
 86159  1  0  0  0
 87160  1  0  0  0
 87161  1  0  0  0
M  ISO  4   1 100  68 101  80 100  83 101
M  END
> <chiral flag>
0

> <version>
0

> <s_m_source_file>
/data/baiqing/PycharmProjects/Reinvent-master-3.2/result/LINK_invent/BTK/process_docking_weight1_custom_product_contain_oxygen_bond_distance_aromatic_linkinvent_7_9_3/rearranged_h_0092.sdf

> <i_m_source_file_index>
32

> <r_mmod_Potential_Energy-OPLS-2005>
281.171142578125

> <r_mmod_Stretch_Energy-OPLS-2005>
119.771156311035

> <r_mmod_Bend_Energy-OPLS-2005>
178.054611206055

> <r_mmod_Torsional_Energy-OPLS-2005>
301.249420166016

> <r_mmod_Improper_Torsional_Energy-OPLS-2005>
38.1265907287598

> <r_mmod_Van_der_Waal_Energy-OPLS-2005>
149.770446777344

> <r_mmod_Electrostatic_Energy-OPLS-2005>
-362.131195068359

> <r_mmod_Solvation_Energy-OPLS-2005>
-244.485946655273

> <b_mmod_Minimization_Converged-OPLS-2005>
0

> <r_mmod_RMS_Derivative-OPLS-2005>
6.74241065979004

$$$$
32
                    3D
 Structure written by MMmdl.
153161  0  0  1  0            999 V2000
  -30.6982  -14.4295   20.5983 C   0  0  0  0  0  0
  -30.4189  -12.2931   19.4009 C   0  0  0  0  0  0
  -29.4842  -12.5295   18.1953 C   0  0  0  0  0  0
  -28.0033  -12.4021   18.6011 C   0  0  0  0  0  0
  -27.6651  -13.2065   19.8848 C   0  0  2  0  0  0
  -28.7062  -12.9334   20.9938 C   0  0  0  0  0  0
  -25.2586  -13.8180   20.5673 C   0  0  0  0  0  0
  -24.1832  -13.0443   20.9168 C   0  0  0  0  0  0
  -24.6390  -11.6908   20.8738 C   0  0  0  0  0  0
  -23.9038  -10.4301   21.0416 C   0  0  0  0  0  0
  -24.3597   -9.4222   21.9196 C   0  0  0  0  0  0
  -23.6294   -8.2252   22.0761 C   0  0  0  0  0  0
  -22.4277   -8.0294   21.3543 C   0  0  0  0  0  0
  -21.9914   -9.0247   20.4629 C   0  0  0  0  0  0
  -22.7224  -10.2139   20.3051 C   0  0  0  0  0  0
  -21.6867   -6.0731   22.5274 C   0  0  0  0  0  0
  -21.4015   -6.5639   23.8208 C   0  0  0  0  0  0
  -21.3662   -5.6797   24.9175 C   0  0  0  0  0  0
  -21.6050   -4.3058   24.7228 C   0  0  0  0  0  0
  -21.8823   -3.8148   23.4350 C   0  0  0  0  0  0
  -21.9191   -4.6961   22.3400 C   0  0  0  0  0  0
  -22.7855  -13.5237   21.1833 C   0  0  0  0  0  0
  -22.1665   -4.2150   21.0973 F   0  0  0  0  0  0
  -21.5629   -3.4541   25.7736 F   0  0  0  0  0  0
  -30.0427  -13.2462   20.4565 N   0  0  0  0  0  0
  -26.3032  -12.9345   20.3394 N   0  0  0  0  0  0
  -25.9314  -11.6494   20.5749 N   0  0  0  0  0  0
  -22.0469  -12.8209   22.0360 N   0  0  0  0  0  0
  -25.4294  -15.1890   20.4057 N   0  0  0  0  0  0
  -31.8010  -14.6569   20.0902 O   0  0  0  0  0  0
  -21.6650   -6.8885   21.4246 O   0  0  0  0  0  0
  -22.3529  -14.5537   20.6689 O   0  0  0  0  0  0
  -24.6159  -31.8675   23.2101 C   0  0  0  0  0  0
  -25.9051  -32.4813   23.8416 C   0  0  1  0  0  0
  -27.2436  -27.4356   20.0989 C   0  0  0  0  0  0
  -25.5904  -33.8623   24.2339 N   0  0  0  0  0  0
  -23.4059  -30.4866   21.5498 C   0  0  2  0  0  0
  -24.8566  -28.9473   20.1219 C   0  0  0  0  0  0
  -22.7419  -29.4654   22.5010 C   0  0  0  0  0  0
  -18.0262  -28.1402   22.8495 C   0  0  0  0  0  0
  -24.1485  -36.7294   23.2646 C   0  0  0  0  0  0
  -25.9369  -30.8295   21.3686 C   0  0  0  0  0  0
  -26.0177  -29.4658   20.7122 C   0  0  0  0  0  0
  -27.2178  -28.7183   20.6922 C   0  0  0  0  0  0
  -26.0687  -26.9268   19.5108 C   0  0  0  0  0  0
  -24.8757  -27.6755   19.5215 C   0  0  0  0  0  0
  -23.6169  -29.8133   20.1685 C   0  0  0  0  0  0
  -25.4108  -36.3103   24.0345 C   0  0  1  0  0  0
  -20.5857  -28.3680   23.1328 C   0  0  2  0  0  0
  -20.6748  -26.9417   22.5427 C   0  0  0  0  0  0
  -19.5712  -26.6393   21.5231 C   0  0  0  0  0  0
  -18.1893  -26.7953   22.1634 C   0  0  0  0  0  0
  -19.1516  -28.8866   23.2902 C   0  0  0  0  0  0
  -18.9438  -30.1481   23.8892 C   0  0  0  0  0  0
  -17.6440  -30.6612   24.0570 C   0  0  0  0  0  0
  -25.9044  -34.9471   23.5137 C   0  0  0  0  0  0
  -16.5329  -29.9093   23.6362 C   0  0  0  0  0  0
  -16.7254  -28.6520   23.0360 C   0  0  0  0  0  0
  -26.4478  -31.6600   25.0755 C   0  0  0  0  0  0
  -25.3727  -31.3667   26.1481 C   0  0  0  0  0  0
  -27.0368  -30.3057   24.6169 C   0  0  0  0  0  0
  -27.6036  -32.4339   25.7519 C   0  0  0  0  0  0
  -27.5592  -37.1807   24.8472 C   0  0  0  0  0  0
  -21.4149  -29.3033   22.3743 N   0  0  0  0  0  0
  -26.4304  -37.3787   23.9417 N   0  0  0  0  0  0
  -24.6707  -31.0755   22.1000 N   0  0  0  0  0  0
  -23.4186  -28.8185   23.3058 O   0  0  0  0  0  0
  -28.3965  -26.6853   20.0663 O   0  0  0  0  0  0
  -26.5590  -34.8907   22.4693 O   0  0  0  0  0  0
  -23.5351  -32.1439   23.7485 O   0  0  0  0  0  0
  -30.2001  -19.0825   21.8506 C   0  0  0  0  0  0
  -30.1931  -17.6882   22.0948 C   0  0  0  0  0  0
  -29.9412  -18.6667   19.4694 C   0  0  0  0  0  0
  -30.0825  -19.5881   20.5314 C   0  0  0  0  0  0
  -30.0748  -16.7723   21.0259 C   0  0  0  0  0  0
  -29.9217  -17.2768   19.7091 C   0  0  0  0  0  0
  -30.2184  -21.0624   20.2349 C   0  0  0  0  0  0
  -28.8869  -24.2584   20.3089 C   0  0  0  0  0  0
  -29.8370  -23.3674   21.1373 C   0  0  0  0  0  0
  -28.3935  -25.5651   20.9709 C   0  0  0  0  0  0
  -30.0392  -15.3708   21.2949 N   0  0  0  0  0  0
  -29.5768  -21.9170   21.0464 N   0  0  0  0  0  0
  -30.9128  -21.4384   19.2886 O   0  0  0  0  0  0
  -28.5290  -23.9311   19.1721 O   0  0  0  0  0  0
  -29.7309  -16.4300   18.6672 F   0  0  0  0  0  0
  -31.4604  -12.4010   19.0911 H   0  0  0  0  0  0
  -30.3211  -11.2700   19.7656 H   0  0  0  0  0  0
  -29.7086  -11.8255   17.3933 H   0  0  0  0  0  0
  -29.6618  -13.5258   17.7866 H   0  0  0  0  0  0
  -27.7833  -11.3441   18.7468 H   0  0  0  0  0  0
  -27.3633  -12.7340   17.7812 H   0  0  0  0  0  0
  -27.7238  -14.2641   19.6264 H   0  0  0  0  0  0
  -28.6718  -11.8819   21.2819 H   0  0  0  0  0  0
  -28.4649  -13.4860   21.9019 H   0  0  0  0  0  0
  -25.2743   -9.5707   22.4760 H   0  0  0  0  0  0
  -24.0013   -7.4650   22.7487 H   0  0  0  0  0  0
  -21.0862   -8.8742   19.8916 H   0  0  0  0  0  0
  -22.3685  -10.9672   19.6148 H   0  0  0  0  0  0
  -21.2007   -7.6146   23.9711 H   0  0  0  0  0  0
  -21.1488   -6.0530   25.9078 H   0  0  0  0  0  0
  -22.0598   -2.7615   23.2854 H   0  0  0  0  0  0
  -22.4089  -11.9873   22.4746 H   0  0  0  0  0  0
  -21.1055  -13.1204   22.2494 H   0  0  0  0  0  0
  -24.6633  -15.8456   20.5060 H   0  0  0  0  0  0
  -26.2805  -15.6255   20.0745 H   0  0  0  0  0  0
  -26.7124  -32.5523   23.1177 H   0  0  0  0  0  0
  -25.0111  -33.9788   25.0528 H   0  0  0  0  0  0
  -22.6934  -31.3022   21.4061 H   0  0  0  0  0  0
  -23.3771  -35.9607   23.3296 H   0  0  0  0  0  0
  -24.3588  -36.8926   22.2070 H   0  0  0  0  0  0
  -23.7217  -37.6475   23.6678 H   0  0  0  0  0  0
  -26.0644  -31.6019   20.6099 H   0  0  0  0  0  0
  -26.8173  -30.8730   21.9973 H   0  0  0  0  0  0
  -28.1176  -29.1178   21.1383 H   0  0  0  0  0  0
  -26.0805  -25.9510   19.0460 H   0  0  0  0  0  0
  -23.9823  -27.2655   19.0707 H   0  0  0  0  0  0
  -23.7268  -30.5844   19.4060 H   0  0  0  0  0  0
  -22.7424  -29.2306   19.8733 H   0  0  0  0  0  0
  -25.1291  -36.1975   25.0840 H   0  0  0  0  0  0
  -20.9943  -28.3241   24.1449 H   0  0  0  0  0  0
  -20.5672  -26.2278   23.3611 H   0  0  0  0  0  0
  -21.6612  -26.7453   22.1215 H   0  0  0  0  0  0
  -19.6857  -25.6302   21.1251 H   0  0  0  0  0  0
  -19.6648  -27.3204   20.6764 H   0  0  0  0  0  0
  -17.4173  -26.6758   21.4015 H   0  0  0  0  0  0
  -18.0229  -26.0088   22.9014 H   0  0  0  0  0  0
  -19.7907  -30.7322   24.2225 H   0  0  0  0  0  0
  -17.4981  -31.6281   24.5179 H   0  0  0  0  0  0
  -15.5325  -30.2980   23.7690 H   0  0  0  0  0  0
  -15.8659  -28.0840   22.7056 H   0  0  0  0  0  0
  -24.5931  -30.6987   25.7792 H   0  0  0  0  0  0
  -24.8885  -32.2804   26.4933 H   0  0  0  0  0  0
  -25.8086  -30.8833   27.0237 H   0  0  0  0  0  0
  -26.2961  -29.6757   24.1230 H   0  0  0  0  0  0
  -27.4148  -29.7339   25.4655 H   0  0  0  0  0  0
  -27.8772  -30.4386   23.9352 H   0  0  0  0  0  0
  -27.2655  -33.3646   26.2078 H   0  0  0  0  0  0
  -28.3848  -32.6888   25.0347 H   0  0  0  0  0  0
  -28.0702  -31.8488   26.5446 H   0  0  0  0  0  0
  -28.2586  -38.0123   24.7555 H   0  0  0  0  0  0
  -28.1109  -36.2661   24.6265 H   0  0  0  0  0  0
  -27.2315  -37.1424   25.8871 H   0  0  0  0  0  0
  -20.9315  -29.8771   21.6973 H   0  0  0  0  0  0
  -26.0191  -38.2862   24.1411 H   0  0  0  0  0  0
  -30.3361  -19.7570   22.6855 H   0  0  0  0  0  0
  -30.3034  -17.3274   23.1089 H   0  0  0  0  0  0
  -29.8452  -19.0254   18.4531 H   0  0  0  0  0  0
  -29.7750  -23.6576   22.1871 H   0  0  0  0  0  0
  -30.8594  -23.5866   20.8271 H   0  0  0  0  0  0
  -29.0333  -25.8059   21.8200 H   0  0  0  0  0  0
  -27.3945  -25.3783   21.3679 H   0  0  0  0  0  0
  -29.2529  -15.0432   21.8339 H   0  0  0  0  0  0
  -28.9683  -21.5183   21.7467 H   0  0  0  0  0  0
  1 25  1  0  0  0
  1 30  2  0  0  0
  1 81  1  0  0  0
  2  3  1  0  0  0
  2 25  1  0  0  0
  2 86  1  0  0  0
  2 87  1  0  0  0
  3  4  1  0  0  0
  3 88  1  0  0  0
  3 89  1  0  0  0
  4  5  1  0  0  0
  4 90  1  0  0  0
  4 91  1  0  0  0
  5  6  1  0  0  0
  5 26  1  0  0  0
  5 92  1  0  0  0
  6 25  1  0  0  0
  6 93  1  0  0  0
  6 94  1  0  0  0
  7  8  2  0  0  0
  7 26  1  0  0  0
  7 29  1  0  0  0
  8  9  1  0  0  0
  8 22  1  0  0  0
  9 10  1  0  0  0
  9 27  2  0  0  0
 10 11  2  0  0  0
 10 15  1  0  0  0
 11 12  1  0  0  0
 11 95  1  0  0  0
 12 13  2  0  0  0
 12 96  1  0  0  0
 13 14  1  0  0  0
 13 31  1  0  0  0
 14 15  2  0  0  0
 14 97  1  0  0  0
 15 98  1  0  0  0
 16 17  2  0  0  0
 16 21  1  0  0  0
 16 31  1  0  0  0
 17 18  1  0  0  0
 17 99  1  0  0  0
 18 19  2  0  0  0
 18100  1  0  0  0
 19 20  1  0  0  0
 19 24  1  0  0  0
 20 21  2  0  0  0
 20101  1  0  0  0
 21 23  1  0  0  0
 22 28  1  0  0  0
 22 32  2  0  0  0
 26 27  1  0  0  0
 28102  1  0  0  0
 28103  1  0  0  0
 29104  1  0  0  0
 29105  1  0  0  0
 33 34  1  0  0  0
 33 66  1  0  0  0
 33 70  2  0  0  0
 34 36  1  0  0  0
 34 59  1  0  0  0
 34106  1  0  0  0
 35 44  2  0  0  0
 35 45  1  0  0  0
 35 68  1  0  0  0
 36 56  1  0  0  0
 36107  1  0  0  0
 37 39  1  0  0  0
 37 47  1  0  0  0
 37 66  1  0  0  0
 37108  1  0  0  0
 38 43  2  0  0  0
 38 46  1  0  0  0
 38 47  1  0  0  0
 39 64  1  0  0  0
 39 67  2  0  0  0
 40 52  1  0  0  0
 40 53  2  0  0  0
 40 58  1  0  0  0
 41109  1  0  0  0
 41110  1  0  0  0
 41111  1  0  0  0
 41 48  1  0  0  0
 42 43  1  0  0  0
 42 66  1  0  0  0
 42112  1  0  0  0
 42113  1  0  0  0
 43 44  1  0  0  0
 44114  1  0  0  0
 45 46  2  0  0  0
 45115  1  0  0  0
 46116  1  0  0  0
 47117  1  0  0  0
 47118  1  0  0  0
 48 56  1  0  0  0
 48 65  1  0  0  0
 48119  1  0  0  0
 49 50  1  0  0  0
 49 53  1  0  0  0
 49 64  1  0  0  0
 49120  1  0  0  0
 50 51  1  0  0  0
 50121  1  0  0  0
 50122  1  0  0  0
 51 52  1  0  0  0
 51123  1  0  0  0
 51124  1  0  0  0
 52125  1  0  0  0
 52126  1  0  0  0
 53 54  1  0  0  0
 54 55  2  0  0  0
 54127  1  0  0  0
 55 57  1  0  0  0
 55128  1  0  0  0
 56 69  2  0  0  0
 57 58  2  0  0  0
 57129  1  0  0  0
 58130  1  0  0  0
 59 60  1  0  0  0
 59 61  1  0  0  0
 59 62  1  0  0  0
 60131  1  0  0  0
 60132  1  0  0  0
 60133  1  0  0  0
 61134  1  0  0  0
 61135  1  0  0  0
 61136  1  0  0  0
 62137  1  0  0  0
 62138  1  0  0  0
 62139  1  0  0  0
 63 65  1  0  0  0
 63140  1  0  0  0
 63141  1  0  0  0
 63142  1  0  0  0
 64143  1  0  0  0
 65144  1  0  0  0
 68 80  1  0  0  0
 71 72  2  0  0  0
 71 74  1  0  0  0
 71145  1  0  0  0
 72 75  1  0  0  0
 72146  1  0  0  0
 73 74  2  0  0  0
 73 76  1  0  0  0
 73147  1  0  0  0
 74 77  1  0  0  0
 75 76  2  0  0  0
 75 81  1  0  0  0
 76 85  1  0  0  0
 77 82  1  0  0  0
 77 83  2  0  0  0
 78 79  1  0  0  0
 78 80  1  0  0  0
 78 84  2  0  0  0
 79 82  1  0  0  0
 79148  1  0  0  0
 79149  1  0  0  0
 80150  1  0  0  0
 80151  1  0  0  0
 81152  1  0  0  0
 82153  1  0  0  0
M  ISO  4   1 100  68 101  80 101  81 100
M  END
> <chiral flag>
0

> <version>
0

> <s_m_source_file>
/data/baiqing/PycharmProjects/Reinvent-master-3.2/result/LINK_invent/BTK/process_docking_weight1_custom_product_contain_oxygen_bond_distance_aromatic_linkinvent_7_9_3/rearranged_h_0092.sdf

> <i_m_source_file_index>
33

> <r_mmod_Potential_Energy-OPLS-2005>
-180.982635498047

> <r_mmod_Stretch_Energy-OPLS-2005>
37.8941955566406

> <r_mmod_Bend_Energy-OPLS-2005>
89.3335952758789

> <r_mmod_Torsional_Energy-OPLS-2005>
278.525085449219

> <r_mmod_Improper_Torsional_Energy-OPLS-2005>
4.01763677597046

> <r_mmod_Van_der_Waal_Energy-OPLS-2005>
146.777969360352

> <r_mmod_Electrostatic_Energy-OPLS-2005>
-477.649383544922

> <r_mmod_Solvation_Energy-OPLS-2005>
-269.360473632812

> <b_mmod_Minimization_Converged-OPLS-2005>
0

> <r_mmod_RMS_Derivative-OPLS-2005>
2.70674061775208

$$$$
33
                    3D
 Structure written by MMmdl.
152160  0  0  1  0            999 V2000
  -30.4217  -15.3660   20.3482 C   0  0  0  0  0  0
  -30.4466  -12.8943   19.4849 C   0  0  0  0  0  0
  -29.5358  -12.5761   18.2727 C   0  0  0  0  0  0
  -28.0962  -12.2618   18.7198 C   0  0  0  0  0  0
  -27.6015  -13.2444   19.8085 C   0  0  2  0  0  0
  -28.6474  -13.5057   20.9159 C   0  0  0  0  0  0
  -25.2411  -13.8039   20.5831 C   0  0  0  0  0  0
  -24.1737  -13.0300   20.9337 C   0  0  0  0  0  0
  -24.6371  -11.6796   20.8811 C   0  0  0  0  0  0
  -23.9049  -10.4199   21.0430 C   0  0  0  0  0  0
  -24.3596   -9.4114   21.9198 C   0  0  0  0  0  0
  -23.6262   -8.2162   22.0757 C   0  0  0  0  0  0
  -22.4247   -8.0220   21.3539 C   0  0  0  0  0  0
  -21.9889   -9.0199   20.4645 C   0  0  0  0  0  0
  -22.7235  -10.2063   20.3056 C   0  0  0  0  0  0
  -21.6831   -6.0699   22.5286 C   0  0  0  0  0  0
  -21.4010   -6.5619   23.8219 C   0  0  0  0  0  0
  -21.3659   -5.6778   24.9186 C   0  0  0  0  0  0
  -21.6043   -4.3044   24.7240 C   0  0  0  0  0  0
  -21.8825   -3.8122   23.4371 C   0  0  0  0  0  0
  -21.9189   -4.6928   22.3416 C   0  0  0  0  0  0
  -22.7770  -13.5117   21.1959 C   0  0  0  0  0  0
  -22.1660   -4.2110   21.0991 F   0  0  0  0  0  0
  -21.5624   -3.4541   25.7759 F   0  0  0  0  0  0
  -29.8489  -14.0512   20.2477 N   0  0  0  0  0  0
  -26.2800  -12.9269   20.3248 N   0  0  0  0  0  0
  -25.9293  -11.6416   20.5740 N   0  0  0  0  0  0
  -22.0397  -12.8098   22.0483 N   0  0  0  0  0  0
  -25.4076  -15.1735   20.4265 N   0  0  0  0  0  0
  -31.6623  -15.2938   20.3251 O   0  0  0  0  0  0
  -21.6604   -6.8825   21.4236 O   0  0  0  0  0  0
  -22.3492  -14.5437   20.6799 O   0  0  0  0  0  0
  -24.6625  -31.8239   23.1738 C   0  0  0  0  0  0
  -25.9306  -32.4607   23.8204 C   0  0  1  0  0  0
  -27.2287  -26.9275   20.1992 C   0  0  0  0  0  0
  -25.5976  -33.8421   24.2101 N   0  0  0  0  0  0
  -23.4783  -30.4354   21.5216 C   0  0  2  0  0  0
  -24.9370  -28.8194   20.1204 C   0  0  0  0  0  0
  -22.7671  -29.4433   22.4781 C   0  0  0  0  0  0
  -18.0311  -28.1423   22.8480 C   0  0  0  0  0  0
  -24.1467  -36.7180   23.2644 C   0  0  0  0  0  0
  -26.0470  -30.6309   21.4073 C   0  0  0  0  0  0
  -26.1178  -29.2165   20.7606 C   0  0  0  0  0  0
  -27.2559  -28.2890   20.7823 C   0  0  0  0  0  0
  -26.0223  -26.6867   19.5023 C   0  0  0  0  0  0
  -24.9120  -27.5727   19.4743 C   0  0  0  0  0  0
  -23.7252  -29.7514   20.1477 C   0  0  0  0  0  0
  -25.4118  -36.2966   24.0297 C   0  0  1  0  0  0
  -20.5945  -28.3759   23.1193 C   0  0  2  0  0  0
  -20.6777  -26.9434   22.5410 C   0  0  0  0  0  0
  -19.5748  -26.6385   21.5219 C   0  0  0  0  0  0
  -18.1935  -26.7961   22.1633 C   0  0  0  0  0  0
  -19.1580  -28.8910   23.2829 C   0  0  0  0  0  0
  -18.9496  -30.1500   23.8869 C   0  0  0  0  0  0
  -17.6490  -30.6617   24.0562 C   0  0  0  0  0  0
  -25.9087  -34.9349   23.5014 C   0  0  0  0  0  0
  -16.5377  -29.9104   23.6353 C   0  0  0  0  0  0
  -16.7294  -28.6520   23.0384 C   0  0  0  0  0  0
  -26.4569  -31.6569   25.0737 C   0  0  0  0  0  0
  -25.3711  -31.3835   26.1417 C   0  0  0  0  0  0
  -27.0462  -30.2937   24.6460 C   0  0  0  0  0  0
  -27.6057  -32.4378   25.7557 C   0  0  0  0  0  0
  -27.5557  -37.1752   24.8477 C   0  0  0  0  0  0
  -21.4336  -29.3043   22.3544 N   0  0  0  0  0  0
  -26.4258  -37.3710   23.9428 N   0  0  0  0  0  0
  -24.7504  -30.9905   22.0882 N   0  0  0  0  0  0
  -23.4216  -28.7998   23.3026 O   0  0  0  0  0  0
  -28.2447  -25.8296   20.2120 O   0  0  0  0  0  0
  -26.5681  -34.8880   22.4601 O   0  0  0  0  0  0
  -23.5694  -32.1202   23.6827 O   0  0  0  0  0  0
  -30.0850  -20.8072   19.8207 C   0  0  0  0  0  0
  -29.6554  -22.2455   19.8097 C   0  0  0  0  0  0
  -28.2556  -20.2337   21.0643 C   0  0  0  0  0  0
  -29.4231  -19.6378   20.4219 C   0  0  0  0  0  0
  -28.4634  -22.8251   20.4235 C   0  0  0  0  0  0
  -27.8189  -21.6623   21.0539 C   0  0  0  0  0  0
  -30.0725  -18.0717   20.6109 C   0  0  0  0  0  0
  -28.6766  -16.6693   19.2831 C   0  0  0  0  0  0
  -27.4221  -17.5346   19.4484 C   0  0  0  0  0  0
  -26.6507  -21.9442   21.7661 N   0  0  0  0  0  0
  -27.8037  -24.2416   20.4539 N   0  0  0  0  0  0
  -29.6931  -16.6893   20.1860 N   0  0  0  0  0  0
  -31.1200  -18.1448   21.2629 O   0  0  0  0  0  0
  -28.7079  -15.9752   18.2608 O   0  0  0  0  0  0
  -31.4421  -13.1471   19.1153 H   0  0  0  0  0  0
  -30.5793  -12.0231   20.1274 H   0  0  0  0  0  0
  -29.9457  -11.7438   17.6988 H   0  0  0  0  0  0
  -29.5260  -13.4333   17.5965 H   0  0  0  0  0  0
  -28.0866  -11.2447   19.1125 H   0  0  0  0  0  0
  -27.4240  -12.2625   17.8613 H   0  0  0  0  0  0
  -27.4588  -14.1697   19.2646 H   0  0  0  0  0  0
  -28.8658  -12.6006   21.4842 H   0  0  0  0  0  0
  -28.2605  -14.2374   21.6276 H   0  0  0  0  0  0
  -25.2749   -9.5564   22.4771 H   0  0  0  0  0  0
  -23.9971   -7.4529   22.7451 H   0  0  0  0  0  0
  -21.0831   -8.8713   19.8936 H   0  0  0  0  0  0
  -22.3724  -10.9600   19.6146 H   0  0  0  0  0  0
  -21.2014   -7.6133   23.9714 H   0  0  0  0  0  0
  -21.1481   -6.0516   25.9082 H   0  0  0  0  0  0
  -22.0613   -2.7588   23.2893 H   0  0  0  0  0  0
  -22.4016  -11.9763   22.4881 H   0  0  0  0  0  0
  -21.0993  -13.1088   22.2651 H   0  0  0  0  0  0
  -24.6304  -15.8207   20.4950 H   0  0  0  0  0  0
  -26.2268  -15.5762   19.9992 H   0  0  0  0  0  0
  -26.7384  -32.5169   23.0932 H   0  0  0  0  0  0
  -25.0149  -33.9515   25.0270 H   0  0  0  0  0  0
  -22.7906  -31.2653   21.3494 H   0  0  0  0  0  0
  -23.3756  -35.9485   23.3288 H   0  0  0  0  0  0
  -24.3517  -36.8841   22.2059 H   0  0  0  0  0  0
  -23.7191  -37.6348   23.6710 H   0  0  0  0  0  0
  -26.2202  -31.3676   20.6216 H   0  0  0  0  0  0
  -26.9079  -30.6989   22.0602 H   0  0  0  0  0  0
  -28.1525  -28.5943   21.3023 H   0  0  0  0  0  0
  -25.9131  -25.7394   18.9925 H   0  0  0  0  0  0
  -24.0161  -27.2618   18.9541 H   0  0  0  0  0  0
  -23.8908  -30.5203   19.3918 H   0  0  0  0  0  0
  -22.8347  -29.2104   19.8232 H   0  0  0  0  0  0
  -25.1303  -36.1756   25.0784 H   0  0  0  0  0  0
  -21.0036  -28.3361   24.1315 H   0  0  0  0  0  0
  -20.5650  -26.2366   23.3647 H   0  0  0  0  0  0
  -21.6641  -26.7392   22.1226 H   0  0  0  0  0  0
  -19.6888  -25.6278   21.1282 H   0  0  0  0  0  0
  -19.6699  -27.3170   20.6730 H   0  0  0  0  0  0
  -17.4204  -26.6719   21.4040 H   0  0  0  0  0  0
  -18.0320  -26.0117   22.9037 H   0  0  0  0  0  0
  -19.7972  -30.7324   24.2237 H   0  0  0  0  0  0
  -17.5042  -31.6297   24.5161 H   0  0  0  0  0  0
  -15.5380  -30.3000   23.7695 H   0  0  0  0  0  0
  -15.8691  -28.0817   22.7144 H   0  0  0  0  0  0
  -24.5899  -30.7157   25.7781 H   0  0  0  0  0  0
  -24.8900  -32.3047   26.4716 H   0  0  0  0  0  0
  -25.7968  -30.9126   27.0287 H   0  0  0  0  0  0
  -26.3134  -29.6645   24.1406 H   0  0  0  0  0  0
  -27.3940  -29.7273   25.5110 H   0  0  0  0  0  0
  -27.9086  -30.4133   23.9898 H   0  0  0  0  0  0
  -27.2616  -33.3723   26.2004 H   0  0  0  0  0  0
  -28.3955  -32.6878   25.0461 H   0  0  0  0  0  0
  -28.0624  -31.8596   26.5601 H   0  0  0  0  0  0
  -28.2575  -38.0053   24.7509 H   0  0  0  0  0  0
  -28.1040  -36.2570   24.6307 H   0  0  0  0  0  0
  -27.2254  -37.1403   25.8876 H   0  0  0  0  0  0
  -20.9578  -29.8755   21.6699 H   0  0  0  0  0  0
  -26.0088  -38.2751   24.1500 H   0  0  0  0  0  0
  -31.0260  -20.6054   19.3294 H   0  0  0  0  0  0
  -30.2974  -22.9373   19.2858 H   0  0  0  0  0  0
  -27.6622  -19.5528   21.6578 H   0  0  0  0  0  0
  -27.1389  -17.6469   20.4949 H   0  0  0  0  0  0
  -26.5837  -17.0742   18.9270 H   0  0  0  0  0  0
  -27.5534  -18.5110   18.9841 H   0  0  0  0  0  0
  -26.3180  -21.2395   22.4149 H   0  0  0  0  0  0
  -26.5902  -22.8725   22.1697 H   0  0  0  0  0  0
  -26.8248  -24.2308   20.7241 H   0  0  0  0  0  0
  1 25  1  0  0  0
  1 30  2  0  0  0
  1 82  1  0  0  0
  2  3  1  0  0  0
  2 25  1  0  0  0
  2 85  1  0  0  0
  2 86  1  0  0  0
  3  4  1  0  0  0
  3 87  1  0  0  0
  3 88  1  0  0  0
  4  5  1  0  0  0
  4 89  1  0  0  0
  4 90  1  0  0  0
  5  6  1  0  0  0
  5 26  1  0  0  0
  5 91  1  0  0  0
  6 25  1  0  0  0
  6 92  1  0  0  0
  6 93  1  0  0  0
  7  8  2  0  0  0
  7 26  1  0  0  0
  7 29  1  0  0  0
  8  9  1  0  0  0
  8 22  1  0  0  0
  9 10  1  0  0  0
  9 27  2  0  0  0
 10 11  2  0  0  0
 10 15  1  0  0  0
 11 12  1  0  0  0
 11 94  1  0  0  0
 12 13  2  0  0  0
 12 95  1  0  0  0
 13 14  1  0  0  0
 13 31  1  0  0  0
 14 15  2  0  0  0
 14 96  1  0  0  0
 15 97  1  0  0  0
 16 17  2  0  0  0
 16 21  1  0  0  0
 16 31  1  0  0  0
 17 18  1  0  0  0
 17 98  1  0  0  0
 18 19  2  0  0  0
 18 99  1  0  0  0
 19 20  1  0  0  0
 19 24  1  0  0  0
 20 21  2  0  0  0
 20100  1  0  0  0
 21 23  1  0  0  0
 22 28  1  0  0  0
 22 32  2  0  0  0
 26 27  1  0  0  0
 28101  1  0  0  0
 28102  1  0  0  0
 29103  1  0  0  0
 29104  1  0  0  0
 33 34  1  0  0  0
 33 66  1  0  0  0
 33 70  2  0  0  0
 34 36  1  0  0  0
 34 59  1  0  0  0
 34105  1  0  0  0
 35 44  2  0  0  0
 35 45  1  0  0  0
 35 68  1  0  0  0
 36 56  1  0  0  0
 36106  1  0  0  0
 37 39  1  0  0  0
 37 47  1  0  0  0
 37 66  1  0  0  0
 37107  1  0  0  0
 38 43  2  0  0  0
 38 46  1  0  0  0
 38 47  1  0  0  0
 39 64  1  0  0  0
 39 67  2  0  0  0
 40 52  1  0  0  0
 40 53  2  0  0  0
 40 58  1  0  0  0
 41108  1  0  0  0
 41109  1  0  0  0
 41110  1  0  0  0
 41 48  1  0  0  0
 42 43  1  0  0  0
 42 66  1  0  0  0
 42111  1  0  0  0
 42112  1  0  0  0
 43 44  1  0  0  0
 44113  1  0  0  0
 45 46  2  0  0  0
 45114  1  0  0  0
 46115  1  0  0  0
 47116  1  0  0  0
 47117  1  0  0  0
 48 56  1  0  0  0
 48 65  1  0  0  0
 48118  1  0  0  0
 49 50  1  0  0  0
 49 53  1  0  0  0
 49 64  1  0  0  0
 49119  1  0  0  0
 50 51  1  0  0  0
 50120  1  0  0  0
 50121  1  0  0  0
 51 52  1  0  0  0
 51122  1  0  0  0
 51123  1  0  0  0
 52124  1  0  0  0
 52125  1  0  0  0
 53 54  1  0  0  0
 54 55  2  0  0  0
 54126  1  0  0  0
 55 57  1  0  0  0
 55127  1  0  0  0
 56 69  2  0  0  0
 57 58  2  0  0  0
 57128  1  0  0  0
 58129  1  0  0  0
 59 60  1  0  0  0
 59 61  1  0  0  0
 59 62  1  0  0  0
 60130  1  0  0  0
 60131  1  0  0  0
 60132  1  0  0  0
 61133  1  0  0  0
 61134  1  0  0  0
 61135  1  0  0  0
 62136  1  0  0  0
 62137  1  0  0  0
 62138  1  0  0  0
 63 65  1  0  0  0
 63139  1  0  0  0
 63140  1  0  0  0
 63141  1  0  0  0
 64142  1  0  0  0
 65143  1  0  0  0
 68 81  1  0  0  0
 71 72  2  0  0  0
 71 74  1  0  0  0
 71144  1  0  0  0
 72 75  1  0  0  0
 72145  1  0  0  0
 73 74  2  0  0  0
 73 76  1  0  0  0
 73146  1  0  0  0
 74 77  1  0  0  0
 75 76  2  0  0  0
 75 81  1  0  0  0
 76 80  1  0  0  0
 77 82  1  0  0  0
 77 83  2  0  0  0
 78 79  1  0  0  0
 78 82  1  0  0  0
 78 84  2  0  0  0
 79147  1  0  0  0
 79148  1  0  0  0
 79149  1  0  0  0
 80150  1  0  0  0
 80151  1  0  0  0
 81152  1  0  0  0
M  ISO  4   1 100  68 101  81 101  82 100
M  END
> <chiral flag>
0

> <version>
0

> <s_m_source_file>
/data/baiqing/PycharmProjects/Reinvent-master-3.2/result/LINK_invent/BTK/process_docking_weight1_custom_product_contain_oxygen_bond_distance_aromatic_linkinvent_7_9_3/rearranged_h_0092.sdf

> <i_m_source_file_index>
34

> <r_mmod_Potential_Energy-OPLS-2005>
1256.73767089844

> <r_mmod_Stretch_Energy-OPLS-2005>
527.2978515625

> <r_mmod_Bend_Energy-OPLS-2005>
483.353424072266

> <r_mmod_Torsional_Energy-OPLS-2005>
292.032562255859

> <r_mmod_Improper_Torsional_Energy-OPLS-2005>
15.2532434463501

> <r_mmod_Van_der_Waal_Energy-OPLS-2005>
147.667495727539

> <r_mmod_Electrostatic_Energy-OPLS-2005>
-496.391387939453

> <r_mmod_Solvation_Energy-OPLS-2005>
-234.459106445312

> <b_mmod_Minimization_Converged-OPLS-2005>
0

> <r_mmod_RMS_Derivative-OPLS-2005>
2.47215414047241

$$$$
34
                    3D
 Structure written by MMmdl.
159167  0  0  1  0            999 V2000
  -30.6936  -14.5289   20.5259 C   0  0  0  0  0  0
  -30.4187  -12.3288   19.4428 C   0  0  0  0  0  0
  -29.4986  -12.4992   18.2163 C   0  0  0  0  0  0
  -28.0198  -12.3560   18.6263 C   0  0  0  0  0  0
  -27.6556  -13.2154   19.8675 C   0  0  2  0  0  0
  -28.6986  -13.0489   20.9967 C   0  0  0  0  0  0
  -25.2562  -13.8176   20.5683 C   0  0  0  0  0  0
  -24.1828  -13.0439   20.9186 C   0  0  0  0  0  0
  -24.6396  -11.6911   20.8741 C   0  0  0  0  0  0
  -23.9066  -10.4293   21.0404 C   0  0  0  0  0  0
  -24.3618   -9.4209   21.9183 C   0  0  0  0  0  0
  -23.6294   -8.2245   22.0757 C   0  0  0  0  0  0
  -22.4277   -8.0282   21.3547 C   0  0  0  0  0  0
  -21.9911   -9.0253   20.4647 C   0  0  0  0  0  0
  -22.7239  -10.2132   20.3055 C   0  0  0  0  0  0
  -21.6853   -6.0738   22.5282 C   0  0  0  0  0  0
  -21.4012   -6.5642   23.8215 C   0  0  0  0  0  0
  -21.3660   -5.6794   24.9177 C   0  0  0  0  0  0
  -21.6043   -4.3057   24.7227 C   0  0  0  0  0  0
  -21.8818   -3.8150   23.4348 C   0  0  0  0  0  0
  -21.9192   -4.6966   22.3403 C   0  0  0  0  0  0
  -22.7848  -13.5231   21.1849 C   0  0  0  0  0  0
  -22.1660   -4.2153   21.0980 F   0  0  0  0  0  0
  -21.5630   -3.4541   25.7739 F   0  0  0  0  0  0
  -30.0239  -13.3451   20.4338 N   0  0  0  0  0  0
  -26.2998  -12.9360   20.3343 N   0  0  0  0  0  0
  -25.9325  -11.6512   20.5768 N   0  0  0  0  0  0
  -22.0490  -12.8224   22.0404 N   0  0  0  0  0  0
  -25.4261  -15.1896   20.4078 N   0  0  0  0  0  0
  -31.8485  -14.6602   20.1141 O   0  0  0  0  0  0
  -21.6642   -6.8881   21.4243 O   0  0  0  0  0  0
  -22.3531  -14.5537   20.6696 O   0  0  0  0  0  0
  -24.6195  -31.8657   23.2088 C   0  0  0  0  0  0
  -25.9074  -32.4808   23.8391 C   0  0  1  0  0  0
  -27.2235  -27.3856   20.1045 C   0  0  0  0  0  0
  -25.5918  -33.8607   24.2319 N   0  0  0  0  0  0
  -23.4093  -30.4920   21.5500 C   0  0  2  0  0  0
  -24.8541  -28.9589   20.1113 C   0  0  0  0  0  0
  -22.7437  -29.4656   22.4962 C   0  0  0  0  0  0
  -18.0279  -28.1386   22.8489 C   0  0  0  0  0  0
  -24.1489  -36.7308   23.2638 C   0  0  0  0  0  0
  -25.9449  -30.8166   21.3712 C   0  0  0  0  0  0
  -26.0191  -29.4501   20.7133 C   0  0  0  0  0  0
  -27.2066  -28.6726   20.7051 C   0  0  0  0  0  0
  -26.0374  -26.9345   19.4756 C   0  0  0  0  0  0
  -24.8614  -27.7031   19.4869 C   0  0  0  0  0  0
  -23.6196  -29.8308   20.1630 C   0  0  0  0  0  0
  -25.4112  -36.3102   24.0334 C   0  0  1  0  0  0
  -20.5876  -28.3680   23.1302 C   0  0  2  0  0  0
  -20.6773  -26.9410   22.5418 C   0  0  0  0  0  0
  -19.5751  -26.6388   21.5216 C   0  0  0  0  0  0
  -18.1926  -26.7931   22.1620 C   0  0  0  0  0  0
  -19.1530  -28.8849   23.2893 C   0  0  0  0  0  0
  -18.9455  -30.1453   23.8907 C   0  0  0  0  0  0
  -17.6455  -30.6588   24.0570 C   0  0  0  0  0  0
  -25.9041  -34.9468   23.5122 C   0  0  0  0  0  0
  -16.5346  -29.9091   23.6328 C   0  0  0  0  0  0
  -16.7267  -28.6509   23.0346 C   0  0  0  0  0  0
  -26.4484  -31.6596   25.0735 C   0  0  0  0  0  0
  -25.3737  -31.3719   26.1474 C   0  0  0  0  0  0
  -27.0319  -30.3027   24.6150 C   0  0  0  0  0  0
  -27.6058  -32.4319   25.7498 C   0  0  0  0  0  0
  -27.5582  -37.1809   24.8461 C   0  0  0  0  0  0
  -21.4159  -29.3042   22.3703 N   0  0  0  0  0  0
  -26.4296  -37.3788   23.9406 N   0  0  0  0  0  0
  -24.6764  -31.0728   22.1009 N   0  0  0  0  0  0
  -23.4190  -28.8188   23.3011 O   0  0  0  0  0  0
  -28.3619  -26.5875   20.1578 O   0  0  0  0  0  0
  -26.5601  -34.8921   22.4682 O   0  0  0  0  0  0
  -23.5377  -32.1428   23.7457 O   0  0  0  0  0  0
  -29.9054  -19.5119   21.0318 C   0  0  0  0  0  0
  -29.9233  -18.1769   21.5506 C   0  0  0  0  0  0
  -29.6166  -20.6413   21.8533 C   0  0  0  0  0  0
  -29.6311  -17.9979   22.9300 C   0  0  0  0  0  0
  -29.3100  -20.4219   23.2153 C   0  0  0  0  0  0
  -29.3132  -19.1111   23.7404 C   0  0  0  0  0  0
  -29.2424  -24.2494   20.5910 C   0  0  0  0  0  0
  -29.0262  -22.6851   20.5028 C   0  0  0  0  0  0
  -30.3730  -17.0225   20.6127 C   0  0  0  0  0  0
  -28.1576  -25.1562   19.9536 C   0  0  0  0  0  0
  -29.6850  -16.7514   23.5603 N   0  0  0  0  0  0
  -29.0179  -21.4892   24.0730 N   0  0  0  0  0  0
  -29.0904  -18.9067   25.1052 N   0  0  0  0  0  0
  -29.7436  -22.0067   21.4220 N   0  0  0  0  0  0
  -29.9643  -15.6146   20.8802 N   0  0  0  0  0  0
  -30.2258  -24.7369   21.1660 O   0  0  0  0  0  0
  -28.2947  -22.1511   19.6618 O   0  0  0  0  0  0
  -31.4656  -12.4142   19.1462 H   0  0  0  0  0  0
  -30.3111  -11.3295   19.8670 H   0  0  0  0  0  0
  -29.7477  -11.7622   17.4517 H   0  0  0  0  0  0
  -29.6633  -13.4780   17.7627 H   0  0  0  0  0  0
  -27.8389  -11.3020   18.8403 H   0  0  0  0  0  0
  -27.3700  -12.6101   17.7880 H   0  0  0  0  0  0
  -27.6828  -14.2551   19.5413 H   0  0  0  0  0  0
  -28.6823  -12.0299   21.3863 H   0  0  0  0  0  0
  -28.4629  -13.6954   21.8431 H   0  0  0  0  0  0
  -25.2764   -9.5686   22.4756 H   0  0  0  0  0  0
  -24.0007   -7.4637   22.7475 H   0  0  0  0  0  0
  -21.0845   -8.8768   19.8952 H   0  0  0  0  0  0
  -22.3701  -10.9667   19.6161 H   0  0  0  0  0  0
  -21.2002   -7.6149   23.9720 H   0  0  0  0  0  0
  -21.1482   -6.0525   25.9080 H   0  0  0  0  0  0
  -22.0595   -2.7613   23.2848 H   0  0  0  0  0  0
  -22.4106  -11.9882   22.4788 H   0  0  0  0  0  0
  -21.1105  -13.1248   22.2606 H   0  0  0  0  0  0
  -24.6573  -15.8428   20.5139 H   0  0  0  0  0  0
  -26.2757  -15.6310   20.0794 H   0  0  0  0  0  0
  -26.7145  -32.5501   23.1150 H   0  0  0  0  0  0
  -25.0078  -33.9769   25.0472 H   0  0  0  0  0  0
  -22.6999  -31.3106   21.4118 H   0  0  0  0  0  0
  -23.3748  -35.9644   23.3307 H   0  0  0  0  0  0
  -24.3582  -36.8919   22.2050 H   0  0  0  0  0  0
  -23.7246  -37.6516   23.6651 H   0  0  0  0  0  0
  -26.0685  -31.5833   20.6051 H   0  0  0  0  0  0
  -26.8288  -30.8643   21.9956 H   0  0  0  0  0  0
  -28.1013  -29.0437   21.1857 H   0  0  0  0  0  0
  -25.9888  -25.9809   18.9711 H   0  0  0  0  0  0
  -23.9680  -27.3233   19.0106 H   0  0  0  0  0  0
  -23.7328  -30.6090   19.4072 H   0  0  0  0  0  0
  -22.7418  -29.2558   19.8627 H   0  0  0  0  0  0
  -25.1291  -36.1966   25.0827 H   0  0  0  0  0  0
  -20.9966  -28.3253   24.1422 H   0  0  0  0  0  0
  -20.5683  -26.2286   23.3611 H   0  0  0  0  0  0
  -21.6642  -26.7455   22.1204 H   0  0  0  0  0  0
  -19.6914  -25.6301   21.1241 H   0  0  0  0  0  0
  -19.6695  -27.3205   20.6752 H   0  0  0  0  0  0
  -17.4201  -26.6688   21.4016 H   0  0  0  0  0  0
  -18.0318  -26.0070   22.9012 H   0  0  0  0  0  0
  -19.7932  -30.7269   24.2277 H   0  0  0  0  0  0
  -17.5011  -31.6266   24.5173 H   0  0  0  0  0  0
  -15.5349  -30.2996   23.7650 H   0  0  0  0  0  0
  -15.8665  -28.0836   22.7049 H   0  0  0  0  0  0
  -24.5912  -30.7064   25.7810 H   0  0  0  0  0  0
  -24.8926  -32.2880   26.4911 H   0  0  0  0  0  0
  -25.8076  -30.8893   27.0241 H   0  0  0  0  0  0
  -26.2879  -29.6783   24.1189 H   0  0  0  0  0  0
  -27.4051  -29.7273   25.4634 H   0  0  0  0  0  0
  -27.8734  -30.4325   23.9340 H   0  0  0  0  0  0
  -27.2677  -33.3611   26.2097 H   0  0  0  0  0  0
  -28.3857  -32.6890   25.0318 H   0  0  0  0  0  0
  -28.0738  -31.8430   26.5397 H   0  0  0  0  0  0
  -28.2602  -38.0103   24.7507 H   0  0  0  0  0  0
  -28.1077  -36.2636   24.6288 H   0  0  0  0  0  0
  -27.2300  -37.1461   25.8864 H   0  0  0  0  0  0
  -20.9324  -29.8762   21.6921 H   0  0  0  0  0  0
  -26.0183  -38.2866   24.1408 H   0  0  0  0  0  0
  -30.1708  -19.6755   19.9969 H   0  0  0  0  0  0
  -31.4618  -17.0868   20.5750 H   0  0  0  0  0  0
  -30.0329  -17.2601   19.6038 H   0  0  0  0  0  0
  -27.2104  -24.8453   20.3957 H   0  0  0  0  0  0
  -28.1066  -24.9457   18.8852 H   0  0  0  0  0  0
  -29.7460  -15.9471   22.9501 H   0  0  0  0  0  0
  -29.0073  -16.6269   24.3043 H   0  0  0  0  0  0
  -29.5692  -22.3328   23.9922 H   0  0  0  0  0  0
  -28.8480  -21.2271   25.0358 H   0  0  0  0  0  0
  -29.5153  -18.0329   25.3939 H   0  0  0  0  0  0
  -29.4323  -19.6633   25.6814 H   0  0  0  0  0  0
  -30.2387  -22.6230   22.0521 H   0  0  0  0  0  0
  -29.0000  -15.4544   21.1282 H   0  0  0  0  0  0
  1 25  1  0  0  0
  1 30  2  0  0  0
  1 85  1  0  0  0
  2  3  1  0  0  0
  2 25  1  0  0  0
  2 88  1  0  0  0
  2 89  1  0  0  0
  3  4  1  0  0  0
  3 90  1  0  0  0
  3 91  1  0  0  0
  4  5  1  0  0  0
  4 92  1  0  0  0
  4 93  1  0  0  0
  5  6  1  0  0  0
  5 26  1  0  0  0
  5 94  1  0  0  0
  6 25  1  0  0  0
  6 95  1  0  0  0
  6 96  1  0  0  0
  7  8  2  0  0  0
  7 26  1  0  0  0
  7 29  1  0  0  0
  8  9  1  0  0  0
  8 22  1  0  0  0
  9 10  1  0  0  0
  9 27  2  0  0  0
 10 11  2  0  0  0
 10 15  1  0  0  0
 11 12  1  0  0  0
 11 97  1  0  0  0
 12 13  2  0  0  0
 12 98  1  0  0  0
 13 14  1  0  0  0
 13 31  1  0  0  0
 14 15  2  0  0  0
 14 99  1  0  0  0
 15100  1  0  0  0
 16 17  2  0  0  0
 16 21  1  0  0  0
 16 31  1  0  0  0
 17 18  1  0  0  0
 17101  1  0  0  0
 18 19  2  0  0  0
 18102  1  0  0  0
 19 20  1  0  0  0
 19 24  1  0  0  0
 20 21  2  0  0  0
 20103  1  0  0  0
 21 23  1  0  0  0
 22 28  1  0  0  0
 22 32  2  0  0  0
 26 27  1  0  0  0
 28104  1  0  0  0
 28105  1  0  0  0
 29106  1  0  0  0
 29107  1  0  0  0
 33 34  1  0  0  0
 33 66  1  0  0  0
 33 70  2  0  0  0
 34 36  1  0  0  0
 34 59  1  0  0  0
 34108  1  0  0  0
 35 44  2  0  0  0
 35 45  1  0  0  0
 35 68  1  0  0  0
 36 56  1  0  0  0
 36109  1  0  0  0
 37 39  1  0  0  0
 37 47  1  0  0  0
 37 66  1  0  0  0
 37110  1  0  0  0
 38 43  2  0  0  0
 38 46  1  0  0  0
 38 47  1  0  0  0
 39 64  1  0  0  0
 39 67  2  0  0  0
 40 52  1  0  0  0
 40 53  2  0  0  0
 40 58  1  0  0  0
 41111  1  0  0  0
 41112  1  0  0  0
 41113  1  0  0  0
 41 48  1  0  0  0
 42 43  1  0  0  0
 42 66  1  0  0  0
 42114  1  0  0  0
 42115  1  0  0  0
 43 44  1  0  0  0
 44116  1  0  0  0
 45 46  2  0  0  0
 45117  1  0  0  0
 46118  1  0  0  0
 47119  1  0  0  0
 47120  1  0  0  0
 48 56  1  0  0  0
 48 65  1  0  0  0
 48121  1  0  0  0
 49 50  1  0  0  0
 49 53  1  0  0  0
 49 64  1  0  0  0
 49122  1  0  0  0
 50 51  1  0  0  0
 50123  1  0  0  0
 50124  1  0  0  0
 51 52  1  0  0  0
 51125  1  0  0  0
 51126  1  0  0  0
 52127  1  0  0  0
 52128  1  0  0  0
 53 54  1  0  0  0
 54 55  2  0  0  0
 54129  1  0  0  0
 55 57  1  0  0  0
 55130  1  0  0  0
 56 69  2  0  0  0
 57 58  2  0  0  0
 57131  1  0  0  0
 58132  1  0  0  0
 59 60  1  0  0  0
 59 61  1  0  0  0
 59 62  1  0  0  0
 60133  1  0  0  0
 60134  1  0  0  0
 60135  1  0  0  0
 61136  1  0  0  0
 61137  1  0  0  0
 61138  1  0  0  0
 62139  1  0  0  0
 62140  1  0  0  0
 62141  1  0  0  0
 63 65  1  0  0  0
 63142  1  0  0  0
 63143  1  0  0  0
 63144  1  0  0  0
 64145  1  0  0  0
 65146  1  0  0  0
 68 80  1  0  0  0
 71 72  2  0  0  0
 71 73  1  0  0  0
 71147  1  0  0  0
 72 74  1  0  0  0
 72 79  1  0  0  0
 73 75  2  0  0  0
 73 84  1  0  0  0
 74 76  2  0  0  0
 74 81  1  0  0  0
 75 76  1  0  0  0
 75 82  1  0  0  0
 76 83  1  0  0  0
 77 78  1  0  0  0
 77 80  1  0  0  0
 77 86  2  0  0  0
 78 84  1  0  0  0
 78 87  2  0  0  0
 79 85  1  0  0  0
 79148  1  0  0  0
 79149  1  0  0  0
 80150  1  0  0  0
 80151  1  0  0  0
 81152  1  0  0  0
 81153  1  0  0  0
 82154  1  0  0  0
 82155  1  0  0  0
 83156  1  0  0  0
 83157  1  0  0  0
 84158  1  0  0  0
 85159  1  0  0  0
M  ISO  4   1 100  68 101  80 101  85 100
M  END
> <chiral flag>
0

> <version>
0

> <s_m_source_file>
/data/baiqing/PycharmProjects/Reinvent-master-3.2/result/LINK_invent/BTK/process_docking_weight1_custom_product_contain_oxygen_bond_distance_aromatic_linkinvent_7_9_3/rearranged_h_0092.sdf

> <i_m_source_file_index>
35

> <r_mmod_Potential_Energy-OPLS-2005>
-231.144577026367

> <r_mmod_Stretch_Energy-OPLS-2005>
53.7377700805664

> <r_mmod_Bend_Energy-OPLS-2005>
116.463577270508

> <r_mmod_Torsional_Energy-OPLS-2005>
250.54411315918

> <r_mmod_Improper_Torsional_Energy-OPLS-2005>
21.5941543579102

> <r_mmod_Van_der_Waal_Energy-OPLS-2005>
173.038772583008

> <r_mmod_Electrostatic_Energy-OPLS-2005>
-610.610534667969

> <r_mmod_Solvation_Energy-OPLS-2005>
-260.505157470703

> <b_mmod_Minimization_Converged-OPLS-2005>
0

> <r_mmod_RMS_Derivative-OPLS-2005>
0.491085410118103

$$$$
35
                    3D
 Structure written by MMmdl.
158167  0  0  1  0            999 V2000
  -30.6259  -14.7669   20.4468 C   0  0  0  0  0  0
  -30.4280  -12.4676   19.4791 C   0  0  0  0  0  0
  -29.5102  -12.5082   18.2385 C   0  0  0  0  0  0
  -28.0369  -12.3319   18.6529 C   0  0  0  0  0  0
  -27.6397  -13.2371   19.8502 C   0  0  2  0  0  0
  -28.6854  -13.1910   20.9852 C   0  0  0  0  0  0
  -25.2502  -13.8205   20.5694 C   0  0  0  0  0  0
  -24.1805  -13.0445   20.9218 C   0  0  0  0  0  0
  -24.6397  -11.6923   20.8745 C   0  0  0  0  0  0
  -23.9075  -10.4299   21.0410 C   0  0  0  0  0  0
  -24.3624   -9.4206   21.9184 C   0  0  0  0  0  0
  -23.6296   -8.2240   22.0753 C   0  0  0  0  0  0
  -22.4278   -8.0280   21.3540 C   0  0  0  0  0  0
  -21.9914   -9.0255   20.4638 C   0  0  0  0  0  0
  -22.7247  -10.2136   20.3050 C   0  0  0  0  0  0
  -21.6858   -6.0730   22.5280 C   0  0  0  0  0  0
  -21.4014   -6.5634   23.8211 C   0  0  0  0  0  0
  -21.3661   -5.6789   24.9171 C   0  0  0  0  0  0
  -21.6045   -4.3053   24.7224 C   0  0  0  0  0  0
  -21.8823   -3.8142   23.4347 C   0  0  0  0  0  0
  -21.9192   -4.6956   22.3400 C   0  0  0  0  0  0
  -22.7824  -13.5223   21.1874 C   0  0  0  0  0  0
  -22.1665   -4.2138   21.0979 F   0  0  0  0  0  0
  -21.5628   -3.4539   25.7742 F   0  0  0  0  0  0
  -29.9840  -13.5456   20.3970 N   0  0  0  0  0  0
  -26.2932  -12.9423   20.3284 N   0  0  0  0  0  0
  -25.9329  -11.6557   20.5748 N   0  0  0  0  0  0
  -22.0467  -12.8202   22.0424 N   0  0  0  0  0  0
  -25.4183  -15.1926   20.4096 N   0  0  0  0  0  0
  -31.8232  -14.8068   20.1543 O   0  0  0  0  0  0
  -21.6644   -6.8873   21.4242 O   0  0  0  0  0  0
  -22.3501  -14.5525   20.6721 O   0  0  0  0  0  0
  -24.6329  -31.8548   23.1979 C   0  0  0  0  0  0
  -25.9150  -32.4756   23.8324 C   0  0  1  0  0  0
  -27.2178  -27.2457   20.1413 C   0  0  0  0  0  0
  -25.5937  -33.8556   24.2250 N   0  0  0  0  0  0
  -23.4334  -30.4776   21.5395 C   0  0  2  0  0  0
  -24.8858  -28.9256   20.1062 C   0  0  0  0  0  0
  -22.7525  -29.4602   22.4881 C   0  0  0  0  0  0
  -18.0314  -28.1430   22.8505 C   0  0  0  0  0  0
  -24.1479  -36.7273   23.2636 C   0  0  0  0  0  0
  -25.9813  -30.7630   21.3824 C   0  0  0  0  0  0
  -26.0575  -29.3849   20.7240 C   0  0  0  0  0  0
  -27.2294  -28.5539   20.7376 C   0  0  0  0  0  0
  -26.0309  -26.8679   19.4800 C   0  0  0  0  0  0
  -24.8783  -27.6759   19.4701 C   0  0  0  0  0  0
  -23.6552  -29.8120   20.1540 C   0  0  0  0  0  0
  -25.4103  -36.3064   24.0330 C   0  0  1  0  0  0
  -20.5918  -28.3739   23.1270 C   0  0  2  0  0  0
  -20.6795  -26.9457   22.5410 C   0  0  0  0  0  0
  -19.5751  -26.6420   21.5239 C   0  0  0  0  0  0
  -18.1941  -26.7975   22.1652 C   0  0  0  0  0  0
  -19.1569  -28.8908   23.2886 C   0  0  0  0  0  0
  -18.9473  -30.1506   23.8901 C   0  0  0  0  0  0
  -17.6469  -30.6621   24.0585 C   0  0  0  0  0  0
  -25.9046  -34.9437   23.5087 C   0  0  0  0  0  0
  -16.5367  -29.9113   23.6348 C   0  0  0  0  0  0
  -16.7300  -28.6536   23.0369 C   0  0  0  0  0  0
  -26.4502  -31.6592   25.0717 C   0  0  0  0  0  0
  -25.3714  -31.3755   26.1433 C   0  0  0  0  0  0
  -27.0352  -30.2997   24.6236 C   0  0  0  0  0  0
  -27.6049  -32.4335   25.7505 C   0  0  0  0  0  0
  -27.5574  -37.1788   24.8457 C   0  0  0  0  0  0
  -21.4229  -29.3067   22.3635 N   0  0  0  0  0  0
  -26.4270  -37.3773   23.9422 N   0  0  0  0  0  0
  -24.7016  -31.0499   22.0958 N   0  0  0  0  0  0
  -23.4210  -28.8151   23.3003 O   0  0  0  0  0  0
  -28.2155  -26.2399   20.2481 O   0  0  0  0  0  0
  -26.5624  -34.8921   22.4658 O   0  0  0  0  0  0
  -23.5472  -32.1368   23.7266 O   0  0  0  0  0  0
  -30.8670  -20.1889   19.9355 C   0  0  0  0  0  0
  -29.2819  -18.5040   20.6732 C   0  0  0  0  0  0
  -31.4678  -17.7951   19.9247 C   0  0  0  0  0  0
  -29.5737  -19.9306   20.4411 C   0  0  0  0  0  0
  -31.7968  -19.1508   19.6962 C   0  0  0  0  0  0
  -30.2024  -17.3939   20.4213 C   0  0  0  0  0  0
  -28.0481  -23.7139   21.1140 C   0  0  0  0  0  0
  -27.1972  -23.0994   22.1522 C   0  0  0  0  0  0
  -27.8060  -25.1010   21.0097 C   0  0  0  0  0  0
  -28.9611  -22.5756   20.4325 C   0  0  0  0  0  0
  -26.5171  -21.7998   21.7702 C   0  0  0  0  0  0
  -27.5520  -20.6969   21.5635 C   0  0  0  0  0  0
  -28.6786  -21.0697   20.6971 N   0  0  0  0  0  0
  -33.0702  -19.4686   19.2200 N   0  0  0  0  0  0
  -29.8774  -15.9350   20.6316 N   0  0  0  0  0  0
  -26.9995  -23.5808   23.2748 O   0  0  0  0  0  0
  -31.4700  -12.5781   19.1738 H   0  0  0  0  0  0
  -30.3660  -11.4966   19.9710 H   0  0  0  0  0  0
  -29.7935  -11.7266   17.5324 H   0  0  0  0  0  0
  -29.6372  -13.4554   17.7124 H   0  0  0  0  0  0
  -27.8955  -11.2838   18.9200 H   0  0  0  0  0  0
  -27.3792  -12.5176   17.8025 H   0  0  0  0  0  0
  -27.6290  -14.2552   19.4636 H   0  0  0  0  0  0
  -28.7252  -12.1977   21.4338 H   0  0  0  0  0  0
  -28.4169  -13.8786   21.7886 H   0  0  0  0  0  0
  -25.2765   -9.5684   22.4762 H   0  0  0  0  0  0
  -24.0003   -7.4629   22.7472 H   0  0  0  0  0  0
  -21.0843   -8.8769   19.8944 H   0  0  0  0  0  0
  -22.3698  -10.9672   19.6155 H   0  0  0  0  0  0
  -21.2013   -7.6141   23.9707 H   0  0  0  0  0  0
  -21.1479   -6.0520   25.9071 H   0  0  0  0  0  0
  -22.0601   -2.7604   23.2853 H   0  0  0  0  0  0
  -22.4093  -11.9861   22.4805 H   0  0  0  0  0  0
  -21.1070  -13.1204   22.2622 H   0  0  0  0  0  0
  -24.6474  -15.8436   20.5101 H   0  0  0  0  0  0
  -26.2562  -15.6263   20.0459 H   0  0  0  0  0  0
  -26.7218  -32.5418   23.1067 H   0  0  0  0  0  0
  -25.0068  -33.9682   25.0383 H   0  0  0  0  0  0
  -22.7308  -31.3001   21.3923 H   0  0  0  0  0  0
  -23.3740  -35.9608   23.3296 H   0  0  0  0  0  0
  -24.3555  -36.8893   22.2044 H   0  0  0  0  0  0
  -23.7228  -37.6469   23.6661 H   0  0  0  0  0  0
  -26.1190  -31.5221   20.6117 H   0  0  0  0  0  0
  -26.8559  -30.8146   22.0168 H   0  0  0  0  0  0
  -28.1119  -28.8865   21.2646 H   0  0  0  0  0  0
  -25.9776  -25.8956   19.0119 H   0  0  0  0  0  0
  -23.9847  -27.3173   18.9778 H   0  0  0  0  0  0
  -23.7792  -30.5874   19.3982 H   0  0  0  0  0  0
  -22.7759  -29.2445   19.8458 H   0  0  0  0  0  0
  -25.1287  -36.1890   25.0825 H   0  0  0  0  0  0
  -21.0041  -28.3334   24.1386 H   0  0  0  0  0  0
  -20.5734  -26.2357   23.3623 H   0  0  0  0  0  0
  -21.6654  -26.7485   22.1192 H   0  0  0  0  0  0
  -19.6878  -25.6329   21.1283 H   0  0  0  0  0  0
  -19.6676  -27.3223   20.6764 H   0  0  0  0  0  0
  -17.4213  -26.6765   21.4052 H   0  0  0  0  0  0
  -18.0301  -26.0114   22.9041 H   0  0  0  0  0  0
  -19.7937  -30.7346   24.2257 H   0  0  0  0  0  0
  -17.5013  -31.6297   24.5194 H   0  0  0  0  0  0
  -15.5362  -30.3016   23.7670 H   0  0  0  0  0  0
  -15.8701  -28.0858   22.7072 H   0  0  0  0  0  0
  -24.5897  -30.7101   25.7762 H   0  0  0  0  0  0
  -24.8902  -32.2936   26.4816 H   0  0  0  0  0  0
  -25.8029  -30.8955   27.0225 H   0  0  0  0  0  0
  -26.2943  -29.6747   24.1239 H   0  0  0  0  0  0
  -27.3968  -29.7266   25.4780 H   0  0  0  0  0  0
  -27.8860  -30.4240   23.9529 H   0  0  0  0  0  0
  -27.2641  -33.3633   26.2065 H   0  0  0  0  0  0
  -28.3880  -32.6895   25.0361 H   0  0  0  0  0  0
  -28.0693  -31.8465   26.5430 H   0  0  0  0  0  0
  -28.2578  -38.0097   24.7558 H   0  0  0  0  0  0
  -28.1091  -36.2643   24.6234 H   0  0  0  0  0  0
  -27.2312  -37.1385   25.8863 H   0  0  0  0  0  0
  -20.9414  -29.8773   21.6818 H   0  0  0  0  0  0
  -26.0135  -38.2835   24.1468 H   0  0  0  0  0  0
  -31.1688  -21.2051   19.7341 H   0  0  0  0  0  0
  -28.3151  -18.2221   21.0582 H   0  0  0  0  0  0
  -32.2266  -17.0634   19.6959 H   0  0  0  0  0  0
  -27.0640  -25.4807   21.7041 H   0  0  0  0  0  0
  -29.9804  -22.7843   20.7592 H   0  0  0  0  0  0
  -28.9508  -22.7474   19.3560 H   0  0  0  0  0  0
  -25.9496  -21.9657   20.8531 H   0  0  0  0  0  0
  -25.7969  -21.5151   22.5379 H   0  0  0  0  0  0
  -27.0156  -19.8533   21.1288 H   0  0  0  0  0  0
  -27.9335  -20.3665   22.5319 H   0  0  0  0  0  0
  -33.4043  -20.4229   19.3156 H   0  0  0  0  0  0
  -33.8150  -18.7849   19.3270 H   0  0  0  0  0  0
  -28.9180  -15.7488   20.8830 H   0  0  0  0  0  0
  1 25  1  0  0  0
  1 30  2  0  0  0
  1 85  1  0  0  0
  2  3  1  0  0  0
  2 25  1  0  0  0
  2 87  1  0  0  0
  2 88  1  0  0  0
  3  4  1  0  0  0
  3 89  1  0  0  0
  3 90  1  0  0  0
  4  5  1  0  0  0
  4 91  1  0  0  0
  4 92  1  0  0  0
  5  6  1  0  0  0
  5 26  1  0  0  0
  5 93  1  0  0  0
  6 25  1  0  0  0
  6 94  1  0  0  0
  6 95  1  0  0  0
  7  8  2  0  0  0
  7 26  1  0  0  0
  7 29  1  0  0  0
  8  9  1  0  0  0
  8 22  1  0  0  0
  9 10  1  0  0  0
  9 27  2  0  0  0
 10 11  2  0  0  0
 10 15  1  0  0  0
 11 12  1  0  0  0
 11 96  1  0  0  0
 12 13  2  0  0  0
 12 97  1  0  0  0
 13 14  1  0  0  0
 13 31  1  0  0  0
 14 15  2  0  0  0
 14 98  1  0  0  0
 15 99  1  0  0  0
 16 17  2  0  0  0
 16 21  1  0  0  0
 16 31  1  0  0  0
 17 18  1  0  0  0
 17100  1  0  0  0
 18 19  2  0  0  0
 18101  1  0  0  0
 19 20  1  0  0  0
 19 24  1  0  0  0
 20 21  2  0  0  0
 20102  1  0  0  0
 21 23  1  0  0  0
 22 28  1  0  0  0
 22 32  2  0  0  0
 26 27  1  0  0  0
 28103  1  0  0  0
 28104  1  0  0  0
 29105  1  0  0  0
 29106  1  0  0  0
 33 34  1  0  0  0
 33 66  1  0  0  0
 33 70  2  0  0  0
 34 36  1  0  0  0
 34 59  1  0  0  0
 34107  1  0  0  0
 35 44  2  0  0  0
 35 45  1  0  0  0
 35 68  1  0  0  0
 36 56  1  0  0  0
 36108  1  0  0  0
 37 39  1  0  0  0
 37 47  1  0  0  0
 37 66  1  0  0  0
 37109  1  0  0  0
 38 43  2  0  0  0
 38 46  1  0  0  0
 38 47  1  0  0  0
 39 64  1  0  0  0
 39 67  2  0  0  0
 40 52  1  0  0  0
 40 53  2  0  0  0
 40 58  1  0  0  0
 41110  1  0  0  0
 41111  1  0  0  0
 41112  1  0  0  0
 41 48  1  0  0  0
 42 43  1  0  0  0
 42 66  1  0  0  0
 42113  1  0  0  0
 42114  1  0  0  0
 43 44  1  0  0  0
 44115  1  0  0  0
 45 46  2  0  0  0
 45116  1  0  0  0
 46117  1  0  0  0
 47118  1  0  0  0
 47119  1  0  0  0
 48 56  1  0  0  0
 48 65  1  0  0  0
 48120  1  0  0  0
 49 50  1  0  0  0
 49 53  1  0  0  0
 49 64  1  0  0  0
 49121  1  0  0  0
 50 51  1  0  0  0
 50122  1  0  0  0
 50123  1  0  0  0
 51 52  1  0  0  0
 51124  1  0  0  0
 51125  1  0  0  0
 52126  1  0  0  0
 52127  1  0  0  0
 53 54  1  0  0  0
 54 55  2  0  0  0
 54128  1  0  0  0
 55 57  1  0  0  0
 55129  1  0  0  0
 56 69  2  0  0  0
 57 58  2  0  0  0
 57130  1  0  0  0
 58131  1  0  0  0
 59 60  1  0  0  0
 59 61  1  0  0  0
 59 62  1  0  0  0
 60132  1  0  0  0
 60133  1  0  0  0
 60134  1  0  0  0
 61135  1  0  0  0
 61136  1  0  0  0
 61137  1  0  0  0
 62138  1  0  0  0
 62139  1  0  0  0
 62140  1  0  0  0
 63 65  1  0  0  0
 63141  1  0  0  0
 63142  1  0  0  0
 63143  1  0  0  0
 64144  1  0  0  0
 65145  1  0  0  0
 68 79  1  0  0  0
 71 74  2  0  0  0
 71 75  1  0  0  0
 71146  1  0  0  0
 72 74  1  0  0  0
 72 76  2  0  0  0
 72147  1  0  0  0
 73 75  2  0  0  0
 73 76  1  0  0  0
 73148  1  0  0  0
 74 83  1  0  0  0
 75 84  1  0  0  0
 76 85  1  0  0  0
 77 78  1  0  0  0
 77 79  2  0  0  0
 77 80  1  0  0  0
 78 81  1  0  0  0
 78 86  2  0  0  0
 79149  1  0  0  0
 80 83  1  0  0  0
 80150  1  0  0  0
 80151  1  0  0  0
 81 82  1  0  0  0
 81152  1  0  0  0
 81153  1  0  0  0
 82 83  1  0  0  0
 82154  1  0  0  0
 82155  1  0  0  0
 84156  1  0  0  0
 84157  1  0  0  0
 85158  1  0  0  0
M  ISO  4   1 100  68 101  79 101  85 100
M  END
> <chiral flag>
0

> <version>
0

> <s_m_source_file>
/data/baiqing/PycharmProjects/Reinvent-master-3.2/result/LINK_invent/BTK/process_docking_weight1_custom_product_contain_oxygen_bond_distance_aromatic_linkinvent_7_9_3/rearranged_h_0092.sdf

> <i_m_source_file_index>
36

> <r_mmod_Potential_Energy-OPLS-2005>
354.791015625

> <r_mmod_Stretch_Energy-OPLS-2005>
157.821884155273

> <r_mmod_Bend_Energy-OPLS-2005>
236.718185424805

> <r_mmod_Torsional_Energy-OPLS-2005>
218.886337280273

> <r_mmod_Improper_Torsional_Energy-OPLS-2005>
8.39506721496582

> <r_mmod_Van_der_Waal_Energy-OPLS-2005>
164.876602172852

> <r_mmod_Electrostatic_Energy-OPLS-2005>
-293.773559570312

> <r_mmod_Solvation_Energy-OPLS-2005>
-247.256805419922

> <b_mmod_Minimization_Converged-OPLS-2005>
0

> <r_mmod_RMS_Derivative-OPLS-2005>
2.40984129905701

$$$$
36
                    3D
 Structure written by MMmdl.
156165  0  0  1  0            999 V2000
  -30.6180  -14.6583   20.4806 C   0  0  0  0  0  0
  -30.4430  -12.4044   19.4410 C   0  0  0  0  0  0
  -29.5106  -12.5265   18.2145 C   0  0  0  0  0  0
  -28.0286  -12.3680   18.6205 C   0  0  0  0  0  0
  -27.6521  -13.2278   19.8579 C   0  0  2  0  0  0
  -28.7031  -13.0930   20.9838 C   0  0  0  0  0  0
  -25.2539  -13.8195   20.5663 C   0  0  0  0  0  0
  -24.1820  -13.0454   20.9183 C   0  0  0  0  0  0
  -24.6408  -11.6923   20.8729 C   0  0  0  0  0  0
  -23.9074  -10.4303   21.0396 C   0  0  0  0  0  0
  -24.3615   -9.4216   21.9188 C   0  0  0  0  0  0
  -23.6284   -8.2259   22.0758 C   0  0  0  0  0  0
  -22.4273   -8.0279   21.3538 C   0  0  0  0  0  0
  -21.9903   -9.0265   20.4660 C   0  0  0  0  0  0
  -22.7235  -10.2146   20.3057 C   0  0  0  0  0  0
  -21.6859   -6.0729   22.5278 C   0  0  0  0  0  0
  -21.4012   -6.5622   23.8208 C   0  0  0  0  0  0
  -21.3661   -5.6775   24.9168 C   0  0  0  0  0  0
  -21.6042   -4.3037   24.7226 C   0  0  0  0  0  0
  -21.8820   -3.8134   23.4336 C   0  0  0  0  0  0
  -21.9199   -4.6948   22.3401 C   0  0  0  0  0  0
  -22.7831  -13.5235   21.1823 C   0  0  0  0  0  0
  -22.1666   -4.2130   21.0980 F   0  0  0  0  0  0
  -21.5629   -3.4530   25.7745 F   0  0  0  0  0  0
  -30.0181  -13.4284   20.4133 N   0  0  0  0  0  0
  -26.2992  -12.9399   20.3283 N   0  0  0  0  0  0
  -25.9346  -11.6551   20.5743 N   0  0  0  0  0  0
  -22.0432  -12.8281   22.0389 N   0  0  0  0  0  0
  -25.4186  -15.1926   20.4016 N   0  0  0  0  0  0
  -31.7992  -14.8227   20.1611 O   0  0  0  0  0  0
  -21.6629   -6.8881   21.4245 O   0  0  0  0  0  0
  -22.3526  -14.5558   20.6649 O   0  0  0  0  0  0
  -24.6355  -31.8590   23.2020 C   0  0  0  0  0  0
  -25.9196  -32.4770   23.8345 C   0  0  1  0  0  0
  -27.2261  -27.3039   20.1082 C   0  0  0  0  0  0
  -25.5999  -33.8555   24.2265 N   0  0  0  0  0  0
  -23.4284  -30.4853   21.5479 C   0  0  2  0  0  0
  -24.8742  -28.9470   20.1117 C   0  0  0  0  0  0
  -22.7504  -29.4614   22.4899 C   0  0  0  0  0  0
  -18.0287  -28.1367   22.8487 C   0  0  0  0  0  0
  -24.1497  -36.7262   23.2628 C   0  0  0  0  0  0
  -25.9753  -30.7907   21.3718 C   0  0  0  0  0  0
  -26.0514  -29.4195   20.7053 C   0  0  0  0  0  0
  -27.2361  -28.6146   20.6847 C   0  0  0  0  0  0
  -26.0257  -26.9083   19.4684 C   0  0  0  0  0  0
  -24.8645  -27.6934   19.4871 C   0  0  0  0  0  0
  -23.6482  -29.8357   20.1605 C   0  0  0  0  0  0
  -25.4110  -36.3040   24.0316 C   0  0  1  0  0  0
  -20.5899  -28.3678   23.1269 C   0  0  2  0  0  0
  -20.6770  -26.9391   22.5402 C   0  0  0  0  0  0
  -19.5753  -26.6375   21.5192 C   0  0  0  0  0  0
  -18.1931  -26.7922   22.1609 C   0  0  0  0  0  0
  -19.1543  -28.8826   23.2890 C   0  0  0  0  0  0
  -18.9459  -30.1425   23.8908 C   0  0  0  0  0  0
  -17.6457  -30.6566   24.0552 C   0  0  0  0  0  0
  -25.9064  -34.9426   23.5062 C   0  0  0  0  0  0
  -16.5346  -29.9053   23.6337 C   0  0  0  0  0  0
  -16.7273  -28.6473   23.0356 C   0  0  0  0  0  0
  -26.4544  -31.6561   25.0713 C   0  0  0  0  0  0
  -25.3765  -31.3771   26.1442 C   0  0  0  0  0  0
  -27.0359  -30.2962   24.6176 C   0  0  0  0  0  0
  -27.6113  -32.4253   25.7500 C   0  0  0  0  0  0
  -27.5569  -37.1778   24.8446 C   0  0  0  0  0  0
  -21.4199  -29.3059   22.3672 N   0  0  0  0  0  0
  -26.4263  -37.3748   23.9422 N   0  0  0  0  0  0
  -24.6993  -31.0577   22.0999 N   0  0  0  0  0  0
  -23.4191  -28.8121   23.2971 O   0  0  0  0  0  0
  -28.3025  -26.3934   20.1813 O   0  0  0  0  0  0
  -26.5590  -34.8917   22.4607 O   0  0  0  0  0  0
  -23.5501  -32.1414   23.7306 O   0  0  0  0  0  0
  -28.9831  -19.3176   19.7296 C   0  0  0  0  0  0
  -29.0246  -17.8923   19.7383 C   0  0  0  0  0  0
  -30.3290  -23.7645   20.4017 C   0  0  0  0  0  0
  -30.7208  -17.9415   21.4405 C   0  0  0  0  0  0
  -28.9049  -23.7703   20.4852 C   0  0  0  0  0  0
  -29.7769  -20.1055   20.6045 C   0  0  0  0  0  0
  -29.8987  -17.1601   20.5855 C   0  0  0  0  0  0
  -30.6419  -19.3722   21.4737 C   0  0  0  0  0  0
  -28.5659  -22.4189   20.6336 C   0  0  0  0  0  0
  -30.7710  -22.4650   20.4743 C   0  0  0  0  0  0
  -27.2022  -21.8283   20.8251 C   0  0  0  0  0  0
  -27.8976  -24.9756   20.4110 C   0  0  0  0  0  0
  -29.7045  -21.5780   20.5826 N   0  0  0  0  0  0
  -29.7610  -15.7070   20.6885 N   0  0  0  0  0  0
  -32.0531  -22.0104   20.4279 O   0  0  0  0  0  0
  -31.3831  -20.0287   22.4005 F   0  0  0  0  0  0
  -31.4842  -12.5316   19.1381 H   0  0  0  0  0  0
  -30.3710  -11.4076   19.8796 H   0  0  0  0  0  0
  -29.7770  -11.7868   17.4571 H   0  0  0  0  0  0
  -29.6603  -13.5005   17.7431 H   0  0  0  0  0  0
  -27.8498  -11.3152   18.8282 H   0  0  0  0  0  0
  -27.3865  -12.6266   17.7782 H   0  0  0  0  0  0
  -27.6597  -14.2611   19.5128 H   0  0  0  0  0  0
  -28.7118  -12.0782   21.3854 H   0  0  0  0  0  0
  -28.4544  -13.7436   21.8228 H   0  0  0  0  0  0
  -25.2757   -9.5699   22.4752 H   0  0  0  0  0  0
  -23.9987   -7.4656   22.7470 H   0  0  0  0  0  0
  -21.0835   -8.8796   19.8978 H   0  0  0  0  0  0
  -22.3692  -10.9671   19.6160 H   0  0  0  0  0  0
  -21.2004   -7.6131   23.9703 H   0  0  0  0  0  0
  -21.1480   -6.0503   25.9068 H   0  0  0  0  0  0
  -22.0603   -2.7594   23.2845 H   0  0  0  0  0  0
  -22.3991  -11.9949   22.4854 H   0  0  0  0  0  0
  -21.1049  -13.1360   22.2548 H   0  0  0  0  0  0
  -24.6348  -15.8318   20.4643 H   0  0  0  0  0  0
  -26.2594  -15.6343   20.0553 H   0  0  0  0  0  0
  -26.7267  -32.5447   23.1100 H   0  0  0  0  0  0
  -25.0172  -33.9702   25.0423 H   0  0  0  0  0  0
  -22.7289  -31.3111   21.4087 H   0  0  0  0  0  0
  -23.3752  -35.9600   23.3248 H   0  0  0  0  0  0
  -24.3608  -36.8925   22.2052 H   0  0  0  0  0  0
  -23.7274  -37.6459   23.6683 H   0  0  0  0  0  0
  -26.1020  -31.5575   20.6062 H   0  0  0  0  0  0
  -26.8590  -30.8396   21.9971 H   0  0  0  0  0  0
  -28.1436  -28.9791   21.1453 H   0  0  0  0  0  0
  -25.9325  -25.9732   18.9433 H   0  0  0  0  0  0
  -23.9704  -27.3122   19.0176 H   0  0  0  0  0  0
  -23.7992  -30.6276   19.4255 H   0  0  0  0  0  0
  -22.7630  -29.2908   19.8311 H   0  0  0  0  0  0
  -25.1293  -36.1839   25.0806 H   0  0  0  0  0  0
  -21.0005  -28.3235   24.1381 H   0  0  0  0  0  0
  -20.5636  -26.2268   23.3590 H   0  0  0  0  0  0
  -21.6649  -26.7401   22.1230 H   0  0  0  0  0  0
  -19.6916  -25.6284   21.1218 H   0  0  0  0  0  0
  -19.6695  -27.3180   20.6715 H   0  0  0  0  0  0
  -17.4199  -26.6658   21.4010 H   0  0  0  0  0  0
  -18.0331  -26.0061   22.9006 H   0  0  0  0  0  0
  -19.7926  -30.7243   24.2296 H   0  0  0  0  0  0
  -17.5002  -31.6264   24.5132 H   0  0  0  0  0  0
  -15.5339  -30.2940   23.7676 H   0  0  0  0  0  0
  -15.8678  -28.0791   22.7073 H   0  0  0  0  0  0
  -24.5829  -30.7259   25.7764 H   0  0  0  0  0  0
  -24.9107  -32.2993   26.4927 H   0  0  0  0  0  0
  -25.8056  -30.8852   27.0181 H   0  0  0  0  0  0
  -26.2931  -29.6700   24.1220 H   0  0  0  0  0  0
  -27.4059  -29.7230   25.4690 H   0  0  0  0  0  0
  -27.8812  -30.4205   23.9402 H   0  0  0  0  0  0
  -27.2759  -33.3553   26.2110 H   0  0  0  0  0  0
  -28.3958  -32.6792   25.0355 H   0  0  0  0  0  0
  -28.0756  -31.8335   26.5415 H   0  0  0  0  0  0
  -28.2531  -38.0116   24.7501 H   0  0  0  0  0  0
  -28.1113  -36.2637   24.6226 H   0  0  0  0  0  0
  -27.2316  -37.1395   25.8857 H   0  0  0  0  0  0
  -20.9311  -29.8839   21.6983 H   0  0  0  0  0  0
  -26.0109  -38.2802   24.1455 H   0  0  0  0  0  0
  -28.3046  -19.8087   19.0488 H   0  0  0  0  0  0
  -28.3569  -17.3629   19.0733 H   0  0  0  0  0  0
  -30.9639  -24.6331   20.2793 H   0  0  0  0  0  0
  -31.3845  -17.4446   22.1302 H   0  0  0  0  0  0
  -26.5723  -22.4829   21.4267 H   0  0  0  0  0  0
  -27.2391  -20.8761   21.3553 H   0  0  0  0  0  0
  -26.7133  -21.6658   19.8640 H   0  0  0  0  0  0
  -27.2923  -24.9552   21.3172 H   0  0  0  0  0  0
  -27.2458  -24.6300   19.6118 H   0  0  0  0  0  0
  -28.8074  -15.3871   20.7646 H   0  0  0  0  0  0
  -32.6310  -22.7511   20.5736 H   0  0  0  0  0  0
  1 25  1  0  0  0
  1 30  2  0  0  0
  1 84  1  0  0  0
  2  3  1  0  0  0
  2 25  1  0  0  0
  2 87  1  0  0  0
  2 88  1  0  0  0
  3  4  1  0  0  0
  3 89  1  0  0  0
  3 90  1  0  0  0
  4  5  1  0  0  0
  4 91  1  0  0  0
  4 92  1  0  0  0
  5  6  1  0  0  0
  5 26  1  0  0  0
  5 93  1  0  0  0
  6 25  1  0  0  0
  6 94  1  0  0  0
  6 95  1  0  0  0
  7  8  2  0  0  0
  7 26  1  0  0  0
  7 29  1  0  0  0
  8  9  1  0  0  0
  8 22  1  0  0  0
  9 10  1  0  0  0
  9 27  2  0  0  0
 10 11  2  0  0  0
 10 15  1  0  0  0
 11 12  1  0  0  0
 11 96  1  0  0  0
 12 13  2  0  0  0
 12 97  1  0  0  0
 13 14  1  0  0  0
 13 31  1  0  0  0
 14 15  2  0  0  0
 14 98  1  0  0  0
 15 99  1  0  0  0
 16 17  2  0  0  0
 16 21  1  0  0  0
 16 31  1  0  0  0
 17 18  1  0  0  0
 17100  1  0  0  0
 18 19  2  0  0  0
 18101  1  0  0  0
 19 20  1  0  0  0
 19 24  1  0  0  0
 20 21  2  0  0  0
 20102  1  0  0  0
 21 23  1  0  0  0
 22 28  1  0  0  0
 22 32  2  0  0  0
 26 27  1  0  0  0
 28103  1  0  0  0
 28104  1  0  0  0
 29105  1  0  0  0
 29106  1  0  0  0
 33 34  1  0  0  0
 33 66  1  0  0  0
 33 70  2  0  0  0
 34 36  1  0  0  0
 34 59  1  0  0  0
 34107  1  0  0  0
 35 44  2  0  0  0
 35 45  1  0  0  0
 35 68  1  0  0  0
 36 56  1  0  0  0
 36108  1  0  0  0
 37 39  1  0  0  0
 37 47  1  0  0  0
 37 66  1  0  0  0
 37109  1  0  0  0
 38 43  2  0  0  0
 38 46  1  0  0  0
 38 47  1  0  0  0
 39 64  1  0  0  0
 39 67  2  0  0  0
 40 52  1  0  0  0
 40 53  2  0  0  0
 40 58  1  0  0  0
 41110  1  0  0  0
 41111  1  0  0  0
 41112  1  0  0  0
 41 48  1  0  0  0
 42 43  1  0  0  0
 42 66  1  0  0  0
 42113  1  0  0  0
 42114  1  0  0  0
 43 44  1  0  0  0
 44115  1  0  0  0
 45 46  2  0  0  0
 45116  1  0  0  0
 46117  1  0  0  0
 47118  1  0  0  0
 47119  1  0  0  0
 48 56  1  0  0  0
 48 65  1  0  0  0
 48120  1  0  0  0
 49 50  1  0  0  0
 49 53  1  0  0  0
 49 64  1  0  0  0
 49121  1  0  0  0
 50 51  1  0  0  0
 50122  1  0  0  0
 50123  1  0  0  0
 51 52  1  0  0  0
 51124  1  0  0  0
 51125  1  0  0  0
 52126  1  0  0  0
 52127  1  0  0  0
 53 54  1  0  0  0
 54 55  2  0  0  0
 54128  1  0  0  0
 55 57  1  0  0  0
 55129  1  0  0  0
 56 69  2  0  0  0
 57 58  2  0  0  0
 57130  1  0  0  0
 58131  1  0  0  0
 59 60  1  0  0  0
 59 61  1  0  0  0
 59 62  1  0  0  0
 60132  1  0  0  0
 60133  1  0  0  0
 60134  1  0  0  0
 61135  1  0  0  0
 61136  1  0  0  0
 61137  1  0  0  0
 62138  1  0  0  0
 62139  1  0  0  0
 62140  1  0  0  0
 63 65  1  0  0  0
 63141  1  0  0  0
 63142  1  0  0  0
 63143  1  0  0  0
 64144  1  0  0  0
 65145  1  0  0  0
 68 82  1  0  0  0
 71 72  2  0  0  0
 71 76  1  0  0  0
 71146  1  0  0  0
 72 77  1  0  0  0
 72147  1  0  0  0
 73 75  1  0  0  0
 73 80  2  0  0  0
 73148  1  0  0  0
 74 77  2  0  0  0
 74 78  1  0  0  0
 74149  1  0  0  0
 75 79  2  0  0  0
 75 82  1  0  0  0
 76 78  2  0  0  0
 76 83  1  0  0  0
 77 84  1  0  0  0
 78 86  1  0  0  0
 79 81  1  0  0  0
 79 83  1  0  0  0
 80 83  1  0  0  0
 80 85  1  0  0  0
 81150  1  0  0  0
 81151  1  0  0  0
 81152  1  0  0  0
 82153  1  0  0  0
 82154  1  0  0  0
 84155  1  0  0  0
 85156  1  0  0  0
M  ISO  4   1 100  68 101  82 101  84 100
M  END
> <chiral flag>
0

> <version>
0

> <s_m_source_file>
/data/baiqing/PycharmProjects/Reinvent-master-3.2/result/LINK_invent/BTK/process_docking_weight1_custom_product_contain_oxygen_bond_distance_aromatic_linkinvent_7_9_3/rearranged_h_0092.sdf

> <i_m_source_file_index>
37

> <r_mmod_Potential_Energy-OPLS-2005>
122.042633056641

> <r_mmod_Stretch_Energy-OPLS-2005>
84.289794921875

> <r_mmod_Bend_Energy-OPLS-2005>
142.028213500977

> <r_mmod_Torsional_Energy-OPLS-2005>
261.091949462891

> <r_mmod_Improper_Torsional_Energy-OPLS-2005>
7.37341165542603

> <r_mmod_Van_der_Waal_Energy-OPLS-2005>
141.186935424805

> <r_mmod_Electrostatic_Energy-OPLS-2005>
-345.759796142578

> <r_mmod_Solvation_Energy-OPLS-2005>
-229.201751708984

> <b_mmod_Minimization_Converged-OPLS-2005>
0

> <r_mmod_RMS_Derivative-OPLS-2005>
4.68253946304321

$$$$
37
                    3D
 Structure written by MMmdl.
155164  0  0  1  0            999 V2000
  -30.5823  -14.8088   20.4482 C   0  0  0  0  0  0
  -30.4289  -12.4941   19.4934 C   0  0  0  0  0  0
  -29.5133  -12.5399   18.2495 C   0  0  0  0  0  0
  -28.0394  -12.3517   18.6543 C   0  0  0  0  0  0
  -27.6414  -13.2449   19.8602 C   0  0  2  0  0  0
  -28.6825  -13.1902   20.9998 C   0  0  0  0  0  0
  -25.2505  -13.8233   20.5722 C   0  0  0  0  0  0
  -24.1793  -13.0459   20.9171 C   0  0  0  0  0  0
  -24.6392  -11.6945   20.8702 C   0  0  0  0  0  0
  -23.9062  -10.4317   21.0350 C   0  0  0  0  0  0
  -24.3610   -9.4248   21.9152 C   0  0  0  0  0  0
  -23.6278   -8.2282   22.0748 C   0  0  0  0  0  0
  -22.4265   -8.0293   21.3528 C   0  0  0  0  0  0
  -21.9888   -9.0265   20.4635 C   0  0  0  0  0  0
  -22.7216  -10.2150   20.3018 C   0  0  0  0  0  0
  -21.6874   -6.0733   22.5269 C   0  0  0  0  0  0
  -21.4041   -6.5635   23.8202 C   0  0  0  0  0  0
  -21.3669   -5.6782   24.9166 C   0  0  0  0  0  0
  -21.6042   -4.3039   24.7222 C   0  0  0  0  0  0
  -21.8825   -3.8144   23.4342 C   0  0  0  0  0  0
  -21.9205   -4.6960   22.3396 C   0  0  0  0  0  0
  -22.7824  -13.5240   21.1838 C   0  0  0  0  0  0
  -22.1656   -4.2143   21.0965 F   0  0  0  0  0  0
  -21.5623   -3.4529   25.7736 F   0  0  0  0  0  0
  -29.9830  -13.5596   20.4300 N   0  0  0  0  0  0
  -26.2932  -12.9456   20.3316 N   0  0  0  0  0  0
  -25.9336  -11.6578   20.5738 N   0  0  0  0  0  0
  -22.0476  -12.8203   22.0375 N   0  0  0  0  0  0
  -25.4239  -15.1957   20.4195 N   0  0  0  0  0  0
  -31.7441  -14.9103   20.0453 O   0  0  0  0  0  0
  -21.6653   -6.8872   21.4222 O   0  0  0  0  0  0
  -22.3493  -14.5537   20.6675 O   0  0  0  0  0  0
  -24.6370  -31.8507   23.1986 C   0  0  0  0  0  0
  -25.9174  -32.4730   23.8328 C   0  0  1  0  0  0
  -27.2023  -27.1909   20.1399 C   0  0  0  0  0  0
  -25.5966  -33.8547   24.2240 N   0  0  0  0  0  0
  -23.4379  -30.4761   21.5411 C   0  0  2  0  0  0
  -24.8840  -28.9221   20.1075 C   0  0  0  0  0  0
  -22.7543  -29.4581   22.4881 C   0  0  0  0  0  0
  -18.0299  -28.1412   22.8488 C   0  0  0  0  0  0
  -24.1498  -36.7260   23.2642 C   0  0  0  0  0  0
  -25.9908  -30.7368   21.3963 C   0  0  0  0  0  0
  -26.0562  -29.3543   20.7391 C   0  0  0  0  0  0
  -27.2139  -28.4978   20.7551 C   0  0  0  0  0  0
  -26.0190  -26.8752   19.4301 C   0  0  0  0  0  0
  -24.8742  -27.6911   19.4409 C   0  0  0  0  0  0
  -23.6601  -29.8169   20.1555 C   0  0  0  0  0  0
  -25.4135  -36.3054   24.0309 C   0  0  1  0  0  0
  -20.5912  -28.3722   23.1255 C   0  0  2  0  0  0
  -20.6791  -26.9424   22.5409 C   0  0  0  0  0  0
  -19.5755  -26.6394   21.5230 C   0  0  0  0  0  0
  -18.1931  -26.7948   22.1633 C   0  0  0  0  0  0
  -19.1555  -28.8886   23.2864 C   0  0  0  0  0  0
  -18.9474  -30.1488   23.8877 C   0  0  0  0  0  0
  -17.6473  -30.6597   24.0573 C   0  0  0  0  0  0
  -25.9073  -34.9428   23.5069 C   0  0  0  0  0  0
  -16.5365  -29.9091   23.6343 C   0  0  0  0  0  0
  -16.7287  -28.6517   23.0353 C   0  0  0  0  0  0
  -26.4540  -31.6583   25.0748 C   0  0  0  0  0  0
  -25.3729  -31.3728   26.1435 C   0  0  0  0  0  0
  -27.0420  -30.2999   24.6283 C   0  0  0  0  0  0
  -27.6087  -32.4333   25.7501 C   0  0  0  0  0  0
  -27.5581  -37.1795   24.8465 C   0  0  0  0  0  0
  -21.4242  -29.3050   22.3628 N   0  0  0  0  0  0
  -26.4308  -37.3758   23.9399 N   0  0  0  0  0  0
  -24.7079  -31.0408   22.1005 N   0  0  0  0  0  0
  -23.4213  -28.8096   23.2992 O   0  0  0  0  0  0
  -28.2501  -26.2177   20.2156 O   0  0  0  0  0  0
  -26.5638  -34.8908   22.4634 O   0  0  0  0  0  0
  -23.5502  -32.1375   23.7237 O   0  0  0  0  0  0
  -29.0134  -19.6156   18.5559 C   0  0  0  0  0  0
  -29.5878  -18.6190   20.7024 C   0  0  0  0  0  0
  -29.4279  -17.1960   18.7265 C   0  0  0  0  0  0
  -29.2614  -19.8327   19.9320 C   0  0  0  0  0  0
  -29.0957  -18.3358   17.9654 C   0  0  0  0  0  0
  -29.6770  -17.2681   20.1153 C   0  0  0  0  0  0
  -28.7359  -23.6404   20.3371 C   0  0  0  0  0  0
  -28.2432  -22.2337   20.1385 C   0  0  0  0  0  0
  -27.9584  -24.7952   20.1648 C   0  0  0  0  0  0
  -30.1866  -23.5174   20.7186 C   0  0  0  0  0  0
  -30.4438  -21.9771   20.8150 C   0  0  0  0  0  0
  -29.2267  -21.2770   20.3775 N   0  0  0  0  0  0
  -28.8382  -18.1938   16.6011 N   0  0  0  0  0  0
  -29.8552  -15.9497   20.8199 N   0  0  0  0  0  0
  -27.0923  -21.9380   19.8004 O   0  0  0  0  0  0
  -31.4708  -12.6151   19.1922 H   0  0  0  0  0  0
  -30.3716  -11.5158   19.9729 H   0  0  0  0  0  0
  -29.8018  -11.7755   17.5277 H   0  0  0  0  0  0
  -29.6361  -13.4980   17.7422 H   0  0  0  0  0  0
  -27.8942  -11.2998   18.9067 H   0  0  0  0  0  0
  -27.3836  -12.5530   17.8050 H   0  0  0  0  0  0
  -27.6311  -14.2682   19.4833 H   0  0  0  0  0  0
  -28.7247  -12.1922   21.4365 H   0  0  0  0  0  0
  -28.4045  -13.8681   21.8079 H   0  0  0  0  0  0
  -25.2759   -9.5759   22.4729 H   0  0  0  0  0  0
  -24.0008   -7.4683   22.7474 H   0  0  0  0  0  0
  -21.0809   -8.8764   19.8936 H   0  0  0  0  0  0
  -22.3642  -10.9675   19.6122 H   0  0  0  0  0  0
  -21.2039   -7.6149   23.9701 H   0  0  0  0  0  0
  -21.1473   -6.0519   25.9059 H   0  0  0  0  0  0
  -22.0590   -2.7608   23.2851 H   0  0  0  0  0  0
  -22.4087  -11.9847   22.4720 H   0  0  0  0  0  0
  -21.1109  -13.1246   22.2626 H   0  0  0  0  0  0
  -24.6631  -15.8578   20.5267 H   0  0  0  0  0  0
  -26.2844  -15.6312   20.1128 H   0  0  0  0  0  0
  -26.7224  -32.5357   23.1047 H   0  0  0  0  0  0
  -25.0201  -33.9677   25.0440 H   0  0  0  0  0  0
  -22.7384  -31.3016   21.3950 H   0  0  0  0  0  0
  -23.3779  -35.9571   23.3295 H   0  0  0  0  0  0
  -24.3591  -36.8906   22.2057 H   0  0  0  0  0  0
  -23.7233  -37.6445   23.6691 H   0  0  0  0  0  0
  -26.1487  -31.4927   20.6253 H   0  0  0  0  0  0
  -26.8617  -30.7818   22.0382 H   0  0  0  0  0  0
  -28.1028  -28.8150   21.2837 H   0  0  0  0  0  0
  -25.9347  -25.9654   18.8573 H   0  0  0  0  0  0
  -23.9839  -27.3644   18.9192 H   0  0  0  0  0  0
  -23.7967  -30.5973   19.4068 H   0  0  0  0  0  0
  -22.7757  -29.2588   19.8415 H   0  0  0  0  0  0
  -25.1327  -36.1898   25.0798 H   0  0  0  0  0  0
  -21.0011  -28.3309   24.1380 H   0  0  0  0  0  0
  -20.5740  -26.2317   23.3625 H   0  0  0  0  0  0
  -21.6651  -26.7457   22.1179 H   0  0  0  0  0  0
  -19.6920  -25.6302   21.1270 H   0  0  0  0  0  0
  -19.6711  -27.3197   20.6759 H   0  0  0  0  0  0
  -17.4211  -26.6725   21.4019 H   0  0  0  0  0  0
  -18.0297  -26.0091   22.9024 H   0  0  0  0  0  0
  -19.7938  -30.7327   24.2217 H   0  0  0  0  0  0
  -17.5008  -31.6271   24.5182 H   0  0  0  0  0  0
  -15.5356  -30.2993   23.7680 H   0  0  0  0  0  0
  -15.8688  -28.0848   22.7063 H   0  0  0  0  0  0
  -24.5936  -30.7050   25.7728 H   0  0  0  0  0  0
  -24.8892  -32.2892   26.4823 H   0  0  0  0  0  0
  -25.8025  -30.8928   27.0230 H   0  0  0  0  0  0
  -26.3031  -29.6712   24.1302 H   0  0  0  0  0  0
  -27.4083  -29.7308   25.4833 H   0  0  0  0  0  0
  -27.8910  -30.4286   23.9567 H   0  0  0  0  0  0
  -27.2721  -33.3679   26.1996 H   0  0  0  0  0  0
  -28.3936  -32.6803   25.0339 H   0  0  0  0  0  0
  -28.0704  -31.8501   26.5483 H   0  0  0  0  0  0
  -28.2585  -38.0102   24.7531 H   0  0  0  0  0  0
  -28.1096  -36.2638   24.6294 H   0  0  0  0  0  0
  -27.2282  -37.1414   25.8860 H   0  0  0  0  0  0
  -20.9419  -29.8783   21.6838 H   0  0  0  0  0  0
  -26.0176  -38.2817   24.1441 H   0  0  0  0  0  0
  -28.7773  -20.4639   17.9281 H   0  0  0  0  0  0
  -29.7682  -18.7278   21.7622 H   0  0  0  0  0  0
  -29.4572  -16.2345   18.2332 H   0  0  0  0  0  0
  -26.9212  -24.6093   19.9432 H   0  0  0  0  0  0
  -30.3769  -24.0190   21.6673 H   0  0  0  0  0  0
  -30.8078  -23.9787   19.9504 H   0  0  0  0  0  0
  -30.6829  -21.6845   21.8377 H   0  0  0  0  0  0
  -31.2868  -21.6879   20.1853 H   0  0  0  0  0  0
  -28.3285  -18.9300   16.1182 H   0  0  0  0  0  0
  -28.6379  -17.2691   16.2312 H   0  0  0  0  0  0
  -29.1036  -15.7378   21.4598 H   0  0  0  0  0  0
  1 25  1  0  0  0
  1 30  2  0  0  0
  1 84  1  0  0  0
  2  3  1  0  0  0
  2 25  1  0  0  0
  2 86  1  0  0  0
  2 87  1  0  0  0
  3  4  1  0  0  0
  3 88  1  0  0  0
  3 89  1  0  0  0
  4  5  1  0  0  0
  4 90  1  0  0  0
  4 91  1  0  0  0
  5  6  1  0  0  0
  5 26  1  0  0  0
  5 92  1  0  0  0
  6 25  1  0  0  0
  6 93  1  0  0  0
  6 94  1  0  0  0
  7  8  2  0  0  0
  7 26  1  0  0  0
  7 29  1  0  0  0
  8  9  1  0  0  0
  8 22  1  0  0  0
  9 10  1  0  0  0
  9 27  2  0  0  0
 10 11  2  0  0  0
 10 15  1  0  0  0
 11 12  1  0  0  0
 11 95  1  0  0  0
 12 13  2  0  0  0
 12 96  1  0  0  0
 13 14  1  0  0  0
 13 31  1  0  0  0
 14 15  2  0  0  0
 14 97  1  0  0  0
 15 98  1  0  0  0
 16 17  2  0  0  0
 16 21  1  0  0  0
 16 31  1  0  0  0
 17 18  1  0  0  0
 17 99  1  0  0  0
 18 19  2  0  0  0
 18100  1  0  0  0
 19 20  1  0  0  0
 19 24  1  0  0  0
 20 21  2  0  0  0
 20101  1  0  0  0
 21 23  1  0  0  0
 22 28  1  0  0  0
 22 32  2  0  0  0
 26 27  1  0  0  0
 28102  1  0  0  0
 28103  1  0  0  0
 29104  1  0  0  0
 29105  1  0  0  0
 33 34  1  0  0  0
 33 66  1  0  0  0
 33 70  2  0  0  0
 34 36  1  0  0  0
 34 59  1  0  0  0
 34106  1  0  0  0
 35 44  2  0  0  0
 35 45  1  0  0  0
 35 68  1  0  0  0
 36 56  1  0  0  0
 36107  1  0  0  0
 37 39  1  0  0  0
 37 47  1  0  0  0
 37 66  1  0  0  0
 37108  1  0  0  0
 38 43  2  0  0  0
 38 46  1  0  0  0
 38 47  1  0  0  0
 39 64  1  0  0  0
 39 67  2  0  0  0
 40 52  1  0  0  0
 40 53  2  0  0  0
 40 58  1  0  0  0
 41109  1  0  0  0
 41110  1  0  0  0
 41111  1  0  0  0
 41 48  1  0  0  0
 42 43  1  0  0  0
 42 66  1  0  0  0
 42112  1  0  0  0
 42113  1  0  0  0
 43 44  1  0  0  0
 44114  1  0  0  0
 45 46  2  0  0  0
 45115  1  0  0  0
 46116  1  0  0  0
 47117  1  0  0  0
 47118  1  0  0  0
 48 56  1  0  0  0
 48 65  1  0  0  0
 48119  1  0  0  0
 49 50  1  0  0  0
 49 53  1  0  0  0
 49 64  1  0  0  0
 49120  1  0  0  0
 50 51  1  0  0  0
 50121  1  0  0  0
 50122  1  0  0  0
 51 52  1  0  0  0
 51123  1  0  0  0
 51124  1  0  0  0
 52125  1  0  0  0
 52126  1  0  0  0
 53 54  1  0  0  0
 54 55  2  0  0  0
 54127  1  0  0  0
 55 57  1  0  0  0
 55128  1  0  0  0
 56 69  2  0  0  0
 57 58  2  0  0  0
 57129  1  0  0  0
 58130  1  0  0  0
 59 60  1  0  0  0
 59 61  1  0  0  0
 59 62  1  0  0  0
 60131  1  0  0  0
 60132  1  0  0  0
 60133  1  0  0  0
 61134  1  0  0  0
 61135  1  0  0  0
 61136  1  0  0  0
 62137  1  0  0  0
 62138  1  0  0  0
 62139  1  0  0  0
 63 65  1  0  0  0
 63140  1  0  0  0
 63141  1  0  0  0
 63142  1  0  0  0
 64143  1  0  0  0
 65144  1  0  0  0
 68 79  1  0  0  0
 71 74  2  0  0  0
 71 75  1  0  0  0
 71145  1  0  0  0
 72 74  1  0  0  0
 72 76  2  0  0  0
 72146  1  0  0  0
 73 75  2  0  0  0
 73 76  1  0  0  0
 73147  1  0  0  0
 74 82  1  0  0  0
 75 83  1  0  0  0
 76 84  1  0  0  0
 77 78  1  0  0  0
 77 79  2  0  0  0
 77 80  1  0  0  0
 78 82  1  0  0  0
 78 85  2  0  0  0
 79148  1  0  0  0
 80 81  1  0  0  0
 80149  1  0  0  0
 80150  1  0  0  0
 81 82  1  0  0  0
 81151  1  0  0  0
 81152  1  0  0  0
 83153  1  0  0  0
 83154  1  0  0  0
 84155  1  0  0  0
M  ISO  4   1 100  68 101  79 101  84 100
M  END
> <chiral flag>
0

> <version>
0

> <s_m_source_file>
/data/baiqing/PycharmProjects/Reinvent-master-3.2/result/LINK_invent/BTK/process_docking_weight1_custom_product_contain_oxygen_bond_distance_aromatic_linkinvent_7_9_3/rearranged_h_0092.sdf

> <i_m_source_file_index>
38

> <r_mmod_Potential_Energy-OPLS-2005>
424.426513671875

> <r_mmod_Stretch_Energy-OPLS-2005>
158.122344970703

> <r_mmod_Bend_Energy-OPLS-2005>
207.176895141602

> <r_mmod_Torsional_Energy-OPLS-2005>
321.881622314453

> <r_mmod_Improper_Torsional_Energy-OPLS-2005>
8.04423141479492

> <r_mmod_Van_der_Waal_Energy-OPLS-2005>
134.807327270508

> <r_mmod_Electrostatic_Energy-OPLS-2005>
-302.850830078125

> <r_mmod_Solvation_Energy-OPLS-2005>
-230.407379150391

> <b_mmod_Minimization_Converged-OPLS-2005>
0

> <r_mmod_RMS_Derivative-OPLS-2005>
2.99964499473572

$$$$
38
                    3D
 Structure written by MMmdl.
150158  0  0  1  0            999 V2000
  -30.6251  -14.7646   20.4397 C   0  0  0  0  0  0
  -30.4246  -12.4613   19.4840 C   0  0  0  0  0  0
  -29.5077  -12.4973   18.2420 C   0  0  0  0  0  0
  -28.0352  -12.3220   18.6578 C   0  0  0  0  0  0
  -27.6374  -13.2358   19.8481 C   0  0  2  0  0  0
  -28.6824  -13.2010   20.9855 C   0  0  0  0  0  0
  -25.2485  -13.8212   20.5696 C   0  0  0  0  0  0
  -24.1781  -13.0447   20.9207 C   0  0  0  0  0  0
  -24.6377  -11.6929   20.8750 C   0  0  0  0  0  0
  -23.9058  -10.4303   21.0403 C   0  0  0  0  0  0
  -24.3611   -9.4217   21.9173 C   0  0  0  0  0  0
  -23.6288   -8.2252   22.0748 C   0  0  0  0  0  0
  -22.4272   -8.0280   21.3541 C   0  0  0  0  0  0
  -21.9908   -9.0250   20.4643 C   0  0  0  0  0  0
  -22.7235  -10.2131   20.3052 C   0  0  0  0  0  0
  -21.6860   -6.0724   22.5271 C   0  0  0  0  0  0
  -21.4017   -6.5629   23.8203 C   0  0  0  0  0  0
  -21.3660   -5.6787   24.9169 C   0  0  0  0  0  0
  -21.6050   -4.3050   24.7227 C   0  0  0  0  0  0
  -21.8815   -3.8133   23.4352 C   0  0  0  0  0  0
  -21.9189   -4.6947   22.3402 C   0  0  0  0  0  0
  -22.7806  -13.5215   21.1881 C   0  0  0  0  0  0
  -22.1659   -4.2132   21.0982 F   0  0  0  0  0  0
  -21.5629   -3.4536   25.7742 F   0  0  0  0  0  0
  -29.9812  -13.5446   20.3954 N   0  0  0  0  0  0
  -26.2911  -12.9427   20.3288 N   0  0  0  0  0  0
  -25.9312  -11.6566   20.5769 N   0  0  0  0  0  0
  -22.0479  -12.8185   22.0450 N   0  0  0  0  0  0
  -25.4158  -15.1944   20.4109 N   0  0  0  0  0  0
  -31.8243  -14.7977   20.1542 O   0  0  0  0  0  0
  -21.6644   -6.8870   21.4236 O   0  0  0  0  0  0
  -22.3482  -14.5526   20.6753 O   0  0  0  0  0  0
  -24.6324  -31.8524   23.1984 C   0  0  0  0  0  0
  -25.9153  -32.4728   23.8317 C   0  0  1  0  0  0
  -27.2248  -27.2539   20.1284 C   0  0  0  0  0  0
  -25.5940  -33.8537   24.2235 N   0  0  0  0  0  0
  -23.4304  -30.4750   21.5392 C   0  0  2  0  0  0
  -24.8787  -28.9203   20.1060 C   0  0  0  0  0  0
  -22.7511  -29.4583   22.4887 C   0  0  0  0  0  0
  -18.0280  -28.1393   22.8459 C   0  0  0  0  0  0
  -24.1495  -36.7267   23.2649 C   0  0  0  0  0  0
  -25.9777  -30.7610   21.3837 C   0  0  0  0  0  0
  -26.0473  -29.3859   20.7181 C   0  0  0  0  0  0
  -27.2179  -28.5627   20.7220 C   0  0  0  0  0  0
  -26.0268  -26.8488   19.4981 C   0  0  0  0  0  0
  -24.8727  -27.6593   19.4865 C   0  0  0  0  0  0
  -23.6510  -29.8107   20.1534 C   0  0  0  0  0  0
  -25.4121  -36.3054   24.0333 C   0  0  1  0  0  0
  -20.5888  -28.3695   23.1262 C   0  0  2  0  0  0
  -20.6785  -26.9412   22.5409 C   0  0  0  0  0  0
  -19.5765  -26.6375   21.5212 C   0  0  0  0  0  0
  -18.1928  -26.7927   22.1604 C   0  0  0  0  0  0
  -19.1539  -28.8857   23.2849 C   0  0  0  0  0  0
  -18.9472  -30.1454   23.8879 C   0  0  0  0  0  0
  -17.6479  -30.6598   24.0546 C   0  0  0  0  0  0
  -25.9068  -34.9431   23.5087 C   0  0  0  0  0  0
  -16.5367  -29.9094   23.6345 C   0  0  0  0  0  0
  -16.7271  -28.6513   23.0361 C   0  0  0  0  0  0
  -26.4531  -31.6573   25.0718 C   0  0  0  0  0  0
  -25.3756  -31.3726   26.1431 C   0  0  0  0  0  0
  -27.0416  -30.2994   24.6242 C   0  0  0  0  0  0
  -27.6046  -32.4356   25.7481 C   0  0  0  0  0  0
  -27.5580  -37.1773   24.8464 C   0  0  0  0  0  0
  -21.4214  -29.3025   22.3641 N   0  0  0  0  0  0
  -26.4293  -37.3757   23.9418 N   0  0  0  0  0  0
  -24.6980  -31.0502   22.0950 N   0  0  0  0  0  0
  -23.4206  -28.8126   23.2994 O   0  0  0  0  0  0
  -28.3392  -26.3869   20.2289 O   0  0  0  0  0  0
  -26.5645  -34.8904   22.4661 O   0  0  0  0  0  0
  -23.5478  -32.1343   23.7288 O   0  0  0  0  0  0
  -31.8083  -19.1042   19.6008 C   0  0  0  0  0  0
  -30.9216  -20.1616   19.8813 C   0  0  0  0  0  0
  -31.4619  -17.7581   19.8402 C   0  0  0  0  0  0
  -29.3083  -18.5098   20.6556 C   0  0  0  0  0  0
  -29.6404  -19.9160   20.4112 C   0  0  0  0  0  0
  -30.2064  -17.3850   20.3834 C   0  0  0  0  0  0
  -28.3954  -23.6519   20.3758 C   0  0  0  0  0  0
  -28.7220  -21.1830   20.7541 C   0  0  0  0  0  0
  -28.4504  -25.0420   19.5609 C   0  0  0  0  0  0
  -28.9318  -22.4983   20.0064 N   0  0  0  0  0  0
  -29.8784  -15.9355   20.6145 N   0  0  0  0  0  0
  -31.4674  -12.5698   19.1806 H   0  0  0  0  0  0
  -30.3600  -11.4930   19.9841 H   0  0  0  0  0  0
  -29.7922  -11.7151   17.5373 H   0  0  0  0  0  0
  -29.6305  -13.4450   17.7163 H   0  0  0  0  0  0
  -27.8954  -11.2766   18.9352 H   0  0  0  0  0  0
  -27.3765  -12.4978   17.8057 H   0  0  0  0  0  0
  -27.6253  -14.2512   19.4510 H   0  0  0  0  0  0
  -28.7214  -12.2187   21.4581 H   0  0  0  0  0  0
  -28.4184  -13.9093   21.7725 H   0  0  0  0  0  0
  -25.2753   -9.5695   22.4743 H   0  0  0  0  0  0
  -23.9997   -7.4647   22.7471 H   0  0  0  0  0  0
  -21.0837   -8.8766   19.8950 H   0  0  0  0  0  0
  -22.3686  -10.9663   19.6162 H   0  0  0  0  0  0
  -21.2018   -7.6136   23.9702 H   0  0  0  0  0  0
  -21.1486   -6.0519   25.9068 H   0  0  0  0  0  0
  -22.0594   -2.7595   23.2859 H   0  0  0  0  0  0
  -22.4121  -11.9836   22.4806 H   0  0  0  0  0  0
  -21.1099  -13.1190   22.2701 H   0  0  0  0  0  0
  -24.6453  -15.8451   20.5162 H   0  0  0  0  0  0
  -26.2615  -15.6368   20.0748 H   0  0  0  0  0  0
  -26.7211  -32.5364   23.1042 H   0  0  0  0  0  0
  -25.0089  -33.9658   25.0378 H   0  0  0  0  0  0
  -22.7269  -31.2971   21.3910 H   0  0  0  0  0  0
  -23.3765  -35.9594   23.3315 H   0  0  0  0  0  0
  -24.3582  -36.8899   22.2060 H   0  0  0  0  0  0
  -23.7236  -37.6461   23.6686 H   0  0  0  0  0  0
  -26.1343  -31.5288   20.6245 H   0  0  0  0  0  0
  -26.8487  -30.7942   22.0276 H   0  0  0  0  0  0
  -28.1084  -28.9099   21.2261 H   0  0  0  0  0  0
  -25.9332  -25.8750   19.0439 H   0  0  0  0  0  0
  -23.9726  -27.2916   19.0137 H   0  0  0  0  0  0
  -23.7804  -30.5895   19.4005 H   0  0  0  0  0  0
  -22.7697  -29.2478   19.8429 H   0  0  0  0  0  0
  -25.1305  -36.1892   25.0832 H   0  0  0  0  0  0
  -20.9948  -28.3282   24.1400 H   0  0  0  0  0  0
  -20.5700  -26.2301   23.3614 H   0  0  0  0  0  0
  -21.6647  -26.7451   22.1190 H   0  0  0  0  0  0
  -19.6946  -25.6277   21.1263 H   0  0  0  0  0  0
  -19.6736  -27.3163   20.6731 H   0  0  0  0  0  0
  -17.4207  -26.6672   21.3993 H   0  0  0  0  0  0
  -18.0310  -26.0077   22.9006 H   0  0  0  0  0  0
  -19.7969  -30.7245   24.2251 H   0  0  0  0  0  0
  -17.5058  -31.6279   24.5145 H   0  0  0  0  0  0
  -15.5373  -30.3001   23.7697 H   0  0  0  0  0  0
  -15.8660  -28.0836   22.7105 H   0  0  0  0  0  0
  -24.5903  -30.7118   25.7746 H   0  0  0  0  0  0
  -24.8980  -32.2904   26.4874 H   0  0  0  0  0  0
  -25.8054  -30.8867   27.0195 H   0  0  0  0  0  0
  -26.3022  -29.6668   24.1315 H   0  0  0  0  0  0
  -27.4155  -29.7325   25.4779 H   0  0  0  0  0  0
  -27.8875  -30.4277   23.9481 H   0  0  0  0  0  0
  -27.2623  -33.3661   26.2024 H   0  0  0  0  0  0
  -28.3856  -32.6920   25.0310 H   0  0  0  0  0  0
  -28.0725  -31.8523   26.5419 H   0  0  0  0  0  0
  -28.2575  -38.0085   24.7534 H   0  0  0  0  0  0
  -28.1097  -36.2614   24.6276 H   0  0  0  0  0  0
  -27.2300  -37.1413   25.8866 H   0  0  0  0  0  0
  -20.9416  -29.8751   21.6835 H   0  0  0  0  0  0
  -26.0174  -38.2833   24.1421 H   0  0  0  0  0  0
  -32.7842  -19.3300   19.1932 H   0  0  0  0  0  0
  -31.2401  -21.1784   19.6937 H   0  0  0  0  0  0
  -32.2106  -17.0277   19.5830 H   0  0  0  0  0  0
  -28.3366  -18.2949   21.0761 H   0  0  0  0  0  0
  -27.8056  -23.7240   21.2943 H   0  0  0  0  0  0
  -28.8270  -21.3618   21.8272 H   0  0  0  0  0  0
  -27.6860  -20.8653   20.6216 H   0  0  0  0  0  0
  -27.7786  -24.9609   18.7085 H   0  0  0  0  0  0
  -29.4365  -25.0694   19.0965 H   0  0  0  0  0  0
  -28.9205  -15.7573   20.8760 H   0  0  0  0  0  0
  1 25  1  0  0  0
  1 30  2  0  0  0
  1 81  1  0  0  0
  2  3  1  0  0  0
  2 25  1  0  0  0
  2 82  1  0  0  0
  2 83  1  0  0  0
  3  4  1  0  0  0
  3 84  1  0  0  0
  3 85  1  0  0  0
  4  5  1  0  0  0
  4 86  1  0  0  0
  4 87  1  0  0  0
  5  6  1  0  0  0
  5 26  1  0  0  0
  5 88  1  0  0  0
  6 25  1  0  0  0
  6 89  1  0  0  0
  6 90  1  0  0  0
  7  8  2  0  0  0
  7 26  1  0  0  0
  7 29  1  0  0  0
  8  9  1  0  0  0
  8 22  1  0  0  0
  9 10  1  0  0  0
  9 27  2  0  0  0
 10 11  2  0  0  0
 10 15  1  0  0  0
 11 12  1  0  0  0
 11 91  1  0  0  0
 12 13  2  0  0  0
 12 92  1  0  0  0
 13 14  1  0  0  0
 13 31  1  0  0  0
 14 15  2  0  0  0
 14 93  1  0  0  0
 15 94  1  0  0  0
 16 17  2  0  0  0
 16 21  1  0  0  0
 16 31  1  0  0  0
 17 18  1  0  0  0
 17 95  1  0  0  0
 18 19  2  0  0  0
 18 96  1  0  0  0
 19 20  1  0  0  0
 19 24  1  0  0  0
 20 21  2  0  0  0
 20 97  1  0  0  0
 21 23  1  0  0  0
 22 28  1  0  0  0
 22 32  2  0  0  0
 26 27  1  0  0  0
 28 98  1  0  0  0
 28 99  1  0  0  0
 29100  1  0  0  0
 29101  1  0  0  0
 33 34  1  0  0  0
 33 66  1  0  0  0
 33 70  2  0  0  0
 34 36  1  0  0  0
 34 59  1  0  0  0
 34102  1  0  0  0
 35 44  2  0  0  0
 35 45  1  0  0  0
 35 68  1  0  0  0
 36 56  1  0  0  0
 36103  1  0  0  0
 37 39  1  0  0  0
 37 47  1  0  0  0
 37 66  1  0  0  0
 37104  1  0  0  0
 38 43  2  0  0  0
 38 46  1  0  0  0
 38 47  1  0  0  0
 39 64  1  0  0  0
 39 67  2  0  0  0
 40 52  1  0  0  0
 40 53  2  0  0  0
 40 58  1  0  0  0
 41105  1  0  0  0
 41106  1  0  0  0
 41107  1  0  0  0
 41 48  1  0  0  0
 42 43  1  0  0  0
 42 66  1  0  0  0
 42108  1  0  0  0
 42109  1  0  0  0
 43 44  1  0  0  0
 44110  1  0  0  0
 45 46  2  0  0  0
 45111  1  0  0  0
 46112  1  0  0  0
 47113  1  0  0  0
 47114  1  0  0  0
 48 56  1  0  0  0
 48 65  1  0  0  0
 48115  1  0  0  0
 49 50  1  0  0  0
 49 53  1  0  0  0
 49 64  1  0  0  0
 49116  1  0  0  0
 50 51  1  0  0  0
 50117  1  0  0  0
 50118  1  0  0  0
 51 52  1  0  0  0
 51119  1  0  0  0
 51120  1  0  0  0
 52121  1  0  0  0
 52122  1  0  0  0
 53 54  1  0  0  0
 54 55  2  0  0  0
 54123  1  0  0  0
 55 57  1  0  0  0
 55124  1  0  0  0
 56 69  2  0  0  0
 57 58  2  0  0  0
 57125  1  0  0  0
 58126  1  0  0  0
 59 60  1  0  0  0
 59 61  1  0  0  0
 59 62  1  0  0  0
 60127  1  0  0  0
 60128  1  0  0  0
 60129  1  0  0  0
 61130  1  0  0  0
 61131  1  0  0  0
 61132  1  0  0  0
 62133  1  0  0  0
 62134  1  0  0  0
 62135  1  0  0  0
 63 65  1  0  0  0
 63136  1  0  0  0
 63137  1  0  0  0
 63138  1  0  0  0
 64139  1  0  0  0
 65140  1  0  0  0
 68 79  1  0  0  0
 71 72  2  0  0  0
 71 73  1  0  0  0
 71141  1  0  0  0
 72 75  1  0  0  0
 72142  1  0  0  0
 73 76  2  0  0  0
 73143  1  0  0  0
 74 75  2  0  0  0
 74 76  1  0  0  0
 74144  1  0  0  0
 75 78  1  0  0  0
 76 81  1  0  0  0
 77 79  1  0  0  0
 77 80  2  0  0  0
 77145  1  0  0  0
 78 80  1  0  0  0
 78146  1  0  0  0
 78147  1  0  0  0
 79148  1  0  0  0
 79149  1  0  0  0
 81150  1  0  0  0
M  ISO  4   1 100  68 101  79 101  81 100
M  END
> <chiral flag>
0

> <version>
0

> <s_m_source_file>
/data/baiqing/PycharmProjects/Reinvent-master-3.2/result/LINK_invent/BTK/process_docking_weight1_custom_product_contain_oxygen_bond_distance_aromatic_linkinvent_7_9_3/rearranged_h_0092.sdf

> <i_m_source_file_index>
39

> <r_mmod_Potential_Energy-OPLS-2005>
187.261947631836

> <r_mmod_Stretch_Energy-OPLS-2005>
140.6201171875

> <r_mmod_Bend_Energy-OPLS-2005>
175.982818603516

> <r_mmod_Torsional_Energy-OPLS-2005>
204.308044433594

> <r_mmod_Improper_Torsional_Energy-OPLS-2005>
4.54822683334351

> <r_mmod_Van_der_Waal_Energy-OPLS-2005>
143.7724609375

> <r_mmod_Electrostatic_Energy-OPLS-2005>
-355.4453125

> <r_mmod_Solvation_Energy-OPLS-2005>
-219.061614990234

> <b_mmod_Minimization_Converged-OPLS-2005>
0

> <r_mmod_RMS_Derivative-OPLS-2005>
2.01996302604675

$$$$
39
                    3D
 Structure written by MMmdl.
156164  0  0  1  0            999 V2000
  -28.6273  -16.4358   20.7593 C   0  0  0  0  0  0
  -29.9400  -13.9635   19.7451 C   0  0  0  0  0  0
  -29.4654  -12.9987   18.5599 C   0  0  0  0  0  0
  -28.1505  -12.2908   18.8964 C   0  0  0  0  0  0
  -27.3945  -13.2504   19.8139 C   0  0  2  0  0  0
  -28.1493  -13.7159   21.0548 C   0  0  0  0  0  0
  -25.1220  -13.7857   20.5486 C   0  0  0  0  0  0
  -24.0871  -13.0071   20.9405 C   0  0  0  0  0  0
  -24.5660  -11.6597   20.8888 C   0  0  0  0  0  0
  -23.8608  -10.4052   21.0578 C   0  0  0  0  0  0
  -24.3371   -9.4069   21.9300 C   0  0  0  0  0  0
  -23.6161   -8.2072   22.0801 C   0  0  0  0  0  0
  -22.4150   -8.0105   21.3568 C   0  0  0  0  0  0
  -21.9681   -9.0021   20.4679 C   0  0  0  0  0  0
  -22.6882  -10.1914   20.3135 C   0  0  0  0  0  0
  -21.6807   -6.0647   22.5330 C   0  0  0  0  0  0
  -21.3979   -6.5601   23.8241 C   0  0  0  0  0  0
  -21.3608   -5.6771   24.9209 C   0  0  0  0  0  0
  -21.6040   -4.3032   24.7275 C   0  0  0  0  0  0
  -21.8813   -3.8100   23.4401 C   0  0  0  0  0  0
  -21.9190   -4.6899   22.3458 C   0  0  0  0  0  0
  -22.7037  -13.4967   21.2177 C   0  0  0  0  0  0
  -22.1666   -4.2089   21.1032 F   0  0  0  0  0  0
  -21.5603   -3.4521   25.7790 F   0  0  0  0  0  0
  -28.8209  -14.8828   20.5101 N   0  0  0  0  0  0
  -26.1241  -12.8894   20.2584 N   0  0  0  0  0  0
  -25.8413  -11.6119   20.5522 N   0  0  0  0  0  0
  -21.9656  -12.8089   22.0744 N   0  0  0  0  0  0
  -25.2615  -15.1645   20.3673 N   0  0  0  0  0  0
  -29.9095  -16.5656   20.5666 O   0  0  0  0  0  0
  -21.6527   -6.8714   21.4261 O   0  0  0  0  0  0
  -22.2994  -14.5418   20.7080 O   0  0  0  0  0  0
  -24.6332  -31.9281   23.2468 C   0  0  0  0  0  0
  -25.9413  -32.5019   23.8614 C   0  0  1  0  0  0
  -26.7079  -27.3283   20.0360 C   0  0  0  0  0  0
  -25.6375  -33.8779   24.2566 N   0  0  0  0  0  0
  -23.4133  -30.5366   21.6526 C   0  0  2  0  0  0
  -24.8381  -29.2537   19.9249 C   0  0  0  0  0  0
  -23.0443  -29.4149   22.6745 C   0  0  0  0  0  0
  -18.7390  -27.1623   22.5265 C   0  0  0  0  0  0
  -24.1531  -36.7340   23.2591 C   0  0  0  0  0  0
  -25.9587  -30.7856   21.4844 C   0  0  0  0  0  0
  -25.9254  -29.4669   20.7663 C   0  0  0  0  0  0
  -26.9189  -28.4722   20.8492 C   0  0  0  0  0  0
  -26.1268  -27.5169   18.8198 C   0  0  0  0  0  0
  -25.0362  -28.3899   18.8328 C   0  0  0  0  0  0
  -23.5965  -30.0902   20.1693 C   0  0  0  0  0  0
  -25.4144  -36.3163   24.0318 C   0  0  1  0  0  0
  -21.5158  -27.7059   23.6664 C   0  0  2  0  0  0
  -22.8333  -26.1485   22.9545 C   0  0  0  0  0  0
  -21.1671  -24.6883   20.7966 C   0  0  0  0  0  0
  -19.1175  -25.6514   21.3454 C   0  0  0  0  0  0
  -19.7534  -27.9771   23.3993 C   0  0  0  0  0  0
  -19.2913  -29.2975   23.9291 C   0  0  0  0  0  0
  -17.9978  -29.8898   23.8607 C   0  0  0  0  0  0
  -25.9162  -34.9565   23.5154 C   0  0  0  0  0  0
  -17.0194  -29.1125   23.2369 C   0  0  0  0  0  0
  -17.3946  -27.8499   22.6089 C   0  0  0  0  0  0
  -26.4708  -31.6649   25.0907 C   0  0  0  0  0  0
  -25.3905  -31.3663   26.1527 C   0  0  0  0  0  0
  -27.0636  -30.3102   24.6391 C   0  0  0  0  0  0
  -27.6216  -32.4318   25.7800 C   0  0  0  0  0  0
  -27.5634  -37.1815   24.8416 C   0  0  0  0  0  0
  -21.8174  -29.0211   22.9397 N   0  0  0  0  0  0
  -26.4262  -37.3911   23.9505 N   0  0  0  0  0  0
  -24.6800  -31.1489   22.1399 N   0  0  0  0  0  0
  -23.9123  -28.8774   23.3327 O   0  0  0  0  0  0
  -25.8331  -26.3267   20.4179 O   0  0  0  0  0  0
  -26.5511  -34.8961   22.4590 O   0  0  0  0  0  0
  -23.5551  -32.2118   23.7885 O   0  0  0  0  0  0
  -23.1562  -21.5593   24.4086 C   0  0  0  0  0  0
  -24.0437  -20.6987   23.5985 C   0  0  0  0  0  0
  -22.3352  -22.7504   24.1049 C   0  0  0  0  0  0
  -23.3770  -22.2819   21.9977 C   0  0  0  0  0  0
  -24.4423  -20.7554   22.1979 C   0  0  0  0  0  0
  -22.2044  -23.4711   22.8488 C   0  0  0  0  0  0
  -24.3124  -26.3456   20.7941 C   0  0  0  0  0  0
  -25.7872  -19.0371   21.6895 C   0  0  0  0  0  0
  -22.8545  -26.8039   20.5499 C   0  0  0  0  0  0
  -21.3100  -26.8453   21.3995 C   0  0  0  0  0  0
  -20.9033  -25.2427   22.8402 N   0  0  0  0  0  0
  -27.2238  -18.0847   20.9954 N   0  0  0  0  0  0
  -25.1921  -18.0456   22.3743 N   0  3  0  0  0  0
  -22.5490  -27.3191   19.2161 N   0  3  0  0  0  0
  -20.6064  -27.7177   20.8465 O   0  0  0  0  0  0
  -30.6599  -14.6455   19.2927 H   0  0  0  0  0  0
  -30.5458  -13.4107   20.4686 H   0  0  0  0  0  0
  -30.2415  -12.2787   18.3059 H   0  0  0  0  0  0
  -29.3050  -13.6073   17.6704 H   0  0  0  0  0  0
  -28.3480  -11.3507   19.4238 H   0  0  0  0  0  0
  -27.5900  -12.0439   17.9916 H   0  0  0  0  0  0
  -27.1852  -14.0803   19.1327 H   0  0  0  0  0  0
  -28.7663  -12.9299   21.5132 H   0  0  0  0  0  0
  -27.4937  -14.0676   21.8558 H   0  0  0  0  0  0
  -25.2487   -9.5642   22.4859 H   0  0  0  0  0  0
  -23.9871   -7.4475   22.7539 H   0  0  0  0  0  0
  -21.0595   -8.8529   19.9031 H   0  0  0  0  0  0
  -22.3340  -10.9475   19.6275 H   0  0  0  0  0  0
  -21.1959   -7.6104   23.9738 H   0  0  0  0  0  0
  -21.1429   -6.0498   25.9108 H   0  0  0  0  0  0
  -22.0637   -2.7569   23.2937 H   0  0  0  0  0  0
  -22.3072  -11.9669   22.5111 H   0  0  0  0  0  0
  -21.0367  -13.1339   22.2988 H   0  0  0  0  0  0
  -24.3280  -15.5196   20.1797 H   0  0  0  0  0  0
  -25.8914  -15.4465   19.6277 H   0  0  0  0  0  0
  -26.7429  -32.5547   23.1230 H   0  0  0  0  0  0
  -25.0734  -33.9968   25.0835 H   0  0  0  0  0  0
  -22.6077  -31.2715   21.6587 H   0  0  0  0  0  0
  -23.3869  -35.9596   23.3125 H   0  0  0  0  0  0
  -24.3664  -36.9112   22.2043 H   0  0  0  0  0  0
  -23.7176  -37.6443   23.6704 H   0  0  0  0  0  0
  -26.1841  -31.5488   20.7357 H   0  0  0  0  0  0
  -26.8108  -30.7334   22.1503 H   0  0  0  0  0  0
  -27.6589  -28.4707   21.6359 H   0  0  0  0  0  0
  -26.2478  -26.8009   18.0245 H   0  0  0  0  0  0
  -24.4065  -28.4681   17.9552 H   0  0  0  0  0  0
  -23.7233  -30.9833   19.5568 H   0  0  0  0  0  0
  -22.6757  -29.6549   19.8043 H   0  0  0  0  0  0
  -25.1289  -36.1962   25.0798 H   0  0  0  0  0  0
  -21.7035  -27.8367   24.7297 H   0  0  0  0  0  0
  -23.0004  -25.5193   23.8411 H   0  0  0  0  0  0
  -23.8142  -26.5862   23.0102 H   0  0  0  0  0  0
  -21.0768  -23.6022   20.7892 H   0  0  0  0  0  0
  -21.4326  -24.8867   19.7577 H   0  0  0  0  0  0
  -18.6176  -25.8737   20.4075 H   0  0  0  0  0  0
  -18.4973  -24.8366   21.7374 H   0  0  0  0  0  0
  -20.0218  -29.8805   24.4726 H   0  0  0  0  0  0
  -17.7795  -30.8522   24.3076 H   0  0  0  0  0  0
  -16.0012  -29.4718   23.1735 H   0  0  0  0  0  0
  -16.5949  -27.3498   22.0791 H   0  0  0  0  0  0
  -24.6049  -30.7139   25.7684 H   0  0  0  0  0  0
  -24.9161  -32.2802   26.5121 H   0  0  0  0  0  0
  -25.8165  -30.8591   27.0199 H   0  0  0  0  0  0
  -26.3321  -29.6848   24.1292 H   0  0  0  0  0  0
  -27.4223  -29.7283   25.4883 H   0  0  0  0  0  0
  -27.9226  -30.4421   23.9802 H   0  0  0  0  0  0
  -27.2777  -33.3444   26.2677 H   0  0  0  0  0  0
  -28.3998  -32.7198   25.0717 H   0  0  0  0  0  0
  -28.1020  -31.8302   26.5532 H   0  0  0  0  0  0
  -28.2428  -38.0326   24.7843 H   0  0  0  0  0  0
  -28.1351  -36.2908   24.5771 H   0  0  0  0  0  0
  -27.2417  -37.0886   25.8795 H   0  0  0  0  0  0
  -21.0442  -29.4347   22.4361 H   0  0  0  0  0  0
  -26.0112  -38.2900   24.1790 H   0  0  0  0  0  0
  -23.0870  -21.2434   25.4489 H   0  0  0  0  0  0
  -24.4524  -19.8827   24.1845 H   0  0  0  0  0  0
  -21.7870  -23.1182   24.9672 H   0  0  0  0  0  0
  -23.4639  -22.5737   20.9643 H   0  0  0  0  0  0
  -24.4928  -25.6439   21.5818 H   0  0  0  0  0  0
  -20.0708  -25.2491   23.4117 H   0  0  0  0  0  0
  -27.6435  -18.8885   20.4811 H   0  0  0  0  0  0
  -24.4285  -18.2601   22.9971 H   0  0  0  0  0  0
  -25.1340  -17.1426   21.9226 H   0  0  0  0  0  0
  -23.2614  -27.9583   18.9110 H   0  0  0  0  0  0
  -22.4281  -26.5701   18.5612 H   0  0  0  0  0  0
  -21.6629  -27.8060   19.2861 H   0  0  0  0  0  0
  1 25  1  0  0  0
  1 30  2  0  0  0
  1 82  1  0  0  0
  2  3  1  0  0  0
  2 25  1  0  0  0
  2 86  1  0  0  0
  2 87  1  0  0  0
  3  4  1  0  0  0
  3 88  1  0  0  0
  3 89  1  0  0  0
  4  5  1  0  0  0
  4 90  1  0  0  0
  4 91  1  0  0  0
  5  6  1  0  0  0
  5 26  1  0  0  0
  5 92  1  0  0  0
  6 25  1  0  0  0
  6 93  1  0  0  0
  6 94  1  0  0  0
  7  8  2  0  0  0
  7 26  1  0  0  0
  7 29  1  0  0  0
  8  9  1  0  0  0
  8 22  1  0  0  0
  9 10  1  0  0  0
  9 27  2  0  0  0
 10 11  2  0  0  0
 10 15  1  0  0  0
 11 12  1  0  0  0
 11 95  1  0  0  0
 12 13  2  0  0  0
 12 96  1  0  0  0
 13 14  1  0  0  0
 13 31  1  0  0  0
 14 15  2  0  0  0
 14 97  1  0  0  0
 15 98  1  0  0  0
 16 17  2  0  0  0
 16 21  1  0  0  0
 16 31  1  0  0  0
 17 18  1  0  0  0
 17 99  1  0  0  0
 18 19  2  0  0  0
 18100  1  0  0  0
 19 20  1  0  0  0
 19 24  1  0  0  0
 20 21  2  0  0  0
 20101  1  0  0  0
 21 23  1  0  0  0
 22 28  1  0  0  0
 22 32  2  0  0  0
 26 27  1  0  0  0
 28102  1  0  0  0
 28103  1  0  0  0
 29104  1  0  0  0
 29105  1  0  0  0
 33 34  1  0  0  0
 33 66  1  0  0  0
 33 70  2  0  0  0
 34 36  1  0  0  0
 34 59  1  0  0  0
 34106  1  0  0  0
 35 44  2  0  0  0
 35 45  1  0  0  0
 35 68  1  0  0  0
 36 56  1  0  0  0
 36107  1  0  0  0
 37 39  1  0  0  0
 37 47  1  0  0  0
 37 66  1  0  0  0
 37108  1  0  0  0
 38 43  2  0  0  0
 38 46  1  0  0  0
 38 47  1  0  0  0
 39 64  1  0  0  0
 39 67  2  0  0  0
 40 52  1  0  0  0
 40 53  2  0  0  0
 40 58  1  0  0  0
 41109  1  0  0  0
 41110  1  0  0  0
 41111  1  0  0  0
 41 48  1  0  0  0
 42 43  1  0  0  0
 42 66  1  0  0  0
 42112  1  0  0  0
 42113  1  0  0  0
 43 44  1  0  0  0
 44114  1  0  0  0
 45 46  2  0  0  0
 45115  1  0  0  0
 46116  1  0  0  0
 47117  1  0  0  0
 47118  1  0  0  0
 48 56  1  0  0  0
 48 65  1  0  0  0
 48119  1  0  0  0
 49 50  1  0  0  0
 49 53  1  0  0  0
 49 64  1  0  0  0
 49120  1  0  0  0
 50 51  1  0  0  0
 50121  1  0  0  0
 50122  1  0  0  0
 51 52  1  0  0  0
 51123  1  0  0  0
 51124  1  0  0  0
 52125  1  0  0  0
 52126  1  0  0  0
 53 54  1  0  0  0
 54 55  2  0  0  0
 54127  1  0  0  0
 55 57  1  0  0  0
 55128  1  0  0  0
 56 69  2  0  0  0
 57 58  2  0  0  0
 57129  1  0  0  0
 58130  1  0  0  0
 59 60  1  0  0  0
 59 61  1  0  0  0
 59 62  1  0  0  0
 60131  1  0  0  0
 60132  1  0  0  0
 60133  1  0  0  0
 61134  1  0  0  0
 61135  1  0  0  0
 61136  1  0  0  0
 62137  1  0  0  0
 62138  1  0  0  0
 62139  1  0  0  0
 63 65  1  0  0  0
 63140  1  0  0  0
 63141  1  0  0  0
 63142  1  0  0  0
 64143  1  0  0  0
 65144  1  0  0  0
 68 77  1  0  0  0
 71 72  2  0  0  0
 71 73  1  0  0  0
 71145  1  0  0  0
 72 75  1  0  0  0
 72146  1  0  0  0
 73 76  2  0  0  0
 73147  1  0  0  0
 74 75  2  0  0  0
 74 76  1  0  0  0
 74148  1  0  0  0
 75 78  1  0  0  0
 76 81  1  0  0  0
 77 79  2  0  0  0
 77149  1  0  0  0
 78 82  1  0  0  0
 78 83  2  0  0  0
 79 80  1  0  0  0
 79 84  1  0  0  0
 80 81  1  0  0  0
 80 85  2  0  0  0
 81150  1  0  0  0
 82151  1  0  0  0
 83152  1  0  0  0
 83153  1  0  0  0
 84154  1  0  0  0
 84155  1  0  0  0
 84156  1  0  0  0
M  CHG  2  83   1  84   1
M  ISO  4   1 100  68 101  77 101  82 100
M  END
> <chiral flag>
0

> <version>
0

> <s_m_source_file>
/data/baiqing/PycharmProjects/Reinvent-master-3.2/result/LINK_invent/BTK/process_docking_weight1_custom_product_contain_oxygen_bond_distance_aromatic_linkinvent_7_9_3/rearranged_h_0092.sdf

> <i_m_source_file_index>
40

> <r_mmod_Potential_Energy-OPLS-2005>
20425.34375

> <r_mmod_Stretch_Energy-OPLS-2005>
10593.6845703125

> <r_mmod_Bend_Energy-OPLS-2005>
1916.28588867188

> <r_mmod_Torsional_Energy-OPLS-2005>
585.709350585938

> <r_mmod_Improper_Torsional_Energy-OPLS-2005>
49.2606315612793

> <r_mmod_Van_der_Waal_Energy-OPLS-2005>
2592.83862304688

> <r_mmod_Electrostatic_Energy-OPLS-2005>
-415.788818359375

> <r_mmod_Solvation_Energy-OPLS-2005>
-841.839599609375

> <b_mmod_Minimization_Converged-OPLS-2005>
0

> <r_mmod_RMS_Derivative-OPLS-2005>
25.0813636779785

$$$$
40
                    3D
 Structure written by MMmdl.
157166  0  0  1  0            999 V2000
  -30.6298  -14.7581   20.4366 C   0  0  0  0  0  0
  -30.4239  -12.4596   19.4836 C   0  0  0  0  0  0
  -29.5081  -12.5029   18.2411 C   0  0  0  0  0  0
  -28.0355  -12.3270   18.6544 C   0  0  0  0  0  0
  -27.6383  -13.2373   19.8473 C   0  0  2  0  0  0
  -28.6820  -13.1978   20.9852 C   0  0  0  0  0  0
  -25.2493  -13.8211   20.5697 C   0  0  0  0  0  0
  -24.1795  -13.0446   20.9214 C   0  0  0  0  0  0
  -24.6395  -11.6926   20.8751 C   0  0  0  0  0  0
  -23.9075  -10.4299   21.0407 C   0  0  0  0  0  0
  -24.3623   -9.4213   21.9183 C   0  0  0  0  0  0
  -23.6295   -8.2248   22.0754 C   0  0  0  0  0  0
  -22.4277   -8.0286   21.3542 C   0  0  0  0  0  0
  -21.9915   -9.0261   20.4643 C   0  0  0  0  0  0
  -22.7247  -10.2140   20.3052 C   0  0  0  0  0  0
  -21.6856   -6.0736   22.5276 C   0  0  0  0  0  0
  -21.4016   -6.5638   23.8212 C   0  0  0  0  0  0
  -21.3659   -5.6792   24.9174 C   0  0  0  0  0  0
  -21.6044   -4.3053   24.7224 C   0  0  0  0  0  0
  -21.8820   -3.8144   23.4346 C   0  0  0  0  0  0
  -21.9194   -4.6962   22.3401 C   0  0  0  0  0  0
  -22.7816  -13.5220   21.1870 C   0  0  0  0  0  0
  -22.1662   -4.2144   21.0981 F   0  0  0  0  0  0
  -21.5628   -3.4540   25.7740 F   0  0  0  0  0  0
  -29.9832  -13.5403   20.4001 N   0  0  0  0  0  0
  -26.2921  -12.9426   20.3276 N   0  0  0  0  0  0
  -25.9324  -11.6561   20.5753 N   0  0  0  0  0  0
  -22.0467  -12.8206   22.0427 N   0  0  0  0  0  0
  -25.4185  -15.1940   20.4126 N   0  0  0  0  0  0
  -31.8316  -14.7920   20.1603 O   0  0  0  0  0  0
  -21.6644   -6.8880   21.4238 O   0  0  0  0  0  0
  -22.3500  -14.5528   20.6723 O   0  0  0  0  0  0
  -24.6346  -31.8551   23.2002 C   0  0  0  0  0  0
  -25.9166  -32.4757   23.8340 C   0  0  1  0  0  0
  -27.2016  -27.2301   20.1261 C   0  0  0  0  0  0
  -25.5959  -33.8559   24.2257 N   0  0  0  0  0  0
  -23.4314  -30.4823   21.5451 C   0  0  2  0  0  0
  -24.8764  -28.9366   20.1056 C   0  0  0  0  0  0
  -22.7522  -29.4607   22.4903 C   0  0  0  0  0  0
  -18.0298  -28.1391   22.8485 C   0  0  0  0  0  0
  -24.1490  -36.7282   23.2639 C   0  0  0  0  0  0
  -25.9827  -30.7563   21.3894 C   0  0  0  0  0  0
  -26.0513  -29.3788   20.7277 C   0  0  0  0  0  0
  -27.2150  -28.5360   20.7345 C   0  0  0  0  0  0
  -26.0103  -26.8916   19.4381 C   0  0  0  0  0  0
  -24.8636  -27.7020   19.4491 C   0  0  0  0  0  0
  -23.6499  -29.8268   20.1583 C   0  0  0  0  0  0
  -25.4116  -36.3068   24.0324 C   0  0  1  0  0  0
  -20.5900  -28.3707   23.1251 C   0  0  2  0  0  0
  -20.6787  -26.9416   22.5402 C   0  0  0  0  0  0
  -19.5760  -26.6383   21.5213 C   0  0  0  0  0  0
  -18.1938  -26.7935   22.1622 C   0  0  0  0  0  0
  -19.1552  -28.8864   23.2864 C   0  0  0  0  0  0
  -18.9475  -30.1463   23.8887 C   0  0  0  0  0  0
  -17.6471  -30.6590   24.0556 C   0  0  0  0  0  0
  -25.9059  -34.9443   23.5087 C   0  0  0  0  0  0
  -16.5360  -29.9083   23.6340 C   0  0  0  0  0  0
  -16.7283  -28.6499   23.0360 C   0  0  0  0  0  0
  -26.4510  -31.6592   25.0744 C   0  0  0  0  0  0
  -25.3715  -31.3758   26.1453 C   0  0  0  0  0  0
  -27.0370  -30.3003   24.6270 C   0  0  0  0  0  0
  -27.6054  -32.4342   25.7521 C   0  0  0  0  0  0
  -27.5576  -37.1798   24.8465 C   0  0  0  0  0  0
  -21.4225  -29.3053   22.3641 N   0  0  0  0  0  0
  -26.4293  -37.3765   23.9400 N   0  0  0  0  0  0
  -24.7022  -31.0492   22.1002 N   0  0  0  0  0  0
  -23.4208  -28.8130   23.3002 O   0  0  0  0  0  0
  -28.2508  -26.2696   20.2226 O   0  0  0  0  0  0
  -26.5629  -34.8924   22.4655 O   0  0  0  0  0  0
  -23.5488  -32.1390   23.7279 O   0  0  0  0  0  0
  -30.8489  -19.9345   19.0494 C   0  0  0  0  0  0
  -29.5435  -18.5718   20.5899 C   0  0  0  0  0  0
  -31.1483  -17.5050   19.1028 C   0  0  0  0  0  0
  -29.8506  -19.9060   20.0526 C   0  0  0  0  0  0
  -31.4785  -18.7687   18.5797 C   0  0  0  0  0  0
  -30.1925  -17.3347   20.1356 C   0  0  0  0  0  0
  -28.7395  -23.0930   21.6836 C   0  0  0  0  0  0
  -28.6519  -23.5199   20.4146 C   0  0  0  0  0  0
  -29.1700  -21.6903   21.7239 C   0  0  0  0  0  0
  -28.9898  -22.3121   19.6172 C   0  0  0  0  0  0
  -28.3133  -23.8470   22.9317 C   0  0  0  0  0  0
  -27.9280  -24.8319   19.8554 C   0  0  0  0  0  0
  -29.2830  -21.2462   20.4519 N   0  0  0  0  0  0
  -32.4422  -18.8701   17.5767 N   0  0  0  0  0  0
  -29.8963  -15.9378   20.6035 N   0  0  0  0  0  0
  -29.3792  -21.0121   22.7371 O   0  0  0  0  0  0
  -28.9715  -22.2435   18.3823 O   0  0  0  0  0  0
  -31.4669  -12.5660   19.1810 H   0  0  0  0  0  0
  -30.3569  -11.4894   19.9790 H   0  0  0  0  0  0
  -29.7931  -11.7233   17.5333 H   0  0  0  0  0  0
  -29.6345  -13.4525   17.7189 H   0  0  0  0  0  0
  -27.8963  -11.2804   18.9273 H   0  0  0  0  0  0
  -27.3781  -12.5070   17.8029 H   0  0  0  0  0  0
  -27.6261  -14.2540   19.4537 H   0  0  0  0  0  0
  -28.7178  -12.2103   21.4484 H   0  0  0  0  0  0
  -28.4161  -13.9001   21.7768 H   0  0  0  0  0  0
  -25.2765   -9.5692   22.4761 H   0  0  0  0  0  0
  -24.0004   -7.4640   22.7475 H   0  0  0  0  0  0
  -21.0847   -8.8780   19.8948 H   0  0  0  0  0  0
  -22.3702  -10.9679   19.6163 H   0  0  0  0  0  0
  -21.2008   -7.6147   23.9712 H   0  0  0  0  0  0
  -21.1479   -6.0523   25.9078 H   0  0  0  0  0  0
  -22.0599   -2.7603   23.2851 H   0  0  0  0  0  0
  -22.4091  -11.9870   22.4811 H   0  0  0  0  0  0
  -21.1082  -13.1223   22.2631 H   0  0  0  0  0  0
  -24.6500  -15.8467   20.5227 H   0  0  0  0  0  0
  -26.2644  -15.6336   20.0726 H   0  0  0  0  0  0
  -26.7231  -32.5387   23.1074 H   0  0  0  0  0  0
  -25.0101  -33.9685   25.0397 H   0  0  0  0  0  0
  -22.7294  -31.3067   21.4031 H   0  0  0  0  0  0
  -23.3755  -35.9615   23.3314 H   0  0  0  0  0  0
  -24.3573  -36.8892   22.2051 H   0  0  0  0  0  0
  -23.7253  -37.6489   23.6658 H   0  0  0  0  0  0
  -26.1298  -31.5172   20.6216 H   0  0  0  0  0  0
  -26.8576  -30.7996   22.0271 H   0  0  0  0  0  0
  -28.1057  -28.8607   21.2544 H   0  0  0  0  0  0
  -25.9106  -25.9692   18.8878 H   0  0  0  0  0  0
  -23.9701  -27.3656   18.9410 H   0  0  0  0  0  0
  -23.7783  -30.6081   19.4083 H   0  0  0  0  0  0
  -22.7656  -29.2660   19.8490 H   0  0  0  0  0  0
  -25.1301  -36.1915   25.0821 H   0  0  0  0  0  0
  -20.9997  -28.3306   24.1370 H   0  0  0  0  0  0
  -20.5699  -26.2317   23.3615 H   0  0  0  0  0  0
  -21.6651  -26.7448   22.1183 H   0  0  0  0  0  0
  -19.6917  -25.6292   21.1253 H   0  0  0  0  0  0
  -19.6699  -27.3190   20.6739 H   0  0  0  0  0  0
  -17.4204  -26.6688   21.4027 H   0  0  0  0  0  0
  -18.0324  -26.0077   22.9020 H   0  0  0  0  0  0
  -19.7949  -30.7278   24.2258 H   0  0  0  0  0  0
  -17.5025  -31.6274   24.5156 H   0  0  0  0  0  0
  -15.5357  -30.2974   23.7681 H   0  0  0  0  0  0
  -15.8684  -28.0815   22.7083 H   0  0  0  0  0  0
  -24.5898  -30.7102   25.7777 H   0  0  0  0  0  0
  -24.8899  -32.2934   26.4850 H   0  0  0  0  0  0
  -25.8016  -30.8956   27.0252 H   0  0  0  0  0  0
  -26.2978  -29.6734   24.1272 H   0  0  0  0  0  0
  -27.4000  -29.7287   25.4819 H   0  0  0  0  0  0
  -27.8878  -30.4256   23.9568 H   0  0  0  0  0  0
  -27.2660  -33.3654   26.2071 H   0  0  0  0  0  0
  -28.3884  -32.6887   25.0364 H   0  0  0  0  0  0
  -28.0704  -31.8488   26.5460 H   0  0  0  0  0  0
  -28.2598  -38.0089   24.7500 H   0  0  0  0  0  0
  -28.1069  -36.2619   24.6314 H   0  0  0  0  0  0
  -27.2289  -37.1477   25.8868 H   0  0  0  0  0  0
  -20.9416  -29.8790   21.6855 H   0  0  0  0  0  0
  -26.0176  -38.2843   24.1398 H   0  0  0  0  0  0
  -31.1533  -20.8805   18.6231 H   0  0  0  0  0  0
  -28.7951  -18.4979   21.3663 H   0  0  0  0  0  0
  -31.6481  -16.6511   18.6723 H   0  0  0  0  0  0
  -27.4909  -23.3260   23.4244 H   0  0  0  0  0  0
  -27.9823  -24.8587   22.6966 H   0  0  0  0  0  0
  -29.1461  -23.9168   23.6319 H   0  0  0  0  0  0
  -26.9029  -24.6242   20.1603 H   0  0  0  0  0  0
  -27.9426  -24.7710   18.7664 H   0  0  0  0  0  0
  -32.8691  -19.7740   17.3955 H   0  0  0  0  0  0
  -33.0829  -18.0955   17.4303 H   0  0  0  0  0  0
  -28.9717  -15.7985   20.9824 H   0  0  0  0  0  0
  1 25  1  0  0  0
  1 30  2  0  0  0
  1 85  1  0  0  0
  2  3  1  0  0  0
  2 25  1  0  0  0
  2 88  1  0  0  0
  2 89  1  0  0  0
  3  4  1  0  0  0
  3 90  1  0  0  0
  3 91  1  0  0  0
  4  5  1  0  0  0
  4 92  1  0  0  0
  4 93  1  0  0  0
  5  6  1  0  0  0
  5 26  1  0  0  0
  5 94  1  0  0  0
  6 25  1  0  0  0
  6 95  1  0  0  0
  6 96  1  0  0  0
  7  8  2  0  0  0
  7 26  1  0  0  0
  7 29  1  0  0  0
  8  9  1  0  0  0
  8 22  1  0  0  0
  9 10  1  0  0  0
  9 27  2  0  0  0
 10 11  2  0  0  0
 10 15  1  0  0  0
 11 12  1  0  0  0
 11 97  1  0  0  0
 12 13  2  0  0  0
 12 98  1  0  0  0
 13 14  1  0  0  0
 13 31  1  0  0  0
 14 15  2  0  0  0
 14 99  1  0  0  0
 15100  1  0  0  0
 16 17  2  0  0  0
 16 21  1  0  0  0
 16 31  1  0  0  0
 17 18  1  0  0  0
 17101  1  0  0  0
 18 19  2  0  0  0
 18102  1  0  0  0
 19 20  1  0  0  0
 19 24  1  0  0  0
 20 21  2  0  0  0
 20103  1  0  0  0
 21 23  1  0  0  0
 22 28  1  0  0  0
 22 32  2  0  0  0
 26 27  1  0  0  0
 28104  1  0  0  0
 28105  1  0  0  0
 29106  1  0  0  0
 29107  1  0  0  0
 33 34  1  0  0  0
 33 66  1  0  0  0
 33 70  2  0  0  0
 34 36  1  0  0  0
 34 59  1  0  0  0
 34108  1  0  0  0
 35 44  2  0  0  0
 35 45  1  0  0  0
 35 68  1  0  0  0
 36 56  1  0  0  0
 36109  1  0  0  0
 37 39  1  0  0  0
 37 47  1  0  0  0
 37 66  1  0  0  0
 37110  1  0  0  0
 38 43  2  0  0  0
 38 46  1  0  0  0
 38 47  1  0  0  0
 39 64  1  0  0  0
 39 67  2  0  0  0
 40 52  1  0  0  0
 40 53  2  0  0  0
 40 58  1  0  0  0
 41111  1  0  0  0
 41112  1  0  0  0
 41113  1  0  0  0
 41 48  1  0  0  0
 42 43  1  0  0  0
 42 66  1  0  0  0
 42114  1  0  0  0
 42115  1  0  0  0
 43 44  1  0  0  0
 44116  1  0  0  0
 45 46  2  0  0  0
 45117  1  0  0  0
 46118  1  0  0  0
 47119  1  0  0  0
 47120  1  0  0  0
 48 56  1  0  0  0
 48 65  1  0  0  0
 48121  1  0  0  0
 49 50  1  0  0  0
 49 53  1  0  0  0
 49 64  1  0  0  0
 49122  1  0  0  0
 50 51  1  0  0  0
 50123  1  0  0  0
 50124  1  0  0  0
 51 52  1  0  0  0
 51125  1  0  0  0
 51126  1  0  0  0
 52127  1  0  0  0
 52128  1  0  0  0
 53 54  1  0  0  0
 54 55  2  0  0  0
 54129  1  0  0  0
 55 57  1  0  0  0
 55130  1  0  0  0
 56 69  2  0  0  0
 57 58  2  0  0  0
 57131  1  0  0  0
 58132  1  0  0  0
 59 60  1  0  0  0
 59 61  1  0  0  0
 59 62  1  0  0  0
 60133  1  0  0  0
 60134  1  0  0  0
 60135  1  0  0  0
 61136  1  0  0  0
 61137  1  0  0  0
 61138  1  0  0  0
 62139  1  0  0  0
 62140  1  0  0  0
 62141  1  0  0  0
 63 65  1  0  0  0
 63142  1  0  0  0
 63143  1  0  0  0
 63144  1  0  0  0
 64145  1  0  0  0
 65146  1  0  0  0
 68 82  1  0  0  0
 71 74  2  0  0  0
 71 75  1  0  0  0
 71147  1  0  0  0
 72 74  1  0  0  0
 72 76  2  0  0  0
 72148  1  0  0  0
 73 75  2  0  0  0
 73 76  1  0  0  0
 73149  1  0  0  0
 74 83  1  0  0  0
 75 84  1  0  0  0
 76 85  1  0  0  0
 77 78  2  0  0  0
 77 79  1  0  0  0
 77 81  1  0  0  0
 78 80  1  0  0  0
 78 82  1  0  0  0
 79 83  1  0  0  0
 79 86  2  0  0  0
 80 83  1  0  0  0
 80 87  2  0  0  0
 81150  1  0  0  0
 81151  1  0  0  0
 81152  1  0  0  0
 82153  1  0  0  0
 82154  1  0  0  0
 84155  1  0  0  0
 84156  1  0  0  0
 85157  1  0  0  0
M  ISO  4   1 100  68 101  82 101  85 100
M  END
> <chiral flag>
0

> <version>
0

> <s_m_source_file>
/data/baiqing/PycharmProjects/Reinvent-master-3.2/result/LINK_invent/BTK/process_docking_weight1_custom_product_contain_oxygen_bond_distance_aromatic_linkinvent_7_9_3/rearranged_h_0092.sdf

> <i_m_source_file_index>
41

> <r_mmod_Potential_Energy-OPLS-2005>
318.898590087891

> <r_mmod_Stretch_Energy-OPLS-2005>
143.851287841797

> <r_mmod_Bend_Energy-OPLS-2005>
219.186584472656

> <r_mmod_Torsional_Energy-OPLS-2005>
258.290435791016

> <r_mmod_Improper_Torsional_Energy-OPLS-2005>
8.83639335632324

> <r_mmod_Van_der_Waal_Energy-OPLS-2005>
148.301803588867

> <r_mmod_Electrostatic_Energy-OPLS-2005>
-320.678527832031

> <r_mmod_Solvation_Energy-OPLS-2005>
-244.506988525391

> <b_mmod_Minimization_Converged-OPLS-2005>
0

> <r_mmod_RMS_Derivative-OPLS-2005>
1.05053985118866

$$$$
41
                    3D
 Structure written by MMmdl.
158166  0  0  1  0            999 V2000
  -30.6173  -14.7736   20.5084 C   0  0  0  0  0  0
  -30.4305  -12.4891   19.4801 C   0  0  0  0  0  0
  -29.5140  -12.5220   18.2374 C   0  0  0  0  0  0
  -28.0382  -12.3370   18.6409 C   0  0  0  0  0  0
  -27.6377  -13.2346   19.8410 C   0  0  2  0  0  0
  -28.6728  -13.1576   20.9778 C   0  0  0  0  0  0
  -25.2489  -13.8204   20.5660 C   0  0  0  0  0  0
  -24.1787  -13.0444   20.9181 C   0  0  0  0  0  0
  -24.6387  -11.6922   20.8722 C   0  0  0  0  0  0
  -23.9074  -10.4296   21.0396 C   0  0  0  0  0  0
  -24.3627   -9.4214   21.9178 C   0  0  0  0  0  0
  -23.6300   -8.2252   22.0757 C   0  0  0  0  0  0
  -22.4276   -8.0286   21.3549 C   0  0  0  0  0  0
  -21.9911   -9.0262   20.4655 C   0  0  0  0  0  0
  -22.7243  -10.2135   20.3055 C   0  0  0  0  0  0
  -21.6855   -6.0733   22.5283 C   0  0  0  0  0  0
  -21.4018   -6.5638   23.8218 C   0  0  0  0  0  0
  -21.3660   -5.6789   24.9180 C   0  0  0  0  0  0
  -21.6040   -4.3051   24.7230 C   0  0  0  0  0  0
  -21.8817   -3.8145   23.4351 C   0  0  0  0  0  0
  -21.9194   -4.6961   22.3406 C   0  0  0  0  0  0
  -22.7809  -13.5227   21.1857 C   0  0  0  0  0  0
  -22.1654   -4.2150   21.0981 F   0  0  0  0  0  0
  -21.5637   -3.4534   25.7740 F   0  0  0  0  0  0
  -29.9731  -13.5498   20.4148 N   0  0  0  0  0  0
  -26.2901  -12.9417   20.3182 N   0  0  0  0  0  0
  -25.9307  -11.6551   20.5672 N   0  0  0  0  0  0
  -22.0448  -12.8238   22.0431 N   0  0  0  0  0  0
  -25.4211  -15.1931   20.4132 N   0  0  0  0  0  0
  -31.7889  -14.8461   20.1191 O   0  0  0  0  0  0
  -21.6638   -6.8879   21.4244 O   0  0  0  0  0  0
  -22.3490  -14.5528   20.6696 O   0  0  0  0  0  0
  -24.6328  -31.8532   23.1969 C   0  0  0  0  0  0
  -25.9155  -32.4742   23.8314 C   0  0  1  0  0  0
  -27.2163  -27.2535   20.1331 C   0  0  0  0  0  0
  -25.5958  -33.8549   24.2240 N   0  0  0  0  0  0
  -23.4311  -30.4760   21.5394 C   0  0  2  0  0  0
  -24.8804  -28.9205   20.1098 C   0  0  0  0  0  0
  -22.7503  -29.4596   22.4884 C   0  0  0  0  0  0
  -18.0290  -28.1389   22.8481 C   0  0  0  0  0  0
  -24.1497  -36.7272   23.2640 C   0  0  0  0  0  0
  -25.9777  -30.7635   21.3790 C   0  0  0  0  0  0
  -26.0525  -29.3842   20.7234 C   0  0  0  0  0  0
  -27.2279  -28.5622   20.7277 C   0  0  0  0  0  0
  -26.0261  -26.8580   19.4919 C   0  0  0  0  0  0
  -24.8718  -27.6647   19.4824 C   0  0  0  0  0  0
  -23.6516  -29.8090   20.1559 C   0  0  0  0  0  0
  -25.4125  -36.3059   24.0319 C   0  0  1  0  0  0
  -20.5894  -28.3705   23.1258 C   0  0  2  0  0  0
  -20.6776  -26.9423   22.5398 C   0  0  0  0  0  0
  -19.5753  -26.6382   21.5206 C   0  0  0  0  0  0
  -18.1936  -26.7931   22.1619 C   0  0  0  0  0  0
  -19.1544  -28.8861   23.2867 C   0  0  0  0  0  0
  -18.9472  -30.1462   23.8892 C   0  0  0  0  0  0
  -17.6471  -30.6590   24.0567 C   0  0  0  0  0  0
  -25.9069  -34.9432   23.5080 C   0  0  0  0  0  0
  -16.5363  -29.9090   23.6336 C   0  0  0  0  0  0
  -16.7275  -28.6504   23.0359 C   0  0  0  0  0  0
  -26.4525  -31.6568   25.0699 C   0  0  0  0  0  0
  -25.3762  -31.3720   26.1425 C   0  0  0  0  0  0
  -27.0364  -30.2977   24.6198 C   0  0  0  0  0  0
  -27.6061  -32.4319   25.7485 C   0  0  0  0  0  0
  -27.5576  -37.1790   24.8468 C   0  0  0  0  0  0
  -21.4204  -29.3055   22.3641 N   0  0  0  0  0  0
  -26.4288  -37.3762   23.9408 N   0  0  0  0  0  0
  -24.6999  -31.0487   22.0950 N   0  0  0  0  0  0
  -23.4190  -28.8138   23.3000 O   0  0  0  0  0  0
  -28.2535  -26.2942   20.1567 O   0  0  0  0  0  0
  -26.5632  -34.8905   22.4642 O   0  0  0  0  0  0
  -23.5474  -32.1369   23.7252 O   0  0  0  0  0  0
  -29.5690  -19.8148   18.7615 C   0  0  0  0  0  0
  -30.0285  -18.6494   18.1165 C   0  0  0  0  0  0
  -29.3690  -18.5271   20.7764 C   0  0  0  0  0  0
  -29.2103  -19.8359   20.1277 C   0  0  0  0  0  0
  -30.1607  -17.4070   18.7759 C   0  0  0  0  0  0
  -29.8366  -17.2738   20.1595 C   0  0  0  0  0  0
  -28.3021  -23.8399   21.1330 C   0  0  0  0  0  0
  -28.1035  -25.2256   21.0812 C   0  0  0  0  0  0
  -28.7652  -22.6674   20.2380 C   0  0  0  0  0  0
  -29.6009  -16.0035   22.3187 C   0  0  0  0  0  0
  -28.5811  -21.1267   20.8337 C   0  0  1  0  0  0
  -30.6104  -16.3473   17.9902 N   0  0  0  0  0  0
  -29.9272  -15.9434   20.8860 N   0  0  0  0  0  0
  -27.1264  -20.9171   20.8846 N   0  3  0  0  0  0
  -29.2109  -22.8943   19.1099 O   0  0  0  0  0  0
  -31.4684  -12.6202   19.1709 H   0  0  0  0  0  0
  -30.3936  -11.5131   19.9670 H   0  0  0  0  0  0
  -29.8137  -11.7486   17.5289 H   0  0  0  0  0  0
  -29.6374  -13.4750   17.7193 H   0  0  0  0  0  0
  -27.9000  -11.2873   18.9009 H   0  0  0  0  0  0
  -27.3864  -12.5272   17.7887 H   0  0  0  0  0  0
  -27.6383  -14.2607   19.4710 H   0  0  0  0  0  0
  -28.7182  -12.1489   21.3909 H   0  0  0  0  0  0
  -28.3609  -13.7996   21.7971 H   0  0  0  0  0  0
  -25.2773   -9.5691   22.4743 H   0  0  0  0  0  0
  -24.0013   -7.4644   22.7462 H   0  0  0  0  0  0
  -21.0851   -8.8784   19.8960 H   0  0  0  0  0  0
  -22.3707  -10.9675   19.6163 H   0  0  0  0  0  0
  -21.2008   -7.6145   23.9727 H   0  0  0  0  0  0
  -21.1480   -6.0512   25.9080 H   0  0  0  0  0  0
  -22.0596   -2.7609   23.2848 H   0  0  0  0  0  0
  -22.4066  -11.9933   22.4880 H   0  0  0  0  0  0
  -21.1054  -13.1265   22.2592 H   0  0  0  0  0  0
  -24.6609  -15.8522   20.5374 H   0  0  0  0  0  0
  -26.2832  -15.6315   20.1152 H   0  0  0  0  0  0
  -26.7219  -32.5385   23.1049 H   0  0  0  0  0  0
  -25.0116  -33.9693   25.0395 H   0  0  0  0  0  0
  -22.7301  -31.2992   21.3905 H   0  0  0  0  0  0
  -23.3751  -35.9615   23.3308 H   0  0  0  0  0  0
  -24.3591  -36.8892   22.2055 H   0  0  0  0  0  0
  -23.7254  -37.6472   23.6667 H   0  0  0  0  0  0
  -26.1188  -31.5216   20.6074 H   0  0  0  0  0  0
  -26.8548  -30.8124   22.0134 H   0  0  0  0  0  0
  -28.1235  -28.9071   21.2253 H   0  0  0  0  0  0
  -25.9827  -25.8845   19.0220 H   0  0  0  0  0  0
  -23.9750  -27.3035   18.9977 H   0  0  0  0  0  0
  -23.7781  -30.5846   19.3997 H   0  0  0  0  0  0
  -22.7705  -29.2428   19.8465 H   0  0  0  0  0  0
  -25.1314  -36.1892   25.0810 H   0  0  0  0  0  0
  -21.0001  -28.3289   24.1374 H   0  0  0  0  0  0
  -20.5669  -26.2334   23.3612 H   0  0  0  0  0  0
  -21.6653  -26.7437   22.1216 H   0  0  0  0  0  0
  -19.6925  -25.6290   21.1248 H   0  0  0  0  0  0
  -19.6690  -27.3181   20.6732 H   0  0  0  0  0  0
  -17.4209  -26.6676   21.4018 H   0  0  0  0  0  0
  -18.0347  -26.0066   22.9015 H   0  0  0  0  0  0
  -19.7949  -30.7276   24.2263 H   0  0  0  0  0  0
  -17.5027  -31.6272   24.5168 H   0  0  0  0  0  0
  -15.5364  -30.2996   23.7652 H   0  0  0  0  0  0
  -15.8674  -28.0816   22.7086 H   0  0  0  0  0  0
  -24.5958  -30.7044   25.7761 H   0  0  0  0  0  0
  -24.8940  -32.2893   26.4813 H   0  0  0  0  0  0
  -25.8103  -30.8929   27.0215 H   0  0  0  0  0  0
  -26.2939  -29.6719   24.1235 H   0  0  0  0  0  0
  -27.4044  -29.7245   25.4720 H   0  0  0  0  0  0
  -27.8832  -30.4226   23.9443 H   0  0  0  0  0  0
  -27.2652  -33.3629   26.2027 H   0  0  0  0  0  0
  -28.3897  -32.6867   25.0339 H   0  0  0  0  0  0
  -28.0709  -31.8474   26.5434 H   0  0  0  0  0  0
  -28.2590  -38.0088   24.7508 H   0  0  0  0  0  0
  -28.1066  -36.2613   24.6305 H   0  0  0  0  0  0
  -27.2293  -37.1462   25.8870 H   0  0  0  0  0  0
  -20.9394  -29.8790   21.6854 H   0  0  0  0  0  0
  -26.0154  -38.2829   24.1409 H   0  0  0  0  0  0
  -29.4739  -20.7002   18.1521 H   0  0  0  0  0  0
  -30.2697  -18.7236   17.0657 H   0  0  0  0  0  0
  -29.0790  -18.4953   21.8162 H   0  0  0  0  0  0
  -28.0458  -23.4669   22.1135 H   0  0  0  0  0  0
  -27.7351  -25.6596   22.0017 H   0  0  0  0  0  0
  -28.5392  -16.2098   22.4579 H   0  0  0  0  0  0
  -30.1720  -16.7934   22.8068 H   0  0  0  0  0  0
  -29.8355  -15.0899   22.8685 H   0  0  0  0  0  0
  -28.9383  -21.1460   21.8636 H   0  0  0  0  0  0
  -31.0300  -16.6024   17.1033 H   0  0  0  0  0  0
  -31.2039  -15.6800   18.4816 H   0  0  0  0  0  0
  -26.6795  -21.6640   21.3822 H   0  0  0  0  0  0
  -26.9125  -20.0514   21.3430 H   0  0  0  0  0  0
  -26.7562  -20.8895   19.9514 H   0  0  0  0  0  0
  1 25  1  0  0  0
  1 30  2  0  0  0
  1 83  1  0  0  0
  2  3  1  0  0  0
  2 25  1  0  0  0
  2 86  1  0  0  0
  2 87  1  0  0  0
  3  4  1  0  0  0
  3 88  1  0  0  0
  3 89  1  0  0  0
  4  5  1  0  0  0
  4 90  1  0  0  0
  4 91  1  0  0  0
  5  6  1  0  0  0
  5 26  1  0  0  0
  5 92  1  0  0  0
  6 25  1  0  0  0
  6 93  1  0  0  0
  6 94  1  0  0  0
  7  8  2  0  0  0
  7 26  1  0  0  0
  7 29  1  0  0  0
  8  9  1  0  0  0
  8 22  1  0  0  0
  9 10  1  0  0  0
  9 27  2  0  0  0
 10 11  2  0  0  0
 10 15  1  0  0  0
 11 12  1  0  0  0
 11 95  1  0  0  0
 12 13  2  0  0  0
 12 96  1  0  0  0
 13 14  1  0  0  0
 13 31  1  0  0  0
 14 15  2  0  0  0
 14 97  1  0  0  0
 15 98  1  0  0  0
 16 17  2  0  0  0
 16 21  1  0  0  0
 16 31  1  0  0  0
 17 18  1  0  0  0
 17 99  1  0  0  0
 18 19  2  0  0  0
 18100  1  0  0  0
 19 20  1  0  0  0
 19 24  1  0  0  0
 20 21  2  0  0  0
 20101  1  0  0  0
 21 23  1  0  0  0
 22 28  1  0  0  0
 22 32  2  0  0  0
 26 27  1  0  0  0
 28102  1  0  0  0
 28103  1  0  0  0
 29104  1  0  0  0
 29105  1  0  0  0
 33 34  1  0  0  0
 33 66  1  0  0  0
 33 70  2  0  0  0
 34 36  1  0  0  0
 34 59  1  0  0  0
 34106  1  0  0  0
 35 44  2  0  0  0
 35 45  1  0  0  0
 35 68  1  0  0  0
 36 56  1  0  0  0
 36107  1  0  0  0
 37 39  1  0  0  0
 37 47  1  0  0  0
 37 66  1  0  0  0
 37108  1  0  0  0
 38 43  2  0  0  0
 38 46  1  0  0  0
 38 47  1  0  0  0
 39 64  1  0  0  0
 39 67  2  0  0  0
 40 52  1  0  0  0
 40 53  2  0  0  0
 40 58  1  0  0  0
 41109  1  0  0  0
 41110  1  0  0  0
 41111  1  0  0  0
 41 48  1  0  0  0
 42 43  1  0  0  0
 42 66  1  0  0  0
 42112  1  0  0  0
 42113  1  0  0  0
 43 44  1  0  0  0
 44114  1  0  0  0
 45 46  2  0  0  0
 45115  1  0  0  0
 46116  1  0  0  0
 47117  1  0  0  0
 47118  1  0  0  0
 48 56  1  0  0  0
 48 65  1  0  0  0
 48119  1  0  0  0
 49 50  1  0  0  0
 49 53  1  0  0  0
 49 64  1  0  0  0
 49120  1  0  0  0
 50 51  1  0  0  0
 50121  1  0  0  0
 50122  1  0  0  0
 51 52  1  0  0  0
 51123  1  0  0  0
 51124  1  0  0  0
 52125  1  0  0  0
 52126  1  0  0  0
 53 54  1  0  0  0
 54 55  2  0  0  0
 54127  1  0  0  0
 55 57  1  0  0  0
 55128  1  0  0  0
 56 69  2  0  0  0
 57 58  2  0  0  0
 57129  1  0  0  0
 58130  1  0  0  0
 59 60  1  0  0  0
 59 61  1  0  0  0
 59 62  1  0  0  0
 60131  1  0  0  0
 60132  1  0  0  0
 60133  1  0  0  0
 61134  1  0  0  0
 61135  1  0  0  0
 61136  1  0  0  0
 62137  1  0  0  0
 62138  1  0  0  0
 62139  1  0  0  0
 63 65  1  0  0  0
 63140  1  0  0  0
 63141  1  0  0  0
 63142  1  0  0  0
 64143  1  0  0  0
 65144  1  0  0  0
 68 78  1  0  0  0
 71 72  2  0  0  0
 71 74  1  0  0  0
 71145  1  0  0  0
 72 75  1  0  0  0
 72146  1  0  0  0
 73 74  2  0  0  0
 73 76  1  0  0  0
 73147  1  0  0  0
 74 81  1  0  0  0
 75 76  2  0  0  0
 75 82  1  0  0  0
 76 83  1  0  0  0
 77 78  2  0  0  0
 77 79  1  0  0  0
 77148  1  0  0  0
 78149  1  0  0  0
 79 81  1  0  0  0
 79 85  2  0  0  0
 80 83  1  0  0  0
 80150  1  0  0  0
 80151  1  0  0  0
 80152  1  0  0  0
 81 84  1  0  0  0
 81153  1  0  0  0
 82154  1  0  0  0
 82155  1  0  0  0
 84156  1  0  0  0
 84157  1  0  0  0
 84158  1  0  0  0
M  CHG  1  84   1
M  ISO  4   1 100  68 101  78 101  83 100
M  END
> <chiral flag>
0

> <version>
0

> <s_m_source_file>
/data/baiqing/PycharmProjects/Reinvent-master-3.2/result/LINK_invent/BTK/process_docking_weight1_custom_product_contain_oxygen_bond_distance_aromatic_linkinvent_7_9_3/rearranged_h_0092.sdf

> <i_m_source_file_index>
42

> <r_mmod_Potential_Energy-OPLS-2005>
49.4973297119141

> <r_mmod_Stretch_Energy-OPLS-2005>
163.523254394531

> <r_mmod_Bend_Energy-OPLS-2005>
264.573699951172

> <r_mmod_Torsional_Energy-OPLS-2005>
287.030059814453

> <r_mmod_Improper_Torsional_Energy-OPLS-2005>
9.44289207458496

> <r_mmod_Van_der_Waal_Energy-OPLS-2005>
152.671264648438

> <r_mmod_Electrostatic_Energy-OPLS-2005>
-385.061401367188

> <r_mmod_Solvation_Energy-OPLS-2005>
-539.850463867188

> <b_mmod_Minimization_Converged-OPLS-2005>
0

> <r_mmod_RMS_Derivative-OPLS-2005>
1.91396474838257

$$$$
42
                    3D
 Structure written by MMmdl.
155163  0  0  1  0            999 V2000
  -30.4604  -14.9744   20.4410 C   0  0  0  0  0  0
  -30.4694  -12.6011   19.5197 C   0  0  0  0  0  0
  -29.5532  -12.5203   18.2700 C   0  0  0  0  0  0
  -28.0730  -12.3031   18.6646 C   0  0  0  0  0  0
  -27.6360  -13.2237   19.8385 C   0  0  2  0  0  0
  -28.6688  -13.1562   20.9780 C   0  0  0  0  0  0
  -25.2453  -13.8134   20.5582 C   0  0  0  0  0  0
  -24.1767  -13.0342   20.9186 C   0  0  0  0  0  0
  -24.6362  -11.6849   20.8759 C   0  0  0  0  0  0
  -23.9048  -10.4231   21.0438 C   0  0  0  0  0  0
  -24.3605   -9.4147   21.9198 C   0  0  0  0  0  0
  -23.6300   -8.2169   22.0743 C   0  0  0  0  0  0
  -22.4292   -8.0218   21.3537 C   0  0  0  0  0  0
  -21.9931   -9.0161   20.4628 C   0  0  0  0  0  0
  -22.7242  -10.2059   20.3050 C   0  0  0  0  0  0
  -21.6816   -6.0728   22.5305 C   0  0  0  0  0  0
  -21.3989   -6.5636   23.8246 C   0  0  0  0  0  0
  -21.3650   -5.6796   24.9213 C   0  0  0  0  0  0
  -21.6058   -4.3054   24.7247 C   0  0  0  0  0  0
  -21.8804   -3.8147   23.4353 C   0  0  0  0  0  0
  -21.9165   -4.6960   22.3428 C   0  0  0  0  0  0
  -22.7817  -13.5145   21.1910 C   0  0  0  0  0  0
  -22.1659   -4.2165   21.0994 F   0  0  0  0  0  0
  -21.5608   -3.4543   25.7753 F   0  0  0  0  0  0
  -29.9416  -13.6632   20.4314 N   0  0  0  0  0  0
  -26.2877  -12.9324   20.3186 N   0  0  0  0  0  0
  -25.9277  -11.6469   20.5686 N   0  0  0  0  0  0
  -22.0469  -12.8127   22.0464 N   0  0  0  0  0  0
  -25.4043  -15.1833   20.3771 N   0  0  0  0  0  0
  -31.6291  -15.1098   20.0530 O   0  0  0  0  0  0
  -21.6596   -6.8846   21.4277 O   0  0  0  0  0  0
  -22.3442  -14.5427   20.6768 O   0  0  0  0  0  0
  -24.6401  -31.8467   23.1936 C   0  0  0  0  0  0
  -25.9202  -32.4702   23.8320 C   0  0  1  0  0  0
  -27.2117  -27.1666   20.1334 C   0  0  0  0  0  0
  -25.6007  -33.8507   24.2232 N   0  0  0  0  0  0
  -23.4376  -30.4653   21.5362 C   0  0  2  0  0  0
  -24.8862  -28.8964   20.1039 C   0  0  0  0  0  0
  -22.7567  -29.4529   22.4915 C   0  0  0  0  0  0
  -18.0264  -28.1499   22.8478 C   0  0  0  0  0  0
  -24.1510  -36.7286   23.2629 C   0  0  0  0  0  0
  -25.9917  -30.7107   21.3957 C   0  0  0  0  0  0
  -26.0565  -29.3277   20.7418 C   0  0  0  0  0  0
  -27.2130  -28.4714   20.7556 C   0  0  0  0  0  0
  -26.0334  -26.8407   19.4320 C   0  0  0  0  0  0
  -24.8886  -27.6681   19.4236 C   0  0  0  0  0  0
  -23.6662  -29.8052   20.1491 C   0  0  0  0  0  0
  -25.4128  -36.3041   24.0309 C   0  0  1  0  0  0
  -20.5897  -28.3692   23.1285 C   0  0  2  0  0  0
  -20.6744  -26.9462   22.5354 C   0  0  0  0  0  0
  -19.5682  -26.6492   21.5188 C   0  0  0  0  0  0
  -18.1858  -26.8051   22.1585 C   0  0  0  0  0  0
  -19.1558  -28.8911   23.2879 C   0  0  0  0  0  0
  -18.9523  -30.1487   23.8962 C   0  0  0  0  0  0
  -17.6539  -30.6648   24.0712 C   0  0  0  0  0  0
  -25.9088  -34.9407   23.5083 C   0  0  0  0  0  0
  -16.5394  -29.9225   23.6445 C   0  0  0  0  0  0
  -16.7266  -28.6684   23.0349 C   0  0  0  0  0  0
  -26.4546  -31.6558   25.0725 C   0  0  0  0  0  0
  -25.3780  -31.3621   26.1447 C   0  0  0  0  0  0
  -27.0413  -30.2993   24.6218 C   0  0  0  0  0  0
  -27.6143  -32.4290   25.7460 C   0  0  0  0  0  0
  -27.5590  -37.1777   24.8467 C   0  0  0  0  0  0
  -21.4267  -29.3062   22.3737 N   0  0  0  0  0  0
  -26.4311  -37.3748   23.9406 N   0  0  0  0  0  0
  -24.7091  -31.0312   22.0962 N   0  0  0  0  0  0
  -23.4246  -28.8037   23.3018 O   0  0  0  0  0  0
  -28.2950  -26.2316   20.1571 O   0  0  0  0  0  0
  -26.5646  -34.8914   22.4644 O   0  0  0  0  0  0
  -23.5531  -32.1418   23.7141 O   0  0  0  0  0  0
  -29.1923  -18.9276   21.4053 C   0  0  0  0  0  0
  -29.7291  -19.9124   18.9306 C   0  0  0  0  0  0
  -29.6309  -17.8863   20.4827 C   0  0  0  0  0  0
  -29.2729  -20.9233   19.8415 C   0  0  0  0  0  0
  -29.0011  -20.3493   21.1208 C   0  0  0  0  0  0
  -29.9006  -18.4945   19.1995 C   0  0  0  0  0  0
  -29.5435  -16.3062   20.9132 C   0  0  0  0  0  0
  -28.9048  -23.6266   19.3985 C   0  0  0  0  0  0
  -29.4107  -24.3661   18.1586 C   0  0  0  0  0  0
  -28.1103  -24.7046   20.3519 C   0  0  0  0  0  0
  -28.6243  -16.0940   21.7646 N   0  0  0  0  0  0
  -29.2452  -22.3189   19.3109 N   0  0  0  0  0  0
  -28.5079  -21.2040   22.1091 N   0  0  0  0  0  0
  -30.2921  -17.7227   18.1017 N   0  0  0  0  0  0
  -31.4985  -12.8079   19.2173 H   0  0  0  0  0  0
  -30.5219  -11.6363   20.0288 H   0  0  0  0  0  0
  -29.8875  -11.7136   17.6119 H   0  0  0  0  0  0
  -29.6491  -13.4450   17.6970 H   0  0  0  0  0  0
  -27.9735  -11.2582   18.9652 H   0  0  0  0  0  0
  -27.4268  -12.4314   17.7964 H   0  0  0  0  0  0
  -27.6306  -14.2435   19.4478 H   0  0  0  0  0  0
  -28.7594  -12.1264   21.3316 H   0  0  0  0  0  0
  -28.3342  -13.6953   21.8576 H   0  0  0  0  0  0
  -25.2717   -9.5601   22.4804 H   0  0  0  0  0  0
  -23.9993   -7.4517   22.7439 H   0  0  0  0  0  0
  -21.0855   -8.8625   19.8916 H   0  0  0  0  0  0
  -22.3677  -10.9565   19.6135 H   0  0  0  0  0  0
  -21.2005   -7.6140   23.9778 H   0  0  0  0  0  0
  -21.1522   -6.0518   25.9126 H   0  0  0  0  0  0
  -22.0617   -2.7616   23.2860 H   0  0  0  0  0  0
  -22.4098  -11.9777   22.4794 H   0  0  0  0  0  0
  -21.1057  -13.1123   22.2650 H   0  0  0  0  0  0
  -24.6067  -15.8108   20.3756 H   0  0  0  0  0  0
  -26.2362  -15.6068   19.9823 H   0  0  0  0  0  0
  -26.7209  -32.5265   23.1011 H   0  0  0  0  0  0
  -25.0228  -33.9663   25.0412 H   0  0  0  0  0  0
  -22.7378  -31.2894   21.3874 H   0  0  0  0  0  0
  -23.3797  -35.9603   23.3257 H   0  0  0  0  0  0
  -24.3607  -36.8980   22.2062 H   0  0  0  0  0  0
  -23.7267  -37.6452   23.6720 H   0  0  0  0  0  0
  -26.1506  -31.4566   20.6171 H   0  0  0  0  0  0
  -26.8626  -30.7591   22.0348 H   0  0  0  0  0  0
  -28.0924  -28.7740   21.3045 H   0  0  0  0  0  0
  -25.9913  -25.9184   18.8691 H   0  0  0  0  0  0
  -24.0142  -27.3532   18.8666 H   0  0  0  0  0  0
  -23.8242  -30.5921   19.4085 H   0  0  0  0  0  0
  -22.7721  -29.2736   19.8162 H   0  0  0  0  0  0
  -25.1301  -36.1882   25.0801 H   0  0  0  0  0  0
  -20.9910  -28.3197   24.1442 H   0  0  0  0  0  0
  -20.5725  -26.2277   23.3483 H   0  0  0  0  0  0
  -21.6569  -26.7534   22.1048 H   0  0  0  0  0  0
  -19.6855  -25.6423   21.1153 H   0  0  0  0  0  0
  -19.6635  -27.3320   20.6749 H   0  0  0  0  0  0
  -17.4141  -26.6931   21.3952 H   0  0  0  0  0  0
  -18.0178  -26.0161   22.8938 H   0  0  0  0  0  0
  -19.7989  -30.7268   24.2390 H   0  0  0  0  0  0
  -17.5128  -31.6276   24.5417 H   0  0  0  0  0  0
  -15.5422  -30.3155   23.7828 H   0  0  0  0  0  0
  -15.8650  -28.1088   22.6998 H   0  0  0  0  0  0
  -24.6021  -30.6918   25.7739 H   0  0  0  0  0  0
  -24.8891  -32.2717   26.4943 H   0  0  0  0  0  0
  -25.8149  -30.8753   27.0186 H   0  0  0  0  0  0
  -26.2985  -29.6703   24.1298 H   0  0  0  0  0  0
  -27.4194  -29.7299   25.4718 H   0  0  0  0  0  0
  -27.8847  -30.4317   23.9434 H   0  0  0  0  0  0
  -27.2840  -33.3660   26.1982 H   0  0  0  0  0  0
  -28.3963  -32.6743   25.0242 H   0  0  0  0  0  0
  -28.0820  -31.8429   26.5403 H   0  0  0  0  0  0
  -28.2558  -38.0108   24.7537 H   0  0  0  0  0  0
  -28.1132  -36.2650   24.6262 H   0  0  0  0  0  0
  -27.2311  -37.1360   25.8863 H   0  0  0  0  0  0
  -20.9488  -29.8902   21.7027 H   0  0  0  0  0  0
  -26.0189  -38.2828   24.1404 H   0  0  0  0  0  0
  -28.9612  -18.6074   22.4110 H   0  0  0  0  0  0
  -29.9519  -20.2744   17.9367 H   0  0  0  0  0  0
  -28.9217  -23.9883   17.2557 H   0  0  0  0  0  0
  -30.4883  -24.2256   18.0471 H   0  0  0  0  0  0
  -29.2521  -25.4440   18.1839 H   0  0  0  0  0  0
  -28.4089  -24.4775   21.3775 H   0  0  0  0  0  0
  -27.0480  -24.4666   20.3117 H   0  0  0  0  0  0
  -28.1147  -16.9343   22.0118 H   0  0  0  0  0  0
  -27.9102  -20.8043   22.8258 H   0  0  0  0  0  0
  -28.1255  -22.0754   21.7568 H   0  0  0  0  0  0
  -30.5863  -18.2071   17.2568 H   0  0  0  0  0  0
  -30.7594  -16.8307   18.2302 H   0  0  0  0  0  0
  1 25  1  0  0  0
  1 30  2  0  0  0
  1 77  1  0  0  0
  2  3  1  0  0  0
  2 25  1  0  0  0
  2 85  1  0  0  0
  2 86  1  0  0  0
  3  4  1  0  0  0
  3 87  1  0  0  0
  3 88  1  0  0  0
  4  5  1  0  0  0
  4 89  1  0  0  0
  4 90  1  0  0  0
  5  6  1  0  0  0
  5 26  1  0  0  0
  5 91  1  0  0  0
  6 25  1  0  0  0
  6 92  1  0  0  0
  6 93  1  0  0  0
  7  8  2  0  0  0
  7 26  1  0  0  0
  7 29  1  0  0  0
  8  9  1  0  0  0
  8 22  1  0  0  0
  9 10  1  0  0  0
  9 27  2  0  0  0
 10 11  2  0  0  0
 10 15  1  0  0  0
 11 12  1  0  0  0
 11 94  1  0  0  0
 12 13  2  0  0  0
 12 95  1  0  0  0
 13 14  1  0  0  0
 13 31  1  0  0  0
 14 15  2  0  0  0
 14 96  1  0  0  0
 15 97  1  0  0  0
 16 17  2  0  0  0
 16 21  1  0  0  0
 16 31  1  0  0  0
 17 18  1  0  0  0
 17 98  1  0  0  0
 18 19  2  0  0  0
 18 99  1  0  0  0
 19 20  1  0  0  0
 19 24  1  0  0  0
 20 21  2  0  0  0
 20100  1  0  0  0
 21 23  1  0  0  0
 22 28  1  0  0  0
 22 32  2  0  0  0
 26 27  1  0  0  0
 28101  1  0  0  0
 28102  1  0  0  0
 29103  1  0  0  0
 29104  1  0  0  0
 33 34  1  0  0  0
 33 66  1  0  0  0
 33 70  2  0  0  0
 34 36  1  0  0  0
 34 59  1  0  0  0
 34105  1  0  0  0
 35 44  2  0  0  0
 35 45  1  0  0  0
 35 68  1  0  0  0
 36 56  1  0  0  0
 36106  1  0  0  0
 37 39  1  0  0  0
 37 47  1  0  0  0
 37 66  1  0  0  0
 37107  1  0  0  0
 38 43  2  0  0  0
 38 46  1  0  0  0
 38 47  1  0  0  0
 39 64  1  0  0  0
 39 67  2  0  0  0
 40 52  1  0  0  0
 40 53  2  0  0  0
 40 58  1  0  0  0
 41108  1  0  0  0
 41109  1  0  0  0
 41110  1  0  0  0
 41 48  1  0  0  0
 42 43  1  0  0  0
 42 66  1  0  0  0
 42111  1  0  0  0
 42112  1  0  0  0
 43 44  1  0  0  0
 44113  1  0  0  0
 45 46  2  0  0  0
 45114  1  0  0  0
 46115  1  0  0  0
 47116  1  0  0  0
 47117  1  0  0  0
 48 56  1  0  0  0
 48 65  1  0  0  0
 48118  1  0  0  0
 49 50  1  0  0  0
 49 53  1  0  0  0
 49 64  1  0  0  0
 49119  1  0  0  0
 50 51  1  0  0  0
 50120  1  0  0  0
 50121  1  0  0  0
 51 52  1  0  0  0
 51122  1  0  0  0
 51123  1  0  0  0
 52124  1  0  0  0
 52125  1  0  0  0
 53 54  1  0  0  0
 54 55  2  0  0  0
 54126  1  0  0  0
 55 57  1  0  0  0
 55127  1  0  0  0
 56 69  2  0  0  0
 57 58  2  0  0  0
 57128  1  0  0  0
 58129  1  0  0  0
 59 60  1  0  0  0
 59 61  1  0  0  0
 59 62  1  0  0  0
 60130  1  0  0  0
 60131  1  0  0  0
 60132  1  0  0  0
 61133  1  0  0  0
 61134  1  0  0  0
 61135  1  0  0  0
 62136  1  0  0  0
 62137  1  0  0  0
 62138  1  0  0  0
 63 65  1  0  0  0
 63139  1  0  0  0
 63140  1  0  0  0
 63141  1  0  0  0
 64142  1  0  0  0
 65143  1  0  0  0
 68 80  1  0  0  0
 71 73  2  0  0  0
 71 75  1  0  0  0
 71144  1  0  0  0
 72 74  1  0  0  0
 72 76  2  0  0  0
 72145  1  0  0  0
 73 76  1  0  0  0
 73 77  1  0  0  0
 74 75  2  0  0  0
 74 82  1  0  0  0
 75 83  1  0  0  0
 76 84  1  0  0  0
 77 81  2  0  0  0
 78 79  1  0  0  0
 78 80  1  0  0  0
 78 82  2  0  0  0
 79146  1  0  0  0
 79147  1  0  0  0
 79148  1  0  0  0
 80149  1  0  0  0
 80150  1  0  0  0
 81151  1  0  0  0
 83152  1  0  0  0
 83153  1  0  0  0
 84154  1  0  0  0
 84155  1  0  0  0
M  ISO  4   1 100  68 101  77 100  80 101
M  END
> <chiral flag>
0

> <version>
0

> <s_m_source_file>
/data/baiqing/PycharmProjects/Reinvent-master-3.2/result/LINK_invent/BTK/process_docking_weight1_custom_product_contain_oxygen_bond_distance_aromatic_linkinvent_7_9_3/rearranged_h_0092.sdf

> <i_m_source_file_index>
43

> <r_mmod_Potential_Energy-OPLS-2005>
727.759887695312

> <r_mmod_Stretch_Energy-OPLS-2005>
258.689270019531

> <r_mmod_Bend_Energy-OPLS-2005>
431.206237792969

> <r_mmod_Torsional_Energy-OPLS-2005>
211.875503540039

> <r_mmod_Improper_Torsional_Energy-OPLS-2005>
11.1893968582153

> <r_mmod_Van_der_Waal_Energy-OPLS-2005>
140.935089111328

> <r_mmod_Electrostatic_Energy-OPLS-2005>
-300.007110595703

> <r_mmod_Solvation_Energy-OPLS-2005>
-212.626907348633

> <b_mmod_Minimization_Converged-OPLS-2005>
0

> <r_mmod_RMS_Derivative-OPLS-2005>
8.15276718139648

$$$$
43
                    3D
 Structure written by MMmdl.
155163  0  0  1  0            999 V2000
  -30.5409  -14.8461   20.4810 C   0  0  0  0  0  0
  -30.4354  -12.5685   19.4193 C   0  0  0  0  0  0
  -29.4800  -12.5399   18.2016 C   0  0  0  0  0  0
  -28.0147  -12.3255   18.6257 C   0  0  0  0  0  0
  -27.6316  -13.1978   19.8412 C   0  0  2  0  0  0
  -28.6824  -13.0572   20.9545 C   0  0  0  0  0  0
  -25.2469  -13.8079   20.5549 C   0  0  0  0  0  0
  -24.1780  -13.0357   20.9206 C   0  0  0  0  0  0
  -24.6369  -11.6846   20.8800 C   0  0  0  0  0  0
  -23.9066  -10.4262   21.0486 C   0  0  0  0  0  0
  -24.3646   -9.4169   21.9242 C   0  0  0  0  0  0
  -23.6312   -8.2205   22.0778 C   0  0  0  0  0  0
  -22.4295   -8.0292   21.3549 C   0  0  0  0  0  0
  -21.9952   -9.0264   20.4641 C   0  0  0  0  0  0
  -22.7276  -10.2151   20.3081 C   0  0  0  0  0  0
  -21.6836   -6.0766   22.5279 C   0  0  0  0  0  0
  -21.3977   -6.5664   23.8209 C   0  0  0  0  0  0
  -21.3656   -5.6832   24.9175 C   0  0  0  0  0  0
  -21.6049   -4.3084   24.7228 C   0  0  0  0  0  0
  -21.8808   -3.8185   23.4341 C   0  0  0  0  0  0
  -21.9187   -4.6996   22.3395 C   0  0  0  0  0  0
  -22.7826  -13.5181   21.1904 C   0  0  0  0  0  0
  -22.1673   -4.2183   21.0977 F   0  0  0  0  0  0
  -21.5648   -3.4566   25.7737 F   0  0  0  0  0  0
  -29.9413  -13.5891   20.3895 N   0  0  0  0  0  0
  -26.2866  -12.9213   20.3211 N   0  0  0  0  0  0
  -25.9265  -11.6406   20.5781 N   0  0  0  0  0  0
  -22.0468  -12.8143   22.0457 N   0  0  0  0  0  0
  -25.4085  -15.1782   20.3793 N   0  0  0  0  0  0
  -31.7326  -14.8914   20.1460 O   0  0  0  0  0  0
  -21.6622   -6.8905   21.4247 O   0  0  0  0  0  0
  -22.3505  -14.5510   20.6821 O   0  0  0  0  0  0
  -24.6554  -31.8526   23.2054 C   0  0  0  0  0  0
  -25.9281  -32.4768   23.8429 C   0  0  1  0  0  0
  -27.2099  -27.2094   20.1403 C   0  0  0  0  0  0
  -25.5972  -33.8567   24.2294 N   0  0  0  0  0  0
  -23.4765  -30.4802   21.5552 C   0  0  2  0  0  0
  -24.9077  -28.9287   20.1077 C   0  0  0  0  0  0
  -22.7900  -29.4712   22.5059 C   0  0  0  0  0  0
  -17.9943  -28.1216   22.8729 C   0  0  0  0  0  0
  -24.1496  -36.7280   23.2639 C   0  0  0  0  0  0
  -26.0196  -30.7467   21.3999 C   0  0  0  0  0  0
  -26.0828  -29.3707   20.7266 C   0  0  0  0  0  0
  -27.2455  -28.5253   20.7300 C   0  0  0  0  0  0
  -26.0143  -26.8488   19.4851 C   0  0  0  0  0  0
  -24.8811  -27.6820   19.4643 C   0  0  0  0  0  0
  -23.6850  -29.8212   20.1661 C   0  0  0  0  0  0
  -25.4112  -36.3056   24.0326 C   0  0  1  0  0  0
  -20.4838  -28.4614   22.7770 C   0  0  2  0  0  0
  -20.6919  -26.9632   22.5245 C   0  0  0  0  0  0
  -19.5518  -26.4603   21.6146 C   0  0  0  0  0  0
  -18.1565  -26.7505   22.2107 C   0  0  0  0  0  0
  -19.1178  -28.9028   23.2493 C   0  0  0  0  0  0
  -18.9374  -30.1532   23.8770 C   0  0  0  0  0  0
  -17.6378  -30.6524   24.0791 C   0  0  0  0  0  0
  -25.9058  -34.9424   23.5090 C   0  0  0  0  0  0
  -16.5208  -29.8967   23.6754 C   0  0  0  0  0  0
  -16.7000  -28.6297   23.0897 C   0  0  0  0  0  0
  -26.4529  -31.6631   25.0859 C   0  0  0  0  0  0
  -25.3689  -31.3829   26.1542 C   0  0  0  0  0  0
  -27.0386  -30.3006   24.6481 C   0  0  0  0  0  0
  -27.6053  -32.4388   25.7642 C   0  0  0  0  0  0
  -27.5565  -37.1807   24.8444 C   0  0  0  0  0  0
  -21.4646  -29.4452   22.3873 N   0  0  0  0  0  0
  -26.4276  -37.3754   23.9392 N   0  0  0  0  0  0
  -24.7393  -31.0442   22.1081 N   0  0  0  0  0  0
  -23.4299  -28.7474   23.2712 O   0  0  0  0  0  0
  -28.1957  -26.1870   20.2341 O   0  0  0  0  0  0
  -26.5628  -34.8899   22.4649 O   0  0  0  0  0  0
  -23.5658  -32.1377   23.7238 O   0  0  0  0  0  0
  -31.6243  -19.0882   19.1886 C   0  0  0  0  0  0
  -30.8457  -20.2082   19.5316 C   0  0  0  0  0  0
  -31.2533  -17.7720   19.5334 C   0  0  0  0  0  0
  -29.2780  -18.6874   20.5833 C   0  0  0  0  0  0
  -29.6275  -20.0720   20.2258 C   0  0  0  0  0  0
  -30.0892  -17.4818   20.2893 C   0  0  0  0  0  0
  -27.7614  -25.0061   20.9267 C   0  0  0  0  0  0
  -27.9930  -23.6168   20.9931 C   0  0  0  0  0  0
  -28.9601  -22.6841   20.2831 C   0  0  0  0  0  0
  -27.0984  -22.8874   22.0026 C   0  0  0  0  0  0
  -28.7250  -15.9594   21.7271 C   0  0  0  0  0  0
  -28.8344  -21.3068   20.5703 N   0  0  0  0  0  0
  -29.7962  -16.0458   20.7289 N   0  0  0  0  0  0
  -29.8165  -23.1086   19.5065 O   0  0  0  0  0  0
  -31.4417  -12.7902   19.0609 H   0  0  0  0  0  0
  -30.5040  -11.5879   19.8856 H   0  0  0  0  0  0
  -29.7805  -11.7593   17.5018 H   0  0  0  0  0  0
  -29.5491  -13.4851   17.6605 H   0  0  0  0  0  0
  -27.8875  -11.2698   18.8608 H   0  0  0  0  0  0
  -27.3397  -12.5348   17.7944 H   0  0  0  0  0  0
  -27.6352  -14.2216   19.4750 H   0  0  0  0  0  0
  -28.8123  -12.0030   21.2149 H   0  0  0  0  0  0
  -28.3301  -13.4859   21.8867 H   0  0  0  0  0  0
  -25.2786   -9.5628   22.4831 H   0  0  0  0  0  0
  -24.0000   -7.4574   22.7479 H   0  0  0  0  0  0
  -21.0908   -8.8788   19.8923 H   0  0  0  0  0  0
  -22.3748  -10.9724   19.6211 H   0  0  0  0  0  0
  -21.1921   -7.6165   23.9713 H   0  0  0  0  0  0
  -21.1513   -6.0563   25.9085 H   0  0  0  0  0  0
  -22.0587   -2.7646   23.2823 H   0  0  0  0  0  0
  -22.4053  -11.9755   22.4789 H   0  0  0  0  0  0
  -21.1074  -13.1169   22.2668 H   0  0  0  0  0  0
  -24.6463  -15.8348   20.5037 H   0  0  0  0  0  0
  -26.2654  -15.6263   20.0776 H   0  0  0  0  0  0
  -26.7326  -32.5391   23.1160 H   0  0  0  0  0  0
  -25.0021  -33.9703   25.0378 H   0  0  0  0  0  0
  -22.7845  -31.3104   21.4018 H   0  0  0  0  0  0
  -23.3748  -35.9621   23.3299 H   0  0  0  0  0  0
  -24.3584  -36.8925   22.2049 H   0  0  0  0  0  0
  -23.7270  -37.6484   23.6689 H   0  0  0  0  0  0
  -26.1759  -31.5152   20.6413 H   0  0  0  0  0  0
  -26.8880  -30.7811   22.0482 H   0  0  0  0  0  0
  -28.1425  -28.8447   21.2428 H   0  0  0  0  0  0
  -25.9346  -25.8697   19.0296 H   0  0  0  0  0  0
  -23.9818  -27.3487   18.9664 H   0  0  0  0  0  0
  -23.8089  -30.6000   19.4129 H   0  0  0  0  0  0
  -22.8003  -29.2618   19.8622 H   0  0  0  0  0  0
  -25.1314  -36.1867   25.0822 H   0  0  0  0  0  0
  -20.1646  -28.6848   21.7576 H   0  0  0  0  0  0
  -20.6862  -26.4198   23.4698 H   0  0  0  0  0  0
  -21.6580  -26.7611   22.0580 H   0  0  0  0  0  0
  -19.6563  -25.3903   21.4301 H   0  0  0  0  0  0
  -19.6251  -26.9285   20.6312 H   0  0  0  0  0  0
  -17.3981  -26.6235   21.4376 H   0  0  0  0  0  0
  -17.9338  -25.9987   22.9683 H   0  0  0  0  0  0
  -19.7928  -30.7551   24.1528 H   0  0  0  0  0  0
  -17.4919  -31.6235   24.5335 H   0  0  0  0  0  0
  -15.5230  -30.2863   23.8240 H   0  0  0  0  0  0
  -15.8318  -28.0552   22.7989 H   0  0  0  0  0  0
  -24.5824  -30.7223   25.7847 H   0  0  0  0  0  0
  -24.8963  -32.3052   26.4952 H   0  0  0  0  0  0
  -25.7986  -30.8990   27.0330 H   0  0  0  0  0  0
  -26.3066  -29.6737   24.1385 H   0  0  0  0  0  0
  -27.3796  -29.7292   25.5130 H   0  0  0  0  0  0
  -27.9053  -30.4185   23.9971 H   0  0  0  0  0  0
  -27.2601  -33.3642   26.2252 H   0  0  0  0  0  0
  -28.3862  -32.7033   25.0501 H   0  0  0  0  0  0
  -28.0732  -31.8511   26.5555 H   0  0  0  0  0  0
  -28.2563  -38.0120   24.7473 H   0  0  0  0  0  0
  -28.1097  -36.2650   24.6302 H   0  0  0  0  0  0
  -27.2286  -37.1466   25.8848 H   0  0  0  0  0  0
  -21.0910  -30.1585   21.7764 H   0  0  0  0  0  0
  -26.0147  -38.2819   24.1410 H   0  0  0  0  0  0
  -32.5492  -19.2499   18.6539 H   0  0  0  0  0  0
  -31.2168  -21.1813   19.2469 H   0  0  0  0  0  0
  -31.9277  -16.9992   19.2018 H   0  0  0  0  0  0
  -28.3400  -18.5693   21.1057 H   0  0  0  0  0  0
  -27.0046  -25.3509   21.6159 H   0  0  0  0  0  0
  -26.4958  -22.1169   21.5177 H   0  0  0  0  0  0
  -26.3944  -23.5545   22.4981 H   0  0  0  0  0  0
  -27.6965  -22.4263   22.7892 H   0  0  0  0  0  0
  -27.7961  -15.6404   21.2615 H   0  0  0  0  0  0
  -28.5115  -16.8824   22.2543 H   0  0  0  0  0  0
  -29.0100  -15.2933   22.5398 H   0  0  0  0  0  0
  -28.0423  -21.1294   21.1730 H   0  0  0  0  0  0
  1 25  1  0  0  0
  1 30  2  0  0  0
  1 83  1  0  0  0
  2  3  1  0  0  0
  2 25  1  0  0  0
  2 85  1  0  0  0
  2 86  1  0  0  0
  3  4  1  0  0  0
  3 87  1  0  0  0
  3 88  1  0  0  0
  4  5  1  0  0  0
  4 89  1  0  0  0
  4 90  1  0  0  0
  5  6  1  0  0  0
  5 26  1  0  0  0
  5 91  1  0  0  0
  6 25  1  0  0  0
  6 92  1  0  0  0
  6 93  1  0  0  0
  7  8  2  0  0  0
  7 26  1  0  0  0
  7 29  1  0  0  0
  8  9  1  0  0  0
  8 22  1  0  0  0
  9 10  1  0  0  0
  9 27  2  0  0  0
 10 11  2  0  0  0
 10 15  1  0  0  0
 11 12  1  0  0  0
 11 94  1  0  0  0
 12 13  2  0  0  0
 12 95  1  0  0  0
 13 14  1  0  0  0
 13 31  1  0  0  0
 14 15  2  0  0  0
 14 96  1  0  0  0
 15 97  1  0  0  0
 16 17  2  0  0  0
 16 21  1  0  0  0
 16 31  1  0  0  0
 17 18  1  0  0  0
 17 98  1  0  0  0
 18 19  2  0  0  0
 18 99  1  0  0  0
 19 20  1  0  0  0
 19 24  1  0  0  0
 20 21  2  0  0  0
 20100  1  0  0  0
 21 23  1  0  0  0
 22 28  1  0  0  0
 22 32  2  0  0  0
 26 27  1  0  0  0
 28101  1  0  0  0
 28102  1  0  0  0
 29103  1  0  0  0
 29104  1  0  0  0
 33 34  1  0  0  0
 33 66  1  0  0  0
 33 70  2  0  0  0
 34 36  1  0  0  0
 34 59  1  0  0  0
 34105  1  0  0  0
 35 44  2  0  0  0
 35 45  1  0  0  0
 35 68  1  0  0  0
 36 56  1  0  0  0
 36106  1  0  0  0
 37 39  1  0  0  0
 37 47  1  0  0  0
 37 66  1  0  0  0
 37107  1  0  0  0
 38 43  2  0  0  0
 38 46  1  0  0  0
 38 47  1  0  0  0
 39 64  1  0  0  0
 39 67  2  0  0  0
 40 52  1  0  0  0
 40 53  2  0  0  0
 40 58  1  0  0  0
 41108  1  0  0  0
 41109  1  0  0  0
 41110  1  0  0  0
 41 48  1  0  0  0
 42 43  1  0  0  0
 42 66  1  0  0  0
 42111  1  0  0  0
 42112  1  0  0  0
 43 44  1  0  0  0
 44113  1  0  0  0
 45 46  2  0  0  0
 45114  1  0  0  0
 46115  1  0  0  0
 47116  1  0  0  0
 47117  1  0  0  0
 48 56  1  0  0  0
 48 65  1  0  0  0
 48118  1  0  0  0
 49 50  1  0  0  0
 49 53  1  0  0  0
 49 64  1  0  0  0
 49119  1  0  0  0
 50 51  1  0  0  0
 50120  1  0  0  0
 50121  1  0  0  0
 51 52  1  0  0  0
 51122  1  0  0  0
 51123  1  0  0  0
 52124  1  0  0  0
 52125  1  0  0  0
 53 54  1  0  0  0
 54 55  2  0  0  0
 54126  1  0  0  0
 55 57  1  0  0  0
 55127  1  0  0  0
 56 69  2  0  0  0
 57 58  2  0  0  0
 57128  1  0  0  0
 58129  1  0  0  0
 59 60  1  0  0  0
 59 61  1  0  0  0
 59 62  1  0  0  0
 60130  1  0  0  0
 60131  1  0  0  0
 60132  1  0  0  0
 61133  1  0  0  0
 61134  1  0  0  0
 61135  1  0  0  0
 62136  1  0  0  0
 62137  1  0  0  0
 62138  1  0  0  0
 63 65  1  0  0  0
 63139  1  0  0  0
 63140  1  0  0  0
 63141  1  0  0  0
 64142  1  0  0  0
 65143  1  0  0  0
 68 77  1  0  0  0
 71 72  2  0  0  0
 71 73  1  0  0  0
 71144  1  0  0  0
 72 75  1  0  0  0
 72145  1  0  0  0
 73 76  2  0  0  0
 73146  1  0  0  0
 74 75  2  0  0  0
 74 76  1  0  0  0
 74147  1  0  0  0
 75 82  1  0  0  0
 76 83  1  0  0  0
 77 78  2  0  0  0
 77148  1  0  0  0
 78 79  1  0  0  0
 78 80  1  0  0  0
 79 82  1  0  0  0
 79 84  2  0  0  0
 80149  1  0  0  0
 80150  1  0  0  0
 80151  1  0  0  0
 81 83  1  0  0  0
 81152  1  0  0  0
 81153  1  0  0  0
 81154  1  0  0  0
 82155  1  0  0  0
M  ISO  4   1 100  68 101  77 101  83 100
M  END
> <chiral flag>
0

> <version>
0

> <s_m_source_file>
/data/baiqing/PycharmProjects/Reinvent-master-3.2/result/LINK_invent/BTK/process_docking_weight1_custom_product_contain_oxygen_bond_distance_aromatic_linkinvent_7_9_3/rearranged_h_0092.sdf

> <i_m_source_file_index>
44

> <r_mmod_Potential_Energy-OPLS-2005>
686.9345703125

> <r_mmod_Stretch_Energy-OPLS-2005>
178.657699584961

> <r_mmod_Bend_Energy-OPLS-2005>
367.691436767578

> <r_mmod_Torsional_Energy-OPLS-2005>
295.815948486328

> <r_mmod_Improper_Torsional_Energy-OPLS-2005>
6.60942029953003

> <r_mmod_Van_der_Waal_Energy-OPLS-2005>
191.250854492188

> <r_mmod_Electrostatic_Energy-OPLS-2005>
-295.947875976562

> <r_mmod_Solvation_Energy-OPLS-2005>
-216.005233764648

> <b_mmod_Minimization_Converged-OPLS-2005>
0

> <r_mmod_RMS_Derivative-OPLS-2005>
6.56142854690552

$$$$
44
                    3D
 Structure written by MMmdl.
158166  0  0  1  0            999 V2000
  -30.6820  -14.6251   20.4607 C   0  0  0  0  0  0
  -30.4276  -12.3730   19.4383 C   0  0  0  0  0  0
  -29.4929  -12.4399   18.2128 C   0  0  0  0  0  0
  -28.0162  -12.3093   18.6366 C   0  0  0  0  0  0
  -27.6397  -13.2068   19.8456 C   0  0  2  0  0  0
  -28.6996  -13.1295   20.9669 C   0  0  0  0  0  0
  -25.2525  -13.8117   20.5745 C   0  0  0  0  0  0
  -24.1797  -13.0391   20.9240 C   0  0  0  0  0  0
  -24.6364  -11.6870   20.8780 C   0  0  0  0  0  0
  -23.9037  -10.4264   21.0426 C   0  0  0  0  0  0
  -24.3598   -9.4183   21.9196 C   0  0  0  0  0  0
  -23.6275   -8.2220   22.0758 C   0  0  0  0  0  0
  -22.4256   -8.0266   21.3547 C   0  0  0  0  0  0
  -21.9892   -9.0238   20.4648 C   0  0  0  0  0  0
  -22.7219  -10.2117   20.3063 C   0  0  0  0  0  0
  -21.6842   -6.0727   22.5276 C   0  0  0  0  0  0
  -21.4006   -6.5633   23.8209 C   0  0  0  0  0  0
  -21.3658   -5.6790   24.9172 C   0  0  0  0  0  0
  -21.6045   -4.3052   24.7230 C   0  0  0  0  0  0
  -21.8818   -3.8141   23.4351 C   0  0  0  0  0  0
  -21.9189   -4.6955   22.3406 C   0  0  0  0  0  0
  -22.7827  -13.5205   21.1879 C   0  0  0  0  0  0
  -22.1659   -4.2140   21.0984 F   0  0  0  0  0  0
  -21.5634   -3.4539   25.7746 F   0  0  0  0  0  0
  -30.0029  -13.4363   20.3634 N   0  0  0  0  0  0
  -26.2935  -12.9287   20.3328 N   0  0  0  0  0  0
  -25.9291  -11.6460   20.5810 N   0  0  0  0  0  0
  -22.0463  -12.8200   22.0431 N   0  0  0  0  0  0
  -25.4187  -15.1831   20.4174 N   0  0  0  0  0  0
  -31.9000  -14.6654   20.2556 O   0  0  0  0  0  0
  -21.6622   -6.8865   21.4238 O   0  0  0  0  0  0
  -22.3533  -14.5517   20.6725 O   0  0  0  0  0  0
  -24.6224  -31.8632   23.2078 C   0  0  0  0  0  0
  -25.9093  -32.4790   23.8381 C   0  0  1  0  0  0
  -27.2220  -27.3632   20.1084 C   0  0  0  0  0  0
  -25.5929  -33.8593   24.2305 N   0  0  0  0  0  0
  -23.4127  -30.4892   21.5504 C   0  0  2  0  0  0
  -24.8571  -28.9528   20.1112 C   0  0  0  0  0  0
  -22.7453  -29.4634   22.4966 C   0  0  0  0  0  0
  -18.0280  -28.1372   22.8494 C   0  0  0  0  0  0
  -24.1488  -36.7305   23.2635 C   0  0  0  0  0  0
  -25.9502  -30.8086   21.3710 C   0  0  0  0  0  0
  -26.0249  -29.4408   20.7112 C   0  0  0  0  0  0
  -27.2119  -28.6580   20.6991 C   0  0  0  0  0  0
  -26.0312  -26.9175   19.4871 C   0  0  0  0  0  0
  -24.8596  -27.6945   19.4917 C   0  0  0  0  0  0
  -23.6242  -29.8287   20.1629 C   0  0  0  0  0  0
  -25.4108  -36.3089   24.0331 C   0  0  1  0  0  0
  -20.5878  -28.3670   23.1302 C   0  0  2  0  0  0
  -20.6771  -26.9399   22.5416 C   0  0  0  0  0  0
  -19.5746  -26.6381   21.5217 C   0  0  0  0  0  0
  -18.1924  -26.7916   22.1625 C   0  0  0  0  0  0
  -19.1532  -28.8839   23.2893 C   0  0  0  0  0  0
  -18.9453  -30.1448   23.8896 C   0  0  0  0  0  0
  -17.6454  -30.6579   24.0567 C   0  0  0  0  0  0
  -25.9046  -34.9459   23.5112 C   0  0  0  0  0  0
  -16.5347  -29.9080   23.6326 C   0  0  0  0  0  0
  -16.7268  -28.6500   23.0344 C   0  0  0  0  0  0
  -26.4496  -31.6581   25.0728 C   0  0  0  0  0  0
  -25.3746  -31.3717   26.1466 C   0  0  0  0  0  0
  -27.0328  -30.3004   24.6157 C   0  0  0  0  0  0
  -27.6059  -32.4315   25.7491 C   0  0  0  0  0  0
  -27.5580  -37.1801   24.8461 C   0  0  0  0  0  0
  -21.4173  -29.3032   22.3702 N   0  0  0  0  0  0
  -26.4288  -37.3781   23.9410 N   0  0  0  0  0  0
  -24.6804  -31.0688   22.1008 N   0  0  0  0  0  0
  -23.4191  -28.8164   23.3023 O   0  0  0  0  0  0
  -28.3512  -26.5440   20.1584 O   0  0  0  0  0  0
  -26.5610  -34.8920   22.4676 O   0  0  0  0  0  0
  -23.5400  -32.1419   23.7435 O   0  0  0  0  0  0
  -27.1275  -19.1525   22.1757 C   0  0  0  0  0  0
  -27.9124  -17.9924   22.0777 C   0  0  0  0  0  0
  -27.6047  -20.3762   21.6795 C   0  0  0  0  0  0
  -29.1819  -18.0074   21.4578 C   0  0  0  0  0  0
  -28.8822  -20.4759   21.0756 C   0  0  0  0  0  0
  -29.6720  -19.2732   20.9572 C   0  0  0  0  0  0
  -29.9338  -16.6628   21.4553 C   0  0  0  0  0  0
  -29.4969  -16.1542   19.1356 C   0  0  0  0  0  0
  -28.2060  -16.9548   18.9226 C   0  0  0  0  0  0
  -29.2927  -24.1843   20.6508 C   0  0  0  0  0  0
  -28.1170  -25.0959   20.1502 C   0  0  0  0  0  0
  -29.3579  -21.7678   20.6132 N   0  0  0  0  0  0
  -28.7524  -22.8112   20.9971 N   0  0  0  0  0  0
  -30.9259  -19.3720   20.3439 N   0  0  0  0  0  0
  -29.9418  -15.7899   20.3812 N   0  0  0  0  0  0
  -30.4741  -16.3761   22.5347 O   0  0  0  0  0  0
  -30.0665  -15.8166   18.0892 O   0  0  0  0  0  0
  -31.4668  -12.4815   19.1229 H   0  0  0  0  0  0
  -30.3615  -11.3981   19.9246 H   0  0  0  0  0  0
  -29.7460  -11.6451   17.5096 H   0  0  0  0  0  0
  -29.6426  -13.3712   17.6697 H   0  0  0  0  0  0
  -27.8463  -11.2628   18.8924 H   0  0  0  0  0  0
  -27.3624  -12.5227   17.7902 H   0  0  0  0  0  0
  -27.6220  -14.2223   19.4640 H   0  0  0  0  0  0
  -28.7172  -12.1362   21.4180 H   0  0  0  0  0  0
  -28.4651  -13.8296   21.7704 H   0  0  0  0  0  0
  -25.2744   -9.5657   22.4769 H   0  0  0  0  0  0
  -23.9982   -7.4606   22.7470 H   0  0  0  0  0  0
  -21.0827   -8.8758   19.8950 H   0  0  0  0  0  0
  -22.3682  -10.9663   19.6175 H   0  0  0  0  0  0
  -21.1992   -7.6138   23.9711 H   0  0  0  0  0  0
  -21.1484   -6.0522   25.9076 H   0  0  0  0  0  0
  -22.0600   -2.7603   23.2856 H   0  0  0  0  0  0
  -22.4061  -11.9841   22.4798 H   0  0  0  0  0  0
  -21.1092  -13.1250   22.2649 H   0  0  0  0  0  0
  -24.6418  -15.8259   20.5254 H   0  0  0  0  0  0
  -26.2464  -15.6238   20.0471 H   0  0  0  0  0  0
  -26.7158  -32.5473   23.1129 H   0  0  0  0  0  0
  -25.0066  -33.9744   25.0441 H   0  0  0  0  0  0
  -22.7038  -31.3084   21.4126 H   0  0  0  0  0  0
  -23.3738  -35.9647   23.3296 H   0  0  0  0  0  0
  -24.3584  -36.8937   22.2052 H   0  0  0  0  0  0
  -23.7260  -37.6515   23.6661 H   0  0  0  0  0  0
  -26.0751  -31.5753   20.6050 H   0  0  0  0  0  0
  -26.8337  -30.8560   21.9963 H   0  0  0  0  0  0
  -28.1097  -29.0279   21.1736 H   0  0  0  0  0  0
  -25.9795  -25.9566   18.9980 H   0  0  0  0  0  0
  -23.9637  -27.3159   19.0183 H   0  0  0  0  0  0
  -23.7414  -30.6082   19.4093 H   0  0  0  0  0  0
  -22.7444  -29.2585   19.8591 H   0  0  0  0  0  0
  -25.1284  -36.1943   25.0824 H   0  0  0  0  0  0
  -20.9968  -28.3239   24.1423 H   0  0  0  0  0  0
  -20.5677  -26.2278   23.3611 H   0  0  0  0  0  0
  -21.6641  -26.7440   22.1205 H   0  0  0  0  0  0
  -19.6909  -25.6294   21.1240 H   0  0  0  0  0  0
  -19.6678  -27.3199   20.6750 H   0  0  0  0  0  0
  -17.4200  -26.6676   21.4022 H   0  0  0  0  0  0
  -18.0315  -26.0049   22.9007 H   0  0  0  0  0  0
  -19.7929  -30.7273   24.2254 H   0  0  0  0  0  0
  -17.5007  -31.6256   24.5172 H   0  0  0  0  0  0
  -15.5347  -30.2982   23.7649 H   0  0  0  0  0  0
  -15.8668  -28.0831   22.7032 H   0  0  0  0  0  0
  -24.5905  -30.7078   25.7807 H   0  0  0  0  0  0
  -24.8946  -32.2884   26.4898 H   0  0  0  0  0  0
  -25.8077  -30.8890   27.0235 H   0  0  0  0  0  0
  -26.2885  -29.6758   24.1195 H   0  0  0  0  0  0
  -27.4052  -29.7252   25.4645 H   0  0  0  0  0  0
  -27.8748  -30.4284   23.9348 H   0  0  0  0  0  0
  -27.2664  -33.3613   26.2064 H   0  0  0  0  0  0
  -28.3862  -32.6884   25.0315 H   0  0  0  0  0  0
  -28.0730  -31.8447   26.5412 H   0  0  0  0  0  0
  -28.2585  -38.0106   24.7513 H   0  0  0  0  0  0
  -28.1089  -36.2639   24.6272 H   0  0  0  0  0  0
  -27.2306  -37.1445   25.8868 H   0  0  0  0  0  0
  -20.9345  -29.8767   21.6930 H   0  0  0  0  0  0
  -26.0167  -38.2855   24.1412 H   0  0  0  0  0  0
  -26.1534  -19.1063   22.6442 H   0  0  0  0  0  0
  -27.5220  -17.0662   22.4788 H   0  0  0  0  0  0
  -26.9675  -21.2436   21.7805 H   0  0  0  0  0  0
  -27.4869  -16.8042   19.7223 H   0  0  0  0  0  0
  -27.7226  -16.6331   17.9999 H   0  0  0  0  0  0
  -28.4176  -18.0182   18.8188 H   0  0  0  0  0  0
  -29.7037  -24.6246   21.5591 H   0  0  0  0  0  0
  -30.1051  -24.1258   19.9252 H   0  0  0  0  0  0
  -27.2515  -24.8898   20.7835 H   0  0  0  0  0  0
  -27.8507  -24.7809   19.1406 H   0  0  0  0  0  0
  -31.6913  -18.8290   20.7292 H   0  0  0  0  0  0
  -31.2322  -20.3183   20.1380 H   0  0  0  0  0  0
  1 25  1  0  0  0
  1 30  2  0  0  0
  1 85  1  0  0  0
  2  3  1  0  0  0
  2 25  1  0  0  0
  2 88  1  0  0  0
  2 89  1  0  0  0
  3  4  1  0  0  0
  3 90  1  0  0  0
  3 91  1  0  0  0
  4  5  1  0  0  0
  4 92  1  0  0  0
  4 93  1  0  0  0
  5  6  1  0  0  0
  5 26  1  0  0  0
  5 94  1  0  0  0
  6 25  1  0  0  0
  6 95  1  0  0  0
  6 96  1  0  0  0
  7  8  2  0  0  0
  7 26  1  0  0  0
  7 29  1  0  0  0
  8  9  1  0  0  0
  8 22  1  0  0  0
  9 10  1  0  0  0
  9 27  2  0  0  0
 10 11  2  0  0  0
 10 15  1  0  0  0
 11 12  1  0  0  0
 11 97  1  0  0  0
 12 13  2  0  0  0
 12 98  1  0  0  0
 13 14  1  0  0  0
 13 31  1  0  0  0
 14 15  2  0  0  0
 14 99  1  0  0  0
 15100  1  0  0  0
 16 17  2  0  0  0
 16 21  1  0  0  0
 16 31  1  0  0  0
 17 18  1  0  0  0
 17101  1  0  0  0
 18 19  2  0  0  0
 18102  1  0  0  0
 19 20  1  0  0  0
 19 24  1  0  0  0
 20 21  2  0  0  0
 20103  1  0  0  0
 21 23  1  0  0  0
 22 28  1  0  0  0
 22 32  2  0  0  0
 26 27  1  0  0  0
 28104  1  0  0  0
 28105  1  0  0  0
 29106  1  0  0  0
 29107  1  0  0  0
 33 34  1  0  0  0
 33 66  1  0  0  0
 33 70  2  0  0  0
 34 36  1  0  0  0
 34 59  1  0  0  0
 34108  1  0  0  0
 35 44  2  0  0  0
 35 45  1  0  0  0
 35 68  1  0  0  0
 36 56  1  0  0  0
 36109  1  0  0  0
 37 39  1  0  0  0
 37 47  1  0  0  0
 37 66  1  0  0  0
 37110  1  0  0  0
 38 43  2  0  0  0
 38 46  1  0  0  0
 38 47  1  0  0  0
 39 64  1  0  0  0
 39 67  2  0  0  0
 40 52  1  0  0  0
 40 53  2  0  0  0
 40 58  1  0  0  0
 41111  1  0  0  0
 41112  1  0  0  0
 41113  1  0  0  0
 41 48  1  0  0  0
 42 43  1  0  0  0
 42 66  1  0  0  0
 42114  1  0  0  0
 42115  1  0  0  0
 43 44  1  0  0  0
 44116  1  0  0  0
 45 46  2  0  0  0
 45117  1  0  0  0
 46118  1  0  0  0
 47119  1  0  0  0
 47120  1  0  0  0
 48 56  1  0  0  0
 48 65  1  0  0  0
 48121  1  0  0  0
 49 50  1  0  0  0
 49 53  1  0  0  0
 49 64  1  0  0  0
 49122  1  0  0  0
 50 51  1  0  0  0
 50123  1  0  0  0
 50124  1  0  0  0
 51 52  1  0  0  0
 51125  1  0  0  0
 51126  1  0  0  0
 52127  1  0  0  0
 52128  1  0  0  0
 53 54  1  0  0  0
 54 55  2  0  0  0
 54129  1  0  0  0
 55 57  1  0  0  0
 55130  1  0  0  0
 56 69  2  0  0  0
 57 58  2  0  0  0
 57131  1  0  0  0
 58132  1  0  0  0
 59 60  1  0  0  0
 59 61  1  0  0  0
 59 62  1  0  0  0
 60133  1  0  0  0
 60134  1  0  0  0
 60135  1  0  0  0
 61136  1  0  0  0
 61137  1  0  0  0
 61138  1  0  0  0
 62139  1  0  0  0
 62140  1  0  0  0
 62141  1  0  0  0
 63 65  1  0  0  0
 63142  1  0  0  0
 63143  1  0  0  0
 63144  1  0  0  0
 64145  1  0  0  0
 65146  1  0  0  0
 68 81  1  0  0  0
 71 72  2  0  0  0
 71 73  1  0  0  0
 71147  1  0  0  0
 72 74  1  0  0  0
 72148  1  0  0  0
 73 75  2  0  0  0
 73149  1  0  0  0
 74 76  2  0  0  0
 74 77  1  0  0  0
 75 76  1  0  0  0
 75 82  1  0  0  0
 76 84  1  0  0  0
 77 85  1  0  0  0
 77 86  2  0  0  0
 78 79  1  0  0  0
 78 85  1  0  0  0
 78 87  2  0  0  0
 79150  1  0  0  0
 79151  1  0  0  0
 79152  1  0  0  0
 80 81  1  0  0  0
 80 83  1  0  0  0
 80153  1  0  0  0
 80154  1  0  0  0
 81155  1  0  0  0
 81156  1  0  0  0
 82 83  2  0  0  0
 84157  1  0  0  0
 84158  1  0  0  0
M  ISO  4   1 100  68 101  81 101  85 100
M  END
> <chiral flag>
0

> <version>
0

> <s_m_source_file>
/data/baiqing/PycharmProjects/Reinvent-master-3.2/result/LINK_invent/BTK/process_docking_weight1_custom_product_contain_oxygen_bond_distance_aromatic_linkinvent_7_9_3/rearranged_h_0092.sdf

> <i_m_source_file_index>
45

> <r_mmod_Potential_Energy-OPLS-2005>
220.521820068359

> <r_mmod_Stretch_Energy-OPLS-2005>
75.1497650146484

> <r_mmod_Bend_Energy-OPLS-2005>
135.031204223633

> <r_mmod_Torsional_Energy-OPLS-2005>
331.979888916016

> <r_mmod_Improper_Torsional_Energy-OPLS-2005>
17.0799770355225

> <r_mmod_Van_der_Waal_Energy-OPLS-2005>
175.794723510742

> <r_mmod_Electrostatic_Energy-OPLS-2005>
-346.663818359375

> <r_mmod_Solvation_Energy-OPLS-2005>
-215.838073730469

> <b_mmod_Minimization_Converged-OPLS-2005>
0

> <r_mmod_RMS_Derivative-OPLS-2005>
1.02272474765778

$$$$
45
                    3D
 Structure written by MMmdl.
166175  0  0  1  0            999 V2000
  -30.6652  -14.5638   20.4773 C   0  0  0  0  0  0
  -30.4220  -12.3349   19.4533 C   0  0  0  0  0  0
  -29.4995  -12.5013   18.2262 C   0  0  0  0  0  0
  -28.0230  -12.3465   18.6395 C   0  0  0  0  0  0
  -27.6549  -13.2063   19.8764 C   0  0  2  0  0  0
  -28.7028  -13.0557   21.0046 C   0  0  0  0  0  0
  -25.2542  -13.8148   20.5706 C   0  0  0  0  0  0
  -24.1807  -13.0426   20.9214 C   0  0  0  0  0  0
  -24.6375  -11.6899   20.8772 C   0  0  0  0  0  0
  -23.9050  -10.4286   21.0412 C   0  0  0  0  0  0
  -24.3599   -9.4199   21.9189 C   0  0  0  0  0  0
  -23.6271   -8.2236   22.0739 C   0  0  0  0  0  0
  -22.4246   -8.0282   21.3541 C   0  0  0  0  0  0
  -21.9894   -9.0259   20.4645 C   0  0  0  0  0  0
  -22.7223  -10.2136   20.3055 C   0  0  0  0  0  0
  -21.6853   -6.0730   22.5282 C   0  0  0  0  0  0
  -21.4018   -6.5633   23.8215 C   0  0  0  0  0  0
  -21.3658   -5.6781   24.9176 C   0  0  0  0  0  0
  -21.6046   -4.3043   24.7216 C   0  0  0  0  0  0
  -21.8818   -3.8145   23.4338 C   0  0  0  0  0  0
  -21.9186   -4.6967   22.3394 C   0  0  0  0  0  0
  -22.7833  -13.5214   21.1883 C   0  0  0  0  0  0
  -22.1652   -4.2161   21.0972 F   0  0  0  0  0  0
  -21.5639   -3.4511   25.7719 F   0  0  0  0  0  0
  -30.0284  -13.3566   20.4405 N   0  0  0  0  0  0
  -26.2992  -12.9318   20.3405 N   0  0  0  0  0  0
  -25.9310  -11.6485   20.5820 N   0  0  0  0  0  0
  -22.0477  -12.8198   22.0441 N   0  0  0  0  0  0
  -25.4235  -15.1856   20.4087 N   0  0  0  0  0  0
  -31.8367  -14.6885   20.1157 O   0  0  0  0  0  0
  -21.6626   -6.8873   21.4230 O   0  0  0  0  0  0
  -22.3528  -14.5530   20.6736 O   0  0  0  0  0  0
  -24.6205  -31.8673   23.2106 C   0  0  0  0  0  0
  -25.9077  -32.4827   23.8412 C   0  0  1  0  0  0
  -27.2183  -27.3711   20.1014 C   0  0  0  0  0  0
  -25.5928  -33.8628   24.2350 N   0  0  0  0  0  0
  -23.4107  -30.4946   21.5541 C   0  0  2  0  0  0
  -24.8550  -28.9675   20.1100 C   0  0  0  0  0  0
  -22.7454  -29.4660   22.4988 C   0  0  0  0  0  0
  -18.0282  -28.1379   22.8486 C   0  0  0  0  0  0
  -24.1493  -36.7314   23.2637 C   0  0  0  0  0  0
  -25.9490  -30.8141   21.3747 C   0  0  0  0  0  0
  -26.0228  -29.4455   20.7185 C   0  0  0  0  0  0
  -27.2063  -28.6564   20.7131 C   0  0  0  0  0  0
  -26.0260  -26.9485   19.4577 C   0  0  0  0  0  0
  -24.8566  -27.7219   19.4724 C   0  0  0  0  0  0
  -23.6210  -29.8398   20.1652 C   0  0  0  0  0  0
  -25.4111  -36.3122   24.0347 C   0  0  1  0  0  0
  -20.5875  -28.3681   23.1317 C   0  0  2  0  0  0
  -20.6781  -26.9413   22.5429 C   0  0  0  0  0  0
  -19.5761  -26.6384   21.5229 C   0  0  0  0  0  0
  -18.1931  -26.7929   22.1615 C   0  0  0  0  0  0
  -19.1530  -28.8845   23.2899 C   0  0  0  0  0  0
  -18.9452  -30.1453   23.8904 C   0  0  0  0  0  0
  -17.6451  -30.6583   24.0563 C   0  0  0  0  0  0
  -25.9040  -34.9483   23.5144 C   0  0  0  0  0  0
  -16.5343  -29.9078   23.6331 C   0  0  0  0  0  0
  -16.7267  -28.6499   23.0340 C   0  0  0  0  0  0
  -26.4470  -31.6591   25.0741 C   0  0  0  0  0  0
  -25.3730  -31.3696   26.1486 C   0  0  0  0  0  0
  -27.0288  -30.3027   24.6120 C   0  0  0  0  0  0
  -27.6055  -32.4298   25.7494 C   0  0  0  0  0  0
  -27.5597  -37.1818   24.8462 C   0  0  0  0  0  0
  -21.4170  -29.3047   22.3728 N   0  0  0  0  0  0
  -26.4300  -37.3807   23.9418 N   0  0  0  0  0  0
  -24.6792  -31.0733   22.1040 N   0  0  0  0  0  0
  -23.4210  -28.8193   23.3037 O   0  0  0  0  0  0
  -28.3368  -26.5327   20.1656 O   0  0  0  0  0  0
  -26.5586  -34.8926   22.4698 O   0  0  0  0  0  0
  -23.5383  -32.1451   23.7465 O   0  0  0  0  0  0
  -30.5034  -24.1936   20.4147 C   0  0  0  0  0  0
  -29.7866  -19.5871   20.3950 C   0  0  0  0  0  0
  -29.0893  -24.0473   20.3416 C   0  0  0  0  0  0
  -30.1745  -18.2522   20.8365 C   0  0  0  0  0  0
  -30.9377  -18.3456   21.9915 C   0  0  0  0  0  0
  -28.8264  -22.7138   20.6352 C   0  0  0  0  0  0
  -31.0329  -22.9717   20.7238 C   0  0  0  0  0  0
  -30.2308  -20.6315   21.1773 C   0  0  0  0  0  0
  -32.5560  -17.4418   23.6890 C   0  0  0  0  0  0
  -31.6283  -17.3218   22.7243 C   0  0  0  0  0  0
  -27.5089  -21.9999   20.7301 C   0  0  0  0  0  0
  -30.6633  -17.0181   18.7145 C   0  0  0  0  0  0
  -28.3384  -17.1114   19.5485 C   0  0  0  0  0  0
  -28.0582  -25.1162   19.9378 C   0  0  0  0  0  0
  -29.8114  -16.9886   20.0051 C   0  0  0  0  0  0
  -30.0285  -22.0247   20.8568 N   0  0  0  0  0  0
  -29.8533  -15.6414   20.6745 N   0  0  0  0  0  0
  -32.3393  -22.6316   20.8789 O   0  0  0  0  0  0
  -31.1379  -20.0119   22.5225 S   0  0  0  0  0  0
  -31.4698  -12.4170   19.1599 H   0  0  0  0  0  0
  -30.3093  -11.3362   19.8786 H   0  0  0  0  0  0
  -29.7532  -11.7697   17.4579 H   0  0  0  0  0  0
  -29.6562  -13.4857   17.7810 H   0  0  0  0  0  0
  -27.8529  -11.2931   18.8623 H   0  0  0  0  0  0
  -27.3636  -12.5903   17.8053 H   0  0  0  0  0  0
  -27.6726  -14.2380   19.5426 H   0  0  0  0  0  0
  -28.6910  -12.0418   21.4066 H   0  0  0  0  0  0
  -28.4662  -13.7118   21.8440 H   0  0  0  0  0  0
  -25.2742   -9.5650   22.4781 H   0  0  0  0  0  0
  -23.9973   -7.4604   22.7434 H   0  0  0  0  0  0
  -21.0831   -8.8771   19.8947 H   0  0  0  0  0  0
  -22.3675  -10.9678   19.6158 H   0  0  0  0  0  0
  -21.2019   -7.6150   23.9714 H   0  0  0  0  0  0
  -21.1481   -6.0521   25.9080 H   0  0  0  0  0  0
  -22.0598   -2.7610   23.2830 H   0  0  0  0  0  0
  -22.4053  -11.9807   22.4752 H   0  0  0  0  0  0
  -21.1132  -13.1275   22.2737 H   0  0  0  0  0  0
  -24.6529  -15.8379   20.5043 H   0  0  0  0  0  0
  -26.2693  -15.6210   20.0672 H   0  0  0  0  0  0
  -26.7155  -32.5516   23.1181 H   0  0  0  0  0  0
  -25.0131  -33.9791   25.0531 H   0  0  0  0  0  0
  -22.7003  -31.3132   21.4195 H   0  0  0  0  0  0
  -23.3767  -35.9635   23.3288 H   0  0  0  0  0  0
  -24.3600  -36.8931   22.2054 H   0  0  0  0  0  0
  -23.7221  -37.6512   23.6641 H   0  0  0  0  0  0
  -26.0690  -31.5778   20.6041 H   0  0  0  0  0  0
  -26.8343  -30.8668   21.9960 H   0  0  0  0  0  0
  -28.0967  -29.0138   21.2118 H   0  0  0  0  0  0
  -25.9519  -26.0063   18.9362 H   0  0  0  0  0  0
  -23.9647  -27.3541   18.9833 H   0  0  0  0  0  0
  -23.7319  -30.6210   19.4117 H   0  0  0  0  0  0
  -22.7417  -29.2668   19.8642 H   0  0  0  0  0  0
  -25.1283  -36.2001   25.0842 H   0  0  0  0  0  0
  -20.9956  -28.3247   24.1441 H   0  0  0  0  0  0
  -20.5707  -26.2286   23.3624 H   0  0  0  0  0  0
  -21.6650  -26.7475   22.1205 H   0  0  0  0  0  0
  -19.6929  -25.6298   21.1259 H   0  0  0  0  0  0
  -19.6709  -27.3198   20.6762 H   0  0  0  0  0  0
  -17.4223  -26.6706   21.3992 H   0  0  0  0  0  0
  -18.0296  -26.0058   22.8990 H   0  0  0  0  0  0
  -19.7921  -30.7274   24.2271 H   0  0  0  0  0  0
  -17.4995  -31.6250   24.5173 H   0  0  0  0  0  0
  -15.5340  -30.2977   23.7644 H   0  0  0  0  0  0
  -15.8666  -28.0821   22.7044 H   0  0  0  0  0  0
  -24.5934  -30.6998   25.7834 H   0  0  0  0  0  0
  -24.8873  -32.2841   26.4900 H   0  0  0  0  0  0
  -25.8085  -30.8909   27.0267 H   0  0  0  0  0  0
  -26.2827  -29.6811   24.1150 H   0  0  0  0  0  0
  -27.4029  -29.7231   25.4569 H   0  0  0  0  0  0
  -27.8680  -30.4336   23.9287 H   0  0  0  0  0  0
  -27.2692  -33.3607   26.2067 H   0  0  0  0  0  0
  -28.3851  -32.6841   25.0302 H   0  0  0  0  0  0
  -28.0726  -31.8419   26.5406 H   0  0  0  0  0  0
  -28.2605  -38.0125   24.7533 H   0  0  0  0  0  0
  -28.1104  -36.2665   24.6252 H   0  0  0  0  0  0
  -27.2328  -37.1418   25.8867 H   0  0  0  0  0  0
  -20.9342  -29.8785   21.6954 H   0  0  0  0  0  0
  -26.0199  -38.2894   24.1405 H   0  0  0  0  0  0
  -31.0648  -25.0996   20.2367 H   0  0  0  0  0  0
  -29.2252  -19.7488   19.4878 H   0  0  0  0  0  0
  -32.9841  -16.5616   24.1485 H   0  0  0  0  0  0
  -32.9127  -18.3998   24.0395 H   0  0  0  0  0  0
  -31.3694  -16.3057   22.4877 H   0  0  0  0  0  0
  -26.6890  -22.6895   20.9259 H   0  0  0  0  0  0
  -27.5052  -21.2750   21.5441 H   0  0  0  0  0  0
  -27.2808  -21.4683   19.8072 H   0  0  0  0  0  0
  -30.4825  -17.9255   18.1378 H   0  0  0  0  0  0
  -30.4377  -16.1775   18.0570 H   0  0  0  0  0  0
  -31.7318  -16.9979   18.9356 H   0  0  0  0  0  0
  -28.1443  -17.9992   18.9496 H   0  0  0  0  0  0
  -27.6606  -17.1414   20.4033 H   0  0  0  0  0  0
  -28.0453  -16.2811   18.9090 H   0  0  0  0  0  0
  -27.1430  -24.8487   20.4662 H   0  0  0  0  0  0
  -27.8800  -24.9699   18.8709 H   0  0  0  0  0  0
  -28.9734  -15.3819   21.0892 H   0  0  0  0  0  0
  -32.8592  -23.4222   20.7702 H   0  0  0  0  0  0
  1 25  1  0  0  0
  1 30  2  0  0  0
  1 87  1  0  0  0
  2  3  1  0  0  0
  2 25  1  0  0  0
  2 90  1  0  0  0
  2 91  1  0  0  0
  3  4  1  0  0  0
  3 92  1  0  0  0
  3 93  1  0  0  0
  4  5  1  0  0  0
  4 94  1  0  0  0
  4 95  1  0  0  0
  5  6  1  0  0  0
  5 26  1  0  0  0
  5 96  1  0  0  0
  6 25  1  0  0  0
  6 97  1  0  0  0
  6 98  1  0  0  0
  7  8  2  0  0  0
  7 26  1  0  0  0
  7 29  1  0  0  0
  8  9  1  0  0  0
  8 22  1  0  0  0
  9 10  1  0  0  0
  9 27  2  0  0  0
 10 11  2  0  0  0
 10 15  1  0  0  0
 11 12  1  0  0  0
 11 99  1  0  0  0
 12 13  2  0  0  0
 12100  1  0  0  0
 13 14  1  0  0  0
 13 31  1  0  0  0
 14 15  2  0  0  0
 14101  1  0  0  0
 15102  1  0  0  0
 16 17  2  0  0  0
 16 21  1  0  0  0
 16 31  1  0  0  0
 17 18  1  0  0  0
 17103  1  0  0  0
 18 19  2  0  0  0
 18104  1  0  0  0
 19 20  1  0  0  0
 19 24  1  0  0  0
 20 21  2  0  0  0
 20105  1  0  0  0
 21 23  1  0  0  0
 22 28  1  0  0  0
 22 32  2  0  0  0
 26 27  1  0  0  0
 28106  1  0  0  0
 28107  1  0  0  0
 29108  1  0  0  0
 29109  1  0  0  0
 33 34  1  0  0  0
 33 66  1  0  0  0
 33 70  2  0  0  0
 34 36  1  0  0  0
 34 59  1  0  0  0
 34110  1  0  0  0
 35 44  2  0  0  0
 35 45  1  0  0  0
 35 68  1  0  0  0
 36 56  1  0  0  0
 36111  1  0  0  0
 37 39  1  0  0  0
 37 47  1  0  0  0
 37 66  1  0  0  0
 37112  1  0  0  0
 38 43  2  0  0  0
 38 46  1  0  0  0
 38 47  1  0  0  0
 39 64  1  0  0  0
 39 67  2  0  0  0
 40 52  1  0  0  0
 40 53  2  0  0  0
 40 58  1  0  0  0
 41113  1  0  0  0
 41114  1  0  0  0
 41115  1  0  0  0
 41 48  1  0  0  0
 42 43  1  0  0  0
 42 66  1  0  0  0
 42116  1  0  0  0
 42117  1  0  0  0
 43 44  1  0  0  0
 44118  1  0  0  0
 45 46  2  0  0  0
 45119  1  0  0  0
 46120  1  0  0  0
 47121  1  0  0  0
 47122  1  0  0  0
 48 56  1  0  0  0
 48 65  1  0  0  0
 48123  1  0  0  0
 49 50  1  0  0  0
 49 53  1  0  0  0
 49 64  1  0  0  0
 49124  1  0  0  0
 50 51  1  0  0  0
 50125  1  0  0  0
 50126  1  0  0  0
 51 52  1  0  0  0
 51127  1  0  0  0
 51128  1  0  0  0
 52129  1  0  0  0
 52130  1  0  0  0
 53 54  1  0  0  0
 54 55  2  0  0  0
 54131  1  0  0  0
 55 57  1  0  0  0
 55132  1  0  0  0
 56 69  2  0  0  0
 57 58  2  0  0  0
 57133  1  0  0  0
 58134  1  0  0  0
 59 60  1  0  0  0
 59 61  1  0  0  0
 59 62  1  0  0  0
 60135  1  0  0  0
 60136  1  0  0  0
 60137  1  0  0  0
 61138  1  0  0  0
 61139  1  0  0  0
 61140  1  0  0  0
 62141  1  0  0  0
 62142  1  0  0  0
 62143  1  0  0  0
 63 65  1  0  0  0
 63144  1  0  0  0
 63145  1  0  0  0
 63146  1  0  0  0
 64147  1  0  0  0
 65148  1  0  0  0
 68 84  1  0  0  0
 71 73  1  0  0  0
 71 77  2  0  0  0
 71149  1  0  0  0
 72 74  1  0  0  0
 72 78  2  0  0  0
 72150  1  0  0  0
 73 76  2  0  0  0
 73 84  1  0  0  0
 74 75  2  0  0  0
 74 85  1  0  0  0
 75 80  1  0  0  0
 75 89  1  0  0  0
 76 81  1  0  0  0
 76 86  1  0  0  0
 77 86  1  0  0  0
 77 88  1  0  0  0
 78 86  1  0  0  0
 78 89  1  0  0  0
 79 80  2  0  0  0
 79151  1  0  0  0
 79152  1  0  0  0
 80153  1  0  0  0
 81154  1  0  0  0
 81155  1  0  0  0
 81156  1  0  0  0
 82157  1  0  0  0
 82158  1  0  0  0
 82159  1  0  0  0
 82 85  1  0  0  0
 83 85  1  0  0  0
 83160  1  0  0  0
 83161  1  0  0  0
 83162  1  0  0  0
 84163  1  0  0  0
 84164  1  0  0  0
 85 87  1  0  0  0
 87165  1  0  0  0
 88166  1  0  0  0
M  ISO  4   1 100  68 101  84 101  87 100
M  END
> <chiral flag>
0

> <version>
0

> <s_m_source_file>
/data/baiqing/PycharmProjects/Reinvent-master-3.2/result/LINK_invent/BTK/process_docking_weight1_custom_product_contain_oxygen_bond_distance_aromatic_linkinvent_7_9_3/rearranged_h_0092.sdf

> <i_m_source_file_index>
46

> <r_mmod_Potential_Energy-OPLS-2005>
-16.270679473877

> <r_mmod_Stretch_Energy-OPLS-2005>
59.4301681518555

> <r_mmod_Bend_Energy-OPLS-2005>
137.748260498047

> <r_mmod_Torsional_Energy-OPLS-2005>
231.68913269043

> <r_mmod_Improper_Torsional_Energy-OPLS-2005>
8.65965270996094

> <r_mmod_Van_der_Waal_Energy-OPLS-2005>
136.107147216797

> <r_mmod_Electrostatic_Energy-OPLS-2005>
-395.622802734375

> <r_mmod_Solvation_Energy-OPLS-2005>
-226.881500244141

> <b_mmod_Minimization_Converged-OPLS-2005>
0

> <r_mmod_RMS_Derivative-OPLS-2005>
2.45708751678467

$$$$
46
                    3D
 Structure written by MMmdl.
160169  0  0  1  0            999 V2000
  -30.6310  -14.6707   20.5992 C   0  0  0  0  0  0
  -30.4276  -12.4406   19.4647 C   0  0  0  0  0  0
  -29.5062  -12.5485   18.2302 C   0  0  0  0  0  0
  -28.0318  -12.3612   18.6347 C   0  0  0  0  0  0
  -27.6468  -13.2245   19.8629 C   0  0  2  0  0  0
  -28.6789  -13.0847   20.9988 C   0  0  0  0  0  0
  -25.2528  -13.8186   20.5652 C   0  0  0  0  0  0
  -24.1814  -13.0437   20.9156 C   0  0  0  0  0  0
  -24.6416  -11.6913   20.8736 C   0  0  0  0  0  0
  -23.9085  -10.4300   21.0438 C   0  0  0  0  0  0
  -24.3626   -9.4222   21.9236 C   0  0  0  0  0  0
  -23.6300   -8.2253   22.0774 C   0  0  0  0  0  0
  -22.4290   -8.0294   21.3542 C   0  0  0  0  0  0
  -21.9920   -9.0272   20.4656 C   0  0  0  0  0  0
  -22.7254  -10.2158   20.3088 C   0  0  0  0  0  0
  -21.6850   -6.0741   22.5266 C   0  0  0  0  0  0
  -21.3990   -6.5636   23.8198 C   0  0  0  0  0  0
  -21.3673   -5.6798   24.9167 C   0  0  0  0  0  0
  -21.6052   -4.3053   24.7220 C   0  0  0  0  0  0
  -21.8813   -3.8148   23.4328 C   0  0  0  0  0  0
  -21.9189   -4.6967   22.3394 C   0  0  0  0  0  0
  -22.7862  -13.5230   21.1842 C   0  0  0  0  0  0
  -22.1667   -4.2157   21.0977 F   0  0  0  0  0  0
  -21.5650   -3.4546   25.7738 F   0  0  0  0  0  0
  -29.9958  -13.4538   20.4579 N   0  0  0  0  0  0
  -26.2953  -12.9368   20.3280 N   0  0  0  0  0  0
  -25.9338  -11.6509   20.5721 N   0  0  0  0  0  0
  -22.0510  -12.8232   22.0402 N   0  0  0  0  0  0
  -25.4244  -15.1910   20.4082 N   0  0  0  0  0  0
  -31.7166  -14.8693   20.0428 O   0  0  0  0  0  0
  -21.6630   -6.8903   21.4236 O   0  0  0  0  0  0
  -22.3565  -14.5571   20.6744 O   0  0  0  0  0  0
  -24.6328  -31.8502   23.1963 C   0  0  0  0  0  0
  -25.9159  -32.4725   23.8307 C   0  0  1  0  0  0
  -27.2317  -27.2789   20.1230 C   0  0  0  0  0  0
  -25.5945  -33.8526   24.2245 N   0  0  0  0  0  0
  -23.4284  -30.4717   21.5366 C   0  0  2  0  0  0
  -24.8769  -28.9157   20.1046 C   0  0  0  0  0  0
  -22.7498  -29.4579   22.4896 C   0  0  0  0  0  0
  -18.0297  -28.1396   22.8491 C   0  0  0  0  0  0
  -24.1470  -36.7260   23.2644 C   0  0  0  0  0  0
  -25.9709  -30.7681   21.3718 C   0  0  0  0  0  0
  -26.0422  -29.3910   20.7182 C   0  0  0  0  0  0
  -27.2180  -28.5809   20.7204 C   0  0  0  0  0  0
  -26.0419  -26.8584   19.4876 C   0  0  0  0  0  0
  -24.8817  -27.6588   19.4782 C   0  0  0  0  0  0
  -23.6454  -29.7977   20.1540 C   0  0  0  0  0  0
  -25.4096  -36.3043   24.0339 C   0  0  1  0  0  0
  -20.5895  -28.3700   23.1249 C   0  0  2  0  0  0
  -20.6777  -26.9411   22.5402 C   0  0  0  0  0  0
  -19.5741  -26.6386   21.5208 C   0  0  0  0  0  0
  -18.1918  -26.7948   22.1618 C   0  0  0  0  0  0
  -19.1549  -28.8871   23.2875 C   0  0  0  0  0  0
  -18.9478  -30.1464   23.8910 C   0  0  0  0  0  0
  -17.6474  -30.6594   24.0579 C   0  0  0  0  0  0
  -25.9056  -34.9420   23.5101 C   0  0  0  0  0  0
  -16.5361  -29.9091   23.6343 C   0  0  0  0  0  0
  -16.7284  -28.6501   23.0375 C   0  0  0  0  0  0
  -26.4546  -31.6560   25.0702 C   0  0  0  0  0  0
  -25.3782  -31.3644   26.1423 C   0  0  0  0  0  0
  -27.0438  -30.2998   24.6172 C   0  0  0  0  0  0
  -27.6091  -32.4316   25.7490 C   0  0  0  0  0  0
  -27.5562  -37.1777   24.8478 C   0  0  0  0  0  0
  -21.4205  -29.3045   22.3654 N   0  0  0  0  0  0
  -26.4261  -37.3750   23.9438 N   0  0  0  0  0  0
  -24.6961  -31.0477   22.0927 N   0  0  0  0  0  0
  -23.4196  -28.8124   23.3003 O   0  0  0  0  0  0
  -28.3577  -26.4392   20.2237 O   0  0  0  0  0  0
  -26.5621  -34.8908   22.4666 O   0  0  0  0  0  0
  -23.5477  -32.1334   23.7263 O   0  0  0  0  0  0
  -28.5854  -19.1737   21.8655 C   0  0  0  0  0  0
  -29.9850  -17.7704   19.9292 C   0  0  0  0  0  0
  -28.9885  -19.9494   20.7411 C   0  0  0  0  0  0
  -29.6481  -17.0363   21.1068 C   0  0  0  0  0  0
  -29.6540  -19.1710   19.7248 C   0  0  0  0  0  0
  -28.8702  -17.7924   22.0364 C   0  0  0  0  0  0
  -27.6607  -23.4558   21.3900 C   0  0  0  0  0  0
  -28.3915  -23.7480   20.3169 C   0  0  0  0  0  0
  -29.0682  -22.4776   19.9244 C   0  0  0  0  0  0
  -27.7634  -21.9920   21.7510 C   0  0  0  0  0  0
  -30.3037  -15.3526   22.8528 C   0  0  0  0  0  0
  -30.5916  -19.0954   17.4947 C   0  0  0  0  0  0
  -28.4928  -25.1230   19.5366 C   0  0  0  0  0  0
  -28.6474  -21.4165   20.7172 N   0  0  0  0  0  0
  -30.0661  -15.6330   21.4238 N   0  0  0  0  0  0
  -29.9265  -22.4115   19.0408 O   0  0  0  0  0  0
  -29.9311  -19.8045   18.5355 O   0  0  0  0  0  0
  -28.3590  -17.2030   23.1423 F   0  0  0  0  0  0
  -31.4680  -12.5778   19.1688 H   0  0  0  0  0  0
  -30.3691  -11.4379   19.8952 H   0  0  0  0  0  0
  -29.7869  -11.8155   17.4733 H   0  0  0  0  0  0
  -29.6313  -13.5260   17.7649 H   0  0  0  0  0  0
  -27.8835  -11.3032   18.8588 H   0  0  0  0  0  0
  -27.3803  -12.5952   17.7922 H   0  0  0  0  0  0
  -27.6625  -14.2644   19.5315 H   0  0  0  0  0  0
  -28.7048  -12.0615   21.3788 H   0  0  0  0  0  0
  -28.3738  -13.7067   21.8384 H   0  0  0  0  0  0
  -25.2763   -9.5684   22.4833 H   0  0  0  0  0  0
  -24.0003   -7.4625   22.7468 H   0  0  0  0  0  0
  -21.0852   -8.8788   19.8951 H   0  0  0  0  0  0
  -22.3722  -10.9697   19.6196 H   0  0  0  0  0  0
  -21.1957   -7.6142   23.9707 H   0  0  0  0  0  0
  -21.1516   -6.0527   25.9075 H   0  0  0  0  0  0
  -22.0589   -2.7610   23.2831 H   0  0  0  0  0  0
  -22.4089  -11.9826   22.4698 H   0  0  0  0  0  0
  -21.1185  -13.1341   22.2704 H   0  0  0  0  0  0
  -24.6621  -15.8521   20.5098 H   0  0  0  0  0  0
  -26.2897  -15.6295   20.1218 H   0  0  0  0  0  0
  -26.7230  -32.5357   23.1053 H   0  0  0  0  0  0
  -25.0115  -33.9649   25.0409 H   0  0  0  0  0  0
  -22.7273  -31.2957   21.3837 H   0  0  0  0  0  0
  -23.3746  -35.9581   23.3291 H   0  0  0  0  0  0
  -24.3559  -36.8902   22.2061 H   0  0  0  0  0  0
  -23.7216  -37.6445   23.6697 H   0  0  0  0  0  0
  -26.1040  -31.5222   20.5941 H   0  0  0  0  0  0
  -26.8515  -30.8209   22.0005 H   0  0  0  0  0  0
  -28.1102  -28.9330   21.2192 H   0  0  0  0  0  0
  -25.9705  -25.8846   19.0280 H   0  0  0  0  0  0
  -23.9878  -27.2895   18.9942 H   0  0  0  0  0  0
  -23.7677  -30.5662   19.3904 H   0  0  0  0  0  0
  -22.7667  -29.2252   19.8515 H   0  0  0  0  0  0
  -25.1274  -36.1871   25.0830 H   0  0  0  0  0  0
  -21.0003  -28.3291   24.1360 H   0  0  0  0  0  0
  -20.5646  -26.2315   23.3618 H   0  0  0  0  0  0
  -21.6648  -26.7403   22.1207 H   0  0  0  0  0  0
  -19.6884  -25.6288   21.1254 H   0  0  0  0  0  0
  -19.6663  -27.3206   20.6745 H   0  0  0  0  0  0
  -17.4176  -26.6716   21.4021 H   0  0  0  0  0  0
  -18.0301  -26.0076   22.8986 H   0  0  0  0  0  0
  -19.7950  -30.7289   24.2270 H   0  0  0  0  0  0
  -17.5019  -31.6276   24.5168 H   0  0  0  0  0  0
  -15.5363  -30.3002   23.7636 H   0  0  0  0  0  0
  -15.8686  -28.0814   22.7108 H   0  0  0  0  0  0
  -24.6010  -30.6937   25.7736 H   0  0  0  0  0  0
  -24.8909  -32.2762   26.4864 H   0  0  0  0  0  0
  -25.8128  -30.8820   27.0184 H   0  0  0  0  0  0
  -26.3014  -29.6684   24.1259 H   0  0  0  0  0  0
  -27.4227  -29.7316   25.4679 H   0  0  0  0  0  0
  -27.8838  -30.4322   23.9351 H   0  0  0  0  0  0
  -27.2716  -33.3635   26.2040 H   0  0  0  0  0  0
  -28.3925  -32.6833   25.0334 H   0  0  0  0  0  0
  -28.0743  -31.8447   26.5425 H   0  0  0  0  0  0
  -28.2564  -38.0087   24.7552 H   0  0  0  0  0  0
  -28.1066  -36.2615   24.6274 H   0  0  0  0  0  0
  -27.2279  -37.1403   25.8878 H   0  0  0  0  0  0
  -20.9413  -29.8770   21.6853 H   0  0  0  0  0  0
  -26.0124  -38.2802   24.1490 H   0  0  0  0  0  0
  -28.0212  -19.6272   22.6646 H   0  0  0  0  0  0
  -30.5311  -17.2303   19.1715 H   0  0  0  0  0  0
  -27.0333  -24.1497   21.9311 H   0  0  0  0  0  0
  -26.7750  -21.5327   21.7241 H   0  0  0  0  0  0
  -28.1830  -21.8848   22.7523 H   0  0  0  0  0  0
  -30.6571  -16.2429   23.3766 H   0  0  0  0  0  0
  -31.0605  -14.5859   23.0296 H   0  0  0  0  0  0
  -29.3893  -15.0209   23.3480 H   0  0  0  0  0  0
  -30.7185  -19.7594   16.6390 H   0  0  0  0  0  0
  -30.0238  -18.2282   17.1535 H   0  0  0  0  0  0
  -31.5873  -18.7797   17.8059 H   0  0  0  0  0  0
  -27.8775  -25.0599   18.6422 H   0  0  0  0  0  0
  -29.5095  -25.1400   19.1438 H   0  0  0  0  0  0
  1 25  1  0  0  0
  1 30  2  0  0  0
  1 85  1  0  0  0
  2  3  1  0  0  0
  2 25  1  0  0  0
  2 89  1  0  0  0
  2 90  1  0  0  0
  3  4  1  0  0  0
  3 91  1  0  0  0
  3 92  1  0  0  0
  4  5  1  0  0  0
  4 93  1  0  0  0
  4 94  1  0  0  0
  5  6  1  0  0  0
  5 26  1  0  0  0
  5 95  1  0  0  0
  6 25  1  0  0  0
  6 96  1  0  0  0
  6 97  1  0  0  0
  7  8  2  0  0  0
  7 26  1  0  0  0
  7 29  1  0  0  0
  8  9  1  0  0  0
  8 22  1  0  0  0
  9 10  1  0  0  0
  9 27  2  0  0  0
 10 11  2  0  0  0
 10 15  1  0  0  0
 11 12  1  0  0  0
 11 98  1  0  0  0
 12 13  2  0  0  0
 12 99  1  0  0  0
 13 14  1  0  0  0
 13 31  1  0  0  0
 14 15  2  0  0  0
 14100  1  0  0  0
 15101  1  0  0  0
 16 17  2  0  0  0
 16 21  1  0  0  0
 16 31  1  0  0  0
 17 18  1  0  0  0
 17102  1  0  0  0
 18 19  2  0  0  0
 18103  1  0  0  0
 19 20  1  0  0  0
 19 24  1  0  0  0
 20 21  2  0  0  0
 20104  1  0  0  0
 21 23  1  0  0  0
 22 28  1  0  0  0
 22 32  2  0  0  0
 26 27  1  0  0  0
 28105  1  0  0  0
 28106  1  0  0  0
 29107  1  0  0  0
 29108  1  0  0  0
 33 34  1  0  0  0
 33 66  1  0  0  0
 33 70  2  0  0  0
 34 36  1  0  0  0
 34 59  1  0  0  0
 34109  1  0  0  0
 35 44  2  0  0  0
 35 45  1  0  0  0
 35 68  1  0  0  0
 36 56  1  0  0  0
 36110  1  0  0  0
 37 39  1  0  0  0
 37 47  1  0  0  0
 37 66  1  0  0  0
 37111  1  0  0  0
 38 43  2  0  0  0
 38 46  1  0  0  0
 38 47  1  0  0  0
 39 64  1  0  0  0
 39 67  2  0  0  0
 40 52  1  0  0  0
 40 53  2  0  0  0
 40 58  1  0  0  0
 41112  1  0  0  0
 41113  1  0  0  0
 41114  1  0  0  0
 41 48  1  0  0  0
 42 43  1  0  0  0
 42 66  1  0  0  0
 42115  1  0  0  0
 42116  1  0  0  0
 43 44  1  0  0  0
 44117  1  0  0  0
 45 46  2  0  0  0
 45118  1  0  0  0
 46119  1  0  0  0
 47120  1  0  0  0
 47121  1  0  0  0
 48 56  1  0  0  0
 48 65  1  0  0  0
 48122  1  0  0  0
 49 50  1  0  0  0
 49 53  1  0  0  0
 49 64  1  0  0  0
 49123  1  0  0  0
 50 51  1  0  0  0
 50124  1  0  0  0
 50125  1  0  0  0
 51 52  1  0  0  0
 51126  1  0  0  0
 51127  1  0  0  0
 52128  1  0  0  0
 52129  1  0  0  0
 53 54  1  0  0  0
 54 55  2  0  0  0
 54130  1  0  0  0
 55 57  1  0  0  0
 55131  1  0  0  0
 56 69  2  0  0  0
 57 58  2  0  0  0
 57132  1  0  0  0
 58133  1  0  0  0
 59 60  1  0  0  0
 59 61  1  0  0  0
 59 62  1  0  0  0
 60134  1  0  0  0
 60135  1  0  0  0
 60136  1  0  0  0
 61137  1  0  0  0
 61138  1  0  0  0
 61139  1  0  0  0
 62140  1  0  0  0
 62141  1  0  0  0
 62142  1  0  0  0
 63 65  1  0  0  0
 63143  1  0  0  0
 63144  1  0  0  0
 63145  1  0  0  0
 64146  1  0  0  0
 65147  1  0  0  0
 68 83  1  0  0  0
 71 73  2  0  0  0
 71 76  1  0  0  0
 71148  1  0  0  0
 72 74  1  0  0  0
 72 75  2  0  0  0
 72149  1  0  0  0
 73 75  1  0  0  0
 73 84  1  0  0  0
 74 76  2  0  0  0
 74 85  1  0  0  0
 75 87  1  0  0  0
 76 88  1  0  0  0
 77 78  2  0  0  0
 77 80  1  0  0  0
 77150  1  0  0  0
 78 79  1  0  0  0
 78 83  1  0  0  0
 79 84  1  0  0  0
 79 86  2  0  0  0
 80 84  1  0  0  0
 80151  1  0  0  0
 80152  1  0  0  0
 81 85  1  0  0  0
 81153  1  0  0  0
 81154  1  0  0  0
 81155  1  0  0  0
 82 87  1  0  0  0
 82156  1  0  0  0
 82157  1  0  0  0
 82158  1  0  0  0
 83159  1  0  0  0
 83160  1  0  0  0
M  ISO  4   1 100  68 101  83 101  85 100
M  END
> <chiral flag>
0

> <version>
0

> <s_m_source_file>
/data/baiqing/PycharmProjects/Reinvent-master-3.2/result/LINK_invent/BTK/process_docking_weight1_custom_product_contain_oxygen_bond_distance_aromatic_linkinvent_7_9_3/rearranged_h_0092.sdf

> <i_m_source_file_index>
47

> <r_mmod_Potential_Energy-OPLS-2005>
369.3681640625

> <r_mmod_Stretch_Energy-OPLS-2005>
119.489295959473

> <r_mmod_Bend_Energy-OPLS-2005>
238.654815673828

> <r_mmod_Torsional_Energy-OPLS-2005>
301.966644287109

> <r_mmod_Improper_Torsional_Energy-OPLS-2005>
3.50001335144043

> <r_mmod_Van_der_Waal_Energy-OPLS-2005>
157.239944458008

> <r_mmod_Electrostatic_Energy-OPLS-2005>
-308.067779541016

> <r_mmod_Solvation_Energy-OPLS-2005>
-206.746536254883

> <b_mmod_Minimization_Converged-OPLS-2005>
0

> <r_mmod_RMS_Derivative-OPLS-2005>
3.44230437278748

$$$$
47
                    3D
 Structure written by MMmdl.
158167  0  0  1  0            999 V2000
  -30.6863  -14.6221   20.5244 C   0  0  0  0  0  0
  -30.4289  -12.4016   19.4317 C   0  0  0  0  0  0
  -29.4889  -12.4912   18.2111 C   0  0  0  0  0  0
  -28.0205  -12.2922   18.6372 C   0  0  0  0  0  0
  -27.6442  -13.1650   19.8585 C   0  0  2  0  0  0
  -28.7079  -13.0355   20.9814 C   0  0  0  0  0  0
  -25.2551  -13.8020   20.5646 C   0  0  0  0  0  0
  -24.1794  -13.0361   20.9204 C   0  0  0  0  0  0
  -24.6317  -11.6821   20.8790 C   0  0  0  0  0  0
  -23.8985  -10.4244   21.0448 C   0  0  0  0  0  0
  -24.3563   -9.4166   21.9214 C   0  0  0  0  0  0
  -23.6253   -8.2201   22.0764 C   0  0  0  0  0  0
  -22.4239   -8.0253   21.3547 C   0  0  0  0  0  0
  -21.9862   -9.0223   20.4652 C   0  0  0  0  0  0
  -22.7177  -10.2104   20.3073 C   0  0  0  0  0  0
  -21.6834   -6.0718   22.5277 C   0  0  0  0  0  0
  -21.4003   -6.5628   23.8208 C   0  0  0  0  0  0
  -21.3650   -5.6785   24.9172 C   0  0  0  0  0  0
  -21.6041   -4.3048   24.7225 C   0  0  0  0  0  0
  -21.8821   -3.8139   23.4347 C   0  0  0  0  0  0
  -21.9185   -4.6951   22.3401 C   0  0  0  0  0  0
  -22.7836  -13.5216   21.1853 C   0  0  0  0  0  0
  -22.1661   -4.2137   21.0979 F   0  0  0  0  0  0
  -21.5627   -3.4534   25.7739 F   0  0  0  0  0  0
  -29.9997  -13.4330   20.4039 N   0  0  0  0  0  0
  -26.2933  -12.9094   20.3353 N   0  0  0  0  0  0
  -25.9226  -11.6315   20.5837 N   0  0  0  0  0  0
  -22.0458  -12.8241   22.0416 N   0  0  0  0  0  0
  -25.4233  -15.1727   20.3931 N   0  0  0  0  0  0
  -31.8674  -14.6673   20.1660 O   0  0  0  0  0  0
  -21.6611   -6.8852   21.4236 O   0  0  0  0  0  0
  -22.3552  -14.5533   20.6693 O   0  0  0  0  0  0
  -24.6177  -31.8645   23.2065 C   0  0  0  0  0  0
  -25.9059  -32.4803   23.8372 C   0  0  1  0  0  0
  -27.2438  -27.3959   20.0971 C   0  0  0  0  0  0
  -25.5907  -33.8602   24.2303 N   0  0  0  0  0  0
  -23.4073  -30.4864   21.5478 C   0  0  2  0  0  0
  -24.8540  -28.9447   20.1153 C   0  0  0  0  0  0
  -22.7422  -29.4644   22.4980 C   0  0  0  0  0  0
  -18.0274  -28.1380   22.8489 C   0  0  0  0  0  0
  -24.1488  -36.7304   23.2637 C   0  0  0  0  0  0
  -25.9394  -30.8175   21.3655 C   0  0  0  0  0  0
  -26.0149  -29.4486   20.7118 C   0  0  0  0  0  0
  -27.2061  -28.6817   20.6985 C   0  0  0  0  0  0
  -26.0526  -26.9096   19.5066 C   0  0  0  0  0  0
  -24.8698  -27.6759   19.5120 C   0  0  0  0  0  0
  -23.6171  -29.8153   20.1637 C   0  0  0  0  0  0
  -25.4111  -36.3097   24.0333 C   0  0  1  0  0  0
  -20.5865  -28.3668   23.1314 C   0  0  2  0  0  0
  -20.6763  -26.9404   22.5417 C   0  0  0  0  0  0
  -19.5745  -26.6387   21.5210 C   0  0  0  0  0  0
  -18.1920  -26.7930   22.1615 C   0  0  0  0  0  0
  -19.1524  -28.8841   23.2898 C   0  0  0  0  0  0
  -18.9451  -30.1446   23.8910 C   0  0  0  0  0  0
  -17.6454  -30.6587   24.0564 C   0  0  0  0  0  0
  -25.9040  -34.9465   23.5115 C   0  0  0  0  0  0
  -16.5344  -29.9086   23.6331 C   0  0  0  0  0  0
  -16.7263  -28.6502   23.0353 C   0  0  0  0  0  0
  -26.4474  -31.6602   25.0720 C   0  0  0  0  0  0
  -25.3731  -31.3729   26.1465 C   0  0  0  0  0  0
  -27.0305  -30.3036   24.6131 C   0  0  0  0  0  0
  -27.6047  -32.4328   25.7481 C   0  0  0  0  0  0
  -27.5582  -37.1801   24.8464 C   0  0  0  0  0  0
  -21.4147  -29.3031   22.3718 N   0  0  0  0  0  0
  -26.4294  -37.3785   23.9410 N   0  0  0  0  0  0
  -24.6731  -31.0717   22.0980 N   0  0  0  0  0  0
  -23.4181  -28.8193   23.3040 O   0  0  0  0  0  0
  -28.4388  -26.6845   20.1295 O   0  0  0  0  0  0
  -26.5602  -34.8923   22.4677 O   0  0  0  0  0  0
  -23.5363  -32.1414   23.7443 O   0  0  0  0  0  0
  -29.7553  -20.3661   22.7634 C   0  0  0  0  0  0
  -29.4533  -21.6122   22.1590 C   0  0  0  0  0  0
  -29.9298  -20.6726   19.9565 C   0  0  0  0  0  0
  -30.1420  -19.2820   21.9527 C   0  0  0  0  0  0
  -30.2289  -19.4309   20.5754 C   0  0  0  0  0  0
  -29.5287  -21.7905   20.7479 C   0  0  0  0  0  0
  -28.7203  -24.2144   20.5334 C   0  0  0  0  0  0
  -30.4753  -17.8704   22.4027 C   0  0  0  0  0  0
  -30.6357  -18.1244   19.9114 C   0  0  0  0  0  0
  -30.8129  -17.0922   21.0872 C   0  0  2  0  0  0
  -28.6278  -16.1101   20.7798 C   0  0  0  0  0  0
  -28.6027  -25.3798   19.5072 C   0  0  0  0  0  0
  -29.2439  -23.0422   20.0806 N   0  0  0  0  0  0
  -30.0621  -15.7999   20.9152 N   0  0  0  0  0  0
  -28.3378  -24.3898   21.6936 O   0  0  0  0  0  0
  -31.4636  -12.5239   19.1080 H   0  0  0  0  0  0
  -30.3830  -11.4078   19.8802 H   0  0  0  0  0  0
  -29.7657  -11.7432   17.4668 H   0  0  0  0  0  0
  -29.6039  -13.4621   17.7263 H   0  0  0  0  0  0
  -27.8829  -11.2380   18.8813 H   0  0  0  0  0  0
  -27.3515  -12.5003   17.8012 H   0  0  0  0  0  0
  -27.6318  -14.1646   19.4530 H   0  0  0  0  0  0
  -28.7564  -11.9992   21.3190 H   0  0  0  0  0  0
  -28.4697  -13.5897   21.8861 H   0  0  0  0  0  0
  -25.2706   -9.5644   22.4790 H   0  0  0  0  0  0
  -23.9964   -7.4582   22.7473 H   0  0  0  0  0  0
  -21.0796   -8.8738   19.8952 H   0  0  0  0  0  0
  -22.3647  -10.9651   19.6185 H   0  0  0  0  0  0
  -21.2000   -7.6137   23.9708 H   0  0  0  0  0  0
  -21.1471   -6.0519   25.9072 H   0  0  0  0  0  0
  -22.0613   -2.7603   23.2853 H   0  0  0  0  0  0
  -22.4051  -11.9896   22.4813 H   0  0  0  0  0  0
  -21.1089  -13.1304   22.2626 H   0  0  0  0  0  0
  -24.6548  -15.8262   20.4972 H   0  0  0  0  0  0
  -26.2744  -15.6104   20.0673 H   0  0  0  0  0  0
  -26.7129  -32.5499   23.1132 H   0  0  0  0  0  0
  -25.0070  -33.9761   25.0457 H   0  0  0  0  0  0
  -22.6974  -31.3038   21.4059 H   0  0  0  0  0  0
  -23.3747  -35.9639   23.3300 H   0  0  0  0  0  0
  -24.3581  -36.8919   22.2051 H   0  0  0  0  0  0
  -23.7243  -37.6510   23.6651 H   0  0  0  0  0  0
  -26.0590  -31.5830   20.5975 H   0  0  0  0  0  0
  -26.8243  -30.8685   21.9883 H   0  0  0  0  0  0
  -28.1027  -29.0716   21.1602 H   0  0  0  0  0  0
  -25.9950  -25.9358   19.0476 H   0  0  0  0  0  0
  -23.9739  -27.2772   19.0563 H   0  0  0  0  0  0
  -23.7269  -30.5884   19.4024 H   0  0  0  0  0  0
  -22.7402  -29.2361   19.8685 H   0  0  0  0  0  0
  -25.1290  -36.1955   25.0827 H   0  0  0  0  0  0
  -20.9955  -28.3234   24.1435 H   0  0  0  0  0  0
  -20.5661  -26.2276   23.3603 H   0  0  0  0  0  0
  -21.6634  -26.7439   22.1214 H   0  0  0  0  0  0
  -19.6904  -25.6299   21.1236 H   0  0  0  0  0  0
  -19.6693  -27.3199   20.6743 H   0  0  0  0  0  0
  -17.4194  -26.6687   21.4011 H   0  0  0  0  0  0
  -18.0313  -26.0066   22.9003 H   0  0  0  0  0  0
  -19.7927  -30.7256   24.2290 H   0  0  0  0  0  0
  -17.5010  -31.6271   24.5158 H   0  0  0  0  0  0
  -15.5346  -30.2992   23.7653 H   0  0  0  0  0  0
  -15.8661  -28.0827   22.7067 H   0  0  0  0  0  0
  -24.5924  -30.7045   25.7816 H   0  0  0  0  0  0
  -24.8894  -32.2888   26.4869 H   0  0  0  0  0  0
  -25.8082  -30.8946   27.0247 H   0  0  0  0  0  0
  -26.2857  -29.6802   24.1168 H   0  0  0  0  0  0
  -27.4036  -29.7278   25.4612 H   0  0  0  0  0  0
  -27.8712  -30.4339   23.9312 H   0  0  0  0  0  0
  -27.2662  -33.3618   26.2083 H   0  0  0  0  0  0
  -28.3840  -32.6908   25.0297 H   0  0  0  0  0  0
  -28.0735  -31.8441   26.5377 H   0  0  0  0  0  0
  -28.2604  -38.0094   24.7508 H   0  0  0  0  0  0
  -28.1073  -36.2625   24.6290 H   0  0  0  0  0  0
  -27.2301  -37.1457   25.8868 H   0  0  0  0  0  0
  -20.9313  -29.8747   21.6932 H   0  0  0  0  0  0
  -26.0181  -38.2863   24.1411 H   0  0  0  0  0  0
  -29.6848  -20.2516   23.8364 H   0  0  0  0  0  0
  -29.1676  -22.4235   22.8106 H   0  0  0  0  0  0
  -30.0013  -20.7602   18.8811 H   0  0  0  0  0  0
  -29.6390  -17.4414   22.9558 H   0  0  0  0  0  0
  -31.3324  -17.8933   23.0773 H   0  0  0  0  0  0
  -31.5719  -18.2649   19.3697 H   0  0  0  0  0  0
  -29.8817  -17.8272   19.1827 H   0  0  0  0  0  0
  -31.8823  -16.8845   21.1526 H   0  0  0  0  0  0
  -28.3769  -17.1316   21.0627 H   0  0  0  0  0  0
  -27.9786  -15.5124   21.4083 H   0  0  0  0  0  0
  -28.3359  -16.0536   19.7334 H   0  0  0  0  0  0
  -27.8659  -25.1391   18.7452 H   0  0  0  0  0  0
  -29.5496  -25.4235   18.9684 H   0  0  0  0  0  0
  -29.4681  -23.0573   19.0948 H   0  0  0  0  0  0
  1 25  1  0  0  0
  1 30  2  0  0  0
  1 84  1  0  0  0
  2  3  1  0  0  0
  2 25  1  0  0  0
  2 86  1  0  0  0
  2 87  1  0  0  0
  3  4  1  0  0  0
  3 88  1  0  0  0
  3 89  1  0  0  0
  4  5  1  0  0  0
  4 90  1  0  0  0
  4 91  1  0  0  0
  5  6  1  0  0  0
  5 26  1  0  0  0
  5 92  1  0  0  0
  6 25  1  0  0  0
  6 93  1  0  0  0
  6 94  1  0  0  0
  7  8  2  0  0  0
  7 26  1  0  0  0
  7 29  1  0  0  0
  8  9  1  0  0  0
  8 22  1  0  0  0
  9 10  1  0  0  0
  9 27  2  0  0  0
 10 11  2  0  0  0
 10 15  1  0  0  0
 11 12  1  0  0  0
 11 95  1  0  0  0
 12 13  2  0  0  0
 12 96  1  0  0  0
 13 14  1  0  0  0
 13 31  1  0  0  0
 14 15  2  0  0  0
 14 97  1  0  0  0
 15 98  1  0  0  0
 16 17  2  0  0  0
 16 21  1  0  0  0
 16 31  1  0  0  0
 17 18  1  0  0  0
 17 99  1  0  0  0
 18 19  2  0  0  0
 18100  1  0  0  0
 19 20  1  0  0  0
 19 24  1  0  0  0
 20 21  2  0  0  0
 20101  1  0  0  0
 21 23  1  0  0  0
 22 28  1  0  0  0
 22 32  2  0  0  0
 26 27  1  0  0  0
 28102  1  0  0  0
 28103  1  0  0  0
 29104  1  0  0  0
 29105  1  0  0  0
 33 34  1  0  0  0
 33 66  1  0  0  0
 33 70  2  0  0  0
 34 36  1  0  0  0
 34 59  1  0  0  0
 34106  1  0  0  0
 35 44  2  0  0  0
 35 45  1  0  0  0
 35 68  1  0  0  0
 36 56  1  0  0  0
 36107  1  0  0  0
 37 39  1  0  0  0
 37 47  1  0  0  0
 37 66  1  0  0  0
 37108  1  0  0  0
 38 43  2  0  0  0
 38 46  1  0  0  0
 38 47  1  0  0  0
 39 64  1  0  0  0
 39 67  2  0  0  0
 40 52  1  0  0  0
 40 53  2  0  0  0
 40 58  1  0  0  0
 41109  1  0  0  0
 41110  1  0  0  0
 41111  1  0  0  0
 41 48  1  0  0  0
 42 43  1  0  0  0
 42 66  1  0  0  0
 42112  1  0  0  0
 42113  1  0  0  0
 43 44  1  0  0  0
 44114  1  0  0  0
 45 46  2  0  0  0
 45115  1  0  0  0
 46116  1  0  0  0
 47117  1  0  0  0
 47118  1  0  0  0
 48 56  1  0  0  0
 48 65  1  0  0  0
 48119  1  0  0  0
 49 50  1  0  0  0
 49 53  1  0  0  0
 49 64  1  0  0  0
 49120  1  0  0  0
 50 51  1  0  0  0
 50121  1  0  0  0
 50122  1  0  0  0
 51 52  1  0  0  0
 51123  1  0  0  0
 51124  1  0  0  0
 52125  1  0  0  0
 52126  1  0  0  0
 53 54  1  0  0  0
 54 55  2  0  0  0
 54127  1  0  0  0
 55 57  1  0  0  0
 55128  1  0  0  0
 56 69  2  0  0  0
 57 58  2  0  0  0
 57129  1  0  0  0
 58130  1  0  0  0
 59 60  1  0  0  0
 59 61  1  0  0  0
 59 62  1  0  0  0
 60131  1  0  0  0
 60132  1  0  0  0
 60133  1  0  0  0
 61134  1  0  0  0
 61135  1  0  0  0
 61136  1  0  0  0
 62137  1  0  0  0
 62138  1  0  0  0
 62139  1  0  0  0
 63 65  1  0  0  0
 63140  1  0  0  0
 63141  1  0  0  0
 63142  1  0  0  0
 64143  1  0  0  0
 65144  1  0  0  0
 68 82  1  0  0  0
 71 72  2  0  0  0
 71 74  1  0  0  0
 71145  1  0  0  0
 72 76  1  0  0  0
 72146  1  0  0  0
 73 75  1  0  0  0
 73 76  2  0  0  0
 73147  1  0  0  0
 74 75  2  0  0  0
 74 78  1  0  0  0
 75 79  1  0  0  0
 76 83  1  0  0  0
 77 82  1  0  0  0
 77 83  1  0  0  0
 77 85  2  0  0  0
 78 80  1  0  0  0
 78148  1  0  0  0
 78149  1  0  0  0
 79 80  1  0  0  0
 79150  1  0  0  0
 79151  1  0  0  0
 80 84  1  0  0  0
 80152  1  0  0  0
 81 84  1  0  0  0
 81153  1  0  0  0
 81154  1  0  0  0
 81155  1  0  0  0
 82156  1  0  0  0
 82157  1  0  0  0
 83158  1  0  0  0
M  ISO  4   1 100  68 101  82 101  84 100
M  END
> <chiral flag>
0

> <version>
0

> <s_m_source_file>
/data/baiqing/PycharmProjects/Reinvent-master-3.2/result/LINK_invent/BTK/process_docking_weight1_custom_product_contain_oxygen_bond_distance_aromatic_linkinvent_7_9_3/rearranged_h_0092.sdf

> <i_m_source_file_index>
48

> <r_mmod_Potential_Energy-OPLS-2005>
206.526992797852

> <r_mmod_Stretch_Energy-OPLS-2005>
62.7077445983887

> <r_mmod_Bend_Energy-OPLS-2005>
186.831298828125

> <r_mmod_Torsional_Energy-OPLS-2005>
290.738433837891

> <r_mmod_Improper_Torsional_Energy-OPLS-2005>
3.73891425132751

> <r_mmod_Van_der_Waal_Energy-OPLS-2005>
170.598510742188

> <r_mmod_Electrostatic_Energy-OPLS-2005>
-308.657135009766

> <r_mmod_Solvation_Energy-OPLS-2005>
-232.701797485352

> <b_mmod_Minimization_Converged-OPLS-2005>
0

> <r_mmod_RMS_Derivative-OPLS-2005>
0.515214562416077

$$$$
48
                    3D
 Structure written by MMmdl.
158167  0  0  1  0            999 V2000
  -30.5737  -14.6957   20.4849 C   0  0  0  0  0  0
  -30.4459  -12.4240   19.4533 C   0  0  0  0  0  0
  -29.5105  -12.5164   18.2265 C   0  0  0  0  0  0
  -28.0318  -12.3489   18.6396 C   0  0  0  0  0  0
  -27.6507  -13.2156   19.8695 C   0  0  2  0  0  0
  -28.6996  -13.0709   20.9941 C   0  0  0  0  0  0
  -25.2546  -13.8189   20.5737 C   0  0  0  0  0  0
  -24.1812  -13.0426   20.9179 C   0  0  0  0  0  0
  -24.6408  -11.6909   20.8752 C   0  0  0  0  0  0
  -23.9093  -10.4287   21.0429 C   0  0  0  0  0  0
  -24.3641   -9.4200   21.9192 C   0  0  0  0  0  0
  -23.6300   -8.2252   22.0766 C   0  0  0  0  0  0
  -22.4276   -8.0308   21.3565 C   0  0  0  0  0  0
  -21.9941   -9.0280   20.4650 C   0  0  0  0  0  0
  -22.7286  -10.2136   20.3061 C   0  0  0  0  0  0
  -21.6857   -6.0754   22.5286 C   0  0  0  0  0  0
  -21.4011   -6.5649   23.8222 C   0  0  0  0  0  0
  -21.3665   -5.6799   24.9184 C   0  0  0  0  0  0
  -21.6043   -4.3065   24.7231 C   0  0  0  0  0  0
  -21.8814   -3.8161   23.4351 C   0  0  0  0  0  0
  -21.9181   -4.6978   22.3404 C   0  0  0  0  0  0
  -22.7834  -13.5203   21.1840 C   0  0  0  0  0  0
  -22.1640   -4.2159   21.0984 F   0  0  0  0  0  0
  -21.5645   -3.4552   25.7750 F   0  0  0  0  0  0
  -30.0040  -13.4456   20.4240 N   0  0  0  0  0  0
  -26.2978  -12.9362   20.3379 N   0  0  0  0  0  0
  -25.9333  -11.6507   20.5795 N   0  0  0  0  0  0
  -22.0494  -12.8171   22.0402 N   0  0  0  0  0  0
  -25.4172  -15.1934   20.4220 N   0  0  0  0  0  0
  -31.7478  -14.8788   20.1475 O   0  0  0  0  0  0
  -21.6630   -6.8907   21.4261 O   0  0  0  0  0  0
  -22.3488  -14.5492   20.6689 O   0  0  0  0  0  0
  -24.6268  -31.8573   23.2016 C   0  0  0  0  0  0
  -25.9106  -32.4774   23.8361 C   0  0  1  0  0  0
  -27.2315  -27.2972   20.1138 C   0  0  0  0  0  0
  -25.5918  -33.8578   24.2268 N   0  0  0  0  0  0
  -23.4229  -30.4775   21.5443 C   0  0  2  0  0  0
  -24.8704  -28.9250   20.1132 C   0  0  0  0  0  0
  -22.7484  -29.4608   22.4960 C   0  0  0  0  0  0
  -18.0282  -28.1372   22.8496 C   0  0  0  0  0  0
  -24.1470  -36.7270   23.2648 C   0  0  0  0  0  0
  -25.9655  -30.7771   21.3779 C   0  0  0  0  0  0
  -26.0387  -29.4034   20.7172 C   0  0  0  0  0  0
  -27.2177  -28.6000   20.7088 C   0  0  0  0  0  0
  -26.0304  -26.8663   19.5052 C   0  0  0  0  0  0
  -24.8685  -27.6624   19.5014 C   0  0  0  0  0  0
  -23.6375  -29.8033   20.1627 C   0  0  0  0  0  0
  -25.4119  -36.3090   24.0319 C   0  0  1  0  0  0
  -20.5878  -28.3671   23.1278 C   0  0  2  0  0  0
  -20.6755  -26.9399   22.5399 C   0  0  0  0  0  0
  -19.5731  -26.6384   21.5194 C   0  0  0  0  0  0
  -18.1914  -26.7919   22.1620 C   0  0  0  0  0  0
  -19.1531  -28.8841   23.2885 C   0  0  0  0  0  0
  -18.9466  -30.1453   23.8881 C   0  0  0  0  0  0
  -17.6465  -30.6581   24.0555 C   0  0  0  0  0  0
  -25.9050  -34.9451   23.5089 C   0  0  0  0  0  0
  -16.5349  -29.9073   23.6356 C   0  0  0  0  0  0
  -16.7269  -28.6491   23.0375 C   0  0  0  0  0  0
  -26.4486  -31.6623   25.0762 C   0  0  0  0  0  0
  -25.3707  -31.3680   26.1461 C   0  0  0  0  0  0
  -27.0422  -30.3099   24.6235 C   0  0  0  0  0  0
  -27.6033  -32.4377   25.7540 C   0  0  0  0  0  0
  -27.5569  -37.1804   24.8481 C   0  0  0  0  0  0
  -21.4200  -29.3036   22.3690 N   0  0  0  0  0  0
  -26.4293  -37.3797   23.9409 N   0  0  0  0  0  0
  -24.6900  -31.0560   22.0968 N   0  0  0  0  0  0
  -23.4201  -28.8154   23.3049 O   0  0  0  0  0  0
  -28.3707  -26.4733   20.1877 O   0  0  0  0  0  0
  -26.5628  -34.8911   22.4666 O   0  0  0  0  0  0
  -23.5426  -32.1369   23.7336 O   0  0  0  0  0  0
  -30.6325  -18.0769   21.2046 C   0  0  0  0  0  0
  -28.1423  -23.5057   21.5595 C   0  0  0  0  0  0
  -28.3773  -19.2097   19.9809 C   0  0  0  0  0  0
  -29.0755  -22.5808   19.7697 C   0  0  0  0  0  0
  -30.4257  -19.5021   21.2169 C   0  0  0  0  0  0
  -28.5898  -23.8077   20.2382 C   0  0  0  0  0  0
  -29.2736  -20.1076   20.6176 C   0  0  0  0  0  0
  -29.7069  -17.1842   20.5975 C   0  0  0  0  0  0
  -28.5880  -17.7973   19.9666 C   0  0  0  0  0  0
  -28.3605  -22.1716   21.8124 C   0  0  0  0  0  0
  -31.4307  -20.3742   21.9463 C   0  0  0  0  0  0
  -28.5020  -25.1827   19.4645 C   0  0  0  0  0  0
  -28.9441  -21.5416   20.7202 N   0  0  0  0  0  0
  -27.6619  -16.9781   19.3190 N   0  0  0  0  0  0
  -29.6945  -15.7206   20.7440 N   0  0  0  0  0  0
  -28.0573  -21.4638   22.9341 O   0  0  0  0  0  0
  -31.4859  -12.5698   19.1512 H   0  0  0  0  0  0
  -30.3955  -11.4301   19.9013 H   0  0  0  0  0  0
  -29.7791  -11.7580   17.4890 H   0  0  0  0  0  0
  -29.6489  -13.4823   17.7361 H   0  0  0  0  0  0
  -27.8734  -11.2969   18.8738 H   0  0  0  0  0  0
  -27.3741  -12.5776   17.8000 H   0  0  0  0  0  0
  -27.6599  -14.2483   19.5285 H   0  0  0  0  0  0
  -28.7276  -12.0428   21.3602 H   0  0  0  0  0  0
  -28.4472  -13.6890   21.8581 H   0  0  0  0  0  0
  -25.2797   -9.5655   22.4737 H   0  0  0  0  0  0
  -24.0001   -7.4647   22.7489 H   0  0  0  0  0  0
  -21.0892   -8.8834   19.8931 H   0  0  0  0  0  0
  -22.3810  -10.9682   19.6149 H   0  0  0  0  0  0
  -21.1992   -7.6149   23.9733 H   0  0  0  0  0  0
  -21.1496   -6.0530   25.9087 H   0  0  0  0  0  0
  -22.0576   -2.7622   23.2865 H   0  0  0  0  0  0
  -22.4125  -11.9808   22.4734 H   0  0  0  0  0  0
  -21.1110  -13.1183   22.2627 H   0  0  0  0  0  0
  -24.6441  -15.8379   20.5414 H   0  0  0  0  0  0
  -26.2675  -15.6719   20.1207 H   0  0  0  0  0  0
  -26.7179  -32.5422   23.1103 H   0  0  0  0  0  0
  -25.0063  -33.9721   25.0410 H   0  0  0  0  0  0
  -22.7208  -31.3000   21.3963 H   0  0  0  0  0  0
  -23.3752  -35.9579   23.3327 H   0  0  0  0  0  0
  -24.3532  -36.8895   22.2059 H   0  0  0  0  0  0
  -23.7177  -37.6449   23.6671 H   0  0  0  0  0  0
  -26.1028  -31.5408   20.6124 H   0  0  0  0  0  0
  -26.8421  -30.8242   22.0127 H   0  0  0  0  0  0
  -28.1167  -28.9591   21.1907 H   0  0  0  0  0  0
  -25.9366  -25.8883   19.0590 H   0  0  0  0  0  0
  -23.9662  -27.2805   19.0417 H   0  0  0  0  0  0
  -23.7499  -30.5702   19.3960 H   0  0  0  0  0  0
  -22.7595  -29.2236   19.8698 H   0  0  0  0  0  0
  -25.1293  -36.1951   25.0810 H   0  0  0  0  0  0
  -20.9966  -28.3225   24.1395 H   0  0  0  0  0  0
  -20.5651  -26.2278   23.3582 H   0  0  0  0  0  0
  -21.6618  -26.7412   22.1197 H   0  0  0  0  0  0
  -19.6878  -25.6292   21.1208 H   0  0  0  0  0  0
  -19.6655  -27.3206   20.6722 H   0  0  0  0  0  0
  -17.4184  -26.6699   21.4021 H   0  0  0  0  0  0
  -18.0312  -26.0048   22.9000 H   0  0  0  0  0  0
  -19.7944  -30.7297   24.2228 H   0  0  0  0  0  0
  -17.5008  -31.6252   24.5164 H   0  0  0  0  0  0
  -15.5343  -30.2954   23.7691 H   0  0  0  0  0  0
  -15.8683  -28.0798   22.7099 H   0  0  0  0  0  0
  -24.5894  -30.7043   25.7712 H   0  0  0  0  0  0
  -24.8847  -32.2796   26.4948 H   0  0  0  0  0  0
  -25.7999  -30.8782   27.0209 H   0  0  0  0  0  0
  -26.3060  -29.6822   24.1205 H   0  0  0  0  0  0
  -27.4115  -29.7382   25.4752 H   0  0  0  0  0  0
  -27.8888  -30.4468   23.9511 H   0  0  0  0  0  0
  -27.2662  -33.3692   26.2092 H   0  0  0  0  0  0
  -28.3849  -32.6928   25.0373 H   0  0  0  0  0  0
  -28.0702  -31.8528   26.5478 H   0  0  0  0  0  0
  -28.2597  -38.0100   24.7569 H   0  0  0  0  0  0
  -28.1066  -36.2632   24.6296 H   0  0  0  0  0  0
  -27.2279  -37.1436   25.8884 H   0  0  0  0  0  0
  -20.9384  -29.8782   21.6907 H   0  0  0  0  0  0
  -26.0180  -38.2862   24.1437 H   0  0  0  0  0  0
  -31.4829  -17.6613   21.7264 H   0  0  0  0  0  0
  -27.6841  -24.2024   22.2491 H   0  0  0  0  0  0
  -27.4895  -19.6195   19.5218 H   0  0  0  0  0  0
  -29.5057  -22.3469   18.8055 H   0  0  0  0  0  0
  -32.3988  -19.8815   22.0404 H   0  0  0  0  0  0
  -31.0661  -20.6067   22.9471 H   0  0  0  0  0  0
  -31.5873  -21.3135   21.4160 H   0  0  0  0  0  0
  -27.7816  -25.0748   18.6575 H   0  0  0  0  0  0
  -29.4489  -25.2622   18.9322 H   0  0  0  0  0  0
  -26.9471  -17.4751   18.7978 H   0  0  0  0  0  0
  -28.1026  -16.2959   18.7107 H   0  0  0  0  0  0
  -28.7543  -15.3741   20.8512 H   0  0  0  0  0  0
  -27.6643  -22.0683   23.5579 H   0  0  0  0  0  0
  1 25  1  0  0  0
  1 30  2  0  0  0
  1 85  1  0  0  0
  2  3  1  0  0  0
  2 25  1  0  0  0
  2 87  1  0  0  0
  2 88  1  0  0  0
  3  4  1  0  0  0
  3 89  1  0  0  0
  3 90  1  0  0  0
  4  5  1  0  0  0
  4 91  1  0  0  0
  4 92  1  0  0  0
  5  6  1  0  0  0
  5 26  1  0  0  0
  5 93  1  0  0  0
  6 25  1  0  0  0
  6 94  1  0  0  0
  6 95  1  0  0  0
  7  8  2  0  0  0
  7 26  1  0  0  0
  7 29  1  0  0  0
  8  9  1  0  0  0
  8 22  1  0  0  0
  9 10  1  0  0  0
  9 27  2  0  0  0
 10 11  2  0  0  0
 10 15  1  0  0  0
 11 12  1  0  0  0
 11 96  1  0  0  0
 12 13  2  0  0  0
 12 97  1  0  0  0
 13 14  1  0  0  0
 13 31  1  0  0  0
 14 15  2  0  0  0
 14 98  1  0  0  0
 15 99  1  0  0  0
 16 17  2  0  0  0
 16 21  1  0  0  0
 16 31  1  0  0  0
 17 18  1  0  0  0
 17100  1  0  0  0
 18 19  2  0  0  0
 18101  1  0  0  0
 19 20  1  0  0  0
 19 24  1  0  0  0
 20 21  2  0  0  0
 20102  1  0  0  0
 21 23  1  0  0  0
 22 28  1  0  0  0
 22 32  2  0  0  0
 26 27  1  0  0  0
 28103  1  0  0  0
 28104  1  0  0  0
 29105  1  0  0  0
 29106  1  0  0  0
 33 34  1  0  0  0
 33 66  1  0  0  0
 33 70  2  0  0  0
 34 36  1  0  0  0
 34 59  1  0  0  0
 34107  1  0  0  0
 35 44  2  0  0  0
 35 45  1  0  0  0
 35 68  1  0  0  0
 36 56  1  0  0  0
 36108  1  0  0  0
 37 39  1  0  0  0
 37 47  1  0  0  0
 37 66  1  0  0  0
 37109  1  0  0  0
 38 43  2  0  0  0
 38 46  1  0  0  0
 38 47  1  0  0  0
 39 64  1  0  0  0
 39 67  2  0  0  0
 40 52  1  0  0  0
 40 53  2  0  0  0
 40 58  1  0  0  0
 41110  1  0  0  0
 41111  1  0  0  0
 41112  1  0  0  0
 41 48  1  0  0  0
 42 43  1  0  0  0
 42 66  1  0  0  0
 42113  1  0  0  0
 42114  1  0  0  0
 43 44  1  0  0  0
 44115  1  0  0  0
 45 46  2  0  0  0
 45116  1  0  0  0
 46117  1  0  0  0
 47118  1  0  0  0
 47119  1  0  0  0
 48 56  1  0  0  0
 48 65  1  0  0  0
 48120  1  0  0  0
 49 50  1  0  0  0
 49 53  1  0  0  0
 49 64  1  0  0  0
 49121  1  0  0  0
 50 51  1  0  0  0
 50122  1  0  0  0
 50123  1  0  0  0
 51 52  1  0  0  0
 51124  1  0  0  0
 51125  1  0  0  0
 52126  1  0  0  0
 52127  1  0  0  0
 53 54  1  0  0  0
 54 55  2  0  0  0
 54128  1  0  0  0
 55 57  1  0  0  0
 55129  1  0  0  0
 56 69  2  0  0  0
 57 58  2  0  0  0
 57130  1  0  0  0
 58131  1  0  0  0
 59 60  1  0  0  0
 59 61  1  0  0  0
 59 62  1  0  0  0
 60132  1  0  0  0
 60133  1  0  0  0
 60134  1  0  0  0
 61135  1  0  0  0
 61136  1  0  0  0
 61137  1  0  0  0
 62138  1  0  0  0
 62139  1  0  0  0
 62140  1  0  0  0
 63 65  1  0  0  0
 63141  1  0  0  0
 63142  1  0  0  0
 63143  1  0  0  0
 64144  1  0  0  0
 65145  1  0  0  0
 68 82  1  0  0  0
 71 75  2  0  0  0
 71 78  1  0  0  0
 71146  1  0  0  0
 72 76  1  0  0  0
 72 80  2  0  0  0
 72147  1  0  0  0
 73 77  2  0  0  0
 73 79  1  0  0  0
 73148  1  0  0  0
 74 76  2  0  0  0
 74 83  1  0  0  0
 74149  1  0  0  0
 75 77  1  0  0  0
 75 81  1  0  0  0
 76 82  1  0  0  0
 77 83  1  0  0  0
 78 79  2  0  0  0
 78 85  1  0  0  0
 79 84  1  0  0  0
 80 83  1  0  0  0
 80 86  1  0  0  0
 81150  1  0  0  0
 81151  1  0  0  0
 81152  1  0  0  0
 82153  1  0  0  0
 82154  1  0  0  0
 84155  1  0  0  0
 84156  1  0  0  0
 85157  1  0  0  0
 86158  1  0  0  0
M  ISO  4   1 100  68 101  82 101  85 100
M  END
> <chiral flag>
0

> <version>
0

> <s_m_source_file>
/data/baiqing/PycharmProjects/Reinvent-master-3.2/result/LINK_invent/BTK/process_docking_weight1_custom_product_contain_oxygen_bond_distance_aromatic_linkinvent_7_9_3/rearranged_h_0092.sdf

> <i_m_source_file_index>
49

> <r_mmod_Potential_Energy-OPLS-2005>
-0.439519286155701

> <r_mmod_Stretch_Energy-OPLS-2005>
87.8860931396484

> <r_mmod_Bend_Energy-OPLS-2005>
157.221176147461

> <r_mmod_Torsional_Energy-OPLS-2005>
261.638000488281

> <r_mmod_Improper_Torsional_Energy-OPLS-2005>
12.4301557540894

> <r_mmod_Van_der_Waal_Energy-OPLS-2005>
134.678634643555

> <r_mmod_Electrostatic_Energy-OPLS-2005>
-499.981689453125

> <r_mmod_Solvation_Energy-OPLS-2005>
-217.239379882812

> <b_mmod_Minimization_Converged-OPLS-2005>
0

> <r_mmod_RMS_Derivative-OPLS-2005>
2.94839763641357

$$$$
49
                    3D
 Structure written by MMmdl.
153161  0  0  1  0            999 V2000
  -30.7133  -14.6478   20.4997 C   0  0  0  0  0  0
  -30.4126  -12.4110   19.4508 C   0  0  0  0  0  0
  -29.4925  -12.4959   18.2185 C   0  0  0  0  0  0
  -28.0211  -12.3340   18.6413 C   0  0  0  0  0  0
  -27.6400  -13.2350   19.8475 C   0  0  2  0  0  0
  -28.6919  -13.1718   20.9767 C   0  0  0  0  0  0
  -25.2505  -13.8219   20.5719 C   0  0  0  0  0  0
  -24.1797  -13.0451   20.9204 C   0  0  0  0  0  0
  -24.6395  -11.6931   20.8752 C   0  0  0  0  0  0
  -23.9077  -10.4299   21.0407 C   0  0  0  0  0  0
  -24.3624   -9.4212   21.9183 C   0  0  0  0  0  0
  -23.6299   -8.2246   22.0755 C   0  0  0  0  0  0
  -22.4283   -8.0283   21.3547 C   0  0  0  0  0  0
  -21.9918   -9.0256   20.4648 C   0  0  0  0  0  0
  -22.7249  -10.2135   20.3055 C   0  0  0  0  0  0
  -21.6857   -6.0735   22.5280 C   0  0  0  0  0  0
  -21.4013   -6.5638   23.8212 C   0  0  0  0  0  0
  -21.3657   -5.6789   24.9176 C   0  0  0  0  0  0
  -21.6045   -4.3053   24.7228 C   0  0  0  0  0  0
  -21.8820   -3.8147   23.4349 C   0  0  0  0  0  0
  -21.9192   -4.6962   22.3403 C   0  0  0  0  0  0
  -22.7814  -13.5222   21.1861 C   0  0  0  0  0  0
  -22.1662   -4.2144   21.0982 F   0  0  0  0  0  0
  -21.5626   -3.4536   25.7741 F   0  0  0  0  0  0
  -29.9948  -13.4842   20.3783 N   0  0  0  0  0  0
  -26.2941  -12.9434   20.3313 N   0  0  0  0  0  0
  -25.9330  -11.6574   20.5781 N   0  0  0  0  0  0
  -22.0463  -12.8203   22.0416 N   0  0  0  0  0  0
  -25.4192  -15.1944   20.4169 N   0  0  0  0  0  0
  -31.9067  -14.6434   20.1884 O   0  0  0  0  0  0
  -21.6649   -6.8878   21.4243 O   0  0  0  0  0  0
  -22.3490  -14.5519   20.6705 O   0  0  0  0  0  0
  -24.6285  -31.8610   23.2060 C   0  0  0  0  0  0
  -25.9132  -32.4783   23.8378 C   0  0  1  0  0  0
  -27.2047  -27.3035   20.1098 C   0  0  0  0  0  0
  -25.5955  -33.8581   24.2304 N   0  0  0  0  0  0
  -23.4205  -30.4903   21.5499 C   0  0  2  0  0  0
  -24.8627  -28.9550   20.1083 C   0  0  0  0  0  0
  -22.7483  -29.4641   22.4934 C   0  0  0  0  0  0
  -18.0287  -28.1378   22.8491 C   0  0  0  0  0  0
  -24.1494  -36.7284   23.2633 C   0  0  0  0  0  0
  -25.9659  -30.7868   21.3815 C   0  0  0  0  0  0
  -26.0364  -29.4162   20.7183 C   0  0  0  0  0  0
  -27.2115  -28.6015   20.7140 C   0  0  0  0  0  0
  -26.0071  -26.9189   19.4560 C   0  0  0  0  0  0
  -24.8511  -27.7121   19.4679 C   0  0  0  0  0  0
  -23.6337  -29.8359   20.1622 C   0  0  0  0  0  0
  -25.4115  -36.3084   24.0333 C   0  0  1  0  0  0
  -20.5891  -28.3693   23.1268 C   0  0  2  0  0  0
  -20.6775  -26.9415   22.5399 C   0  0  0  0  0  0
  -19.5752  -26.6385   21.5204 C   0  0  0  0  0  0
  -18.1932  -26.7924   22.1620 C   0  0  0  0  0  0
  -19.1539  -28.8852   23.2876 C   0  0  0  0  0  0
  -18.9462  -30.1452   23.8892 C   0  0  0  0  0  0
  -17.6462  -30.6583   24.0557 C   0  0  0  0  0  0
  -25.9059  -34.9452   23.5115 C   0  0  0  0  0  0
  -16.5354  -29.9080   23.6327 C   0  0  0  0  0  0
  -16.7275  -28.6494   23.0361 C   0  0  0  0  0  0
  -26.4510  -31.6582   25.0742 C   0  0  0  0  0  0
  -25.3743  -31.3719   26.1468 C   0  0  0  0  0  0
  -27.0337  -30.3000   24.6194 C   0  0  0  0  0  0
  -27.6074  -32.4310   25.7507 C   0  0  0  0  0  0
  -27.5583  -37.1792   24.8456 C   0  0  0  0  0  0
  -21.4197  -29.3050   22.3669 N   0  0  0  0  0  0
  -26.4284  -37.3786   23.9418 N   0  0  0  0  0  0
  -24.6908  -31.0616   22.1024 N   0  0  0  0  0  0
  -23.4205  -28.8166   23.3004 O   0  0  0  0  0  0
  -28.2847  -26.3982   20.1804 O   0  0  0  0  0  0
  -26.5612  -34.8919   22.4671 O   0  0  0  0  0  0
  -23.5444  -32.1413   23.7382 O   0  0  0  0  0  0
  -30.3730  -20.8947   20.2894 C   0  0  0  0  0  0
  -28.1783  -20.0774   20.7955 C   0  0  0  0  0  0
  -30.0548  -18.4390   20.7417 C   0  0  0  0  0  0
  -30.8871  -19.5640   20.3877 C   0  0  0  0  0  0
  -29.0086  -21.1969   20.5015 C   0  0  0  0  0  0
  -28.6785  -18.7427   20.9221 C   0  0  0  0  0  0
  -30.6574  -17.0371   21.0459 C   0  0  0  0  0  0
  -28.9352  -23.8122   20.3402 C   0  0  0  0  0  0
  -32.3736  -19.4056   20.0875 C   0  0  0  0  0  0
  -27.9269  -24.9676   19.9615 C   0  0  0  0  0  0
  -28.4230  -22.5348   20.3555 N   0  0  0  0  0  0
  -30.0542  -15.8419   20.7153 N   0  0  0  0  0  0
  -31.7531  -17.0382   21.6215 O   0  0  0  0  0  0
  -30.1136  -24.0711   20.6012 O   0  0  0  0  0  0
  -27.8126  -17.7482   21.2375 F   0  0  0  0  0  0
  -31.4555  -12.4935   19.1403 H   0  0  0  0  0  0
  -30.3245  -11.4363   19.9333 H   0  0  0  0  0  0
  -29.7600  -11.7269   17.4927 H   0  0  0  0  0  0
  -29.6312  -13.4550   17.7167 H   0  0  0  0  0  0
  -27.8709  -11.2856   18.9021 H   0  0  0  0  0  0
  -27.3599  -12.5332   17.7973 H   0  0  0  0  0  0
  -27.6345  -14.2564   19.4667 H   0  0  0  0  0  0
  -28.7128  -12.1827   21.4367 H   0  0  0  0  0  0
  -28.4464  -13.8780   21.7719 H   0  0  0  0  0  0
  -25.2767   -9.5689   22.4755 H   0  0  0  0  0  0
  -24.0008   -7.4639   22.7475 H   0  0  0  0  0  0
  -21.0846   -8.8777   19.8955 H   0  0  0  0  0  0
  -22.3708  -10.9670   19.6160 H   0  0  0  0  0  0
  -21.2007   -7.6145   23.9714 H   0  0  0  0  0  0
  -21.1474   -6.0521   25.9077 H   0  0  0  0  0  0
  -22.0597   -2.7608   23.2853 H   0  0  0  0  0  0
  -22.4082  -11.9863   22.4797 H   0  0  0  0  0  0
  -21.1081  -13.1225   22.2629 H   0  0  0  0  0  0
  -24.6585  -15.8513   20.5499 H   0  0  0  0  0  0
  -26.2836  -15.6450   20.1462 H   0  0  0  0  0  0
  -26.7195  -32.5447   23.1120 H   0  0  0  0  0  0
  -25.0155  -33.9730   25.0486 H   0  0  0  0  0  0
  -22.7144  -31.3121   21.4128 H   0  0  0  0  0  0
  -23.3767  -35.9606   23.3286 H   0  0  0  0  0  0
  -24.3598  -36.8909   22.2050 H   0  0  0  0  0  0
  -23.7232  -37.6481   23.6651 H   0  0  0  0  0  0
  -26.1013  -31.5526   20.6164 H   0  0  0  0  0  0
  -26.8449  -30.8309   22.0129 H   0  0  0  0  0  0
  -28.1059  -28.9459   21.2139 H   0  0  0  0  0  0
  -25.9092  -25.9804   18.9331 H   0  0  0  0  0  0
  -23.9545  -27.3570   18.9781 H   0  0  0  0  0  0
  -23.7549  -30.6170   19.4109 H   0  0  0  0  0  0
  -22.7525  -29.2689   19.8568 H   0  0  0  0  0  0
  -25.1290  -36.1940   25.0826 H   0  0  0  0  0  0
  -20.9983  -28.3268   24.1390 H   0  0  0  0  0  0
  -20.5678  -26.2308   23.3603 H   0  0  0  0  0  0
  -21.6643  -26.7444   22.1194 H   0  0  0  0  0  0
  -19.6918  -25.6297   21.1237 H   0  0  0  0  0  0
  -19.6690  -27.3189   20.6728 H   0  0  0  0  0  0
  -17.4205  -26.6676   21.4017 H   0  0  0  0  0  0
  -18.0339  -26.0058   22.9011 H   0  0  0  0  0  0
  -19.7938  -30.7265   24.2263 H   0  0  0  0  0  0
  -17.5020  -31.6262   24.5161 H   0  0  0  0  0  0
  -15.5354  -30.2981   23.7652 H   0  0  0  0  0  0
  -15.8678  -28.0804   22.7087 H   0  0  0  0  0  0
  -24.5945  -30.7030   25.7808 H   0  0  0  0  0  0
  -24.8897  -32.2878   26.4860 H   0  0  0  0  0  0
  -25.8077  -30.8939   27.0263 H   0  0  0  0  0  0
  -26.2902  -29.6765   24.1213 H   0  0  0  0  0  0
  -27.4020  -29.7243   25.4697 H   0  0  0  0  0  0
  -27.8792  -30.4272   23.9429 H   0  0  0  0  0  0
  -27.2695  -33.3624   26.2063 H   0  0  0  0  0  0
  -28.3894  -32.6842   25.0336 H   0  0  0  0  0  0
  -28.0732  -31.8447   26.5440 H   0  0  0  0  0  0
  -28.2569  -38.0120   24.7550 H   0  0  0  0  0  0
  -28.1105  -36.2650   24.6216 H   0  0  0  0  0  0
  -27.2307  -37.1365   25.8859 H   0  0  0  0  0  0
  -20.9377  -29.8796   21.6896 H   0  0  0  0  0  0
  -26.0162  -38.2856   24.1451 H   0  0  0  0  0  0
  -31.0464  -21.6992   20.0277 H   0  0  0  0  0  0
  -27.1195  -20.2326   20.9463 H   0  0  0  0  0  0
  -32.7561  -20.2490   19.5111 H   0  0  0  0  0  0
  -32.5718  -18.5085   19.5004 H   0  0  0  0  0  0
  -32.9485  -19.3529   21.0126 H   0  0  0  0  0  0
  -27.0111  -24.7424   20.5115 H   0  0  0  0  0  0
  -27.7190  -24.8251   18.9004 H   0  0  0  0  0  0
  -27.4206  -22.5284   20.2214 H   0  0  0  0  0  0
  -29.0593  -15.8630   20.5675 H   0  0  0  0  0  0
  1 25  1  0  0  0
  1 30  2  0  0  0
  1 82  1  0  0  0
  2  3  1  0  0  0
  2 25  1  0  0  0
  2 86  1  0  0  0
  2 87  1  0  0  0
  3  4  1  0  0  0
  3 88  1  0  0  0
  3 89  1  0  0  0
  4  5  1  0  0  0
  4 90  1  0  0  0
  4 91  1  0  0  0
  5  6  1  0  0  0
  5 26  1  0  0  0
  5 92  1  0  0  0
  6 25  1  0  0  0
  6 93  1  0  0  0
  6 94  1  0  0  0
  7  8  2  0  0  0
  7 26  1  0  0  0
  7 29  1  0  0  0
  8  9  1  0  0  0
  8 22  1  0  0  0
  9 10  1  0  0  0
  9 27  2  0  0  0
 10 11  2  0  0  0
 10 15  1  0  0  0
 11 12  1  0  0  0
 11 95  1  0  0  0
 12 13  2  0  0  0
 12 96  1  0  0  0
 13 14  1  0  0  0
 13 31  1  0  0  0
 14 15  2  0  0  0
 14 97  1  0  0  0
 15 98  1  0  0  0
 16 17  2  0  0  0
 16 21  1  0  0  0
 16 31  1  0  0  0
 17 18  1  0  0  0
 17 99  1  0  0  0
 18 19  2  0  0  0
 18100  1  0  0  0
 19 20  1  0  0  0
 19 24  1  0  0  0
 20 21  2  0  0  0
 20101  1  0  0  0
 21 23  1  0  0  0
 22 28  1  0  0  0
 22 32  2  0  0  0
 26 27  1  0  0  0
 28102  1  0  0  0
 28103  1  0  0  0
 29104  1  0  0  0
 29105  1  0  0  0
 33 34  1  0  0  0
 33 66  1  0  0  0
 33 70  2  0  0  0
 34 36  1  0  0  0
 34 59  1  0  0  0
 34106  1  0  0  0
 35 44  2  0  0  0
 35 45  1  0  0  0
 35 68  1  0  0  0
 36 56  1  0  0  0
 36107  1  0  0  0
 37 39  1  0  0  0
 37 47  1  0  0  0
 37 66  1  0  0  0
 37108  1  0  0  0
 38 43  2  0  0  0
 38 46  1  0  0  0
 38 47  1  0  0  0
 39 64  1  0  0  0
 39 67  2  0  0  0
 40 52  1  0  0  0
 40 53  2  0  0  0
 40 58  1  0  0  0
 41109  1  0  0  0
 41110  1  0  0  0
 41111  1  0  0  0
 41 48  1  0  0  0
 42 43  1  0  0  0
 42 66  1  0  0  0
 42112  1  0  0  0
 42113  1  0  0  0
 43 44  1  0  0  0
 44114  1  0  0  0
 45 46  2  0  0  0
 45115  1  0  0  0
 46116  1  0  0  0
 47117  1  0  0  0
 47118  1  0  0  0
 48 56  1  0  0  0
 48 65  1  0  0  0
 48119  1  0  0  0
 49 50  1  0  0  0
 49 53  1  0  0  0
 49 64  1  0  0  0
 49120  1  0  0  0
 50 51  1  0  0  0
 50121  1  0  0  0
 50122  1  0  0  0
 51 52  1  0  0  0
 51123  1  0  0  0
 51124  1  0  0  0
 52125  1  0  0  0
 52126  1  0  0  0
 53 54  1  0  0  0
 54 55  2  0  0  0
 54127  1  0  0  0
 55 57  1  0  0  0
 55128  1  0  0  0
 56 69  2  0  0  0
 57 58  2  0  0  0
 57129  1  0  0  0
 58130  1  0  0  0
 59 60  1  0  0  0
 59 61  1  0  0  0
 59 62  1  0  0  0
 60131  1  0  0  0
 60132  1  0  0  0
 60133  1  0  0  0
 61134  1  0  0  0
 61135  1  0  0  0
 61136  1  0  0  0
 62137  1  0  0  0
 62138  1  0  0  0
 62139  1  0  0  0
 63 65  1  0  0  0
 63140  1  0  0  0
 63141  1  0  0  0
 63142  1  0  0  0
 64143  1  0  0  0
 65144  1  0  0  0
 68 80  1  0  0  0
 71 74  2  0  0  0
 71 75  1  0  0  0
 71145  1  0  0  0
 72 75  2  0  0  0
 72 76  1  0  0  0
 72146  1  0  0  0
 73 74  1  0  0  0
 73 76  2  0  0  0
 73 77  1  0  0  0
 74 79  1  0  0  0
 75 81  1  0  0  0
 76 85  1  0  0  0
 77 82  1  0  0  0
 77 83  2  0  0  0
 78 80  1  0  0  0
 78 81  1  0  0  0
 78 84  2  0  0  0
 79147  1  0  0  0
 79148  1  0  0  0
 79149  1  0  0  0
 80150  1  0  0  0
 80151  1  0  0  0
 81152  1  0  0  0
 82153  1  0  0  0
M  ISO  4   1 100  68 101  80 101  82 100
M  END
> <chiral flag>
0

> <version>
0

> <s_m_source_file>
/data/baiqing/PycharmProjects/Reinvent-master-3.2/result/LINK_invent/BTK/process_docking_weight1_custom_product_contain_oxygen_bond_distance_aromatic_linkinvent_7_9_3/rearranged_h_0092.sdf

> <i_m_source_file_index>
50

> <r_mmod_Potential_Energy-OPLS-2005>
104.618637084961

> <r_mmod_Stretch_Energy-OPLS-2005>
87.7673263549805

> <r_mmod_Bend_Energy-OPLS-2005>
156.670928955078

> <r_mmod_Torsional_Energy-OPLS-2005>
245.634536743164

> <r_mmod_Improper_Torsional_Energy-OPLS-2005>
6.06277656555176

> <r_mmod_Van_der_Waal_Energy-OPLS-2005>
165.41471862793

> <r_mmod_Electrostatic_Energy-OPLS-2005>
-376.569427490234

> <r_mmod_Solvation_Energy-OPLS-2005>
-245.365432739258

> <b_mmod_Minimization_Converged-OPLS-2005>
0

> <r_mmod_RMS_Derivative-OPLS-2005>
0.841373145580292

$$$$
50
                    3D
 Structure written by MMmdl.
154162  0  0  1  0            999 V2000
  -30.7008  -14.5337   20.5368 C   0  0  0  0  0  0
  -30.4184  -12.3365   19.4387 C   0  0  0  0  0  0
  -29.4959  -12.5030   18.2141 C   0  0  0  0  0  0
  -28.0189  -12.3583   18.6273 C   0  0  0  0  0  0
  -27.6553  -13.2178   19.8678 C   0  0  2  0  0  0
  -28.6997  -13.0515   20.9956 C   0  0  0  0  0  0
  -25.2556  -13.8178   20.5690 C   0  0  0  0  0  0
  -24.1825  -13.0439   20.9196 C   0  0  0  0  0  0
  -24.6396  -11.6912   20.8744 C   0  0  0  0  0  0
  -23.9066  -10.4297   21.0397 C   0  0  0  0  0  0
  -24.3612   -9.4212   21.9177 C   0  0  0  0  0  0
  -23.6295   -8.2241   22.0751 C   0  0  0  0  0  0
  -22.4276   -8.0278   21.3543 C   0  0  0  0  0  0
  -21.9911   -9.0248   20.4640 C   0  0  0  0  0  0
  -22.7238  -10.2128   20.3045 C   0  0  0  0  0  0
  -21.6853   -6.0730   22.5280 C   0  0  0  0  0  0
  -21.4009   -6.5630   23.8215 C   0  0  0  0  0  0
  -21.3657   -5.6782   24.9177 C   0  0  0  0  0  0
  -21.6045   -4.3046   24.7226 C   0  0  0  0  0  0
  -21.8822   -3.8140   23.4346 C   0  0  0  0  0  0
  -21.9194   -4.6959   22.3399 C   0  0  0  0  0  0
  -22.7850  -13.5230   21.1860 C   0  0  0  0  0  0
  -22.1665   -4.2145   21.0980 F   0  0  0  0  0  0
  -21.5622   -3.4526   25.7736 F   0  0  0  0  0  0
  -30.0241  -13.3525   20.4317 N   0  0  0  0  0  0
  -26.2999  -12.9370   20.3351 N   0  0  0  0  0  0
  -25.9326  -11.6519   20.5771 N   0  0  0  0  0  0
  -22.0482  -12.8214   22.0403 N   0  0  0  0  0  0
  -25.4272  -15.1899   20.4099 N   0  0  0  0  0  0
  -31.8473  -14.6511   20.0997 O   0  0  0  0  0  0
  -21.6639   -6.8873   21.4245 O   0  0  0  0  0  0
  -22.3543  -14.5544   20.6726 O   0  0  0  0  0  0
  -24.6186  -31.8661   23.2088 C   0  0  0  0  0  0
  -25.9069  -32.4808   23.8400 C   0  0  1  0  0  0
  -27.2241  -27.3976   20.1059 C   0  0  0  0  0  0
  -25.5914  -33.8606   24.2329 N   0  0  0  0  0  0
  -23.4089  -30.4909   21.5488 C   0  0  2  0  0  0
  -24.8564  -28.9592   20.1081 C   0  0  0  0  0  0
  -22.7442  -29.4659   22.4968 C   0  0  0  0  0  0
  -18.0267  -28.1397   22.8493 C   0  0  0  0  0  0
  -24.1479  -36.7292   23.2642 C   0  0  0  0  0  0
  -25.9428  -30.8221   21.3676 C   0  0  0  0  0  0
  -26.0208  -29.4557   20.7101 C   0  0  0  0  0  0
  -27.2115  -28.6828   20.7062 C   0  0  0  0  0  0
  -26.0467  -26.9384   19.4745 C   0  0  0  0  0  0
  -24.8661  -27.7012   19.4845 C   0  0  0  0  0  0
  -23.6188  -29.8272   20.1625 C   0  0  0  0  0  0
  -25.4099  -36.3102   24.0351 C   0  0  1  0  0  0
  -20.5866  -28.3685   23.1308 C   0  0  2  0  0  0
  -20.6753  -26.9420   22.5417 C   0  0  0  0  0  0
  -19.5735  -26.6399   21.5216 C   0  0  0  0  0  0
  -18.1914  -26.7944   22.1622 C   0  0  0  0  0  0
  -19.1521  -28.8859   23.2890 C   0  0  0  0  0  0
  -18.9449  -30.1458   23.8903 C   0  0  0  0  0  0
  -17.6451  -30.6598   24.0566 C   0  0  0  0  0  0
  -25.9040  -34.9468   23.5136 C   0  0  0  0  0  0
  -16.5340  -29.9097   23.6337 C   0  0  0  0  0  0
  -16.7257  -28.6511   23.0361 C   0  0  0  0  0  0
  -26.4481  -31.6595   25.0736 C   0  0  0  0  0  0
  -25.3739  -31.3697   26.1475 C   0  0  0  0  0  0
  -27.0307  -30.3027   24.6135 C   0  0  0  0  0  0
  -27.6054  -32.4316   25.7497 C   0  0  0  0  0  0
  -27.5584  -37.1793   24.8467 C   0  0  0  0  0  0
  -21.4168  -29.3042   22.3716 N   0  0  0  0  0  0
  -26.4274  -37.3799   23.9442 N   0  0  0  0  0  0
  -24.6750  -31.0736   22.1002 N   0  0  0  0  0  0
  -23.4199  -28.8202   23.3020 O   0  0  0  0  0  0
  -28.3174  -26.5458   20.1691 O   0  0  0  0  0  0
  -26.5599  -34.8927   22.4690 O   0  0  0  0  0  0
  -23.5370  -32.1425   23.7466 O   0  0  0  0  0  0
  -31.0710  -19.7796   21.1719 C   0  0  0  0  0  0
  -29.3760  -18.0283   21.0316 C   0  0  0  0  0  0
  -31.7261  -17.4235   21.1045 C   0  0  0  0  0  0
  -29.7080  -19.4192   21.0991 C   0  0  0  0  0  0
  -32.0707  -18.7896   21.1735 C   0  0  0  0  0  0
  -30.3724  -17.0081   21.0215 C   0  0  0  0  0  0
  -28.0311  -25.2914   20.7022 C   0  0  0  0  0  0
  -28.6245  -20.4796   21.2253 C   0  0  0  0  0  0
  -28.6806  -24.1182   20.4678 C   0  0  0  0  0  0
  -28.1558  -22.8775   21.0791 C   0  0  0  0  0  0
  -33.4101  -19.1656   21.2619 N   0  0  0  0  0  0
  -29.9887  -15.6083   20.9758 N   0  0  0  0  0  0
  -28.9068  -21.7629   20.8598 N   0  0  0  0  0  0
  -27.5205  -20.1103   21.6430 O   0  0  0  0  0  0
  -27.1096  -22.8633   21.7395 O   0  0  0  0  0  0
  -29.7658  -24.0777   19.6810 O   0  0  0  0  0  0
  -31.4635  -12.4247   19.1368 H   0  0  0  0  0  0
  -30.3165  -11.3364   19.8623 H   0  0  0  0  0  0
  -29.7436  -11.7642   17.4504 H   0  0  0  0  0  0
  -29.6589  -13.4811   17.7576 H   0  0  0  0  0  0
  -27.8395  -11.3048   18.8430 H   0  0  0  0  0  0
  -27.3663  -12.6106   17.7907 H   0  0  0  0  0  0
  -27.6830  -14.2579   19.5428 H   0  0  0  0  0  0
  -28.6864  -12.0317   21.3828 H   0  0  0  0  0  0
  -28.4611  -13.6944   21.8445 H   0  0  0  0  0  0
  -25.2754   -9.5695   22.4757 H   0  0  0  0  0  0
  -24.0005   -7.4631   22.7474 H   0  0  0  0  0  0
  -21.0838   -8.8761   19.8951 H   0  0  0  0  0  0
  -22.3687  -10.9656   19.6149 H   0  0  0  0  0  0
  -21.1998   -7.6138   23.9719 H   0  0  0  0  0  0
  -21.1468   -6.0506   25.9082 H   0  0  0  0  0  0
  -22.0597   -2.7602   23.2840 H   0  0  0  0  0  0
  -22.4061  -11.9844   22.4762 H   0  0  0  0  0  0
  -21.1116  -13.1273   22.2624 H   0  0  0  0  0  0
  -24.6613  -15.8464   20.5153 H   0  0  0  0  0  0
  -26.2758  -15.6244   20.0706 H   0  0  0  0  0  0
  -26.7142  -32.5511   23.1164 H   0  0  0  0  0  0
  -25.0093  -33.9766   25.0491 H   0  0  0  0  0  0
  -22.6988  -31.3085   21.4101 H   0  0  0  0  0  0
  -23.3773  -35.9591   23.3267 H   0  0  0  0  0  0
  -24.3593  -36.8941   22.2066 H   0  0  0  0  0  0
  -23.7190  -37.6470   23.6663 H   0  0  0  0  0  0
  -26.0618  -31.5896   20.6013 H   0  0  0  0  0  0
  -26.8284  -30.8729   21.9893 H   0  0  0  0  0  0
  -28.1039  -29.0525   21.1911 H   0  0  0  0  0  0
  -26.0317  -25.9680   18.9995 H   0  0  0  0  0  0
  -23.9728  -27.3139   19.0139 H   0  0  0  0  0  0
  -23.7269  -30.6028   19.4033 H   0  0  0  0  0  0
  -22.7430  -29.2468   19.8673 H   0  0  0  0  0  0
  -25.1269  -36.1959   25.0840 H   0  0  0  0  0  0
  -20.9951  -28.3243   24.1433 H   0  0  0  0  0  0
  -20.5666  -26.2302   23.3611 H   0  0  0  0  0  0
  -21.6621  -26.7467   22.1207 H   0  0  0  0  0  0
  -19.6898  -25.6312   21.1248 H   0  0  0  0  0  0
  -19.6681  -27.3206   20.6742 H   0  0  0  0  0  0
  -17.4200  -26.6720   21.4006 H   0  0  0  0  0  0
  -18.0292  -26.0076   22.9000 H   0  0  0  0  0  0
  -19.7925  -30.7262   24.2286 H   0  0  0  0  0  0
  -17.5018  -31.6286   24.5160 H   0  0  0  0  0  0
  -15.5343  -30.3002   23.7666 H   0  0  0  0  0  0
  -15.8657  -28.0834   22.7082 H   0  0  0  0  0  0
  -24.5930  -30.7015   25.7819 H   0  0  0  0  0  0
  -24.8890  -32.2838   26.4913 H   0  0  0  0  0  0
  -25.8101  -30.8894   27.0241 H   0  0  0  0  0  0
  -26.2849  -29.6797   24.1177 H   0  0  0  0  0  0
  -27.4044  -29.7265   25.4612 H   0  0  0  0  0  0
  -27.8708  -30.4325   23.9305 H   0  0  0  0  0  0
  -27.2684  -33.3635   26.2045 H   0  0  0  0  0  0
  -28.3870  -32.6847   25.0321 H   0  0  0  0  0  0
  -28.0700  -31.8454   26.5433 H   0  0  0  0  0  0
  -28.2563  -38.0129   24.7575 H   0  0  0  0  0  0
  -28.1110  -36.2666   24.6189 H   0  0  0  0  0  0
  -27.2329  -37.1326   25.8874 H   0  0  0  0  0  0
  -20.9344  -29.8762   21.6925 H   0  0  0  0  0  0
  -26.0160  -38.2868   24.1480 H   0  0  0  0  0  0
  -31.3528  -20.8195   21.2589 H   0  0  0  0  0  0
  -28.3326  -17.7444   21.0013 H   0  0  0  0  0  0
  -32.5238  -16.6975   21.1364 H   0  0  0  0  0  0
  -27.1688  -25.3301   21.3576 H   0  0  0  0  0  0
  -33.6423  -20.0938   21.6043 H   0  0  0  0  0  0
  -34.1036  -18.4669   21.5155 H   0  0  0  0  0  0
  -29.0287  -15.4024   21.2057 H   0  0  0  0  0  0
  -29.7794  -21.9329   20.3853 H   0  0  0  0  0  0
  -29.9197  -24.9670   19.3879 H   0  0  0  0  0  0
  1 25  1  0  0  0
  1 30  2  0  0  0
  1 82  1  0  0  0
  2  3  1  0  0  0
  2 25  1  0  0  0
  2 87  1  0  0  0
  2 88  1  0  0  0
  3  4  1  0  0  0
  3 89  1  0  0  0
  3 90  1  0  0  0
  4  5  1  0  0  0
  4 91  1  0  0  0
  4 92  1  0  0  0
  5  6  1  0  0  0
  5 26  1  0  0  0
  5 93  1  0  0  0
  6 25  1  0  0  0
  6 94  1  0  0  0
  6 95  1  0  0  0
  7  8  2  0  0  0
  7 26  1  0  0  0
  7 29  1  0  0  0
  8  9  1  0  0  0
  8 22  1  0  0  0
  9 10  1  0  0  0
  9 27  2  0  0  0
 10 11  2  0  0  0
 10 15  1  0  0  0
 11 12  1  0  0  0
 11 96  1  0  0  0
 12 13  2  0  0  0
 12 97  1  0  0  0
 13 14  1  0  0  0
 13 31  1  0  0  0
 14 15  2  0  0  0
 14 98  1  0  0  0
 15 99  1  0  0  0
 16 17  2  0  0  0
 16 21  1  0  0  0
 16 31  1  0  0  0
 17 18  1  0  0  0
 17100  1  0  0  0
 18 19  2  0  0  0
 18101  1  0  0  0
 19 20  1  0  0  0
 19 24  1  0  0  0
 20 21  2  0  0  0
 20102  1  0  0  0
 21 23  1  0  0  0
 22 28  1  0  0  0
 22 32  2  0  0  0
 26 27  1  0  0  0
 28103  1  0  0  0
 28104  1  0  0  0
 29105  1  0  0  0
 29106  1  0  0  0
 33 34  1  0  0  0
 33 66  1  0  0  0
 33 70  2  0  0  0
 34 36  1  0  0  0
 34 59  1  0  0  0
 34107  1  0  0  0
 35 44  2  0  0  0
 35 45  1  0  0  0
 35 68  1  0  0  0
 36 56  1  0  0  0
 36108  1  0  0  0
 37 39  1  0  0  0
 37 47  1  0  0  0
 37 66  1  0  0  0
 37109  1  0  0  0
 38 43  2  0  0  0
 38 46  1  0  0  0
 38 47  1  0  0  0
 39 64  1  0  0  0
 39 67  2  0  0  0
 40 52  1  0  0  0
 40 53  2  0  0  0
 40 58  1  0  0  0
 41110  1  0  0  0
 41111  1  0  0  0
 41112  1  0  0  0
 41 48  1  0  0  0
 42 43  1  0  0  0
 42 66  1  0  0  0
 42113  1  0  0  0
 42114  1  0  0  0
 43 44  1  0  0  0
 44115  1  0  0  0
 45 46  2  0  0  0
 45116  1  0  0  0
 46117  1  0  0  0
 47118  1  0  0  0
 47119  1  0  0  0
 48 56  1  0  0  0
 48 65  1  0  0  0
 48120  1  0  0  0
 49 50  1  0  0  0
 49 53  1  0  0  0
 49 64  1  0  0  0
 49121  1  0  0  0
 50 51  1  0  0  0
 50122  1  0  0  0
 50123  1  0  0  0
 51 52  1  0  0  0
 51124  1  0  0  0
 51125  1  0  0  0
 52126  1  0  0  0
 52127  1  0  0  0
 53 54  1  0  0  0
 54 55  2  0  0  0
 54128  1  0  0  0
 55 57  1  0  0  0
 55129  1  0  0  0
 56 69  2  0  0  0
 57 58  2  0  0  0
 57130  1  0  0  0
 58131  1  0  0  0
 59 60  1  0  0  0
 59 61  1  0  0  0
 59 62  1  0  0  0
 60132  1  0  0  0
 60133  1  0  0  0
 60134  1  0  0  0
 61135  1  0  0  0
 61136  1  0  0  0
 61137  1  0  0  0
 62138  1  0  0  0
 62139  1  0  0  0
 62140  1  0  0  0
 63 65  1  0  0  0
 63141  1  0  0  0
 63142  1  0  0  0
 63143  1  0  0  0
 64144  1  0  0  0
 65145  1  0  0  0
 68 77  1  0  0  0
 71 74  2  0  0  0
 71 75  1  0  0  0
 71146  1  0  0  0
 72 74  1  0  0  0
 72 76  2  0  0  0
 72147  1  0  0  0
 73 75  2  0  0  0
 73 76  1  0  0  0
 73148  1  0  0  0
 74 78  1  0  0  0
 75 81  1  0  0  0
 76 82  1  0  0  0
 77 79  2  0  0  0
 77149  1  0  0  0
 78 83  1  0  0  0
 78 84  2  0  0  0
 79 80  1  0  0  0
 79 86  1  0  0  0
 80 83  1  0  0  0
 80 85  2  0  0  0
 81150  1  0  0  0
 81151  1  0  0  0
 82152  1  0  0  0
 83153  1  0  0  0
 86154  1  0  0  0
M  ISO  4   1 100  68 101  77 101  82 100
M  END
> <chiral flag>
0

> <version>
0

> <s_m_source_file>
/data/baiqing/PycharmProjects/Reinvent-master-3.2/result/LINK_invent/BTK/process_docking_weight1_custom_product_contain_oxygen_bond_distance_aromatic_linkinvent_7_9_3/rearranged_h_0092.sdf

> <i_m_source_file_index>
51

> <r_mmod_Potential_Energy-OPLS-2005>
-233.605728149414

> <r_mmod_Stretch_Energy-OPLS-2005>
51.7684860229492

> <r_mmod_Bend_Energy-OPLS-2005>
109.3037109375

> <r_mmod_Torsional_Energy-OPLS-2005>
218.936828613281

> <r_mmod_Improper_Torsional_Energy-OPLS-2005>
7.43406629562378

> <r_mmod_Van_der_Waal_Energy-OPLS-2005>
172.295822143555

> <r_mmod_Electrostatic_Energy-OPLS-2005>
-555.439819335938

> <r_mmod_Solvation_Energy-OPLS-2005>
-263.9384765625

> <b_mmod_Minimization_Converged-OPLS-2005>
0

> <r_mmod_RMS_Derivative-OPLS-2005>
1.39332211017609

$$$$
51
                    3D
 Structure written by MMmdl.
161170  0  0  1  0            999 V2000
  -30.6947  -14.5479   20.4729 C   0  0  0  0  0  0
  -30.4157  -12.3324   19.4319 C   0  0  0  0  0  0
  -29.4921  -12.4859   18.2060 C   0  0  0  0  0  0
  -28.0134  -12.3436   18.6215 C   0  0  0  0  0  0
  -27.6484  -13.2194   19.8510 C   0  0  2  0  0  0
  -28.6977  -13.0839   20.9779 C   0  0  0  0  0  0
  -25.2578  -13.8185   20.5723 C   0  0  0  0  0  0
  -24.1864  -13.0439   20.9232 C   0  0  0  0  0  0
  -24.6411  -11.6907   20.8734 C   0  0  0  0  0  0
  -23.9057  -10.4296   21.0387 C   0  0  0  0  0  0
  -24.3608   -9.4216   21.9156 C   0  0  0  0  0  0
  -23.6284   -8.2261   22.0740 C   0  0  0  0  0  0
  -22.4255   -8.0289   21.3549 C   0  0  0  0  0  0
  -21.9861   -9.0288   20.4684 C   0  0  0  0  0  0
  -22.7195  -10.2165   20.3085 C   0  0  0  0  0  0
  -21.6865   -6.0722   22.5285 C   0  0  0  0  0  0
  -21.4025   -6.5639   23.8212 C   0  0  0  0  0  0
  -21.3662   -5.6792   24.9182 C   0  0  0  0  0  0
  -21.6052   -4.3051   24.7248 C   0  0  0  0  0  0
  -21.8817   -3.8138   23.4374 C   0  0  0  0  0  0
  -21.9204   -4.6948   22.3423 C   0  0  0  0  0  0
  -22.7874  -13.5223   21.1872 C   0  0  0  0  0  0
  -22.1659   -4.2114   21.1002 F   0  0  0  0  0  0
  -21.5614   -3.4550   25.7774 F   0  0  0  0  0  0
  -30.0150  -13.3679   20.3983 N   0  0  0  0  0  0
  -26.2983  -12.9364   20.3279 N   0  0  0  0  0  0
  -25.9331  -11.6508   20.5725 N   0  0  0  0  0  0
  -22.0584  -12.8225   22.0483 N   0  0  0  0  0  0
  -25.4221  -15.1907   20.4108 N   0  0  0  0  0  0
  -31.8798  -14.6411   20.1614 O   0  0  0  0  0  0
  -21.6665   -6.8855   21.4228 O   0  0  0  0  0  0
  -22.3500  -14.5451   20.6635 O   0  0  0  0  0  0
  -24.6163  -31.8646   23.2073 C   0  0  0  0  0  0
  -25.9038  -32.4814   23.8384 C   0  0  1  0  0  0
  -27.2374  -27.4137   20.0924 C   0  0  0  0  0  0
  -25.5891  -33.8612   24.2315 N   0  0  0  0  0  0
  -23.4096  -30.4849   21.5476 C   0  0  2  0  0  0
  -24.8628  -28.9557   20.1040 C   0  0  0  0  0  0
  -22.7449  -29.4621   22.4953 C   0  0  0  0  0  0
  -18.0258  -28.1388   22.8471 C   0  0  0  0  0  0
  -24.1491  -36.7326   23.2627 C   0  0  0  0  0  0
  -25.9424  -30.8256   21.3653 C   0  0  0  0  0  0
  -26.0249  -29.4624   20.7024 C   0  0  0  0  0  0
  -27.2189  -28.6990   20.6947 C   0  0  0  0  0  0
  -26.0652  -26.9332   19.4793 C   0  0  0  0  0  0
  -24.8783  -27.6919   19.4893 C   0  0  0  0  0  0
  -23.6210  -29.8179   20.1627 C   0  0  0  0  0  0
  -25.4109  -36.3107   24.0322 C   0  0  1  0  0  0
  -20.5856  -28.3670   23.1315 C   0  0  2  0  0  0
  -20.6762  -26.9396   22.5437 C   0  0  0  0  0  0
  -19.5748  -26.6378   21.5223 C   0  0  0  0  0  0
  -18.1914  -26.7927   22.1612 C   0  0  0  0  0  0
  -19.1509  -28.8837   23.2894 C   0  0  0  0  0  0
  -18.9438  -30.1441   23.8900 C   0  0  0  0  0  0
  -17.6448  -30.6588   24.0542 C   0  0  0  0  0  0
  -25.9035  -34.9465   23.5113 C   0  0  0  0  0  0
  -16.5336  -29.9088   23.6322 C   0  0  0  0  0  0
  -16.7249  -28.6514   23.0325 C   0  0  0  0  0  0
  -26.4458  -31.6611   25.0724 C   0  0  0  0  0  0
  -25.3714  -31.3762   26.1475 C   0  0  0  0  0  0
  -27.0281  -30.3036   24.6138 C   0  0  0  0  0  0
  -27.6053  -32.4320   25.7476 C   0  0  0  0  0  0
  -27.5586  -37.1814   24.8450 C   0  0  0  0  0  0
  -21.4162  -29.3029   22.3727 N   0  0  0  0  0  0
  -26.4293  -37.3788   23.9390 N   0  0  0  0  0  0
  -24.6745  -31.0708   22.0994 N   0  0  0  0  0  0
  -23.4222  -28.8164   23.2997 O   0  0  0  0  0  0
  -28.3170  -26.5563   20.1801 O   0  0  0  0  0  0
  -26.5609  -34.8914   22.4686 O   0  0  0  0  0  0
  -23.5346  -32.1396   23.7443 O   0  0  0  0  0  0
  -29.7942  -18.9155   22.2094 C   0  0  0  0  0  0
  -29.4714  -20.2904   22.1934 C   0  0  0  0  0  0
  -28.1974  -19.9651   20.1555 C   0  0  0  0  0  0
  -29.2902  -18.0210   21.2354 C   0  0  0  0  0  0
  -28.6145  -20.8238   21.2032 C   0  0  0  0  0  0
  -28.5255  -18.5805   20.1705 C   0  0  0  0  0  0
  -28.4770  -24.6296   21.7359 C   0  0  0  0  0  0
  -27.0543  -22.1774   22.3740 C   0  0  0  0  0  0
  -28.3939  -25.9488   21.4141 C   0  0  0  0  0  0
  -28.2442  -24.2515   23.1801 C   0  0  0  0  0  0
  -28.5897  -23.3807   20.8252 C   0  0  0  0  0  0
  -26.9424  -23.4436   23.2269 C   0  0  0  0  0  0
  -29.4721  -16.4955   21.4846 C   0  0  0  0  0  0
  -28.0240  -22.1233   21.4209 N   0  0  0  0  0  0
  -28.0313  -17.7706   19.1508 N   0  0  0  0  0  0
  -29.9514  -15.6708   20.3657 N   0  0  0  0  0  0
  -26.2779  -21.2446   22.6079 O   0  0  0  0  0  0
  -31.4593  -12.4252   19.1269 H   0  0  0  0  0  0
  -30.3172  -11.3370   19.8692 H   0  0  0  0  0  0
  -29.7363  -11.7398   17.4495 H   0  0  0  0  0  0
  -29.6540  -13.4599   17.7395 H   0  0  0  0  0  0
  -27.8400  -11.2916   18.8501 H   0  0  0  0  0  0
  -27.3557  -12.5793   17.7822 H   0  0  0  0  0  0
  -27.6601  -14.2531   19.5051 H   0  0  0  0  0  0
  -28.6844  -12.0790   21.4024 H   0  0  0  0  0  0
  -28.4695  -13.7657   21.7968 H   0  0  0  0  0  0
  -25.2756   -9.5718   22.4709 H   0  0  0  0  0  0
  -24.0008   -7.4658   22.7458 H   0  0  0  0  0  0
  -21.0764   -8.8839   19.9026 H   0  0  0  0  0  0
  -22.3612  -10.9733   19.6246 H   0  0  0  0  0  0
  -21.2010   -7.6145   23.9715 H   0  0  0  0  0  0
  -21.1477   -6.0525   25.9080 H   0  0  0  0  0  0
  -22.0573   -2.7602   23.2900 H   0  0  0  0  0  0
  -22.4375  -12.0007   22.4969 H   0  0  0  0  0  0
  -21.1170  -13.1142   22.2680 H   0  0  0  0  0  0
  -26.2450  -15.6416   20.0292 H   0  0  0  0  0  0
  -24.6614  -15.8373   20.5840 H   0  0  0  0  0  0
  -26.7114  -32.5497   23.1158 H   0  0  0  0  0  0
  -25.0018  -33.9774   25.0443 H   0  0  0  0  0  0
  -22.6988  -31.3010   21.4068 H   0  0  0  0  0  0
  -23.3736  -35.9675   23.3297 H   0  0  0  0  0  0
  -24.3596  -36.8926   22.2040 H   0  0  0  0  0  0
  -23.7261  -37.6539   23.6646 H   0  0  0  0  0  0
  -26.0586  -31.5964   20.6013 H   0  0  0  0  0  0
  -26.8282  -30.8774   21.9864 H   0  0  0  0  0  0
  -28.1096  -29.0752   21.1784 H   0  0  0  0  0  0
  -26.0627  -25.9521   19.0270 H   0  0  0  0  0  0
  -23.9833  -27.2921   19.0336 H   0  0  0  0  0  0
  -23.7234  -30.5947   19.4054 H   0  0  0  0  0  0
  -22.7471  -29.2348   19.8674 H   0  0  0  0  0  0
  -25.1279  -36.1978   25.0813 H   0  0  0  0  0  0
  -20.9914  -28.3227   24.1446 H   0  0  0  0  0  0
  -20.5650  -26.2260   23.3618 H   0  0  0  0  0  0
  -21.6637  -26.7432   22.1235 H   0  0  0  0  0  0
  -19.6928  -25.6294   21.1234 H   0  0  0  0  0  0
  -19.6718  -27.3196   20.6761 H   0  0  0  0  0  0
  -17.4199  -26.6636   21.4009 H   0  0  0  0  0  0
  -18.0324  -26.0093   22.9029 H   0  0  0  0  0  0
  -19.7912  -30.7239   24.2302 H   0  0  0  0  0  0
  -17.4995  -31.6255   24.5151 H   0  0  0  0  0  0
  -15.5334  -30.2983   23.7649 H   0  0  0  0  0  0
  -15.8646  -28.0830   22.7044 H   0  0  0  0  0  0
  -24.5914  -30.7071   25.7835 H   0  0  0  0  0  0
  -24.8879  -32.2937   26.4841 H   0  0  0  0  0  0
  -25.8050  -30.9014   27.0286 H   0  0  0  0  0  0
  -26.2876  -29.6858   24.1059 H   0  0  0  0  0  0
  -27.3878  -29.7209   25.4627 H   0  0  0  0  0  0
  -27.8776  -30.4322   23.9430 H   0  0  0  0  0  0
  -27.2711  -33.3623   26.2073 H   0  0  0  0  0  0
  -28.3866  -32.6867   25.0307 H   0  0  0  0  0  0
  -28.0735  -31.8435   26.5373 H   0  0  0  0  0  0
  -28.2593  -38.0116   24.7481 H   0  0  0  0  0  0
  -28.1089  -36.2650   24.6289 H   0  0  0  0  0  0
  -27.2306  -37.1461   25.8849 H   0  0  0  0  0  0
  -20.9332  -29.8744   21.6933 H   0  0  0  0  0  0
  -26.0189  -38.2860   24.1398 H   0  0  0  0  0  0
  -30.3831  -18.5360   23.0318 H   0  0  0  0  0  0
  -29.8078  -20.9181   23.0076 H   0  0  0  0  0  0
  -27.5487  -20.3578   19.3850 H   0  0  0  0  0  0
  -28.2587  -26.6799   22.2001 H   0  0  0  0  0  0
  -28.1736  -25.1275   23.8250 H   0  0  0  0  0  0
  -29.0845  -23.6584   23.5477 H   0  0  0  0  0  0
  -29.6484  -23.2100   20.6238 H   0  0  0  0  0  0
  -28.1099  -23.5807   19.8661 H   0  0  0  0  0  0
  -26.7060  -23.1680   24.2544 H   0  0  0  0  0  0
  -26.1056  -24.0393   22.8604 H   0  0  0  0  0  0
  -28.5037  -16.1105   21.8042 H   0  0  0  0  0  0
  -30.1451  -16.3541   22.3325 H   0  0  0  0  0  0
  -27.3024  -18.0842   18.5179 H   0  0  0  0  0  0
  -28.2327  -16.7773   19.1292 H   0  0  0  0  0  0
  -30.3716  -16.2822   19.6806 H   0  0  0  0  0  0
  1 25  1  0  0  0
  1 30  2  0  0  0
  1 86  1  0  0  0
  2  3  1  0  0  0
  2 25  1  0  0  0
  2 88  1  0  0  0
  2 89  1  0  0  0
  3  4  1  0  0  0
  3 90  1  0  0  0
  3 91  1  0  0  0
  4  5  1  0  0  0
  4 92  1  0  0  0
  4 93  1  0  0  0
  5  6  1  0  0  0
  5 26  1  0  0  0
  5 94  1  0  0  0
  6 25  1  0  0  0
  6 95  1  0  0  0
  6 96  1  0  0  0
  7  8  2  0  0  0
  7 26  1  0  0  0
  7 29  1  0  0  0
  8  9  1  0  0  0
  8 22  1  0  0  0
  9 10  1  0  0  0
  9 27  2  0  0  0
 10 11  2  0  0  0
 10 15  1  0  0  0
 11 12  1  0  0  0
 11 97  1  0  0  0
 12 13  2  0  0  0
 12 98  1  0  0  0
 13 14  1  0  0  0
 13 31  1  0  0  0
 14 15  2  0  0  0
 14 99  1  0  0  0
 15100  1  0  0  0
 16 17  2  0  0  0
 16 21  1  0  0  0
 16 31  1  0  0  0
 17 18  1  0  0  0
 17101  1  0  0  0
 18 19  2  0  0  0
 18102  1  0  0  0
 19 20  1  0  0  0
 19 24  1  0  0  0
 20 21  2  0  0  0
 20103  1  0  0  0
 21 23  1  0  0  0
 22 28  1  0  0  0
 22 32  2  0  0  0
 26 27  1  0  0  0
 28104  1  0  0  0
 28105  1  0  0  0
 29106  1  0  0  0
 29107  1  0  0  0
 33 34  1  0  0  0
 33 66  1  0  0  0
 33 70  2  0  0  0
 34 36  1  0  0  0
 34 59  1  0  0  0
 34108  1  0  0  0
 35 44  2  0  0  0
 35 45  1  0  0  0
 35 68  1  0  0  0
 36 56  1  0  0  0
 36109  1  0  0  0
 37 39  1  0  0  0
 37 47  1  0  0  0
 37 66  1  0  0  0
 37110  1  0  0  0
 38 43  2  0  0  0
 38 46  1  0  0  0
 38 47  1  0  0  0
 39 64  1  0  0  0
 39 67  2  0  0  0
 40 52  1  0  0  0
 40 53  2  0  0  0
 40 58  1  0  0  0
 41111  1  0  0  0
 41112  1  0  0  0
 41113  1  0  0  0
 41 48  1  0  0  0
 42 43  1  0  0  0
 42 66  1  0  0  0
 42114  1  0  0  0
 42115  1  0  0  0
 43 44  1  0  0  0
 44116  1  0  0  0
 45 46  2  0  0  0
 45117  1  0  0  0
 46118  1  0  0  0
 47119  1  0  0  0
 47120  1  0  0  0
 48 56  1  0  0  0
 48 65  1  0  0  0
 48121  1  0  0  0
 49 50  1  0  0  0
 49 53  1  0  0  0
 49 64  1  0  0  0
 49122  1  0  0  0
 50 51  1  0  0  0
 50123  1  0  0  0
 50124  1  0  0  0
 51 52  1  0  0  0
 51125  1  0  0  0
 51126  1  0  0  0
 52127  1  0  0  0
 52128  1  0  0  0
 53 54  1  0  0  0
 54 55  2  0  0  0
 54129  1  0  0  0
 55 57  1  0  0  0
 55130  1  0  0  0
 56 69  2  0  0  0
 57 58  2  0  0  0
 57131  1  0  0  0
 58132  1  0  0  0
 59 60  1  0  0  0
 59 61  1  0  0  0
 59 62  1  0  0  0
 60133  1  0  0  0
 60134  1  0  0  0
 60135  1  0  0  0
 61136  1  0  0  0
 61137  1  0  0  0
 61138  1  0  0  0
 62139  1  0  0  0
 62140  1  0  0  0
 62141  1  0  0  0
 63 65  1  0  0  0
 63142  1  0  0  0
 63143  1  0  0  0
 63144  1  0  0  0
 64145  1  0  0  0
 65146  1  0  0  0
 68 79  1  0  0  0
 71 72  2  0  0  0
 71 74  1  0  0  0
 71147  1  0  0  0
 72 75  1  0  0  0
 72148  1  0  0  0
 73 75  2  0  0  0
 73 76  1  0  0  0
 73149  1  0  0  0
 74 76  2  0  0  0
 74 83  1  0  0  0
 75 84  1  0  0  0
 76 85  1  0  0  0
 77 79  2  0  0  0
 77 80  1  0  0  0
 77 81  1  0  0  0
 78 82  1  0  0  0
 78 84  1  0  0  0
 78 87  2  0  0  0
 79150  1  0  0  0
 80 82  1  0  0  0
 80151  1  0  0  0
 80152  1  0  0  0
 81 84  1  0  0  0
 81153  1  0  0  0
 81154  1  0  0  0
 82155  1  0  0  0
 82156  1  0  0  0
 83 86  1  0  0  0
 83157  1  0  0  0
 83158  1  0  0  0
 85159  1  0  0  0
 85160  1  0  0  0
 86161  1  0  0  0
M  ISO  4   1 100  68 101  79 101  86 100
M  END
> <chiral flag>
0

> <version>
0

> <s_m_source_file>
/data/baiqing/PycharmProjects/Reinvent-master-3.2/result/LINK_invent/BTK/process_docking_weight1_custom_product_contain_oxygen_bond_distance_aromatic_linkinvent_7_9_3/rearranged_h_0092.sdf

> <i_m_source_file_index>
52

> <r_mmod_Potential_Energy-OPLS-2005>
169.830703735352

> <r_mmod_Stretch_Energy-OPLS-2005>
50.2373008728027

> <r_mmod_Bend_Energy-OPLS-2005>
139.704864501953

> <r_mmod_Torsional_Energy-OPLS-2005>
387.934539794922

> <r_mmod_Improper_Torsional_Energy-OPLS-2005>
25.4206409454346

> <r_mmod_Van_der_Waal_Energy-OPLS-2005>
150.922927856445

> <r_mmod_Electrostatic_Energy-OPLS-2005>
-399.444641113281

> <r_mmod_Solvation_Energy-OPLS-2005>
-216.240371704102

> <b_mmod_Minimization_Converged-OPLS-2005>
0

> <r_mmod_RMS_Derivative-OPLS-2005>
3.29984450340271

$$$$
52
                    3D
 Structure written by MMmdl.
164173  0  0  1  0            999 V2000
  -29.6428  -15.5565   20.6676 C   0  0  0  0  0  0
  -30.3329  -13.1156   19.6759 C   0  0  0  0  0  0
  -29.5357  -12.6943   18.3959 C   0  0  0  0  0  0
  -28.0948  -12.2802   18.7500 C   0  0  0  0  0  0
  -27.5220  -13.2365   19.8188 C   0  0  2  0  0  0
  -28.4292  -13.3581   21.0367 C   0  0  0  0  0  0
  -25.1695  -13.8009   20.5170 C   0  0  0  0  0  0
  -24.1300  -13.0260   20.9237 C   0  0  0  0  0  0
  -24.6028  -11.6783   20.8846 C   0  0  0  0  0  0
  -23.8856  -10.4182   21.0528 C   0  0  0  0  0  0
  -24.3500   -9.4123   21.9263 C   0  0  0  0  0  0
  -23.6222   -8.2135   22.0783 C   0  0  0  0  0  0
  -22.4212   -8.0178   21.3551 C   0  0  0  0  0  0
  -21.9805   -9.0136   20.4659 C   0  0  0  0  0  0
  -22.7087  -10.2031   20.3113 C   0  0  0  0  0  0
  -21.6811   -6.0681   22.5296 C   0  0  0  0  0  0
  -21.3984   -6.5606   23.8225 C   0  0  0  0  0  0
  -21.3649   -5.6765   24.9190 C   0  0  0  0  0  0
  -21.6042   -4.3031   24.7242 C   0  0  0  0  0  0
  -21.8823   -3.8117   23.4369 C   0  0  0  0  0  0
  -21.9185   -4.6921   22.3422 C   0  0  0  0  0  0
  -22.7402  -13.5073   21.2005 C   0  0  0  0  0  0
  -22.1658   -4.2110   21.0998 F   0  0  0  0  0  0
  -21.5636   -3.4528   25.7764 F   0  0  0  0  0  0
  -29.5335  -14.1209   20.5290 N   0  0  0  0  0  0
  -26.2017  -12.9201   20.2669 N   0  0  0  0  0  0
  -25.8856  -11.6403   20.5589 N   0  0  0  0  0  0
  -22.0116  -12.8108   22.0628 N   0  0  0  0  0  0
  -25.2901  -15.1687   20.2938 N   0  0  0  0  0  0
  -30.8569  -15.7887   20.3966 O   0  0  0  0  0  0
  -21.6588   -6.8788   21.4244 O   0  0  0  0  0  0
  -22.3126  -14.5400   20.6850 O   0  0  0  0  0  0
  -24.6636  -31.9453   23.2157 C   0  0  0  0  0  0
  -25.9547  -32.5086   23.8567 C   0  0  1  0  0  0
  -26.3226  -27.1460   20.3288 C   0  0  0  0  0  0
  -25.6397  -33.8831   24.2551 N   0  0  0  0  0  0
  -23.4519  -30.6199   21.5684 C   0  0  2  0  0  0
  -24.8128  -29.2247   19.9073 C   0  0  0  0  0  0
  -23.0247  -29.5482   22.5863 C   0  0  0  0  0  0
  -18.6664  -27.6834   22.4575 C   0  0  0  0  0  0
  -24.1501  -36.7345   23.2600 C   0  0  0  0  0  0
  -25.9897  -30.7977   21.4302 C   0  0  0  0  0  0
  -25.9154  -29.4546   20.7283 C   0  0  0  0  0  0
  -26.8206  -28.3806   20.8679 C   0  0  0  0  0  0
  -25.9462  -27.2624   19.0261 C   0  0  0  0  0  0
  -24.9177  -28.2163   18.9246 C   0  0  0  0  0  0
  -23.6152  -30.1102   20.1012 C   0  0  0  0  0  0
  -25.4129  -36.3214   24.0333 C   0  0  1  0  0  0
  -21.3349  -28.0962   23.4901 C   0  0  2  0  0  0
  -22.4510  -26.4917   23.1172 C   0  0  0  0  0  0
  -20.5441  -25.2098   21.1355 C   0  0  0  0  0  0
  -18.9867  -26.3755   21.3390 C   0  0  0  0  0  0
  -19.6769  -28.4115   23.2773 C   0  0  0  0  0  0
  -19.2286  -29.6518   23.9141 C   0  0  0  0  0  0
  -17.9102  -30.1757   23.9338 C   0  0  0  0  0  0
  -25.9175  -34.9618   23.5155 C   0  0  0  0  0  0
  -16.9135  -29.4115   23.3203 C   0  0  0  0  0  0
  -17.2971  -28.2205   22.6125 C   0  0  0  0  0  0
  -26.4610  -31.6679   25.0915 C   0  0  0  0  0  0
  -25.3673  -31.3833   26.1476 C   0  0  0  0  0  0
  -27.0394  -30.3060   24.6432 C   0  0  0  0  0  0
  -27.6153  -32.4276   25.7822 C   0  0  0  0  0  0
  -27.5616  -37.1860   24.8448 C   0  0  0  0  0  0
  -21.7554  -29.3035   22.7748 N   0  0  0  0  0  0
  -26.4285  -37.3926   23.9464 N   0  0  0  0  0  0
  -24.7197  -31.1904   22.0864 N   0  0  0  0  0  0
  -23.8413  -28.9477   23.2732 O   0  0  0  0  0  0
  -25.1327  -26.6722   20.9980 O   0  0  0  0  0  0
  -26.5548  -34.9040   22.4608 O   0  0  0  0  0  0
  -23.5812  -32.2201   23.7591 O   0  0  0  0  0  0
  -25.0954  -19.6828   21.0995 C   0  0  0  0  0  0
  -25.5514  -21.8874   22.5355 C   0  0  0  0  0  0
  -26.5213  -19.4368   21.5415 C   0  0  0  0  0  0
  -26.5763  -20.7409   22.3099 C   0  0  0  0  0  0
  -24.1407  -22.1408   22.0774 C   0  0  0  0  0  0
  -24.0741  -20.8473   21.2978 C   0  0  0  0  0  0
  -21.7289  -27.1298   21.0907 C   0  0  0  0  0  0
  -23.6161  -24.5643   21.1572 C   0  0  0  0  0  0
  -27.8627  -18.1430   21.2630 C   0  0  0  0  0  0
  -28.3031  -16.6593   20.9981 C   0  0  0  0  0  0
  -20.4743  -25.7269   23.1975 C   0  0  0  0  0  0
  -21.7044  -24.0835   23.1157 C   0  0  0  0  0  0
  -23.4223  -26.2118   20.6878 C   0  0  1  0  0  0
  -27.9216  -20.9886   22.9749 C   0  0  0  0  0  0
  -23.1686  -25.9806   19.1523 C   0  0  0  0  0  0
  -23.1249  -23.6121   22.1409 N   0  0  0  0  0  0
  -22.8851  -20.6979   20.5834 N   0  0  0  0  0  0
  -21.2038  -27.9843   20.3640 O   0  0  0  0  0  0
  -24.5084  -24.0799   20.4460 O   0  0  0  0  0  0
  -31.2902  -13.5459   19.3767 H   0  0  0  0  0  0
  -30.5891  -12.2358   20.2690 H   0  0  0  0  0  0
  -30.0506  -11.8904   17.8677 H   0  0  0  0  0  0
  -29.5022  -13.5415   17.7096 H   0  0  0  0  0  0
  -28.1208  -11.2649   19.1477 H   0  0  0  0  0  0
  -27.4637  -12.2515   17.8619 H   0  0  0  0  0  0
  -27.4427  -14.2051   19.3225 H   0  0  0  0  0  0
  -28.7134  -12.3890   21.4486 H   0  0  0  0  0  0
  -27.9411  -13.9076   21.8438 H   0  0  0  0  0  0
  -25.2635   -9.5632   22.4845 H   0  0  0  0  0  0
  -23.9945   -7.4514   22.7485 H   0  0  0  0  0  0
  -21.0745   -8.8629   19.8954 H   0  0  0  0  0  0
  -22.3539  -10.9580   19.6235 H   0  0  0  0  0  0
  -21.1959   -7.6114   23.9709 H   0  0  0  0  0  0
  -21.1468   -6.0505   25.9087 H   0  0  0  0  0  0
  -22.0614   -2.7580   23.2884 H   0  0  0  0  0  0
  -22.3727  -11.9764   22.5009 H   0  0  0  0  0  0
  -21.0771  -13.1191   22.2918 H   0  0  0  0  0  0
  -24.4229  -15.6963   20.2879 H   0  0  0  0  0  0
  -25.9222  -15.5020   19.5765 H   0  0  0  0  0  0
  -26.7661  -32.5577   23.1322 H   0  0  0  0  0  0
  -25.0687  -33.9980   25.0796 H   0  0  0  0  0  0
  -22.6816  -31.3932   21.5557 H   0  0  0  0  0  0
  -23.3837  -35.9599   23.3199 H   0  0  0  0  0  0
  -24.3622  -36.9031   22.2032 H   0  0  0  0  0  0
  -23.7150  -37.6490   23.6640 H   0  0  0  0  0  0
  -26.2447  -31.5592   20.6909 H   0  0  0  0  0  0
  -26.8386  -30.7348   22.0984 H   0  0  0  0  0  0
  -27.6152  -28.4141   21.5992 H   0  0  0  0  0  0
  -26.0149  -26.4406   18.3264 H   0  0  0  0  0  0
  -24.2309  -28.1995   18.0912 H   0  0  0  0  0  0
  -23.7646  -30.9797   19.4608 H   0  0  0  0  0  0
  -22.7142  -29.6523   19.7150 H   0  0  0  0  0  0
  -25.1268  -36.2076   25.0816 H   0  0  0  0  0  0
  -21.5184  -28.3064   24.5463 H   0  0  0  0  0  0
  -22.6049  -26.0414   24.1088 H   0  0  0  0  0  0
  -23.5080  -26.6688   22.9347 H   0  0  0  0  0  0
  -20.1993  -24.1843   21.3002 H   0  0  0  0  0  0
  -20.7959  -25.1211   20.0767 H   0  0  0  0  0  0
  -18.8385  -26.8308   20.3576 H   0  0  0  0  0  0
  -18.1241  -25.7115   21.4186 H   0  0  0  0  0  0
  -19.9667  -30.2230   24.4634 H   0  0  0  0  0  0
  -17.6754  -31.0949   24.4518 H   0  0  0  0  0  0
  -15.8810  -29.7351   23.3320 H   0  0  0  0  0  0
  -16.5124  -27.7060   22.0762 H   0  0  0  0  0  0
  -24.5823  -30.7323   25.7631 H   0  0  0  0  0  0
  -24.8927  -32.3012   26.4937 H   0  0  0  0  0  0
  -25.7810  -30.8864   27.0256 H   0  0  0  0  0  0
  -26.3021  -29.6912   24.1283 H   0  0  0  0  0  0
  -27.3817  -29.7246   25.5002 H   0  0  0  0  0  0
  -27.9041  -30.4285   23.9908 H   0  0  0  0  0  0
  -27.2805  -33.3555   26.2468 H   0  0  0  0  0  0
  -28.4031  -32.6857   25.0734 H   0  0  0  0  0  0
  -28.0734  -31.8312   26.5722 H   0  0  0  0  0  0
  -28.2531  -38.0265   24.7710 H   0  0  0  0  0  0
  -28.1226  -36.2826   24.6000 H   0  0  0  0  0  0
  -27.2376  -37.1177   25.8850 H   0  0  0  0  0  0
  -21.0527  -29.8258   22.2686 H   0  0  0  0  0  0
  -26.0163  -38.2977   24.1578 H   0  0  0  0  0  0
  -24.7357  -18.8888   20.4608 H   0  0  0  0  0  0
  -25.9291  -22.7164   23.1181 H   0  0  0  0  0  0
  -28.7840  -18.7148   21.2556 H   0  0  0  0  0  0
  -27.4173  -16.0546   21.0307 H   0  0  0  0  0  0
  -19.4577  -25.3274   23.1894 H   0  0  0  0  0  0
  -20.4690  -26.1256   24.2205 H   0  0  0  0  0  0
  -21.0362  -23.2286   23.0169 H   0  0  0  0  0  0
  -22.0467  -23.9351   24.1395 H   0  0  0  0  0  0
  -27.9907  -21.9905   23.4015 H   0  0  0  0  0  0
  -28.7320  -20.8900   22.2506 H   0  0  0  0  0  0
  -28.0897  -20.2695   23.7793 H   0  0  0  0  0  0
  -22.7009  -26.8314   18.6619 H   0  0  0  0  0  0
  -22.4956  -25.1534   18.9502 H   0  0  0  0  0  0
  -24.0519  -25.6876   18.5954 H   0  0  0  0  0  0
  -22.6892  -19.8773   20.0162 H   0  0  0  0  0  0
  -22.1153  -21.3528   20.6745 H   0  0  0  0  0  0
  1 25  1  0  0  0
  1 30  2  0  0  0
  1 80  1  0  0  0
  2  3  1  0  0  0
  2 25  1  0  0  0
  2 90  1  0  0  0
  2 91  1  0  0  0
  3  4  1  0  0  0
  3 92  1  0  0  0
  3 93  1  0  0  0
  4  5  1  0  0  0
  4 94  1  0  0  0
  4 95  1  0  0  0
  5  6  1  0  0  0
  5 26  1  0  0  0
  5 96  1  0  0  0
  6 25  1  0  0  0
  6 97  1  0  0  0
  6 98  1  0  0  0
  7  8  2  0  0  0
  7 26  1  0  0  0
  7 29  1  0  0  0
  8  9  1  0  0  0
  8 22  1  0  0  0
  9 10  1  0  0  0
  9 27  2  0  0  0
 10 11  2  0  0  0
 10 15  1  0  0  0
 11 12  1  0  0  0
 11 99  1  0  0  0
 12 13  2  0  0  0
 12100  1  0  0  0
 13 14  1  0  0  0
 13 31  1  0  0  0
 14 15  2  0  0  0
 14101  1  0  0  0
 15102  1  0  0  0
 16 17  2  0  0  0
 16 21  1  0  0  0
 16 31  1  0  0  0
 17 18  1  0  0  0
 17103  1  0  0  0
 18 19  2  0  0  0
 18104  1  0  0  0
 19 20  1  0  0  0
 19 24  1  0  0  0
 20 21  2  0  0  0
 20105  1  0  0  0
 21 23  1  0  0  0
 22 28  1  0  0  0
 22 32  2  0  0  0
 26 27  1  0  0  0
 28106  1  0  0  0
 28107  1  0  0  0
 29108  1  0  0  0
 29109  1  0  0  0
 33 34  1  0  0  0
 33 66  1  0  0  0
 33 70  2  0  0  0
 34 36  1  0  0  0
 34 59  1  0  0  0
 34110  1  0  0  0
 35 44  2  0  0  0
 35 45  1  0  0  0
 35 68  1  0  0  0
 36 56  1  0  0  0
 36111  1  0  0  0
 37 39  1  0  0  0
 37 47  1  0  0  0
 37 66  1  0  0  0
 37112  1  0  0  0
 38 43  2  0  0  0
 38 46  1  0  0  0
 38 47  1  0  0  0
 39 64  1  0  0  0
 39 67  2  0  0  0
 40 52  1  0  0  0
 40 53  2  0  0  0
 40 58  1  0  0  0
 41113  1  0  0  0
 41114  1  0  0  0
 41115  1  0  0  0
 41 48  1  0  0  0
 42 43  1  0  0  0
 42 66  1  0  0  0
 42116  1  0  0  0
 42117  1  0  0  0
 43 44  1  0  0  0
 44118  1  0  0  0
 45 46  2  0  0  0
 45119  1  0  0  0
 46120  1  0  0  0
 47121  1  0  0  0
 47122  1  0  0  0
 48 56  1  0  0  0
 48 65  1  0  0  0
 48123  1  0  0  0
 49 50  1  0  0  0
 49 53  1  0  0  0
 49 64  1  0  0  0
 49124  1  0  0  0
 50 51  1  0  0  0
 50125  1  0  0  0
 50126  1  0  0  0
 51 52  1  0  0  0
 51127  1  0  0  0
 51128  1  0  0  0
 52129  1  0  0  0
 52130  1  0  0  0
 53 54  1  0  0  0
 54 55  2  0  0  0
 54131  1  0  0  0
 55 57  1  0  0  0
 55132  1  0  0  0
 56 69  2  0  0  0
 57 58  2  0  0  0
 57133  1  0  0  0
 58134  1  0  0  0
 59 60  1  0  0  0
 59 61  1  0  0  0
 59 62  1  0  0  0
 60135  1  0  0  0
 60136  1  0  0  0
 60137  1  0  0  0
 61138  1  0  0  0
 61139  1  0  0  0
 61140  1  0  0  0
 62141  1  0  0  0
 62142  1  0  0  0
 62143  1  0  0  0
 63 65  1  0  0  0
 63144  1  0  0  0
 63145  1  0  0  0
 63146  1  0  0  0
 64147  1  0  0  0
 65148  1  0  0  0
 68 83  1  0  0  0
 71 73  2  0  0  0
 71 76  1  0  0  0
 71149  1  0  0  0
 72 74  2  0  0  0
 72 75  1  0  0  0
 72150  1  0  0  0
 73 74  1  0  0  0
 73 79  1  0  0  0
 74 84  1  0  0  0
 75 76  2  0  0  0
 75 86  1  0  0  0
 76 87  1  0  0  0
 77 81  1  0  0  0
 77 83  1  0  0  0
 77 88  2  0  0  0
 78 83  1  0  0  0
 78 86  1  0  0  0
 78 89  2  0  0  0
 79 80  2  0  0  0
 79151  1  0  0  0
 80152  1  0  0  0
 81 82  1  0  0  0
 81153  1  0  0  0
 81154  1  0  0  0
 82 86  1  0  0  0
 82155  1  0  0  0
 82156  1  0  0  0
 83 85  1  0  0  0
 84157  1  0  0  0
 84158  1  0  0  0
 84159  1  0  0  0
 85160  1  0  0  0
 85161  1  0  0  0
 85162  1  0  0  0
 87163  1  0  0  0
 87164  1  0  0  0
M  ISO  4   1 100  68 101  80 100  83 101
M  END
> <chiral flag>
0

> <version>
0

> <s_m_source_file>
/data/baiqing/PycharmProjects/Reinvent-master-3.2/result/LINK_invent/BTK/process_docking_weight1_custom_product_contain_oxygen_bond_distance_aromatic_linkinvent_7_9_3/rearranged_h_0092.sdf

> <i_m_source_file_index>
53

> <r_mmod_Potential_Energy-OPLS-2005>
14586.9765625

> <r_mmod_Stretch_Energy-OPLS-2005>
7461.798828125

> <r_mmod_Bend_Energy-OPLS-2005>
1291.57458496094

> <r_mmod_Torsional_Energy-OPLS-2005>
534.929138183594

> <r_mmod_Improper_Torsional_Energy-OPLS-2005>
44.8633804321289

> <r_mmod_Van_der_Waal_Energy-OPLS-2005>
2370.28735351562

> <r_mmod_Electrostatic_Energy-OPLS-2005>
-354.264495849609

> <r_mmod_Solvation_Energy-OPLS-2005>
-213.433395385742

> <b_mmod_Minimization_Converged-OPLS-2005>
0

> <r_mmod_RMS_Derivative-OPLS-2005>
5.75163841247559

$$$$
53
                    3D
 Structure written by MMmdl.
159168  0  0  1  0            999 V2000
  -30.6917  -14.6635   20.5231 C   0  0  0  0  0  0
  -30.4198  -12.4290   19.4490 C   0  0  0  0  0  0
  -29.4910  -12.4993   18.2212 C   0  0  0  0  0  0
  -28.0215  -12.3261   18.6424 C   0  0  0  0  0  0
  -27.6379  -13.2308   19.8431 C   0  0  2  0  0  0
  -28.6843  -13.1704   20.9775 C   0  0  0  0  0  0
  -25.2490  -13.8212   20.5706 C   0  0  0  0  0  0
  -24.1789  -13.0455   20.9211 C   0  0  0  0  0  0
  -24.6379  -11.6925   20.8728 C   0  0  0  0  0  0
  -23.9056  -10.4297   21.0373 C   0  0  0  0  0  0
  -24.3623   -9.4221   21.9148 C   0  0  0  0  0  0
  -23.6315   -8.2251   22.0728 C   0  0  0  0  0  0
  -22.4300   -8.0261   21.3524 C   0  0  0  0  0  0
  -21.9911   -9.0236   20.4647 C   0  0  0  0  0  0
  -22.7215  -10.2125   20.3042 C   0  0  0  0  0  0
  -21.6878   -6.0720   22.5282 C   0  0  0  0  0  0
  -21.4017   -6.5631   23.8213 C   0  0  0  0  0  0
  -21.3666   -5.6786   24.9174 C   0  0  0  0  0  0
  -21.6042   -4.3053   24.7229 C   0  0  0  0  0  0
  -21.8825   -3.8139   23.4354 C   0  0  0  0  0  0
  -21.9204   -4.6948   22.3401 C   0  0  0  0  0  0
  -22.7802  -13.5222   21.1872 C   0  0  0  0  0  0
  -22.1670   -4.2138   21.0982 F   0  0  0  0  0  0
  -21.5625   -3.4527   25.7740 F   0  0  0  0  0  0
  -29.9883  -13.4926   20.3863 N   0  0  0  0  0  0
  -26.2918  -12.9432   20.3264 N   0  0  0  0  0  0
  -25.9317  -11.6577   20.5752 N   0  0  0  0  0  0
  -22.0470  -12.8207   22.0447 N   0  0  0  0  0  0
  -25.4148  -15.1937   20.4114 N   0  0  0  0  0  0
  -31.8780  -14.6829   20.1852 O   0  0  0  0  0  0
  -21.6659   -6.8853   21.4240 O   0  0  0  0  0  0
  -22.3465  -14.5522   20.6717 O   0  0  0  0  0  0
  -24.6283  -31.8576   23.1956 C   0  0  0  0  0  0
  -25.9120  -32.4767   23.8290 C   0  0  1  0  0  0
  -27.2496  -27.2869   20.1390 C   0  0  0  0  0  0
  -25.5935  -33.8575   24.2251 N   0  0  0  0  0  0
  -23.4279  -30.4725   21.5381 C   0  0  2  0  0  0
  -24.8815  -28.9203   20.1158 C   0  0  0  0  0  0
  -22.7516  -29.4593   22.4911 C   0  0  0  0  0  0
  -18.0288  -28.1405   22.8482 C   0  0  0  0  0  0
  -24.1503  -36.7266   23.2630 C   0  0  0  0  0  0
  -25.9688  -30.7820   21.3686 C   0  0  0  0  0  0
  -26.0498  -29.4034   20.7173 C   0  0  0  0  0  0
  -27.2299  -28.5989   20.7178 C   0  0  0  0  0  0
  -26.0469  -26.8603   19.5217 C   0  0  0  0  0  0
  -24.8852  -27.6551   19.5108 C   0  0  0  0  0  0
  -23.6470  -29.7978   20.1576 C   0  0  0  0  0  0
  -25.4128  -36.3076   24.0327 C   0  0  1  0  0  0
  -20.5903  -28.3700   23.1292 C   0  0  2  0  0  0
  -20.6770  -26.9417   22.5422 C   0  0  0  0  0  0
  -19.5741  -26.6404   21.5223 C   0  0  0  0  0  0
  -18.1927  -26.7947   22.1628 C   0  0  0  0  0  0
  -19.1542  -28.8864   23.2889 C   0  0  0  0  0  0
  -18.9457  -30.1470   23.8899 C   0  0  0  0  0  0
  -17.6460  -30.6600   24.0573 C   0  0  0  0  0  0
  -25.9074  -34.9446   23.5095 C   0  0  0  0  0  0
  -16.5354  -29.9108   23.6344 C   0  0  0  0  0  0
  -16.7282  -28.6535   23.0352 C   0  0  0  0  0  0
  -26.4519  -31.6563   25.0649 C   0  0  0  0  0  0
  -25.3750  -31.3693   26.1360 C   0  0  0  0  0  0
  -27.0337  -30.2976   24.6084 C   0  0  0  0  0  0
  -27.6080  -32.4273   25.7433 C   0  0  0  0  0  0
  -27.5586  -37.1779   24.8472 C   0  0  0  0  0  0
  -21.4214  -29.3050   22.3693 N   0  0  0  0  0  0
  -26.4307  -37.3760   23.9410 N   0  0  0  0  0  0
  -24.6938  -31.0534   22.0926 N   0  0  0  0  0  0
  -23.4212  -28.8142   23.3021 O   0  0  0  0  0  0
  -28.3794  -26.4468   20.2648 O   0  0  0  0  0  0
  -26.5636  -34.8928   22.4667 O   0  0  0  0  0  0
  -23.5443  -32.1386   23.7284 O   0  0  0  0  0  0
  -29.2962  -18.8335   19.8177 C   0  0  0  0  0  0
  -29.0434  -20.2141   19.5412 C   0  0  0  0  0  0
  -30.2887  -19.4831   21.9042 C   0  0  0  0  0  0
  -29.9786  -18.4293   20.9924 C   0  0  0  0  0  0
  -29.4460  -21.2883   20.3999 C   0  0  0  0  0  0
  -30.0550  -20.8684   21.6233 C   0  0  0  0  0  0
  -28.8653  -23.8280   20.4920 C   0  0  0  0  0  0
  -30.6115  -17.0256   21.1826 C   0  0  0  0  0  0
  -29.7559  -24.0184   17.7118 C   0  0  0  0  0  0
  -29.5523  -25.3160   18.4856 C   0  0  0  0  0  0
  -30.1829  -22.8660   18.6408 C   0  0  0  0  0  0
  -28.5172  -25.1160   19.5978 C   0  0  2  0  0  0
  -29.4019  -22.6872   19.8883 N   0  0  0  0  0  0
  -30.5210  -21.8023   22.5505 N   0  0  0  0  0  0
  -30.0192  -15.8406   20.8026 N   0  0  0  0  0  0
  -28.5935  -23.8666   21.6971 O   0  0  0  0  0  0
  -31.7163  -17.0269   21.7408 O   0  0  0  0  0  0
  -31.4574  -12.5397   19.1271 H   0  0  0  0  0  0
  -30.3585  -11.4501   19.9247 H   0  0  0  0  0  0
  -29.7579  -11.7255   17.5003 H   0  0  0  0  0  0
  -29.6263  -13.4565   17.7144 H   0  0  0  0  0  0
  -27.8767  -11.2761   18.8962 H   0  0  0  0  0  0
  -27.3613  -12.5208   17.7974 H   0  0  0  0  0  0
  -27.6366  -14.2518   19.4603 H   0  0  0  0  0  0
  -28.7052  -12.1836   21.4380 H   0  0  0  0  0  0
  -28.4273  -13.8766   21.7715 H   0  0  0  0  0  0
  -25.2761   -9.5712   22.4718 H   0  0  0  0  0  0
  -24.0036   -7.4642   22.7458 H   0  0  0  0  0  0
  -21.0820   -8.8727   19.8979 H   0  0  0  0  0  0
  -22.3627  -10.9643   19.6156 H   0  0  0  0  0  0
  -21.2007   -7.6137   23.9715 H   0  0  0  0  0  0
  -21.1480   -6.0507   25.9072 H   0  0  0  0  0  0
  -22.0604   -2.7593   23.2855 H   0  0  0  0  0  0
  -22.4130  -11.9880   22.4828 H   0  0  0  0  0  0
  -21.1071  -13.1182   22.2687 H   0  0  0  0  0  0
  -24.6393  -15.8370   20.5274 H   0  0  0  0  0  0
  -26.2601  -15.6438   20.0871 H   0  0  0  0  0  0
  -26.7187  -32.5425   23.1036 H   0  0  0  0  0  0
  -25.0089  -33.9700   25.0401 H   0  0  0  0  0  0
  -22.7231  -31.2931   21.3890 H   0  0  0  0  0  0
  -23.3782  -35.9581   23.3323 H   0  0  0  0  0  0
  -24.3592  -36.8837   22.2029 H   0  0  0  0  0  0
  -23.7240  -37.6475   23.6641 H   0  0  0  0  0  0
  -26.1023  -31.5416   20.5965 H   0  0  0  0  0  0
  -26.8485  -30.8384   21.9974 H   0  0  0  0  0  0
  -28.1233  -28.9703   21.2024 H   0  0  0  0  0  0
  -25.9399  -25.8855   19.0766 H   0  0  0  0  0  0
  -23.9813  -27.2739   19.0558 H   0  0  0  0  0  0
  -23.7630  -30.5687   19.3953 H   0  0  0  0  0  0
  -22.7712  -29.2183   19.8587 H   0  0  0  0  0  0
  -25.1323  -36.1920   25.0816 H   0  0  0  0  0  0
  -20.9975  -28.3249   24.1414 H   0  0  0  0  0  0
  -20.5674  -26.2284   23.3606 H   0  0  0  0  0  0
  -21.6635  -26.7447   22.1203 H   0  0  0  0  0  0
  -19.6900  -25.6328   21.1215 H   0  0  0  0  0  0
  -19.6679  -27.3243   20.6777 H   0  0  0  0  0  0
  -17.4194  -26.6704   21.4037 H   0  0  0  0  0  0
  -18.0328  -26.0109   22.9033 H   0  0  0  0  0  0
  -19.7941  -30.7290   24.2256 H   0  0  0  0  0  0
  -17.5023  -31.6264   24.5195 H   0  0  0  0  0  0
  -15.5361  -30.3015   23.7658 H   0  0  0  0  0  0
  -15.8676  -28.0855   22.7066 H   0  0  0  0  0  0
  -24.5984  -30.6979   25.7685 H   0  0  0  0  0  0
  -24.8876  -32.2844   26.4718 H   0  0  0  0  0  0
  -25.8060  -30.8923   27.0168 H   0  0  0  0  0  0
  -26.2888  -29.6746   24.1105 H   0  0  0  0  0  0
  -27.4047  -29.7198   25.4560 H   0  0  0  0  0  0
  -27.8790  -30.4253   23.9318 H   0  0  0  0  0  0
  -27.2723  -33.3591   26.2005 H   0  0  0  0  0  0
  -28.3922  -32.6776   25.0277 H   0  0  0  0  0  0
  -28.0745  -31.8384   26.5336 H   0  0  0  0  0  0
  -28.2626  -38.0061   24.7537 H   0  0  0  0  0  0
  -28.1069  -36.2586   24.6325 H   0  0  0  0  0  0
  -27.2298  -37.1458   25.8874 H   0  0  0  0  0  0
  -20.9410  -29.8719   21.6846 H   0  0  0  0  0  0
  -26.0199  -38.2843   24.1405 H   0  0  0  0  0  0
  -29.0371  -18.0960   19.0683 H   0  0  0  0  0  0
  -28.5935  -20.4511   18.5877 H   0  0  0  0  0  0
  -30.7991  -19.2130   22.8204 H   0  0  0  0  0  0
  -30.5177  -24.1709   16.9447 H   0  0  0  0  0  0
  -28.8396  -23.7582   17.1813 H   0  0  0  0  0  0
  -29.2193  -26.0985   17.8020 H   0  0  0  0  0  0
  -30.5034  -25.6543   18.9020 H   0  0  0  0  0  0
  -31.2174  -23.0254   18.9511 H   0  0  0  0  0  0
  -30.2136  -21.9524   18.0451 H   0  0  0  0  0  0
  -27.5983  -24.8080   19.1157 H   0  0  0  0  0  0
  -30.0138  -22.6851   22.5875 H   0  0  0  0  0  0
  -30.7390  -21.4602   23.4813 H   0  0  0  0  0  0
  -29.0221  -15.8500   20.6806 H   0  0  0  0  0  0
  1 25  1  0  0  0
  1 30  2  0  0  0
  1 85  1  0  0  0
  2  3  1  0  0  0
  2 25  1  0  0  0
  2 88  1  0  0  0
  2 89  1  0  0  0
  3  4  1  0  0  0
  3 90  1  0  0  0
  3 91  1  0  0  0
  4  5  1  0  0  0
  4 92  1  0  0  0
  4 93  1  0  0  0
  5  6  1  0  0  0
  5 26  1  0  0  0
  5 94  1  0  0  0
  6 25  1  0  0  0
  6 95  1  0  0  0
  6 96  1  0  0  0
  7  8  2  0  0  0
  7 26  1  0  0  0
  7 29  1  0  0  0
  8  9  1  0  0  0
  8 22  1  0  0  0
  9 10  1  0  0  0
  9 27  2  0  0  0
 10 11  2  0  0  0
 10 15  1  0  0  0
 11 12  1  0  0  0
 11 97  1  0  0  0
 12 13  2  0  0  0
 12 98  1  0  0  0
 13 14  1  0  0  0
 13 31  1  0  0  0
 14 15  2  0  0  0
 14 99  1  0  0  0
 15100  1  0  0  0
 16 17  2  0  0  0
 16 21  1  0  0  0
 16 31  1  0  0  0
 17 18  1  0  0  0
 17101  1  0  0  0
 18 19  2  0  0  0
 18102  1  0  0  0
 19 20  1  0  0  0
 19 24  1  0  0  0
 20 21  2  0  0  0
 20103  1  0  0  0
 21 23  1  0  0  0
 22 28  1  0  0  0
 22 32  2  0  0  0
 26 27  1  0  0  0
 28104  1  0  0  0
 28105  1  0  0  0
 29106  1  0  0  0
 29107  1  0  0  0
 33 34  1  0  0  0
 33 66  1  0  0  0
 33 70  2  0  0  0
 34 36  1  0  0  0
 34 59  1  0  0  0
 34108  1  0  0  0
 35 44  2  0  0  0
 35 45  1  0  0  0
 35 68  1  0  0  0
 36 56  1  0  0  0
 36109  1  0  0  0
 37 39  1  0  0  0
 37 47  1  0  0  0
 37 66  1  0  0  0
 37110  1  0  0  0
 38 43  2  0  0  0
 38 46  1  0  0  0
 38 47  1  0  0  0
 39 64  1  0  0  0
 39 67  2  0  0  0
 40 52  1  0  0  0
 40 53  2  0  0  0
 40 58  1  0  0  0
 41111  1  0  0  0
 41112  1  0  0  0
 41113  1  0  0  0
 41 48  1  0  0  0
 42 43  1  0  0  0
 42 66  1  0  0  0
 42114  1  0  0  0
 42115  1  0  0  0
 43 44  1  0  0  0
 44116  1  0  0  0
 45 46  2  0  0  0
 45117  1  0  0  0
 46118  1  0  0  0
 47119  1  0  0  0
 47120  1  0  0  0
 48 56  1  0  0  0
 48 65  1  0  0  0
 48121  1  0  0  0
 49 50  1  0  0  0
 49 53  1  0  0  0
 49 64  1  0  0  0
 49122  1  0  0  0
 50 51  1  0  0  0
 50123  1  0  0  0
 50124  1  0  0  0
 51 52  1  0  0  0
 51125  1  0  0  0
 51126  1  0  0  0
 52127  1  0  0  0
 52128  1  0  0  0
 53 54  1  0  0  0
 54 55  2  0  0  0
 54129  1  0  0  0
 55 57  1  0  0  0
 55130  1  0  0  0
 56 69  2  0  0  0
 57 58  2  0  0  0
 57131  1  0  0  0
 58132  1  0  0  0
 59 60  1  0  0  0
 59 61  1  0  0  0
 59 62  1  0  0  0
 60133  1  0  0  0
 60134  1  0  0  0
 60135  1  0  0  0
 61136  1  0  0  0
 61137  1  0  0  0
 61138  1  0  0  0
 62139  1  0  0  0
 62140  1  0  0  0
 62141  1  0  0  0
 63 65  1  0  0  0
 63142  1  0  0  0
 63143  1  0  0  0
 63144  1  0  0  0
 64145  1  0  0  0
 65146  1  0  0  0
 68 82  1  0  0  0
 71 72  2  0  0  0
 71 74  1  0  0  0
 71147  1  0  0  0
 72 75  1  0  0  0
 72148  1  0  0  0
 73 74  2  0  0  0
 73 76  1  0  0  0
 73149  1  0  0  0
 74 78  1  0  0  0
 75 76  2  0  0  0
 75 83  1  0  0  0
 76 84  1  0  0  0
 77 82  1  0  0  0
 77 83  1  0  0  0
 77 86  2  0  0  0
 78 85  1  0  0  0
 78 87  2  0  0  0
 79 80  1  0  0  0
 79 81  1  0  0  0
 79150  1  0  0  0
 79151  1  0  0  0
 80 82  1  0  0  0
 80152  1  0  0  0
 80153  1  0  0  0
 81 83  1  0  0  0
 81154  1  0  0  0
 81155  1  0  0  0
 82156  1  0  0  0
 84157  1  0  0  0
 84158  1  0  0  0
 85159  1  0  0  0
M  ISO  4   1 100  68 101  82 101  85 100
M  END
> <chiral flag>
0

> <version>
0

> <s_m_source_file>
/data/baiqing/PycharmProjects/Reinvent-master-3.2/result/LINK_invent/BTK/process_docking_weight1_custom_product_contain_oxygen_bond_distance_aromatic_linkinvent_7_9_3/rearranged_h_0092.sdf

> <i_m_source_file_index>
54

> <r_mmod_Potential_Energy-OPLS-2005>
143.073532104492

> <r_mmod_Stretch_Energy-OPLS-2005>
106.688873291016

> <r_mmod_Bend_Energy-OPLS-2005>
174.625122070312

> <r_mmod_Torsional_Energy-OPLS-2005>
318.863464355469

> <r_mmod_Improper_Torsional_Energy-OPLS-2005>
12.950023651123

> <r_mmod_Van_der_Waal_Energy-OPLS-2005>
163.832046508789

> <r_mmod_Electrostatic_Energy-OPLS-2005>
-451.025604248047

> <r_mmod_Solvation_Energy-OPLS-2005>
-249.236114501953

> <b_mmod_Minimization_Converged-OPLS-2005>
0

> <r_mmod_RMS_Derivative-OPLS-2005>
4.64213705062866

$$$$
54
                    3D
 Structure written by MMmdl.
154162  0  0  1  0            999 V2000
  -30.6197  -14.6368   20.5035 C   0  0  0  0  0  0
  -30.4394  -12.3890   19.4571 C   0  0  0  0  0  0
  -29.5092  -12.5045   18.2280 C   0  0  0  0  0  0
  -28.0321  -12.3411   18.6384 C   0  0  0  0  0  0
  -27.6537  -13.2137   19.8653 C   0  0  2  0  0  0
  -28.6975  -13.0665   20.9959 C   0  0  0  0  0  0
  -25.2569  -13.8167   20.5684 C   0  0  0  0  0  0
  -24.1827  -13.0441   20.9180 C   0  0  0  0  0  0
  -24.6388  -11.6908   20.8728 C   0  0  0  0  0  0
  -23.9053  -10.4292   21.0395 C   0  0  0  0  0  0
  -24.3606   -9.4208   21.9172 C   0  0  0  0  0  0
  -23.6281   -8.2245   22.0751 C   0  0  0  0  0  0
  -22.4266   -8.0279   21.3539 C   0  0  0  0  0  0
  -21.9894   -9.0257   20.4649 C   0  0  0  0  0  0
  -22.7219  -10.2139   20.3055 C   0  0  0  0  0  0
  -21.6860   -6.0731   22.5271 C   0  0  0  0  0  0
  -21.4023   -6.5640   23.8203 C   0  0  0  0  0  0
  -21.3655   -5.6789   24.9164 C   0  0  0  0  0  0
  -21.6042   -4.3050   24.7218 C   0  0  0  0  0  0
  -21.8821   -3.8141   23.4340 C   0  0  0  0  0  0
  -21.9195   -4.6956   22.3396 C   0  0  0  0  0  0
  -22.7851  -13.5239   21.1840 C   0  0  0  0  0  0
  -22.1659   -4.2143   21.0976 F   0  0  0  0  0  0
  -21.5623   -3.4536   25.7730 F   0  0  0  0  0  0
  -30.0140  -13.4094   20.4349 N   0  0  0  0  0  0
  -26.2992  -12.9339   20.3327 N   0  0  0  0  0  0
  -25.9319  -11.6497   20.5758 N   0  0  0  0  0  0
  -22.0493  -12.8249   22.0411 N   0  0  0  0  0  0
  -25.4301  -15.1887   20.4110 N   0  0  0  0  0  0
  -31.7869  -14.7896   20.1359 O   0  0  0  0  0  0
  -21.6639   -6.8871   21.4233 O   0  0  0  0  0  0
  -22.3536  -14.5537   20.6677 O   0  0  0  0  0  0
  -24.6237  -31.8597   23.2029 C   0  0  0  0  0  0
  -25.9089  -32.4776   23.8351 C   0  0  1  0  0  0
  -27.2287  -27.3333   20.1269 C   0  0  0  0  0  0
  -25.5913  -33.8577   24.2285 N   0  0  0  0  0  0
  -23.4180  -30.4818   21.5447 C   0  0  2  0  0  0
  -24.8675  -28.9372   20.1124 C   0  0  0  0  0  0
  -22.7466  -29.4619   22.4943 C   0  0  0  0  0  0
  -18.0284  -28.1376   22.8489 C   0  0  0  0  0  0
  -24.1488  -36.7301   23.2637 C   0  0  0  0  0  0
  -25.9565  -30.7967   21.3708 C   0  0  0  0  0  0
  -26.0342  -29.4238   20.7169 C   0  0  0  0  0  0
  -27.2205  -28.6338   20.7129 C   0  0  0  0  0  0
  -26.0451  -26.8961   19.4941 C   0  0  0  0  0  0
  -24.8744  -27.6785   19.4901 C   0  0  0  0  0  0
  -23.6330  -29.8145   20.1603 C   0  0  0  0  0  0
  -25.4109  -36.3083   24.0331 C   0  0  1  0  0  0
  -20.5882  -28.3681   23.1289 C   0  0  2  0  0  0
  -20.6774  -26.9404   22.5414 C   0  0  0  0  0  0
  -19.5754  -26.6379   21.5211 C   0  0  0  0  0  0
  -18.1934  -26.7918   22.1626 C   0  0  0  0  0  0
  -19.1535  -28.8845   23.2884 C   0  0  0  0  0  0
  -18.9457  -30.1449   23.8898 C   0  0  0  0  0  0
  -17.6461  -30.6582   24.0560 C   0  0  0  0  0  0
  -25.9042  -34.9448   23.5107 C   0  0  0  0  0  0
  -16.5353  -29.9082   23.6324 C   0  0  0  0  0  0
  -16.7274  -28.6497   23.0349 C   0  0  0  0  0  0
  -26.4488  -31.6580   25.0711 C   0  0  0  0  0  0
  -25.3736  -31.3733   26.1456 C   0  0  0  0  0  0
  -27.0312  -30.2999   24.6146 C   0  0  0  0  0  0
  -27.6058  -32.4308   25.7467 C   0  0  0  0  0  0
  -27.5584  -37.1797   24.8461 C   0  0  0  0  0  0
  -21.4180  -29.3035   22.3685 N   0  0  0  0  0  0
  -26.4291  -37.3774   23.9409 N   0  0  0  0  0  0
  -24.6849  -31.0623   22.0970 N   0  0  0  0  0  0
  -23.4194  -28.8161   23.3019 O   0  0  0  0  0  0
  -28.3395  -26.4846   20.1526 O   0  0  0  0  0  0
  -26.5617  -34.8914   22.4676 O   0  0  0  0  0  0
  -23.5403  -32.1386   23.7365 O   0  0  0  0  0  0
  -29.1160  -17.9011   21.4811 C   0  0  0  0  0  0
  -29.0164  -19.3523   21.3141 C   0  0  0  0  0  0
  -29.8707  -17.1068   20.6781 C   0  0  0  0  0  0
  -29.6936  -19.9879   20.3345 C   0  0  0  0  0  0
  -30.5833  -17.7735   19.5551 C   0  0  0  0  0  0
  -29.0013  -23.9574   20.1559 C   0  0  0  0  0  0
  -31.2650  -19.8724   18.4433 C   0  0  0  0  0  0
  -28.8160  -22.4979   20.7383 C   0  0  0  0  0  0
  -28.0968  -25.1298   20.7003 C   0  0  0  0  0  0
  -30.5033  -19.1619   19.4851 N   0  0  0  0  0  0
  -29.7966  -15.6748   20.8603 N   0  0  0  0  0  0
  -29.6207  -21.4014   20.1131 N   0  0  0  0  0  0
  -31.1941  -17.1315   18.6936 O   0  0  0  0  0  0
  -29.8499  -24.1645   19.2798 O   0  0  0  0  0  0
  -31.4809  -12.5155   19.1563 H   0  0  0  0  0  0
  -30.3754  -11.3942   19.9001 H   0  0  0  0  0  0
  -29.7739  -11.7536   17.4828 H   0  0  0  0  0  0
  -29.6512  -13.4747   17.7493 H   0  0  0  0  0  0
  -27.8700  -11.2881   18.8702 H   0  0  0  0  0  0
  -27.3776  -12.5677   17.7958 H   0  0  0  0  0  0
  -27.6719  -14.2486   19.5233 H   0  0  0  0  0  0
  -28.7090  -12.0446   21.3782 H   0  0  0  0  0  0
  -28.4413  -13.6974   21.8489 H   0  0  0  0  0  0
  -25.2753   -9.5689   22.4742 H   0  0  0  0  0  0
  -23.9988   -7.4643   22.7479 H   0  0  0  0  0  0
  -21.0817   -8.8780   19.8961 H   0  0  0  0  0  0
  -22.3665  -10.9684   19.6172 H   0  0  0  0  0  0
  -21.2030   -7.6149   23.9708 H   0  0  0  0  0  0
  -21.1470   -6.0517   25.9065 H   0  0  0  0  0  0
  -22.0604   -2.7602   23.2841 H   0  0  0  0  0  0
  -22.4113  -11.9921   22.4815 H   0  0  0  0  0  0
  -21.1120  -13.1298   22.2621 H   0  0  0  0  0  0
  -24.6650  -15.8451   20.5248 H   0  0  0  0  0  0
  -26.2824  -15.6285   20.0878 H   0  0  0  0  0  0
  -26.7158  -32.5457   23.1103 H   0  0  0  0  0  0
  -25.0058  -33.9719   25.0429 H   0  0  0  0  0  0
  -22.7116  -31.3015   21.4011 H   0  0  0  0  0  0
  -23.3738  -35.9646   23.3294 H   0  0  0  0  0  0
  -24.3584  -36.8926   22.2053 H   0  0  0  0  0  0
  -23.7250  -37.6508   23.6658 H   0  0  0  0  0  0
  -26.0814  -31.5597   20.6009 H   0  0  0  0  0  0
  -26.8390  -30.8492   21.9968 H   0  0  0  0  0  0
  -28.1169  -29.0029   21.1910 H   0  0  0  0  0  0
  -26.0168  -25.9337   19.0030 H   0  0  0  0  0  0
  -23.9830  -27.3023   19.0075 H   0  0  0  0  0  0
  -23.7483  -30.5903   19.4025 H   0  0  0  0  0  0
  -22.7547  -29.2402   19.8606 H   0  0  0  0  0  0
  -25.1283  -36.1938   25.0824 H   0  0  0  0  0  0
  -20.9971  -28.3247   24.1408 H   0  0  0  0  0  0
  -20.5671  -26.2284   23.3609 H   0  0  0  0  0  0
  -21.6642  -26.7429   22.1212 H   0  0  0  0  0  0
  -19.6916  -25.6286   21.1242 H   0  0  0  0  0  0
  -19.6698  -27.3189   20.6738 H   0  0  0  0  0  0
  -17.4200  -26.6658   21.4032 H   0  0  0  0  0  0
  -18.0345  -26.0062   22.9029 H   0  0  0  0  0  0
  -19.7931  -30.7263   24.2272 H   0  0  0  0  0  0
  -17.5010  -31.6260   24.5166 H   0  0  0  0  0  0
  -15.5353  -30.2986   23.7641 H   0  0  0  0  0  0
  -15.8673  -28.0817   22.7061 H   0  0  0  0  0  0
  -24.5888  -30.7103   25.7801 H   0  0  0  0  0  0
  -24.8961  -32.2913   26.4895 H   0  0  0  0  0  0
  -25.8070  -30.8900   27.0221 H   0  0  0  0  0  0
  -26.2871  -29.6756   24.1187 H   0  0  0  0  0  0
  -27.4033  -29.7249   25.4636 H   0  0  0  0  0  0
  -27.8734  -30.4283   23.9342 H   0  0  0  0  0  0
  -27.2674  -33.3608   26.2048 H   0  0  0  0  0  0
  -28.3861  -32.6867   25.0286 H   0  0  0  0  0  0
  -28.0729  -31.8429   26.5378 H   0  0  0  0  0  0
  -28.2596  -38.0102   24.7504 H   0  0  0  0  0  0
  -28.1085  -36.2630   24.6278 H   0  0  0  0  0  0
  -27.2303  -37.1434   25.8866 H   0  0  0  0  0  0
  -20.9353  -29.8756   21.6901 H   0  0  0  0  0  0
  -26.0173  -38.2846   24.1418 H   0  0  0  0  0  0
  -28.5361  -17.4510   22.2742 H   0  0  0  0  0  0
  -28.3789  -19.9101   21.9864 H   0  0  0  0  0  0
  -31.9156  -20.6189   18.8994 H   0  0  0  0  0  0
  -30.5839  -20.3792   17.7596 H   0  0  0  0  0  0
  -31.9123  -19.2398   17.8351 H   0  0  0  0  0  0
  -27.7594  -22.2406   20.6641 H   0  0  0  0  0  0
  -29.0504  -22.5353   21.8025 H   0  0  0  0  0  0
  -28.2456  -25.1824   21.7791 H   0  0  0  0  0  0
  -27.0611  -24.8235   20.5616 H   0  0  0  0  0  0
  -28.9290  -15.3625   21.2652 H   0  0  0  0  0  0
  -30.2047  -21.7794   19.3715 H   0  0  0  0  0  0
  1 25  1  0  0  0
  1 30  2  0  0  0
  1 81  1  0  0  0
  2  3  1  0  0  0
  2 25  1  0  0  0
  2 85  1  0  0  0
  2 86  1  0  0  0
  3  4  1  0  0  0
  3 87  1  0  0  0
  3 88  1  0  0  0
  4  5  1  0  0  0
  4 89  1  0  0  0
  4 90  1  0  0  0
  5  6  1  0  0  0
  5 26  1  0  0  0
  5 91  1  0  0  0
  6 25  1  0  0  0
  6 92  1  0  0  0
  6 93  1  0  0  0
  7  8  2  0  0  0
  7 26  1  0  0  0
  7 29  1  0  0  0
  8  9  1  0  0  0
  8 22  1  0  0  0
  9 10  1  0  0  0
  9 27  2  0  0  0
 10 11  2  0  0  0
 10 15  1  0  0  0
 11 12  1  0  0  0
 11 94  1  0  0  0
 12 13  2  0  0  0
 12 95  1  0  0  0
 13 14  1  0  0  0
 13 31  1  0  0  0
 14 15  2  0  0  0
 14 96  1  0  0  0
 15 97  1  0  0  0
 16 17  2  0  0  0
 16 21  1  0  0  0
 16 31  1  0  0  0
 17 18  1  0  0  0
 17 98  1  0  0  0
 18 19  2  0  0  0
 18 99  1  0  0  0
 19 20  1  0  0  0
 19 24  1  0  0  0
 20 21  2  0  0  0
 20100  1  0  0  0
 21 23  1  0  0  0
 22 28  1  0  0  0
 22 32  2  0  0  0
 26 27  1  0  0  0
 28101  1  0  0  0
 28102  1  0  0  0
 29103  1  0  0  0
 29104  1  0  0  0
 33 34  1  0  0  0
 33 66  1  0  0  0
 33 70  2  0  0  0
 34 36  1  0  0  0
 34 59  1  0  0  0
 34105  1  0  0  0
 35 44  2  0  0  0
 35 45  1  0  0  0
 35 68  1  0  0  0
 36 56  1  0  0  0
 36106  1  0  0  0
 37 39  1  0  0  0
 37 47  1  0  0  0
 37 66  1  0  0  0
 37107  1  0  0  0
 38 43  2  0  0  0
 38 46  1  0  0  0
 38 47  1  0  0  0
 39 64  1  0  0  0
 39 67  2  0  0  0
 40 52  1  0  0  0
 40 53  2  0  0  0
 40 58  1  0  0  0
 41108  1  0  0  0
 41109  1  0  0  0
 41110  1  0  0  0
 41 48  1  0  0  0
 42 43  1  0  0  0
 42 66  1  0  0  0
 42111  1  0  0  0
 42112  1  0  0  0
 43 44  1  0  0  0
 44113  1  0  0  0
 45 46  2  0  0  0
 45114  1  0  0  0
 46115  1  0  0  0
 47116  1  0  0  0
 47117  1  0  0  0
 48 56  1  0  0  0
 48 65  1  0  0  0
 48118  1  0  0  0
 49 50  1  0  0  0
 49 53  1  0  0  0
 49 64  1  0  0  0
 49119  1  0  0  0
 50 51  1  0  0  0
 50120  1  0  0  0
 50121  1  0  0  0
 51 52  1  0  0  0
 51122  1  0  0  0
 51123  1  0  0  0
 52124  1  0  0  0
 52125  1  0  0  0
 53 54  1  0  0  0
 54 55  2  0  0  0
 54126  1  0  0  0
 55 57  1  0  0  0
 55127  1  0  0  0
 56 69  2  0  0  0
 57 58  2  0  0  0
 57128  1  0  0  0
 58129  1  0  0  0
 59 60  1  0  0  0
 59 61  1  0  0  0
 59 62  1  0  0  0
 60130  1  0  0  0
 60131  1  0  0  0
 60132  1  0  0  0
 61133  1  0  0  0
 61134  1  0  0  0
 61135  1  0  0  0
 62136  1  0  0  0
 62137  1  0  0  0
 62138  1  0  0  0
 63 65  1  0  0  0
 63139  1  0  0  0
 63140  1  0  0  0
 63141  1  0  0  0
 64142  1  0  0  0
 65143  1  0  0  0
 68 79  1  0  0  0
 71 72  1  0  0  0
 71 73  2  0  0  0
 71144  1  0  0  0
 72 74  2  0  0  0
 72145  1  0  0  0
 73 75  1  0  0  0
 73 81  1  0  0  0
 74 80  1  0  0  0
 74 82  1  0  0  0
 75 80  1  0  0  0
 75 83  2  0  0  0
 76 78  1  0  0  0
 76 79  1  0  0  0
 76 84  2  0  0  0
 77 80  1  0  0  0
 77146  1  0  0  0
 77147  1  0  0  0
 77148  1  0  0  0
 78 82  1  0  0  0
 78149  1  0  0  0
 78150  1  0  0  0
 79151  1  0  0  0
 79152  1  0  0  0
 81153  1  0  0  0
 82154  1  0  0  0
M  ISO  4   1 100  68 101  79 101  81 100
M  END
> <chiral flag>
0

> <version>
0

> <s_m_source_file>
/data/baiqing/PycharmProjects/Reinvent-master-3.2/result/LINK_invent/BTK/process_docking_weight1_custom_product_contain_oxygen_bond_distance_aromatic_linkinvent_7_9_3/rearranged_h_0092.sdf

> <i_m_source_file_index>
55

> <r_mmod_Potential_Energy-OPLS-2005>
77.5073623657227

> <r_mmod_Stretch_Energy-OPLS-2005>
86.9964904785156

> <r_mmod_Bend_Energy-OPLS-2005>
139.093994140625

> <r_mmod_Torsional_Energy-OPLS-2005>
225.971115112305

> <r_mmod_Improper_Torsional_Energy-OPLS-2005>
3.72808599472046

> <r_mmod_Van_der_Waal_Energy-OPLS-2005>
160.619781494141

> <r_mmod_Electrostatic_Energy-OPLS-2005>
-321.273071289062

> <r_mmod_Solvation_Energy-OPLS-2005>
-263.092864990234

> <b_mmod_Minimization_Converged-OPLS-2005>
0

> <r_mmod_RMS_Derivative-OPLS-2005>
1.2737842798233

$$$$
55
                    3D
 Structure written by MMmdl.
153161  0  0  1  0            999 V2000
  -30.5221  -15.0593   20.4052 C   0  0  0  0  0  0
  -30.4352  -12.6779   19.4780 C   0  0  0  0  0  0
  -29.5129  -12.5294   18.2471 C   0  0  0  0  0  0
  -28.0552  -12.2947   18.6860 C   0  0  0  0  0  0
  -27.6148  -13.2564   19.8205 C   0  0  2  0  0  0
  -28.6634  -13.3604   20.9459 C   0  0  0  0  0  0
  -25.2411  -13.8231   20.5731 C   0  0  0  0  0  0
  -24.1749  -13.0436   20.9246 C   0  0  0  0  0  0
  -24.6382  -11.6927   20.8778 C   0  0  0  0  0  0
  -23.9082  -10.4291   21.0425 C   0  0  0  0  0  0
  -24.3634   -9.4202   21.9198 C   0  0  0  0  0  0
  -23.6298   -8.2241   22.0762 C   0  0  0  0  0  0
  -22.4278   -8.0281   21.3548 C   0  0  0  0  0  0
  -21.9919   -9.0261   20.4656 C   0  0  0  0  0  0
  -22.7255  -10.2138   20.3068 C   0  0  0  0  0  0
  -21.6851   -6.0746   22.5278 C   0  0  0  0  0  0
  -21.4016   -6.5648   23.8213 C   0  0  0  0  0  0
  -21.3661   -5.6799   24.9175 C   0  0  0  0  0  0
  -21.6037   -4.3057   24.7224 C   0  0  0  0  0  0
  -21.8819   -3.8151   23.4343 C   0  0  0  0  0  0
  -21.9191   -4.6973   22.3399 C   0  0  0  0  0  0
  -22.7772  -13.5205   21.1902 C   0  0  0  0  0  0
  -22.1654   -4.2158   21.0979 F   0  0  0  0  0  0
  -21.5629   -3.4537   25.7737 F   0  0  0  0  0  0
  -29.9063  -13.8057   20.3037 N   0  0  0  0  0  0
  -26.2829  -12.9473   20.3226 N   0  0  0  0  0  0
  -25.9312  -11.6593   20.5756 N   0  0  0  0  0  0
  -22.0413  -12.8194   22.0459 N   0  0  0  0  0  0
  -25.4036  -15.1967   20.4177 N   0  0  0  0  0  0
  -31.7479  -15.0553   20.2384 O   0  0  0  0  0  0
  -21.6632   -6.8889   21.4239 O   0  0  0  0  0  0
  -22.3459  -14.5513   20.6737 O   0  0  0  0  0  0
  -24.6501  -31.8397   23.1819 C   0  0  0  0  0  0
  -25.9243  -32.4677   23.8235 C   0  0  1  0  0  0
  -27.2147  -27.0707   20.1629 C   0  0  0  0  0  0
  -25.5964  -33.8479   24.2151 N   0  0  0  0  0  0
  -23.4570  -30.4555   21.5304 C   0  0  2  0  0  0
  -24.9061  -28.8633   20.1183 C   0  0  0  0  0  0
  -22.7594  -29.4526   22.4848 C   0  0  0  0  0  0
  -18.0309  -28.1406   22.8489 C   0  0  0  0  0  0
  -24.1489  -36.7240   23.2648 C   0  0  0  0  0  0
  -26.0166  -30.6916   21.3881 C   0  0  0  0  0  0
  -26.0883  -29.2933   20.7341 C   0  0  0  0  0  0
  -27.2464  -28.4181   20.7300 C   0  0  0  0  0  0
  -26.0030  -26.7498   19.5184 C   0  0  0  0  0  0
  -24.8795  -27.6065   19.4935 C   0  0  0  0  0  0
  -23.6879  -29.7764   20.1539 C   0  0  0  0  0  0
  -25.4126  -36.3014   24.0309 C   0  0  1  0  0  0
  -20.5930  -28.3734   23.1223 C   0  0  2  0  0  0
  -20.6791  -26.9431   22.5406 C   0  0  0  0  0  0
  -19.5766  -26.6385   21.5217 C   0  0  0  0  0  0
  -18.1946  -26.7944   22.1632 C   0  0  0  0  0  0
  -19.1572  -28.8889   23.2846 C   0  0  0  0  0  0
  -18.9485  -30.1489   23.8875 C   0  0  0  0  0  0
  -17.6478  -30.6598   24.0559 C   0  0  0  0  0  0
  -25.9081  -34.9398   23.5041 C   0  0  0  0  0  0
  -16.5370  -29.9092   23.6337 C   0  0  0  0  0  0
  -16.7292  -28.6507   23.0364 C   0  0  0  0  0  0
  -26.4537  -31.6569   25.0707 C   0  0  0  0  0  0
  -25.3693  -31.3791   26.1386 C   0  0  0  0  0  0
  -27.0418  -30.2957   24.6337 C   0  0  0  0  0  0
  -27.6047  -32.4360   25.7507 C   0  0  0  0  0  0
  -27.5563  -37.1781   24.8466 C   0  0  0  0  0  0
  -21.4285  -29.3055   22.3584 N   0  0  0  0  0  0
  -26.4281  -37.3735   23.9410 N   0  0  0  0  0  0
  -24.7285  -31.0184   22.0881 N   0  0  0  0  0  0
  -23.4205  -28.8078   23.3019 O   0  0  0  0  0  0
  -28.2578  -26.0572   20.1352 O   0  0  0  0  0  0
  -26.5672  -34.8913   22.4622 O   0  0  0  0  0  0
  -23.5601  -32.1296   23.7000 O   0  0  0  0  0  0
  -30.6334  -17.1990   22.4586 C   0  0  0  0  0  0
  -29.1929  -19.5431   22.6322 C   0  0  0  0  0  0
  -30.5742  -17.8755   23.6805 C   0  0  0  0  0  0
  -29.9564  -17.6089   21.2692 C   0  0  0  0  0  0
  -29.7784  -19.0123   23.7838 C   0  0  0  0  0  0
  -29.4021  -19.0630   21.3061 C   0  0  0  0  0  0
  -28.5041  -23.1241   19.9391 C   0  0  0  0  0  0
  -29.2378  -21.7549   20.7210 C   0  0  0  0  0  0
  -28.0735  -24.5800   20.6866 C   0  0  0  0  0  0
  -31.2159  -17.3649   24.8111 N   0  0  0  0  0  0
  -29.5947  -19.6301   25.0235 N   0  0  0  0  0  0
  -29.8006  -16.3214   20.4102 N   0  0  0  0  0  0
  -28.2771  -23.0228   18.7259 O   0  0  0  0  0  0
  -30.0265  -22.0794   21.6156 O   0  0  0  0  0  0
  -29.0284  -20.1769   20.3831 O   0  0  0  0  0  0
  -31.4574  -12.8630   19.1446 H   0  0  0  0  0  0
  -30.4697  -11.7536   20.0560 H   0  0  0  0  0  0
  -29.8533  -11.7104   17.6114 H   0  0  0  0  0  0
  -29.5707  -13.4336   17.6388 H   0  0  0  0  0  0
  -27.9809  -11.2641   19.0314 H   0  0  0  0  0  0
  -27.3832  -12.3795   17.8309 H   0  0  0  0  0  0
  -27.5500  -14.2405   19.3547 H   0  0  0  0  0  0
  -28.7947  -12.4074   21.4604 H   0  0  0  0  0  0
  -28.3510  -14.0853   21.6990 H   0  0  0  0  0  0
  -25.2773   -9.5677   22.4777 H   0  0  0  0  0  0
  -23.9997   -7.4639   22.7488 H   0  0  0  0  0  0
  -21.0843   -8.8804   19.8965 H   0  0  0  0  0  0
  -22.3720  -10.9690   19.6189 H   0  0  0  0  0  0
  -21.2007   -7.6156   23.9717 H   0  0  0  0  0  0
  -21.1480   -6.0531   25.9086 H   0  0  0  0  0  0
  -22.0593   -2.7609   23.2836 H   0  0  0  0  0  0
  -22.4027  -11.9860   22.4851 H   0  0  0  0  0  0
  -21.1038  -13.1238   22.2687 H   0  0  0  0  0  0
  -24.6283  -15.8406   20.5336 H   0  0  0  0  0  0
  -26.2471  -15.6467   20.0885 H   0  0  0  0  0  0
  -26.7311  -32.5265   23.0957 H   0  0  0  0  0  0
  -25.0070  -33.9585   25.0275 H   0  0  0  0  0  0
  -22.7622  -31.2826   21.3692 H   0  0  0  0  0  0
  -23.3751  -35.9570   23.3307 H   0  0  0  0  0  0
  -24.3553  -36.8882   22.2059 H   0  0  0  0  0  0
  -23.7244  -37.6437   23.6691 H   0  0  0  0  0  0
  -26.1768  -31.4406   20.6125 H   0  0  0  0  0  0
  -26.8840  -30.7470   22.0343 H   0  0  0  0  0  0
  -28.1542  -28.7516   21.2135 H   0  0  0  0  0  0
  -25.9136  -25.7850   19.0379 H   0  0  0  0  0  0
  -23.9782  -27.2711   19.0007 H   0  0  0  0  0  0
  -23.8348  -30.5481   19.3974 H   0  0  0  0  0  0
  -22.7995  -29.2268   19.8391 H   0  0  0  0  0  0
  -25.1317  -36.1832   25.0799 H   0  0  0  0  0  0
  -21.0023  -28.3340   24.1346 H   0  0  0  0  0  0
  -20.5682  -26.2356   23.3636 H   0  0  0  0  0  0
  -21.6649  -26.7434   22.1205 H   0  0  0  0  0  0
  -19.6916  -25.6288   21.1271 H   0  0  0  0  0  0
  -19.6691  -27.3177   20.6732 H   0  0  0  0  0  0
  -17.4208  -26.6700   21.4036 H   0  0  0  0  0  0
  -18.0338  -26.0089   22.9033 H   0  0  0  0  0  0
  -19.7963  -30.7318   24.2225 H   0  0  0  0  0  0
  -17.5030  -31.6275   24.5175 H   0  0  0  0  0  0
  -15.5373  -30.2978   23.7679 H   0  0  0  0  0  0
  -15.8698  -28.0815   22.7090 H   0  0  0  0  0  0
  -24.5864  -30.7154   25.7692 H   0  0  0  0  0  0
  -24.8896  -32.2994   26.4738 H   0  0  0  0  0  0
  -25.7949  -30.9002   27.0213 H   0  0  0  0  0  0
  -26.3057  -29.6665   24.1320 H   0  0  0  0  0  0
  -27.3979  -29.7287   25.4950 H   0  0  0  0  0  0
  -27.8982  -30.4184   23.9700 H   0  0  0  0  0  0
  -27.2612  -33.3680   26.2013 H   0  0  0  0  0  0
  -28.3896  -32.6896   25.0364 H   0  0  0  0  0  0
  -28.0666  -31.8535   26.5491 H   0  0  0  0  0  0
  -28.2590  -38.0072   24.7487 H   0  0  0  0  0  0
  -28.1056  -36.2594   24.6326 H   0  0  0  0  0  0
  -27.2275  -37.1463   25.8872 H   0  0  0  0  0  0
  -20.9506  -29.8755   21.6746 H   0  0  0  0  0  0
  -26.0140  -38.2807   24.1407 H   0  0  0  0  0  0
  -31.1622  -16.2628   22.5108 H   0  0  0  0  0  0
  -28.5996  -20.4285   22.7936 H   0  0  0  0  0  0
  -28.5884  -24.5685   21.6468 H   0  0  0  0  0  0
  -27.0187  -24.4749   20.9417 H   0  0  0  0  0  0
  -31.4714  -17.9984   25.5573 H   0  0  0  0  0  0
  -31.8136  -16.5484   24.7391 H   0  0  0  0  0  0
  -29.2588  -20.5859   25.0595 H   0  0  0  0  0  0
  -30.2383  -19.3926   25.7692 H   0  0  0  0  0  0
  -28.8740  -16.2298   20.0183 H   0  0  0  0  0  0
  1 25  1  0  0  0
  1 30  2  0  0  0
  1 82  1  0  0  0
  2  3  1  0  0  0
  2 25  1  0  0  0
  2 86  1  0  0  0
  2 87  1  0  0  0
  3  4  1  0  0  0
  3 88  1  0  0  0
  3 89  1  0  0  0
  4  5  1  0  0  0
  4 90  1  0  0  0
  4 91  1  0  0  0
  5  6  1  0  0  0
  5 26  1  0  0  0
  5 92  1  0  0  0
  6 25  1  0  0  0
  6 93  1  0  0  0
  6 94  1  0  0  0
  7  8  2  0  0  0
  7 26  1  0  0  0
  7 29  1  0  0  0
  8  9  1  0  0  0
  8 22  1  0  0  0
  9 10  1  0  0  0
  9 27  2  0  0  0
 10 11  2  0  0  0
 10 15  1  0  0  0
 11 12  1  0  0  0
 11 95  1  0  0  0
 12 13  2  0  0  0
 12 96  1  0  0  0
 13 14  1  0  0  0
 13 31  1  0  0  0
 14 15  2  0  0  0
 14 97  1  0  0  0
 15 98  1  0  0  0
 16 17  2  0  0  0
 16 21  1  0  0  0
 16 31  1  0  0  0
 17 18  1  0  0  0
 17 99  1  0  0  0
 18 19  2  0  0  0
 18100  1  0  0  0
 19 20  1  0  0  0
 19 24  1  0  0  0
 20 21  2  0  0  0
 20101  1  0  0  0
 21 23  1  0  0  0
 22 28  1  0  0  0
 22 32  2  0  0  0
 26 27  1  0  0  0
 28102  1  0  0  0
 28103  1  0  0  0
 29104  1  0  0  0
 29105  1  0  0  0
 33 34  1  0  0  0
 33 66  1  0  0  0
 33 70  2  0  0  0
 34 36  1  0  0  0
 34 59  1  0  0  0
 34106  1  0  0  0
 35 44  2  0  0  0
 35 45  1  0  0  0
 35 68  1  0  0  0
 36 56  1  0  0  0
 36107  1  0  0  0
 37 39  1  0  0  0
 37 47  1  0  0  0
 37 66  1  0  0  0
 37108  1  0  0  0
 38 43  2  0  0  0
 38 46  1  0  0  0
 38 47  1  0  0  0
 39 64  1  0  0  0
 39 67  2  0  0  0
 40 52  1  0  0  0
 40 53  2  0  0  0
 40 58  1  0  0  0
 41109  1  0  0  0
 41110  1  0  0  0
 41111  1  0  0  0
 41 48  1  0  0  0
 42 43  1  0  0  0
 42 66  1  0  0  0
 42112  1  0  0  0
 42113  1  0  0  0
 43 44  1  0  0  0
 44114  1  0  0  0
 45 46  2  0  0  0
 45115  1  0  0  0
 46116  1  0  0  0
 47117  1  0  0  0
 47118  1  0  0  0
 48 56  1  0  0  0
 48 65  1  0  0  0
 48119  1  0  0  0
 49 50  1  0  0  0
 49 53  1  0  0  0
 49 64  1  0  0  0
 49120  1  0  0  0
 50 51  1  0  0  0
 50121  1  0  0  0
 50122  1  0  0  0
 51 52  1  0  0  0
 51123  1  0  0  0
 51124  1  0  0  0
 52125  1  0  0  0
 52126  1  0  0  0
 53 54  1  0  0  0
 54 55  2  0  0  0
 54127  1  0  0  0
 55 57  1  0  0  0
 55128  1  0  0  0
 56 69  2  0  0  0
 57 58  2  0  0  0
 57129  1  0  0  0
 58130  1  0  0  0
 59 60  1  0  0  0
 59 61  1  0  0  0
 59 62  1  0  0  0
 60131  1  0  0  0
 60132  1  0  0  0
 60133  1  0  0  0
 61134  1  0  0  0
 61135  1  0  0  0
 61136  1  0  0  0
 62137  1  0  0  0
 62138  1  0  0  0
 62139  1  0  0  0
 63 65  1  0  0  0
 63140  1  0  0  0
 63141  1  0  0  0
 63142  1  0  0  0
 64143  1  0  0  0
 65144  1  0  0  0
 68 79  1  0  0  0
 71 73  2  0  0  0
 71 74  1  0  0  0
 71145  1  0  0  0
 72 75  2  0  0  0
 72 76  1  0  0  0
 72146  1  0  0  0
 73 75  1  0  0  0
 73 80  1  0  0  0
 74 76  2  0  0  0
 74 82  1  0  0  0
 75 81  1  0  0  0
 76 85  1  0  0  0
 77 78  1  0  0  0
 77 79  1  0  0  0
 77 83  2  0  0  0
 78 84  2  0  0  0
 78 85  1  0  0  0
 79147  1  0  0  0
 79148  1  0  0  0
 80149  1  0  0  0
 80150  1  0  0  0
 81151  1  0  0  0
 81152  1  0  0  0
 82153  1  0  0  0
M  ISO  4   1 100  68 101  79 101  82 100
M  END
> <chiral flag>
0

> <version>
0

> <s_m_source_file>
/data/baiqing/PycharmProjects/Reinvent-master-3.2/result/LINK_invent/BTK/process_docking_weight1_custom_product_contain_oxygen_bond_distance_aromatic_linkinvent_7_9_3/rearranged_h_0092.sdf

> <i_m_source_file_index>
56

> <r_mmod_Potential_Energy-OPLS-2005>
893.307739257812

> <r_mmod_Stretch_Energy-OPLS-2005>
429.081481933594

> <r_mmod_Bend_Energy-OPLS-2005>
387.455596923828

> <r_mmod_Torsional_Energy-OPLS-2005>
325.47607421875

> <r_mmod_Improper_Torsional_Energy-OPLS-2005>
14.5904521942139

> <r_mmod_Van_der_Waal_Energy-OPLS-2005>
156.851196289062

> <r_mmod_Electrostatic_Energy-OPLS-2005>
-429.066314697266

> <r_mmod_Solvation_Energy-OPLS-2005>
-259.65673828125

> <b_mmod_Minimization_Converged-OPLS-2005>
0

> <r_mmod_RMS_Derivative-OPLS-2005>
2.77599334716797

$$$$
56
                    3D
 Structure written by MMmdl.
151159  0  0  1  0            999 V2000
  -30.7806  -14.4821   20.4845 C   0  0  0  0  0  0
  -30.4366  -12.2813   19.4257 C   0  0  0  0  0  0
  -29.5009  -12.4545   18.2095 C   0  0  0  0  0  0
  -28.0188  -12.3517   18.6362 C   0  0  0  0  0  0
  -27.6682  -13.2246   19.8765 C   0  0  2  0  0  0
  -28.7366  -13.0483   20.9849 C   0  0  0  0  0  0
  -25.2601  -13.8157   20.5862 C   0  0  0  0  0  0
  -24.1813  -13.0424   20.9162 C   0  0  0  0  0  0
  -24.6423  -11.6895   20.8729 C   0  0  0  0  0  0
  -23.9121  -10.4271   21.0376 C   0  0  0  0  0  0
  -24.3655   -9.4137   21.9128 C   0  0  0  0  0  0
  -23.6301   -8.2210   22.0752 C   0  0  0  0  0  0
  -22.4279   -8.0267   21.3568 C   0  0  0  0  0  0
  -21.9875   -9.0274   20.4721 C   0  0  0  0  0  0
  -22.7259  -10.2119   20.3063 C   0  0  0  0  0  0
  -21.6780   -6.0714   22.5295 C   0  0  0  0  0  0
  -21.4003   -6.5629   23.8230 C   0  0  0  0  0  0
  -21.3684   -5.6791   24.9207 C   0  0  0  0  0  0
  -21.6026   -4.3042   24.7250 C   0  0  0  0  0  0
  -21.8821   -3.8133   23.4389 C   0  0  0  0  0  0
  -21.9182   -4.6951   22.3447 C   0  0  0  0  0  0
  -22.7824  -13.5200   21.1882 C   0  0  0  0  0  0
  -22.1624   -4.2174   21.1011 F   0  0  0  0  0  0
  -21.5639   -3.4514   25.7744 F   0  0  0  0  0  0
  -30.0733  -13.3116   20.4095 N   0  0  0  0  0  0
  -26.3123  -12.9415   20.3440 N   0  0  0  0  0  0
  -25.9382  -11.6546   20.5795 N   0  0  0  0  0  0
  -22.0490  -12.8287   22.0502 N   0  0  0  0  0  0
  -25.4147  -15.1953   20.4622 N   0  0  0  0  0  0
  -31.9403  -14.5581   20.0776 O   0  0  0  0  0  0
  -21.6617   -6.8883   21.4258 O   0  0  0  0  0  0
  -22.3537  -14.5515   20.6705 O   0  0  0  0  0  0
  -24.6118  -31.8846   23.2273 C   0  0  0  0  0  0
  -25.9071  -32.4918   23.8544 C   0  0  1  0  0  0
  -27.1942  -27.4246   20.0370 C   0  0  0  0  0  0
  -25.5971  -33.8704   24.2471 N   0  0  0  0  0  0
  -23.3984  -30.5226   21.5725 C   0  0  2  0  0  0
  -24.8267  -29.0183   20.1096 C   0  0  0  0  0  0
  -22.7452  -29.4710   22.4997 C   0  0  0  0  0  0
  -18.0309  -28.1340   22.8519 C   0  0  0  0  0  0
  -24.1474  -36.7318   23.2597 C   0  0  0  0  0  0
  -25.9420  -30.8372   21.3930 C   0  0  0  0  0  0
  -26.0006  -29.4738   20.7227 C   0  0  0  0  0  0
  -27.1770  -28.6782   20.7058 C   0  0  0  0  0  0
  -25.9989  -27.0356   19.3653 C   0  0  0  0  0  0
  -24.8175  -27.7891   19.4438 C   0  0  0  0  0  0
  -23.6087  -29.9129   20.1678 C   0  0  0  0  0  0
  -25.4085  -36.3184   24.0349 C   0  0  1  0  0  0
  -20.5906  -28.3638   23.1364 C   0  0  2  0  0  0
  -20.6806  -26.9394   22.5407 C   0  0  0  0  0  0
  -19.5718  -26.6398   21.5250 C   0  0  0  0  0  0
  -18.1908  -26.7884   22.1695 C   0  0  0  0  0  0
  -19.1545  -28.8823   23.2934 C   0  0  0  0  0  0
  -18.9452  -30.1439   23.8941 C   0  0  0  0  0  0
  -17.6465  -30.6575   24.0567 C   0  0  0  0  0  0
  -25.9056  -34.9528   23.5198 C   0  0  0  0  0  0
  -16.5382  -29.9068   23.6273 C   0  0  0  0  0  0
  -16.7301  -28.6464   23.0309 C   0  0  0  0  0  0
  -26.4439  -31.6641   25.0832 C   0  0  0  0  0  0
  -25.3710  -31.3776   26.1582 C   0  0  0  0  0  0
  -27.0135  -30.3054   24.6151 C   0  0  0  0  0  0
  -27.6090  -32.4251   25.7596 C   0  0  0  0  0  0
  -27.5607  -37.1794   24.8435 C   0  0  0  0  0  0
  -21.4166  -29.3057   22.3780 N   0  0  0  0  0  0
  -26.4285  -37.3899   23.9463 N   0  0  0  0  0  0
  -24.6694  -31.0910   22.1227 N   0  0  0  0  0  0
  -23.4289  -28.8169   23.2913 O   0  0  0  0  0  0
  -28.3377  -26.6132   20.0410 O   0  0  0  0  0  0
  -26.5556  -34.8949   22.4731 O   0  0  0  0  0  0
  -23.5295  -32.1640   23.7624 O   0  0  0  0  0  0
  -27.0770  -18.5682   21.0578 C   0  0  0  0  0  0
  -28.0806  -17.6013   21.0320 C   0  0  0  0  0  0
  -27.3603  -19.8978   20.6801 C   0  0  0  0  0  0
  -29.6625  -19.2813   20.2178 C   0  0  0  0  0  0
  -29.3545  -17.9112   20.5161 C   0  0  0  0  0  0
  -28.6893  -20.3263   20.3854 C   0  0  0  0  0  0
  -30.2654  -16.7382   20.3088 C   0  0  0  0  0  0
  -28.1027  -25.2462   20.1235 C   0  0  0  0  0  0
  -28.9548  -24.1914   20.3151 C   0  0  0  0  0  0
  -28.2838  -22.8565   20.3634 C   0  0  0  0  0  0
  -30.0240  -15.5861   20.8488 N   0  0  0  0  0  0
  -29.0772  -21.7384   20.2992 N   0  0  0  0  0  0
  -27.0573  -22.7563   20.4145 O   0  0  0  0  0  0
  -30.2920  -24.3497   20.4741 O   0  0  0  0  0  0
  -31.4848  -12.3388   19.1262 H   0  0  0  0  0  0
  -30.3135  -11.2901   19.8676 H   0  0  0  0  0  0
  -29.7109  -11.6823   17.4636 H   0  0  0  0  0  0
  -29.6761  -13.4119   17.7100 H   0  0  0  0  0  0
  -27.8236  -11.2982   18.8578 H   0  0  0  0  0  0
  -27.3670  -12.5933   17.7968 H   0  0  0  0  0  0
  -27.6981  -14.2684   19.5553 H   0  0  0  0  0  0
  -28.7056  -12.0305   21.3733 H   0  0  0  0  0  0
  -28.5264  -13.6972   21.8345 H   0  0  0  0  0  0
  -25.2796   -9.5583   22.4704 H   0  0  0  0  0  0
  -24.0026   -7.4560   22.7382 H   0  0  0  0  0  0
  -21.0836   -8.8878   19.9005 H   0  0  0  0  0  0
  -22.3757  -10.9723   19.6240 H   0  0  0  0  0  0
  -21.1981   -7.6132   23.9777 H   0  0  0  0  0  0
  -21.1454   -6.0486   25.9129 H   0  0  0  0  0  0
  -22.0565   -2.7620   23.2871 H   0  0  0  0  0  0
  -22.4072  -12.0040   22.5091 H   0  0  0  0  0  0
  -21.1089  -13.1333   22.2592 H   0  0  0  0  0  0
  -24.6433  -15.8153   20.6821 H   0  0  0  0  0  0
  -26.2816  -15.6809   20.2896 H   0  0  0  0  0  0
  -26.7098  -32.5608   23.1261 H   0  0  0  0  0  0
  -25.0155  -34.0003   25.0628 H   0  0  0  0  0  0
  -22.6786  -31.3409   21.4607 H   0  0  0  0  0  0
  -23.3852  -35.9558   23.3218 H   0  0  0  0  0  0
  -24.3645  -36.8971   22.2048 H   0  0  0  0  0  0
  -23.7104  -37.6454   23.6609 H   0  0  0  0  0  0
  -26.0707  -31.6237   20.6466 H   0  0  0  0  0  0
  -26.8213  -30.8657   22.0245 H   0  0  0  0  0  0
  -28.0701  -29.0226   21.2020 H   0  0  0  0  0  0
  -25.9419  -26.1572   18.7376 H   0  0  0  0  0  0
  -23.9082  -27.4671   18.9461 H   0  0  0  0  0  0
  -23.7723  -30.7281   19.4563 H   0  0  0  0  0  0
  -22.7076  -29.4007   19.8250 H   0  0  0  0  0  0
  -25.1228  -36.2065   25.0853 H   0  0  0  0  0  0
  -21.0009  -28.3119   24.1499 H   0  0  0  0  0  0
  -20.5764  -26.2238   23.3559 H   0  0  0  0  0  0
  -21.6628  -26.7432   22.1139 H   0  0  0  0  0  0
  -19.6874  -25.6318   21.1193 H   0  0  0  0  0  0
  -19.6610  -27.3269   20.6803 H   0  0  0  0  0  0
  -17.4182  -26.6651   21.4129 H   0  0  0  0  0  0
  -18.0315  -26.0068   22.9115 H   0  0  0  0  0  0
  -19.7921  -30.7226   24.2349 H   0  0  0  0  0  0
  -17.4995  -31.6254   24.5119 H   0  0  0  0  0  0
  -15.5315  -30.2980   23.7573 H   0  0  0  0  0  0
  -15.8693  -28.0800   22.6983 H   0  0  0  0  0  0
  -24.5907  -30.7071   25.7960 H   0  0  0  0  0  0
  -24.8846  -32.2924   26.4968 H   0  0  0  0  0  0
  -25.8080  -30.9020   27.0372 H   0  0  0  0  0  0
  -26.2614  -29.7033   24.1016 H   0  0  0  0  0  0
  -27.3679  -29.7096   25.4579 H   0  0  0  0  0  0
  -27.8587  -30.4402   23.9408 H   0  0  0  0  0  0
  -27.2823  -33.3628   26.2113 H   0  0  0  0  0  0
  -28.3924  -32.6651   25.0402 H   0  0  0  0  0  0
  -28.0632  -31.8332   26.5560 H   0  0  0  0  0  0
  -28.2453  -38.0242   24.7753 H   0  0  0  0  0  0
  -28.1272  -36.2831   24.5908 H   0  0  0  0  0  0
  -27.2382  -37.0956   25.8824 H   0  0  0  0  0  0
  -20.9276  -29.9044   21.7254 H   0  0  0  0  0  0
  -26.0160  -38.2941   24.1704 H   0  0  0  0  0  0
  -26.0919  -18.2773   21.3981 H   0  0  0  0  0  0
  -27.8340  -16.6039   21.3647 H   0  0  0  0  0  0
  -26.4988  -20.5487   20.6807 H   0  0  0  0  0  0
  -30.6476  -19.5362   19.8561 H   0  0  0  0  0  0
  -31.1099  -16.8925   19.6225 H   0  0  0  0  0  0
  -27.0538  -25.0310   20.0161 H   0  0  0  0  0  0
  -30.0779  -21.8981   20.2518 H   0  0  0  0  0  0
  -30.6464  -23.5708   20.8916 H   0  0  0  0  0  0
  1 25  1  0  0  0
  1 30  2  0  0  0
  1 81  1  0  0  0
  2  3  1  0  0  0
  2 25  1  0  0  0
  2 85  1  0  0  0
  2 86  1  0  0  0
  3  4  1  0  0  0
  3 87  1  0  0  0
  3 88  1  0  0  0
  4  5  1  0  0  0
  4 89  1  0  0  0
  4 90  1  0  0  0
  5  6  1  0  0  0
  5 26  1  0  0  0
  5 91  1  0  0  0
  6 25  1  0  0  0
  6 92  1  0  0  0
  6 93  1  0  0  0
  7  8  2  0  0  0
  7 26  1  0  0  0
  7 29  1  0  0  0
  8  9  1  0  0  0
  8 22  1  0  0  0
  9 10  1  0  0  0
  9 27  2  0  0  0
 10 11  2  0  0  0
 10 15  1  0  0  0
 11 12  1  0  0  0
 11 94  1  0  0  0
 12 13  2  0  0  0
 12 95  1  0  0  0
 13 14  1  0  0  0
 13 31  1  0  0  0
 14 15  2  0  0  0
 14 96  1  0  0  0
 15 97  1  0  0  0
 16 17  2  0  0  0
 16 21  1  0  0  0
 16 31  1  0  0  0
 17 18  1  0  0  0
 17 98  1  0  0  0
 18 19  2  0  0  0
 18 99  1  0  0  0
 19 20  1  0  0  0
 19 24  1  0  0  0
 20 21  2  0  0  0
 20100  1  0  0  0
 21 23  1  0  0  0
 22 28  1  0  0  0
 22 32  2  0  0  0
 26 27  1  0  0  0
 28101  1  0  0  0
 28102  1  0  0  0
 29103  1  0  0  0
 29104  1  0  0  0
 33 34  1  0  0  0
 33 66  1  0  0  0
 33 70  2  0  0  0
 34 36  1  0  0  0
 34 59  1  0  0  0
 34105  1  0  0  0
 35 44  2  0  0  0
 35 45  1  0  0  0
 35 68  1  0  0  0
 36 56  1  0  0  0
 36106  1  0  0  0
 37 39  1  0  0  0
 37 47  1  0  0  0
 37 66  1  0  0  0
 37107  1  0  0  0
 38 43  2  0  0  0
 38 46  1  0  0  0
 38 47  1  0  0  0
 39 64  1  0  0  0
 39 67  2  0  0  0
 40 52  1  0  0  0
 40 53  2  0  0  0
 40 58  1  0  0  0
 41108  1  0  0  0
 41109  1  0  0  0
 41110  1  0  0  0
 41 48  1  0  0  0
 42 43  1  0  0  0
 42 66  1  0  0  0
 42111  1  0  0  0
 42112  1  0  0  0
 43 44  1  0  0  0
 44113  1  0  0  0
 45 46  2  0  0  0
 45114  1  0  0  0
 46115  1  0  0  0
 47116  1  0  0  0
 47117  1  0  0  0
 48 56  1  0  0  0
 48 65  1  0  0  0
 48118  1  0  0  0
 49 50  1  0  0  0
 49 53  1  0  0  0
 49 64  1  0  0  0
 49119  1  0  0  0
 50 51  1  0  0  0
 50120  1  0  0  0
 50121  1  0  0  0
 51 52  1  0  0  0
 51122  1  0  0  0
 51123  1  0  0  0
 52124  1  0  0  0
 52125  1  0  0  0
 53 54  1  0  0  0
 54 55  2  0  0  0
 54126  1  0  0  0
 55 57  1  0  0  0
 55127  1  0  0  0
 56 69  2  0  0  0
 57 58  2  0  0  0
 57128  1  0  0  0
 58129  1  0  0  0
 59 60  1  0  0  0
 59 61  1  0  0  0
 59 62  1  0  0  0
 60130  1  0  0  0
 60131  1  0  0  0
 60132  1  0  0  0
 61133  1  0  0  0
 61134  1  0  0  0
 61135  1  0  0  0
 62136  1  0  0  0
 62137  1  0  0  0
 62138  1  0  0  0
 63 65  1  0  0  0
 63139  1  0  0  0
 63140  1  0  0  0
 63141  1  0  0  0
 64142  1  0  0  0
 65143  1  0  0  0
 68 78  1  0  0  0
 71 72  2  0  0  0
 71 73  1  0  0  0
 71144  1  0  0  0
 72 75  1  0  0  0
 72145  1  0  0  0
 73 76  2  0  0  0
 73146  1  0  0  0
 74 75  2  0  0  0
 74 76  1  0  0  0
 74147  1  0  0  0
 75 77  1  0  0  0
 76 82  1  0  0  0
 77 81  2  0  0  0
 77148  1  0  0  0
 78 79  2  0  0  0
 78149  1  0  0  0
 79 80  1  0  0  0
 79 84  1  0  0  0
 80 82  1  0  0  0
 80 83  2  0  0  0
 82150  1  0  0  0
 84151  1  0  0  0
M  ISO  4   1 100  68 101  78 101  81 100
M  END
> <chiral flag>
0

> <version>
0

> <s_m_source_file>
/data/baiqing/PycharmProjects/Reinvent-master-3.2/result/LINK_invent/BTK/process_docking_weight1_custom_product_contain_oxygen_bond_distance_aromatic_linkinvent_7_9_3/rearranged_h_0092.sdf

> <i_m_source_file_index>
57

> <r_mmod_Potential_Energy-OPLS-2005>
21.9095783233643

> <r_mmod_Stretch_Energy-OPLS-2005>
66.2062759399414

> <r_mmod_Bend_Energy-OPLS-2005>
128.745986938477

> <r_mmod_Torsional_Energy-OPLS-2005>
192.75537109375

> <r_mmod_Improper_Torsional_Energy-OPLS-2005>
5.22946977615356

> <r_mmod_Van_der_Waal_Energy-OPLS-2005>
193.559707641602

> <r_mmod_Electrostatic_Energy-OPLS-2005>
-376.701934814453

> <r_mmod_Solvation_Energy-OPLS-2005>
-219.264541625977

> <b_mmod_Minimization_Converged-OPLS-2005>
0

> <r_mmod_RMS_Derivative-OPLS-2005>
16.617395401001

$$$$
57
                    3D
 Structure written by MMmdl.
149157  0  0  1  0            999 V2000
  -30.5921  -14.7907   20.4539 C   0  0  0  0  0  0
  -30.4357  -12.4876   19.4681 C   0  0  0  0  0  0
  -29.5096  -12.5078   18.2321 C   0  0  0  0  0  0
  -28.0376  -12.3226   18.6508 C   0  0  0  0  0  0
  -27.6362  -13.2328   19.8421 C   0  0  2  0  0  0
  -28.6831  -13.1920   20.9752 C   0  0  0  0  0  0
  -25.2493  -13.8196   20.5694 C   0  0  0  0  0  0
  -24.1793  -13.0437   20.9218 C   0  0  0  0  0  0
  -24.6388  -11.6916   20.8751 C   0  0  0  0  0  0
  -23.9068  -10.4291   21.0409 C   0  0  0  0  0  0
  -24.3619   -9.4206   21.9185 C   0  0  0  0  0  0
  -23.6293   -8.2242   22.0754 C   0  0  0  0  0  0
  -22.4276   -8.0280   21.3544 C   0  0  0  0  0  0
  -21.9911   -9.0255   20.4648 C   0  0  0  0  0  0
  -22.7240  -10.2134   20.3058 C   0  0  0  0  0  0
  -21.6854   -6.0734   22.5278 C   0  0  0  0  0  0
  -21.4016   -6.5639   23.8212 C   0  0  0  0  0  0
  -21.3659   -5.6792   24.9174 C   0  0  0  0  0  0
  -21.6043   -4.3054   24.7225 C   0  0  0  0  0  0
  -21.8819   -3.8146   23.4347 C   0  0  0  0  0  0
  -21.9193   -4.6962   22.3403 C   0  0  0  0  0  0
  -22.7815  -13.5218   21.1875 C   0  0  0  0  0  0
  -22.1661   -4.2149   21.0980 F   0  0  0  0  0  0
  -21.5628   -3.4537   25.7738 F   0  0  0  0  0  0
  -29.9735  -13.5596   20.3807 N   0  0  0  0  0  0
  -26.2911  -12.9402   20.3252 N   0  0  0  0  0  0
  -25.9315  -11.6545   20.5741 N   0  0  0  0  0  0
  -22.0462  -12.8209   22.0431 N   0  0  0  0  0  0
  -25.4154  -15.1926   20.4107 N   0  0  0  0  0  0
  -31.7966  -14.8719   20.1955 O   0  0  0  0  0  0
  -21.6641   -6.8877   21.4240 O   0  0  0  0  0  0
  -22.3499  -14.5522   20.6718 O   0  0  0  0  0  0
  -24.6336  -31.8522   23.1944 C   0  0  0  0  0  0
  -25.9147  -32.4738   23.8306 C   0  0  1  0  0  0
  -27.2221  -27.2374   20.1452 C   0  0  0  0  0  0
  -25.5930  -33.8540   24.2230 N   0  0  0  0  0  0
  -23.4323  -30.4718   21.5385 C   0  0  2  0  0  0
  -24.8809  -28.9066   20.1167 C   0  0  0  0  0  0
  -22.7514  -29.4586   22.4907 C   0  0  0  0  0  0
  -18.0294  -28.1390   22.8483 C   0  0  0  0  0  0
  -24.1490  -36.7278   23.2642 C   0  0  0  0  0  0
  -25.9789  -30.7588   21.3757 C   0  0  0  0  0  0
  -26.0537  -29.3762   20.7231 C   0  0  0  0  0  0
  -27.2309  -28.5568   20.7185 C   0  0  0  0  0  0
  -26.0272  -26.8314   19.5194 C   0  0  0  0  0  0
  -24.8734  -27.6430   19.5025 C   0  0  0  0  0  0
  -23.6532  -29.7984   20.1578 C   0  0  0  0  0  0
  -25.4118  -36.3060   24.0323 C   0  0  1  0  0  0
  -20.5898  -28.3703   23.1266 C   0  0  2  0  0  0
  -20.6781  -26.9418   22.5410 C   0  0  0  0  0  0
  -19.5756  -26.6384   21.5214 C   0  0  0  0  0  0
  -18.1937  -26.7931   22.1626 C   0  0  0  0  0  0
  -19.1547  -28.8864   23.2868 C   0  0  0  0  0  0
  -18.9468  -30.1464   23.8887 C   0  0  0  0  0  0
  -17.6466  -30.6590   24.0562 C   0  0  0  0  0  0
  -25.9059  -34.9432   23.5083 C   0  0  0  0  0  0
  -16.5357  -29.9085   23.6333 C   0  0  0  0  0  0
  -16.7280  -28.6504   23.0352 C   0  0  0  0  0  0
  -26.4503  -31.6576   25.0710 C   0  0  0  0  0  0
  -25.3716  -31.3735   26.1424 C   0  0  0  0  0  0
  -27.0359  -30.2990   24.6216 C   0  0  0  0  0  0
  -27.6048  -32.4325   25.7490 C   0  0  0  0  0  0
  -27.5576  -37.1798   24.8467 C   0  0  0  0  0  0
  -21.4218  -29.3043   22.3652 N   0  0  0  0  0  0
  -26.4291  -37.3762   23.9405 N   0  0  0  0  0  0
  -24.7009  -31.0464   22.0927 N   0  0  0  0  0  0
  -23.4201  -28.8136   23.3025 O   0  0  0  0  0  0
  -28.3149  -26.3381   20.1309 O   0  0  0  0  0  0
  -26.5640  -34.8914   22.4658 O   0  0  0  0  0  0
  -23.5480  -32.1351   23.7227 O   0  0  0  0  0  0
  -30.8322  -20.1215   21.3636 C   0  0  0  0  0  0
  -31.3054  -17.7085   21.4725 C   0  0  0  0  0  0
  -29.6520  -19.9307   20.6128 C   0  0  0  0  0  0
  -30.1372  -17.3838   20.7478 C   0  0  0  0  0  0
  -31.6403  -19.0437   21.7764 C   0  0  0  0  0  0
  -29.3195  -18.5278   20.3265 C   0  0  0  0  0  0
  -28.9009  -21.2352   20.1524 C   0  0  0  0  0  0
  -28.4122  -23.6224   19.9528 C   0  0  0  0  0  0
  -28.1876  -24.9836   20.7948 C   0  0  0  0  0  0
  -29.0085  -22.4795   20.6146 N   0  0  0  0  0  0
  -29.7968  -15.9372   20.5438 N   0  0  0  0  0  0
  -28.0200  -23.6188   18.7850 O   0  0  0  0  0  0
  -32.7663  -19.2974   22.4847 F   0  0  0  0  0  0
  -28.1888  -18.2627   19.6285 F   0  0  0  0  0  0
  -31.4732  -12.6277   19.1603 H   0  0  0  0  0  0
  -30.3983  -11.5177   19.9666 H   0  0  0  0  0  0
  -29.7999  -11.7259   17.5289 H   0  0  0  0  0  0
  -29.6241  -13.4546   17.7017 H   0  0  0  0  0  0
  -27.9053  -11.2760   18.9273 H   0  0  0  0  0  0
  -27.3768  -12.4973   17.8008 H   0  0  0  0  0  0
  -27.6198  -14.2481   19.4459 H   0  0  0  0  0  0
  -28.7337  -12.2001   21.4267 H   0  0  0  0  0  0
  -28.4129  -13.8824   21.7761 H   0  0  0  0  0  0
  -25.2764   -9.5683   22.4760 H   0  0  0  0  0  0
  -24.0003   -7.4632   22.7472 H   0  0  0  0  0  0
  -21.0842   -8.8774   19.8953 H   0  0  0  0  0  0
  -22.3697  -10.9673   19.6168 H   0  0  0  0  0  0
  -21.2010   -7.6147   23.9714 H   0  0  0  0  0  0
  -21.1481   -6.0523   25.9077 H   0  0  0  0  0  0
  -22.0599   -2.7608   23.2846 H   0  0  0  0  0  0
  -22.4085  -11.9877   22.4826 H   0  0  0  0  0  0
  -21.1078  -13.1230   22.2638 H   0  0  0  0  0  0
  -24.6413  -15.8386   20.5204 H   0  0  0  0  0  0
  -26.2508  -15.6391   20.0560 H   0  0  0  0  0  0
  -26.7215  -32.5383   23.1047 H   0  0  0  0  0  0
  -25.0061  -33.9667   25.0365 H   0  0  0  0  0  0
  -22.7300  -31.2943   21.3874 H   0  0  0  0  0  0
  -23.3749  -35.9614   23.3309 H   0  0  0  0  0  0
  -24.3576  -36.8900   22.2056 H   0  0  0  0  0  0
  -23.7248  -37.6481   23.6668 H   0  0  0  0  0  0
  -26.1177  -31.5160   20.6027 H   0  0  0  0  0  0
  -26.8560  -30.8123   22.0092 H   0  0  0  0  0  0
  -28.1343  -28.9164   21.1911 H   0  0  0  0  0  0
  -25.9823  -25.8597   19.0475 H   0  0  0  0  0  0
  -23.9758  -27.2774   19.0230 H   0  0  0  0  0  0
  -23.7816  -30.5709   19.3986 H   0  0  0  0  0  0
  -22.7708  -29.2329   19.8528 H   0  0  0  0  0  0
  -25.1304  -36.1903   25.0817 H   0  0  0  0  0  0
  -20.9989  -28.3284   24.1387 H   0  0  0  0  0  0
  -20.5680  -26.2313   23.3617 H   0  0  0  0  0  0
  -21.6649  -26.7438   22.1205 H   0  0  0  0  0  0
  -19.6918  -25.6292   21.1249 H   0  0  0  0  0  0
  -19.6694  -27.3189   20.6739 H   0  0  0  0  0  0
  -17.4206  -26.6675   21.4029 H   0  0  0  0  0  0
  -18.0338  -26.0075   22.9026 H   0  0  0  0  0  0
  -19.7943  -30.7284   24.2251 H   0  0  0  0  0  0
  -17.5019  -31.6268   24.5166 H   0  0  0  0  0  0
  -15.5356  -30.2983   23.7661 H   0  0  0  0  0  0
  -15.8680  -28.0820   22.7069 H   0  0  0  0  0  0
  -24.5895  -30.7081   25.7748 H   0  0  0  0  0  0
  -24.8902  -32.2908   26.4825 H   0  0  0  0  0  0
  -25.8023  -30.8927   27.0216 H   0  0  0  0  0  0
  -26.2952  -29.6728   24.1229 H   0  0  0  0  0  0
  -27.4021  -29.7264   25.4747 H   0  0  0  0  0  0
  -27.8835  -30.4258   23.9477 H   0  0  0  0  0  0
  -27.2646  -33.3630   26.2047 H   0  0  0  0  0  0
  -28.3869  -32.6880   25.0328 H   0  0  0  0  0  0
  -28.0705  -31.8466   26.5424 H   0  0  0  0  0  0
  -28.2600  -38.0088   24.7499 H   0  0  0  0  0  0
  -28.1066  -36.2618   24.6312 H   0  0  0  0  0  0
  -27.2293  -37.1469   25.8870 H   0  0  0  0  0  0
  -20.9412  -29.8754   21.6840 H   0  0  0  0  0  0
  -26.0167  -38.2837   24.1395 H   0  0  0  0  0  0
  -31.1481  -21.1230   21.6174 H   0  0  0  0  0  0
  -31.9593  -16.9291   21.8337 H   0  0  0  0  0  0
  -28.2147  -21.0495   19.3206 H   0  0  0  0  0  0
  -28.8997  -24.9738   21.6202 H   0  0  0  0  0  0
  -27.2062  -24.9084   21.2644 H   0  0  0  0  0  0
  -28.8085  -15.7514   20.4771 H   0  0  0  0  0  0
  1 25  1  0  0  0
  1 30  2  0  0  0
  1 81  1  0  0  0
  2  3  1  0  0  0
  2 25  1  0  0  0
  2 85  1  0  0  0
  2 86  1  0  0  0
  3  4  1  0  0  0
  3 87  1  0  0  0
  3 88  1  0  0  0
  4  5  1  0  0  0
  4 89  1  0  0  0
  4 90  1  0  0  0
  5  6  1  0  0  0
  5 26  1  0  0  0
  5 91  1  0  0  0
  6 25  1  0  0  0
  6 92  1  0  0  0
  6 93  1  0  0  0
  7  8  2  0  0  0
  7 26  1  0  0  0
  7 29  1  0  0  0
  8  9  1  0  0  0
  8 22  1  0  0  0
  9 10  1  0  0  0
  9 27  2  0  0  0
 10 11  2  0  0  0
 10 15  1  0  0  0
 11 12  1  0  0  0
 11 94  1  0  0  0
 12 13  2  0  0  0
 12 95  1  0  0  0
 13 14  1  0  0  0
 13 31  1  0  0  0
 14 15  2  0  0  0
 14 96  1  0  0  0
 15 97  1  0  0  0
 16 17  2  0  0  0
 16 21  1  0  0  0
 16 31  1  0  0  0
 17 18  1  0  0  0
 17 98  1  0  0  0
 18 19  2  0  0  0
 18 99  1  0  0  0
 19 20  1  0  0  0
 19 24  1  0  0  0
 20 21  2  0  0  0
 20100  1  0  0  0
 21 23  1  0  0  0
 22 28  1  0  0  0
 22 32  2  0  0  0
 26 27  1  0  0  0
 28101  1  0  0  0
 28102  1  0  0  0
 29103  1  0  0  0
 29104  1  0  0  0
 33 34  1  0  0  0
 33 66  1  0  0  0
 33 70  2  0  0  0
 34 36  1  0  0  0
 34 59  1  0  0  0
 34105  1  0  0  0
 35 44  2  0  0  0
 35 45  1  0  0  0
 35 68  1  0  0  0
 36 56  1  0  0  0
 36106  1  0  0  0
 37 39  1  0  0  0
 37 47  1  0  0  0
 37 66  1  0  0  0
 37107  1  0  0  0
 38 43  2  0  0  0
 38 46  1  0  0  0
 38 47  1  0  0  0
 39 64  1  0  0  0
 39 67  2  0  0  0
 40 52  1  0  0  0
 40 53  2  0  0  0
 40 58  1  0  0  0
 41108  1  0  0  0
 41109  1  0  0  0
 41110  1  0  0  0
 41 48  1  0  0  0
 42 43  1  0  0  0
 42 66  1  0  0  0
 42111  1  0  0  0
 42112  1  0  0  0
 43 44  1  0  0  0
 44113  1  0  0  0
 45 46  2  0  0  0
 45114  1  0  0  0
 46115  1  0  0  0
 47116  1  0  0  0
 47117  1  0  0  0
 48 56  1  0  0  0
 48 65  1  0  0  0
 48118  1  0  0  0
 49 50  1  0  0  0
 49 53  1  0  0  0
 49 64  1  0  0  0
 49119  1  0  0  0
 50 51  1  0  0  0
 50120  1  0  0  0
 50121  1  0  0  0
 51 52  1  0  0  0
 51122  1  0  0  0
 51123  1  0  0  0
 52124  1  0  0  0
 52125  1  0  0  0
 53 54  1  0  0  0
 54 55  2  0  0  0
 54126  1  0  0  0
 55 57  1  0  0  0
 55127  1  0  0  0
 56 69  2  0  0  0
 57 58  2  0  0  0
 57128  1  0  0  0
 58129  1  0  0  0
 59 60  1  0  0  0
 59 61  1  0  0  0
 59 62  1  0  0  0
 60130  1  0  0  0
 60131  1  0  0  0
 60132  1  0  0  0
 61133  1  0  0  0
 61134  1  0  0  0
 61135  1  0  0  0
 62136  1  0  0  0
 62137  1  0  0  0
 62138  1  0  0  0
 63 65  1  0  0  0
 63139  1  0  0  0
 63140  1  0  0  0
 63141  1  0  0  0
 64142  1  0  0  0
 65143  1  0  0  0
 68 79  1  0  0  0
 71 73  2  0  0  0
 71 75  1  0  0  0
 71144  1  0  0  0
 72 74  1  0  0  0
 72 75  2  0  0  0
 72145  1  0  0  0
 73 76  1  0  0  0
 73 77  1  0  0  0
 74 76  2  0  0  0
 74 81  1  0  0  0
 75 83  1  0  0  0
 76 84  1  0  0  0
 77 80  2  0  0  0
 77146  1  0  0  0
 78 79  1  0  0  0
 78 80  1  0  0  0
 78 82  2  0  0  0
 79147  1  0  0  0
 79148  1  0  0  0
 81149  1  0  0  0
M  ISO  4   1 100  68 101  79 101  81 100
M  END
> <chiral flag>
0

> <version>
0

> <s_m_source_file>
/data/baiqing/PycharmProjects/Reinvent-master-3.2/result/LINK_invent/BTK/process_docking_weight1_custom_product_contain_oxygen_bond_distance_aromatic_linkinvent_7_9_3/rearranged_h_0092.sdf

> <i_m_source_file_index>
58

> <r_mmod_Potential_Energy-OPLS-2005>
180.669494628906

> <r_mmod_Stretch_Energy-OPLS-2005>
148.960845947266

> <r_mmod_Bend_Energy-OPLS-2005>
168.161590576172

> <r_mmod_Torsional_Energy-OPLS-2005>
247.109481811523

> <r_mmod_Improper_Torsional_Energy-OPLS-2005>
6.74546003341675

> <r_mmod_Van_der_Waal_Energy-OPLS-2005>
135.020584106445

> <r_mmod_Electrostatic_Energy-OPLS-2005>
-418.769317626953

> <r_mmod_Solvation_Energy-OPLS-2005>
-209.578201293945

> <b_mmod_Minimization_Converged-OPLS-2005>
0

> <r_mmod_RMS_Derivative-OPLS-2005>
0.209991201758385

$$$$
58
                    3D
 Structure written by MMmdl.
147155  0  0  1  0            999 V2000
  -30.6321  -14.7756   20.4142 C   0  0  0  0  0  0
  -30.4134  -12.4685   19.4896 C   0  0  0  0  0  0
  -29.5071  -12.5340   18.2395 C   0  0  0  0  0  0
  -28.0279  -12.3728   18.6366 C   0  0  0  0  0  0
  -27.6390  -13.2559   19.8555 C   0  0  2  0  0  0
  -28.6843  -13.2076   20.9935 C   0  0  0  0  0  0
  -25.2490  -13.8297   20.5713 C   0  0  0  0  0  0
  -24.1817  -13.0507   20.9246 C   0  0  0  0  0  0
  -24.6406  -11.6985   20.8707 C   0  0  0  0  0  0
  -23.9096  -10.4351   21.0342 C   0  0  0  0  0  0
  -24.3661   -9.4277   21.9120 C   0  0  0  0  0  0
  -23.6336   -8.2307   22.0733 C   0  0  0  0  0  0
  -22.4310   -8.0318   21.3542 C   0  0  0  0  0  0
  -21.9928   -9.0275   20.4640 C   0  0  0  0  0  0
  -22.7255  -10.2153   20.3012 C   0  0  0  0  0  0
  -21.6877   -6.0771   22.5274 C   0  0  0  0  0  0
  -21.4034   -6.5661   23.8217 C   0  0  0  0  0  0
  -21.3656   -5.6801   24.9163 C   0  0  0  0  0  0
  -21.6044   -4.3064   24.7199 C   0  0  0  0  0  0
  -21.8839   -3.8172   23.4313 C   0  0  0  0  0  0
  -21.9223   -4.7002   22.3384 C   0  0  0  0  0  0
  -22.7818  -13.5237   21.1899 C   0  0  0  0  0  0
  -22.1694   -4.2194   21.0951 F   0  0  0  0  0  0
  -21.5610   -3.4532   25.7694 F   0  0  0  0  0  0
  -29.9847  -13.5527   20.4107 N   0  0  0  0  0  0
  -26.2925  -12.9544   20.3296 N   0  0  0  0  0  0
  -25.9339  -11.6657   20.5686 N   0  0  0  0  0  0
  -22.0483  -12.8183   22.0422 N   0  0  0  0  0  0
  -25.4139  -15.2048   20.4201 N   0  0  0  0  0  0
  -31.8209  -14.7861   20.0794 O   0  0  0  0  0  0
  -21.6695   -6.8904   21.4232 O   0  0  0  0  0  0
  -22.3499  -14.5532   20.6722 O   0  0  0  0  0  0
  -24.6334  -31.8528   23.1971 C   0  0  0  0  0  0
  -25.9152  -32.4736   23.8317 C   0  0  1  0  0  0
  -27.2323  -27.2257   20.1290 C   0  0  0  0  0  0
  -25.5945  -33.8546   24.2245 N   0  0  0  0  0  0
  -23.4342  -30.4734   21.5396 C   0  0  2  0  0  0
  -24.8875  -28.9230   20.1072 C   0  0  0  0  0  0
  -22.7523  -29.4573   22.4886 C   0  0  0  0  0  0
  -18.0303  -28.1400   22.8489 C   0  0  0  0  0  0
  -24.1482  -36.7255   23.2634 C   0  0  0  0  0  0
  -25.9849  -30.7533   21.3871 C   0  0  0  0  0  0
  -26.0580  -29.3728   20.7297 C   0  0  0  0  0  0
  -27.2275  -28.5386   20.7324 C   0  0  0  0  0  0
  -26.0427  -26.8754   19.4462 C   0  0  0  0  0  0
  -24.8903  -27.6866   19.4491 C   0  0  0  0  0  0
  -23.6567  -29.8085   20.1556 C   0  0  0  0  0  0
  -25.4117  -36.3057   24.0316 C   0  0  1  0  0  0
  -20.5903  -28.3709   23.1276 C   0  0  2  0  0  0
  -20.6788  -26.9421   22.5416 C   0  0  0  0  0  0
  -19.5756  -26.6391   21.5226 C   0  0  0  0  0  0
  -18.1940  -26.7941   22.1631 C   0  0  0  0  0  0
  -19.1552  -28.8880   23.2871 C   0  0  0  0  0  0
  -18.9461  -30.1479   23.8888 C   0  0  0  0  0  0
  -17.6459  -30.6595   24.0561 C   0  0  0  0  0  0
  -25.9069  -34.9432   23.5085 C   0  0  0  0  0  0
  -16.5358  -29.9086   23.6332 C   0  0  0  0  0  0
  -16.7293  -28.6505   23.0363 C   0  0  0  0  0  0
  -26.4523  -31.6579   25.0721 C   0  0  0  0  0  0
  -25.3714  -31.3738   26.1407 C   0  0  0  0  0  0
  -27.0371  -30.2978   24.6256 C   0  0  0  0  0  0
  -27.6062  -32.4339   25.7493 C   0  0  0  0  0  0
  -27.5579  -37.1781   24.8471 C   0  0  0  0  0  0
  -21.4223  -29.3040   22.3645 N   0  0  0  0  0  0
  -26.4288  -37.3767   23.9419 N   0  0  0  0  0  0
  -24.7026  -31.0474   22.0954 N   0  0  0  0  0  0
  -23.4219  -28.8124   23.3003 O   0  0  0  0  0  0
  -28.3165  -26.3005   20.2316 O   0  0  0  0  0  0
  -26.5623  -34.8909   22.4649 O   0  0  0  0  0  0
  -23.5473  -32.1368   23.7244 O   0  0  0  0  0  0
  -29.4704  -19.8410   19.8119 C   0  0  0  0  0  0
  -29.5699  -18.9169   21.9293 C   0  0  0  0  0  0
  -29.7077  -18.6074   20.5991 C   0  0  0  0  0  0
  -29.1822  -21.0477   20.4967 C   0  0  0  0  0  0
  -30.2451  -17.2228   20.0666 C   0  0  0  0  0  0
  -28.8494  -23.6232   20.5424 C   0  0  0  0  0  0
  -28.2290  -24.8677   19.7113 C   0  0  0  0  0  0
  -28.8780  -22.3356   19.9886 N   0  0  0  0  0  0
  -29.9336  -15.9739   20.6179 N   0  0  0  0  0  0
  -30.9726  -17.2925   19.0700 O   0  0  0  0  0  0
  -29.2985  -23.8378   21.6717 O   0  0  0  0  0  0
  -29.2001  -20.6263   22.2060 S   0  0  0  0  0  0
  -31.4613  -12.5575   19.2005 H   0  0  0  0  0  0
  -30.3247  -11.4924   19.9699 H   0  0  0  0  0  0
  -29.7887  -11.7593   17.5240 H   0  0  0  0  0  0
  -29.6463  -13.4882   17.7268 H   0  0  0  0  0  0
  -27.8579  -11.3215   18.8636 H   0  0  0  0  0  0
  -27.3828  -12.6038   17.7861 H   0  0  0  0  0  0
  -27.6274  -14.2805   19.4828 H   0  0  0  0  0  0
  -28.7201  -12.2163   21.4496 H   0  0  0  0  0  0
  -28.4252  -13.9007   21.7938 H   0  0  0  0  0  0
  -25.2826   -9.5774   22.4649 H   0  0  0  0  0  0
  -24.0089   -7.4709   22.7430 H   0  0  0  0  0  0
  -21.0878   -8.8754   19.8941 H   0  0  0  0  0  0
  -22.3690  -10.9656   19.6093 H   0  0  0  0  0  0
  -21.2043   -7.6165   23.9726 H   0  0  0  0  0  0
  -21.1447   -6.0508   25.9055 H   0  0  0  0  0  0
  -22.0632   -2.7633   23.2770 H   0  0  0  0  0  0
  -22.4124  -11.9854   22.4799 H   0  0  0  0  0  0
  -21.1072  -13.1097   22.2634 H   0  0  0  0  0  0
  -24.6469  -15.8507   20.5722 H   0  0  0  0  0  0
  -26.2604  -15.6576   20.0970 H   0  0  0  0  0  0
  -26.7219  -32.5396   23.1055 H   0  0  0  0  0  0
  -25.0142  -33.9698   25.0423 H   0  0  0  0  0  0
  -22.7313  -31.2947   21.3901 H   0  0  0  0  0  0
  -23.3766  -35.9569   23.3307 H   0  0  0  0  0  0
  -24.3574  -36.8867   22.2047 H   0  0  0  0  0  0
  -23.7216  -37.6445   23.6666 H   0  0  0  0  0  0
  -26.1371  -31.5199   20.6240 H   0  0  0  0  0  0
  -26.8542  -30.7973   22.0306 H   0  0  0  0  0  0
  -28.1141  -28.8786   21.2472 H   0  0  0  0  0  0
  -25.9504  -25.9563   18.8923 H   0  0  0  0  0  0
  -24.0027  -27.3519   18.9316 H   0  0  0  0  0  0
  -23.7779  -30.5842   19.3972 H   0  0  0  0  0  0
  -22.7778  -29.2359   19.8505 H   0  0  0  0  0  0
  -25.1308  -36.1886   25.0808 H   0  0  0  0  0  0
  -21.0009  -28.3285   24.1391 H   0  0  0  0  0  0
  -20.5716  -26.2304   23.3618 H   0  0  0  0  0  0
  -21.6651  -26.7457   22.1175 H   0  0  0  0  0  0
  -19.6907  -25.6301   21.1255 H   0  0  0  0  0  0
  -19.6689  -27.3202   20.6755 H   0  0  0  0  0  0
  -17.4208  -26.6711   21.4033 H   0  0  0  0  0  0
  -18.0316  -26.0089   22.9024 H   0  0  0  0  0  0
  -19.7940  -30.7307   24.2238 H   0  0  0  0  0  0
  -17.5015  -31.6275   24.5163 H   0  0  0  0  0  0
  -15.5358  -30.2984   23.7678 H   0  0  0  0  0  0
  -15.8690  -28.0832   22.7081 H   0  0  0  0  0  0
  -24.5934  -30.7040   25.7730 H   0  0  0  0  0  0
  -24.8843  -32.2890   26.4770 H   0  0  0  0  0  0
  -25.7997  -30.8965   27.0226 H   0  0  0  0  0  0
  -26.2960  -29.6706   24.1273 H   0  0  0  0  0  0
  -27.4014  -29.7280   25.4820 H   0  0  0  0  0  0
  -27.8875  -30.4234   23.9542 H   0  0  0  0  0  0
  -27.2673  -33.3674   26.2007 H   0  0  0  0  0  0
  -28.3895  -32.6838   25.0320 H   0  0  0  0  0  0
  -28.0697  -31.8489   26.5450 H   0  0  0  0  0  0
  -28.2593  -38.0083   24.7544 H   0  0  0  0  0  0
  -28.1074  -36.2615   24.6273 H   0  0  0  0  0  0
  -27.2295  -37.1393   25.8872 H   0  0  0  0  0  0
  -20.9433  -29.8732   21.6809 H   0  0  0  0  0  0
  -26.0152  -38.2834   24.1449 H   0  0  0  0  0  0
  -29.5562  -19.7920   18.7359 H   0  0  0  0  0  0
  -29.7319  -18.2593   22.7746 H   0  0  0  0  0  0
  -27.2034  -24.5497   19.5704 H   0  0  0  0  0  0
  -28.6854  -24.8669   18.7195 H   0  0  0  0  0  0
  -28.5923  -22.3336   19.0180 H   0  0  0  0  0  0
  -29.1070  -15.9419   21.1927 H   0  0  0  0  0  0
  1 25  1  0  0  0
  1 30  2  0  0  0
  1 79  1  0  0  0
  2  3  1  0  0  0
  2 25  1  0  0  0
  2 83  1  0  0  0
  2 84  1  0  0  0
  3  4  1  0  0  0
  3 85  1  0  0  0
  3 86  1  0  0  0
  4  5  1  0  0  0
  4 87  1  0  0  0
  4 88  1  0  0  0
  5  6  1  0  0  0
  5 26  1  0  0  0
  5 89  1  0  0  0
  6 25  1  0  0  0
  6 90  1  0  0  0
  6 91  1  0  0  0
  7  8  2  0  0  0
  7 26  1  0  0  0
  7 29  1  0  0  0
  8  9  1  0  0  0
  8 22  1  0  0  0
  9 10  1  0  0  0
  9 27  2  0  0  0
 10 11  2  0  0  0
 10 15  1  0  0  0
 11 12  1  0  0  0
 11 92  1  0  0  0
 12 13  2  0  0  0
 12 93  1  0  0  0
 13 14  1  0  0  0
 13 31  1  0  0  0
 14 15  2  0  0  0
 14 94  1  0  0  0
 15 95  1  0  0  0
 16 17  2  0  0  0
 16 21  1  0  0  0
 16 31  1  0  0  0
 17 18  1  0  0  0
 17 96  1  0  0  0
 18 19  2  0  0  0
 18 97  1  0  0  0
 19 20  1  0  0  0
 19 24  1  0  0  0
 20 21  2  0  0  0
 20 98  1  0  0  0
 21 23  1  0  0  0
 22 28  1  0  0  0
 22 32  2  0  0  0
 26 27  1  0  0  0
 28 99  1  0  0  0
 28100  1  0  0  0
 29101  1  0  0  0
 29102  1  0  0  0
 33 34  1  0  0  0
 33 66  1  0  0  0
 33 70  2  0  0  0
 34 36  1  0  0  0
 34 59  1  0  0  0
 34103  1  0  0  0
 35 44  2  0  0  0
 35 45  1  0  0  0
 35 68  1  0  0  0
 36 56  1  0  0  0
 36104  1  0  0  0
 37 39  1  0  0  0
 37 47  1  0  0  0
 37 66  1  0  0  0
 37105  1  0  0  0
 38 43  2  0  0  0
 38 46  1  0  0  0
 38 47  1  0  0  0
 39 64  1  0  0  0
 39 67  2  0  0  0
 40 52  1  0  0  0
 40 53  2  0  0  0
 40 58  1  0  0  0
 41106  1  0  0  0
 41107  1  0  0  0
 41108  1  0  0  0
 41 48  1  0  0  0
 42 43  1  0  0  0
 42 66  1  0  0  0
 42109  1  0  0  0
 42110  1  0  0  0
 43 44  1  0  0  0
 44111  1  0  0  0
 45 46  2  0  0  0
 45112  1  0  0  0
 46113  1  0  0  0
 47114  1  0  0  0
 47115  1  0  0  0
 48 56  1  0  0  0
 48 65  1  0  0  0
 48116  1  0  0  0
 49 50  1  0  0  0
 49 53  1  0  0  0
 49 64  1  0  0  0
 49117  1  0  0  0
 50 51  1  0  0  0
 50118  1  0  0  0
 50119  1  0  0  0
 51 52  1  0  0  0
 51120  1  0  0  0
 51121  1  0  0  0
 52122  1  0  0  0
 52123  1  0  0  0
 53 54  1  0  0  0
 54 55  2  0  0  0
 54124  1  0  0  0
 55 57  1  0  0  0
 55125  1  0  0  0
 56 69  2  0  0  0
 57 58  2  0  0  0
 57126  1  0  0  0
 58127  1  0  0  0
 59 60  1  0  0  0
 59 61  1  0  0  0
 59 62  1  0  0  0
 60128  1  0  0  0
 60129  1  0  0  0
 60130  1  0  0  0
 61131  1  0  0  0
 61132  1  0  0  0
 61133  1  0  0  0
 62134  1  0  0  0
 62135  1  0  0  0
 62136  1  0  0  0
 63 65  1  0  0  0
 63137  1  0  0  0
 63138  1  0  0  0
 63139  1  0  0  0
 64140  1  0  0  0
 65141  1  0  0  0
 68 77  1  0  0  0
 71 73  1  0  0  0
 71 74  2  0  0  0
 71142  1  0  0  0
 72 73  2  0  0  0
 72 82  1  0  0  0
 72143  1  0  0  0
 73 75  1  0  0  0
 74 78  1  0  0  0
 74 82  1  0  0  0
 75 79  1  0  0  0
 75 80  2  0  0  0
 76 77  1  0  0  0
 76 78  1  0  0  0
 76 81  2  0  0  0
 77144  1  0  0  0
 77145  1  0  0  0
 78146  1  0  0  0
 79147  1  0  0  0
M  ISO  4   1 100  68 101  77 101  79 100
M  END
> <chiral flag>
0

> <version>
0

> <s_m_source_file>
/data/baiqing/PycharmProjects/Reinvent-master-3.2/result/LINK_invent/BTK/process_docking_weight1_custom_product_contain_oxygen_bond_distance_aromatic_linkinvent_7_9_3/rearranged_h_0092.sdf

> <i_m_source_file_index>
59

> <r_mmod_Potential_Energy-OPLS-2005>
82.6426620483398

> <r_mmod_Stretch_Energy-OPLS-2005>
143.91569519043

> <r_mmod_Bend_Energy-OPLS-2005>
193.60334777832

> <r_mmod_Torsional_Energy-OPLS-2005>
241.802505493164

> <r_mmod_Improper_Torsional_Energy-OPLS-2005>
4.93469953536987

> <r_mmod_Van_der_Waal_Energy-OPLS-2005>
127.662467956543

> <r_mmod_Electrostatic_Energy-OPLS-2005>
-458.367462158203

> <r_mmod_Solvation_Energy-OPLS-2005>
-275.213470458984

> <b_mmod_Minimization_Converged-OPLS-2005>
0

> <r_mmod_RMS_Derivative-OPLS-2005>
4.28612470626831

$$$$
59
                    3D
 Structure written by MMmdl.
150158  0  0  1  0            999 V2000
  -30.6832  -14.5896   20.5241 C   0  0  0  0  0  0
  -30.4214  -12.3718   19.4438 C   0  0  0  0  0  0
  -29.4966  -12.4983   18.2163 C   0  0  0  0  0  0
  -28.0206  -12.3465   18.6318 C   0  0  0  0  0  0
  -27.6497  -13.2213   19.8597 C   0  0  2  0  0  0
  -28.6952  -13.0885   20.9883 C   0  0  0  0  0  0
  -25.2545  -13.8190   20.5699 C   0  0  0  0  0  0
  -24.1819  -13.0444   20.9197 C   0  0  0  0  0  0
  -24.6395  -11.6917   20.8749 C   0  0  0  0  0  0
  -23.9069  -10.4296   21.0411 C   0  0  0  0  0  0
  -24.3623   -9.4211   21.9187 C   0  0  0  0  0  0
  -23.6297   -8.2247   22.0758 C   0  0  0  0  0  0
  -22.4279   -8.0287   21.3547 C   0  0  0  0  0  0
  -21.9914   -9.0259   20.4647 C   0  0  0  0  0  0
  -22.7244  -10.2137   20.3056 C   0  0  0  0  0  0
  -21.6855   -6.0740   22.5280 C   0  0  0  0  0  0
  -21.4013   -6.5641   23.8214 C   0  0  0  0  0  0
  -21.3657   -5.6794   24.9175 C   0  0  0  0  0  0
  -21.6044   -4.3057   24.7224 C   0  0  0  0  0  0
  -21.8818   -3.8149   23.4345 C   0  0  0  0  0  0
  -21.9193   -4.6967   22.3402 C   0  0  0  0  0  0
  -22.7838  -13.5232   21.1854 C   0  0  0  0  0  0
  -22.1661   -4.2152   21.0980 F   0  0  0  0  0  0
  -21.5630   -3.4541   25.7736 F   0  0  0  0  0  0
  -30.0093  -13.4050   20.4133 N   0  0  0  0  0  0
  -26.2975  -12.9380   20.3324 N   0  0  0  0  0  0
  -25.9325  -11.6527   20.5769 N   0  0  0  0  0  0
  -22.0480  -12.8222   22.0407 N   0  0  0  0  0  0
  -25.4252  -15.1915   20.4121 N   0  0  0  0  0  0
  -31.8514  -14.6954   20.1433 O   0  0  0  0  0  0
  -21.6643   -6.8885   21.4243 O   0  0  0  0  0  0
  -22.3521  -14.5538   20.6703 O   0  0  0  0  0  0
  -24.6220  -31.8623   23.2055 C   0  0  0  0  0  0
  -25.9085  -32.4795   23.8371 C   0  0  1  0  0  0
  -27.2280  -27.3632   20.1146 C   0  0  0  0  0  0
  -25.5918  -33.8594   24.2303 N   0  0  0  0  0  0
  -23.4147  -30.4847   21.5462 C   0  0  2  0  0  0
  -24.8648  -28.9422   20.1132 C   0  0  0  0  0  0
  -22.7452  -29.4634   22.4954 C   0  0  0  0  0  0
  -18.0280  -28.1383   22.8492 C   0  0  0  0  0  0
  -24.1485  -36.7298   23.2637 C   0  0  0  0  0  0
  -25.9508  -30.8056   21.3710 C   0  0  0  0  0  0
  -26.0290  -29.4335   20.7204 C   0  0  0  0  0  0
  -27.2174  -28.6509   20.7219 C   0  0  0  0  0  0
  -26.0516  -26.9097   19.4898 C   0  0  0  0  0  0
  -24.8741  -27.6816   19.4922 C   0  0  0  0  0  0
  -23.6291  -29.8167   20.1615 C   0  0  0  0  0  0
  -25.4108  -36.3093   24.0334 C   0  0  1  0  0  0
  -20.5879  -28.3678   23.1295 C   0  0  2  0  0  0
  -20.6768  -26.9404   22.5414 C   0  0  0  0  0  0
  -19.5744  -26.6383   21.5214 C   0  0  0  0  0  0
  -18.1923  -26.7930   22.1623 C   0  0  0  0  0  0
  -19.1533  -28.8847   23.2890 C   0  0  0  0  0  0
  -18.9455  -30.1451   23.8904 C   0  0  0  0  0  0
  -17.6455  -30.6586   24.0567 C   0  0  0  0  0  0
  -25.9044  -34.9461   23.5117 C   0  0  0  0  0  0
  -16.5347  -29.9084   23.6331 C   0  0  0  0  0  0
  -16.7268  -28.6502   23.0355 C   0  0  0  0  0  0
  -26.4485  -31.6592   25.0723 C   0  0  0  0  0  0
  -25.3736  -31.3709   26.1462 C   0  0  0  0  0  0
  -27.0321  -30.3025   24.6139 C   0  0  0  0  0  0
  -27.6057  -32.4317   25.7487 C   0  0  0  0  0  0
  -27.5582  -37.1800   24.8459 C   0  0  0  0  0  0
  -21.4169  -29.3041   22.3696 N   0  0  0  0  0  0
  -26.4285  -37.3787   23.9415 N   0  0  0  0  0  0
  -24.6809  -31.0666   22.0988 N   0  0  0  0  0  0
  -23.4189  -28.8178   23.3027 O   0  0  0  0  0  0
  -28.3130  -26.4956   20.1046 O   0  0  0  0  0  0
  -26.5607  -34.8925   22.4680 O   0  0  0  0  0  0
  -23.5393  -32.1403   23.7408 O   0  0  0  0  0  0
  -29.2824  -18.7711   19.7797 C   0  0  0  0  0  0
  -28.9513  -20.1811   19.7652 C   0  0  0  0  0  0
  -29.9232  -18.3464   20.9223 C   0  0  0  0  0  0
  -29.3176  -20.8742   20.9012 C   0  0  0  0  0  0
  -28.5894  -25.8375   21.2913 C   0  0  0  0  0  0
  -28.8368  -24.5137   21.5649 C   0  0  0  0  0  0
  -28.8422  -23.3534   20.6281 C   0  0  0  0  0  0
  -30.5964  -17.0086   21.2919 C   0  0  0  0  0  0
  -29.1794  -22.1967   21.2746 N   0  0  0  0  0  0
  -29.9864  -15.6910   20.9311 N   0  0  0  0  0  0
  -28.5793  -23.3968   19.4245 O   0  0  0  0  0  0
  -29.1011  -24.2351   22.8558 O   0  0  0  0  0  0
  -30.0636  -19.7248   22.0127 S   0  0  0  0  0  0
  -31.4647  -12.4723   19.1396 H   0  0  0  0  0  0
  -30.3374  -11.3798   19.8903 H   0  0  0  0  0  0
  -29.7540  -11.7450   17.4707 H   0  0  0  0  0  0
  -29.6466  -13.4673   17.7375 H   0  0  0  0  0  0
  -27.8514  -11.2942   18.8629 H   0  0  0  0  0  0
  -27.3660  -12.5803   17.7913 H   0  0  0  0  0  0
  -27.6672  -14.2560   19.5162 H   0  0  0  0  0  0
  -28.6986  -12.0755   21.3932 H   0  0  0  0  0  0
  -28.4511  -13.7460   21.8239 H   0  0  0  0  0  0
  -25.2767   -9.5690   22.4762 H   0  0  0  0  0  0
  -24.0006   -7.4640   22.7477 H   0  0  0  0  0  0
  -21.0848   -8.8776   19.8950 H   0  0  0  0  0  0
  -22.3704  -10.9677   19.6166 H   0  0  0  0  0  0
  -21.2004   -7.6147   23.9719 H   0  0  0  0  0  0
  -21.1479   -6.0523   25.9079 H   0  0  0  0  0  0
  -22.0600   -2.7612   23.2844 H   0  0  0  0  0  0
  -22.4085  -11.9873   22.4782 H   0  0  0  0  0  0
  -21.1099  -13.1252   22.2614 H   0  0  0  0  0  0
  -24.6596  -15.8470   20.5256 H   0  0  0  0  0  0
  -26.2765  -15.6322   20.0867 H   0  0  0  0  0  0
  -26.7159  -32.5481   23.1131 H   0  0  0  0  0  0
  -25.0088  -33.9747   25.0463 H   0  0  0  0  0  0
  -22.7068  -31.3036   21.4032 H   0  0  0  0  0  0
  -23.3754  -35.9623   23.3284 H   0  0  0  0  0  0
  -24.3588  -36.8927   22.2055 H   0  0  0  0  0  0
  -23.7226  -37.6493   23.6662 H   0  0  0  0  0  0
  -26.0724  -31.5676   20.5998 H   0  0  0  0  0  0
  -26.8351  -30.8603   21.9939 H   0  0  0  0  0  0
  -28.1132  -29.0214   21.1997 H   0  0  0  0  0  0
  -26.0442  -25.9365   19.0195 H   0  0  0  0  0  0
  -23.9817  -27.2972   19.0175 H   0  0  0  0  0  0
  -23.7428  -30.5917   19.4025 H   0  0  0  0  0  0
  -22.7514  -29.2407   19.8622 H   0  0  0  0  0  0
  -25.1289  -36.1947   25.0827 H   0  0  0  0  0  0
  -20.9970  -28.3246   24.1416 H   0  0  0  0  0  0
  -20.5657  -26.2286   23.3608 H   0  0  0  0  0  0
  -21.6635  -26.7431   22.1206 H   0  0  0  0  0  0
  -19.6893  -25.6293   21.1240 H   0  0  0  0  0  0
  -19.6686  -27.3197   20.6746 H   0  0  0  0  0  0
  -17.4192  -26.6688   21.4024 H   0  0  0  0  0  0
  -18.0318  -26.0066   22.9012 H   0  0  0  0  0  0
  -19.7930  -30.7273   24.2269 H   0  0  0  0  0  0
  -17.5007  -31.6269   24.5164 H   0  0  0  0  0  0
  -15.5347  -30.2990   23.7652 H   0  0  0  0  0  0
  -15.8666  -28.0824   22.7070 H   0  0  0  0  0  0
  -24.5924  -30.7036   25.7800 H   0  0  0  0  0  0
  -24.8907  -32.2860   26.4897 H   0  0  0  0  0  0
  -25.8082  -30.8894   27.0229 H   0  0  0  0  0  0
  -26.2878  -29.6784   24.1175 H   0  0  0  0  0  0
  -27.4050  -29.7269   25.4621 H   0  0  0  0  0  0
  -27.8733  -30.4329   23.9328 H   0  0  0  0  0  0
  -27.2686  -33.3629   26.2052 H   0  0  0  0  0  0
  -28.3873  -32.6851   25.0314 H   0  0  0  0  0  0
  -28.0710  -31.8440   26.5410 H   0  0  0  0  0  0
  -28.2582  -38.0115   24.7539 H   0  0  0  0  0  0
  -28.1098  -36.2650   24.6246 H   0  0  0  0  0  0
  -27.2305  -37.1395   25.8862 H   0  0  0  0  0  0
  -20.9334  -29.8781   21.6930 H   0  0  0  0  0  0
  -26.0168  -38.2856   24.1444 H   0  0  0  0  0  0
  -29.0729  -18.1337   18.9319 H   0  0  0  0  0  0
  -28.4625  -20.6312   18.9120 H   0  0  0  0  0  0
  -28.6079  -26.5605   22.0959 H   0  0  0  0  0  0
  -30.7239  -16.9834   22.3749 H   0  0  0  0  0  0
  -31.6156  -17.0515   20.9050 H   0  0  0  0  0  0
  -29.3890  -22.3940   22.2465 H   0  0  0  0  0  0
  -29.0149  -15.5547   21.1641 H   0  0  0  0  0  0
  -29.0634  -25.0496   23.3394 H   0  0  0  0  0  0
  1 25  1  0  0  0
  1 30  2  0  0  0
  1 80  1  0  0  0
  2  3  1  0  0  0
  2 25  1  0  0  0
  2 84  1  0  0  0
  2 85  1  0  0  0
  3  4  1  0  0  0
  3 86  1  0  0  0
  3 87  1  0  0  0
  4  5  1  0  0  0
  4 88  1  0  0  0
  4 89  1  0  0  0
  5  6  1  0  0  0
  5 26  1  0  0  0
  5 90  1  0  0  0
  6 25  1  0  0  0
  6 91  1  0  0  0
  6 92  1  0  0  0
  7  8  2  0  0  0
  7 26  1  0  0  0
  7 29  1  0  0  0
  8  9  1  0  0  0
  8 22  1  0  0  0
  9 10  1  0  0  0
  9 27  2  0  0  0
 10 11  2  0  0  0
 10 15  1  0  0  0
 11 12  1  0  0  0
 11 93  1  0  0  0
 12 13  2  0  0  0
 12 94  1  0  0  0
 13 14  1  0  0  0
 13 31  1  0  0  0
 14 15  2  0  0  0
 14 95  1  0  0  0
 15 96  1  0  0  0
 16 17  2  0  0  0
 16 21  1  0  0  0
 16 31  1  0  0  0
 17 18  1  0  0  0
 17 97  1  0  0  0
 18 19  2  0  0  0
 18 98  1  0  0  0
 19 20  1  0  0  0
 19 24  1  0  0  0
 20 21  2  0  0  0
 20 99  1  0  0  0
 21 23  1  0  0  0
 22 28  1  0  0  0
 22 32  2  0  0  0
 26 27  1  0  0  0
 28100  1  0  0  0
 28101  1  0  0  0
 29102  1  0  0  0
 29103  1  0  0  0
 33 34  1  0  0  0
 33 66  1  0  0  0
 33 70  2  0  0  0
 34 36  1  0  0  0
 34 59  1  0  0  0
 34104  1  0  0  0
 35 44  2  0  0  0
 35 45  1  0  0  0
 35 68  1  0  0  0
 36 56  1  0  0  0
 36105  1  0  0  0
 37 39  1  0  0  0
 37 47  1  0  0  0
 37 66  1  0  0  0
 37106  1  0  0  0
 38 43  2  0  0  0
 38 46  1  0  0  0
 38 47  1  0  0  0
 39 64  1  0  0  0
 39 67  2  0  0  0
 40 52  1  0  0  0
 40 53  2  0  0  0
 40 58  1  0  0  0
 41107  1  0  0  0
 41108  1  0  0  0
 41109  1  0  0  0
 41 48  1  0  0  0
 42 43  1  0  0  0
 42 66  1  0  0  0
 42110  1  0  0  0
 42111  1  0  0  0
 43 44  1  0  0  0
 44112  1  0  0  0
 45 46  2  0  0  0
 45113  1  0  0  0
 46114  1  0  0  0
 47115  1  0  0  0
 47116  1  0  0  0
 48 56  1  0  0  0
 48 65  1  0  0  0
 48117  1  0  0  0
 49 50  1  0  0  0
 49 53  1  0  0  0
 49 64  1  0  0  0
 49118  1  0  0  0
 50 51  1  0  0  0
 50119  1  0  0  0
 50120  1  0  0  0
 51 52  1  0  0  0
 51121  1  0  0  0
 51122  1  0  0  0
 52123  1  0  0  0
 52124  1  0  0  0
 53 54  1  0  0  0
 54 55  2  0  0  0
 54125  1  0  0  0
 55 57  1  0  0  0
 55126  1  0  0  0
 56 69  2  0  0  0
 57 58  2  0  0  0
 57127  1  0  0  0
 58128  1  0  0  0
 59 60  1  0  0  0
 59 61  1  0  0  0
 59 62  1  0  0  0
 60129  1  0  0  0
 60130  1  0  0  0
 60131  1  0  0  0
 61132  1  0  0  0
 61133  1  0  0  0
 61134  1  0  0  0
 62135  1  0  0  0
 62136  1  0  0  0
 62137  1  0  0  0
 63 65  1  0  0  0
 63138  1  0  0  0
 63139  1  0  0  0
 63140  1  0  0  0
 64141  1  0  0  0
 65142  1  0  0  0
 68 75  1  0  0  0
 71 72  1  0  0  0
 71 73  2  0  0  0
 71143  1  0  0  0
 72 74  2  0  0  0
 72144  1  0  0  0
 73 78  1  0  0  0
 73 83  1  0  0  0
 74 79  1  0  0  0
 74 83  1  0  0  0
 75 76  2  0  0  0
 75145  1  0  0  0
 76 77  1  0  0  0
 76 82  1  0  0  0
 77 79  1  0  0  0
 77 81  2  0  0  0
 78 80  1  0  0  0
 78146  1  0  0  0
 78147  1  0  0  0
 79148  1  0  0  0
 80149  1  0  0  0
 82150  1  0  0  0
M  ISO  4   1 100  68 101  75 101  80 100
M  END
> <chiral flag>
0

> <version>
0

> <s_m_source_file>
/data/baiqing/PycharmProjects/Reinvent-master-3.2/result/LINK_invent/BTK/process_docking_weight1_custom_product_contain_oxygen_bond_distance_aromatic_linkinvent_7_9_3/rearranged_h_0092.sdf

> <i_m_source_file_index>
60

> <r_mmod_Potential_Energy-OPLS-2005>
-79.7225723266602

> <r_mmod_Stretch_Energy-OPLS-2005>
56.2764739990234

> <r_mmod_Bend_Energy-OPLS-2005>
158.550369262695

> <r_mmod_Torsional_Energy-OPLS-2005>
210.988906860352

> <r_mmod_Improper_Torsional_Energy-OPLS-2005>
3.65790629386902

> <r_mmod_Van_der_Waal_Energy-OPLS-2005>
126.83129119873

> <r_mmod_Electrostatic_Energy-OPLS-2005>
-437.3798828125

> <r_mmod_Solvation_Energy-OPLS-2005>
-234.944046020508

> <b_mmod_Minimization_Converged-OPLS-2005>
0

> <r_mmod_RMS_Derivative-OPLS-2005>
0.605072915554047

$$$$
60
                    3D
 Structure written by MMmdl.
157166  0  0  1  0            999 V2000
  -30.6092  -14.6735   20.4883 C   0  0  0  0  0  0
  -30.4442  -12.4137   19.4525 C   0  0  0  0  0  0
  -29.5099  -12.5115   18.2249 C   0  0  0  0  0  0
  -28.0341  -12.3386   18.6382 C   0  0  0  0  0  0
  -27.6520  -13.2107   19.8624 C   0  0  2  0  0  0
  -28.7003  -13.0843   20.9914 C   0  0  0  0  0  0
  -25.2548  -13.8129   20.5699 C   0  0  0  0  0  0
  -24.1831  -13.0408   20.9250 C   0  0  0  0  0  0
  -24.6395  -11.6882   20.8769 C   0  0  0  0  0  0
  -23.9061  -10.4275   21.0420 C   0  0  0  0  0  0
  -24.3612   -9.4189   21.9193 C   0  0  0  0  0  0
  -23.6286   -8.2228   22.0757 C   0  0  0  0  0  0
  -22.4268   -8.0273   21.3545 C   0  0  0  0  0  0
  -21.9905   -9.0249   20.4649 C   0  0  0  0  0  0
  -22.7236  -10.2127   20.3063 C   0  0  0  0  0  0
  -21.6848   -6.0731   22.5279 C   0  0  0  0  0  0
  -21.4011   -6.5637   23.8212 C   0  0  0  0  0  0
  -21.3658   -5.6791   24.9175 C   0  0  0  0  0  0
  -21.6044   -4.3054   24.7226 C   0  0  0  0  0  0
  -21.8820   -3.8145   23.4348 C   0  0  0  0  0  0
  -21.9191   -4.6960   22.3403 C   0  0  0  0  0  0
  -22.7853  -13.5214   21.1883 C   0  0  0  0  0  0
  -22.1661   -4.2146   21.0980 F   0  0  0  0  0  0
  -21.5629   -3.4538   25.7739 F   0  0  0  0  0  0
  -30.0118  -13.4389   20.4235 N   0  0  0  0  0  0
  -26.2975  -12.9310   20.3299 N   0  0  0  0  0  0
  -25.9317  -11.6473   20.5757 N   0  0  0  0  0  0
  -22.0474  -12.8217   22.0429 N   0  0  0  0  0  0
  -25.4179  -15.1837   20.4043 N   0  0  0  0  0  0
  -31.7784  -14.8409   20.1298 O   0  0  0  0  0  0
  -21.6632   -6.8872   21.4240 O   0  0  0  0  0  0
  -22.3559  -14.5521   20.6711 O   0  0  0  0  0  0
  -24.6272  -31.8593   23.2029 C   0  0  0  0  0  0
  -25.9115  -32.4778   23.8360 C   0  0  1  0  0  0
  -27.2241  -27.3093   20.1232 C   0  0  0  0  0  0
  -25.5926  -33.8579   24.2283 N   0  0  0  0  0  0
  -23.4225  -30.4830   21.5452 C   0  0  2  0  0  0
  -24.8719  -28.9400   20.1103 C   0  0  0  0  0  0
  -22.7485  -29.4619   22.4929 C   0  0  0  0  0  0
  -18.0289  -28.1385   22.8486 C   0  0  0  0  0  0
  -24.1489  -36.7295   23.2639 C   0  0  0  0  0  0
  -25.9654  -30.7864   21.3783 C   0  0  0  0  0  0
  -26.0413  -29.4132   20.7206 C   0  0  0  0  0  0
  -27.2228  -28.6096   20.7192 C   0  0  0  0  0  0
  -26.0400  -26.9053   19.4664 C   0  0  0  0  0  0
  -24.8738  -27.6913   19.4725 C   0  0  0  0  0  0
  -23.6393  -29.8198   20.1602 C   0  0  0  0  0  0
  -25.4114  -36.3084   24.0329 C   0  0  1  0  0  0
  -20.5891  -28.3692   23.1278 C   0  0  2  0  0  0
  -20.6778  -26.9413   22.5408 C   0  0  0  0  0  0
  -19.5753  -26.6384   21.5212 C   0  0  0  0  0  0
  -18.1934  -26.7927   22.1625 C   0  0  0  0  0  0
  -19.1542  -28.8855   23.2877 C   0  0  0  0  0  0
  -18.9464  -30.1456   23.8895 C   0  0  0  0  0  0
  -17.6463  -30.6587   24.0563 C   0  0  0  0  0  0
  -25.9050  -34.9452   23.5106 C   0  0  0  0  0  0
  -16.5354  -29.9085   23.6330 C   0  0  0  0  0  0
  -16.7276  -28.6502   23.0352 C   0  0  0  0  0  0
  -26.4496  -31.6589   25.0731 C   0  0  0  0  0  0
  -25.3727  -31.3727   26.1456 C   0  0  0  0  0  0
  -27.0341  -30.3010   24.6194 C   0  0  0  0  0  0
  -27.6054  -32.4325   25.7502 C   0  0  0  0  0  0
  -27.5579  -37.1804   24.8465 C   0  0  0  0  0  0
  -21.4197  -29.3044   22.3671 N   0  0  0  0  0  0
  -26.4293  -37.3777   23.9406 N   0  0  0  0  0  0
  -24.6904  -31.0594   22.0988 N   0  0  0  0  0  0
  -23.4202  -28.8154   23.3011 O   0  0  0  0  0  0
  -28.3092  -26.4152   20.1653 O   0  0  0  0  0  0
  -26.5619  -34.8918   22.4673 O   0  0  0  0  0  0
  -23.5431  -32.1396   23.7346 O   0  0  0  0  0  0
  -27.9918  -17.1332   18.8803 C   0  0  0  0  0  0
  -30.6698  -19.4433   21.2328 C   0  0  0  0  0  0
  -30.7355  -18.0139   21.3057 C   0  0  0  0  0  0
  -28.8616  -19.2926   19.6658 C   0  0  0  0  0  0
  -30.2386  -23.7588   19.9524 C   0  0  0  0  0  0
  -28.9234  -17.8654   19.7249 C   0  0  0  0  0  0
  -28.8935  -23.8029   20.4264 C   0  0  0  0  0  0
  -29.7183  -20.1274   20.4246 C   0  0  0  0  0  0
  -29.8566  -17.1749   20.5651 C   0  0  0  0  0  0
  -28.5653  -22.4603   20.6529 C   0  0  0  0  0  0
  -30.6514  -22.4492   19.9168 C   0  0  0  0  0  0
  -27.2811  -21.8902   21.1720 C   0  0  0  0  0  0
  -27.9853  -25.0622   20.6935 C   0  0  0  0  0  0
  -27.2509  -16.5487   18.2084 N   0  0  0  0  0  0
  -29.6426  -21.5938   20.3429 N   0  0  0  0  0  0
  -29.7728  -15.7199   20.7899 N   0  0  0  0  0  0
  -31.8568  -21.9546   19.5254 O   0  0  0  0  0  0
  -31.4833  -12.5500   19.1476 H   0  0  0  0  0  0
  -30.3911  -11.4205   19.9011 H   0  0  0  0  0  0
  -29.7805  -11.7581   17.4839 H   0  0  0  0  0  0
  -29.6417  -13.4794   17.7384 H   0  0  0  0  0  0
  -27.8787  -11.2852   18.8742 H   0  0  0  0  0  0
  -27.3774  -12.5612   17.7963 H   0  0  0  0  0  0
  -27.6642  -14.2402   19.5155 H   0  0  0  0  0  0
  -28.7226  -12.0659   21.3821 H   0  0  0  0  0  0
  -28.4414  -13.7218   21.8384 H   0  0  0  0  0  0
  -25.2757   -9.5662   22.4769 H   0  0  0  0  0  0
  -23.9992   -7.4616   22.7474 H   0  0  0  0  0  0
  -21.0836   -8.8771   19.8954 H   0  0  0  0  0  0
  -22.3699  -10.9670   19.6175 H   0  0  0  0  0  0
  -21.2002   -7.6145   23.9714 H   0  0  0  0  0  0
  -21.1480   -6.0522   25.9077 H   0  0  0  0  0  0
  -22.0601   -2.7607   23.2849 H   0  0  0  0  0  0
  -22.4076  -11.9879   22.4830 H   0  0  0  0  0  0
  -21.1091  -13.1254   22.2616 H   0  0  0  0  0  0
  -24.5923  -15.7721   20.4218 H   0  0  0  0  0  0
  -26.1259  -15.5418   19.7717 H   0  0  0  0  0  0
  -26.7183  -32.5449   23.1109 H   0  0  0  0  0  0
  -25.0071  -33.9725   25.0426 H   0  0  0  0  0  0
  -22.7168  -31.3039   21.4021 H   0  0  0  0  0  0
  -23.3750  -35.9629   23.3305 H   0  0  0  0  0  0
  -24.3580  -36.8911   22.2052 H   0  0  0  0  0  0
  -23.7246  -37.6499   23.6658 H   0  0  0  0  0  0
  -26.0991  -31.5495   20.6102 H   0  0  0  0  0  0
  -26.8448  -30.8351   22.0088 H   0  0  0  0  0  0
  -28.1167  -28.9646   21.2127 H   0  0  0  0  0  0
  -25.9999  -25.9589   18.9468 H   0  0  0  0  0  0
  -23.9829  -27.3281   18.9788 H   0  0  0  0  0  0
  -23.7588  -30.5975   19.4050 H   0  0  0  0  0  0
  -22.7597  -29.2494   19.8565 H   0  0  0  0  0  0
  -25.1294  -36.1938   25.0822 H   0  0  0  0  0  0
  -20.9983  -28.3268   24.1398 H   0  0  0  0  0  0
  -20.5680  -26.2302   23.3610 H   0  0  0  0  0  0
  -21.6647  -26.7442   22.1201 H   0  0  0  0  0  0
  -19.6916  -25.6295   21.1242 H   0  0  0  0  0  0
  -19.6689  -27.3194   20.6741 H   0  0  0  0  0  0
  -17.4202  -26.6672   21.4029 H   0  0  0  0  0  0
  -18.0337  -26.0070   22.9023 H   0  0  0  0  0  0
  -19.7939  -30.7273   24.2264 H   0  0  0  0  0  0
  -17.5017  -31.6266   24.5165 H   0  0  0  0  0  0
  -15.5355  -30.2986   23.7654 H   0  0  0  0  0  0
  -15.8676  -28.0820   22.7068 H   0  0  0  0  0  0
  -24.5905  -30.7073   25.7784 H   0  0  0  0  0  0
  -24.8915  -32.2893   26.4877 H   0  0  0  0  0  0
  -25.8051  -30.8909   27.0234 H   0  0  0  0  0  0
  -26.2920  -29.6761   24.1212 H   0  0  0  0  0  0
  -27.4028  -29.7267   25.4703 H   0  0  0  0  0  0
  -27.8796  -30.4293   23.9431 H   0  0  0  0  0  0
  -27.2662  -33.3625   26.2079 H   0  0  0  0  0  0
  -28.3865  -32.6887   25.0332 H   0  0  0  0  0  0
  -28.0722  -31.8452   26.5420 H   0  0  0  0  0  0
  -28.2600  -38.0097   24.7507 H   0  0  0  0  0  0
  -28.1072  -36.2629   24.6297 H   0  0  0  0  0  0
  -27.2296  -37.1460   25.8868 H   0  0  0  0  0  0
  -20.9376  -29.8771   21.6884 H   0  0  0  0  0  0
  -26.0175  -38.2854   24.1403 H   0  0  0  0  0  0
  -31.3593  -20.0272   21.8255 H   0  0  0  0  0  0
  -31.4540  -17.5638   21.9761 H   0  0  0  0  0  0
  -28.1361  -19.7616   19.0162 H   0  0  0  0  0  0
  -30.8410  -24.6129   19.6741 H   0  0  0  0  0  0
  -26.6846  -22.6487   21.6786 H   0  0  0  0  0  0
  -27.4631  -21.0903   21.8903 H   0  0  0  0  0  0
  -26.6798  -21.4826   20.3592 H   0  0  0  0  0  0
  -27.9302  -25.1687   21.7775 H   0  0  0  0  0  0
  -26.9866  -24.7461   20.4005 H   0  0  0  0  0  0
  -28.8445  -15.3901   21.0078 H   0  0  0  0  0  0
  -32.3996  -22.6911   19.2612 H   0  0  0  0  0  0
  1 25  1  0  0  0
  1 30  2  0  0  0
  1 86  1  0  0  0
  2  3  1  0  0  0
  2 25  1  0  0  0
  2 88  1  0  0  0
  2 89  1  0  0  0
  3  4  1  0  0  0
  3 90  1  0  0  0
  3 91  1  0  0  0
  4  5  1  0  0  0
  4 92  1  0  0  0
  4 93  1  0  0  0
  5  6  1  0  0  0
  5 26  1  0  0  0
  5 94  1  0  0  0
  6 25  1  0  0  0
  6 95  1  0  0  0
  6 96  1  0  0  0
  7  8  2  0  0  0
  7 26  1  0  0  0
  7 29  1  0  0  0
  8  9  1  0  0  0
  8 22  1  0  0  0
  9 10  1  0  0  0
  9 27  2  0  0  0
 10 11  2  0  0  0
 10 15  1  0  0  0
 11 12  1  0  0  0
 11 97  1  0  0  0
 12 13  2  0  0  0
 12 98  1  0  0  0
 13 14  1  0  0  0
 13 31  1  0  0  0
 14 15  2  0  0  0
 14 99  1  0  0  0
 15100  1  0  0  0
 16 17  2  0  0  0
 16 21  1  0  0  0
 16 31  1  0  0  0
 17 18  1  0  0  0
 17101  1  0  0  0
 18 19  2  0  0  0
 18102  1  0  0  0
 19 20  1  0  0  0
 19 24  1  0  0  0
 20 21  2  0  0  0
 20103  1  0  0  0
 21 23  1  0  0  0
 22 28  1  0  0  0
 22 32  2  0  0  0
 26 27  1  0  0  0
 28104  1  0  0  0
 28105  1  0  0  0
 29106  1  0  0  0
 29107  1  0  0  0
 33 34  1  0  0  0
 33 66  1  0  0  0
 33 70  2  0  0  0
 34 36  1  0  0  0
 34 59  1  0  0  0
 34108  1  0  0  0
 35 44  2  0  0  0
 35 45  1  0  0  0
 35 68  1  0  0  0
 36 56  1  0  0  0
 36109  1  0  0  0
 37 39  1  0  0  0
 37 47  1  0  0  0
 37 66  1  0  0  0
 37110  1  0  0  0
 38 43  2  0  0  0
 38 46  1  0  0  0
 38 47  1  0  0  0
 39 64  1  0  0  0
 39 67  2  0  0  0
 40 52  1  0  0  0
 40 53  2  0  0  0
 40 58  1  0  0  0
 41111  1  0  0  0
 41112  1  0  0  0
 41113  1  0  0  0
 41 48  1  0  0  0
 42 43  1  0  0  0
 42 66  1  0  0  0
 42114  1  0  0  0
 42115  1  0  0  0
 43 44  1  0  0  0
 44116  1  0  0  0
 45 46  2  0  0  0
 45117  1  0  0  0
 46118  1  0  0  0
 47119  1  0  0  0
 47120  1  0  0  0
 48 56  1  0  0  0
 48 65  1  0  0  0
 48121  1  0  0  0
 49 50  1  0  0  0
 49 53  1  0  0  0
 49 64  1  0  0  0
 49122  1  0  0  0
 50 51  1  0  0  0
 50123  1  0  0  0
 50124  1  0  0  0
 51 52  1  0  0  0
 51125  1  0  0  0
 51126  1  0  0  0
 52127  1  0  0  0
 52128  1  0  0  0
 53 54  1  0  0  0
 54 55  2  0  0  0
 54129  1  0  0  0
 55 57  1  0  0  0
 55130  1  0  0  0
 56 69  2  0  0  0
 57 58  2  0  0  0
 57131  1  0  0  0
 58132  1  0  0  0
 59 60  1  0  0  0
 59 61  1  0  0  0
 59 62  1  0  0  0
 60133  1  0  0  0
 60134  1  0  0  0
 60135  1  0  0  0
 61136  1  0  0  0
 61137  1  0  0  0
 61138  1  0  0  0
 62139  1  0  0  0
 62140  1  0  0  0
 62141  1  0  0  0
 63 65  1  0  0  0
 63142  1  0  0  0
 63143  1  0  0  0
 63144  1  0  0  0
 64145  1  0  0  0
 65146  1  0  0  0
 68 83  1  0  0  0
 71 76  1  0  0  0
 71 84  3  0  0  0
 72 73  2  0  0  0
 72 78  1  0  0  0
 72147  1  0  0  0
 73 79  1  0  0  0
 73148  1  0  0  0
 74 76  1  0  0  0
 74 78  2  0  0  0
 74149  1  0  0  0
 75 77  1  0  0  0
 75 81  2  0  0  0
 75150  1  0  0  0
 76 79  2  0  0  0
 77 80  2  0  0  0
 77 83  1  0  0  0
 78 85  1  0  0  0
 79 86  1  0  0  0
 80 82  1  0  0  0
 80 85  1  0  0  0
 81 85  1  0  0  0
 81 87  1  0  0  0
 82151  1  0  0  0
 82152  1  0  0  0
 82153  1  0  0  0
 83154  1  0  0  0
 83155  1  0  0  0
 86156  1  0  0  0
 87157  1  0  0  0
M  ISO  4   1 100  68 101  83 101  86 100
M  END
> <chiral flag>
0

> <version>
0

> <s_m_source_file>
/data/baiqing/PycharmProjects/Reinvent-master-3.2/result/LINK_invent/BTK/process_docking_weight1_custom_product_contain_oxygen_bond_distance_aromatic_linkinvent_7_9_3/rearranged_h_0092.sdf

> <i_m_source_file_index>
61

> <r_mmod_Potential_Energy-OPLS-2005>
96.9358673095703

> <r_mmod_Stretch_Energy-OPLS-2005>
85.0872573852539

> <r_mmod_Bend_Energy-OPLS-2005>
131.432144165039

> <r_mmod_Torsional_Energy-OPLS-2005>
276.011901855469

> <r_mmod_Improper_Torsional_Energy-OPLS-2005>
8.66570091247559

> <r_mmod_Van_der_Waal_Energy-OPLS-2005>
130.417083740234

> <r_mmod_Electrostatic_Energy-OPLS-2005>
-373.393737792969

> <r_mmod_Solvation_Energy-OPLS-2005>
-221.057006835938

> <b_mmod_Minimization_Converged-OPLS-2005>
0

> <r_mmod_RMS_Derivative-OPLS-2005>
0.0618132762610912

$$$$
61
                    3D
 Structure written by MMmdl.
158167  0  0  1  0            999 V2000
  -30.6837  -14.5644   20.4861 C   0  0  0  0  0  0
  -30.4082  -12.3346   19.4728 C   0  0  0  0  0  0
  -29.5000  -12.4885   18.2344 C   0  0  0  0  0  0
  -28.0205  -12.3505   18.6373 C   0  0  0  0  0  0
  -27.6504  -13.2209   19.8694 C   0  0  2  0  0  0
  -28.6875  -13.0867   21.0077 C   0  0  0  0  0  0
  -25.2530  -13.8192   20.5677 C   0  0  0  0  0  0
  -24.1806  -13.0451   20.9185 C   0  0  0  0  0  0
  -24.6376  -11.6924   20.8748 C   0  0  0  0  0  0
  -23.9053  -10.4303   21.0419 C   0  0  0  0  0  0
  -24.3607   -9.4218   21.9195 C   0  0  0  0  0  0
  -23.6287   -8.2251   22.0760 C   0  0  0  0  0  0
  -22.4273   -8.0284   21.3544 C   0  0  0  0  0  0
  -21.9909   -9.0258   20.4645 C   0  0  0  0  0  0
  -22.7230  -10.2141   20.3059 C   0  0  0  0  0  0
  -21.6852   -6.0735   22.5276 C   0  0  0  0  0  0
  -21.4018   -6.5643   23.8210 C   0  0  0  0  0  0
  -21.3657   -5.6793   24.9172 C   0  0  0  0  0  0
  -21.6039   -4.3057   24.7221 C   0  0  0  0  0  0
  -21.8818   -3.8146   23.4347 C   0  0  0  0  0  0
  -21.9191   -4.6962   22.3400 C   0  0  0  0  0  0
  -22.7831  -13.5242   21.1853 C   0  0  0  0  0  0
  -22.1660   -4.2150   21.0978 F   0  0  0  0  0  0
  -21.5624   -3.4541   25.7736 F   0  0  0  0  0  0
  -30.0130  -13.3736   20.4448 N   0  0  0  0  0  0
  -26.2960  -12.9385   20.3342 N   0  0  0  0  0  0
  -25.9303  -11.6542   20.5782 N   0  0  0  0  0  0
  -22.0477  -12.8225   22.0405 N   0  0  0  0  0  0
  -25.4273  -15.1910   20.4086 N   0  0  0  0  0  0
  -31.8592  -14.6204   20.1127 O   0  0  0  0  0  0
  -21.6642   -6.8881   21.4239 O   0  0  0  0  0  0
  -22.3528  -14.5562   20.6717 O   0  0  0  0  0  0
  -24.6174  -31.8656   23.2082 C   0  0  0  0  0  0
  -25.9054  -32.4816   23.8393 C   0  0  1  0  0  0
  -27.2245  -27.3859   20.1154 C   0  0  0  0  0  0
  -25.5911  -33.8614   24.2324 N   0  0  0  0  0  0
  -23.4108  -30.4873   21.5481 C   0  0  2  0  0  0
  -24.8616  -28.9536   20.1089 C   0  0  0  0  0  0
  -22.7444  -29.4639   22.4963 C   0  0  0  0  0  0
  -18.0275  -28.1384   22.8489 C   0  0  0  0  0  0
  -24.1490  -36.7297   23.2630 C   0  0  0  0  0  0
  -25.9447  -30.8136   21.3753 C   0  0  0  0  0  0
  -26.0218  -29.4438   20.7255 C   0  0  0  0  0  0
  -27.2077  -28.6629   20.7349 C   0  0  0  0  0  0
  -26.0678  -26.9505   19.4425 C   0  0  0  0  0  0
  -24.8814  -27.7064   19.4631 C   0  0  0  0  0  0
  -23.6241  -29.8234   20.1619 C   0  0  0  0  0  0
  -25.4110  -36.3104   24.0331 C   0  0  1  0  0  0
  -20.5874  -28.3684   23.1299 C   0  0  2  0  0  0
  -20.6767  -26.9416   22.5411 C   0  0  0  0  0  0
  -19.5750  -26.6387   21.5213 C   0  0  0  0  0  0
  -18.1919  -26.7927   22.1624 C   0  0  0  0  0  0
  -19.1530  -28.8850   23.2887 C   0  0  0  0  0  0
  -18.9451  -30.1451   23.8907 C   0  0  0  0  0  0
  -17.6453  -30.6590   24.0570 C   0  0  0  0  0  0
  -25.9051  -34.9470   23.5130 C   0  0  0  0  0  0
  -16.5345  -29.9095   23.6334 C   0  0  0  0  0  0
  -16.7260  -28.6514   23.0351 C   0  0  0  0  0  0
  -26.4473  -31.6609   25.0733 C   0  0  0  0  0  0
  -25.3725  -31.3716   26.1475 C   0  0  0  0  0  0
  -27.0299  -30.3045   24.6127 C   0  0  0  0  0  0
  -27.6053  -32.4322   25.7482 C   0  0  0  0  0  0
  -27.5595  -37.1776   24.8450 C   0  0  0  0  0  0
  -21.4163  -29.3042   22.3704 N   0  0  0  0  0  0
  -26.4292  -37.3795   23.9417 N   0  0  0  0  0  0
  -24.6756  -31.0717   22.1010 N   0  0  0  0  0  0
  -23.4189  -28.8182   23.3020 O   0  0  0  0  0  0
  -28.3365  -26.5619   20.1063 O   0  0  0  0  0  0
  -26.5619  -34.8920   22.4694 O   0  0  0  0  0  0
  -23.5347  -32.1428   23.7444 O   0  0  0  0  0  0
  -29.0110  -18.5111   22.1062 C   0  0  0  0  0  0
  -28.4718  -19.8453   22.1506 C   0  0  0  0  0  0
  -29.4748  -18.1412   20.8668 C   0  0  0  0  0  0
  -28.4827  -20.5198   20.9465 C   0  0  0  0  0  0
  -27.8640  -24.1750   20.9624 C   0  0  0  0  0  0
  -28.5585  -23.0024   20.7974 C   0  0  0  0  0  0
  -26.5630  -21.6909   20.3147 C   0  0  0  0  0  0
  -30.2599  -16.9595   20.3652 C   0  0  0  0  0  0
  -26.3613  -24.0702   21.1294 C   0  0  0  0  0  0
  -25.8075  -23.0152   20.1679 C   0  0  0  0  0  0
  -30.0802  -22.9695   20.6987 C   0  0  0  0  0  0
  -28.4554  -25.5989   21.1920 C   0  0  0  0  0  0
  -27.8824  -21.7312   20.6634 N   0  0  0  0  0  0
  -29.9600  -15.6894   20.7731 N   0  0  0  0  0  0
  -25.9358  -20.6462   20.1007 O   0  0  0  0  0  0
  -31.1540  -17.2103   19.5479 O   0  0  0  0  0  0
  -29.2316  -19.4782   19.7370 S   0  0  0  0  0  0
  -31.4585  -12.3967   19.1820 H   0  0  0  0  0  0
  -30.2877  -11.3441   19.9156 H   0  0  0  0  0  0
  -29.7543  -11.7397   17.4844 H   0  0  0  0  0  0
  -29.6657  -13.4602   17.7660 H   0  0  0  0  0  0
  -27.8338  -11.2992   18.8578 H   0  0  0  0  0  0
  -27.3753  -12.5992   17.7934 H   0  0  0  0  0  0
  -27.6696  -14.2560   19.5299 H   0  0  0  0  0  0
  -28.6713  -12.0791   21.4260 H   0  0  0  0  0  0
  -28.4470  -13.7572   21.8344 H   0  0  0  0  0  0
  -25.2748   -9.5698   22.4771 H   0  0  0  0  0  0
  -23.9997   -7.4647   22.7481 H   0  0  0  0  0  0
  -21.0843   -8.8772   19.8942 H   0  0  0  0  0  0
  -22.3692  -10.9680   19.6166 H   0  0  0  0  0  0
  -21.2021   -7.6152   23.9713 H   0  0  0  0  0  0
  -21.1476   -6.0525   25.9073 H   0  0  0  0  0  0
  -22.0598   -2.7608   23.2845 H   0  0  0  0  0  0
  -22.4095  -11.9864   22.4744 H   0  0  0  0  0  0
  -21.1097  -13.1259   22.2638 H   0  0  0  0  0  0
  -24.6636  -15.8486   20.5188 H   0  0  0  0  0  0
  -26.2757  -15.6238   20.0653 H   0  0  0  0  0  0
  -26.7125  -32.5527   23.1151 H   0  0  0  0  0  0
  -25.0054  -33.9773   25.0468 H   0  0  0  0  0  0
  -22.7016  -31.3047   21.4072 H   0  0  0  0  0  0
  -23.3780  -35.9603   23.3250 H   0  0  0  0  0  0
  -24.3590  -36.8964   22.2054 H   0  0  0  0  0  0
  -23.7210  -37.6469   23.6687 H   0  0  0  0  0  0
  -26.0647  -31.5767   20.6048 H   0  0  0  0  0  0
  -26.8273  -30.8668   22.0002 H   0  0  0  0  0  0
  -28.0992  -29.0289   21.2243 H   0  0  0  0  0  0
  -26.0792  -26.0009   18.9254 H   0  0  0  0  0  0
  -23.9968  -27.3316   18.9656 H   0  0  0  0  0  0
  -23.7331  -30.6005   19.4038 H   0  0  0  0  0  0
  -22.7495  -29.2429   19.8648 H   0  0  0  0  0  0
  -25.1278  -36.1965   25.0822 H   0  0  0  0  0  0
  -20.9948  -28.3256   24.1428 H   0  0  0  0  0  0
  -20.5668  -26.2287   23.3598 H   0  0  0  0  0  0
  -21.6633  -26.7453   22.1202 H   0  0  0  0  0  0
  -19.6902  -25.6296   21.1245 H   0  0  0  0  0  0
  -19.6694  -27.3200   20.6744 H   0  0  0  0  0  0
  -17.4189  -26.6679   21.4022 H   0  0  0  0  0  0
  -18.0308  -26.0071   22.9017 H   0  0  0  0  0  0
  -19.7926  -30.7258   24.2293 H   0  0  0  0  0  0
  -17.5011  -31.6270   24.5169 H   0  0  0  0  0  0
  -15.5347  -30.2995   23.7659 H   0  0  0  0  0  0
  -15.8655  -28.0842   22.7062 H   0  0  0  0  0  0
  -24.5945  -30.7001   25.7825 H   0  0  0  0  0  0
  -24.8847  -32.2854   26.4873 H   0  0  0  0  0  0
  -25.8066  -30.8951   27.0271 H   0  0  0  0  0  0
  -26.2843  -29.6804   24.1180 H   0  0  0  0  0  0
  -27.4060  -29.7289   25.4593 H   0  0  0  0  0  0
  -27.8687  -30.4356   23.9286 H   0  0  0  0  0  0
  -27.2733  -33.3671   26.2001 H   0  0  0  0  0  0
  -28.3888  -32.6784   25.0308 H   0  0  0  0  0  0
  -28.0686  -31.8470   26.5440 H   0  0  0  0  0  0
  -28.2560  -38.0133   24.7608 H   0  0  0  0  0  0
  -28.1156  -36.2666   24.6151 H   0  0  0  0  0  0
  -27.2319  -37.1262   25.8853 H   0  0  0  0  0  0
  -20.9340  -29.8779   21.6932 H   0  0  0  0  0  0
  -26.0185  -38.2861   24.1484 H   0  0  0  0  0  0
  -29.0693  -17.8935   22.9911 H   0  0  0  0  0  0
  -28.0617  -20.2540   23.0638 H   0  0  0  0  0  0
  -25.8520  -25.0169   20.9977 H   0  0  0  0  0  0
  -26.1605  -23.7822   22.1622 H   0  0  0  0  0  0
  -24.7423  -22.8624   20.3438 H   0  0  0  0  0  0
  -25.9127  -23.3610   19.1394 H   0  0  0  0  0  0
  -30.4217  -23.7371   20.0034 H   0  0  0  0  0  0
  -30.4789  -22.0245   20.3330 H   0  0  0  0  0  0
  -30.5307  -23.1702   21.6714 H   0  0  0  0  0  0
  -29.5188  -25.5111   21.4140 H   0  0  0  0  0  0
  -28.0111  -26.0109   22.0997 H   0  0  0  0  0  0
  -29.0861  -15.5689   21.2563 H   0  0  0  0  0  0
  1 25  1  0  0  0
  1 30  2  0  0  0
  1 84  1  0  0  0
  2  3  1  0  0  0
  2 25  1  0  0  0
  2 88  1  0  0  0
  2 89  1  0  0  0
  3  4  1  0  0  0
  3 90  1  0  0  0
  3 91  1  0  0  0
  4  5  1  0  0  0
  4 92  1  0  0  0
  4 93  1  0  0  0
  5  6  1  0  0  0
  5 26  1  0  0  0
  5 94  1  0  0  0
  6 25  1  0  0  0
  6 95  1  0  0  0
  6 96  1  0  0  0
  7  8  2  0  0  0
  7 26  1  0  0  0
  7 29  1  0  0  0
  8  9  1  0  0  0
  8 22  1  0  0  0
  9 10  1  0  0  0
  9 27  2  0  0  0
 10 11  2  0  0  0
 10 15  1  0  0  0
 11 12  1  0  0  0
 11 97  1  0  0  0
 12 13  2  0  0  0
 12 98  1  0  0  0
 13 14  1  0  0  0
 13 31  1  0  0  0
 14 15  2  0  0  0
 14 99  1  0  0  0
 15100  1  0  0  0
 16 17  2  0  0  0
 16 21  1  0  0  0
 16 31  1  0  0  0
 17 18  1  0  0  0
 17101  1  0  0  0
 18 19  2  0  0  0
 18102  1  0  0  0
 19 20  1  0  0  0
 19 24  1  0  0  0
 20 21  2  0  0  0
 20103  1  0  0  0
 21 23  1  0  0  0
 22 28  1  0  0  0
 22 32  2  0  0  0
 26 27  1  0  0  0
 28104  1  0  0  0
 28105  1  0  0  0
 29106  1  0  0  0
 29107  1  0  0  0
 33 34  1  0  0  0
 33 66  1  0  0  0
 33 70  2  0  0  0
 34 36  1  0  0  0
 34 59  1  0  0  0
 34108  1  0  0  0
 35 44  2  0  0  0
 35 45  1  0  0  0
 35 68  1  0  0  0
 36 56  1  0  0  0
 36109  1  0  0  0
 37 39  1  0  0  0
 37 47  1  0  0  0
 37 66  1  0  0  0
 37110  1  0  0  0
 38 43  2  0  0  0
 38 46  1  0  0  0
 38 47  1  0  0  0
 39 64  1  0  0  0
 39 67  2  0  0  0
 40 52  1  0  0  0
 40 53  2  0  0  0
 40 58  1  0  0  0
 41111  1  0  0  0
 41112  1  0  0  0
 41113  1  0  0  0
 41 48  1  0  0  0
 42 43  1  0  0  0
 42 66  1  0  0  0
 42114  1  0  0  0
 42115  1  0  0  0
 43 44  1  0  0  0
 44116  1  0  0  0
 45 46  2  0  0  0
 45117  1  0  0  0
 46118  1  0  0  0
 47119  1  0  0  0
 47120  1  0  0  0
 48 56  1  0  0  0
 48 65  1  0  0  0
 48121  1  0  0  0
 49 50  1  0  0  0
 49 53  1  0  0  0
 49 64  1  0  0  0
 49122  1  0  0  0
 50 51  1  0  0  0
 50123  1  0  0  0
 50124  1  0  0  0
 51 52  1  0  0  0
 51125  1  0  0  0
 51126  1  0  0  0
 52127  1  0  0  0
 52128  1  0  0  0
 53 54  1  0  0  0
 54 55  2  0  0  0
 54129  1  0  0  0
 55 57  1  0  0  0
 55130  1  0  0  0
 56 69  2  0  0  0
 57 58  2  0  0  0
 57131  1  0  0  0
 58132  1  0  0  0
 59 60  1  0  0  0
 59 61  1  0  0  0
 59 62  1  0  0  0
 60133  1  0  0  0
 60134  1  0  0  0
 60135  1  0  0  0
 61136  1  0  0  0
 61137  1  0  0  0
 61138  1  0  0  0
 62139  1  0  0  0
 62140  1  0  0  0
 62141  1  0  0  0
 63 65  1  0  0  0
 63142  1  0  0  0
 63143  1  0  0  0
 63144  1  0  0  0
 64145  1  0  0  0
 65146  1  0  0  0
 68 82  1  0  0  0
 71 72  1  0  0  0
 71 73  2  0  0  0
 71147  1  0  0  0
 72 74  2  0  0  0
 72148  1  0  0  0
 73 78  1  0  0  0
 73 87  1  0  0  0
 74 83  1  0  0  0
 74 87  1  0  0  0
 75 76  2  0  0  0
 75 79  1  0  0  0
 75 82  1  0  0  0
 76 81  1  0  0  0
 76 83  1  0  0  0
 77 80  1  0  0  0
 77 83  1  0  0  0
 77 85  2  0  0  0
 78 84  1  0  0  0
 78 86  2  0  0  0
 79 80  1  0  0  0
 79149  1  0  0  0
 79150  1  0  0  0
 80151  1  0  0  0
 80152  1  0  0  0
 81153  1  0  0  0
 81154  1  0  0  0
 81155  1  0  0  0
 82156  1  0  0  0
 82157  1  0  0  0
 84158  1  0  0  0
M  ISO  4   1 100  68 101  82 101  84 100
M  END
> <chiral flag>
0

> <version>
0

> <s_m_source_file>
/data/baiqing/PycharmProjects/Reinvent-master-3.2/result/LINK_invent/BTK/process_docking_weight1_custom_product_contain_oxygen_bond_distance_aromatic_linkinvent_7_9_3/rearranged_h_0092.sdf

> <i_m_source_file_index>
62

> <r_mmod_Potential_Energy-OPLS-2005>
64.3710556030273

> <r_mmod_Stretch_Energy-OPLS-2005>
59.8352470397949

> <r_mmod_Bend_Energy-OPLS-2005>
120.973365783691

> <r_mmod_Torsional_Energy-OPLS-2005>
320.709442138672

> <r_mmod_Improper_Torsional_Energy-OPLS-2005>
5.65735483169556

> <r_mmod_Van_der_Waal_Energy-OPLS-2005>
152.837753295898

> <r_mmod_Electrostatic_Energy-OPLS-2005>
-395.100189208984

> <r_mmod_Solvation_Energy-OPLS-2005>
-231.042953491211

> <b_mmod_Minimization_Converged-OPLS-2005>
0

> <r_mmod_RMS_Derivative-OPLS-2005>
1.86138725280762

$$$$
62
                    3D
 Structure written by MMmdl.
161170  0  0  1  0            999 V2000
  -30.6455  -14.7319   20.3557 C   0  0  0  0  0  0
  -30.4452  -12.4134   19.4469 C   0  0  0  0  0  0
  -29.4916  -12.3384   18.2318 C   0  0  0  0  0  0
  -28.0147  -12.2602   18.6636 C   0  0  0  0  0  0
  -27.6359  -13.2071   19.8347 C   0  0  2  0  0  0
  -28.7064  -13.2018   20.9459 C   0  0  0  0  0  0
  -25.2552  -13.8153   20.5780 C   0  0  0  0  0  0
  -24.1793  -13.0428   20.9204 C   0  0  0  0  0  0
  -24.6354  -11.6899   20.8788 C   0  0  0  0  0  0
  -23.9032  -10.4286   21.0429 C   0  0  0  0  0  0
  -24.3594   -9.4200   21.9196 C   0  0  0  0  0  0
  -23.6280   -8.2231   22.0756 C   0  0  0  0  0  0
  -22.4264   -8.0270   21.3543 C   0  0  0  0  0  0
  -21.9895   -9.0244   20.4648 C   0  0  0  0  0  0
  -22.7214  -10.2129   20.3067 C   0  0  0  0  0  0
  -21.6849   -6.0726   22.5276 C   0  0  0  0  0  0
  -21.4012   -6.5633   23.8209 C   0  0  0  0  0  0
  -21.3659   -5.6789   24.9172 C   0  0  0  0  0  0
  -21.6044   -4.3051   24.7226 C   0  0  0  0  0  0
  -21.8820   -3.8142   23.4348 C   0  0  0  0  0  0
  -21.9193   -4.6955   22.3402 C   0  0  0  0  0  0
  -22.7822  -13.5236   21.1849 C   0  0  0  0  0  0
  -22.1663   -4.2140   21.0980 F   0  0  0  0  0  0
  -21.5629   -3.4537   25.7740 F   0  0  0  0  0  0
  -29.9936  -13.5181   20.3115 N   0  0  0  0  0  0
  -26.2954  -12.9309   20.3394 N   0  0  0  0  0  0
  -25.9290  -11.6484   20.5888 N   0  0  0  0  0  0
  -22.0456  -12.8236   22.0404 N   0  0  0  0  0  0
  -25.4301  -15.1879   20.4314 N   0  0  0  0  0  0
  -31.8770  -14.7661   20.3306 O   0  0  0  0  0  0
  -21.6633   -6.8866   21.4237 O   0  0  0  0  0  0
  -22.3519  -14.5546   20.6697 O   0  0  0  0  0  0
  -24.6274  -31.8605   23.2050 C   0  0  0  0  0  0
  -25.9120  -32.4783   23.8374 C   0  0  1  0  0  0
  -27.2172  -27.3060   20.1185 C   0  0  0  0  0  0
  -25.5935  -33.8585   24.2295 N   0  0  0  0  0  0
  -23.4215  -30.4873   21.5479 C   0  0  2  0  0  0
  -24.8680  -28.9511   20.1077 C   0  0  0  0  0  0
  -22.7486  -29.4627   22.4930 C   0  0  0  0  0  0
  -18.0290  -28.1383   22.8485 C   0  0  0  0  0  0
  -24.1491  -36.7293   23.2637 C   0  0  0  0  0  0
  -25.9662  -30.7867   21.3819 C   0  0  0  0  0  0
  -26.0387  -29.4157   20.7203 C   0  0  0  0  0  0
  -27.2152  -28.6042   20.7211 C   0  0  0  0  0  0
  -26.0251  -26.9177   19.4558 C   0  0  0  0  0  0
  -24.8645  -27.7077   19.4655 C   0  0  0  0  0  0
  -23.6368  -29.8308   20.1605 C   0  0  0  0  0  0
  -25.4114  -36.3087   24.0331 C   0  0  1  0  0  0
  -20.5893  -28.3691   23.1274 C   0  0  2  0  0  0
  -20.6780  -26.9412   22.5405 C   0  0  0  0  0  0
  -19.5754  -26.6383   21.5209 C   0  0  0  0  0  0
  -18.1934  -26.7925   22.1623 C   0  0  0  0  0  0
  -19.1543  -28.8854   23.2875 C   0  0  0  0  0  0
  -18.9465  -30.1455   23.8892 C   0  0  0  0  0  0
  -17.6464  -30.6585   24.0561 C   0  0  0  0  0  0
  -25.9052  -34.9455   23.5110 C   0  0  0  0  0  0
  -16.5355  -29.9082   23.6330 C   0  0  0  0  0  0
  -16.7276  -28.6499   23.0351 C   0  0  0  0  0  0
  -26.4498  -31.6591   25.0744 C   0  0  0  0  0  0
  -25.3730  -31.3732   26.1469 C   0  0  0  0  0  0
  -27.0341  -30.3012   24.6208 C   0  0  0  0  0  0
  -27.6060  -32.4325   25.7511 C   0  0  0  0  0  0
  -27.5583  -37.1801   24.8463 C   0  0  0  0  0  0
  -21.4198  -29.3045   22.3670 N   0  0  0  0  0  0
  -26.4293  -37.3782   23.9410 N   0  0  0  0  0  0
  -24.6904  -31.0611   22.1012 N   0  0  0  0  0  0
  -23.4206  -28.8153   23.3001 O   0  0  0  0  0  0
  -28.3043  -26.4097   20.2108 O   0  0  0  0  0  0
  -26.5615  -34.8919   22.4674 O   0  0  0  0  0  0
  -23.5433  -32.1410   23.7368 O   0  0  0  0  0  0
  -30.0514  -23.8063   21.2624 C   0  0  0  0  0  0
  -28.8095  -19.2625   21.1512 C   0  0  0  0  0  0
  -31.0899  -18.0899   20.0432 C   0  0  0  0  0  0
  -28.8976  -23.7871   20.4216 C   0  0  0  0  0  0
  -29.8338  -20.1425   20.7052 C   0  0  0  0  0  0
  -31.0013  -19.5093   20.1785 C   0  0  0  0  0  0
  -30.0269  -17.2176   20.4128 C   0  0  0  0  0  0
  -28.9010  -17.8436   21.0133 C   0  0  0  0  0  0
  -30.4868  -22.5144   21.4522 C   0  0  0  0  0  0
  -28.7162  -22.4283   20.1557 C   0  0  0  0  0  0
  -29.5887  -15.8639   18.5732 C   0  0  0  0  0  0
  -28.3498  -16.6573   18.1476 C   0  0  0  0  0  0
  -27.9974  -24.9793   19.9421 C   0  0  0  0  0  0
  -29.6831  -21.6049   20.7682 N   0  0  0  0  0  0
  -32.0791  -20.2755   19.7328 N   0  0  0  0  0  0
  -29.9488  -15.8437   19.8872 N   0  0  0  0  0  0
  -30.2951  -15.4113   17.6672 O   0  0  0  0  0  0
  -31.5438  -22.0839   22.1950 O   0  0  0  0  0  0
  -27.7445  -21.8408   19.4006 O   0  0  0  0  0  0
  -27.8434  -17.0749   21.3682 F   0  0  0  0  0  0
  -31.4724  -12.5555   19.1054 H   0  0  0  0  0  0
  -30.4357  -11.4749   20.0035 H   0  0  0  0  0  0
  -29.7359  -11.4542   17.6415 H   0  0  0  0  0  0
  -29.6327  -13.1629   17.5448 H   0  0  0  0  0  0
  -27.8412  -11.2271   18.9662 H   0  0  0  0  0  0
  -27.3594  -12.4323   17.8088 H   0  0  0  0  0  0
  -27.5964  -14.2058   19.4121 H   0  0  0  0  0  0
  -28.7496  -12.2331   21.4458 H   0  0  0  0  0  0
  -28.4655  -13.9423   21.7109 H   0  0  0  0  0  0
  -25.2737   -9.5680   22.4773 H   0  0  0  0  0  0
  -23.9991   -7.4621   22.7472 H   0  0  0  0  0  0
  -21.0827   -8.8761   19.8954 H   0  0  0  0  0  0
  -22.3670  -10.9671   19.6181 H   0  0  0  0  0  0
  -21.2002   -7.6141   23.9708 H   0  0  0  0  0  0
  -21.1481   -6.0520   25.9075 H   0  0  0  0  0  0
  -22.0600   -2.7604   23.2851 H   0  0  0  0  0  0
  -22.4062  -11.9896   22.4795 H   0  0  0  0  0  0
  -21.1077  -13.1274   22.2603 H   0  0  0  0  0  0
  -24.6762  -15.8409   20.6123 H   0  0  0  0  0  0
  -26.3295  -15.6431   20.3452 H   0  0  0  0  0  0
  -26.7186  -32.5449   23.1119 H   0  0  0  0  0  0
  -25.0091  -33.9735   25.0445 H   0  0  0  0  0  0
  -22.7156  -31.3087   21.4084 H   0  0  0  0  0  0
  -23.3756  -35.9622   23.3299 H   0  0  0  0  0  0
  -24.3585  -36.8912   22.2052 H   0  0  0  0  0  0
  -23.7239  -37.6494   23.6655 H   0  0  0  0  0  0
  -26.1037  -31.5518   20.6167 H   0  0  0  0  0  0
  -26.8444  -30.8307   22.0142 H   0  0  0  0  0  0
  -28.1061  -28.9504   21.2263 H   0  0  0  0  0  0
  -25.9410  -25.9785   18.9310 H   0  0  0  0  0  0
  -23.9713  -27.3499   18.9718 H   0  0  0  0  0  0
  -23.7569  -30.6115   19.4084 H   0  0  0  0  0  0
  -22.7563  -29.2625   19.8551 H   0  0  0  0  0  0
  -25.1291  -36.1944   25.0823 H   0  0  0  0  0  0
  -20.9984  -28.3264   24.1394 H   0  0  0  0  0  0
  -20.5681  -26.2298   23.3605 H   0  0  0  0  0  0
  -21.6649  -26.7442   22.1197 H   0  0  0  0  0  0
  -19.6916  -25.6293   21.1240 H   0  0  0  0  0  0
  -19.6688  -27.3192   20.6736 H   0  0  0  0  0  0
  -17.4202  -26.6669   21.4028 H   0  0  0  0  0  0
  -18.0339  -26.0069   22.9022 H   0  0  0  0  0  0
  -19.7942  -30.7275   24.2257 H   0  0  0  0  0  0
  -17.5019  -31.6265   24.5161 H   0  0  0  0  0  0
  -15.5355  -30.2981   23.7658 H   0  0  0  0  0  0
  -15.8677  -28.0817   22.7068 H   0  0  0  0  0  0
  -24.5900  -30.7087   25.7797 H   0  0  0  0  0  0
  -24.8928  -32.2901   26.4899 H   0  0  0  0  0  0
  -25.8054  -30.8905   27.0242 H   0  0  0  0  0  0
  -26.2920  -29.6767   24.1219 H   0  0  0  0  0  0
  -27.4017  -29.7264   25.4719 H   0  0  0  0  0  0
  -27.8802  -30.4292   23.9453 H   0  0  0  0  0  0
  -27.2672  -33.3625   26.2087 H   0  0  0  0  0  0
  -28.3869  -32.6883   25.0338 H   0  0  0  0  0  0
  -28.0726  -31.8451   26.5429 H   0  0  0  0  0  0
  -28.2593  -38.0106   24.7524 H   0  0  0  0  0  0
  -28.1087  -36.2639   24.6270 H   0  0  0  0  0  0
  -27.2304  -37.1431   25.8866 H   0  0  0  0  0  0
  -20.9372  -29.8780   21.6894 H   0  0  0  0  0  0
  -26.0176  -38.2856   24.1414 H   0  0  0  0  0  0
  -30.5051  -24.6883   21.6930 H   0  0  0  0  0  0
  -27.9067  -19.6848   21.5651 H   0  0  0  0  0  0
  -31.9569  -17.6630   19.5586 H   0  0  0  0  0  0
  -27.5423  -16.5574   18.8703 H   0  0  0  0  0  0
  -27.9791  -16.2896   17.1909 H   0  0  0  0  0  0
  -28.5892  -17.7140   18.0294 H   0  0  0  0  0  0
  -27.0324  -24.7404   20.3915 H   0  0  0  0  0  0
  -27.8862  -24.8620   18.8633 H   0  0  0  0  0  0
  -32.9804  -19.8129   19.6847 H   0  0  0  0  0  0
  -32.1538  -21.1768   20.2005 H   0  0  0  0  0  0
  -31.9169  -22.8401   22.6382 H   0  0  0  0  0  0
  -27.1812  -22.5218   19.0502 H   0  0  0  0  0  0
  1 25  1  0  0  0
  1 30  2  0  0  0
  1 86  1  0  0  0
  2  3  1  0  0  0
  2 25  1  0  0  0
  2 91  1  0  0  0
  2 92  1  0  0  0
  3  4  1  0  0  0
  3 93  1  0  0  0
  3 94  1  0  0  0
  4  5  1  0  0  0
  4 95  1  0  0  0
  4 96  1  0  0  0
  5  6  1  0  0  0
  5 26  1  0  0  0
  5 97  1  0  0  0
  6 25  1  0  0  0
  6 98  1  0  0  0
  6 99  1  0  0  0
  7  8  2  0  0  0
  7 26  1  0  0  0
  7 29  1  0  0  0
  8  9  1  0  0  0
  8 22  1  0  0  0
  9 10  1  0  0  0
  9 27  2  0  0  0
 10 11  2  0  0  0
 10 15  1  0  0  0
 11 12  1  0  0  0
 11100  1  0  0  0
 12 13  2  0  0  0
 12101  1  0  0  0
 13 14  1  0  0  0
 13 31  1  0  0  0
 14 15  2  0  0  0
 14102  1  0  0  0
 15103  1  0  0  0
 16 17  2  0  0  0
 16 21  1  0  0  0
 16 31  1  0  0  0
 17 18  1  0  0  0
 17104  1  0  0  0
 18 19  2  0  0  0
 18105  1  0  0  0
 19 20  1  0  0  0
 19 24  1  0  0  0
 20 21  2  0  0  0
 20106  1  0  0  0
 21 23  1  0  0  0
 22 28  1  0  0  0
 22 32  2  0  0  0
 26 27  1  0  0  0
 28107  1  0  0  0
 28108  1  0  0  0
 29109  1  0  0  0
 29110  1  0  0  0
 33 34  1  0  0  0
 33 66  1  0  0  0
 33 70  2  0  0  0
 34 36  1  0  0  0
 34 59  1  0  0  0
 34111  1  0  0  0
 35 44  2  0  0  0
 35 45  1  0  0  0
 35 68  1  0  0  0
 36 56  1  0  0  0
 36112  1  0  0  0
 37 39  1  0  0  0
 37 47  1  0  0  0
 37 66  1  0  0  0
 37113  1  0  0  0
 38 43  2  0  0  0
 38 46  1  0  0  0
 38 47  1  0  0  0
 39 64  1  0  0  0
 39 67  2  0  0  0
 40 52  1  0  0  0
 40 53  2  0  0  0
 40 58  1  0  0  0
 41114  1  0  0  0
 41115  1  0  0  0
 41116  1  0  0  0
 41 48  1  0  0  0
 42 43  1  0  0  0
 42 66  1  0  0  0
 42117  1  0  0  0
 42118  1  0  0  0
 43 44  1  0  0  0
 44119  1  0  0  0
 45 46  2  0  0  0
 45120  1  0  0  0
 46121  1  0  0  0
 47122  1  0  0  0
 47123  1  0  0  0
 48 56  1  0  0  0
 48 65  1  0  0  0
 48124  1  0  0  0
 49 50  1  0  0  0
 49 53  1  0  0  0
 49 64  1  0  0  0
 49125  1  0  0  0
 50 51  1  0  0  0
 50126  1  0  0  0
 50127  1  0  0  0
 51 52  1  0  0  0
 51128  1  0  0  0
 51129  1  0  0  0
 52130  1  0  0  0
 52131  1  0  0  0
 53 54  1  0  0  0
 54 55  2  0  0  0
 54132  1  0  0  0
 55 57  1  0  0  0
 55133  1  0  0  0
 56 69  2  0  0  0
 57 58  2  0  0  0
 57134  1  0  0  0
 58135  1  0  0  0
 59 60  1  0  0  0
 59 61  1  0  0  0
 59 62  1  0  0  0
 60136  1  0  0  0
 60137  1  0  0  0
 60138  1  0  0  0
 61139  1  0  0  0
 61140  1  0  0  0
 61141  1  0  0  0
 62142  1  0  0  0
 62143  1  0  0  0
 62144  1  0  0  0
 63 65  1  0  0  0
 63145  1  0  0  0
 63146  1  0  0  0
 63147  1  0  0  0
 64148  1  0  0  0
 65149  1  0  0  0
 68 83  1  0  0  0
 71 74  1  0  0  0
 71 79  2  0  0  0
 71150  1  0  0  0
 72 75  2  0  0  0
 72 78  1  0  0  0
 72151  1  0  0  0
 73 76  2  0  0  0
 73 77  1  0  0  0
 73152  1  0  0  0
 74 80  2  0  0  0
 74 83  1  0  0  0
 75 76  1  0  0  0
 75 84  1  0  0  0
 76 85  1  0  0  0
 77 78  2  0  0  0
 77 86  1  0  0  0
 78 90  1  0  0  0
 79 84  1  0  0  0
 79 88  1  0  0  0
 80 84  1  0  0  0
 80 89  1  0  0  0
 81 82  1  0  0  0
 81 86  1  0  0  0
 81 87  2  0  0  0
 82153  1  0  0  0
 82154  1  0  0  0
 82155  1  0  0  0
 83156  1  0  0  0
 83157  1  0  0  0
 85158  1  0  0  0
 85159  1  0  0  0
 88160  1  0  0  0
 89161  1  0  0  0
M  ISO  4   1 100  68 101  83 101  86 100
M  END
> <chiral flag>
0

> <version>
0

> <s_m_source_file>
/data/baiqing/PycharmProjects/Reinvent-master-3.2/result/LINK_invent/BTK/process_docking_weight1_custom_product_contain_oxygen_bond_distance_aromatic_linkinvent_7_9_3/rearranged_h_0092.sdf

> <i_m_source_file_index>
63

> <r_mmod_Potential_Energy-OPLS-2005>
259.548278808594

> <r_mmod_Stretch_Energy-OPLS-2005>
89.1248779296875

> <r_mmod_Bend_Energy-OPLS-2005>
145.159133911133

> <r_mmod_Torsional_Energy-OPLS-2005>
380.377990722656

> <r_mmod_Improper_Torsional_Energy-OPLS-2005>
29.8307456970215

> <r_mmod_Van_der_Waal_Energy-OPLS-2005>
152.577346801758

> <r_mmod_Electrostatic_Energy-OPLS-2005>
-403.797088623047

> <r_mmod_Solvation_Energy-OPLS-2005>
-228.456527709961

> <b_mmod_Minimization_Converged-OPLS-2005>
0

> <r_mmod_RMS_Derivative-OPLS-2005>
0.342219144105911

$$$$
63
                    3D
 Structure written by MMmdl.
162171  0  0  1  0            999 V2000
  -30.6718  -14.6506   20.6279 C   0  0  0  0  0  0
  -30.4294  -12.4366   19.4596 C   0  0  0  0  0  0
  -29.5055  -12.5461   18.2263 C   0  0  0  0  0  0
  -28.0309  -12.3565   18.6260 C   0  0  0  0  0  0
  -27.6473  -13.2212   19.8510 C   0  0  2  0  0  0
  -28.6764  -13.0682   20.9828 C   0  0  0  0  0  0
  -25.2536  -13.8174   20.5648 C   0  0  0  0  0  0
  -24.1820  -13.0425   20.9178 C   0  0  0  0  0  0
  -24.6404  -11.6901   20.8707 C   0  0  0  0  0  0
  -23.9084  -10.4283   21.0389 C   0  0  0  0  0  0
  -24.3635   -9.4197   21.9168 C   0  0  0  0  0  0
  -23.6314   -8.2233   22.0738 C   0  0  0  0  0  0
  -22.4292   -8.0277   21.3538 C   0  0  0  0  0  0
  -21.9930   -9.0240   20.4628 C   0  0  0  0  0  0
  -22.7253  -10.2122   20.3041 C   0  0  0  0  0  0
  -21.6856   -6.0739   22.5277 C   0  0  0  0  0  0
  -21.4015   -6.5639   23.8212 C   0  0  0  0  0  0
  -21.3667   -5.6789   24.9172 C   0  0  0  0  0  0
  -21.6050   -4.3052   24.7226 C   0  0  0  0  0  0
  -21.8824   -3.8150   23.4342 C   0  0  0  0  0  0
  -21.9198   -4.6968   22.3398 C   0  0  0  0  0  0
  -22.7847  -13.5193   21.1887 C   0  0  0  0  0  0
  -22.1657   -4.2151   21.0978 F   0  0  0  0  0  0
  -21.5642   -3.4535   25.7741 F   0  0  0  0  0  0
  -30.0047  -13.4476   20.4608 N   0  0  0  0  0  0
  -26.2944  -12.9358   20.3202 N   0  0  0  0  0  0
  -25.9318  -11.6512   20.5670 N   0  0  0  0  0  0
  -22.0521  -12.8147   22.0444 N   0  0  0  0  0  0
  -25.4292  -15.1895   20.4107 N   0  0  0  0  0  0
  -31.7419  -14.8419   20.0391 O   0  0  0  0  0  0
  -21.6647   -6.8884   21.4242 O   0  0  0  0  0  0
  -22.3498  -14.5491   20.6756 O   0  0  0  0  0  0
  -24.6327  -31.8578   23.2010 C   0  0  0  0  0  0
  -25.9164  -32.4759   23.8340 C   0  0  1  0  0  0
  -27.2192  -27.2805   20.1050 C   0  0  0  0  0  0
  -25.5971  -33.8559   24.2266 N   0  0  0  0  0  0
  -23.4265  -30.4850   21.5464 C   0  0  2  0  0  0
  -24.8712  -28.9421   20.1086 C   0  0  0  0  0  0
  -22.7504  -29.4634   22.4932 C   0  0  0  0  0  0
  -18.0299  -28.1394   22.8484 C   0  0  0  0  0  0
  -24.1491  -36.7280   23.2636 C   0  0  0  0  0  0
  -25.9741  -30.7729   21.3826 C   0  0  0  0  0  0
  -26.0461  -29.4008   20.7178 C   0  0  0  0  0  0
  -27.2216  -28.5821   20.7103 C   0  0  0  0  0  0
  -26.0159  -26.8990   19.4582 C   0  0  0  0  0  0
  -24.8601  -27.6968   19.4709 C   0  0  0  0  0  0
  -23.6419  -29.8268   20.1609 C   0  0  0  0  0  0
  -25.4119  -36.3066   24.0323 C   0  0  1  0  0  0
  -20.5899  -28.3714   23.1266 C   0  0  2  0  0  0
  -20.6785  -26.9437   22.5407 C   0  0  0  0  0  0
  -19.5760  -26.6388   21.5215 C   0  0  0  0  0  0
  -18.1938  -26.7933   22.1626 C   0  0  0  0  0  0
  -19.1550  -28.8873   23.2861 C   0  0  0  0  0  0
  -18.9474  -30.1472   23.8880 C   0  0  0  0  0  0
  -17.6478  -30.6593   24.0571 C   0  0  0  0  0  0
  -25.9066  -34.9439   23.5090 C   0  0  0  0  0  0
  -16.5371  -29.9094   23.6342 C   0  0  0  0  0  0
  -16.7288  -28.6514   23.0357 C   0  0  0  0  0  0
  -26.4522  -31.6579   25.0731 C   0  0  0  0  0  0
  -25.3741  -31.3747   26.1448 C   0  0  0  0  0  0
  -27.0377  -30.2988   24.6239 C   0  0  0  0  0  0
  -27.6060  -32.4329   25.7523 C   0  0  0  0  0  0
  -27.5583  -37.1792   24.8468 C   0  0  0  0  0  0
  -21.4214  -29.3058   22.3660 N   0  0  0  0  0  0
  -26.4289  -37.3773   23.9417 N   0  0  0  0  0  0
  -24.6963  -31.0559   22.0991 N   0  0  0  0  0  0
  -23.4212  -28.8173   23.3021 O   0  0  0  0  0  0
  -28.3044  -26.3698   20.1710 O   0  0  0  0  0  0
  -26.5638  -34.8919   22.4656 O   0  0  0  0  0  0
  -23.5488  -32.1421   23.7303 O   0  0  0  0  0  0
  -29.7330  -19.0966   19.6613 C   0  0  0  0  0  0
  -29.8665  -17.6778   19.8718 C   0  0  0  0  0  0
  -30.3422  -23.7058   20.4419 C   0  0  0  0  0  0
  -30.0973  -18.0808   22.2143 C   0  0  0  0  0  0
  -28.9343  -23.7112   20.2085 C   0  0  0  0  0  0
  -29.7681  -20.0515   20.7238 C   0  0  0  0  0  0
  -30.0490  -17.1035   21.1661 C   0  0  0  0  0  0
  -29.9492  -19.4874   22.0182 C   0  0  0  0  0  0
  -28.5783  -22.3526   20.2575 C   0  0  0  0  0  0
  -30.7563  -22.4078   20.6199 C   0  0  0  0  0  0
  -30.4297  -14.2910   23.5353 C   0  0  0  0  0  0
  -29.8991  -15.3032   22.8192 C   0  0  0  0  0  0
  -27.2281  -21.7287   20.0815 C   0  0  0  0  0  0
  -27.9837  -24.9352   19.8901 C   0  0  0  0  0  0
  -29.6922  -21.5166   20.5252 N   0  0  0  0  0  0
  -29.9825  -20.3147   23.1455 N   0  0  0  0  0  0
  -30.1452  -15.6351   21.4612 N   0  0  0  0  0  0
  -32.0163  -21.9527   20.8610 O   0  0  0  0  0  0
  -31.4697  -12.5644   19.1571 H   0  0  0  0  0  0
  -30.3713  -11.4351   19.8900 H   0  0  0  0  0  0
  -29.7870  -11.8103   17.4715 H   0  0  0  0  0  0
  -29.6340  -13.5248   17.7622 H   0  0  0  0  0  0
  -27.8787  -11.2999   18.8548 H   0  0  0  0  0  0
  -27.3762  -12.5815   17.7838 H   0  0  0  0  0  0
  -27.6716  -14.2609   19.5235 H   0  0  0  0  0  0
  -28.6964  -12.0404   21.3501 H   0  0  0  0  0  0
  -28.3400  -13.6680   21.8217 H   0  0  0  0  0  0
  -25.2782   -9.5676   22.4731 H   0  0  0  0  0  0
  -24.0034   -7.4621   22.7447 H   0  0  0  0  0  0
  -21.0874   -8.8758   19.8914 H   0  0  0  0  0  0
  -22.3714  -10.9670   19.6150 H   0  0  0  0  0  0
  -21.1993   -7.6144   23.9720 H   0  0  0  0  0  0
  -21.1489   -6.0511   25.9077 H   0  0  0  0  0  0
  -22.0601   -2.7611   23.2842 H   0  0  0  0  0  0
  -22.4180  -11.9813   22.4801 H   0  0  0  0  0  0
  -21.1130  -13.1124   22.2673 H   0  0  0  0  0  0
  -24.6749  -15.8558   20.5349 H   0  0  0  0  0  0
  -26.2969  -15.6239   20.1205 H   0  0  0  0  0  0
  -26.7237  -32.5411   23.1084 H   0  0  0  0  0  0
  -25.0117  -33.9689   25.0413 H   0  0  0  0  0  0
  -22.7225  -31.3072   21.4037 H   0  0  0  0  0  0
  -23.3764  -35.9601   23.3284 H   0  0  0  0  0  0
  -24.3580  -36.8928   22.2056 H   0  0  0  0  0  0
  -23.7235  -37.6467   23.6681 H   0  0  0  0  0  0
  -26.1176  -31.5375   20.6188 H   0  0  0  0  0  0
  -26.8503  -30.8139   22.0181 H   0  0  0  0  0  0
  -28.1178  -28.9248   21.2084 H   0  0  0  0  0  0
  -25.9167  -25.9581   18.9391 H   0  0  0  0  0  0
  -23.9614  -27.3399   18.9854 H   0  0  0  0  0  0
  -23.7672  -30.6070   19.4095 H   0  0  0  0  0  0
  -22.7591  -29.2641   19.8525 H   0  0  0  0  0  0
  -25.1294  -36.1903   25.0814 H   0  0  0  0  0  0
  -20.9975  -28.3295   24.1396 H   0  0  0  0  0  0
  -20.5708  -26.2329   23.3614 H   0  0  0  0  0  0
  -21.6655  -26.7470   22.1196 H   0  0  0  0  0  0
  -19.6925  -25.6296   21.1255 H   0  0  0  0  0  0
  -19.6683  -27.3191   20.6741 H   0  0  0  0  0  0
  -17.4208  -26.6692   21.4027 H   0  0  0  0  0  0
  -18.0334  -26.0071   22.9019 H   0  0  0  0  0  0
  -19.7949  -30.7286   24.2241 H   0  0  0  0  0  0
  -17.5040  -31.6268   24.5181 H   0  0  0  0  0  0
  -15.5374  -30.3003   23.7664 H   0  0  0  0  0  0
  -15.8688  -28.0836   22.7080 H   0  0  0  0  0  0
  -24.5903  -30.7104   25.7785 H   0  0  0  0  0  0
  -24.8949  -32.2930   26.4853 H   0  0  0  0  0  0
  -25.8046  -30.8937   27.0237 H   0  0  0  0  0  0
  -26.2970  -29.6721   24.1253 H   0  0  0  0  0  0
  -27.4041  -29.7264   25.4771 H   0  0  0  0  0  0
  -27.8859  -30.4252   23.9504 H   0  0  0  0  0  0
  -27.2647  -33.3636   26.2071 H   0  0  0  0  0  0
  -28.3895  -32.6881   25.0374 H   0  0  0  0  0  0
  -28.0704  -31.8478   26.5472 H   0  0  0  0  0  0
  -28.2581  -38.0109   24.7546 H   0  0  0  0  0  0
  -28.1093  -36.2640   24.6248 H   0  0  0  0  0  0
  -27.2306  -37.1400   25.8871 H   0  0  0  0  0  0
  -20.9411  -29.8773   21.6848 H   0  0  0  0  0  0
  -26.0160  -38.2839   24.1434 H   0  0  0  0  0  0
  -29.6105  -19.4592   18.6510 H   0  0  0  0  0  0
  -29.8178  -17.0275   19.0093 H   0  0  0  0  0  0
  -30.9858  -24.5740   20.4664 H   0  0  0  0  0  0
  -30.2631  -17.7636   23.2321 H   0  0  0  0  0  0
  -30.1346  -14.1456   24.5649 H   0  0  0  0  0  0
  -31.1520  -13.5946   23.1348 H   0  0  0  0  0  0
  -29.1692  -15.9470   23.2900 H   0  0  0  0  0  0
  -26.4951  -22.4516   19.7253 H   0  0  0  0  0  0
  -26.8603  -21.3208   21.0238 H   0  0  0  0  0  0
  -27.2609  -20.9155   19.3558 H   0  0  0  0  0  0
  -27.0556  -24.6919   20.4079 H   0  0  0  0  0  0
  -27.7842  -24.8535   18.8210 H   0  0  0  0  0  0
  -30.4451  -19.9671   23.9783 H   0  0  0  0  0  0
  -30.1855  -21.2932   22.9662 H   0  0  0  0  0  0
  -32.5979  -22.7066   20.8832 H   0  0  0  0  0  0
  1 25  1  0  0  0
  1 30  2  0  0  0
  1 87  1  0  0  0
  2  3  1  0  0  0
  2 25  1  0  0  0
  2 89  1  0  0  0
  2 90  1  0  0  0
  3  4  1  0  0  0
  3 91  1  0  0  0
  3 92  1  0  0  0
  4  5  1  0  0  0
  4 93  1  0  0  0
  4 94  1  0  0  0
  5  6  1  0  0  0
  5 26  1  0  0  0
  5 95  1  0  0  0
  6 25  1  0  0  0
  6 96  1  0  0  0
  6 97  1  0  0  0
  7  8  2  0  0  0
  7 26  1  0  0  0
  7 29  1  0  0  0
  8  9  1  0  0  0
  8 22  1  0  0  0
  9 10  1  0  0  0
  9 27  2  0  0  0
 10 11  2  0  0  0
 10 15  1  0  0  0
 11 12  1  0  0  0
 11 98  1  0  0  0
 12 13  2  0  0  0
 12 99  1  0  0  0
 13 14  1  0  0  0
 13 31  1  0  0  0
 14 15  2  0  0  0
 14100  1  0  0  0
 15101  1  0  0  0
 16 17  2  0  0  0
 16 21  1  0  0  0
 16 31  1  0  0  0
 17 18  1  0  0  0
 17102  1  0  0  0
 18 19  2  0  0  0
 18103  1  0  0  0
 19 20  1  0  0  0
 19 24  1  0  0  0
 20 21  2  0  0  0
 20104  1  0  0  0
 21 23  1  0  0  0
 22 28  1  0  0  0
 22 32  2  0  0  0
 26 27  1  0  0  0
 28105  1  0  0  0
 28106  1  0  0  0
 29107  1  0  0  0
 29108  1  0  0  0
 33 34  1  0  0  0
 33 66  1  0  0  0
 33 70  2  0  0  0
 34 36  1  0  0  0
 34 59  1  0  0  0
 34109  1  0  0  0
 35 44  2  0  0  0
 35 45  1  0  0  0
 35 68  1  0  0  0
 36 56  1  0  0  0
 36110  1  0  0  0
 37 39  1  0  0  0
 37 47  1  0  0  0
 37 66  1  0  0  0
 37111  1  0  0  0
 38 43  2  0  0  0
 38 46  1  0  0  0
 38 47  1  0  0  0
 39 64  1  0  0  0
 39 67  2  0  0  0
 40 52  1  0  0  0
 40 53  2  0  0  0
 40 58  1  0  0  0
 41112  1  0  0  0
 41113  1  0  0  0
 41114  1  0  0  0
 41 48  1  0  0  0
 42 43  1  0  0  0
 42 66  1  0  0  0
 42115  1  0  0  0
 42116  1  0  0  0
 43 44  1  0  0  0
 44117  1  0  0  0
 45 46  2  0  0  0
 45118  1  0  0  0
 46119  1  0  0  0
 47120  1  0  0  0
 47121  1  0  0  0
 48 56  1  0  0  0
 48 65  1  0  0  0
 48122  1  0  0  0
 49 50  1  0  0  0
 49 53  1  0  0  0
 49 64  1  0  0  0
 49123  1  0  0  0
 50 51  1  0  0  0
 50124  1  0  0  0
 50125  1  0  0  0
 51 52  1  0  0  0
 51126  1  0  0  0
 51127  1  0  0  0
 52128  1  0  0  0
 52129  1  0  0  0
 53 54  1  0  0  0
 54 55  2  0  0  0
 54130  1  0  0  0
 55 57  1  0  0  0
 55131  1  0  0  0
 56 69  2  0  0  0
 57 58  2  0  0  0
 57132  1  0  0  0
 58133  1  0  0  0
 59 60  1  0  0  0
 59 61  1  0  0  0
 59 62  1  0  0  0
 60134  1  0  0  0
 60135  1  0  0  0
 60136  1  0  0  0
 61137  1  0  0  0
 61138  1  0  0  0
 61139  1  0  0  0
 62140  1  0  0  0
 62141  1  0  0  0
 62142  1  0  0  0
 63 65  1  0  0  0
 63143  1  0  0  0
 63144  1  0  0  0
 63145  1  0  0  0
 64146  1  0  0  0
 65147  1  0  0  0
 68 84  1  0  0  0
 71 72  2  0  0  0
 71 76  1  0  0  0
 71148  1  0  0  0
 72 77  1  0  0  0
 72149  1  0  0  0
 73 75  1  0  0  0
 73 80  2  0  0  0
 73150  1  0  0  0
 74 77  2  0  0  0
 74 78  1  0  0  0
 74151  1  0  0  0
 75 79  2  0  0  0
 75 84  1  0  0  0
 76 78  2  0  0  0
 76 85  1  0  0  0
 77 87  1  0  0  0
 78 86  1  0  0  0
 79 83  1  0  0  0
 79 85  1  0  0  0
 80 85  1  0  0  0
 80 88  1  0  0  0
 81 82  2  0  0  0
 81152  1  0  0  0
 81153  1  0  0  0
 82 87  1  0  0  0
 82154  1  0  0  0
 83155  1  0  0  0
 83156  1  0  0  0
 83157  1  0  0  0
 84158  1  0  0  0
 84159  1  0  0  0
 86160  1  0  0  0
 86161  1  0  0  0
 88162  1  0  0  0
M  ISO  4   1 100  68 101  84 101  87 100
M  END
> <chiral flag>
0

> <version>
0

> <s_m_source_file>
/data/baiqing/PycharmProjects/Reinvent-master-3.2/result/LINK_invent/BTK/process_docking_weight1_custom_product_contain_oxygen_bond_distance_aromatic_linkinvent_7_9_3/rearranged_h_0092.sdf

> <i_m_source_file_index>
64

> <r_mmod_Potential_Energy-OPLS-2005>
337.439178466797

> <r_mmod_Stretch_Energy-OPLS-2005>
113.539054870605

> <r_mmod_Bend_Energy-OPLS-2005>
162.326370239258

> <r_mmod_Torsional_Energy-OPLS-2005>
303.479217529297

> <r_mmod_Improper_Torsional_Energy-OPLS-2005>
6.31609392166138

> <r_mmod_Van_der_Waal_Energy-OPLS-2005>
163.739990234375

> <r_mmod_Electrostatic_Energy-OPLS-2005>
-259.094757080078

> <r_mmod_Solvation_Energy-OPLS-2005>
-214.561447143555

> <b_mmod_Minimization_Converged-OPLS-2005>
0

> <r_mmod_RMS_Derivative-OPLS-2005>
1.72690963745117

$$$$
64
                    3D
 Structure written by MMmdl.
159168  0  0  1  0            999 V2000
  -30.6388  -14.6880   20.5856 C   0  0  0  0  0  0
  -30.4311  -12.4481   19.4691 C   0  0  0  0  0  0
  -29.5084  -12.5328   18.2334 C   0  0  0  0  0  0
  -28.0351  -12.3454   18.6388 C   0  0  0  0  0  0
  -27.6451  -13.2238   19.8541 C   0  0  2  0  0  0
  -28.6758  -13.1045   20.9909 C   0  0  0  0  0  0
  -25.2526  -13.8180   20.5660 C   0  0  0  0  0  0
  -24.1805  -13.0439   20.9169 C   0  0  0  0  0  0
  -24.6388  -11.6917   20.8723 C   0  0  0  0  0  0
  -23.9063  -10.4300   21.0397 C   0  0  0  0  0  0
  -24.3623   -9.4218   21.9175 C   0  0  0  0  0  0
  -23.6306   -8.2249   22.0755 C   0  0  0  0  0  0
  -22.4286   -8.0283   21.3543 C   0  0  0  0  0  0
  -21.9915   -9.0255   20.4646 C   0  0  0  0  0  0
  -22.7238  -10.2137   20.3050 C   0  0  0  0  0  0
  -21.6855   -6.0738   22.5279 C   0  0  0  0  0  0
  -21.4013   -6.5639   23.8211 C   0  0  0  0  0  0
  -21.3658   -5.6793   24.9176 C   0  0  0  0  0  0
  -21.6049   -4.3057   24.7228 C   0  0  0  0  0  0
  -21.8818   -3.8152   23.4344 C   0  0  0  0  0  0
  -21.9196   -4.6967   22.3400 C   0  0  0  0  0  0
  -22.7833  -13.5225   21.1857 C   0  0  0  0  0  0
  -22.1660   -4.2151   21.0977 F   0  0  0  0  0  0
  -21.5637   -3.4544   25.7738 F   0  0  0  0  0  0
  -29.9943  -13.4736   20.4474 N   0  0  0  0  0  0
  -26.2934  -12.9370   20.3238 N   0  0  0  0  0  0
  -25.9304  -11.6517   20.5700 N   0  0  0  0  0  0
  -22.0485  -12.8203   22.0419 N   0  0  0  0  0  0
  -25.4267  -15.1906   20.4124 N   0  0  0  0  0  0
  -31.7348  -14.8662   20.0421 O   0  0  0  0  0  0
  -21.6645   -6.8884   21.4241 O   0  0  0  0  0  0
  -22.3509  -14.5544   20.6737 O   0  0  0  0  0  0
  -24.6298  -31.8559   23.1991 C   0  0  0  0  0  0
  -25.9132  -32.4749   23.8325 C   0  0  1  0  0  0
  -27.2156  -27.2770   20.1136 C   0  0  0  0  0  0
  -25.5943  -33.8561   24.2250 N   0  0  0  0  0  0
  -23.4233  -30.4793   21.5428 C   0  0  2  0  0  0
  -24.8664  -28.9269   20.1073 C   0  0  0  0  0  0
  -22.7471  -29.4612   22.4930 C   0  0  0  0  0  0
  -18.0269  -28.1382   22.8495 C   0  0  0  0  0  0
  -24.1482  -36.7273   23.2633 C   0  0  0  0  0  0
  -25.9672  -30.7727   21.3739 C   0  0  0  0  0  0
  -26.0359  -29.3966   20.7163 C   0  0  0  0  0  0
  -27.2098  -28.5812   20.7119 C   0  0  0  0  0  0
  -26.0161  -26.8622   19.4925 C   0  0  0  0  0  0
  -24.8610  -27.6676   19.4882 C   0  0  0  0  0  0
  -23.6366  -29.8121   20.1582 C   0  0  0  0  0  0
  -25.4103  -36.3063   24.0324 C   0  0  1  0  0  0
  -20.5873  -28.3698   23.1287 C   0  0  2  0  0  0
  -20.6766  -26.9412   22.5430 C   0  0  0  0  0  0
  -19.5745  -26.6385   21.5229 C   0  0  0  0  0  0
  -18.1918  -26.7932   22.1617 C   0  0  0  0  0  0
  -19.1520  -28.8858   23.2893 C   0  0  0  0  0  0
  -18.9448  -30.1456   23.8917 C   0  0  0  0  0  0
  -17.6451  -30.6595   24.0569 C   0  0  0  0  0  0
  -25.9062  -34.9437   23.5086 C   0  0  0  0  0  0
  -16.5343  -29.9088   23.6335 C   0  0  0  0  0  0
  -16.7263  -28.6496   23.0375 C   0  0  0  0  0  0
  -26.4492  -31.6579   25.0714 C   0  0  0  0  0  0
  -25.3712  -31.3741   26.1441 C   0  0  0  0  0  0
  -27.0319  -30.2980   24.6211 C   0  0  0  0  0  0
  -27.6071  -32.4301   25.7471 C   0  0  0  0  0  0
  -27.5592  -37.1748   24.8425 C   0  0  0  0  0  0
  -21.4182  -29.3048   22.3674 N   0  0  0  0  0  0
  -26.4257  -37.3793   23.9457 N   0  0  0  0  0  0
  -24.6926  -31.0538   22.0952 N   0  0  0  0  0  0
  -23.4179  -28.8158   23.3035 O   0  0  0  0  0  0
  -28.3357  -26.4242   20.1917 O   0  0  0  0  0  0
  -26.5641  -34.8917   22.4662 O   0  0  0  0  0  0
  -23.5454  -32.1378   23.7304 O   0  0  0  0  0  0
  -29.8056  -19.5166   21.8556 C   0  0  0  0  0  0
  -28.9007  -19.0317   19.6999 C   0  0  0  0  0  0
  -30.1361  -18.1391   22.0225 C   0  0  0  0  0  0
  -29.2415  -17.6369   19.8650 C   0  0  0  0  0  0
  -27.6164  -23.3439   21.2879 C   0  0  0  0  0  0
  -28.4133  -23.7158   20.1655 C   0  0  0  0  0  0
  -29.1505  -20.0186   20.7032 C   0  0  0  0  0  0
  -29.8510  -17.1266   21.0534 C   0  0  0  0  0  0
  -29.0601  -22.5171   19.8083 C   0  0  0  0  0  0
  -27.8021  -22.0087   21.5496 C   0  0  0  0  0  0
  -30.0228  -22.2765   18.6892 C   0  0  0  0  0  0
  -30.1519  -15.3688   22.8136 C   0  0  0  0  0  0
  -28.4572  -25.1357   19.4475 C   0  0  0  0  0  0
  -28.7034  -21.4326   20.6598 N   0  0  0  0  0  0
  -30.0682  -15.6802   21.3740 N   0  0  0  0  0  0
  -27.2154  -21.2583   22.5202 O   0  0  0  0  0  0
  -31.4720  -12.5799   19.1704 H   0  0  0  0  0  0
  -30.3782  -11.4558   19.9192 H   0  0  0  0  0  0
  -29.7930  -11.7817   17.4967 H   0  0  0  0  0  0
  -29.6340  -13.5009   17.7481 H   0  0  0  0  0  0
  -27.8896  -11.2920   18.8825 H   0  0  0  0  0  0
  -27.3775  -12.5549   17.7942 H   0  0  0  0  0  0
  -27.6595  -14.2567   19.5052 H   0  0  0  0  0  0
  -28.7002  -12.0896   21.3894 H   0  0  0  0  0  0
  -28.3598  -13.7406   21.8157 H   0  0  0  0  0  0
  -25.2770   -9.5695   22.4742 H   0  0  0  0  0  0
  -24.0021   -7.4639   22.7473 H   0  0  0  0  0  0
  -21.0848   -8.8771   19.8945 H   0  0  0  0  0  0
  -22.3698  -10.9677   19.6161 H   0  0  0  0  0  0
  -21.1996   -7.6142   23.9717 H   0  0  0  0  0  0
  -21.1479   -6.0522   25.9081 H   0  0  0  0  0  0
  -22.0598   -2.7612   23.2850 H   0  0  0  0  0  0
  -22.4117  -11.9852   22.4767 H   0  0  0  0  0  0
  -21.1114  -13.1219   22.2659 H   0  0  0  0  0  0
  -24.6706  -15.8534   20.5442 H   0  0  0  0  0  0
  -26.2931  -15.6292   20.1270 H   0  0  0  0  0  0
  -26.7204  -32.5394   23.1071 H   0  0  0  0  0  0
  -25.0098  -33.9704   25.0404 H   0  0  0  0  0  0
  -22.7203  -31.3020   21.3993 H   0  0  0  0  0  0
  -23.3776  -35.9557   23.3198 H   0  0  0  0  0  0
  -24.3614  -36.8999   22.2072 H   0  0  0  0  0  0
  -23.7175  -37.6415   23.6724 H   0  0  0  0  0  0
  -26.1031  -31.5327   20.6028 H   0  0  0  0  0  0
  -26.8468  -30.8222   22.0032 H   0  0  0  0  0  0
  -28.1062  -28.9361   21.2002 H   0  0  0  0  0  0
  -25.9253  -25.8891   19.0363 H   0  0  0  0  0  0
  -23.9606  -27.2993   19.0157 H   0  0  0  0  0  0
  -23.7526  -30.5884   19.4007 H   0  0  0  0  0  0
  -22.7543  -29.2425   19.8606 H   0  0  0  0  0  0
  -25.1271  -36.1883   25.0805 H   0  0  0  0  0  0
  -20.9975  -28.3288   24.1399 H   0  0  0  0  0  0
  -20.5667  -26.2314   23.3639 H   0  0  0  0  0  0
  -21.6642  -26.7438   22.1231 H   0  0  0  0  0  0
  -19.6920  -25.6299   21.1258 H   0  0  0  0  0  0
  -19.6690  -27.3204   20.6768 H   0  0  0  0  0  0
  -17.4199  -26.6711   21.3998 H   0  0  0  0  0  0
  -18.0280  -26.0055   22.8982 H   0  0  0  0  0  0
  -19.7929  -30.7269   24.2303 H   0  0  0  0  0  0
  -17.5001  -31.6271   24.5162 H   0  0  0  0  0  0
  -15.5349  -30.3000   23.7654 H   0  0  0  0  0  0
  -15.8653  -28.0823   22.7106 H   0  0  0  0  0  0
  -24.5982  -30.6953   25.7814 H   0  0  0  0  0  0
  -24.8775  -32.2893   26.4721 H   0  0  0  0  0  0
  -25.8047  -30.9087   27.0301 H   0  0  0  0  0  0
  -26.2887  -29.6745   24.1227 H   0  0  0  0  0  0
  -27.3970  -29.7242   25.4742 H   0  0  0  0  0  0
  -27.8780  -30.4243   23.9453 H   0  0  0  0  0  0
  -27.2731  -33.3649   26.1989 H   0  0  0  0  0  0
  -28.3900  -32.6783   25.0288 H   0  0  0  0  0  0
  -28.0704  -31.8449   26.5423 H   0  0  0  0  0  0
  -28.2487  -38.0164   24.7664 H   0  0  0  0  0  0
  -28.1204  -36.2719   24.5980 H   0  0  0  0  0  0
  -27.2364  -37.1083   25.8826 H   0  0  0  0  0  0
  -20.9359  -29.8768   21.6882 H   0  0  0  0  0  0
  -26.0107  -38.2815   24.1594 H   0  0  0  0  0  0
  -30.0220  -20.1998   22.6635 H   0  0  0  0  0  0
  -28.3888  -19.3346   18.7977 H   0  0  0  0  0  0
  -30.6011  -17.8800   22.9616 H   0  0  0  0  0  0
  -28.9720  -16.9484   19.0768 H   0  0  0  0  0  0
  -26.9544  -23.9988   21.8373 H   0  0  0  0  0  0
  -30.5178  -23.1967   18.3812 H   0  0  0  0  0  0
  -29.5100  -21.8632   17.8205 H   0  0  0  0  0  0
  -30.8033  -21.5733   18.9824 H   0  0  0  0  0  0
  -31.0830  -15.7493   23.2355 H   0  0  0  0  0  0
  -30.1332  -14.3018   23.0436 H   0  0  0  0  0  0
  -29.3165  -15.8183   23.3528 H   0  0  0  0  0  0
  -27.7931  -25.1000   18.5857 H   0  0  0  0  0  0
  -29.4447  -25.1926   18.9912 H   0  0  0  0  0  0
  -26.5608  -21.8006   22.9475 H   0  0  0  0  0  0
  1 25  1  0  0  0
  1 30  2  0  0  0
  1 85  1  0  0  0
  2  3  1  0  0  0
  2 25  1  0  0  0
  2 87  1  0  0  0
  2 88  1  0  0  0
  3  4  1  0  0  0
  3 89  1  0  0  0
  3 90  1  0  0  0
  4  5  1  0  0  0
  4 91  1  0  0  0
  4 92  1  0  0  0
  5  6  1  0  0  0
  5 26  1  0  0  0
  5 93  1  0  0  0
  6 25  1  0  0  0
  6 94  1  0  0  0
  6 95  1  0  0  0
  7  8  2  0  0  0
  7 26  1  0  0  0
  7 29  1  0  0  0
  8  9  1  0  0  0
  8 22  1  0  0  0
  9 10  1  0  0  0
  9 27  2  0  0  0
 10 11  2  0  0  0
 10 15  1  0  0  0
 11 12  1  0  0  0
 11 96  1  0  0  0
 12 13  2  0  0  0
 12 97  1  0  0  0
 13 14  1  0  0  0
 13 31  1  0  0  0
 14 15  2  0  0  0
 14 98  1  0  0  0
 15 99  1  0  0  0
 16 17  2  0  0  0
 16 21  1  0  0  0
 16 31  1  0  0  0
 17 18  1  0  0  0
 17100  1  0  0  0
 18 19  2  0  0  0
 18101  1  0  0  0
 19 20  1  0  0  0
 19 24  1  0  0  0
 20 21  2  0  0  0
 20102  1  0  0  0
 21 23  1  0  0  0
 22 28  1  0  0  0
 22 32  2  0  0  0
 26 27  1  0  0  0
 28103  1  0  0  0
 28104  1  0  0  0
 29105  1  0  0  0
 29106  1  0  0  0
 33 34  1  0  0  0
 33 66  1  0  0  0
 33 70  2  0  0  0
 34 36  1  0  0  0
 34 59  1  0  0  0
 34107  1  0  0  0
 35 44  2  0  0  0
 35 45  1  0  0  0
 35 68  1  0  0  0
 36 56  1  0  0  0
 36108  1  0  0  0
 37 39  1  0  0  0
 37 47  1  0  0  0
 37 66  1  0  0  0
 37109  1  0  0  0
 38 43  2  0  0  0
 38 46  1  0  0  0
 38 47  1  0  0  0
 39 64  1  0  0  0
 39 67  2  0  0  0
 40 52  1  0  0  0
 40 53  2  0  0  0
 40 58  1  0  0  0
 41110  1  0  0  0
 41111  1  0  0  0
 41112  1  0  0  0
 41 48  1  0  0  0
 42 43  1  0  0  0
 42 66  1  0  0  0
 42113  1  0  0  0
 42114  1  0  0  0
 43 44  1  0  0  0
 44115  1  0  0  0
 45 46  2  0  0  0
 45116  1  0  0  0
 46117  1  0  0  0
 47118  1  0  0  0
 47119  1  0  0  0
 48 56  1  0  0  0
 48 65  1  0  0  0
 48120  1  0  0  0
 49 50  1  0  0  0
 49 53  1  0  0  0
 49 64  1  0  0  0
 49121  1  0  0  0
 50 51  1  0  0  0
 50122  1  0  0  0
 50123  1  0  0  0
 51 52  1  0  0  0
 51124  1  0  0  0
 51125  1  0  0  0
 52126  1  0  0  0
 52127  1  0  0  0
 53 54  1  0  0  0
 54 55  2  0  0  0
 54128  1  0  0  0
 55 57  1  0  0  0
 55129  1  0  0  0
 56 69  2  0  0  0
 57 58  2  0  0  0
 57130  1  0  0  0
 58131  1  0  0  0
 59 60  1  0  0  0
 59 61  1  0  0  0
 59 62  1  0  0  0
 60132  1  0  0  0
 60133  1  0  0  0
 60134  1  0  0  0
 61135  1  0  0  0
 61136  1  0  0  0
 61137  1  0  0  0
 62138  1  0  0  0
 62139  1  0  0  0
 62140  1  0  0  0
 63 65  1  0  0  0
 63141  1  0  0  0
 63142  1  0  0  0
 63143  1  0  0  0
 64144  1  0  0  0
 65145  1  0  0  0
 68 83  1  0  0  0
 71 73  2  0  0  0
 71 77  1  0  0  0
 71146  1  0  0  0
 72 74  1  0  0  0
 72 77  2  0  0  0
 72147  1  0  0  0
 73 78  1  0  0  0
 73148  1  0  0  0
 74 78  2  0  0  0
 74149  1  0  0  0
 75 76  1  0  0  0
 75 80  2  0  0  0
 75150  1  0  0  0
 76 79  2  0  0  0
 76 83  1  0  0  0
 77 84  1  0  0  0
 78 85  1  0  0  0
 79 81  1  0  0  0
 79 84  1  0  0  0
 80 84  1  0  0  0
 80 86  1  0  0  0
 81151  1  0  0  0
 81152  1  0  0  0
 81153  1  0  0  0
 82 85  1  0  0  0
 82154  1  0  0  0
 82155  1  0  0  0
 82156  1  0  0  0
 83157  1  0  0  0
 83158  1  0  0  0
 86159  1  0  0  0
M  ISO  4   1 100  68 101  83 101  85 100
M  END
> <chiral flag>
0

> <version>
0

> <s_m_source_file>
/data/baiqing/PycharmProjects/Reinvent-master-3.2/result/LINK_invent/BTK/process_docking_weight1_custom_product_contain_oxygen_bond_distance_aromatic_linkinvent_7_9_3/rearranged_h_0092.sdf

> <i_m_source_file_index>
65

> <r_mmod_Potential_Energy-OPLS-2005>
290.719909667969

> <r_mmod_Stretch_Energy-OPLS-2005>
110.587257385254

> <r_mmod_Bend_Energy-OPLS-2005>
170.592681884766

> <r_mmod_Torsional_Energy-OPLS-2005>
300.396850585938

> <r_mmod_Improper_Torsional_Energy-OPLS-2005>
4.17449951171875

> <r_mmod_Van_der_Waal_Energy-OPLS-2005>
141.488342285156

> <r_mmod_Electrostatic_Energy-OPLS-2005>
-298.264099121094

> <r_mmod_Solvation_Energy-OPLS-2005>
-204.348617553711

> <b_mmod_Minimization_Converged-OPLS-2005>
0

> <r_mmod_RMS_Derivative-OPLS-2005>
2.00538682937622

$$$$
65
                    3D
 Structure written by MMmdl.
158167  0  0  1  0            999 V2000
  -30.7356  -14.5076   20.5771 C   0  0  0  0  0  0
  -30.4053  -12.3364   19.4361 C   0  0  0  0  0  0
  -29.4884  -12.5031   18.2101 C   0  0  0  0  0  0
  -28.0123  -12.3609   18.6247 C   0  0  0  0  0  0
  -27.6495  -13.2227   19.8647 C   0  0  2  0  0  0
  -28.6928  -13.0690   20.9935 C   0  0  0  0  0  0
  -25.2529  -13.8193   20.5696 C   0  0  0  0  0  0
  -24.1801  -13.0449   20.9195 C   0  0  0  0  0  0
  -24.6380  -11.6925   20.8738 C   0  0  0  0  0  0
  -23.9056  -10.4302   21.0396 C   0  0  0  0  0  0
  -24.3606   -9.4219   21.9181 C   0  0  0  0  0  0
  -23.6284   -8.2252   22.0752 C   0  0  0  0  0  0
  -22.4270   -8.0284   21.3542 C   0  0  0  0  0  0
  -21.9903   -9.0254   20.4645 C   0  0  0  0  0  0
  -22.7225  -10.2136   20.3053 C   0  0  0  0  0  0
  -21.6852   -6.0732   22.5274 C   0  0  0  0  0  0
  -21.4017   -6.5636   23.8207 C   0  0  0  0  0  0
  -21.3664   -5.6791   24.9168 C   0  0  0  0  0  0
  -21.6044   -4.3053   24.7221 C   0  0  0  0  0  0
  -21.8819   -3.8144   23.4344 C   0  0  0  0  0  0
  -21.9194   -4.6959   22.3400 C   0  0  0  0  0  0
  -22.7823  -13.5232   21.1861 C   0  0  0  0  0  0
  -22.1661   -4.2141   21.0976 F   0  0  0  0  0  0
  -21.5632   -3.4543   25.7737 F   0  0  0  0  0  0
  -30.0137  -13.3611   20.4223 N   0  0  0  0  0  0
  -26.2961  -12.9393   20.3341 N   0  0  0  0  0  0
  -25.9314  -11.6534   20.5770 N   0  0  0  0  0  0
  -22.0472  -12.8214   22.0408 N   0  0  0  0  0  0
  -25.4237  -15.1916   20.4100 N   0  0  0  0  0  0
  -31.8866  -14.5809   20.1364 O   0  0  0  0  0  0
  -21.6648   -6.8871   21.4234 O   0  0  0  0  0  0
  -22.3509  -14.5546   20.6726 O   0  0  0  0  0  0
  -24.6173  -31.8660   23.2094 C   0  0  0  0  0  0
  -25.9057  -32.4817   23.8395 C   0  0  1  0  0  0
  -27.2322  -27.4086   20.1166 C   0  0  0  0  0  0
  -25.5915  -33.8618   24.2331 N   0  0  0  0  0  0
  -23.4082  -30.4869   21.5493 C   0  0  2  0  0  0
  -24.8567  -28.9451   20.1201 C   0  0  0  0  0  0
  -22.7432  -29.4646   22.4992 C   0  0  0  0  0  0
  -18.0281  -28.1387   22.8488 C   0  0  0  0  0  0
  -24.1485  -36.7309   23.2635 C   0  0  0  0  0  0
  -25.9374  -30.8219   21.3677 C   0  0  0  0  0  0
  -26.0153  -29.4505   20.7245 C   0  0  0  0  0  0
  -27.2084  -28.6879   20.7249 C   0  0  0  0  0  0
  -26.0629  -26.9241   19.4997 C   0  0  0  0  0  0
  -24.8754  -27.6810   19.5054 C   0  0  0  0  0  0
  -23.6202  -29.8154   20.1653 C   0  0  0  0  0  0
  -25.4102  -36.3106   24.0339 C   0  0  1  0  0  0
  -20.5870  -28.3672   23.1309 C   0  0  2  0  0  0
  -20.6778  -26.9405   22.5419 C   0  0  0  0  0  0
  -19.5753  -26.6394   21.5217 C   0  0  0  0  0  0
  -18.1931  -26.7936   22.1621 C   0  0  0  0  0  0
  -19.1529  -28.8847   23.2896 C   0  0  0  0  0  0
  -18.9454  -30.1454   23.8904 C   0  0  0  0  0  0
  -17.6453  -30.6583   24.0569 C   0  0  0  0  0  0
  -25.9038  -34.9472   23.5123 C   0  0  0  0  0  0
  -16.5348  -29.9078   23.6333 C   0  0  0  0  0  0
  -16.7268  -28.6504   23.0344 C   0  0  0  0  0  0
  -26.4479  -31.6589   25.0719 C   0  0  0  0  0  0
  -25.3747  -31.3677   26.1473 C   0  0  0  0  0  0
  -27.0316  -30.3032   24.6101 C   0  0  0  0  0  0
  -27.6075  -32.4299   25.7471 C   0  0  0  0  0  0
  -27.5590  -37.1792   24.8453 C   0  0  0  0  0  0
  -21.4157  -29.3029   22.3713 N   0  0  0  0  0  0
  -26.4284  -37.3798   23.9427 N   0  0  0  0  0  0
  -24.6725  -31.0732   22.1009 N   0  0  0  0  0  0
  -23.4182  -28.8200   23.3069 O   0  0  0  0  0  0
  -28.3786  -26.6461   20.0416 O   0  0  0  0  0  0
  -26.5597  -34.8921   22.4687 O   0  0  0  0  0  0
  -23.5356  -32.1422   23.7466 O   0  0  0  0  0  0
  -30.3080  -19.0821   22.3805 C   0  0  0  0  0  0
  -29.7847  -20.3938   22.3266 C   0  0  0  0  0  0
  -26.9934  -23.8960   21.2623 C   0  0  0  0  0  0
  -28.3840  -19.7435   20.4622 C   0  0  0  0  0  0
  -29.9029  -18.0766   21.4642 C   0  0  0  0  0  0
  -28.3255  -24.3945   21.1743 C   0  0  0  0  0  0
  -28.8390  -20.7558   21.3435 C   0  0  0  0  0  0
  -28.9072  -18.4235   20.5141 C   0  0  0  0  0  0
  -29.1476  -23.2798   21.1379 C   0  0  0  0  0  0
  -27.0537  -22.5333   21.3141 C   0  0  0  0  0  0
  -30.6842  -16.7698   21.4185 C   0  0  0  0  0  0
  -30.6414  -23.2100   21.0223 C   0  0  0  0  0  0
  -28.7311  -25.8763   21.2028 C   0  0  0  0  0  0
  -28.3722  -22.1135   21.2584 N   0  0  0  0  0  0
  -30.0864  -15.6021   21.0594 N   0  0  0  0  0  0
  -31.8722  -16.8273   21.7658 O   0  0  0  0  0  0
  -26.0343  -21.6405   21.4425 O   0  0  0  0  0  0
  -28.4719  -17.5092   19.6124 F   0  0  0  0  0  0
  -31.4507  -12.4125   19.1333 H   0  0  0  0  0  0
  -30.2943  -11.3396   19.8666 H   0  0  0  0  0  0
  -29.7359  -11.7631   17.4475 H   0  0  0  0  0  0
  -29.6520  -13.4806   17.7531 H   0  0  0  0  0  0
  -27.8296  -11.3076   18.8399 H   0  0  0  0  0  0
  -27.3623  -12.6191   17.7876 H   0  0  0  0  0  0
  -27.6746  -14.2623   19.5363 H   0  0  0  0  0  0
  -28.6798  -12.0548   21.3956 H   0  0  0  0  0  0
  -28.4558  -13.7271   21.8312 H   0  0  0  0  0  0
  -25.2748   -9.5706   22.4763 H   0  0  0  0  0  0
  -24.0001   -7.4644   22.7470 H   0  0  0  0  0  0
  -21.0840   -8.8760   19.8948 H   0  0  0  0  0  0
  -22.3670  -10.9673   19.6169 H   0  0  0  0  0  0
  -21.2007   -7.6143   23.9704 H   0  0  0  0  0  0
  -21.1487   -6.0525   25.9067 H   0  0  0  0  0  0
  -22.0595   -2.7608   23.2851 H   0  0  0  0  0  0
  -22.4087  -11.9874   22.4795 H   0  0  0  0  0  0
  -21.1086  -13.1234   22.2611 H   0  0  0  0  0  0
  -24.6555  -15.8447   20.5170 H   0  0  0  0  0  0
  -26.2652  -15.6310   20.0587 H   0  0  0  0  0  0
  -26.7138  -32.5515   23.1166 H   0  0  0  0  0  0
  -25.0095  -33.9783   25.0501 H   0  0  0  0  0  0
  -22.6994  -31.3050   21.4053 H   0  0  0  0  0  0
  -23.3764  -35.9621   23.3261 H   0  0  0  0  0  0
  -24.3597  -36.8963   22.2059 H   0  0  0  0  0  0
  -23.7200  -37.6489   23.6670 H   0  0  0  0  0  0
  -26.0496  -31.5834   20.5943 H   0  0  0  0  0  0
  -26.8265  -30.8818   21.9843 H   0  0  0  0  0  0
  -28.1065  -29.0781   21.1829 H   0  0  0  0  0  0
  -26.0743  -25.9567   19.0170 H   0  0  0  0  0  0
  -23.9869  -27.2877   19.0330 H   0  0  0  0  0  0
  -23.7327  -30.5875   19.4036 H   0  0  0  0  0  0
  -22.7432  -29.2362   19.8685 H   0  0  0  0  0  0
  -25.1268  -36.1978   25.0830 H   0  0  0  0  0  0
  -20.9957  -28.3238   24.1430 H   0  0  0  0  0  0
  -20.5700  -26.2274   23.3606 H   0  0  0  0  0  0
  -21.6648  -26.7460   22.1196 H   0  0  0  0  0  0
  -19.6919  -25.6309   21.1237 H   0  0  0  0  0  0
  -19.6695  -27.3216   20.6753 H   0  0  0  0  0  0
  -17.4205  -26.6700   21.4013 H   0  0  0  0  0  0
  -18.0310  -26.0068   22.9002 H   0  0  0  0  0  0
  -19.7930  -30.7282   24.2272 H   0  0  0  0  0  0
  -17.4997  -31.6268   24.5168 H   0  0  0  0  0  0
  -15.5341  -30.2979   23.7651 H   0  0  0  0  0  0
  -15.8678  -28.0828   22.7038 H   0  0  0  0  0  0
  -24.5940  -30.7008   25.7799 H   0  0  0  0  0  0
  -24.8919  -32.2814   26.4946 H   0  0  0  0  0  0
  -25.8113  -30.8831   27.0217 H   0  0  0  0  0  0
  -26.2857  -29.6782   24.1179 H   0  0  0  0  0  0
  -27.4107  -29.7281   25.4561 H   0  0  0  0  0  0
  -27.8683  -30.4354   23.9239 H   0  0  0  0  0  0
  -27.2735  -33.3607   26.2067 H   0  0  0  0  0  0
  -28.3874  -32.6844   25.0281 H   0  0  0  0  0  0
  -28.0756  -31.8405   26.5361 H   0  0  0  0  0  0
  -28.2562  -38.0139   24.7587 H   0  0  0  0  0  0
  -28.1136  -36.2677   24.6169 H   0  0  0  0  0  0
  -27.2322  -37.1304   25.8856 H   0  0  0  0  0  0
  -20.9342  -29.8718   21.6890 H   0  0  0  0  0  0
  -26.0172  -38.2866   24.1489 H   0  0  0  0  0  0
  -31.0745  -18.8649   23.1115 H   0  0  0  0  0  0
  -30.1386  -21.1355   23.0283 H   0  0  0  0  0  0
  -26.0925  -24.4917   21.3184 H   0  0  0  0  0  0
  -27.6417  -19.9861   19.7158 H   0  0  0  0  0  0
  -31.0392  -24.0854   20.5104 H   0  0  0  0  0  0
  -30.9599  -22.3373   20.4495 H   0  0  0  0  0  0
  -31.1097  -23.1584   22.0058 H   0  0  0  0  0  0
  -29.8134  -25.9413   21.3161 H   0  0  0  0  0  0
  -28.3198  -26.3318   22.1048 H   0  0  0  0  0  0
  -29.0813  -15.5755   21.0724 H   0  0  0  0  0  0
  -25.2261  -22.1365   21.5269 H   0  0  0  0  0  0
  1 25  1  0  0  0
  1 30  2  0  0  0
  1 85  1  0  0  0
  2  3  1  0  0  0
  2 25  1  0  0  0
  2 89  1  0  0  0
  2 90  1  0  0  0
  3  4  1  0  0  0
  3 91  1  0  0  0
  3 92  1  0  0  0
  4  5  1  0  0  0
  4 93  1  0  0  0
  4 94  1  0  0  0
  5  6  1  0  0  0
  5 26  1  0  0  0
  5 95  1  0  0  0
  6 25  1  0  0  0
  6 96  1  0  0  0
  6 97  1  0  0  0
  7  8  2  0  0  0
  7 26  1  0  0  0
  7 29  1  0  0  0
  8  9  1  0  0  0
  8 22  1  0  0  0
  9 10  1  0  0  0
  9 27  2  0  0  0
 10 11  2  0  0  0
 10 15  1  0  0  0
 11 12  1  0  0  0
 11 98  1  0  0  0
 12 13  2  0  0  0
 12 99  1  0  0  0
 13 14  1  0  0  0
 13 31  1  0  0  0
 14 15  2  0  0  0
 14100  1  0  0  0
 15101  1  0  0  0
 16 17  2  0  0  0
 16 21  1  0  0  0
 16 31  1  0  0  0
 17 18  1  0  0  0
 17102  1  0  0  0
 18 19  2  0  0  0
 18103  1  0  0  0
 19 20  1  0  0  0
 19 24  1  0  0  0
 20 21  2  0  0  0
 20104  1  0  0  0
 21 23  1  0  0  0
 22 28  1  0  0  0
 22 32  2  0  0  0
 26 27  1  0  0  0
 28105  1  0  0  0
 28106  1  0  0  0
 29107  1  0  0  0
 29108  1  0  0  0
 33 34  1  0  0  0
 33 66  1  0  0  0
 33 70  2  0  0  0
 34 36  1  0  0  0
 34 59  1  0  0  0
 34109  1  0  0  0
 35 44  2  0  0  0
 35 45  1  0  0  0
 35 68  1  0  0  0
 36 56  1  0  0  0
 36110  1  0  0  0
 37 39  1  0  0  0
 37 47  1  0  0  0
 37 66  1  0  0  0
 37111  1  0  0  0
 38 43  2  0  0  0
 38 46  1  0  0  0
 38 47  1  0  0  0
 39 64  1  0  0  0
 39 67  2  0  0  0
 40 52  1  0  0  0
 40 53  2  0  0  0
 40 58  1  0  0  0
 41112  1  0  0  0
 41113  1  0  0  0
 41114  1  0  0  0
 41 48  1  0  0  0
 42 43  1  0  0  0
 42 66  1  0  0  0
 42115  1  0  0  0
 42116  1  0  0  0
 43 44  1  0  0  0
 44117  1  0  0  0
 45 46  2  0  0  0
 45118  1  0  0  0
 46119  1  0  0  0
 47120  1  0  0  0
 47121  1  0  0  0
 48 56  1  0  0  0
 48 65  1  0  0  0
 48122  1  0  0  0
 49 50  1  0  0  0
 49 53  1  0  0  0
 49 64  1  0  0  0
 49123  1  0  0  0
 50 51  1  0  0  0
 50124  1  0  0  0
 50125  1  0  0  0
 51 52  1  0  0  0
 51126  1  0  0  0
 51127  1  0  0  0
 52128  1  0  0  0
 52129  1  0  0  0
 53 54  1  0  0  0
 54 55  2  0  0  0
 54130  1  0  0  0
 55 57  1  0  0  0
 55131  1  0  0  0
 56 69  2  0  0  0
 57 58  2  0  0  0
 57132  1  0  0  0
 58133  1  0  0  0
 59 60  1  0  0  0
 59 61  1  0  0  0
 59 62  1  0  0  0
 60134  1  0  0  0
 60135  1  0  0  0
 60136  1  0  0  0
 61137  1  0  0  0
 61138  1  0  0  0
 61139  1  0  0  0
 62140  1  0  0  0
 62141  1  0  0  0
 62142  1  0  0  0
 63 65  1  0  0  0
 63143  1  0  0  0
 63144  1  0  0  0
 63145  1  0  0  0
 64146  1  0  0  0
 65147  1  0  0  0
 68 83  1  0  0  0
 71 72  2  0  0  0
 71 75  1  0  0  0
 71148  1  0  0  0
 72 77  1  0  0  0
 72149  1  0  0  0
 73 76  1  0  0  0
 73 80  2  0  0  0
 73150  1  0  0  0
 74 77  2  0  0  0
 74 78  1  0  0  0
 74151  1  0  0  0
 75 78  2  0  0  0
 75 81  1  0  0  0
 76 79  2  0  0  0
 76 83  1  0  0  0
 77 84  1  0  0  0
 78 88  1  0  0  0
 79 82  1  0  0  0
 79 84  1  0  0  0
 80 84  1  0  0  0
 80 87  1  0  0  0
 81 85  1  0  0  0
 81 86  2  0  0  0
 82152  1  0  0  0
 82153  1  0  0  0
 82154  1  0  0  0
 83155  1  0  0  0
 83156  1  0  0  0
 85157  1  0  0  0
 87158  1  0  0  0
M  ISO  4   1 100  68 101  83 101  85 100
M  END
> <chiral flag>
0

> <version>
0

> <s_m_source_file>
/data/baiqing/PycharmProjects/Reinvent-master-3.2/result/LINK_invent/BTK/process_docking_weight1_custom_product_contain_oxygen_bond_distance_aromatic_linkinvent_7_9_3/rearranged_h_0092.sdf

> <i_m_source_file_index>
66

> <r_mmod_Potential_Energy-OPLS-2005>
-56.4508171081543

> <r_mmod_Stretch_Energy-OPLS-2005>
45.1342430114746

> <r_mmod_Bend_Energy-OPLS-2005>
106.769195556641

> <r_mmod_Torsional_Energy-OPLS-2005>
273.410614013672

> <r_mmod_Improper_Torsional_Energy-OPLS-2005>
5.24396657943726

> <r_mmod_Van_der_Waal_Energy-OPLS-2005>
148.639663696289

> <r_mmod_Electrostatic_Energy-OPLS-2005>
-434.676086425781

> <r_mmod_Solvation_Energy-OPLS-2005>
-220.846603393555

> <b_mmod_Minimization_Converged-OPLS-2005>
0

> <r_mmod_RMS_Derivative-OPLS-2005>
1.61986184120178

$$$$
66
                    3D
 Structure written by MMmdl.
154162  0  0  1  0            999 V2000
  -30.7204  -14.6089   20.4844 C   0  0  0  0  0  0
  -30.4090  -12.3750   19.4653 C   0  0  0  0  0  0
  -29.5005  -12.4848   18.2236 C   0  0  0  0  0  0
  -28.0248  -12.3373   18.6370 C   0  0  0  0  0  0
  -27.6446  -13.2310   19.8473 C   0  0  2  0  0  0
  -28.6904  -13.1509   20.9850 C   0  0  0  0  0  0
  -25.2519  -13.8198   20.5682 C   0  0  0  0  0  0
  -24.1805  -13.0451   20.9218 C   0  0  0  0  0  0
  -24.6394  -11.6928   20.8764 C   0  0  0  0  0  0
  -23.9063  -10.4299   21.0412 C   0  0  0  0  0  0
  -24.3616   -9.4219   21.9194 C   0  0  0  0  0  0
  -23.6290   -8.2255   22.0762 C   0  0  0  0  0  0
  -22.4274   -8.0285   21.3564 C   0  0  0  0  0  0
  -21.9909   -9.0260   20.4666 C   0  0  0  0  0  0
  -22.7233  -10.2134   20.3066 C   0  0  0  0  0  0
  -21.6855   -6.0725   22.5278 C   0  0  0  0  0  0
  -21.4008   -6.5632   23.8201 C   0  0  0  0  0  0
  -21.3663   -5.6792   24.9174 C   0  0  0  0  0  0
  -21.6045   -4.3051   24.7228 C   0  0  0  0  0  0
  -21.8818   -3.8138   23.4346 C   0  0  0  0  0  0
  -21.9190   -4.6957   22.3403 C   0  0  0  0  0  0
  -22.7817  -13.5236   21.1851 C   0  0  0  0  0  0
  -22.1660   -4.2147   21.0981 F   0  0  0  0  0  0
  -21.5646   -3.4537   25.7745 F   0  0  0  0  0  0
  -30.0024  -13.4435   20.4039 N   0  0  0  0  0  0
  -26.2948  -12.9405   20.3253 N   0  0  0  0  0  0
  -25.9324  -11.6551   20.5750 N   0  0  0  0  0  0
  -22.0440  -12.8248   22.0401 N   0  0  0  0  0  0
  -25.4209  -15.1911   20.4038 N   0  0  0  0  0  0
  -31.9108  -14.6215   20.1532 O   0  0  0  0  0  0
  -21.6644   -6.8876   21.4244 O   0  0  0  0  0  0
  -22.3509  -14.5547   20.6689 O   0  0  0  0  0  0
  -24.6254  -31.8607   23.2054 C   0  0  0  0  0  0
  -25.9104  -32.4772   23.8378 C   0  0  1  0  0  0
  -27.2107  -27.3170   20.1143 C   0  0  0  0  0  0
  -25.5931  -33.8577   24.2304 N   0  0  0  0  0  0
  -23.4194  -30.4869   21.5467 C   0  0  2  0  0  0
  -24.8674  -28.9577   20.1029 C   0  0  0  0  0  0
  -22.7486  -29.4603   22.4913 C   0  0  0  0  0  0
  -18.0274  -28.1378   22.8477 C   0  0  0  0  0  0
  -24.1496  -36.7295   23.2635 C   0  0  0  0  0  0
  -25.9633  -30.7910   21.3811 C   0  0  0  0  0  0
  -26.0367  -29.4220   20.7181 C   0  0  0  0  0  0
  -27.2128  -28.6122   20.7184 C   0  0  0  0  0  0
  -26.0225  -26.9245   19.4509 C   0  0  0  0  0  0
  -24.8649  -27.7169   19.4554 C   0  0  0  0  0  0
  -23.6351  -29.8342   20.1574 C   0  0  0  0  0  0
  -25.4110  -36.3069   24.0330 C   0  0  1  0  0  0
  -20.5886  -28.3672   23.1274 C   0  0  2  0  0  0
  -20.6765  -26.9392   22.5406 C   0  0  0  0  0  0
  -19.5745  -26.6376   21.5202 C   0  0  0  0  0  0
  -18.1918  -26.7917   22.1611 C   0  0  0  0  0  0
  -19.1533  -28.8841   23.2867 C   0  0  0  0  0  0
  -18.9453  -30.1440   23.8887 C   0  0  0  0  0  0
  -17.6455  -30.6576   24.0548 C   0  0  0  0  0  0
  -25.9046  -34.9442   23.5107 C   0  0  0  0  0  0
  -16.5341  -29.9073   23.6327 C   0  0  0  0  0  0
  -16.7262  -28.6493   23.0342 C   0  0  0  0  0  0
  -26.4508  -31.6572   25.0738 C   0  0  0  0  0  0
  -25.3760  -31.3692   26.1475 C   0  0  0  0  0  0
  -27.0332  -30.2985   24.6190 C   0  0  0  0  0  0
  -27.6076  -32.4307   25.7505 C   0  0  0  0  0  0
  -27.5578  -37.1792   24.8455 C   0  0  0  0  0  0
  -21.4194  -29.3034   22.3679 N   0  0  0  0  0  0
  -26.4284  -37.3765   23.9409 N   0  0  0  0  0  0
  -24.6876  -31.0625   22.1000 N   0  0  0  0  0  0
  -23.4221  -28.8107   23.2951 O   0  0  0  0  0  0
  -28.2972  -26.4266   20.1969 O   0  0  0  0  0  0
  -26.5612  -34.8908   22.4672 O   0  0  0  0  0  0
  -23.5421  -32.1405   23.7379 O   0  0  0  0  0  0
  -30.6153  -19.6674   21.1005 C   0  0  0  0  0  0
  -30.0974  -20.9934   20.9975 C   0  0  0  0  0  0
  -28.6325  -18.7672   20.0677 C   0  0  0  0  0  0
  -29.9169  -18.5209   20.6106 C   0  0  0  0  0  0
  -28.1056  -20.0914   19.9844 C   0  0  0  0  0  0
  -28.8325  -21.2416   20.4130 C   0  0  0  0  0  0
  -30.6052  -17.1735   20.5379 C   0  0  0  0  0  0
  -27.9826  -24.9863   20.0093 C   0  0  0  0  0  0
  -28.9080  -23.7867   20.4874 C   0  0  0  0  0  0
  -26.8326  -20.2718   19.4461 N   0  0  0  0  0  0
  -30.0403  -15.9123   20.6891 N   0  0  0  0  0  0
  -31.9097  -17.2794   20.2507 N   0  3  0  0  0  0
  -28.2426  -22.5090   20.2284 O   0  0  0  0  0  0
  -31.4569  -12.4386   19.1681 H   0  0  0  0  0  0
  -30.2981  -11.3961   19.9343 H   0  0  0  0  0  0
  -29.7644  -11.7152   17.4955 H   0  0  0  0  0  0
  -29.6591  -13.4445   17.7274 H   0  0  0  0  0  0
  -27.8595  -11.2893   18.8872 H   0  0  0  0  0  0
  -27.3700  -12.5505   17.7907 H   0  0  0  0  0  0
  -27.6514  -14.2555   19.4729 H   0  0  0  0  0  0
  -28.6951  -12.1599   21.4436 H   0  0  0  0  0  0
  -28.4490  -13.8558   21.7807 H   0  0  0  0  0  0
  -25.2763   -9.5720   22.4759 H   0  0  0  0  0  0
  -24.0018   -7.4651   22.7479 H   0  0  0  0  0  0
  -21.0845   -8.8775   19.8970 H   0  0  0  0  0  0
  -22.3693  -10.9670   19.6169 H   0  0  0  0  0  0
  -21.1986   -7.6138   23.9701 H   0  0  0  0  0  0
  -21.1493   -6.0526   25.9079 H   0  0  0  0  0  0
  -22.0592   -2.7605   23.2847 H   0  0  0  0  0  0
  -22.4019  -11.9921   22.4847 H   0  0  0  0  0  0
  -21.1057  -13.1301   22.2566 H   0  0  0  0  0  0
  -24.6495  -15.8406   20.5099 H   0  0  0  0  0  0
  -26.2363  -15.6160   19.9831 H   0  0  0  0  0  0
  -26.7165  -32.5440   23.1126 H   0  0  0  0  0  0
  -25.0079  -33.9738   25.0449 H   0  0  0  0  0  0
  -22.7108  -31.3059   21.4075 H   0  0  0  0  0  0
  -23.3753  -35.9635   23.3287 H   0  0  0  0  0  0
  -24.3587  -36.8930   22.2053 H   0  0  0  0  0  0
  -23.7277  -37.6502   23.6673 H   0  0  0  0  0  0
  -26.1008  -31.5578   20.6180 H   0  0  0  0  0  0
  -26.8414  -30.8328   22.0135 H   0  0  0  0  0  0
  -28.1040  -28.9575   21.2241 H   0  0  0  0  0  0
  -25.9442  -25.9838   18.9274 H   0  0  0  0  0  0
  -23.9754  -27.3654   18.9515 H   0  0  0  0  0  0
  -23.7516  -30.6156   19.4050 H   0  0  0  0  0  0
  -22.7575  -29.2622   19.8511 H   0  0  0  0  0  0
  -25.1289  -36.1910   25.0820 H   0  0  0  0  0  0
  -20.9961  -28.3239   24.1402 H   0  0  0  0  0  0
  -20.5644  -26.2276   23.3596 H   0  0  0  0  0  0
  -21.6630  -26.7397   22.1211 H   0  0  0  0  0  0
  -19.6894  -25.6286   21.1230 H   0  0  0  0  0  0
  -19.6687  -27.3191   20.6733 H   0  0  0  0  0  0
  -17.4182  -26.6654   21.4014 H   0  0  0  0  0  0
  -18.0313  -26.0063   22.9012 H   0  0  0  0  0  0
  -19.7925  -30.7250   24.2271 H   0  0  0  0  0  0
  -17.5003  -31.6252   24.5149 H   0  0  0  0  0  0
  -15.5342  -30.2962   23.7655 H   0  0  0  0  0  0
  -15.8661  -28.0799   22.7075 H   0  0  0  0  0  0
  -24.5937  -30.7033   25.7816 H   0  0  0  0  0  0
  -24.8948  -32.2839   26.4935 H   0  0  0  0  0  0
  -25.8115  -30.8856   27.0225 H   0  0  0  0  0  0
  -26.2878  -29.6741   24.1243 H   0  0  0  0  0  0
  -27.4034  -29.7242   25.4694 H   0  0  0  0  0  0
  -27.8768  -30.4245   23.9401 H   0  0  0  0  0  0
  -27.2681  -33.3599   26.2097 H   0  0  0  0  0  0
  -28.3877  -32.6876   25.0327 H   0  0  0  0  0  0
  -28.0754  -31.8418   26.5406 H   0  0  0  0  0  0
  -28.2570  -38.0112   24.7501 H   0  0  0  0  0  0
  -28.1093  -36.2631   24.6266 H   0  0  0  0  0  0
  -27.2289  -37.1430   25.8857 H   0  0  0  0  0  0
  -20.9362  -29.8808   21.6943 H   0  0  0  0  0  0
  -26.0154  -38.2833   24.1424 H   0  0  0  0  0  0
  -31.5984  -19.5451   21.5341 H   0  0  0  0  0  0
  -30.6888  -21.8186   21.3642 H   0  0  0  0  0  0
  -28.0645  -17.9398   19.6666 H   0  0  0  0  0  0
  -27.0313  -24.7915   20.5075 H   0  0  0  0  0  0
  -27.8119  -24.8314   18.9427 H   0  0  0  0  0  0
  -29.1034  -23.8680   21.5565 H   0  0  0  0  0  0
  -29.8701  -23.8194   19.9755 H   0  0  0  0  0  0
  -26.1431  -19.5626   19.6702 H   0  0  0  0  0  0
  -26.4592  -21.2060   19.5850 H   0  0  0  0  0  0
  -29.0673  -15.9547   20.9362 H   0  0  0  0  0  0
  -32.3351  -18.1755   20.0773 H   0  0  0  0  0  0
  -32.4425  -16.4237   20.1232 H   0  0  0  0  0  0
  1 25  1  0  0  0
  1 30  2  0  0  0
  1 81  1  0  0  0
  2  3  1  0  0  0
  2 25  1  0  0  0
  2 84  1  0  0  0
  2 85  1  0  0  0
  3  4  1  0  0  0
  3 86  1  0  0  0
  3 87  1  0  0  0
  4  5  1  0  0  0
  4 88  1  0  0  0
  4 89  1  0  0  0
  5  6  1  0  0  0
  5 26  1  0  0  0
  5 90  1  0  0  0
  6 25  1  0  0  0
  6 91  1  0  0  0
  6 92  1  0  0  0
  7  8  2  0  0  0
  7 26  1  0  0  0
  7 29  1  0  0  0
  8  9  1  0  0  0
  8 22  1  0  0  0
  9 10  1  0  0  0
  9 27  2  0  0  0
 10 11  2  0  0  0
 10 15  1  0  0  0
 11 12  1  0  0  0
 11 93  1  0  0  0
 12 13  2  0  0  0
 12 94  1  0  0  0
 13 14  1  0  0  0
 13 31  1  0  0  0
 14 15  2  0  0  0
 14 95  1  0  0  0
 15 96  1  0  0  0
 16 17  2  0  0  0
 16 21  1  0  0  0
 16 31  1  0  0  0
 17 18  1  0  0  0
 17 97  1  0  0  0
 18 19  2  0  0  0
 18 98  1  0  0  0
 19 20  1  0  0  0
 19 24  1  0  0  0
 20 21  2  0  0  0
 20 99  1  0  0  0
 21 23  1  0  0  0
 22 28  1  0  0  0
 22 32  2  0  0  0
 26 27  1  0  0  0
 28100  1  0  0  0
 28101  1  0  0  0
 29102  1  0  0  0
 29103  1  0  0  0
 33 34  1  0  0  0
 33 66  1  0  0  0
 33 70  2  0  0  0
 34 36  1  0  0  0
 34 59  1  0  0  0
 34104  1  0  0  0
 35 44  2  0  0  0
 35 45  1  0  0  0
 35 68  1  0  0  0
 36 56  1  0  0  0
 36105  1  0  0  0
 37 39  1  0  0  0
 37 47  1  0  0  0
 37 66  1  0  0  0
 37106  1  0  0  0
 38 43  2  0  0  0
 38 46  1  0  0  0
 38 47  1  0  0  0
 39 64  1  0  0  0
 39 67  2  0  0  0
 40 52  1  0  0  0
 40 53  2  0  0  0
 40 58  1  0  0  0
 41107  1  0  0  0
 41108  1  0  0  0
 41109  1  0  0  0
 41 48  1  0  0  0
 42 43  1  0  0  0
 42 66  1  0  0  0
 42110  1  0  0  0
 42111  1  0  0  0
 43 44  1  0  0  0
 44112  1  0  0  0
 45 46  2  0  0  0
 45113  1  0  0  0
 46114  1  0  0  0
 47115  1  0  0  0
 47116  1  0  0  0
 48 56  1  0  0  0
 48 65  1  0  0  0
 48117  1  0  0  0
 49 50  1  0  0  0
 49 53  1  0  0  0
 49 64  1  0  0  0
 49118  1  0  0  0
 50 51  1  0  0  0
 50119  1  0  0  0
 50120  1  0  0  0
 51 52  1  0  0  0
 51121  1  0  0  0
 51122  1  0  0  0
 52123  1  0  0  0
 52124  1  0  0  0
 53 54  1  0  0  0
 54 55  2  0  0  0
 54125  1  0  0  0
 55 57  1  0  0  0
 55126  1  0  0  0
 56 69  2  0  0  0
 57 58  2  0  0  0
 57127  1  0  0  0
 58128  1  0  0  0
 59 60  1  0  0  0
 59 61  1  0  0  0
 59 62  1  0  0  0
 60129  1  0  0  0
 60130  1  0  0  0
 60131  1  0  0  0
 61132  1  0  0  0
 61133  1  0  0  0
 61134  1  0  0  0
 62135  1  0  0  0
 62136  1  0  0  0
 62137  1  0  0  0
 63 65  1  0  0  0
 63138  1  0  0  0
 63139  1  0  0  0
 63140  1  0  0  0
 64141  1  0  0  0
 65142  1  0  0  0
 68 78  1  0  0  0
 71 72  2  0  0  0
 71 74  1  0  0  0
 71143  1  0  0  0
 72 76  1  0  0  0
 72144  1  0  0  0
 73 74  2  0  0  0
 73 75  1  0  0  0
 73145  1  0  0  0
 74 77  1  0  0  0
 75 76  2  0  0  0
 75 80  1  0  0  0
 76 83  1  0  0  0
 77 81  1  0  0  0
 77 82  2  0  0  0
 78 79  1  0  0  0
 78146  1  0  0  0
 78147  1  0  0  0
 79 83  1  0  0  0
 79148  1  0  0  0
 79149  1  0  0  0
 80150  1  0  0  0
 80151  1  0  0  0
 81152  1  0  0  0
 82153  1  0  0  0
 82154  1  0  0  0
M  CHG  1  82   1
M  ISO  4   1 100  68 101  78 101  81 100
M  END
> <chiral flag>
0

> <version>
0

> <s_m_source_file>
/data/baiqing/PycharmProjects/Reinvent-master-3.2/result/LINK_invent/BTK/process_docking_weight1_custom_product_contain_oxygen_bond_distance_aromatic_linkinvent_7_9_3/rearranged_h_0092.sdf

> <i_m_source_file_index>
67

> <r_mmod_Potential_Energy-OPLS-2005>
-182.826583862305

> <r_mmod_Stretch_Energy-OPLS-2005>
80.8765258789062

> <r_mmod_Bend_Energy-OPLS-2005>
159.249084472656

> <r_mmod_Torsional_Energy-OPLS-2005>
208.986373901367

> <r_mmod_Improper_Torsional_Energy-OPLS-2005>
11.8008003234863

> <r_mmod_Van_der_Waal_Energy-OPLS-2005>
171.971008300781

> <r_mmod_Electrostatic_Energy-OPLS-2005>
-432.541198730469

> <r_mmod_Solvation_Energy-OPLS-2005>
-438.919342041016

> <b_mmod_Minimization_Converged-OPLS-2005>
0

> <r_mmod_RMS_Derivative-OPLS-2005>
2.61839199066162

$$$$
67
                    3D
 Structure written by MMmdl.
158166  0  0  1  0            999 V2000
  -30.5995  -14.6468   20.5040 C   0  0  0  0  0  0
  -30.4440  -12.3976   19.4490 C   0  0  0  0  0  0
  -29.5109  -12.5141   18.2220 C   0  0  0  0  0  0
  -28.0315  -12.3523   18.6291 C   0  0  0  0  0  0
  -27.6542  -13.2132   19.8637 C   0  0  2  0  0  0
  -28.6983  -13.0518   20.9912 C   0  0  0  0  0  0
  -25.2570  -13.8164   20.5670 C   0  0  0  0  0  0
  -24.1834  -13.0436   20.9180 C   0  0  0  0  0  0
  -24.6398  -11.6904   20.8730 C   0  0  0  0  0  0
  -23.9067  -10.4292   21.0403 C   0  0  0  0  0  0
  -24.3617   -9.4207   21.9180 C   0  0  0  0  0  0
  -23.6289   -8.2245   22.0752 C   0  0  0  0  0  0
  -22.4272   -8.0282   21.3542 C   0  0  0  0  0  0
  -21.9906   -9.0259   20.4647 C   0  0  0  0  0  0
  -22.7238  -10.2137   20.3053 C   0  0  0  0  0  0
  -21.6854   -6.0732   22.5276 C   0  0  0  0  0  0
  -21.4017   -6.5637   23.8211 C   0  0  0  0  0  0
  -21.3660   -5.6791   24.9172 C   0  0  0  0  0  0
  -21.6040   -4.3051   24.7223 C   0  0  0  0  0  0
  -21.8821   -3.8143   23.4345 C   0  0  0  0  0  0
  -21.9193   -4.6961   22.3402 C   0  0  0  0  0  0
  -22.7859  -13.5235   21.1842 C   0  0  0  0  0  0
  -22.1661   -4.2147   21.0980 F   0  0  0  0  0  0
  -21.5628   -3.4536   25.7736 F   0  0  0  0  0  0
  -30.0133  -13.4095   20.4334 N   0  0  0  0  0  0
  -26.2992  -12.9336   20.3300 N   0  0  0  0  0  0
  -25.9322  -11.6494   20.5739 N   0  0  0  0  0  0
  -22.0497  -12.8238   22.0402 N   0  0  0  0  0  0
  -25.4286  -15.1888   20.4081 N   0  0  0  0  0  0
  -31.7684  -14.8145   20.1496 O   0  0  0  0  0  0
  -21.6636   -6.8875   21.4239 O   0  0  0  0  0  0
  -22.3546  -14.5538   20.6685 O   0  0  0  0  0  0
  -24.6230  -31.8604   23.2025 C   0  0  0  0  0  0
  -25.9081  -32.4786   23.8353 C   0  0  1  0  0  0
  -27.2258  -27.3275   20.1344 C   0  0  0  0  0  0
  -25.5905  -33.8585   24.2280 N   0  0  0  0  0  0
  -23.4167  -30.4810   21.5440 C   0  0  2  0  0  0
  -24.8648  -28.9272   20.1198 C   0  0  0  0  0  0
  -22.7457  -29.4620   22.4950 C   0  0  0  0  0  0
  -18.0278  -28.1380   22.8490 C   0  0  0  0  0  0
  -24.1485  -36.7299   23.2641 C   0  0  0  0  0  0
  -25.9547  -30.7924   21.3723 C   0  0  0  0  0  0
  -26.0294  -29.4145   20.7278 C   0  0  0  0  0  0
  -27.2143  -28.6247   20.7268 C   0  0  0  0  0  0
  -26.0500  -26.8889   19.4962 C   0  0  0  0  0  0
  -24.8751  -27.6677   19.4964 C   0  0  0  0  0  0
  -23.6326  -29.8085   20.1614 C   0  0  0  0  0  0
  -25.4112  -36.3094   24.0335 C   0  0  1  0  0  0
  -20.5877  -28.3677   23.1297 C   0  0  2  0  0  0
  -20.6762  -26.9403   22.5412 C   0  0  0  0  0  0
  -19.5739  -26.6383   21.5209 C   0  0  0  0  0  0
  -18.1921  -26.7923   22.1624 C   0  0  0  0  0  0
  -19.1531  -28.8846   23.2889 C   0  0  0  0  0  0
  -18.9458  -30.1450   23.8905 C   0  0  0  0  0  0
  -17.6458  -30.6585   24.0563 C   0  0  0  0  0  0
  -25.9049  -34.9461   23.5112 C   0  0  0  0  0  0
  -16.5350  -29.9087   23.6328 C   0  0  0  0  0  0
  -16.7267  -28.6500   23.0356 C   0  0  0  0  0  0
  -26.4475  -31.6592   25.0713 C   0  0  0  0  0  0
  -25.3719  -31.3716   26.1450 C   0  0  0  0  0  0
  -27.0314  -30.3025   24.6142 C   0  0  0  0  0  0
  -27.6044  -32.4319   25.7481 C   0  0  0  0  0  0
  -27.5579  -37.1808   24.8470 C   0  0  0  0  0  0
  -21.4175  -29.3035   22.3698 N   0  0  0  0  0  0
  -26.4290  -37.3788   23.9413 N   0  0  0  0  0  0
  -24.6832  -31.0626   22.0966 N   0  0  0  0  0  0
  -23.4188  -28.8166   23.3028 O   0  0  0  0  0  0
  -28.3647  -26.5227   20.0860 O   0  0  0  0  0  0
  -26.5617  -34.8927   22.4679 O   0  0  0  0  0  0
  -23.5397  -32.1396   23.7364 O   0  0  0  0  0  0
  -28.1065  -19.0201   21.3243 C   0  0  0  0  0  0
  -28.4639  -17.6479   21.3639 C   0  0  0  0  0  0
  -30.1054  -19.5003   20.0948 C   0  0  0  0  0  0
  -30.4698  -18.1063   20.1037 C   0  0  0  0  0  0
  -28.9076  -19.9912   20.6832 C   0  0  0  0  0  0
  -29.6349  -17.1243   20.7557 C   0  0  0  0  0  0
  -31.7087  -17.7514   19.3402 C   0  0  0  0  0  0
  -28.9381  -22.5869   20.3518 C   0  0  0  0  0  0
  -26.5314  -23.4960   20.5829 C   0  0  0  0  0  0
  -28.4137  -25.2461   20.8302 C   0  0  0  0  0  0
  -27.9805  -23.8518   20.1722 C   0  0  1  0  0  0
  -32.8408  -18.2405   19.8302 N   0  0  0  0  0  0
  -28.3846  -21.3567   20.5987 N   0  0  0  0  0  0
  -29.7501  -15.6572   20.8821 N   0  0  0  0  0  0
  -31.6633  -17.1122   18.2902 O   0  0  0  0  0  0
  -30.1573  -22.7336   20.2461 O   0  0  0  0  0  0
  -31.4836  -12.5367   19.1475 H   0  0  0  0  0  0
  -30.3893  -11.3987   19.8845 H   0  0  0  0  0  0
  -29.7768  -11.7679   17.4723 H   0  0  0  0  0  0
  -29.6533  -13.4854   17.7460 H   0  0  0  0  0  0
  -27.8613  -11.2981   18.8493 H   0  0  0  0  0  0
  -27.3818  -12.5945   17.7873 H   0  0  0  0  0  0
  -27.6757  -14.2510   19.5317 H   0  0  0  0  0  0
  -28.7127  -12.0232   21.3548 H   0  0  0  0  0  0
  -28.4400  -13.6628   21.8574 H   0  0  0  0  0  0
  -25.2765   -9.5684   22.4748 H   0  0  0  0  0  0
  -23.9999   -7.4639   22.7475 H   0  0  0  0  0  0
  -21.0832   -8.8781   19.8959 H   0  0  0  0  0  0
  -22.3696  -10.9674   19.6160 H   0  0  0  0  0  0
  -21.2014   -7.6146   23.9713 H   0  0  0  0  0  0
  -21.1477   -6.0520   25.9076 H   0  0  0  0  0  0
  -22.0600   -2.7606   23.2847 H   0  0  0  0  0  0
  -22.4104  -11.9908   22.4810 H   0  0  0  0  0  0
  -21.1112  -13.1270   22.2584 H   0  0  0  0  0  0
  -24.6569  -15.8393   20.5094 H   0  0  0  0  0  0
  -26.2685  -15.6261   20.0515 H   0  0  0  0  0  0
  -26.7144  -32.5465   23.1100 H   0  0  0  0  0  0
  -25.0051  -33.9731   25.0423 H   0  0  0  0  0  0
  -22.7103  -31.3004   21.3979 H   0  0  0  0  0  0
  -23.3747  -35.9633   23.3312 H   0  0  0  0  0  0
  -24.3574  -36.8909   22.2054 H   0  0  0  0  0  0
  -23.7236  -37.6505   23.6653 H   0  0  0  0  0  0
  -26.0792  -31.5484   20.5961 H   0  0  0  0  0  0
  -26.8390  -30.8502   21.9956 H   0  0  0  0  0  0
  -28.1141  -28.9996   21.1943 H   0  0  0  0  0  0
  -26.0440  -25.9399   18.9813 H   0  0  0  0  0  0
  -23.9864  -27.2939   19.0063 H   0  0  0  0  0  0
  -23.7528  -30.5812   19.4009 H   0  0  0  0  0  0
  -22.7529  -29.2361   19.8599 H   0  0  0  0  0  0
  -25.1290  -36.1951   25.0826 H   0  0  0  0  0  0
  -20.9971  -28.3242   24.1416 H   0  0  0  0  0  0
  -20.5657  -26.2288   23.3611 H   0  0  0  0  0  0
  -21.6636  -26.7429   22.1212 H   0  0  0  0  0  0
  -19.6903  -25.6295   21.1236 H   0  0  0  0  0  0
  -19.6678  -27.3199   20.6744 H   0  0  0  0  0  0
  -17.4191  -26.6674   21.4026 H   0  0  0  0  0  0
  -18.0325  -26.0062   22.9020 H   0  0  0  0  0  0
  -19.7935  -30.7263   24.2282 H   0  0  0  0  0  0
  -17.5014  -31.6268   24.5158 H   0  0  0  0  0  0
  -15.5352  -30.2995   23.7646 H   0  0  0  0  0  0
  -15.8665  -28.0823   22.7075 H   0  0  0  0  0  0
  -24.5899  -30.7056   25.7781 H   0  0  0  0  0  0
  -24.8899  -32.2874   26.4879 H   0  0  0  0  0  0
  -25.8057  -30.8895   27.0220 H   0  0  0  0  0  0
  -26.2873  -29.6788   24.1174 H   0  0  0  0  0  0
  -27.4035  -29.7265   25.4623 H   0  0  0  0  0  0
  -27.8733  -30.4324   23.9340 H   0  0  0  0  0  0
  -27.2658  -33.3619   26.2058 H   0  0  0  0  0  0
  -28.3853  -32.6876   25.0309 H   0  0  0  0  0  0
  -28.0708  -31.8440   26.5395 H   0  0  0  0  0  0
  -28.2610  -38.0093   24.7512 H   0  0  0  0  0  0
  -28.1062  -36.2626   24.6303 H   0  0  0  0  0  0
  -27.2298  -37.1470   25.8874 H   0  0  0  0  0  0
  -20.9353  -29.8766   21.6919 H   0  0  0  0  0  0
  -26.0177  -38.2867   24.1406 H   0  0  0  0  0  0
  -27.1777  -19.3184   21.7903 H   0  0  0  0  0  0
  -27.7841  -16.9770   21.8705 H   0  0  0  0  0  0
  -30.7415  -20.1968   19.5658 H   0  0  0  0  0  0
  -26.4783  -23.1922   21.6294 H   0  0  0  0  0  0
  -26.1226  -22.6894   19.9731 H   0  0  0  0  0  0
  -25.8554  -24.3396   20.4734 H   0  0  0  0  0  0
  -29.4548  -25.1555   21.1402 H   0  0  0  0  0  0
  -27.8741  -25.3816   21.7686 H   0  0  0  0  0  0
  -27.9757  -24.0238   19.0953 H   0  0  0  0  0  0
  -32.8288  -18.7712   20.6890 H   0  0  0  0  0  0
  -33.7181  -18.0615   19.3642 H   0  0  0  0  0  0
  -27.3881  -21.4202   20.7551 H   0  0  0  0  0  0
  -28.9076  -15.2450   21.2521 H   0  0  0  0  0  0
  1 25  1  0  0  0
  1 30  2  0  0  0
  1 84  1  0  0  0
  2  3  1  0  0  0
  2 25  1  0  0  0
  2 87  1  0  0  0
  2 88  1  0  0  0
  3  4  1  0  0  0
  3 89  1  0  0  0
  3 90  1  0  0  0
  4  5  1  0  0  0
  4 91  1  0  0  0
  4 92  1  0  0  0
  5  6  1  0  0  0
  5 26  1  0  0  0
  5 93  1  0  0  0
  6 25  1  0  0  0
  6 94  1  0  0  0
  6 95  1  0  0  0
  7  8  2  0  0  0
  7 26  1  0  0  0
  7 29  1  0  0  0
  8  9  1  0  0  0
  8 22  1  0  0  0
  9 10  1  0  0  0
  9 27  2  0  0  0
 10 11  2  0  0  0
 10 15  1  0  0  0
 11 12  1  0  0  0
 11 96  1  0  0  0
 12 13  2  0  0  0
 12 97  1  0  0  0
 13 14  1  0  0  0
 13 31  1  0  0  0
 14 15  2  0  0  0
 14 98  1  0  0  0
 15 99  1  0  0  0
 16 17  2  0  0  0
 16 21  1  0  0  0
 16 31  1  0  0  0
 17 18  1  0  0  0
 17100  1  0  0  0
 18 19  2  0  0  0
 18101  1  0  0  0
 19 20  1  0  0  0
 19 24  1  0  0  0
 20 21  2  0  0  0
 20102  1  0  0  0
 21 23  1  0  0  0
 22 28  1  0  0  0
 22 32  2  0  0  0
 26 27  1  0  0  0
 28103  1  0  0  0
 28104  1  0  0  0
 29105  1  0  0  0
 29106  1  0  0  0
 33 34  1  0  0  0
 33 66  1  0  0  0
 33 70  2  0  0  0
 34 36  1  0  0  0
 34 59  1  0  0  0
 34107  1  0  0  0
 35 44  2  0  0  0
 35 45  1  0  0  0
 35 68  1  0  0  0
 36 56  1  0  0  0
 36108  1  0  0  0
 37 39  1  0  0  0
 37 47  1  0  0  0
 37 66  1  0  0  0
 37109  1  0  0  0
 38 43  2  0  0  0
 38 46  1  0  0  0
 38 47  1  0  0  0
 39 64  1  0  0  0
 39 67  2  0  0  0
 40 52  1  0  0  0
 40 53  2  0  0  0
 40 58  1  0  0  0
 41110  1  0  0  0
 41111  1  0  0  0
 41112  1  0  0  0
 41 48  1  0  0  0
 42 43  1  0  0  0
 42 66  1  0  0  0
 42113  1  0  0  0
 42114  1  0  0  0
 43 44  1  0  0  0
 44115  1  0  0  0
 45 46  2  0  0  0
 45116  1  0  0  0
 46117  1  0  0  0
 47118  1  0  0  0
 47119  1  0  0  0
 48 56  1  0  0  0
 48 65  1  0  0  0
 48120  1  0  0  0
 49 50  1  0  0  0
 49 53  1  0  0  0
 49 64  1  0  0  0
 49121  1  0  0  0
 50 51  1  0  0  0
 50122  1  0  0  0
 50123  1  0  0  0
 51 52  1  0  0  0
 51124  1  0  0  0
 51125  1  0  0  0
 52126  1  0  0  0
 52127  1  0  0  0
 53 54  1  0  0  0
 54 55  2  0  0  0
 54128  1  0  0  0
 55 57  1  0  0  0
 55129  1  0  0  0
 56 69  2  0  0  0
 57 58  2  0  0  0
 57130  1  0  0  0
 58131  1  0  0  0
 59 60  1  0  0  0
 59 61  1  0  0  0
 59 62  1  0  0  0
 60132  1  0  0  0
 60133  1  0  0  0
 60134  1  0  0  0
 61135  1  0  0  0
 61136  1  0  0  0
 61137  1  0  0  0
 62138  1  0  0  0
 62139  1  0  0  0
 62140  1  0  0  0
 63 65  1  0  0  0
 63141  1  0  0  0
 63142  1  0  0  0
 63143  1  0  0  0
 64144  1  0  0  0
 65145  1  0  0  0
 68 80  1  0  0  0
 71 72  2  0  0  0
 71 75  1  0  0  0
 71146  1  0  0  0
 72 76  1  0  0  0
 72147  1  0  0  0
 73 74  1  0  0  0
 73 75  2  0  0  0
 73148  1  0  0  0
 74 76  2  0  0  0
 74 77  1  0  0  0
 75 83  1  0  0  0
 76 84  1  0  0  0
 77 82  1  0  0  0
 77 85  2  0  0  0
 78 81  1  0  0  0
 78 83  1  0  0  0
 78 86  2  0  0  0
 79149  1  0  0  0
 79150  1  0  0  0
 79151  1  0  0  0
 79 81  1  0  0  0
 80 81  1  0  0  0
 80152  1  0  0  0
 80153  1  0  0  0
 81154  1  0  0  0
 82155  1  0  0  0
 82156  1  0  0  0
 83157  1  0  0  0
 84158  1  0  0  0
M  ISO  4   1 100  68 101  80 101  84 100
M  END
> <chiral flag>
0

> <version>
0

> <s_m_source_file>
/data/baiqing/PycharmProjects/Reinvent-master-3.2/result/LINK_invent/BTK/process_docking_weight1_custom_product_contain_oxygen_bond_distance_aromatic_linkinvent_7_9_3/rearranged_h_0092.sdf

> <i_m_source_file_index>
68

> <r_mmod_Potential_Energy-OPLS-2005>
-12.1353483200073

> <r_mmod_Stretch_Energy-OPLS-2005>
84.7974853515625

> <r_mmod_Bend_Energy-OPLS-2005>
193.139511108398

> <r_mmod_Torsional_Energy-OPLS-2005>
284.85791015625

> <r_mmod_Improper_Torsional_Energy-OPLS-2005>
4.32241678237915

> <r_mmod_Van_der_Waal_Energy-OPLS-2005>
136.348083496094

> <r_mmod_Electrostatic_Energy-OPLS-2005>
-486.01708984375

> <r_mmod_Solvation_Energy-OPLS-2005>
-273.943481445312

> <b_mmod_Minimization_Converged-OPLS-2005>
0

> <r_mmod_RMS_Derivative-OPLS-2005>
0.961509883403778

$$$$
68
                    3D
 Structure written by MMmdl.
164173  0  0  1  0            999 V2000
  -30.5802  -14.6500   20.4988 C   0  0  0  0  0  0
  -30.4459  -12.3915   19.4624 C   0  0  0  0  0  0
  -29.5173  -12.4962   18.2296 C   0  0  0  0  0  0
  -28.0374  -12.3301   18.6356 C   0  0  0  0  0  0
  -27.6533  -13.2023   19.8604 C   0  0  2  0  0  0
  -28.6929  -13.0359   20.9921 C   0  0  0  0  0  0
  -25.2584  -13.8140   20.5648 C   0  0  0  0  0  0
  -24.1832  -13.0436   20.9188 C   0  0  0  0  0  0
  -24.6362  -11.6895   20.8714 C   0  0  0  0  0  0
  -23.9017  -10.4296   21.0384 C   0  0  0  0  0  0
  -24.3578   -9.4213   21.9162 C   0  0  0  0  0  0
  -23.6263   -8.2253   22.0747 C   0  0  0  0  0  0
  -22.4249   -8.0288   21.3548 C   0  0  0  0  0  0
  -21.9870   -9.0251   20.4646 C   0  0  0  0  0  0
  -22.7189  -10.2131   20.3047 C   0  0  0  0  0  0
  -21.6853   -6.0725   22.5267 C   0  0  0  0  0  0
  -21.4014   -6.5623   23.8203 C   0  0  0  0  0  0
  -21.3659   -5.6777   24.9164 C   0  0  0  0  0  0
  -21.6043   -4.3038   24.7212 C   0  0  0  0  0  0
  -21.8826   -3.8133   23.4336 C   0  0  0  0  0  0
  -21.9193   -4.6952   22.3392 C   0  0  0  0  0  0
  -22.7868  -13.5267   21.1850 C   0  0  0  0  0  0
  -22.1662   -4.2141   21.0967 F   0  0  0  0  0  0
  -21.5626   -3.4517   25.7723 F   0  0  0  0  0  0
  -30.0075  -13.4048   20.4419 N   0  0  0  0  0  0
  -26.2969  -12.9275   20.3247 N   0  0  0  0  0  0
  -25.9282  -11.6457   20.5700 N   0  0  0  0  0  0
  -22.0486  -12.8289   22.0396 N   0  0  0  0  0  0
  -25.4366  -15.1851   20.4060 N   0  0  0  0  0  0
  -31.7345  -14.8332   20.1017 O   0  0  0  0  0  0
  -21.6643   -6.8867   21.4231 O   0  0  0  0  0  0
  -22.3565  -14.5569   20.6660 O   0  0  0  0  0  0
  -24.6277  -31.8573   23.2005 C   0  0  0  0  0  0
  -25.9126  -32.4755   23.8327 C   0  0  1  0  0  0
  -27.2234  -27.3066   20.1076 C   0  0  0  0  0  0
  -25.5936  -33.8557   24.2262 N   0  0  0  0  0  0
  -23.4217  -30.4808   21.5433 C   0  0  2  0  0  0
  -24.8680  -28.9364   20.1059 C   0  0  0  0  0  0
  -22.7470  -29.4620   22.4923 C   0  0  0  0  0  0
  -18.0292  -28.1388   22.8494 C   0  0  0  0  0  0
  -24.1492  -36.7282   23.2633 C   0  0  0  0  0  0
  -25.9633  -30.7825   21.3751 C   0  0  0  0  0  0
  -26.0350  -29.4086   20.7176 C   0  0  0  0  0  0
  -27.2107  -28.6004   20.7204 C   0  0  0  0  0  0
  -26.0344  -26.8923   19.4762 C   0  0  0  0  0  0
  -24.8687  -27.6802   19.4810 C   0  0  0  0  0  0
  -23.6359  -29.8153   20.1578 C   0  0  0  0  0  0
  -25.4114  -36.3065   24.0324 C   0  0  1  0  0  0
  -20.5887  -28.3700   23.1277 C   0  0  2  0  0  0
  -20.6783  -26.9421   22.5406 C   0  0  0  0  0  0
  -19.5757  -26.6391   21.5212 C   0  0  0  0  0  0
  -18.1939  -26.7939   22.1620 C   0  0  0  0  0  0
  -19.1541  -28.8860   23.2881 C   0  0  0  0  0  0
  -18.9468  -30.1464   23.8903 C   0  0  0  0  0  0
  -17.6467  -30.6592   24.0573 C   0  0  0  0  0  0
  -25.9055  -34.9435   23.5092 C   0  0  0  0  0  0
  -16.5357  -29.9095   23.6337 C   0  0  0  0  0  0
  -16.7276  -28.6506   23.0363 C   0  0  0  0  0  0
  -26.4510  -31.6574   25.0704 C   0  0  0  0  0  0
  -25.3758  -31.3732   26.1439 C   0  0  0  0  0  0
  -27.0355  -30.2996   24.6171 C   0  0  0  0  0  0
  -27.6072  -32.4310   25.7462 C   0  0  0  0  0  0
  -27.5580  -37.1785   24.8458 C   0  0  0  0  0  0
  -21.4180  -29.3047   22.3660 N   0  0  0  0  0  0
  -26.4286  -37.3766   23.9406 N   0  0  0  0  0  0
  -24.6896  -31.0568   22.0967 N   0  0  0  0  0  0
  -23.4180  -28.8157   23.3018 O   0  0  0  0  0  0
  -28.3297  -26.4481   20.2189 O   0  0  0  0  0  0
  -26.5626  -34.8913   22.4659 O   0  0  0  0  0  0
  -23.5439  -32.1380   23.7327 O   0  0  0  0  0  0
  -28.3356  -17.6716   21.0131 C   0  0  0  0  0  0
  -30.2199  -19.4082   19.9462 C   0  0  0  0  0  0
  -28.0017  -19.0406   20.7948 C   0  0  0  0  0  0
  -28.9355  -19.9606   20.2248 C   0  0  0  0  0  0
  -29.5920  -17.1019   20.6797 C   0  0  0  0  0  0
  -30.5495  -18.0260   20.1614 C   0  0  0  0  0  0
  -26.9877  -23.5331   18.6981 C   0  0  0  0  0  0
  -28.0416  -23.8456   19.4856 C   0  0  0  0  0  0
  -26.5422  -22.1554   18.5269 C   0  0  0  0  0  0
  -27.6392  -21.1001   18.5719 C   0  0  0  0  0  0
  -28.7948  -22.6573   20.2528 C   0  0  2  0  0  0
  -26.5774  -19.4615   21.1298 C   0  0  0  0  0  0
  -30.3037  -22.9023   20.4032 C   0  0  0  0  0  0
  -28.6156  -25.3177   19.3050 C   0  0  0  0  0  0
  -28.5280  -21.2557   19.7263 N   0  0  0  0  0  0
  -31.8312  -17.5906   19.8358 N   0  0  0  0  0  0
  -29.7339  -15.6534   20.9059 N   0  0  0  0  0  0
  -25.3694  -21.8376   18.3202 O   0  0  0  0  0  0
  -31.4877  -12.5264   19.1666 H   0  0  0  0  0  0
  -30.3904  -11.3946   19.9025 H   0  0  0  0  0  0
  -29.7850  -11.7404   17.4920 H   0  0  0  0  0  0
  -29.6625  -13.4625   17.7422 H   0  0  0  0  0  0
  -27.8777  -11.2749   18.8680 H   0  0  0  0  0  0
  -27.3897  -12.5514   17.7870 H   0  0  0  0  0  0
  -27.6764  -14.2382   19.5222 H   0  0  0  0  0  0
  -28.7083  -11.9984   21.3320 H   0  0  0  0  0  0
  -28.4292  -13.6270   21.8690 H   0  0  0  0  0  0
  -25.2726   -9.5685   22.4725 H   0  0  0  0  0  0
  -23.9980   -7.4643   22.7457 H   0  0  0  0  0  0
  -21.0809   -8.8746   19.8951 H   0  0  0  0  0  0
  -22.3631  -10.9662   19.6146 H   0  0  0  0  0  0
  -21.2008   -7.6131   23.9699 H   0  0  0  0  0  0
  -21.1472   -6.0508   25.9064 H   0  0  0  0  0  0
  -22.0603   -2.7594   23.2841 H   0  0  0  0  0  0
  -22.4093  -11.9959   22.4832 H   0  0  0  0  0  0
  -21.1086  -13.1313   22.2557 H   0  0  0  0  0  0
  -24.6660  -15.8365   20.5104 H   0  0  0  0  0  0
  -26.2609  -15.6046   19.9970 H   0  0  0  0  0  0
  -26.7186  -32.5429   23.1068 H   0  0  0  0  0  0
  -25.0114  -33.9696   25.0427 H   0  0  0  0  0  0
  -22.7188  -31.3035   21.3980 H   0  0  0  0  0  0
  -23.3749  -35.9619   23.3285 H   0  0  0  0  0  0
  -24.3587  -36.8913   22.2051 H   0  0  0  0  0  0
  -23.7253  -37.6480   23.6667 H   0  0  0  0  0  0
  -26.0964  -31.5447   20.6059 H   0  0  0  0  0  0
  -26.8435  -30.8309   22.0042 H   0  0  0  0  0  0
  -28.1008  -28.9499   21.2249 H   0  0  0  0  0  0
  -25.9604  -25.9292   19.0151 H   0  0  0  0  0  0
  -23.9716  -27.3050   19.0086 H   0  0  0  0  0  0
  -23.7521  -30.5906   19.3998 H   0  0  0  0  0  0
  -22.7566  -29.2432   19.8562 H   0  0  0  0  0  0
  -25.1289  -36.1912   25.0814 H   0  0  0  0  0  0
  -20.9986  -28.3290   24.1396 H   0  0  0  0  0  0
  -20.5698  -26.2309   23.3607 H   0  0  0  0  0  0
  -21.6653  -26.7468   22.1191 H   0  0  0  0  0  0
  -19.6923  -25.6307   21.1236 H   0  0  0  0  0  0
  -19.6693  -27.3208   20.6748 H   0  0  0  0  0  0
  -17.4207  -26.6707   21.4018 H   0  0  0  0  0  0
  -18.0324  -26.0072   22.9001 H   0  0  0  0  0  0
  -19.7941  -30.7282   24.2266 H   0  0  0  0  0  0
  -17.5022  -31.6273   24.5166 H   0  0  0  0  0  0
  -15.5359  -30.2997   23.7656 H   0  0  0  0  0  0
  -15.8677  -28.0824   22.7085 H   0  0  0  0  0  0
  -24.5906  -30.7102   25.7776 H   0  0  0  0  0  0
  -24.8999  -32.2923   26.4871 H   0  0  0  0  0  0
  -25.8097  -30.8892   27.0201 H   0  0  0  0  0  0
  -26.2932  -29.6722   24.1224 H   0  0  0  0  0  0
  -27.4079  -29.7266   25.4672 H   0  0  0  0  0  0
  -27.8786  -30.4260   23.9379 H   0  0  0  0  0  0
  -27.2678  -33.3598   26.2048 H   0  0  0  0  0  0
  -28.3870  -32.6879   25.0285 H   0  0  0  0  0  0
  -28.0748  -31.8436   26.5371 H   0  0  0  0  0  0
  -28.2586  -38.0092   24.7511 H   0  0  0  0  0  0
  -28.1084  -36.2627   24.6261 H   0  0  0  0  0  0
  -27.2305  -37.1405   25.8862 H   0  0  0  0  0  0
  -20.9358  -29.8764   21.6864 H   0  0  0  0  0  0
  -26.0162  -38.2829   24.1430 H   0  0  0  0  0  0
  -27.5721  -17.0250   21.4246 H   0  0  0  0  0  0
  -30.9608  -20.0572   19.5015 H   0  0  0  0  0  0
  -26.5152  -24.2545   18.0532 H   0  0  0  0  0  0
  -28.2344  -21.1924   17.6624 H   0  0  0  0  0  0
  -27.1746  -20.1138   18.5396 H   0  0  0  0  0  0
  -28.3808  -22.6769   21.2624 H   0  0  0  0  0  0
  -26.2309  -18.9691   22.0380 H   0  0  0  0  0  0
  -25.9014  -19.1761   20.3233 H   0  0  0  0  0  0
  -26.4902  -20.5369   21.2816 H   0  0  0  0  0  0
  -30.8151  -22.9207   19.4403 H   0  0  0  0  0  0
  -30.7726  -22.1335   21.0177 H   0  0  0  0  0  0
  -30.4959  -23.8521   20.9051 H   0  0  0  0  0  0
  -28.3303  -25.6566   18.3073 H   0  0  0  0  0  0
  -29.6994  -25.2392   19.2345 H   0  0  0  0  0  0
  -32.3186  -18.0653   19.0847 H   0  0  0  0  0  0
  -31.9569  -16.5732   19.8141 H   0  0  0  0  0  0
  -28.8919  -15.2427   21.2774 H   0  0  0  0  0  0
  1 25  1  0  0  0
  1 30  2  0  0  0
  1 87  1  0  0  0
  2  3  1  0  0  0
  2 25  1  0  0  0
  2 89  1  0  0  0
  2 90  1  0  0  0
  3  4  1  0  0  0
  3 91  1  0  0  0
  3 92  1  0  0  0
  4  5  1  0  0  0
  4 93  1  0  0  0
  4 94  1  0  0  0
  5  6  1  0  0  0
  5 26  1  0  0  0
  5 95  1  0  0  0
  6 25  1  0  0  0
  6 96  1  0  0  0
  6 97  1  0  0  0
  7  8  2  0  0  0
  7 26  1  0  0  0
  7 29  1  0  0  0
  8  9  1  0  0  0
  8 22  1  0  0  0
  9 10  1  0  0  0
  9 27  2  0  0  0
 10 11  2  0  0  0
 10 15  1  0  0  0
 11 12  1  0  0  0
 11 98  1  0  0  0
 12 13  2  0  0  0
 12 99  1  0  0  0
 13 14  1  0  0  0
 13 31  1  0  0  0
 14 15  2  0  0  0
 14100  1  0  0  0
 15101  1  0  0  0
 16 17  2  0  0  0
 16 21  1  0  0  0
 16 31  1  0  0  0
 17 18  1  0  0  0
 17102  1  0  0  0
 18 19  2  0  0  0
 18103  1  0  0  0
 19 20  1  0  0  0
 19 24  1  0  0  0
 20 21  2  0  0  0
 20104  1  0  0  0
 21 23  1  0  0  0
 22 28  1  0  0  0
 22 32  2  0  0  0
 26 27  1  0  0  0
 28105  1  0  0  0
 28106  1  0  0  0
 29107  1  0  0  0
 29108  1  0  0  0
 33 34  1  0  0  0
 33 66  1  0  0  0
 33 70  2  0  0  0
 34 36  1  0  0  0
 34 59  1  0  0  0
 34109  1  0  0  0
 35 44  2  0  0  0
 35 45  1  0  0  0
 35 68  1  0  0  0
 36 56  1  0  0  0
 36110  1  0  0  0
 37 39  1  0  0  0
 37 47  1  0  0  0
 37 66  1  0  0  0
 37111  1  0  0  0
 38 43  2  0  0  0
 38 46  1  0  0  0
 38 47  1  0  0  0
 39 64  1  0  0  0
 39 67  2  0  0  0
 40 52  1  0  0  0
 40 53  2  0  0  0
 40 58  1  0  0  0
 41112  1  0  0  0
 41113  1  0  0  0
 41114  1  0  0  0
 41 48  1  0  0  0
 42 43  1  0  0  0
 42 66  1  0  0  0
 42115  1  0  0  0
 42116  1  0  0  0
 43 44  1  0  0  0
 44117  1  0  0  0
 45 46  2  0  0  0
 45118  1  0  0  0
 46119  1  0  0  0
 47120  1  0  0  0
 47121  1  0  0  0
 48 56  1  0  0  0
 48 65  1  0  0  0
 48122  1  0  0  0
 49 50  1  0  0  0
 49 53  1  0  0  0
 49 64  1  0  0  0
 49123  1  0  0  0
 50 51  1  0  0  0
 50124  1  0  0  0
 50125  1  0  0  0
 51 52  1  0  0  0
 51126  1  0  0  0
 51127  1  0  0  0
 52128  1  0  0  0
 52129  1  0  0  0
 53 54  1  0  0  0
 54 55  2  0  0  0
 54130  1  0  0  0
 55 57  1  0  0  0
 55131  1  0  0  0
 56 69  2  0  0  0
 57 58  2  0  0  0
 57132  1  0  0  0
 58133  1  0  0  0
 59 60  1  0  0  0
 59 61  1  0  0  0
 59 62  1  0  0  0
 60134  1  0  0  0
 60135  1  0  0  0
 60136  1  0  0  0
 61137  1  0  0  0
 61138  1  0  0  0
 61139  1  0  0  0
 62140  1  0  0  0
 62141  1  0  0  0
 62142  1  0  0  0
 63 65  1  0  0  0
 63143  1  0  0  0
 63144  1  0  0  0
 63145  1  0  0  0
 64146  1  0  0  0
 65147  1  0  0  0
 68 84  1  0  0  0
 71 73  2  0  0  0
 71 75  1  0  0  0
 71148  1  0  0  0
 72 74  2  0  0  0
 72 76  1  0  0  0
 72149  1  0  0  0
 73 74  1  0  0  0
 73 82  1  0  0  0
 74 85  1  0  0  0
 75 76  2  0  0  0
 75 87  1  0  0  0
 76 86  1  0  0  0
 77 78  2  0  0  0
 77 79  1  0  0  0
 77150  1  0  0  0
 78 81  1  0  0  0
 78 84  1  0  0  0
 79 80  1  0  0  0
 79 88  2  0  0  0
 80 85  1  0  0  0
 80151  1  0  0  0
 80152  1  0  0  0
 81 83  1  0  0  0
 81 85  1  0  0  0
 81153  1  0  0  0
 82154  1  0  0  0
 82155  1  0  0  0
 82156  1  0  0  0
 83157  1  0  0  0
 83158  1  0  0  0
 83159  1  0  0  0
 84160  1  0  0  0
 84161  1  0  0  0
 86162  1  0  0  0
 86163  1  0  0  0
 87164  1  0  0  0
M  ISO  4   1 100  68 101  84 101  87 100
M  END
> <chiral flag>
0

> <version>
0

> <s_m_source_file>
/data/baiqing/PycharmProjects/Reinvent-master-3.2/result/LINK_invent/BTK/process_docking_weight1_custom_product_contain_oxygen_bond_distance_aromatic_linkinvent_7_9_3/rearranged_h_0092.sdf

> <i_m_source_file_index>
69

> <r_mmod_Potential_Energy-OPLS-2005>
100.717903137207

> <r_mmod_Stretch_Energy-OPLS-2005>
99.9349212646484

> <r_mmod_Bend_Energy-OPLS-2005>
215.982604980469

> <r_mmod_Torsional_Energy-OPLS-2005>
265.349609375

> <r_mmod_Improper_Torsional_Energy-OPLS-2005>
10.8767166137695

> <r_mmod_Van_der_Waal_Energy-OPLS-2005>
157.240509033203

> <r_mmod_Electrostatic_Energy-OPLS-2005>
-481.396423339844

> <r_mmod_Solvation_Energy-OPLS-2005>
-223.443756103516

> <b_mmod_Minimization_Converged-OPLS-2005>
0

> <r_mmod_RMS_Derivative-OPLS-2005>
3.11567568778992

$$$$
69
                    3D
 Structure written by MMmdl.
156164  0  0  1  0            999 V2000
  -30.7796  -14.4189   20.6163 C   0  0  0  0  0  0
  -30.4002  -12.2985   19.4144 C   0  0  0  0  0  0
  -29.4809  -12.5049   18.1982 C   0  0  0  0  0  0
  -28.0059  -12.3655   18.6169 C   0  0  0  0  0  0
  -27.6553  -13.2148   19.8685 C   0  0  2  0  0  0
  -28.6993  -13.0252   20.9916 C   0  0  0  0  0  0
  -25.2560  -13.8181   20.5692 C   0  0  0  0  0  0
  -24.1822  -13.0446   20.9185 C   0  0  0  0  0  0
  -24.6385  -11.6916   20.8733 C   0  0  0  0  0  0
  -23.9056  -10.4298   21.0396 C   0  0  0  0  0  0
  -24.3610   -9.4214   21.9175 C   0  0  0  0  0  0
  -23.6289   -8.2248   22.0749 C   0  0  0  0  0  0
  -22.4270   -8.0282   21.3545 C   0  0  0  0  0  0
  -21.9900   -9.0253   20.4646 C   0  0  0  0  0  0
  -22.7226  -10.2133   20.3052 C   0  0  0  0  0  0
  -21.6855   -6.0733   22.5278 C   0  0  0  0  0  0
  -21.4017   -6.5638   23.8211 C   0  0  0  0  0  0
  -21.3657   -5.6792   24.9173 C   0  0  0  0  0  0
  -21.6044   -4.3054   24.7226 C   0  0  0  0  0  0
  -21.8817   -3.8147   23.4346 C   0  0  0  0  0  0
  -21.9195   -4.6962   22.3401 C   0  0  0  0  0  0
  -22.7846  -13.5240   21.1851 C   0  0  0  0  0  0
  -22.1665   -4.2147   21.0980 F   0  0  0  0  0  0
  -21.5625   -3.4540   25.7739 F   0  0  0  0  0  0
  -30.0267  -13.3027   20.4233 N   0  0  0  0  0  0
  -26.2995  -12.9365   20.3357 N   0  0  0  0  0  0
  -25.9314  -11.6515   20.5764 N   0  0  0  0  0  0
  -22.0493  -12.8228   22.0406 N   0  0  0  0  0  0
  -25.4278  -15.1897   20.4103 N   0  0  0  0  0  0
  -31.9066  -14.5269   20.1239 O   0  0  0  0  0  0
  -21.6642   -6.8875   21.4240 O   0  0  0  0  0  0
  -22.3529  -14.5548   20.6704 O   0  0  0  0  0  0
  -24.6145  -31.8702   23.2130 C   0  0  0  0  0  0
  -25.9045  -32.4833   23.8415 C   0  0  1  0  0  0
  -27.2211  -27.4349   20.0861 C   0  0  0  0  0  0
  -25.5903  -33.8629   24.2343 N   0  0  0  0  0  0
  -23.4004  -30.4977   21.5543 C   0  0  2  0  0  0
  -24.8422  -28.9725   20.1111 C   0  0  0  0  0  0
  -22.7409  -29.4673   22.4994 C   0  0  0  0  0  0
  -18.0275  -28.1373   22.8492 C   0  0  0  0  0  0
  -24.1484  -36.7321   23.2638 C   0  0  0  0  0  0
  -25.9312  -30.8354   21.3672 C   0  0  0  0  0  0
  -26.0047  -29.4721   20.7106 C   0  0  0  0  0  0
  -27.1961  -28.7102   20.6979 C   0  0  0  0  0  0
  -26.0384  -26.9645   19.4622 C   0  0  0  0  0  0
  -24.8543  -27.7181   19.4844 C   0  0  0  0  0  0
  -23.6065  -29.8396   20.1655 C   0  0  0  0  0  0
  -25.4105  -36.3118   24.0338 C   0  0  1  0  0  0
  -20.5864  -28.3658   23.1317 C   0  0  2  0  0  0
  -20.6763  -26.9397   22.5412 C   0  0  0  0  0  0
  -19.5740  -26.6387   21.5207 C   0  0  0  0  0  0
  -18.1924  -26.7918   22.1629 C   0  0  0  0  0  0
  -19.1523  -28.8832   23.2903 C   0  0  0  0  0  0
  -18.9451  -30.1437   23.8917 C   0  0  0  0  0  0
  -17.6455  -30.6577   24.0569 C   0  0  0  0  0  0
  -25.9032  -34.9480   23.5137 C   0  0  0  0  0  0
  -16.5347  -29.9085   23.6320 C   0  0  0  0  0  0
  -16.7264  -28.6502   23.0341 C   0  0  0  0  0  0
  -26.4470  -31.6605   25.0736 C   0  0  0  0  0  0
  -25.3744  -31.3716   26.1494 C   0  0  0  0  0  0
  -27.0287  -30.3045   24.6103 C   0  0  0  0  0  0
  -27.6057  -32.4315   25.7487 C   0  0  0  0  0  0
  -27.5573  -37.1825   24.8471 C   0  0  0  0  0  0
  -21.4140  -29.3032   22.3729 N   0  0  0  0  0  0
  -26.4297  -37.3795   23.9398 N   0  0  0  0  0  0
  -24.6671  -31.0814   22.1030 N   0  0  0  0  0  0
  -23.4191  -28.8208   23.3023 O   0  0  0  0  0  0
  -28.3824  -26.6856   20.1236 O   0  0  0  0  0  0
  -26.5593  -34.8927   22.4697 O   0  0  0  0  0  0
  -23.5339  -32.1456   23.7529 O   0  0  0  0  0  0
  -30.4046  -18.8061   22.6401 C   0  0  0  0  0  0
  -29.3318  -19.7838   20.2482 C   0  0  0  0  0  0
  -30.2289  -17.9087   21.5624 C   0  0  0  0  0  0
  -30.0884  -20.1721   22.5225 C   0  0  0  0  0  0
  -29.6502  -18.4094   20.3560 C   0  0  0  0  0  0
  -29.5982  -20.6883   21.3051 C   0  0  0  0  0  0
  -30.8456  -16.5333   21.7041 C   0  0  0  0  0  0
  -29.2925  -24.4072   20.4971 C   0  0  0  0  0  0
  -29.2028  -22.8950   20.1536 C   0  0  0  0  0  0
  -28.2423  -25.2874   19.8089 C   0  0  0  0  0  0
  -30.3013  -21.0187   23.6114 N   0  0  0  0  0  0
  -29.4215  -17.6264   19.2177 N   0  0  0  0  0  0
  -29.4614  -22.1082   21.2148 N   0  0  0  0  0  0
  -30.1817  -15.4629   21.2228 N   0  0  0  0  0  0
  -31.9412  -16.4403   22.2760 O   0  0  0  0  0  0
  -30.1277  -24.8671   21.2884 O   0  0  0  0  0  0
  -28.9006  -22.5021   19.0217 O   0  0  0  0  0  0
  -31.4463  -12.3613   19.1098 H   0  0  0  0  0  0
  -30.2739  -11.2951   19.8237 H   0  0  0  0  0  0
  -29.7177  -11.7813   17.4170 H   0  0  0  0  0  0
  -29.6520  -13.4923   17.7658 H   0  0  0  0  0  0
  -27.8197  -11.3106   18.8210 H   0  0  0  0  0  0
  -27.3520  -12.6336   17.7863 H   0  0  0  0  0  0
  -27.6920  -14.2590   19.5570 H   0  0  0  0  0  0
  -28.6707  -12.0028   21.3709 H   0  0  0  0  0  0
  -28.4673  -13.6629   21.8457 H   0  0  0  0  0  0
  -25.2751   -9.5694   22.4753 H   0  0  0  0  0  0
  -24.0001   -7.4637   22.7465 H   0  0  0  0  0  0
  -21.0832   -8.8766   19.8952 H   0  0  0  0  0  0
  -22.3674  -10.9672   19.6167 H   0  0  0  0  0  0
  -21.2010   -7.6145   23.9712 H   0  0  0  0  0  0
  -21.1481   -6.0524   25.9075 H   0  0  0  0  0  0
  -22.0598   -2.7610   23.2850 H   0  0  0  0  0  0
  -22.4117  -11.9886   22.4781 H   0  0  0  0  0  0
  -21.1113  -13.1250   22.2626 H   0  0  0  0  0  0
  -24.6605  -15.8447   20.5125 H   0  0  0  0  0  0
  -26.2799  -15.6290   20.0831 H   0  0  0  0  0  0
  -26.7116  -32.5540   23.1178 H   0  0  0  0  0  0
  -25.0051  -33.9795   25.0486 H   0  0  0  0  0  0
  -22.6883  -31.3147   21.4210 H   0  0  0  0  0  0
  -23.3726  -35.9678   23.3350 H   0  0  0  0  0  0
  -24.3568  -36.8882   22.2041 H   0  0  0  0  0  0
  -23.7265  -37.6555   23.6616 H   0  0  0  0  0  0
  -26.0458  -31.6034   20.6009 H   0  0  0  0  0  0
  -26.8189  -30.8849   21.9859 H   0  0  0  0  0  0
  -28.0914  -29.0904   21.1698 H   0  0  0  0  0  0
  -25.9968  -26.0187   18.9426 H   0  0  0  0  0  0
  -23.9633  -27.3333   19.0074 H   0  0  0  0  0  0
  -23.7176  -30.6194   19.4110 H   0  0  0  0  0  0
  -22.7286  -29.2643   19.8655 H   0  0  0  0  0  0
  -25.1282  -36.1994   25.0833 H   0  0  0  0  0  0
  -20.9956  -28.3217   24.1438 H   0  0  0  0  0  0
  -20.5662  -26.2266   23.3595 H   0  0  0  0  0  0
  -21.6635  -26.7441   22.1205 H   0  0  0  0  0  0
  -19.6902  -25.6305   21.1219 H   0  0  0  0  0  0
  -19.6669  -27.3213   20.6748 H   0  0  0  0  0  0
  -17.4185  -26.6650   21.4044 H   0  0  0  0  0  0
  -18.0344  -26.0061   22.9030 H   0  0  0  0  0  0
  -19.7927  -30.7245   24.2300 H   0  0  0  0  0  0
  -17.5010  -31.6255   24.5176 H   0  0  0  0  0  0
  -15.5348  -30.2996   23.7629 H   0  0  0  0  0  0
  -15.8663  -28.0828   22.7046 H   0  0  0  0  0  0
  -24.5880  -30.7108   25.7830 H   0  0  0  0  0  0
  -24.8982  -32.2879   26.4993 H   0  0  0  0  0  0
  -25.8098  -30.8833   27.0221 H   0  0  0  0  0  0
  -26.2822  -29.6820   24.1154 H   0  0  0  0  0  0
  -27.4054  -29.7268   25.4554 H   0  0  0  0  0  0
  -27.8664  -30.4361   23.9250 H   0  0  0  0  0  0
  -27.2687  -33.3604   26.2100 H   0  0  0  0  0  0
  -28.3842  -32.6894   25.0294 H   0  0  0  0  0  0
  -28.0753  -31.8417   26.5370 H   0  0  0  0  0  0
  -28.2632  -38.0080   24.7462 H   0  0  0  0  0  0
  -28.1026  -36.2612   24.6366 H   0  0  0  0  0  0
  -27.2286  -37.1566   25.8875 H   0  0  0  0  0  0
  -20.9298  -29.8760   21.6958 H   0  0  0  0  0  0
  -26.0191  -38.2883   24.1365 H   0  0  0  0  0  0
  -30.8423  -18.4405   23.5590 H   0  0  0  0  0  0
  -28.9267  -20.1408   19.3146 H   0  0  0  0  0  0
  -27.2839  -24.9020   20.1571 H   0  0  0  0  0  0
  -28.2905  -25.1448   18.7292 H   0  0  0  0  0  0
  -30.5443  -20.5656   24.4865 H   0  0  0  0  0  0
  -29.5923  -21.7256   23.7729 H   0  0  0  0  0  0
  -29.1916  -18.1098   18.3545 H   0  0  0  0  0  0
  -30.0187  -16.8262   19.0430 H   0  0  0  0  0  0
  -29.7340  -22.6087   22.0503 H   0  0  0  0  0  0
  -29.1794  -15.5214   21.1619 H   0  0  0  0  0  0
  1 25  1  0  0  0
  1 30  2  0  0  0
  1 84  1  0  0  0
  2  3  1  0  0  0
  2 25  1  0  0  0
  2 88  1  0  0  0
  2 89  1  0  0  0
  3  4  1  0  0  0
  3 90  1  0  0  0
  3 91  1  0  0  0
  4  5  1  0  0  0
  4 92  1  0  0  0
  4 93  1  0  0  0
  5  6  1  0  0  0
  5 26  1  0  0  0
  5 94  1  0  0  0
  6 25  1  0  0  0
  6 95  1  0  0  0
  6 96  1  0  0  0
  7  8  2  0  0  0
  7 26  1  0  0  0
  7 29  1  0  0  0
  8  9  1  0  0  0
  8 22  1  0  0  0
  9 10  1  0  0  0
  9 27  2  0  0  0
 10 11  2  0  0  0
 10 15  1  0  0  0
 11 12  1  0  0  0
 11 97  1  0  0  0
 12 13  2  0  0  0
 12 98  1  0  0  0
 13 14  1  0  0  0
 13 31  1  0  0  0
 14 15  2  0  0  0
 14 99  1  0  0  0
 15100  1  0  0  0
 16 17  2  0  0  0
 16 21  1  0  0  0
 16 31  1  0  0  0
 17 18  1  0  0  0
 17101  1  0  0  0
 18 19  2  0  0  0
 18102  1  0  0  0
 19 20  1  0  0  0
 19 24  1  0  0  0
 20 21  2  0  0  0
 20103  1  0  0  0
 21 23  1  0  0  0
 22 28  1  0  0  0
 22 32  2  0  0  0
 26 27  1  0  0  0
 28104  1  0  0  0
 28105  1  0  0  0
 29106  1  0  0  0
 29107  1  0  0  0
 33 34  1  0  0  0
 33 66  1  0  0  0
 33 70  2  0  0  0
 34 36  1  0  0  0
 34 59  1  0  0  0
 34108  1  0  0  0
 35 44  2  0  0  0
 35 45  1  0  0  0
 35 68  1  0  0  0
 36 56  1  0  0  0
 36109  1  0  0  0
 37 39  1  0  0  0
 37 47  1  0  0  0
 37 66  1  0  0  0
 37110  1  0  0  0
 38 43  2  0  0  0
 38 46  1  0  0  0
 38 47  1  0  0  0
 39 64  1  0  0  0
 39 67  2  0  0  0
 40 52  1  0  0  0
 40 53  2  0  0  0
 40 58  1  0  0  0
 41111  1  0  0  0
 41112  1  0  0  0
 41113  1  0  0  0
 41 48  1  0  0  0
 42 43  1  0  0  0
 42 66  1  0  0  0
 42114  1  0  0  0
 42115  1  0  0  0
 43 44  1  0  0  0
 44116  1  0  0  0
 45 46  2  0  0  0
 45117  1  0  0  0
 46118  1  0  0  0
 47119  1  0  0  0
 47120  1  0  0  0
 48 56  1  0  0  0
 48 65  1  0  0  0
 48121  1  0  0  0
 49 50  1  0  0  0
 49 53  1  0  0  0
 49 64  1  0  0  0
 49122  1  0  0  0
 50 51  1  0  0  0
 50123  1  0  0  0
 50124  1  0  0  0
 51 52  1  0  0  0
 51125  1  0  0  0
 51126  1  0  0  0
 52127  1  0  0  0
 52128  1  0  0  0
 53 54  1  0  0  0
 54 55  2  0  0  0
 54129  1  0  0  0
 55 57  1  0  0  0
 55130  1  0  0  0
 56 69  2  0  0  0
 57 58  2  0  0  0
 57131  1  0  0  0
 58132  1  0  0  0
 59 60  1  0  0  0
 59 61  1  0  0  0
 59 62  1  0  0  0
 60133  1  0  0  0
 60134  1  0  0  0
 60135  1  0  0  0
 61136  1  0  0  0
 61137  1  0  0  0
 61138  1  0  0  0
 62139  1  0  0  0
 62140  1  0  0  0
 62141  1  0  0  0
 63 65  1  0  0  0
 63142  1  0  0  0
 63143  1  0  0  0
 63144  1  0  0  0
 64145  1  0  0  0
 65146  1  0  0  0
 68 80  1  0  0  0
 71 73  2  0  0  0
 71 74  1  0  0  0
 71147  1  0  0  0
 72 75  2  0  0  0
 72 76  1  0  0  0
 72148  1  0  0  0
 73 75  1  0  0  0
 73 77  1  0  0  0
 74 76  2  0  0  0
 74 81  1  0  0  0
 75 82  1  0  0  0
 76 83  1  0  0  0
 77 84  1  0  0  0
 77 85  2  0  0  0
 78 79  1  0  0  0
 78 80  1  0  0  0
 78 86  2  0  0  0
 79 83  1  0  0  0
 79 87  2  0  0  0
 80149  1  0  0  0
 80150  1  0  0  0
 81151  1  0  0  0
 81152  1  0  0  0
 82153  1  0  0  0
 82154  1  0  0  0
 83155  1  0  0  0
 84156  1  0  0  0
M  ISO  4   1 100  68 101  80 101  84 100
M  END
> <chiral flag>
0

> <version>
0

> <s_m_source_file>
/data/baiqing/PycharmProjects/Reinvent-master-3.2/result/LINK_invent/BTK/process_docking_weight1_custom_product_contain_oxygen_bond_distance_aromatic_linkinvent_7_9_3/rearranged_h_0092.sdf

> <i_m_source_file_index>
70

> <r_mmod_Potential_Energy-OPLS-2005>
-75.5207443237305

> <r_mmod_Stretch_Energy-OPLS-2005>
38.6389312744141

> <r_mmod_Bend_Energy-OPLS-2005>
112.650146484375

> <r_mmod_Torsional_Energy-OPLS-2005>
268.924102783203

> <r_mmod_Improper_Torsional_Energy-OPLS-2005>
13.2264614105225

> <r_mmod_Van_der_Waal_Energy-OPLS-2005>
180.093688964844

> <r_mmod_Electrostatic_Energy-OPLS-2005>
-446.421173095703

> <r_mmod_Solvation_Energy-OPLS-2005>
-258.721221923828

> <b_mmod_Minimization_Converged-OPLS-2005>
0

> <r_mmod_RMS_Derivative-OPLS-2005>
0.625967919826508

$$$$
70
                    3D
 Structure written by MMmdl.
158167  0  0  1  0            999 V2000
  -30.5083  -15.1252   20.3636 C   0  0  0  0  0  0
  -30.4254  -12.7070   19.5235 C   0  0  0  0  0  0
  -29.5247  -12.5445   18.2758 C   0  0  0  0  0  0
  -28.0649  -12.3067   18.6986 C   0  0  0  0  0  0
  -27.6136  -13.2695   19.8264 C   0  0  2  0  0  0
  -28.6483  -13.3981   20.9636 C   0  0  0  0  0  0
  -25.2394  -13.8264   20.5737 C   0  0  0  0  0  0
  -24.1732  -13.0461   20.9263 C   0  0  0  0  0  0
  -24.6377  -11.6955   20.8769 C   0  0  0  0  0  0
  -23.9083  -10.4308   21.0400 C   0  0  0  0  0  0
  -24.3627   -9.4225   21.9179 C   0  0  0  0  0  0
  -23.6302   -8.2257   22.0745 C   0  0  0  0  0  0
  -22.4294   -8.0282   21.3527 C   0  0  0  0  0  0
  -21.9928   -9.0265   20.4638 C   0  0  0  0  0  0
  -22.7257  -10.2148   20.3051 C   0  0  0  0  0  0
  -21.6866   -6.0749   22.5272 C   0  0  0  0  0  0
  -21.4029   -6.5645   23.8210 C   0  0  0  0  0  0
  -21.3660   -5.6788   24.9161 C   0  0  0  0  0  0
  -21.6041   -4.3053   24.7213 C   0  0  0  0  0  0
  -21.8816   -3.8152   23.4333 C   0  0  0  0  0  0
  -21.9193   -4.6971   22.3394 C   0  0  0  0  0  0
  -22.7752  -13.5213   21.1899 C   0  0  0  0  0  0
  -22.1656   -4.2162   21.0971 F   0  0  0  0  0  0
  -21.5626   -3.4530   25.7722 F   0  0  0  0  0  0
  -29.8979  -13.8528   20.3422 N   0  0  0  0  0  0
  -26.2806  -12.9519   20.3215 N   0  0  0  0  0  0
  -25.9310  -11.6639   20.5735 N   0  0  0  0  0  0
  -22.0387  -12.8208   22.0437 N   0  0  0  0  0  0
  -25.4063  -15.1994   20.4176 N   0  0  0  0  0  0
  -31.7337  -15.0804   20.1863 O   0  0  0  0  0  0
  -21.6652   -6.8886   21.4232 O   0  0  0  0  0  0
  -22.3441  -14.5510   20.6713 O   0  0  0  0  0  0
  -24.6532  -31.8341   23.1782 C   0  0  0  0  0  0
  -25.9259  -32.4642   23.8219 C   0  0  1  0  0  0
  -27.2181  -27.0340   20.1809 C   0  0  0  0  0  0
  -25.5964  -33.8449   24.2127 N   0  0  0  0  0  0
  -23.4651  -30.4467   21.5246 C   0  0  2  0  0  0
  -24.9199  -28.8529   20.1157 C   0  0  0  0  0  0
  -22.7630  -29.4496   22.4821 C   0  0  0  0  0  0
  -18.0324  -28.1405   22.8468 C   0  0  0  0  0  0
  -24.1488  -36.7229   23.2644 C   0  0  0  0  0  0
  -26.0279  -30.6753   21.3935 C   0  0  0  0  0  0
  -26.1010  -29.2745   20.7421 C   0  0  0  0  0  0
  -27.2524  -28.3813   20.7578 C   0  0  0  0  0  0
  -26.0152  -26.7439   19.5056 C   0  0  0  0  0  0
  -24.8954  -27.6036   19.4781 C   0  0  0  0  0  0
  -23.6981  -29.7617   20.1508 C   0  0  0  0  0  0
  -25.4126  -36.2996   24.0302 C   0  0  1  0  0  0
  -20.5941  -28.3746   23.1199 C   0  0  2  0  0  0
  -20.6800  -26.9433   22.5400 C   0  0  0  0  0  0
  -19.5775  -26.6378   21.5210 C   0  0  0  0  0  0
  -18.1958  -26.7940   22.1620 C   0  0  0  0  0  0
  -19.1580  -28.8896   23.2822 C   0  0  0  0  0  0
  -18.9491  -30.1488   23.8850 C   0  0  0  0  0  0
  -17.6483  -30.6597   24.0550 C   0  0  0  0  0  0
  -25.9079  -34.9378   23.5027 C   0  0  0  0  0  0
  -16.5378  -29.9074   23.6347 C   0  0  0  0  0  0
  -16.7306  -28.6498   23.0367 C   0  0  0  0  0  0
  -26.4544  -31.6551   25.0706 C   0  0  0  0  0  0
  -25.3698  -31.3788   26.1379 C   0  0  0  0  0  0
  -27.0434  -30.2934   24.6379 C   0  0  0  0  0  0
  -27.6043  -32.4355   25.7506 C   0  0  0  0  0  0
  -27.5566  -37.1767   24.8466 C   0  0  0  0  0  0
  -21.4315  -29.3045   22.3555 N   0  0  0  0  0  0
  -26.4285  -37.3718   23.9400 N   0  0  0  0  0  0
  -24.7355  -31.0104   22.0864 N   0  0  0  0  0  0
  -23.4216  -28.8063   23.3033 O   0  0  0  0  0  0
  -28.2034  -25.9475   20.2103 O   0  0  0  0  0  0
  -26.5676  -34.8899   22.4613 O   0  0  0  0  0  0
  -23.5619  -32.1261   23.6927 O   0  0  0  0  0  0
  -31.5558  -18.1244   17.5384 C   0  0  0  0  0  0
  -30.8595  -17.3243   18.4406 C   0  0  0  0  0  0
  -30.8330  -20.0449   18.7776 C   0  0  0  0  0  0
  -29.9711  -19.3304   19.6720 C   0  0  0  0  0  0
  -31.6013  -19.4895   17.7496 C   0  0  0  0  0  0
  -30.1655  -17.7668   19.6091 C   0  0  0  0  0  0
  -28.1725  -23.1753   20.7613 C   0  0  0  0  0  0
  -27.3727  -22.4187   21.7625 C   0  0  0  0  0  0
  -27.8462  -24.6055   20.7545 C   0  0  0  0  0  0
  -29.1759  -22.0200   20.0962 C   0  0  0  0  0  0
  -26.9390  -20.9804   21.4389 C   0  0  0  0  0  0
  -28.0926  -19.9591   21.2621 C   0  0  0  0  0  0
  -29.1365  -20.4148   20.3514 N   0  0  0  0  0  0
  -32.3651  -20.2952   16.9046 N   0  0  0  0  0  0
  -29.8129  -16.4238   20.3651 N   0  0  0  0  0  0
  -27.0386  -22.8896   22.8567 O   0  0  0  0  0  0
  -31.4573  -12.8660   19.2069 H   0  0  0  0  0  0
  -30.4394  -11.7876   20.1111 H   0  0  0  0  0  0
  -29.8747  -11.7175   17.6571 H   0  0  0  0  0  0
  -29.5878  -13.4399   17.6567 H   0  0  0  0  0  0
  -27.9891  -11.2768   19.0484 H   0  0  0  0  0  0
  -27.4012  -12.3904   17.8371 H   0  0  0  0  0  0
  -27.5457  -14.2491   19.3516 H   0  0  0  0  0  0
  -28.7815  -12.4528   21.4929 H   0  0  0  0  0  0
  -28.3146  -14.1249   21.7057 H   0  0  0  0  0  0
  -25.2755   -9.5726   22.4766 H   0  0  0  0  0  0
  -24.0008   -7.4662   22.7480 H   0  0  0  0  0  0
  -21.0851   -8.8798   19.8955 H   0  0  0  0  0  0
  -22.3699  -10.9692   19.6175 H   0  0  0  0  0  0
  -21.2037   -7.6156   23.9726 H   0  0  0  0  0  0
  -21.1483   -6.0510   25.9068 H   0  0  0  0  0  0
  -22.0595   -2.7618   23.2823 H   0  0  0  0  0  0
  -22.4004  -11.9905   22.4886 H   0  0  0  0  0  0
  -21.0999  -13.1244   22.2604 H   0  0  0  0  0  0
  -24.6402  -15.8534   20.5382 H   0  0  0  0  0  0
  -26.2483  -15.6375   20.0665 H   0  0  0  0  0  0
  -26.7330  -32.5222   23.0939 H   0  0  0  0  0  0
  -25.0101  -33.9545   25.0272 H   0  0  0  0  0  0
  -22.7733  -31.2740   21.3551 H   0  0  0  0  0  0
  -23.3753  -35.9557   23.3296 H   0  0  0  0  0  0
  -24.3571  -36.8883   22.2061 H   0  0  0  0  0  0
  -23.7245  -37.6419   23.6701 H   0  0  0  0  0  0
  -26.1941  -31.4202   20.6143 H   0  0  0  0  0  0
  -26.8941  -30.7341   22.0414 H   0  0  0  0  0  0
  -28.1507  -28.6964   21.2700 H   0  0  0  0  0  0
  -25.9210  -25.7819   19.0229 H   0  0  0  0  0  0
  -23.9970  -27.2735   18.9751 H   0  0  0  0  0  0
  -23.8320  -30.5249   19.3830 H   0  0  0  0  0  0
  -22.8158  -29.1939   19.8480 H   0  0  0  0  0  0
  -25.1319  -36.1805   25.0795 H   0  0  0  0  0  0
  -21.0035  -28.3344   24.1318 H   0  0  0  0  0  0
  -20.5697  -26.2355   23.3631 H   0  0  0  0  0  0
  -21.6664  -26.7427   22.1195 H   0  0  0  0  0  0
  -19.6940  -25.6278   21.1263 H   0  0  0  0  0  0
  -19.6721  -27.3165   20.6724 H   0  0  0  0  0  0
  -17.4230  -26.6689   21.4019 H   0  0  0  0  0  0
  -18.0361  -26.0089   22.9031 H   0  0  0  0  0  0
  -19.7970  -30.7319   24.2191 H   0  0  0  0  0  0
  -17.5040  -31.6273   24.5165 H   0  0  0  0  0  0
  -15.5377  -30.2960   23.7708 H   0  0  0  0  0  0
  -15.8709  -28.0801   22.7110 H   0  0  0  0  0  0
  -24.5875  -30.7142   25.7688 H   0  0  0  0  0  0
  -24.8896  -32.2996   26.4709 H   0  0  0  0  0  0
  -25.7949  -30.9015   27.0219 H   0  0  0  0  0  0
  -26.3095  -29.6625   24.1356 H   0  0  0  0  0  0
  -27.3968  -29.7272   25.5006 H   0  0  0  0  0  0
  -27.9030  -30.4133   23.9782 H   0  0  0  0  0  0
  -27.2606  -33.3683   26.1990 H   0  0  0  0  0  0
  -28.3908  -32.6880   25.0380 H   0  0  0  0  0  0
  -28.0659  -31.8556   26.5509 H   0  0  0  0  0  0
  -28.2573  -38.0072   24.7499 H   0  0  0  0  0  0
  -28.1072  -36.2596   24.6308 H   0  0  0  0  0  0
  -27.2284  -37.1433   25.8871 H   0  0  0  0  0  0
  -20.9556  -29.8693   21.6656 H   0  0  0  0  0  0
  -26.0137  -38.2780   24.1408 H   0  0  0  0  0  0
  -32.0835  -17.6651   16.7134 H   0  0  0  0  0  0
  -30.9090  -16.2824   18.1688 H   0  0  0  0  0  0
  -30.9276  -21.1135   18.8092 H   0  0  0  0  0  0
  -27.0376  -24.8437   21.4332 H   0  0  0  0  0  0
  -30.1739  -22.3520   20.3885 H   0  0  0  0  0  0
  -29.1114  -22.1895   19.0198 H   0  0  0  0  0  0
  -26.3287  -21.0161   20.5373 H   0  0  0  0  0  0
  -26.2802  -20.6401   22.2389 H   0  0  0  0  0  0
  -27.6674  -19.0310   20.8771 H   0  0  0  0  0  0
  -28.5397  -19.7204   22.2268 H   0  0  0  0  0  0
  -32.6342  -19.9241   15.9984 H   0  0  0  0  0  0
  -32.1835  -21.2945   16.8800 H   0  0  0  0  0  0
  -28.8785  -16.3964   20.7468 H   0  0  0  0  0  0
  1 25  1  0  0  0
  1 30  2  0  0  0
  1 85  1  0  0  0
  2  3  1  0  0  0
  2 25  1  0  0  0
  2 87  1  0  0  0
  2 88  1  0  0  0
  3  4  1  0  0  0
  3 89  1  0  0  0
  3 90  1  0  0  0
  4  5  1  0  0  0
  4 91  1  0  0  0
  4 92  1  0  0  0
  5  6  1  0  0  0
  5 26  1  0  0  0
  5 93  1  0  0  0
  6 25  1  0  0  0
  6 94  1  0  0  0
  6 95  1  0  0  0
  7  8  2  0  0  0
  7 26  1  0  0  0
  7 29  1  0  0  0
  8  9  1  0  0  0
  8 22  1  0  0  0
  9 10  1  0  0  0
  9 27  2  0  0  0
 10 11  2  0  0  0
 10 15  1  0  0  0
 11 12  1  0  0  0
 11 96  1  0  0  0
 12 13  2  0  0  0
 12 97  1  0  0  0
 13 14  1  0  0  0
 13 31  1  0  0  0
 14 15  2  0  0  0
 14 98  1  0  0  0
 15 99  1  0  0  0
 16 17  2  0  0  0
 16 21  1  0  0  0
 16 31  1  0  0  0
 17 18  1  0  0  0
 17100  1  0  0  0
 18 19  2  0  0  0
 18101  1  0  0  0
 19 20  1  0  0  0
 19 24  1  0  0  0
 20 21  2  0  0  0
 20102  1  0  0  0
 21 23  1  0  0  0
 22 28  1  0  0  0
 22 32  2  0  0  0
 26 27  1  0  0  0
 28103  1  0  0  0
 28104  1  0  0  0
 29105  1  0  0  0
 29106  1  0  0  0
 33 34  1  0  0  0
 33 66  1  0  0  0
 33 70  2  0  0  0
 34 36  1  0  0  0
 34 59  1  0  0  0
 34107  1  0  0  0
 35 44  2  0  0  0
 35 45  1  0  0  0
 35 68  1  0  0  0
 36 56  1  0  0  0
 36108  1  0  0  0
 37 39  1  0  0  0
 37 47  1  0  0  0
 37 66  1  0  0  0
 37109  1  0  0  0
 38 43  2  0  0  0
 38 46  1  0  0  0
 38 47  1  0  0  0
 39 64  1  0  0  0
 39 67  2  0  0  0
 40 52  1  0  0  0
 40 53  2  0  0  0
 40 58  1  0  0  0
 41110  1  0  0  0
 41111  1  0  0  0
 41112  1  0  0  0
 41 48  1  0  0  0
 42 43  1  0  0  0
 42 66  1  0  0  0
 42113  1  0  0  0
 42114  1  0  0  0
 43 44  1  0  0  0
 44115  1  0  0  0
 45 46  2  0  0  0
 45116  1  0  0  0
 46117  1  0  0  0
 47118  1  0  0  0
 47119  1  0  0  0
 48 56  1  0  0  0
 48 65  1  0  0  0
 48120  1  0  0  0
 49 50  1  0  0  0
 49 53  1  0  0  0
 49 64  1  0  0  0
 49121  1  0  0  0
 50 51  1  0  0  0
 50122  1  0  0  0
 50123  1  0  0  0
 51 52  1  0  0  0
 51124  1  0  0  0
 51125  1  0  0  0
 52126  1  0  0  0
 52127  1  0  0  0
 53 54  1  0  0  0
 54 55  2  0  0  0
 54128  1  0  0  0
 55 57  1  0  0  0
 55129  1  0  0  0
 56 69  2  0  0  0
 57 58  2  0  0  0
 57130  1  0  0  0
 58131  1  0  0  0
 59 60  1  0  0  0
 59 61  1  0  0  0
 59 62  1  0  0  0
 60132  1  0  0  0
 60133  1  0  0  0
 60134  1  0  0  0
 61135  1  0  0  0
 61136  1  0  0  0
 61137  1  0  0  0
 62138  1  0  0  0
 62139  1  0  0  0
 62140  1  0  0  0
 63 65  1  0  0  0
 63141  1  0  0  0
 63142  1  0  0  0
 63143  1  0  0  0
 64144  1  0  0  0
 65145  1  0  0  0
 68 79  1  0  0  0
 71 72  2  0  0  0
 71 75  1  0  0  0
 71146  1  0  0  0
 72 76  1  0  0  0
 72147  1  0  0  0
 73 74  1  0  0  0
 73 75  2  0  0  0
 73148  1  0  0  0
 74 76  2  0  0  0
 74 83  1  0  0  0
 75 84  1  0  0  0
 76 85  1  0  0  0
 77 78  1  0  0  0
 77 79  2  0  0  0
 77 80  1  0  0  0
 78 81  1  0  0  0
 78 86  2  0  0  0
 79149  1  0  0  0
 80 83  1  0  0  0
 80150  1  0  0  0
 80151  1  0  0  0
 81 82  1  0  0  0
 81152  1  0  0  0
 81153  1  0  0  0
 82 83  1  0  0  0
 82154  1  0  0  0
 82155  1  0  0  0
 84156  1  0  0  0
 84157  1  0  0  0
 85158  1  0  0  0
M  ISO  4   1 100  68 101  79 101  85 100
M  END
> <chiral flag>
0

> <version>
0

> <s_m_source_file>
/data/baiqing/PycharmProjects/Reinvent-master-3.2/result/LINK_invent/BTK/process_docking_weight1_custom_product_contain_oxygen_bond_distance_aromatic_linkinvent_7_9_3/rearranged_h_0092.sdf

> <i_m_source_file_index>
71

> <r_mmod_Potential_Energy-OPLS-2005>
1027.09118652344

> <r_mmod_Stretch_Energy-OPLS-2005>
427.561859130859

> <r_mmod_Bend_Energy-OPLS-2005>
490.711181640625

> <r_mmod_Torsional_Energy-OPLS-2005>
254.057037353516

> <r_mmod_Improper_Torsional_Energy-OPLS-2005>
8.27505779266357

> <r_mmod_Van_der_Waal_Energy-OPLS-2005>
169.827499389648

> <r_mmod_Electrostatic_Energy-OPLS-2005>
-395.359954833984

> <r_mmod_Solvation_Energy-OPLS-2005>
-252.663757324219

> <b_mmod_Minimization_Converged-OPLS-2005>
0

> <r_mmod_RMS_Derivative-OPLS-2005>
2.60839128494263

$$$$
71
                    3D
 Structure written by MMmdl.
162171  0  0  1  0            999 V2000
  -30.6522  -14.7413   20.3379 C   0  0  0  0  0  0
  -30.4285  -12.4198   19.4555 C   0  0  0  0  0  0
  -29.4818  -12.3720   18.2311 C   0  0  0  0  0  0
  -28.0120  -12.2693   18.6665 C   0  0  0  0  0  0
  -27.6367  -13.2247   19.8329 C   0  0  2  0  0  0
  -28.7005  -13.2328   20.9493 C   0  0  0  0  0  0
  -25.2536  -13.8238   20.5757 C   0  0  0  0  0  0
  -24.1820  -13.0469   20.9256 C   0  0  0  0  0  0
  -24.6417  -11.6951   20.8841 C   0  0  0  0  0  0
  -23.9118  -10.4315   21.0495 C   0  0  0  0  0  0
  -24.3674   -9.4202   21.9243 C   0  0  0  0  0  0
  -23.6335   -8.2240   22.0794 C   0  0  0  0  0  0
  -22.4301   -8.0309   21.3591 C   0  0  0  0  0  0
  -21.9969   -9.0303   20.4685 C   0  0  0  0  0  0
  -22.7308  -10.2180   20.3117 C   0  0  0  0  0  0
  -21.6841   -6.0773   22.5299 C   0  0  0  0  0  0
  -21.3985   -6.5666   23.8235 C   0  0  0  0  0  0
  -21.3663   -5.6829   24.9205 C   0  0  0  0  0  0
  -21.6048   -4.3095   24.7242 C   0  0  0  0  0  0
  -21.8820   -3.8185   23.4361 C   0  0  0  0  0  0
  -21.9187   -4.7002   22.3415 C   0  0  0  0  0  0
  -22.7832  -13.5247   21.1923 C   0  0  0  0  0  0
  -22.1676   -4.2192   21.0997 F   0  0  0  0  0  0
  -21.5629   -3.4569   25.7745 F   0  0  0  0  0  0
  -29.9837  -13.5381   20.3112 N   0  0  0  0  0  0
  -26.2955  -12.9424   20.3358 N   0  0  0  0  0  0
  -25.9349  -11.6577   20.5912 N   0  0  0  0  0  0
  -22.0500  -12.8210   22.0457 N   0  0  0  0  0  0
  -25.4272  -15.1949   20.4199 N   0  0  0  0  0  0
  -31.8853  -14.7396   20.3825 O   0  0  0  0  0  0
  -21.6639   -6.8925   21.4267 O   0  0  0  0  0  0
  -22.3506  -14.5579   20.6825 O   0  0  0  0  0  0
  -24.6276  -31.8615   23.2066 C   0  0  0  0  0  0
  -25.9149  -32.4772   23.8368 C   0  0  1  0  0  0
  -27.2039  -27.2955   20.1313 C   0  0  0  0  0  0
  -25.5981  -33.8567   24.2293 N   0  0  0  0  0  0
  -23.4190  -30.4890   21.5485 C   0  0  2  0  0  0
  -24.8629  -28.9414   20.1262 C   0  0  0  0  0  0
  -22.7464  -29.4644   22.4929 C   0  0  0  0  0  0
  -18.0302  -28.1377   22.8513 C   0  0  0  0  0  0
  -24.1492  -36.7263   23.2624 C   0  0  0  0  0  0
  -25.9636  -30.7826   21.3861 C   0  0  0  0  0  0
  -26.0339  -29.4036   20.7415 C   0  0  0  0  0  0
  -27.2106  -28.5895   20.7419 C   0  0  0  0  0  0
  -26.0229  -26.9152   19.4665 C   0  0  0  0  0  0
  -24.8582  -27.6991   19.4812 C   0  0  0  0  0  0
  -23.6376  -29.8301   20.1634 C   0  0  0  0  0  0
  -25.4127  -36.3078   24.0314 C   0  0  1  0  0  0
  -20.5903  -28.3689   23.1274 C   0  0  2  0  0  0
  -20.6786  -26.9404   22.5404 C   0  0  0  0  0  0
  -19.5750  -26.6387   21.5215 C   0  0  0  0  0  0
  -18.1938  -26.7934   22.1633 C   0  0  0  0  0  0
  -19.1554  -28.8852   23.2902 C   0  0  0  0  0  0
  -18.9469  -30.1463   23.8897 C   0  0  0  0  0  0
  -17.6462  -30.6576   24.0581 C   0  0  0  0  0  0
  -25.9067  -34.9438   23.5100 C   0  0  0  0  0  0
  -16.5359  -29.9075   23.6328 C   0  0  0  0  0  0
  -16.7293  -28.6495   23.0360 C   0  0  0  0  0  0
  -26.4546  -31.6568   25.0711 C   0  0  0  0  0  0
  -25.3807  -31.3709   26.1445 C   0  0  0  0  0  0
  -27.0376  -30.2988   24.6168 C   0  0  0  0  0  0
  -27.6119  -32.4276   25.7502 C   0  0  0  0  0  0
  -27.5579  -37.1795   24.8465 C   0  0  0  0  0  0
  -21.4183  -29.3051   22.3658 N   0  0  0  0  0  0
  -26.4298  -37.3776   23.9403 N   0  0  0  0  0  0
  -24.6886  -31.0612   22.1042 N   0  0  0  0  0  0
  -23.4187  -28.8182   23.2999 O   0  0  0  0  0  0
  -28.3058  -26.4273   20.0546 O   0  0  0  0  0  0
  -26.5601  -34.8903   22.4642 O   0  0  0  0  0  0
  -23.5436  -32.1426   23.7391 O   0  0  0  0  0  0
  -29.0504  -19.0533   21.4507 C   0  0  0  0  0  0
  -29.4725  -17.6917   21.2296 C   0  0  0  0  0  0
  -29.6018  -18.1682   18.8926 C   0  0  0  0  0  0
  -29.2199  -19.5236   19.1021 C   0  0  0  0  0  0
  -28.8842  -20.0041   20.3925 C   0  0  0  0  0  0
  -29.7423  -17.1796   19.9247 C   0  0  0  0  0  0
  -28.6639  -22.5949   20.6660 C   0  0  0  0  0  0
  -27.9594  -23.7789   20.5090 C   0  0  0  0  0  0
  -26.7667  -21.1194   20.4040 C   0  0  0  0  0  0
  -26.5326  -23.6983   20.0120 C   0  0  0  0  0  0
  -25.9252  -22.2894   19.8898 C   0  0  0  0  0  0
  -29.0872  -20.4321   17.8866 C   0  0  0  0  0  0
  -30.4806  -15.6027   18.1500 C   0  0  0  0  0  0
  -28.4159  -25.2399   20.9465 C   0  0  0  0  0  0
  -28.1139  -21.2625   20.5191 N   0  0  0  0  0  0
  -30.0889  -15.7626   19.5734 N   0  0  0  0  0  0
  -26.1722  -20.0649   20.6597 O   0  0  0  0  0  0
  -31.4665  -12.5324   19.1346 H   0  0  0  0  0  0
  -30.3899  -11.4774   20.0047 H   0  0  0  0  0  0
  -29.7354  -11.5171   17.6043 H   0  0  0  0  0  0
  -29.5837  -13.2364   17.5868 H   0  0  0  0  0  0
  -27.8564  -11.2340   18.9707 H   0  0  0  0  0  0
  -27.3543  -12.4386   17.8117 H   0  0  0  0  0  0
  -27.6188  -14.2263   19.4035 H   0  0  0  0  0  0
  -28.7427  -12.2787   21.4773 H   0  0  0  0  0  0
  -28.4670  -13.9926   21.6961 H   0  0  0  0  0  0
  -25.2849   -9.5647   22.4782 H   0  0  0  0  0  0
  -24.0086   -7.4628   22.7477 H   0  0  0  0  0  0
  -21.0928   -8.8828   19.8961 H   0  0  0  0  0  0
  -22.3818  -10.9737   19.6208 H   0  0  0  0  0  0
  -21.1939   -7.6168   23.9748 H   0  0  0  0  0  0
  -21.1498   -6.0560   25.9123 H   0  0  0  0  0  0
  -22.0589   -2.7647   23.2859 H   0  0  0  0  0  0
  -22.4108  -11.9810   22.4745 H   0  0  0  0  0  0
  -21.1152  -13.1279   22.2783 H   0  0  0  0  0  0
  -24.6828  -15.8662   20.5817 H   0  0  0  0  0  0
  -26.3054  -15.6357   20.1728 H   0  0  0  0  0  0
  -26.7198  -32.5468   23.1095 H   0  0  0  0  0  0
  -25.0266  -33.9721   25.0534 H   0  0  0  0  0  0
  -22.7146  -31.3108   21.4065 H   0  0  0  0  0  0
  -23.3760  -35.9586   23.3305 H   0  0  0  0  0  0
  -24.3574  -36.8862   22.2027 H   0  0  0  0  0  0
  -23.7216  -37.6459   23.6633 H   0  0  0  0  0  0
  -26.0938  -31.5383   20.6104 H   0  0  0  0  0  0
  -26.8453  -30.8359   22.0131 H   0  0  0  0  0  0
  -28.1139  -28.9436   21.2195 H   0  0  0  0  0  0
  -25.9846  -26.0147   18.8903 H   0  0  0  0  0  0
  -23.9762  -27.3545   18.9610 H   0  0  0  0  0  0
  -23.7659  -30.6082   19.4088 H   0  0  0  0  0  0
  -22.7556  -29.2674   19.8542 H   0  0  0  0  0  0
  -25.1298  -36.1930   25.0801 H   0  0  0  0  0  0
  -21.0039  -28.3274   24.1381 H   0  0  0  0  0  0
  -20.5694  -26.2286   23.3606 H   0  0  0  0  0  0
  -21.6651  -26.7424   22.1190 H   0  0  0  0  0  0
  -19.6896  -25.6307   21.1229 H   0  0  0  0  0  0
  -19.6687  -27.3209   20.6761 H   0  0  0  0  0  0
  -17.4213  -26.6729   21.4031 H   0  0  0  0  0  0
  -18.0325  -26.0051   22.9000 H   0  0  0  0  0  0
  -19.7943  -30.7316   24.2233 H   0  0  0  0  0  0
  -17.5006  -31.6257   24.5187 H   0  0  0  0  0  0
  -15.5359  -30.2979   23.7634 H   0  0  0  0  0  0
  -15.8709  -28.0820   22.7049 H   0  0  0  0  0  0
  -24.6027  -30.6979   25.7812 H   0  0  0  0  0  0
  -24.8938  -32.2867   26.4807 H   0  0  0  0  0  0
  -25.8162  -30.8973   27.0254 H   0  0  0  0  0  0
  -26.2944  -29.6737   24.1201 H   0  0  0  0  0  0
  -27.4075  -29.7222   25.4655 H   0  0  0  0  0  0
  -27.8819  -30.4224   23.9384 H   0  0  0  0  0  0
  -27.2764  -33.3597   26.2052 H   0  0  0  0  0  0
  -28.3988  -32.6785   25.0379 H   0  0  0  0  0  0
  -28.0732  -31.8404   26.5452 H   0  0  0  0  0  0
  -28.2609  -38.0087   24.7529 H   0  0  0  0  0  0
  -28.1068  -36.2615   24.6302 H   0  0  0  0  0  0
  -27.2286  -37.1452   25.8867 H   0  0  0  0  0  0
  -20.9323  -29.8762   21.6888 H   0  0  0  0  0  0
  -26.0171  -38.2833   24.1462 H   0  0  0  0  0  0
  -28.7814  -19.3489   22.4550 H   0  0  0  0  0  0
  -29.5419  -17.0303   22.0832 H   0  0  0  0  0  0
  -29.7427  -17.9093   17.8565 H   0  0  0  0  0  0
  -29.6754  -22.5801   21.0431 H   0  0  0  0  0  0
  -26.5446  -24.1054   19.0047 H   0  0  0  0  0  0
  -25.8932  -24.3242   20.6366 H   0  0  0  0  0  0
  -24.9523  -22.2655   20.3799 H   0  0  0  0  0  0
  -25.7268  -22.0858   18.8377 H   0  0  0  0  0  0
  -29.7422  -20.1129   17.0741 H   0  0  0  0  0  0
  -29.3660  -21.4585   18.1285 H   0  0  0  0  0  0
  -28.0596  -20.4272   17.5178 H   0  0  0  0  0  0
  -29.6007  -15.6052   17.5023 H   0  0  0  0  0  0
  -31.0582  -14.7051   17.9221 H   0  0  0  0  0  0
  -31.1564  -16.3916   17.8208 H   0  0  0  0  0  0
  -29.4678  -25.1730   21.2281 H   0  0  0  0  0  0
  -27.8931  -25.4748   21.8760 H   0  0  0  0  0  0
  1 25  1  0  0  0
  1 30  2  0  0  0
  1 86  1  0  0  0
  2  3  1  0  0  0
  2 25  1  0  0  0
  2 88  1  0  0  0
  2 89  1  0  0  0
  3  4  1  0  0  0
  3 90  1  0  0  0
  3 91  1  0  0  0
  4  5  1  0  0  0
  4 92  1  0  0  0
  4 93  1  0  0  0
  5  6  1  0  0  0
  5 26  1  0  0  0
  5 94  1  0  0  0
  6 25  1  0  0  0
  6 95  1  0  0  0
  6 96  1  0  0  0
  7  8  2  0  0  0
  7 26  1  0  0  0
  7 29  1  0  0  0
  8  9  1  0  0  0
  8 22  1  0  0  0
  9 10  1  0  0  0
  9 27  2  0  0  0
 10 11  2  0  0  0
 10 15  1  0  0  0
 11 12  1  0  0  0
 11 97  1  0  0  0
 12 13  2  0  0  0
 12 98  1  0  0  0
 13 14  1  0  0  0
 13 31  1  0  0  0
 14 15  2  0  0  0
 14 99  1  0  0  0
 15100  1  0  0  0
 16 17  2  0  0  0
 16 21  1  0  0  0
 16 31  1  0  0  0
 17 18  1  0  0  0
 17101  1  0  0  0
 18 19  2  0  0  0
 18102  1  0  0  0
 19 20  1  0  0  0
 19 24  1  0  0  0
 20 21  2  0  0  0
 20103  1  0  0  0
 21 23  1  0  0  0
 22 28  1  0  0  0
 22 32  2  0  0  0
 26 27  1  0  0  0
 28104  1  0  0  0
 28105  1  0  0  0
 29106  1  0  0  0
 29107  1  0  0  0
 33 34  1  0  0  0
 33 66  1  0  0  0
 33 70  2  0  0  0
 34 36  1  0  0  0
 34 59  1  0  0  0
 34108  1  0  0  0
 35 44  2  0  0  0
 35 45  1  0  0  0
 35 68  1  0  0  0
 36 56  1  0  0  0
 36109  1  0  0  0
 37 39  1  0  0  0
 37 47  1  0  0  0
 37 66  1  0  0  0
 37110  1  0  0  0
 38 43  2  0  0  0
 38 46  1  0  0  0
 38 47  1  0  0  0
 39 64  1  0  0  0
 39 67  2  0  0  0
 40 52  1  0  0  0
 40 53  2  0  0  0
 40 58  1  0  0  0
 41111  1  0  0  0
 41112  1  0  0  0
 41113  1  0  0  0
 41 48  1  0  0  0
 42 43  1  0  0  0
 42 66  1  0  0  0
 42114  1  0  0  0
 42115  1  0  0  0
 43 44  1  0  0  0
 44116  1  0  0  0
 45 46  2  0  0  0
 45117  1  0  0  0
 46118  1  0  0  0
 47119  1  0  0  0
 47120  1  0  0  0
 48 56  1  0  0  0
 48 65  1  0  0  0
 48121  1  0  0  0
 49 50  1  0  0  0
 49 53  1  0  0  0
 49 64  1  0  0  0
 49122  1  0  0  0
 50 51  1  0  0  0
 50123  1  0  0  0
 50124  1  0  0  0
 51 52  1  0  0  0
 51125  1  0  0  0
 51126  1  0  0  0
 52127  1  0  0  0
 52128  1  0  0  0
 53 54  1  0  0  0
 54 55  2  0  0  0
 54129  1  0  0  0
 55 57  1  0  0  0
 55130  1  0  0  0
 56 69  2  0  0  0
 57 58  2  0  0  0
 57131  1  0  0  0
 58132  1  0  0  0
 59 60  1  0  0  0
 59 61  1  0  0  0
 59 62  1  0  0  0
 60133  1  0  0  0
 60134  1  0  0  0
 60135  1  0  0  0
 61136  1  0  0  0
 61137  1  0  0  0
 61138  1  0  0  0
 62139  1  0  0  0
 62140  1  0  0  0
 62141  1  0  0  0
 63 65  1  0  0  0
 63142  1  0  0  0
 63143  1  0  0  0
 63144  1  0  0  0
 64145  1  0  0  0
 65146  1  0  0  0
 68 84  1  0  0  0
 71 72  2  0  0  0
 71 75  1  0  0  0
 71147  1  0  0  0
 72 76  1  0  0  0
 72148  1  0  0  0
 73 74  1  0  0  0
 73 76  2  0  0  0
 73149  1  0  0  0
 74 75  2  0  0  0
 74 82  1  0  0  0
 75 85  1  0  0  0
 76 86  1  0  0  0
 77 78  2  0  0  0
 77 85  1  0  0  0
 77150  1  0  0  0
 78 80  1  0  0  0
 78 84  1  0  0  0
 79 81  1  0  0  0
 79 85  1  0  0  0
 79 87  2  0  0  0
 80 81  1  0  0  0
 80151  1  0  0  0
 80152  1  0  0  0
 81153  1  0  0  0
 81154  1  0  0  0
 82155  1  0  0  0
 82156  1  0  0  0
 82157  1  0  0  0
 83 86  1  0  0  0
 83158  1  0  0  0
 83159  1  0  0  0
 83160  1  0  0  0
 84161  1  0  0  0
 84162  1  0  0  0
M  ISO  4   1 100  68 101  84 101  86 100
M  END
> <chiral flag>
0

> <version>
0

> <s_m_source_file>
/data/baiqing/PycharmProjects/Reinvent-master-3.2/result/LINK_invent/BTK/process_docking_weight1_custom_product_contain_oxygen_bond_distance_aromatic_linkinvent_7_9_3/rearranged_h_0092.sdf

> <i_m_source_file_index>
72

> <r_mmod_Potential_Energy-OPLS-2005>
576.164978027344

> <r_mmod_Stretch_Energy-OPLS-2005>
113.076835632324

> <r_mmod_Bend_Energy-OPLS-2005>
190.353393554688

> <r_mmod_Torsional_Energy-OPLS-2005>
415.162139892578

> <r_mmod_Improper_Torsional_Energy-OPLS-2005>
35.838264465332

> <r_mmod_Van_der_Waal_Energy-OPLS-2005>
171.479537963867

> <r_mmod_Electrostatic_Energy-OPLS-2005>
-245.179275512695

> <r_mmod_Solvation_Energy-OPLS-2005>
-201.85871887207

> <b_mmod_Minimization_Converged-OPLS-2005>
0

> <r_mmod_RMS_Derivative-OPLS-2005>
3.82442998886108

$$$$
72
                    3D
 Structure written by MMmdl.
151159  0  0  1  0            999 V2000
  -30.6052  -14.7330   20.4485 C   0  0  0  0  0  0
  -30.4332  -12.4420   19.4814 C   0  0  0  0  0  0
  -29.5151  -12.5140   18.2409 C   0  0  0  0  0  0
  -28.0381  -12.3450   18.6470 C   0  0  0  0  0  0
  -27.6467  -13.2334   19.8580 C   0  0  2  0  0  0
  -28.6893  -13.1484   20.9949 C   0  0  0  0  0  0
  -25.2535  -13.8206   20.5708 C   0  0  0  0  0  0
  -24.1823  -13.0449   20.9212 C   0  0  0  0  0  0
  -24.6414  -11.6929   20.8750 C   0  0  0  0  0  0
  -23.9083  -10.4310   21.0414 C   0  0  0  0  0  0
  -24.3630   -9.4219   21.9187 C   0  0  0  0  0  0
  -23.6305   -8.2255   22.0752 C   0  0  0  0  0  0
  -22.4283   -8.0295   21.3547 C   0  0  0  0  0  0
  -21.9927   -9.0266   20.4646 C   0  0  0  0  0  0
  -22.7259  -10.2148   20.3061 C   0  0  0  0  0  0
  -21.6859   -6.0752   22.5284 C   0  0  0  0  0  0
  -21.4020   -6.5646   23.8218 C   0  0  0  0  0  0
  -21.3660   -5.6793   24.9175 C   0  0  0  0  0  0
  -21.6046   -4.3057   24.7225 C   0  0  0  0  0  0
  -21.8819   -3.8157   23.4342 C   0  0  0  0  0  0
  -21.9198   -4.6979   22.3404 C   0  0  0  0  0  0
  -22.7843  -13.5228   21.1867 C   0  0  0  0  0  0
  -22.1663   -4.2167   21.0981 F   0  0  0  0  0  0
  -21.5627   -3.4537   25.7735 F   0  0  0  0  0  0
  -29.9957  -13.4977   20.4243 N   0  0  0  0  0  0
  -26.2965  -12.9415   20.3304 N   0  0  0  0  0  0
  -25.9344  -11.6550   20.5755 N   0  0  0  0  0  0
  -22.0479  -12.8212   22.0414 N   0  0  0  0  0  0
  -25.4227  -15.1937   20.4142 N   0  0  0  0  0  0
  -31.7872  -14.8371   20.1058 O   0  0  0  0  0  0
  -21.6642   -6.8898   21.4247 O   0  0  0  0  0  0
  -22.3530  -14.5531   20.6707 O   0  0  0  0  0  0
  -24.6315  -31.8546   23.1988 C   0  0  0  0  0  0
  -25.9140  -32.4751   23.8334 C   0  0  1  0  0  0
  -27.2195  -27.2565   20.1262 C   0  0  0  0  0  0
  -25.5935  -33.8556   24.2255 N   0  0  0  0  0  0
  -23.4287  -30.4770   21.5423 C   0  0  2  0  0  0
  -24.8760  -28.9252   20.1086 C   0  0  0  0  0  0
  -22.7500  -29.4600   22.4920 C   0  0  0  0  0  0
  -18.0289  -28.1380   22.8496 C   0  0  0  0  0  0
  -24.1492  -36.7280   23.2641 C   0  0  0  0  0  0
  -25.9757  -30.7647   21.3815 C   0  0  0  0  0  0
  -26.0474  -29.3878   20.7214 C   0  0  0  0  0  0
  -27.2200  -28.5648   20.7212 C   0  0  0  0  0  0
  -26.0292  -26.8741   19.4661 C   0  0  0  0  0  0
  -24.8727  -27.6771   19.4693 C   0  0  0  0  0  0
  -23.6464  -29.8109   20.1582 C   0  0  0  0  0  0
  -25.4118  -36.3066   24.0327 C   0  0  1  0  0  0
  -20.5892  -28.3695   23.1276 C   0  0  2  0  0  0
  -20.6776  -26.9415   22.5414 C   0  0  0  0  0  0
  -19.5752  -26.6382   21.5217 C   0  0  0  0  0  0
  -18.1930  -26.7922   22.1628 C   0  0  0  0  0  0
  -19.1542  -28.8856   23.2878 C   0  0  0  0  0  0
  -18.9461  -30.1455   23.8899 C   0  0  0  0  0  0
  -17.6459  -30.6590   24.0556 C   0  0  0  0  0  0
  -25.9058  -34.9438   23.5092 C   0  0  0  0  0  0
  -16.5351  -29.9083   23.6335 C   0  0  0  0  0  0
  -16.7273  -28.6493   23.0369 C   0  0  0  0  0  0
  -26.4498  -31.6580   25.0730 C   0  0  0  0  0  0
  -25.3714  -31.3738   26.1446 C   0  0  0  0  0  0
  -27.0346  -30.2992   24.6240 C   0  0  0  0  0  0
  -27.6046  -32.4327   25.7503 C   0  0  0  0  0  0
  -27.5578  -37.1797   24.8464 C   0  0  0  0  0  0
  -21.4204  -29.3041   22.3662 N   0  0  0  0  0  0
  -26.4291  -37.3768   23.9408 N   0  0  0  0  0  0
  -24.6975  -31.0502   22.0970 N   0  0  0  0  0  0
  -23.4195  -28.8143   23.3026 O   0  0  0  0  0  0
  -28.3102  -26.3546   20.2069 O   0  0  0  0  0  0
  -26.5636  -34.8912   22.4664 O   0  0  0  0  0  0
  -23.5466  -32.1372   23.7286 O   0  0  0  0  0  0
  -29.8292  -19.7477   18.7199 C   0  0  0  0  0  0
  -30.1287  -18.5447   18.0485 C   0  0  0  0  0  0
  -29.5411  -18.4603   20.7644 C   0  0  0  0  0  0
  -29.5146  -19.7599   20.0963 C   0  0  0  0  0  0
  -29.8747  -17.2046   20.0995 C   0  0  0  0  0  0
  -30.1464  -17.3003   18.7110 C   0  0  0  0  0  0
  -29.2633  -21.1280   20.8083 C   0  0  0  0  0  0
  -29.0579  -23.7477   20.5938 C   0  0  0  0  0  0
  -28.1100  -24.8833   19.9345 C   0  0  0  0  0  0
  -29.8411  -15.8570   20.7313 N   0  0  0  0  0  0
  -29.0049  -22.2936   20.1030 N   0  0  0  0  0  0
  -29.3255  -21.1571   22.0382 O   0  0  0  0  0  0
  -30.3816  -16.1885   17.9719 F   0  0  0  0  0  0
  -31.4758  -12.5619   19.1838 H   0  0  0  0  0  0
  -30.3699  -11.4602   19.9532 H   0  0  0  0  0  0
  -29.7935  -11.7462   17.5179 H   0  0  0  0  0  0
  -29.6523  -13.4734   17.7379 H   0  0  0  0  0  0
  -27.8843  -11.2941   18.8937 H   0  0  0  0  0  0
  -27.3872  -12.5560   17.7981 H   0  0  0  0  0  0
  -27.6461  -14.2604   19.4912 H   0  0  0  0  0  0
  -28.7166  -12.1433   21.4182 H   0  0  0  0  0  0
  -28.4259  -13.8165   21.8157 H   0  0  0  0  0  0
  -25.2778   -9.5686   22.4757 H   0  0  0  0  0  0
  -24.0019   -7.4642   22.7460 H   0  0  0  0  0  0
  -21.0864   -8.8786   19.8944 H   0  0  0  0  0  0
  -22.3724  -10.9683   19.6166 H   0  0  0  0  0  0
  -21.2002   -7.6155   23.9726 H   0  0  0  0  0  0
  -21.1483   -6.0523   25.9079 H   0  0  0  0  0  0
  -22.0597   -2.7622   23.2836 H   0  0  0  0  0  0
  -22.4093  -11.9883   22.4819 H   0  0  0  0  0  0
  -21.1093  -13.1235   22.2602 H   0  0  0  0  0  0
  -24.6545  -15.8468   20.5252 H   0  0  0  0  0  0
  -26.2699  -15.6344   20.0793 H   0  0  0  0  0  0
  -26.7207  -32.5394   23.1076 H   0  0  0  0  0  0
  -25.0058  -33.9691   25.0384 H   0  0  0  0  0  0
  -22.7266  -31.3003   21.3960 H   0  0  0  0  0  0
  -23.3754  -35.9610   23.3296 H   0  0  0  0  0  0
  -24.3579  -36.8910   22.2056 H   0  0  0  0  0  0
  -23.7243  -37.6479   23.6671 H   0  0  0  0  0  0
  -26.1188  -31.5274   20.6142 H   0  0  0  0  0  0
  -26.8512  -30.8109   22.0175 H   0  0  0  0  0  0
  -28.1130  -28.9112   21.2221 H   0  0  0  0  0  0
  -25.9593  -25.9283   18.9509 H   0  0  0  0  0  0
  -23.9791  -27.3216   18.9752 H   0  0  0  0  0  0
  -23.7675  -30.5864   19.4011 H   0  0  0  0  0  0
  -22.7660  -29.2409   19.8563 H   0  0  0  0  0  0
  -25.1302  -36.1906   25.0821 H   0  0  0  0  0  0
  -20.9985  -28.3267   24.1394 H   0  0  0  0  0  0
  -20.5675  -26.2305   23.3612 H   0  0  0  0  0  0
  -21.6643  -26.7437   22.1204 H   0  0  0  0  0  0
  -19.6911  -25.6291   21.1252 H   0  0  0  0  0  0
  -19.6684  -27.3188   20.6740 H   0  0  0  0  0  0
  -17.4199  -26.6680   21.4026 H   0  0  0  0  0  0
  -18.0323  -26.0058   22.9015 H   0  0  0  0  0  0
  -19.7933  -30.7271   24.2271 H   0  0  0  0  0  0
  -17.5011  -31.6273   24.5147 H   0  0  0  0  0  0
  -15.5349  -30.2984   23.7657 H   0  0  0  0  0  0
  -15.8670  -28.0804   22.7103 H   0  0  0  0  0  0
  -24.5885  -30.7096   25.7767 H   0  0  0  0  0  0
  -24.8912  -32.2912   26.4862 H   0  0  0  0  0  0
  -25.8020  -30.8913   27.0230 H   0  0  0  0  0  0
  -26.2940  -29.6740   24.1240 H   0  0  0  0  0  0
  -27.3981  -29.7257   25.4777 H   0  0  0  0  0  0
  -27.8839  -30.4249   23.9521 H   0  0  0  0  0  0
  -27.2647  -33.3627   26.2071 H   0  0  0  0  0  0
  -28.3858  -32.6890   25.0333 H   0  0  0  0  0  0
  -28.0715  -31.8462   26.5427 H   0  0  0  0  0  0
  -28.2593  -38.0097   24.7511 H   0  0  0  0  0  0
  -28.1080  -36.2628   24.6288 H   0  0  0  0  0  0
  -27.2300  -37.1442   25.8869 H   0  0  0  0  0  0
  -20.9390  -29.8752   21.6855 H   0  0  0  0  0  0
  -26.0166  -38.2842   24.1398 H   0  0  0  0  0  0
  -29.8546  -20.6690   18.1554 H   0  0  0  0  0  0
  -30.3462  -18.5737   16.9912 H   0  0  0  0  0  0
  -29.3111  -18.4325   21.8198 H   0  0  0  0  0  0
  -28.8883  -23.7558   21.6712 H   0  0  0  0  0  0
  -30.0915  -24.0698   20.4649 H   0  0  0  0  0  0
  -27.0998  -24.6060   20.2352 H   0  0  0  0  0  0
  -28.1450  -24.7647   18.8506 H   0  0  0  0  0  0
  -29.0020  -15.6647   21.2562 H   0  0  0  0  0  0
  -28.9115  -22.1780   19.1030 H   0  0  0  0  0  0
  1 25  1  0  0  0
  1 30  2  0  0  0
  1 80  1  0  0  0
  2  3  1  0  0  0
  2 25  1  0  0  0
  2 84  1  0  0  0
  2 85  1  0  0  0
  3  4  1  0  0  0
  3 86  1  0  0  0
  3 87  1  0  0  0
  4  5  1  0  0  0
  4 88  1  0  0  0
  4 89  1  0  0  0
  5  6  1  0  0  0
  5 26  1  0  0  0
  5 90  1  0  0  0
  6 25  1  0  0  0
  6 91  1  0  0  0
  6 92  1  0  0  0
  7  8  2  0  0  0
  7 26  1  0  0  0
  7 29  1  0  0  0
  8  9  1  0  0  0
  8 22  1  0  0  0
  9 10  1  0  0  0
  9 27  2  0  0  0
 10 11  2  0  0  0
 10 15  1  0  0  0
 11 12  1  0  0  0
 11 93  1  0  0  0
 12 13  2  0  0  0
 12 94  1  0  0  0
 13 14  1  0  0  0
 13 31  1  0  0  0
 14 15  2  0  0  0
 14 95  1  0  0  0
 15 96  1  0  0  0
 16 17  2  0  0  0
 16 21  1  0  0  0
 16 31  1  0  0  0
 17 18  1  0  0  0
 17 97  1  0  0  0
 18 19  2  0  0  0
 18 98  1  0  0  0
 19 20  1  0  0  0
 19 24  1  0  0  0
 20 21  2  0  0  0
 20 99  1  0  0  0
 21 23  1  0  0  0
 22 28  1  0  0  0
 22 32  2  0  0  0
 26 27  1  0  0  0
 28100  1  0  0  0
 28101  1  0  0  0
 29102  1  0  0  0
 29103  1  0  0  0
 33 34  1  0  0  0
 33 66  1  0  0  0
 33 70  2  0  0  0
 34 36  1  0  0  0
 34 59  1  0  0  0
 34104  1  0  0  0
 35 44  2  0  0  0
 35 45  1  0  0  0
 35 68  1  0  0  0
 36 56  1  0  0  0
 36105  1  0  0  0
 37 39  1  0  0  0
 37 47  1  0  0  0
 37 66  1  0  0  0
 37106  1  0  0  0
 38 43  2  0  0  0
 38 46  1  0  0  0
 38 47  1  0  0  0
 39 64  1  0  0  0
 39 67  2  0  0  0
 40 52  1  0  0  0
 40 53  2  0  0  0
 40 58  1  0  0  0
 41107  1  0  0  0
 41108  1  0  0  0
 41109  1  0  0  0
 41 48  1  0  0  0
 42 43  1  0  0  0
 42 66  1  0  0  0
 42110  1  0  0  0
 42111  1  0  0  0
 43 44  1  0  0  0
 44112  1  0  0  0
 45 46  2  0  0  0
 45113  1  0  0  0
 46114  1  0  0  0
 47115  1  0  0  0
 47116  1  0  0  0
 48 56  1  0  0  0
 48 65  1  0  0  0
 48117  1  0  0  0
 49 50  1  0  0  0
 49 53  1  0  0  0
 49 64  1  0  0  0
 49118  1  0  0  0
 50 51  1  0  0  0
 50119  1  0  0  0
 50120  1  0  0  0
 51 52  1  0  0  0
 51121  1  0  0  0
 51122  1  0  0  0
 52123  1  0  0  0
 52124  1  0  0  0
 53 54  1  0  0  0
 54 55  2  0  0  0
 54125  1  0  0  0
 55 57  1  0  0  0
 55126  1  0  0  0
 56 69  2  0  0  0
 57 58  2  0  0  0
 57127  1  0  0  0
 58128  1  0  0  0
 59 60  1  0  0  0
 59 61  1  0  0  0
 59 62  1  0  0  0
 60129  1  0  0  0
 60130  1  0  0  0
 60131  1  0  0  0
 61132  1  0  0  0
 61133  1  0  0  0
 61134  1  0  0  0
 62135  1  0  0  0
 62136  1  0  0  0
 62137  1  0  0  0
 63 65  1  0  0  0
 63138  1  0  0  0
 63139  1  0  0  0
 63140  1  0  0  0
 64141  1  0  0  0
 65142  1  0  0  0
 68 79  1  0  0  0
 71 72  2  0  0  0
 71 74  1  0  0  0
 71143  1  0  0  0
 72 76  1  0  0  0
 72144  1  0  0  0
 73 74  2  0  0  0
 73 75  1  0  0  0
 73145  1  0  0  0
 74 77  1  0  0  0
 75 76  2  0  0  0
 75 80  1  0  0  0
 76 83  1  0  0  0
 77 81  1  0  0  0
 77 82  2  0  0  0
 78 79  1  0  0  0
 78 81  1  0  0  0
 78146  1  0  0  0
 78147  1  0  0  0
 79148  1  0  0  0
 79149  1  0  0  0
 80150  1  0  0  0
 81151  1  0  0  0
M  ISO  4   1 100  68 101  79 101  80 100
M  END
> <chiral flag>
0

> <version>
0

> <s_m_source_file>
/data/baiqing/PycharmProjects/Reinvent-master-3.2/result/LINK_invent/BTK/process_docking_weight1_custom_product_contain_oxygen_bond_distance_aromatic_linkinvent_7_9_3/rearranged_h_0092.sdf

> <i_m_source_file_index>
73

> <r_mmod_Potential_Energy-OPLS-2005>
40.5341529846191

> <r_mmod_Stretch_Energy-OPLS-2005>
123.333557128906

> <r_mmod_Bend_Energy-OPLS-2005>
152.186630249023

> <r_mmod_Torsional_Energy-OPLS-2005>
244.469863891602

> <r_mmod_Improper_Torsional_Energy-OPLS-2005>
4.77431869506836

> <r_mmod_Van_der_Waal_Energy-OPLS-2005>
143.671401977539

> <r_mmod_Electrostatic_Energy-OPLS-2005>
-469.100036621094

> <r_mmod_Solvation_Energy-OPLS-2005>
-243.022247314453

> <b_mmod_Minimization_Converged-OPLS-2005>
0

> <r_mmod_RMS_Derivative-OPLS-2005>
1.13985729217529

$$$$
73
                    3D
 Structure written by MMmdl.
160169  0  0  1  0            999 V2000
  -30.8090  -14.4293   20.5381 C   0  0  0  0  0  0
  -30.3861  -12.2684   19.4538 C   0  0  0  0  0  0
  -29.4876  -12.4925   18.2221 C   0  0  0  0  0  0
  -28.0112  -12.3680   18.6300 C   0  0  0  0  0  0
  -27.6588  -13.2279   19.8753 C   0  0  2  0  0  0
  -28.7032  -13.0665   21.0065 C   0  0  0  0  0  0
  -25.2554  -13.8206   20.5740 C   0  0  0  0  0  0
  -24.1830  -13.0432   20.9171 C   0  0  0  0  0  0
  -24.6440  -11.6921   20.8741 C   0  0  0  0  0  0
  -23.9106  -10.4295   21.0411 C   0  0  0  0  0  0
  -24.3651   -9.4196   21.9183 C   0  0  0  0  0  0
  -23.6319   -8.2235   22.0774 C   0  0  0  0  0  0
  -22.4299   -8.0286   21.3551 C   0  0  0  0  0  0
  -21.9927   -9.0262   20.4643 C   0  0  0  0  0  0
  -22.7281  -10.2134   20.3060 C   0  0  0  0  0  0
  -21.6846   -6.0744   22.5277 C   0  0  0  0  0  0
  -21.4006   -6.5646   23.8212 C   0  0  0  0  0  0
  -21.3648   -5.6811   24.9179 C   0  0  0  0  0  0
  -21.6037   -4.3077   24.7228 C   0  0  0  0  0  0
  -21.8817   -3.8152   23.4357 C   0  0  0  0  0  0
  -21.9188   -4.6967   22.3410 C   0  0  0  0  0  0
  -22.7845  -13.5208   21.1825 C   0  0  0  0  0  0
  -22.1667   -4.2137   21.0990 F   0  0  0  0  0  0
  -21.5616   -3.4573   25.7743 F   0  0  0  0  0  0
  -30.0416  -13.3044   20.4474 N   0  0  0  0  0  0
  -26.3021  -12.9440   20.3424 N   0  0  0  0  0  0
  -25.9373  -11.6562   20.5783 N   0  0  0  0  0  0
  -22.0518  -12.8201   22.0403 N   0  0  0  0  0  0
  -25.4236  -15.1935   20.4180 N   0  0  0  0  0  0
  -31.9346  -14.4602   20.0381 O   0  0  0  0  0  0
  -21.6659   -6.8895   21.4239 O   0  0  0  0  0  0
  -22.3488  -14.5500   20.6657 O   0  0  0  0  0  0
  -24.6140  -31.8667   23.2122 C   0  0  0  0  0  0
  -25.9042  -32.4814   23.8405 C   0  0  1  0  0  0
  -27.2286  -27.4365   20.0906 C   0  0  0  0  0  0
  -25.5910  -33.8614   24.2340 N   0  0  0  0  0  0
  -23.3994  -30.4913   21.5540 C   0  0  2  0  0  0
  -24.8437  -28.9640   20.1085 C   0  0  0  0  0  0
  -22.7406  -29.4641   22.5025 C   0  0  0  0  0  0
  -18.0272  -28.1382   22.8481 C   0  0  0  0  0  0
  -24.1470  -36.7300   23.2641 C   0  0  0  0  0  0
  -25.9269  -30.8329   21.3646 C   0  0  0  0  0  0
  -26.0029  -29.4681   20.7129 C   0  0  0  0  0  0
  -27.1954  -28.7097   20.7026 C   0  0  0  0  0  0
  -26.0551  -26.9544   19.4641 C   0  0  0  0  0  0
  -24.8670  -27.7074   19.4786 C   0  0  0  0  0  0
  -23.6031  -29.8261   20.1663 C   0  0  0  0  0  0
  -25.4098  -36.3106   24.0341 C   0  0  1  0  0  0
  -20.5853  -28.3655   23.1343 C   0  0  2  0  0  0
  -20.6752  -26.9388   22.5444 C   0  0  0  0  0  0
  -19.5746  -26.6381   21.5219 C   0  0  0  0  0  0
  -18.1912  -26.7937   22.1595 C   0  0  0  0  0  0
  -19.1517  -28.8834   23.2907 C   0  0  0  0  0  0
  -18.9444  -30.1443   23.8914 C   0  0  0  0  0  0
  -17.6448  -30.6588   24.0569 C   0  0  0  0  0  0
  -25.9036  -34.9467   23.5130 C   0  0  0  0  0  0
  -16.5343  -29.9089   23.6343 C   0  0  0  0  0  0
  -16.7258  -28.6512   23.0350 C   0  0  0  0  0  0
  -26.4479  -31.6587   25.0721 C   0  0  0  0  0  0
  -25.3756  -31.3717   26.1487 C   0  0  0  0  0  0
  -27.0264  -30.3014   24.6071 C   0  0  0  0  0  0
  -27.6096  -32.4263   25.7447 C   0  0  0  0  0  0
  -27.5595  -37.1778   24.8455 C   0  0  0  0  0  0
  -21.4137  -29.3012   22.3747 N   0  0  0  0  0  0
  -26.4283  -37.3804   23.9434 N   0  0  0  0  0  0
  -24.6652  -31.0782   22.1015 N   0  0  0  0  0  0
  -23.4183  -28.8183   23.3067 O   0  0  0  0  0  0
  -28.4094  -26.7231   20.1148 O   0  0  0  0  0  0
  -26.5596  -34.8917   22.4684 O   0  0  0  0  0  0
  -23.5340  -32.1429   23.7521 O   0  0  0  0  0  0
  -30.3658  -19.1560   19.9385 C   0  0  0  0  0  0
  -30.2850  -20.5390   20.1883 C   0  0  0  0  0  0
  -30.4414  -20.0976   22.5714 C   0  0  0  0  0  0
  -30.5163  -18.2274   20.9882 C   0  0  0  0  0  0
  -30.3240  -21.0356   21.5118 C   0  0  0  0  0  0
  -30.5633  -18.7102   22.3173 C   0  0  0  0  0  0
  -29.3810  -23.2142   20.9345 C   0  0  0  0  0  0
  -29.3106  -24.5616   20.9094 C   0  0  0  0  0  0
  -31.0645  -23.0878   22.6523 C   0  0  0  0  0  0
  -30.7248  -16.8171   20.5987 C   0  0  0  0  0  0
  -30.2599  -15.6529   21.1202 C   0  0  0  0  0  0
  -30.1946  -25.3940   21.8194 C   0  0  0  0  0  0
  -30.7994  -24.5700   22.9743 C   0  0  0  0  0  0
  -28.3547  -25.2939   19.9686 C   0  0  0  0  0  0
  -30.2505  -22.4587   21.7539 N   0  0  0  0  0  0
  -30.8208  -17.8464   23.3795 N   0  0  0  0  0  0
  -32.0004  -22.5340   23.2438 O   0  0  0  0  0  0
  -31.4369  -12.2693   19.1604 H   0  0  0  0  0  0
  -30.2100  -11.2765   19.8736 H   0  0  0  0  0  0
  -29.7181  -11.7624   17.4437 H   0  0  0  0  0  0
  -29.6762  -13.4760   17.7911 H   0  0  0  0  0  0
  -27.8209  -11.3150   18.8394 H   0  0  0  0  0  0
  -27.3680  -12.6320   17.7908 H   0  0  0  0  0  0
  -27.6874  -14.2680   19.5494 H   0  0  0  0  0  0
  -28.6563  -12.0596   21.4228 H   0  0  0  0  0  0
  -28.4832  -13.7333   21.8372 H   0  0  0  0  0  0
  -25.2801   -9.5647   22.4776 H   0  0  0  0  0  0
  -23.9981   -7.4637   22.7537 H   0  0  0  0  0  0
  -21.0838   -8.8804   19.8980 H   0  0  0  0  0  0
  -22.3748  -10.9682   19.6178 H   0  0  0  0  0  0
  -21.2016   -7.6154   23.9694 H   0  0  0  0  0  0
  -21.1467   -6.0569   25.9076 H   0  0  0  0  0  0
  -22.0606   -2.7608   23.2894 H   0  0  0  0  0  0
  -22.4179  -11.9857   22.4756 H   0  0  0  0  0  0
  -21.1128  -13.1207   22.2648 H   0  0  0  0  0  0
  -24.6556  -15.8500   20.5034 H   0  0  0  0  0  0
  -26.2889  -15.6326   20.1290 H   0  0  0  0  0  0
  -26.7120  -32.5525   23.1174 H   0  0  0  0  0  0
  -25.0084  -33.9777   25.0498 H   0  0  0  0  0  0
  -22.6854  -31.3074   21.4186 H   0  0  0  0  0  0
  -23.3773  -35.9588   23.3226 H   0  0  0  0  0  0
  -24.3583  -36.8997   22.2070 H   0  0  0  0  0  0
  -23.7158  -37.6443   23.6705 H   0  0  0  0  0  0
  -26.0331  -31.5930   20.5904 H   0  0  0  0  0  0
  -26.8177  -30.8891   21.9781 H   0  0  0  0  0  0
  -28.0903  -29.0926   21.1743 H   0  0  0  0  0  0
  -26.0371  -26.0092   18.9421 H   0  0  0  0  0  0
  -23.9825  -27.3216   18.9905 H   0  0  0  0  0  0
  -23.6965  -30.6002   19.4053 H   0  0  0  0  0  0
  -22.7271  -29.2397   19.8813 H   0  0  0  0  0  0
  -25.1267  -36.1959   25.0833 H   0  0  0  0  0  0
  -20.9924  -28.3210   24.1467 H   0  0  0  0  0  0
  -20.5649  -26.2256   23.3626 H   0  0  0  0  0  0
  -21.6629  -26.7419   22.1248 H   0  0  0  0  0  0
  -19.6903  -25.6293   21.1251 H   0  0  0  0  0  0
  -19.6724  -27.3202   20.6757 H   0  0  0  0  0  0
  -17.4203  -26.6734   21.3960 H   0  0  0  0  0  0
  -18.0257  -26.0069   22.8962 H   0  0  0  0  0  0
  -19.7919  -30.7259   24.2297 H   0  0  0  0  0  0
  -17.4999  -31.6267   24.5169 H   0  0  0  0  0  0
  -15.5340  -30.2990   23.7662 H   0  0  0  0  0  0
  -15.8656  -28.0836   22.7048 H   0  0  0  0  0  0
  -24.5908  -30.7075   25.7833 H   0  0  0  0  0  0
  -24.8980  -32.2884   26.4949 H   0  0  0  0  0  0
  -25.8122  -30.8869   27.0228 H   0  0  0  0  0  0
  -26.2752  -29.6777   24.1207 H   0  0  0  0  0  0
  -27.4102  -29.7265   25.4509 H   0  0  0  0  0  0
  -27.8574  -30.4314   23.9143 H   0  0  0  0  0  0
  -27.2798  -33.3617   26.1974 H   0  0  0  0  0  0
  -28.3926  -32.6705   25.0252 H   0  0  0  0  0  0
  -28.0714  -31.8380   26.5380 H   0  0  0  0  0  0
  -28.2575  -38.0114   24.7580 H   0  0  0  0  0  0
  -28.1118  -36.2650   24.6161 H   0  0  0  0  0  0
  -27.2334  -37.1305   25.8863 H   0  0  0  0  0  0
  -20.9298  -29.8713   21.6951 H   0  0  0  0  0  0
  -26.0158  -38.2858   24.1515 H   0  0  0  0  0  0
  -30.3506  -18.8110   18.9128 H   0  0  0  0  0  0
  -30.2168  -21.2109   19.3452 H   0  0  0  0  0  0
  -30.4748  -20.4493   23.5940 H   0  0  0  0  0  0
  -28.7454  -22.6199   20.2947 H   0  0  0  0  0  0
  -31.4117  -16.7508   19.7638 H   0  0  0  0  0  0
  -29.5547  -15.6422   21.9370 H   0  0  0  0  0  0
  -29.6050  -26.2049   22.2512 H   0  0  0  0  0  0
  -30.9787  -25.8575   21.2184 H   0  0  0  0  0  0
  -31.7162  -25.0393   23.3289 H   0  0  0  0  0  0
  -30.1132  -24.5895   23.8204 H   0  0  0  0  0  0
  -27.3690  -24.8756   20.1772 H   0  0  0  0  0  0
  -28.5942  -25.0382   18.9353 H   0  0  0  0  0  0
  -31.3092  -18.2466   24.1721 H   0  0  0  0  0  0
  -31.2397  -16.9650   23.1034 H   0  0  0  0  0  0
  1 25  1  0  0  0
  1 30  2  0  0  0
  1 81  1  0  0  0
  2  3  1  0  0  0
  2 25  1  0  0  0
  2 88  1  0  0  0
  2 89  1  0  0  0
  3  4  1  0  0  0
  3 90  1  0  0  0
  3 91  1  0  0  0
  4  5  1  0  0  0
  4 92  1  0  0  0
  4 93  1  0  0  0
  5  6  1  0  0  0
  5 26  1  0  0  0
  5 94  1  0  0  0
  6 25  1  0  0  0
  6 95  1  0  0  0
  6 96  1  0  0  0
  7  8  2  0  0  0
  7 26  1  0  0  0
  7 29  1  0  0  0
  8  9  1  0  0  0
  8 22  1  0  0  0
  9 10  1  0  0  0
  9 27  2  0  0  0
 10 11  2  0  0  0
 10 15  1  0  0  0
 11 12  1  0  0  0
 11 97  1  0  0  0
 12 13  2  0  0  0
 12 98  1  0  0  0
 13 14  1  0  0  0
 13 31  1  0  0  0
 14 15  2  0  0  0
 14 99  1  0  0  0
 15100  1  0  0  0
 16 17  2  0  0  0
 16 21  1  0  0  0
 16 31  1  0  0  0
 17 18  1  0  0  0
 17101  1  0  0  0
 18 19  2  0  0  0
 18102  1  0  0  0
 19 20  1  0  0  0
 19 24  1  0  0  0
 20 21  2  0  0  0
 20103  1  0  0  0
 21 23  1  0  0  0
 22 28  1  0  0  0
 22 32  2  0  0  0
 26 27  1  0  0  0
 28104  1  0  0  0
 28105  1  0  0  0
 29106  1  0  0  0
 29107  1  0  0  0
 33 34  1  0  0  0
 33 66  1  0  0  0
 33 70  2  0  0  0
 34 36  1  0  0  0
 34 59  1  0  0  0
 34108  1  0  0  0
 35 44  2  0  0  0
 35 45  1  0  0  0
 35 68  1  0  0  0
 36 56  1  0  0  0
 36109  1  0  0  0
 37 39  1  0  0  0
 37 47  1  0  0  0
 37 66  1  0  0  0
 37110  1  0  0  0
 38 43  2  0  0  0
 38 46  1  0  0  0
 38 47  1  0  0  0
 39 64  1  0  0  0
 39 67  2  0  0  0
 40 52  1  0  0  0
 40 53  2  0  0  0
 40 58  1  0  0  0
 41111  1  0  0  0
 41112  1  0  0  0
 41113  1  0  0  0
 41 48  1  0  0  0
 42 43  1  0  0  0
 42 66  1  0  0  0
 42114  1  0  0  0
 42115  1  0  0  0
 43 44  1  0  0  0
 44116  1  0  0  0
 45 46  2  0  0  0
 45117  1  0  0  0
 46118  1  0  0  0
 47119  1  0  0  0
 47120  1  0  0  0
 48 56  1  0  0  0
 48 65  1  0  0  0
 48121  1  0  0  0
 49 50  1  0  0  0
 49 53  1  0  0  0
 49 64  1  0  0  0
 49122  1  0  0  0
 50 51  1  0  0  0
 50123  1  0  0  0
 50124  1  0  0  0
 51 52  1  0  0  0
 51125  1  0  0  0
 51126  1  0  0  0
 52127  1  0  0  0
 52128  1  0  0  0
 53 54  1  0  0  0
 54 55  2  0  0  0
 54129  1  0  0  0
 55 57  1  0  0  0
 55130  1  0  0  0
 56 69  2  0  0  0
 57 58  2  0  0  0
 57131  1  0  0  0
 58132  1  0  0  0
 59 60  1  0  0  0
 59 61  1  0  0  0
 59 62  1  0  0  0
 60133  1  0  0  0
 60134  1  0  0  0
 60135  1  0  0  0
 61136  1  0  0  0
 61137  1  0  0  0
 61138  1  0  0  0
 62139  1  0  0  0
 62140  1  0  0  0
 62141  1  0  0  0
 63 65  1  0  0  0
 63142  1  0  0  0
 63143  1  0  0  0
 63144  1  0  0  0
 64145  1  0  0  0
 65146  1  0  0  0
 68 84  1  0  0  0
 71 72  2  0  0  0
 71 74  1  0  0  0
 71147  1  0  0  0
 72 75  1  0  0  0
 72148  1  0  0  0
 73 75  2  0  0  0
 73 76  1  0  0  0
 73149  1  0  0  0
 74 76  2  0  0  0
 74 80  1  0  0  0
 75 85  1  0  0  0
 76 86  1  0  0  0
 77 78  2  0  0  0
 77 85  1  0  0  0
 77150  1  0  0  0
 78 82  1  0  0  0
 78 84  1  0  0  0
 79 83  1  0  0  0
 79 85  1  0  0  0
 79 87  2  0  0  0
 80 81  2  0  0  0
 80151  1  0  0  0
 81152  1  0  0  0
 82 83  1  0  0  0
 82153  1  0  0  0
 82154  1  0  0  0
 83155  1  0  0  0
 83156  1  0  0  0
 84157  1  0  0  0
 84158  1  0  0  0
 86159  1  0  0  0
 86160  1  0  0  0
M  ISO  4   1 100  68 101  81 100  84 101
M  END
> <chiral flag>
0

> <version>
0

> <s_m_source_file>
/data/baiqing/PycharmProjects/Reinvent-master-3.2/result/LINK_invent/BTK/process_docking_weight1_custom_product_contain_oxygen_bond_distance_aromatic_linkinvent_7_9_3/rearranged_h_0092.sdf

> <i_m_source_file_index>
74

> <r_mmod_Potential_Energy-OPLS-2005>
101.551795959473

> <r_mmod_Stretch_Energy-OPLS-2005>
43.1054382324219

> <r_mmod_Bend_Energy-OPLS-2005>
121.797424316406

> <r_mmod_Torsional_Energy-OPLS-2005>
248.436935424805

> <r_mmod_Improper_Torsional_Energy-OPLS-2005>
8.31713008880615

> <r_mmod_Van_der_Waal_Energy-OPLS-2005>
191.818130493164

> <r_mmod_Electrostatic_Energy-OPLS-2005>
-320.959259033203

> <r_mmod_Solvation_Energy-OPLS-2005>
-211.813217163086

> <b_mmod_Minimization_Converged-OPLS-2005>
0

> <r_mmod_RMS_Derivative-OPLS-2005>
3.44315218925476

$$$$
74
                    3D
 Structure written by MMmdl.
165174  0  0  1  0            999 V2000
  -30.6944  -14.5381   20.4187 C   0  0  0  0  0  0
  -30.4243  -12.2979   19.4461 C   0  0  0  0  0  0
  -29.4885  -12.3919   18.2212 C   0  0  0  0  0  0
  -28.0085  -12.3128   18.6464 C   0  0  0  0  0  0
  -27.6494  -13.1966   19.8744 C   0  0  2  0  0  0
  -28.7148  -13.0727   20.9870 C   0  0  0  0  0  0
  -25.2532  -13.8062   20.5699 C   0  0  0  0  0  0
  -24.1786  -13.0365   20.9125 C   0  0  0  0  0  0
  -24.6350  -11.6832   20.8775 C   0  0  0  0  0  0
  -23.9022  -10.4232   21.0404 C   0  0  0  0  0  0
  -24.3575   -9.4150   21.9178 C   0  0  0  0  0  0
  -23.6248   -8.2190   22.0746 C   0  0  0  0  0  0
  -22.4237   -8.0260   21.3525 C   0  0  0  0  0  0
  -21.9864   -9.0230   20.4630 C   0  0  0  0  0  0
  -22.7203  -10.2089   20.3034 C   0  0  0  0  0  0
  -21.6841   -6.0743   22.5271 C   0  0  0  0  0  0
  -21.4028   -6.5653   23.8208 C   0  0  0  0  0  0
  -21.3617   -5.6805   24.9158 C   0  0  0  0  0  0
  -21.6030   -4.3071   24.7213 C   0  0  0  0  0  0
  -21.8840   -3.8165   23.4339 C   0  0  0  0  0  0
  -21.9186   -4.6978   22.3387 C   0  0  0  0  0  0
  -22.7840  -13.5217   21.1832 C   0  0  0  0  0  0
  -22.1645   -4.2157   21.0966 F   0  0  0  0  0  0
  -21.5581   -3.4563   25.7727 F   0  0  0  0  0  0
  -30.0238  -13.3524   20.3854 N   0  0  0  0  0  0
  -26.3009  -12.9234   20.3553 N   0  0  0  0  0  0
  -25.9307  -11.6405   20.5973 N   0  0  0  0  0  0
  -22.0515  -12.8208   22.0394 N   0  0  0  0  0  0
  -25.4161  -15.1777   20.4131 N   0  0  0  0  0  0
  -31.9144  -14.5998   20.2419 O   0  0  0  0  0  0
  -21.6586   -6.8886   21.4240 O   0  0  0  0  0  0
  -22.3554  -14.5588   20.6777 O   0  0  0  0  0  0
  -24.6066  -31.8697   23.2143 C   0  0  0  0  0  0
  -25.8987  -32.4828   23.8423 C   0  0  1  0  0  0
  -27.2418  -27.4732   20.1152 C   0  0  0  0  0  0
  -25.5880  -33.8630   24.2380 N   0  0  0  0  0  0
  -23.3911  -30.4947   21.5508 C   0  0  2  0  0  0
  -24.8435  -28.9675   20.1105 C   0  0  0  0  0  0
  -22.7343  -29.4675   22.4987 C   0  0  0  0  0  0
  -18.0255  -28.1363   22.8499 C   0  0  0  0  0  0
  -24.1481  -36.7319   23.2641 C   0  0  0  0  0  0
  -25.9105  -30.8589   21.3521 C   0  0  0  0  0  0
  -25.9947  -29.4927   20.7094 C   0  0  0  0  0  0
  -27.1943  -28.7553   20.7139 C   0  0  0  0  0  0
  -26.0849  -26.9665   19.4900 C   0  0  0  0  0  0
  -24.8824  -27.7023   19.4951 C   0  0  0  0  0  0
  -23.5981  -29.8247   20.1644 C   0  0  0  0  0  0
  -25.4090  -36.3127   24.0363 C   0  0  1  0  0  0
  -20.5839  -28.3643   23.1333 C   0  0  2  0  0  0
  -20.6748  -26.9382   22.5425 C   0  0  0  0  0  0
  -19.5737  -26.6380   21.5210 C   0  0  0  0  0  0
  -18.1909  -26.7915   22.1616 C   0  0  0  0  0  0
  -19.1501  -28.8816   23.2918 C   0  0  0  0  0  0
  -18.9439  -30.1428   23.8918 C   0  0  0  0  0  0
  -17.6447  -30.6579   24.0564 C   0  0  0  0  0  0
  -25.9011  -34.9483   23.5168 C   0  0  0  0  0  0
  -16.5335  -29.9083   23.6332 C   0  0  0  0  0  0
  -16.7247  -28.6498   23.0351 C   0  0  0  0  0  0
  -26.4472  -31.6568   25.0700 C   0  0  0  0  0  0
  -25.3787  -31.3623   26.1479 C   0  0  0  0  0  0
  -27.0310  -30.3041   24.5989 C   0  0  0  0  0  0
  -27.6071  -32.4250   25.7457 C   0  0  0  0  0  0
  -27.5578  -37.1805   24.8476 C   0  0  0  0  0  0
  -21.4077  -29.3026   22.3734 N   0  0  0  0  0  0
  -26.4288  -37.3796   23.9427 N   0  0  0  0  0  0
  -24.6545  -31.0861   22.0999 N   0  0  0  0  0  0
  -23.4140  -28.8224   23.3010 O   0  0  0  0  0  0
  -28.3672  -26.6811   20.1316 O   0  0  0  0  0  0
  -26.5546  -34.8921   22.4712 O   0  0  0  0  0  0
  -23.5276  -32.1409   23.7586 O   0  0  0  0  0  0
  -30.8446  -19.1779   20.6597 C   0  0  0  0  0  0
  -28.6515  -18.7267   21.6200 C   0  0  0  0  0  0
  -28.9436  -23.0434   20.1241 C   0  0  0  0  0  0
  -29.6252  -19.6509   21.1841 C   0  0  0  0  0  0
  -31.0334  -17.8051   20.4050 C   0  0  0  0  0  0
  -28.8352  -17.3423   21.3914 C   0  0  0  0  0  0
  -29.9915  -16.8801   20.7066 C   0  0  0  0  0  0
  -29.1874  -23.2581   21.5119 C   0  0  0  0  0  0
  -29.0494  -21.7001   19.9024 C   0  0  0  0  0  0
  -29.3815  -22.0215   22.0735 C   0  0  0  0  0  0
  -29.7560  -15.7672   18.5838 C   0  0  0  0  0  0
  -29.1504  -26.7621   21.3260 C   0  0  0  0  0  0
  -29.9841  -25.4888   21.5420 C   0  0  0  0  0  0
  -29.3539  -21.0419   21.0880 N   0  0  0  0  0  0
  -32.1991  -17.4064   19.7439 N   0  0  0  0  0  0
  -27.8219  -16.4529   21.7550 N   0  0  0  0  0  0
  -29.9430  -15.6077   20.0430 N   0  0  0  0  0  0
  -28.9141  -21.0113   18.7325 O   0  0  0  0  0  0
  -29.6072  -21.7132   23.3798 O   0  0  0  0  0  0
  -29.2116  -24.4611   22.1729 O   0  0  0  0  0  0
  -31.4684  -12.3840   19.1385 H   0  0  0  0  0  0
  -30.3318  -11.3256   19.9308 H   0  0  0  0  0  0
  -29.7075  -11.5784   17.5311 H   0  0  0  0  0  0
  -29.6702  -13.2984   17.6511 H   0  0  0  0  0  0
  -27.8102  -11.2681   18.8869 H   0  0  0  0  0  0
  -27.3576  -12.5517   17.8053 H   0  0  0  0  0  0
  -27.6353  -14.2273   19.5378 H   0  0  0  0  0  0
  -28.7098  -12.0674   21.4114 H   0  0  0  0  0  0
  -28.5101  -13.7519   21.8137 H   0  0  0  0  0  0
  -25.2710   -9.5633   22.4768 H   0  0  0  0  0  0
  -23.9965   -7.4590   22.7476 H   0  0  0  0  0  0
  -21.0774   -8.8744   19.8961 H   0  0  0  0  0  0
  -22.3659  -10.9635   19.6148 H   0  0  0  0  0  0
  -21.2086   -7.6180   23.9713 H   0  0  0  0  0  0
  -21.1390   -6.0531   25.9049 H   0  0  0  0  0  0
  -22.0668   -2.7641   23.2820 H   0  0  0  0  0  0
  -22.4169  -11.9829   22.4671 H   0  0  0  0  0  0
  -21.1182  -13.1283   22.2710 H   0  0  0  0  0  0
  -24.6444  -15.8051   20.6065 H   0  0  0  0  0  0
  -26.3216  -15.6403   20.4959 H   0  0  0  0  0  0
  -26.7048  -32.5590   23.1192 H   0  0  0  0  0  0
  -25.0126  -33.9810   25.0592 H   0  0  0  0  0  0
  -22.6771  -31.3098   21.4137 H   0  0  0  0  0  0
  -23.3744  -35.9652   23.3311 H   0  0  0  0  0  0
  -24.3593  -36.8902   22.2056 H   0  0  0  0  0  0
  -23.7226  -37.6532   23.6622 H   0  0  0  0  0  0
  -25.9966  -31.6226   20.5781 H   0  0  0  0  0  0
  -26.8064  -30.9284   21.9561 H   0  0  0  0  0  0
  -28.0714  -29.1806   21.1801 H   0  0  0  0  0  0
  -26.1104  -25.9931   19.0192 H   0  0  0  0  0  0
  -23.9982  -27.2940   19.0245 H   0  0  0  0  0  0
  -23.6931  -30.5990   19.4019 H   0  0  0  0  0  0
  -22.7255  -29.2364   19.8752 H   0  0  0  0  0  0
  -25.1255  -36.2012   25.0855 H   0  0  0  0  0  0
  -20.9945  -28.3218   24.1449 H   0  0  0  0  0  0
  -20.5652  -26.2243   23.3600 H   0  0  0  0  0  0
  -21.6620  -26.7437   22.1216 H   0  0  0  0  0  0
  -19.6900  -25.6300   21.1221 H   0  0  0  0  0  0
  -19.6693  -27.3205   20.6752 H   0  0  0  0  0  0
  -17.4185  -26.6669   21.4008 H   0  0  0  0  0  0
  -18.0311  -26.0042   22.8996 H   0  0  0  0  0  0
  -19.7921  -30.7232   24.2284 H   0  0  0  0  0  0
  -17.5014  -31.6269   24.5148 H   0  0  0  0  0  0
  -15.5337  -30.2995   23.7656 H   0  0  0  0  0  0
  -15.8643  -28.0836   22.7048 H   0  0  0  0  0  0
  -24.6006  -30.6894   25.7859 H   0  0  0  0  0  0
  -24.8919  -32.2742   26.4936 H   0  0  0  0  0  0
  -25.8211  -30.8838   27.0225 H   0  0  0  0  0  0
  -26.2824  -29.6759   24.1140 H   0  0  0  0  0  0
  -27.4249  -29.7301   25.4388 H   0  0  0  0  0  0
  -27.8572  -30.4418   23.9008 H   0  0  0  0  0  0
  -27.2737  -33.3559   26.2054 H   0  0  0  0  0  0
  -28.3888  -32.6758   25.0275 H   0  0  0  0  0  0
  -28.0714  -31.8328   26.5353 H   0  0  0  0  0  0
  -28.2603  -38.0094   24.7509 H   0  0  0  0  0  0
  -28.1060  -36.2623   24.6304 H   0  0  0  0  0  0
  -27.2299  -37.1465   25.8879 H   0  0  0  0  0  0
  -20.9191  -29.8751   21.6991 H   0  0  0  0  0  0
  -26.0190  -38.2881   24.1417 H   0  0  0  0  0  0
  -31.5836  -19.8990   20.3413 H   0  0  0  0  0  0
  -27.7229  -19.0922   22.0382 H   0  0  0  0  0  0
  -28.7302  -23.7939   19.3728 H   0  0  0  0  0  0
  -29.6718  -16.8160   18.2928 H   0  0  0  0  0  0
  -28.8453  -15.2942   18.2270 H   0  0  0  0  0  0
  -30.5963  -15.3678   18.0141 H   0  0  0  0  0  0
  -29.8223  -27.6164   21.2360 H   0  0  0  0  0  0
  -28.5293  -26.9276   22.2094 H   0  0  0  0  0  0
  -30.8014  -25.7199   22.2273 H   0  0  0  0  0  0
  -30.4570  -25.1827   20.6092 H   0  0  0  0  0  0
  -32.4006  -16.4053   19.7086 H   0  0  0  0  0  0
  -33.0164  -18.0059   19.7130 H   0  0  0  0  0  0
  -27.1812  -16.7426   22.4868 H   0  0  0  0  0  0
  -28.0582  -15.4698   21.8111 H   0  0  0  0  0  0
  -28.7609  -21.6423   18.0350 H   0  0  0  0  0  0
  -29.4922  -22.5185   23.8759 H   0  0  0  0  0  0
  1 25  1  0  0  0
  1 30  2  0  0  0
  1 87  1  0  0  0
  2  3  1  0  0  0
  2 25  1  0  0  0
  2 91  1  0  0  0
  2 92  1  0  0  0
  3  4  1  0  0  0
  3 93  1  0  0  0
  3 94  1  0  0  0
  4  5  1  0  0  0
  4 95  1  0  0  0
  4 96  1  0  0  0
  5  6  1  0  0  0
  5 26  1  0  0  0
  5 97  1  0  0  0
  6 25  1  0  0  0
  6 98  1  0  0  0
  6 99  1  0  0  0
  7  8  2  0  0  0
  7 26  1  0  0  0
  7 29  1  0  0  0
  8  9  1  0  0  0
  8 22  1  0  0  0
  9 10  1  0  0  0
  9 27  2  0  0  0
 10 11  2  0  0  0
 10 15  1  0  0  0
 11 12  1  0  0  0
 11100  1  0  0  0
 12 13  2  0  0  0
 12101  1  0  0  0
 13 14  1  0  0  0
 13 31  1  0  0  0
 14 15  2  0  0  0
 14102  1  0  0  0
 15103  1  0  0  0
 16 17  2  0  0  0
 16 21  1  0  0  0
 16 31  1  0  0  0
 17 18  1  0  0  0
 17104  1  0  0  0
 18 19  2  0  0  0
 18105  1  0  0  0
 19 20  1  0  0  0
 19 24  1  0  0  0
 20 21  2  0  0  0
 20106  1  0  0  0
 21 23  1  0  0  0
 22 28  1  0  0  0
 22 32  2  0  0  0
 26 27  1  0  0  0
 28107  1  0  0  0
 28108  1  0  0  0
 29109  1  0  0  0
 29110  1  0  0  0
 33 34  1  0  0  0
 33 66  1  0  0  0
 33 70  2  0  0  0
 34 36  1  0  0  0
 34 59  1  0  0  0
 34111  1  0  0  0
 35 44  2  0  0  0
 35 45  1  0  0  0
 35 68  1  0  0  0
 36 56  1  0  0  0
 36112  1  0  0  0
 37 39  1  0  0  0
 37 47  1  0  0  0
 37 66  1  0  0  0
 37113  1  0  0  0
 38 43  2  0  0  0
 38 46  1  0  0  0
 38 47  1  0  0  0
 39 64  1  0  0  0
 39 67  2  0  0  0
 40 52  1  0  0  0
 40 53  2  0  0  0
 40 58  1  0  0  0
 41114  1  0  0  0
 41115  1  0  0  0
 41116  1  0  0  0
 41 48  1  0  0  0
 42 43  1  0  0  0
 42 66  1  0  0  0
 42117  1  0  0  0
 42118  1  0  0  0
 43 44  1  0  0  0
 44119  1  0  0  0
 45 46  2  0  0  0
 45120  1  0  0  0
 46121  1  0  0  0
 47122  1  0  0  0
 47123  1  0  0  0
 48 56  1  0  0  0
 48 65  1  0  0  0
 48124  1  0  0  0
 49 50  1  0  0  0
 49 53  1  0  0  0
 49 64  1  0  0  0
 49125  1  0  0  0
 50 51  1  0  0  0
 50126  1  0  0  0
 50127  1  0  0  0
 51 52  1  0  0  0
 51128  1  0  0  0
 51129  1  0  0  0
 52130  1  0  0  0
 52131  1  0  0  0
 53 54  1  0  0  0
 54 55  2  0  0  0
 54132  1  0  0  0
 55 57  1  0  0  0
 55133  1  0  0  0
 56 69  2  0  0  0
 57 58  2  0  0  0
 57134  1  0  0  0
 58135  1  0  0  0
 59 60  1  0  0  0
 59 61  1  0  0  0
 59 62  1  0  0  0
 60136  1  0  0  0
 60137  1  0  0  0
 60138  1  0  0  0
 61139  1  0  0  0
 61140  1  0  0  0
 61141  1  0  0  0
 62142  1  0  0  0
 62143  1  0  0  0
 62144  1  0  0  0
 63 65  1  0  0  0
 63145  1  0  0  0
 63146  1  0  0  0
 63147  1  0  0  0
 64148  1  0  0  0
 65149  1  0  0  0
 68 82  1  0  0  0
 71 74  2  0  0  0
 71 75  1  0  0  0
 71150  1  0  0  0
 72 74  1  0  0  0
 72 76  2  0  0  0
 72151  1  0  0  0
 73 78  1  0  0  0
 73 79  2  0  0  0
 73152  1  0  0  0
 74 84  1  0  0  0
 75 77  2  0  0  0
 75 85  1  0  0  0
 76 77  1  0  0  0
 76 86  1  0  0  0
 77 87  1  0  0  0
 78 80  2  0  0  0
 78 90  1  0  0  0
 79 84  1  0  0  0
 79 88  1  0  0  0
 80 84  1  0  0  0
 80 89  1  0  0  0
 81 87  1  0  0  0
 81153  1  0  0  0
 81154  1  0  0  0
 81155  1  0  0  0
 82 83  1  0  0  0
 82156  1  0  0  0
 82157  1  0  0  0
 83 90  1  0  0  0
 83158  1  0  0  0
 83159  1  0  0  0
 85160  1  0  0  0
 85161  1  0  0  0
 86162  1  0  0  0
 86163  1  0  0  0
 88164  1  0  0  0
 89165  1  0  0  0
M  ISO  4   1 100  68 101  82 101  87 100
M  END
> <chiral flag>
0

> <version>
0

> <s_m_source_file>
/data/baiqing/PycharmProjects/Reinvent-master-3.2/result/LINK_invent/BTK/process_docking_weight1_custom_product_contain_oxygen_bond_distance_aromatic_linkinvent_7_9_3/rearranged_h_0092.sdf

> <i_m_source_file_index>
75

> <r_mmod_Potential_Energy-OPLS-2005>
179.424331665039

> <r_mmod_Stretch_Energy-OPLS-2005>
39.1234092712402

> <r_mmod_Bend_Energy-OPLS-2005>
112.97998046875

> <r_mmod_Torsional_Energy-OPLS-2005>
386.268951416016

> <r_mmod_Improper_Torsional_Energy-OPLS-2005>
35.0694885253906

> <r_mmod_Van_der_Waal_Energy-OPLS-2005>
158.549240112305

> <r_mmod_Electrostatic_Energy-OPLS-2005>
-357.529998779297

> <r_mmod_Solvation_Energy-OPLS-2005>
-225.357284545898

> <b_mmod_Minimization_Converged-OPLS-2005>
0

> <r_mmod_RMS_Derivative-OPLS-2005>
3.09582543373108

$$$$
75
                    3D
 Structure written by MMmdl.
152160  0  0  1  0            999 V2000
  -30.6898  -14.6367   20.4774 C   0  0  0  0  0  0
  -30.4125  -12.3940   19.4419 C   0  0  0  0  0  0
  -29.4905  -12.4849   18.2107 C   0  0  0  0  0  0
  -28.0193  -12.3236   18.6363 C   0  0  0  0  0  0
  -27.6406  -13.2235   19.8449 C   0  0  2  0  0  0
  -28.6913  -13.1414   20.9724 C   0  0  0  0  0  0
  -25.2523  -13.8184   20.5699 C   0  0  0  0  0  0
  -24.1805  -13.0442   20.9211 C   0  0  0  0  0  0
  -24.6384  -11.6912   20.8752 C   0  0  0  0  0  0
  -23.9066  -10.4287   21.0412 C   0  0  0  0  0  0
  -24.3618   -9.4208   21.9187 C   0  0  0  0  0  0
  -23.6288   -8.2243   22.0755 C   0  0  0  0  0  0
  -22.4275   -8.0278   21.3545 C   0  0  0  0  0  0
  -21.9917   -9.0257   20.4655 C   0  0  0  0  0  0
  -22.7240  -10.2132   20.3062 C   0  0  0  0  0  0
  -21.6853   -6.0734   22.5281 C   0  0  0  0  0  0
  -21.4009   -6.5641   23.8214 C   0  0  0  0  0  0
  -21.3652   -5.6796   24.9175 C   0  0  0  0  0  0
  -21.6044   -4.3058   24.7226 C   0  0  0  0  0  0
  -21.8818   -3.8151   23.4351 C   0  0  0  0  0  0
  -21.9194   -4.6968   22.3406 C   0  0  0  0  0  0
  -22.7829  -13.5234   21.1861 C   0  0  0  0  0  0
  -22.1659   -4.2152   21.0986 F   0  0  0  0  0  0
  -21.5629   -3.4545   25.7739 F   0  0  0  0  0  0
  -29.9917  -13.4608   20.3753 N   0  0  0  0  0  0
  -26.2932  -12.9376   20.3285 N   0  0  0  0  0  0
  -25.9309  -11.6527   20.5759 N   0  0  0  0  0  0
  -22.0475  -12.8217   22.0412 N   0  0  0  0  0  0
  -25.4254  -15.1898   20.4079 N   0  0  0  0  0  0
  -31.8872  -14.6403   20.1812 O   0  0  0  0  0  0
  -21.6640   -6.8874   21.4240 O   0  0  0  0  0  0
  -22.3519  -14.5547   20.6715 O   0  0  0  0  0  0
  -24.6298  -31.8612   23.2044 C   0  0  0  0  0  0
  -25.9142  -32.4786   23.8363 C   0  0  1  0  0  0
  -27.1992  -27.3052   20.1124 C   0  0  0  0  0  0
  -25.5953  -33.8584   24.2281 N   0  0  0  0  0  0
  -23.4197  -30.4890   21.5501 C   0  0  2  0  0  0
  -24.8586  -28.9542   20.1088 C   0  0  0  0  0  0
  -22.7491  -29.4627   22.4954 C   0  0  0  0  0  0
  -18.0283  -28.1399   22.8470 C   0  0  0  0  0  0
  -24.1487  -36.7289   23.2635 C   0  0  0  0  0  0
  -25.9648  -30.7912   21.3734 C   0  0  0  0  0  0
  -26.0344  -29.4201   20.7117 C   0  0  0  0  0  0
  -27.2103  -28.6096   20.7022 C   0  0  0  0  0  0
  -25.9955  -26.9046   19.4830 C   0  0  0  0  0  0
  -24.8420  -27.7017   19.4875 C   0  0  0  0  0  0
  -23.6307  -29.8359   20.1622 C   0  0  0  0  0  0
  -25.4104  -36.3085   24.0330 C   0  0  1  0  0  0
  -20.5881  -28.3694   23.1293 C   0  0  2  0  0  0
  -20.6780  -26.9420   22.5414 C   0  0  0  0  0  0
  -19.5754  -26.6386   21.5223 C   0  0  0  0  0  0
  -18.1922  -26.7934   22.1619 C   0  0  0  0  0  0
  -19.1537  -28.8862   23.2874 C   0  0  0  0  0  0
  -18.9465  -30.1460   23.8890 C   0  0  0  0  0  0
  -17.6465  -30.6600   24.0553 C   0  0  0  0  0  0
  -25.9061  -34.9455   23.5101 C   0  0  0  0  0  0
  -16.5348  -29.9092   23.6342 C   0  0  0  0  0  0
  -16.7268  -28.6510   23.0345 C   0  0  0  0  0  0
  -26.4497  -31.6601   25.0742 C   0  0  0  0  0  0
  -25.3715  -31.3768   26.1464 C   0  0  0  0  0  0
  -27.0334  -30.3022   24.6205 C   0  0  0  0  0  0
  -27.6071  -32.4310   25.7505 C   0  0  0  0  0  0
  -27.5576  -37.1784   24.8453 C   0  0  0  0  0  0
  -21.4200  -29.3047   22.3693 N   0  0  0  0  0  0
  -26.4276  -37.3787   23.9432 N   0  0  0  0  0  0
  -24.6911  -31.0635   22.0992 N   0  0  0  0  0  0
  -23.4222  -28.8138   23.3005 O   0  0  0  0  0  0
  -28.2870  -26.4120   20.1709 O   0  0  0  0  0  0
  -26.5625  -34.8918   22.4664 O   0  0  0  0  0  0
  -23.5456  -32.1398   23.7370 O   0  0  0  0  0  0
  -28.5449  -18.7392   20.8115 C   0  0  0  0  0  0
  -28.0732  -20.0850   20.6679 C   0  0  0  0  0  0
  -30.7239  -19.4972   20.1577 C   0  0  0  0  0  0
  -29.9041  -18.4118   20.5754 C   0  0  0  0  0  0
  -30.2585  -20.8344   20.0075 C   0  0  0  0  0  0
  -28.9072  -21.1814   20.2934 C   0  0  0  0  0  0
  -30.5755  -17.0511   20.8752 C   0  0  0  0  0  0
  -27.9596  -24.9665   20.0202 C   0  0  0  0  0  0
  -28.9738  -23.7721   20.2938 C   0  0  0  0  0  0
  -31.1655  -21.7754   19.5293 N   0  0  0  0  0  0
  -29.9982  -15.8207   20.6487 N   0  0  0  0  0  0
  -31.7269  -17.1424   21.3202 O   0  0  0  0  0  0
  -28.3081  -22.4604   20.1726 O   0  0  0  0  0  0
  -31.4554  -12.4798   19.1316 H   0  0  0  0  0  0
  -30.3247  -11.4147   19.9155 H   0  0  0  0  0  0
  -29.7553  -11.7168   17.4826 H   0  0  0  0  0  0
  -29.6292  -13.4433   17.7080 H   0  0  0  0  0  0
  -27.8698  -11.2745   18.8954 H   0  0  0  0  0  0
  -27.3564  -12.5216   17.7928 H   0  0  0  0  0  0
  -27.6414  -14.2471   19.4697 H   0  0  0  0  0  0
  -28.7104  -12.1415   21.4096 H   0  0  0  0  0  0
  -28.4489  -13.8291   21.7840 H   0  0  0  0  0  0
  -25.2769   -9.5676   22.4758 H   0  0  0  0  0  0
  -24.0005   -7.4632   22.7465 H   0  0  0  0  0  0
  -21.0858   -8.8771   19.8954 H   0  0  0  0  0  0
  -22.3708  -10.9670   19.6167 H   0  0  0  0  0  0
  -21.1997   -7.6143   23.9712 H   0  0  0  0  0  0
  -21.1470   -6.0528   25.9076 H   0  0  0  0  0  0
  -22.0606   -2.7613   23.2855 H   0  0  0  0  0  0
  -22.4107  -11.9891   22.4808 H   0  0  0  0  0  0
  -21.1082  -13.1231   22.2599 H   0  0  0  0  0  0
  -24.6607  -15.8466   20.5139 H   0  0  0  0  0  0
  -26.2669  -15.6211   20.0493 H   0  0  0  0  0  0
  -26.7206  -32.5433   23.1102 H   0  0  0  0  0  0
  -25.0102  -33.9736   25.0427 H   0  0  0  0  0  0
  -22.7127  -31.3102   21.4135 H   0  0  0  0  0  0
  -23.3770  -35.9607   23.3273 H   0  0  0  0  0  0
  -24.3585  -36.8943   22.2062 H   0  0  0  0  0  0
  -23.7216  -37.6469   23.6666 H   0  0  0  0  0  0
  -26.0982  -31.5564   20.6076 H   0  0  0  0  0  0
  -26.8468  -30.8374   22.0006 H   0  0  0  0  0  0
  -28.1094  -28.9615   21.1867 H   0  0  0  0  0  0
  -25.8899  -25.9501   18.9913 H   0  0  0  0  0  0
  -23.9402  -27.3359   19.0172 H   0  0  0  0  0  0
  -23.7470  -30.6170   19.4112 H   0  0  0  0  0  0
  -22.7479  -29.2713   19.8556 H   0  0  0  0  0  0
  -25.1277  -36.1928   25.0823 H   0  0  0  0  0  0
  -20.9945  -28.3257   24.1428 H   0  0  0  0  0  0
  -20.5719  -26.2293   23.3612 H   0  0  0  0  0  0
  -21.6637  -26.7467   22.1176 H   0  0  0  0  0  0
  -19.6929  -25.6301   21.1246 H   0  0  0  0  0  0
  -19.6705  -27.3200   20.6762 H   0  0  0  0  0  0
  -17.4198  -26.6681   21.4012 H   0  0  0  0  0  0
  -18.0305  -26.0093   22.9030 H   0  0  0  0  0  0
  -19.7944  -30.7266   24.2254 H   0  0  0  0  0  0
  -17.5028  -31.6280   24.5155 H   0  0  0  0  0  0
  -15.5350  -30.2990   23.7700 H   0  0  0  0  0  0
  -15.8656  -28.0837   22.7071 H   0  0  0  0  0  0
  -24.5895  -30.7098   25.7800 H   0  0  0  0  0  0
  -24.8892  -32.2949   26.4832 H   0  0  0  0  0  0
  -25.8024  -30.8984   27.0273 H   0  0  0  0  0  0
  -26.2909  -29.6787   24.1204 H   0  0  0  0  0  0
  -27.4013  -29.7264   25.4715 H   0  0  0  0  0  0
  -27.8787  -30.4320   23.9440 H   0  0  0  0  0  0
  -27.2717  -33.3636   26.2048 H   0  0  0  0  0  0
  -28.3900  -32.6825   25.0337 H   0  0  0  0  0  0
  -28.0709  -31.8446   26.5450 H   0  0  0  0  0  0
  -28.2558  -38.0120   24.7553 H   0  0  0  0  0  0
  -28.1111  -36.2647   24.6191 H   0  0  0  0  0  0
  -27.2308  -37.1326   25.8862 H   0  0  0  0  0  0
  -20.9381  -29.8801   21.6931 H   0  0  0  0  0  0
  -26.0154  -38.2859   24.1477 H   0  0  0  0  0  0
  -27.8558  -17.9728   21.1391 H   0  0  0  0  0  0
  -27.0300  -20.2829   20.8724 H   0  0  0  0  0  0
  -31.7653  -19.2906   19.9535 H   0  0  0  0  0  0
  -27.0903  -24.7636   20.6474 H   0  0  0  0  0  0
  -27.6440  -24.8141   18.9889 H   0  0  0  0  0  0
  -29.3959  -23.8593   21.2965 H   0  0  0  0  0  0
  -29.7888  -23.8754   19.5818 H   0  0  0  0  0  0
  -32.0025  -21.4242   19.0770 H   0  0  0  0  0  0
  -30.7652  -22.5568   19.0232 H   0  0  0  0  0  0
  -29.0011  -15.7947   20.5274 H   0  0  0  0  0  0
  1 25  1  0  0  0
  1 30  2  0  0  0
  1 81  1  0  0  0
  2  3  1  0  0  0
  2 25  1  0  0  0
  2 84  1  0  0  0
  2 85  1  0  0  0
  3  4  1  0  0  0
  3 86  1  0  0  0
  3 87  1  0  0  0
  4  5  1  0  0  0
  4 88  1  0  0  0
  4 89  1  0  0  0
  5  6  1  0  0  0
  5 26  1  0  0  0
  5 90  1  0  0  0
  6 25  1  0  0  0
  6 91  1  0  0  0
  6 92  1  0  0  0
  7  8  2  0  0  0
  7 26  1  0  0  0
  7 29  1  0  0  0
  8  9  1  0  0  0
  8 22  1  0  0  0
  9 10  1  0  0  0
  9 27  2  0  0  0
 10 11  2  0  0  0
 10 15  1  0  0  0
 11 12  1  0  0  0
 11 93  1  0  0  0
 12 13  2  0  0  0
 12 94  1  0  0  0
 13 14  1  0  0  0
 13 31  1  0  0  0
 14 15  2  0  0  0
 14 95  1  0  0  0
 15 96  1  0  0  0
 16 17  2  0  0  0
 16 21  1  0  0  0
 16 31  1  0  0  0
 17 18  1  0  0  0
 17 97  1  0  0  0
 18 19  2  0  0  0
 18 98  1  0  0  0
 19 20  1  0  0  0
 19 24  1  0  0  0
 20 21  2  0  0  0
 20 99  1  0  0  0
 21 23  1  0  0  0
 22 28  1  0  0  0
 22 32  2  0  0  0
 26 27  1  0  0  0
 28100  1  0  0  0
 28101  1  0  0  0
 29102  1  0  0  0
 29103  1  0  0  0
 33 34  1  0  0  0
 33 66  1  0  0  0
 33 70  2  0  0  0
 34 36  1  0  0  0
 34 59  1  0  0  0
 34104  1  0  0  0
 35 44  2  0  0  0
 35 45  1  0  0  0
 35 68  1  0  0  0
 36 56  1  0  0  0
 36105  1  0  0  0
 37 39  1  0  0  0
 37 47  1  0  0  0
 37 66  1  0  0  0
 37106  1  0  0  0
 38 43  2  0  0  0
 38 46  1  0  0  0
 38 47  1  0  0  0
 39 64  1  0  0  0
 39 67  2  0  0  0
 40 52  1  0  0  0
 40 53  2  0  0  0
 40 58  1  0  0  0
 41107  1  0  0  0
 41108  1  0  0  0
 41109  1  0  0  0
 41 48  1  0  0  0
 42 43  1  0  0  0
 42 66  1  0  0  0
 42110  1  0  0  0
 42111  1  0  0  0
 43 44  1  0  0  0
 44112  1  0  0  0
 45 46  2  0  0  0
 45113  1  0  0  0
 46114  1  0  0  0
 47115  1  0  0  0
 47116  1  0  0  0
 48 56  1  0  0  0
 48 65  1  0  0  0
 48117  1  0  0  0
 49 50  1  0  0  0
 49 53  1  0  0  0
 49 64  1  0  0  0
 49118  1  0  0  0
 50 51  1  0  0  0
 50119  1  0  0  0
 50120  1  0  0  0
 51 52  1  0  0  0
 51121  1  0  0  0
 51122  1  0  0  0
 52123  1  0  0  0
 52124  1  0  0  0
 53 54  1  0  0  0
 54 55  2  0  0  0
 54125  1  0  0  0
 55 57  1  0  0  0
 55126  1  0  0  0
 56 69  2  0  0  0
 57 58  2  0  0  0
 57127  1  0  0  0
 58128  1  0  0  0
 59 60  1  0  0  0
 59 61  1  0  0  0
 59 62  1  0  0  0
 60129  1  0  0  0
 60130  1  0  0  0
 60131  1  0  0  0
 61132  1  0  0  0
 61133  1  0  0  0
 61134  1  0  0  0
 62135  1  0  0  0
 62136  1  0  0  0
 62137  1  0  0  0
 63 65  1  0  0  0
 63138  1  0  0  0
 63139  1  0  0  0
 63140  1  0  0  0
 64141  1  0  0  0
 65142  1  0  0  0
 68 78  1  0  0  0
 71 72  2  0  0  0
 71 74  1  0  0  0
 71143  1  0  0  0
 72 76  1  0  0  0
 72144  1  0  0  0
 73 74  2  0  0  0
 73 75  1  0  0  0
 73145  1  0  0  0
 74 77  1  0  0  0
 75 76  2  0  0  0
 75 80  1  0  0  0
 76 83  1  0  0  0
 77 81  1  0  0  0
 77 82  2  0  0  0
 78 79  1  0  0  0
 78146  1  0  0  0
 78147  1  0  0  0
 79 83  1  0  0  0
 79148  1  0  0  0
 79149  1  0  0  0
 80150  1  0  0  0
 80151  1  0  0  0
 81152  1  0  0  0
M  ISO  4   1 100  68 101  78 101  81 100
M  END
> <chiral flag>
0

> <version>
0

> <s_m_source_file>
/data/baiqing/PycharmProjects/Reinvent-master-3.2/result/LINK_invent/BTK/process_docking_weight1_custom_product_contain_oxygen_bond_distance_aromatic_linkinvent_7_9_3/rearranged_h_0092.sdf

> <i_m_source_file_index>
76

> <r_mmod_Potential_Energy-OPLS-2005>
5.63725662231445

> <r_mmod_Stretch_Energy-OPLS-2005>
83.6613159179688

> <r_mmod_Bend_Energy-OPLS-2005>
172.836929321289

> <r_mmod_Torsional_Energy-OPLS-2005>
238.247604370117

> <r_mmod_Improper_Torsional_Energy-OPLS-2005>
11.0228090286255

> <r_mmod_Van_der_Waal_Energy-OPLS-2005>
166.725143432617

> <r_mmod_Electrostatic_Energy-OPLS-2005>
-487.866424560547

> <r_mmod_Solvation_Energy-OPLS-2005>
-239.389755249023

> <b_mmod_Minimization_Converged-OPLS-2005>
0

> <r_mmod_RMS_Derivative-OPLS-2005>
2.30067896842957

$$$$
76
                    3D
 Structure written by MMmdl.
154163  0  0  1  0            999 V2000
  -30.6106  -14.8028   20.4147 C   0  0  0  0  0  0
  -30.4261  -12.4858   19.4904 C   0  0  0  0  0  0
  -29.5114  -12.5095   18.2460 C   0  0  0  0  0  0
  -28.0394  -12.3255   18.6594 C   0  0  0  0  0  0
  -27.6362  -13.2417   19.8453 C   0  0  2  0  0  0
  -28.6786  -13.2221   20.9838 C   0  0  0  0  0  0
  -25.2481  -13.8225   20.5700 C   0  0  0  0  0  0
  -24.1787  -13.0452   20.9216 C   0  0  0  0  0  0
  -24.6394  -11.6935   20.8758 C   0  0  0  0  0  0
  -23.9081  -10.4302   21.0420 C   0  0  0  0  0  0
  -24.3631   -9.4210   21.9191 C   0  0  0  0  0  0
  -23.6301   -8.2247   22.0758 C   0  0  0  0  0  0
  -22.4281   -8.0287   21.3551 C   0  0  0  0  0  0
  -21.9922   -9.0264   20.4653 C   0  0  0  0  0  0
  -22.7259  -10.2141   20.3064 C   0  0  0  0  0  0
  -21.6852   -6.0741   22.5283 C   0  0  0  0  0  0
  -21.4018   -6.5645   23.8218 C   0  0  0  0  0  0
  -21.3657   -5.6798   24.9178 C   0  0  0  0  0  0
  -21.6041   -4.3060   24.7229 C   0  0  0  0  0  0
  -21.8818   -3.8153   23.4351 C   0  0  0  0  0  0
  -21.9192   -4.6968   22.3408 C   0  0  0  0  0  0
  -22.7804  -13.5222   21.1885 C   0  0  0  0  0  0
  -22.1661   -4.2158   21.0984 F   0  0  0  0  0  0
  -21.5628   -3.4540   25.7739 F   0  0  0  0  0  0
  -29.9766  -13.5742   20.3960 N   0  0  0  0  0  0
  -26.2910  -12.9448   20.3269 N   0  0  0  0  0  0
  -25.9325  -11.6581   20.5763 N   0  0  0  0  0  0
  -22.0454  -12.8201   22.0437 N   0  0  0  0  0  0
  -25.4148  -15.1955   20.4120 N   0  0  0  0  0  0
  -31.8122  -14.8400   20.1336 O   0  0  0  0  0  0
  -21.6640   -6.8887   21.4246 O   0  0  0  0  0  0
  -22.3482  -14.5524   20.6733 O   0  0  0  0  0  0
  -24.6361  -31.8521   23.1949 C   0  0  0  0  0  0
  -25.9169  -32.4734   23.8314 C   0  0  1  0  0  0
  -27.2202  -27.2159   20.1339 C   0  0  0  0  0  0
  -25.5943  -33.8538   24.2233 N   0  0  0  0  0  0
  -23.4351  -30.4743   21.5404 C   0  0  2  0  0  0
  -24.8842  -28.9170   20.1092 C   0  0  0  0  0  0
  -22.7531  -29.4587   22.4902 C   0  0  0  0  0  0
  -18.0299  -28.1391   22.8487 C   0  0  0  0  0  0
  -24.1495  -36.7279   23.2639 C   0  0  0  0  0  0
  -25.9860  -30.7503   21.3827 C   0  0  0  0  0  0
  -26.0594  -29.3695   20.7228 C   0  0  0  0  0  0
  -27.2286  -28.5333   20.7238 C   0  0  0  0  0  0
  -26.0212  -26.8519   19.4780 C   0  0  0  0  0  0
  -24.8732  -27.6680   19.4739 C   0  0  0  0  0  0
  -23.6567  -29.8089   20.1567 C   0  0  0  0  0  0
  -25.4117  -36.3060   24.0323 C   0  0  1  0  0  0
  -20.5906  -28.3711   23.1256 C   0  0  2  0  0  0
  -20.6784  -26.9419   22.5409 C   0  0  0  0  0  0
  -19.5757  -26.6385   21.5218 C   0  0  0  0  0  0
  -18.1940  -26.7930   22.1631 C   0  0  0  0  0  0
  -19.1553  -28.8869   23.2866 C   0  0  0  0  0  0
  -18.9464  -30.1468   23.8890 C   0  0  0  0  0  0
  -17.6461  -30.6588   24.0564 C   0  0  0  0  0  0
  -25.9062  -34.9430   23.5080 C   0  0  0  0  0  0
  -16.5355  -29.9083   23.6333 C   0  0  0  0  0  0
  -16.7284  -28.6502   23.0353 C   0  0  0  0  0  0
  -26.4514  -31.6565   25.0722 C   0  0  0  0  0  0
  -25.3708  -31.3728   26.1422 C   0  0  0  0  0  0
  -27.0359  -30.2966   24.6245 C   0  0  0  0  0  0
  -27.6063  -32.4306   25.7501 C   0  0  0  0  0  0
  -27.5578  -37.1792   24.8463 C   0  0  0  0  0  0
  -21.4235  -29.3051   22.3643 N   0  0  0  0  0  0
  -26.4294  -37.3756   23.9402 N   0  0  0  0  0  0
  -24.7052  -31.0444   22.0950 N   0  0  0  0  0  0
  -23.4213  -28.8131   23.3020 O   0  0  0  0  0  0
  -28.2913  -26.2740   20.2073 O   0  0  0  0  0  0
  -26.5645  -34.8913   22.4658 O   0  0  0  0  0  0
  -23.5496  -32.1372   23.7210 O   0  0  0  0  0  0
  -30.6873  -19.9001   18.7647 C   0  0  0  0  0  0
  -29.5502  -18.6589   20.4734 C   0  0  0  0  0  0
  -30.9720  -17.4709   18.8950 C   0  0  0  0  0  0
  -29.8120  -19.9910   19.8810 C   0  0  0  0  0  0
  -31.2400  -18.7011   18.2744 C   0  0  0  0  0  0
  -30.1297  -17.3752   20.0247 C   0  0  0  0  0  0
  -28.2853  -22.1111   20.8076 C   0  0  0  0  0  0
  -29.7732  -22.5996   19.4694 C   0  0  0  0  0  0
  -28.9686  -23.5292   20.4543 C   0  0  1  0  0  0
  -28.0124  -24.7843   20.0004 C   0  0  0  0  0  0
  -29.3699  -21.3976   20.2439 N   0  0  0  0  0  0
  -32.0696  -18.7296   17.1512 N   0  0  0  0  0  0
  -29.8730  -15.9890   20.5701 N   0  0  0  0  0  0
  -27.2388  -21.7200   21.2821 O   0  0  0  0  0  0
  -31.4693  -12.5961   19.1893 H   0  0  0  0  0  0
  -30.3656  -11.5211   19.9960 H   0  0  0  0  0  0
  -29.8051  -11.7264   17.5465 H   0  0  0  0  0  0
  -29.6293  -13.4554   17.7143 H   0  0  0  0  0  0
  -27.9085  -11.2795   18.9386 H   0  0  0  0  0  0
  -27.3791  -12.4960   17.8084 H   0  0  0  0  0  0
  -27.6180  -14.2547   19.4424 H   0  0  0  0  0  0
  -28.7217  -12.2395   21.4549 H   0  0  0  0  0  0
  -28.4030  -13.9287   21.7681 H   0  0  0  0  0  0
  -25.2777   -9.5672   22.4765 H   0  0  0  0  0  0
  -24.0002   -7.4634   22.7475 H   0  0  0  0  0  0
  -21.0852   -8.8795   19.8959 H   0  0  0  0  0  0
  -22.3726  -10.9681   19.6175 H   0  0  0  0  0  0
  -21.2010   -7.6154   23.9728 H   0  0  0  0  0  0
  -21.1480   -6.0526   25.9085 H   0  0  0  0  0  0
  -22.0593   -2.7615   23.2851 H   0  0  0  0  0  0
  -22.4076  -11.9853   22.4803 H   0  0  0  0  0  0
  -21.1077  -13.1229   22.2679 H   0  0  0  0  0  0
  -24.6435  -15.8449   20.5223 H   0  0  0  0  0  0
  -26.2584  -15.6384   20.0715 H   0  0  0  0  0  0
  -26.7237  -32.5371   23.1056 H   0  0  0  0  0  0
  -25.0077  -33.9669   25.0368 H   0  0  0  0  0  0
  -22.7335  -31.2978   21.3926 H   0  0  0  0  0  0
  -23.3761  -35.9608   23.3302 H   0  0  0  0  0  0
  -24.3590  -36.8905   22.2055 H   0  0  0  0  0  0
  -23.7249  -37.6474   23.6672 H   0  0  0  0  0  0
  -26.1310  -31.5104   20.6138 H   0  0  0  0  0  0
  -26.8602  -30.7989   22.0204 H   0  0  0  0  0  0
  -28.1230  -28.8751   21.2257 H   0  0  0  0  0  0
  -25.9325  -25.9021   18.9738 H   0  0  0  0  0  0
  -23.9756  -27.3183   18.9818 H   0  0  0  0  0  0
  -23.7828  -30.5876   19.4037 H   0  0  0  0  0  0
  -22.7742  -29.2459   19.8496 H   0  0  0  0  0  0
  -25.1299  -36.1910   25.0817 H   0  0  0  0  0  0
  -20.9990  -28.3305   24.1379 H   0  0  0  0  0  0
  -20.5680  -26.2321   23.3620 H   0  0  0  0  0  0
  -21.6646  -26.7430   22.1198 H   0  0  0  0  0  0
  -19.6915  -25.6294   21.1252 H   0  0  0  0  0  0
  -19.6694  -27.3197   20.6748 H   0  0  0  0  0  0
  -17.4197  -26.6685   21.4042 H   0  0  0  0  0  0
  -18.0340  -26.0071   22.9025 H   0  0  0  0  0  0
  -19.7938  -30.7291   24.2252 H   0  0  0  0  0  0
  -17.5009  -31.6263   24.5172 H   0  0  0  0  0  0
  -15.5353  -30.2977   23.7652 H   0  0  0  0  0  0
  -15.8691  -28.0817   22.7061 H   0  0  0  0  0  0
  -24.5912  -30.7052   25.7740 H   0  0  0  0  0  0
  -24.8865  -32.2893   26.4795 H   0  0  0  0  0  0
  -25.7997  -30.8939   27.0233 H   0  0  0  0  0  0
  -26.2950  -29.6710   24.1251 H   0  0  0  0  0  0
  -27.3997  -29.7239   25.4787 H   0  0  0  0  0  0
  -27.8858  -30.4219   23.9532 H   0  0  0  0  0  0
  -27.2678  -33.3625   26.2047 H   0  0  0  0  0  0
  -28.3893  -32.6830   25.0337 H   0  0  0  0  0  0
  -28.0716  -31.8445   26.5438 H   0  0  0  0  0  0
  -28.2580  -38.0097   24.7489 H   0  0  0  0  0  0
  -28.1086  -36.2619   24.6313 H   0  0  0  0  0  0
  -27.2292  -37.1461   25.8865 H   0  0  0  0  0  0
  -20.9435  -29.8772   21.6835 H   0  0  0  0  0  0
  -26.0180  -38.2835   24.1389 H   0  0  0  0  0  0
  -30.9619  -20.7962   18.2297 H   0  0  0  0  0  0
  -28.8880  -18.6284   21.3271 H   0  0  0  0  0  0
  -31.4162  -16.5854   18.4661 H   0  0  0  0  0  0
  -30.8481  -22.7904   19.4702 H   0  0  0  0  0  0
  -29.3740  -22.6046   18.4520 H   0  0  0  0  0  0
  -29.6159  -23.8401   21.2743 H   0  0  0  0  0  0
  -27.0490  -24.6016   20.4775 H   0  0  0  0  0  0
  -27.8214  -24.6655   18.9334 H   0  0  0  0  0  0
  -32.0520  -19.5387   16.5374 H   0  0  0  0  0  0
  -32.2577  -17.8640   16.6539 H   0  0  0  0  0  0
  -28.9586  -15.8529   20.9758 H   0  0  0  0  0  0
  1 25  1  0  0  0
  1 30  2  0  0  0
  1 83  1  0  0  0
  2  3  1  0  0  0
  2 25  1  0  0  0
  2 85  1  0  0  0
  2 86  1  0  0  0
  3  4  1  0  0  0
  3 87  1  0  0  0
  3 88  1  0  0  0
  4  5  1  0  0  0
  4 89  1  0  0  0
  4 90  1  0  0  0
  5  6  1  0  0  0
  5 26  1  0  0  0
  5 91  1  0  0  0
  6 25  1  0  0  0
  6 92  1  0  0  0
  6 93  1  0  0  0
  7  8  2  0  0  0
  7 26  1  0  0  0
  7 29  1  0  0  0
  8  9  1  0  0  0
  8 22  1  0  0  0
  9 10  1  0  0  0
  9 27  2  0  0  0
 10 11  2  0  0  0
 10 15  1  0  0  0
 11 12  1  0  0  0
 11 94  1  0  0  0
 12 13  2  0  0  0
 12 95  1  0  0  0
 13 14  1  0  0  0
 13 31  1  0  0  0
 14 15  2  0  0  0
 14 96  1  0  0  0
 15 97  1  0  0  0
 16 17  2  0  0  0
 16 21  1  0  0  0
 16 31  1  0  0  0
 17 18  1  0  0  0
 17 98  1  0  0  0
 18 19  2  0  0  0
 18 99  1  0  0  0
 19 20  1  0  0  0
 19 24  1  0  0  0
 20 21  2  0  0  0
 20100  1  0  0  0
 21 23  1  0  0  0
 22 28  1  0  0  0
 22 32  2  0  0  0
 26 27  1  0  0  0
 28101  1  0  0  0
 28102  1  0  0  0
 29103  1  0  0  0
 29104  1  0  0  0
 33 34  1  0  0  0
 33 66  1  0  0  0
 33 70  2  0  0  0
 34 36  1  0  0  0
 34 59  1  0  0  0
 34105  1  0  0  0
 35 44  2  0  0  0
 35 45  1  0  0  0
 35 68  1  0  0  0
 36 56  1  0  0  0
 36106  1  0  0  0
 37 39  1  0  0  0
 37 47  1  0  0  0
 37 66  1  0  0  0
 37107  1  0  0  0
 38 43  2  0  0  0
 38 46  1  0  0  0
 38 47  1  0  0  0
 39 64  1  0  0  0
 39 67  2  0  0  0
 40 52  1  0  0  0
 40 53  2  0  0  0
 40 58  1  0  0  0
 41108  1  0  0  0
 41109  1  0  0  0
 41110  1  0  0  0
 41 48  1  0  0  0
 42 43  1  0  0  0
 42 66  1  0  0  0
 42111  1  0  0  0
 42112  1  0  0  0
 43 44  1  0  0  0
 44113  1  0  0  0
 45 46  2  0  0  0
 45114  1  0  0  0
 46115  1  0  0  0
 47116  1  0  0  0
 47117  1  0  0  0
 48 56  1  0  0  0
 48 65  1  0  0  0
 48118  1  0  0  0
 49 50  1  0  0  0
 49 53  1  0  0  0
 49 64  1  0  0  0
 49119  1  0  0  0
 50 51  1  0  0  0
 50120  1  0  0  0
 50121  1  0  0  0
 51 52  1  0  0  0
 51122  1  0  0  0
 51123  1  0  0  0
 52124  1  0  0  0
 52125  1  0  0  0
 53 54  1  0  0  0
 54 55  2  0  0  0
 54126  1  0  0  0
 55 57  1  0  0  0
 55127  1  0  0  0
 56 69  2  0  0  0
 57 58  2  0  0  0
 57128  1  0  0  0
 58129  1  0  0  0
 59 60  1  0  0  0
 59 61  1  0  0  0
 59 62  1  0  0  0
 60130  1  0  0  0
 60131  1  0  0  0
 60132  1  0  0  0
 61133  1  0  0  0
 61134  1  0  0  0
 61135  1  0  0  0
 62136  1  0  0  0
 62137  1  0  0  0
 62138  1  0  0  0
 63 65  1  0  0  0
 63139  1  0  0  0
 63140  1  0  0  0
 63141  1  0  0  0
 64142  1  0  0  0
 65143  1  0  0  0
 68 80  1  0  0  0
 71 74  2  0  0  0
 71 75  1  0  0  0
 71144  1  0  0  0
 72 74  1  0  0  0
 72 76  2  0  0  0
 72145  1  0  0  0
 73 75  2  0  0  0
 73 76  1  0  0  0
 73146  1  0  0  0
 74 81  1  0  0  0
 75 82  1  0  0  0
 76 83  1  0  0  0
 77 79  1  0  0  0
 77 81  1  0  0  0
 77 84  2  0  0  0
 78 79  1  0  0  0
 78 81  1  0  0  0
 78147  1  0  0  0
 78148  1  0  0  0
 79 80  1  0  0  0
 79149  1  0  0  0
 80150  1  0  0  0
 80151  1  0  0  0
 82152  1  0  0  0
 82153  1  0  0  0
 83154  1  0  0  0
M  ISO  4   1 100  68 101  80 101  83 100
M  END
> <chiral flag>
0

> <version>
0

> <s_m_source_file>
/data/baiqing/PycharmProjects/Reinvent-master-3.2/result/LINK_invent/BTK/process_docking_weight1_custom_product_contain_oxygen_bond_distance_aromatic_linkinvent_7_9_3/rearranged_h_0092.sdf

> <i_m_source_file_index>
77

> <r_mmod_Potential_Energy-OPLS-2005>
346.833129882812

> <r_mmod_Stretch_Energy-OPLS-2005>
170.298706054688

> <r_mmod_Bend_Energy-OPLS-2005>
227.548721313477

> <r_mmod_Torsional_Energy-OPLS-2005>
240.212738037109

> <r_mmod_Improper_Torsional_Energy-OPLS-2005>
9.12782955169678

> <r_mmod_Van_der_Waal_Energy-OPLS-2005>
145.471664428711

> <r_mmod_Electrostatic_Energy-OPLS-2005>
-323.483001708984

> <r_mmod_Solvation_Energy-OPLS-2005>
-239.001098632812

> <b_mmod_Minimization_Converged-OPLS-2005>
0

> <r_mmod_RMS_Derivative-OPLS-2005>
1.51829838752747

$$$$
77
                    3D
 Structure written by MMmdl.
158167  0  0  1  0            999 V2000
  -30.6261  -14.6423   20.5164 C   0  0  0  0  0  0
  -30.4388  -12.3961   19.4628 C   0  0  0  0  0  0
  -29.5120  -12.5132   18.2319 C   0  0  0  0  0  0
  -28.0342  -12.3511   18.6403 C   0  0  0  0  0  0
  -27.6566  -13.2198   19.8700 C   0  0  2  0  0  0
  -28.6986  -13.0709   21.0019 C   0  0  0  0  0  0
  -25.2564  -13.8174   20.5693 C   0  0  0  0  0  0
  -24.1829  -13.0435   20.9182 C   0  0  0  0  0  0
  -24.6402  -11.6910   20.8733 C   0  0  0  0  0  0
  -23.9068  -10.4293   21.0403 C   0  0  0  0  0  0
  -24.3619   -9.4208   21.9181 C   0  0  0  0  0  0
  -23.6294   -8.2244   22.0754 C   0  0  0  0  0  0
  -22.4276   -8.0281   21.3547 C   0  0  0  0  0  0
  -21.9909   -9.0255   20.4646 C   0  0  0  0  0  0
  -22.7240  -10.2132   20.3053 C   0  0  0  0  0  0
  -21.6849   -6.0735   22.5282 C   0  0  0  0  0  0
  -21.4013   -6.5639   23.8216 C   0  0  0  0  0  0
  -21.3658   -5.6788   24.9176 C   0  0  0  0  0  0
  -21.6045   -4.3052   24.7223 C   0  0  0  0  0  0
  -21.8816   -3.8146   23.4343 C   0  0  0  0  0  0
  -21.9194   -4.6964   22.3399 C   0  0  0  0  0  0
  -22.7851  -13.5222   21.1848 C   0  0  0  0  0  0
  -22.1661   -4.2153   21.0975 F   0  0  0  0  0  0
  -21.5628   -3.4528   25.7734 F   0  0  0  0  0  0
  -30.0164  -13.4155   20.4462 N   0  0  0  0  0  0
  -26.3007  -12.9365   20.3350 N   0  0  0  0  0  0
  -25.9336  -11.6513   20.5763 N   0  0  0  0  0  0
  -22.0492  -12.8218   22.0404 N   0  0  0  0  0  0
  -25.4260  -15.1895   20.4120 N   0  0  0  0  0  0
  -31.7724  -14.8077   20.0853 O   0  0  0  0  0  0
  -21.6637   -6.8883   21.4245 O   0  0  0  0  0  0
  -22.3535  -14.5528   20.6701 O   0  0  0  0  0  0
  -24.6258  -31.8604   23.2030 C   0  0  0  0  0  0
  -25.9106  -32.4784   23.8356 C   0  0  1  0  0  0
  -27.2178  -27.3162   20.1223 C   0  0  0  0  0  0
  -25.5928  -33.8582   24.2283 N   0  0  0  0  0  0
  -23.4198  -30.4852   21.5455 C   0  0  2  0  0  0
  -24.8657  -28.9445   20.1077 C   0  0  0  0  0  0
  -22.7478  -29.4630   22.4932 C   0  0  0  0  0  0
  -18.0288  -28.1381   22.8495 C   0  0  0  0  0  0
  -24.1490  -36.7286   23.2637 C   0  0  0  0  0  0
  -25.9615  -30.7910   21.3754 C   0  0  0  0  0  0
  -26.0345  -29.4197   20.7154 C   0  0  0  0  0  0
  -27.2146  -28.6177   20.7126 C   0  0  0  0  0  0
  -26.0288  -26.9026   19.4764 C   0  0  0  0  0  0
  -24.8650  -27.6921   19.4777 C   0  0  0  0  0  0
  -23.6335  -29.8238   20.1595 C   0  0  0  0  0  0
  -25.4114  -36.3087   24.0333 C   0  0  1  0  0  0
  -20.5891  -28.3684   23.1281 C   0  0  2  0  0  0
  -20.6776  -26.9402   22.5422 C   0  0  0  0  0  0
  -19.5752  -26.6382   21.5220 C   0  0  0  0  0  0
  -18.1930  -26.7934   22.1623 C   0  0  0  0  0  0
  -19.1544  -28.8849   23.2887 C   0  0  0  0  0  0
  -18.9468  -30.1455   23.8896 C   0  0  0  0  0  0
  -17.6466  -30.6582   24.0570 C   0  0  0  0  0  0
  -25.9055  -34.9460   23.5108 C   0  0  0  0  0  0
  -16.5354  -29.9084   23.6334 C   0  0  0  0  0  0
  -16.7275  -28.6505   23.0351 C   0  0  0  0  0  0
  -26.4489  -31.6591   25.0725 C   0  0  0  0  0  0
  -25.3724  -31.3742   26.1457 C   0  0  0  0  0  0
  -27.0323  -30.3017   24.6170 C   0  0  0  0  0  0
  -27.6055  -32.4321   25.7483 C   0  0  0  0  0  0
  -27.5593  -37.1779   24.8448 C   0  0  0  0  0  0
  -21.4192  -29.3036   22.3675 N   0  0  0  0  0  0
  -26.4284  -37.3788   23.9428 N   0  0  0  0  0  0
  -24.6877  -31.0625   22.0979 N   0  0  0  0  0  0
  -23.4207  -28.8172   23.3008 O   0  0  0  0  0  0
  -28.3214  -26.4486   20.1974 O   0  0  0  0  0  0
  -26.5622  -34.8926   22.4674 O   0  0  0  0  0  0
  -23.5421  -32.1397   23.7358 O   0  0  0  0  0  0
  -30.2657  -19.2361   19.5083 C   0  0  0  0  0  0
  -29.2649  -19.3844   21.6860 C   0  0  0  0  0  0
  -29.7184  -20.0760   20.5264 C   0  0  0  0  0  0
  -30.3716  -17.8152   19.6298 C   0  0  0  0  0  0
  -29.3656  -17.9636   21.8219 C   0  0  0  0  0  0
  -29.9231  -17.1377   20.8026 C   0  0  0  0  0  0
  -30.7022  -22.2895   19.8910 C   0  0  0  0  0  0
  -28.7070  -22.4274   20.7936 C   0  0  0  0  0  0
  -30.4141  -23.7950   19.8716 C   0  0  0  0  0  0
  -29.1141  -23.9402   20.6637 C   0  0  1  0  0  0
  -28.0603  -24.9883   20.0905 C   0  0  0  0  0  0
  -29.6881  -21.5588   20.4023 N   0  0  0  0  0  0
  -30.9051  -17.0979   18.5592 N   0  0  0  0  0  0
  -28.9141  -17.3622   23.0005 N   0  0  0  0  0  0
  -29.8640  -15.6805   20.9775 N   0  0  0  0  0  0
  -31.7835  -21.8463   19.4864 O   0  0  0  0  0  0
  -27.5968  -22.0889   21.2202 O   0  0  0  0  0  0
  -31.4817  -12.5165   19.1649 H   0  0  0  0  0  0
  -30.3690  -11.3996   19.9012 H   0  0  0  0  0  0
  -29.7798  -11.7623   17.4873 H   0  0  0  0  0  0
  -29.6563  -13.4831   17.7527 H   0  0  0  0  0  0
  -27.8697  -11.2979   18.8690 H   0  0  0  0  0  0
  -27.3807  -12.5826   17.7983 H   0  0  0  0  0  0
  -27.6776  -14.2573   19.5345 H   0  0  0  0  0  0
  -28.7098  -12.0480   21.3801 H   0  0  0  0  0  0
  -28.4391  -13.6986   21.8558 H   0  0  0  0  0  0
  -25.2766   -9.5677   22.4751 H   0  0  0  0  0  0
  -24.0004   -7.4627   22.7466 H   0  0  0  0  0  0
  -21.0842   -8.8767   19.8948 H   0  0  0  0  0  0
  -22.3699  -10.9667   19.6156 H   0  0  0  0  0  0
  -21.2001   -7.6149   23.9720 H   0  0  0  0  0  0
  -21.1480   -6.0518   25.9081 H   0  0  0  0  0  0
  -22.0596   -2.7610   23.2835 H   0  0  0  0  0  0
  -22.4100  -11.9870   22.4784 H   0  0  0  0  0  0
  -21.1115  -13.1252   22.2611 H   0  0  0  0  0  0
  -24.6638  -15.8467   20.5368 H   0  0  0  0  0  0
  -26.2882  -15.6339   20.1219 H   0  0  0  0  0  0
  -26.7173  -32.5448   23.1101 H   0  0  0  0  0  0
  -25.0097  -33.9730   25.0446 H   0  0  0  0  0  0
  -22.7141  -31.3067   21.4049 H   0  0  0  0  0  0
  -23.3779  -35.9587   23.3264 H   0  0  0  0  0  0
  -24.3604  -36.8938   22.2061 H   0  0  0  0  0  0
  -23.7198  -37.6460   23.6674 H   0  0  0  0  0  0
  -26.0980  -31.5559   20.6101 H   0  0  0  0  0  0
  -26.8402  -30.8344   22.0071 H   0  0  0  0  0  0
  -28.1089  -28.9755   21.2038 H   0  0  0  0  0  0
  -25.9661  -25.9490   18.9749 H   0  0  0  0  0  0
  -23.9710  -27.3252   18.9927 H   0  0  0  0  0  0
  -23.7518  -30.6017   19.4040 H   0  0  0  0  0  0
  -22.7527  -29.2539   19.8577 H   0  0  0  0  0  0
  -25.1287  -36.1933   25.0822 H   0  0  0  0  0  0
  -20.9990  -28.3250   24.1397 H   0  0  0  0  0  0
  -20.5671  -26.2293   23.3626 H   0  0  0  0  0  0
  -21.6643  -26.7419   22.1211 H   0  0  0  0  0  0
  -19.6913  -25.6297   21.1238 H   0  0  0  0  0  0
  -19.6696  -27.3206   20.6761 H   0  0  0  0  0  0
  -17.4213  -26.6704   21.4011 H   0  0  0  0  0  0
  -18.0309  -26.0067   22.9002 H   0  0  0  0  0  0
  -19.7944  -30.7278   24.2252 H   0  0  0  0  0  0
  -17.5021  -31.6259   24.5180 H   0  0  0  0  0  0
  -15.5356  -30.2983   23.7661 H   0  0  0  0  0  0
  -15.8681  -28.0826   22.7043 H   0  0  0  0  0  0
  -24.5905  -30.7073   25.7805 H   0  0  0  0  0  0
  -24.8907  -32.2917   26.4848 H   0  0  0  0  0  0
  -25.8059  -30.8959   27.0250 H   0  0  0  0  0  0
  -26.2893  -29.6775   24.1196 H   0  0  0  0  0  0
  -27.4034  -29.7256   25.4655 H   0  0  0  0  0  0
  -27.8758  -30.4312   23.9386 H   0  0  0  0  0  0
  -27.2675  -33.3630   26.2043 H   0  0  0  0  0  0
  -28.3867  -32.6860   25.0307 H   0  0  0  0  0  0
  -28.0723  -31.8458   26.5408 H   0  0  0  0  0  0
  -28.2552  -38.0135   24.7586 H   0  0  0  0  0  0
  -28.1148  -36.2674   24.6150 H   0  0  0  0  0  0
  -27.2341  -37.1266   25.8853 H   0  0  0  0  0  0
  -20.9371  -29.8784   21.6909 H   0  0  0  0  0  0
  -26.0167  -38.2848   24.1492 H   0  0  0  0  0  0
  -30.6181  -19.6976   18.5960 H   0  0  0  0  0  0
  -28.8468  -19.9579   22.5019 H   0  0  0  0  0  0
  -30.2973  -24.1256   18.8396 H   0  0  0  0  0  0
  -31.2321  -24.3541   20.3251 H   0  0  0  0  0  0
  -29.3595  -24.2545   21.6786 H   0  0  0  0  0  0
  -27.1226  -24.7797   20.6090 H   0  0  0  0  0  0
  -27.8821  -24.7514   19.0408 H   0  0  0  0  0  0
  -31.4959  -17.6159   17.9183 H   0  0  0  0  0  0
  -31.3427  -16.2172   18.8346 H   0  0  0  0  0  0
  -28.7558  -17.9712   23.7963 H   0  0  0  0  0  0
  -29.3968  -16.5145   23.2794 H   0  0  0  0  0  0
  -29.0375  -15.3855   21.4729 H   0  0  0  0  0  0
  1 25  1  0  0  0
  1 30  2  0  0  0
  1 85  1  0  0  0
  2  3  1  0  0  0
  2 25  1  0  0  0
  2 88  1  0  0  0
  2 89  1  0  0  0
  3  4  1  0  0  0
  3 90  1  0  0  0
  3 91  1  0  0  0
  4  5  1  0  0  0
  4 92  1  0  0  0
  4 93  1  0  0  0
  5  6  1  0  0  0
  5 26  1  0  0  0
  5 94  1  0  0  0
  6 25  1  0  0  0
  6 95  1  0  0  0
  6 96  1  0  0  0
  7  8  2  0  0  0
  7 26  1  0  0  0
  7 29  1  0  0  0
  8  9  1  0  0  0
  8 22  1  0  0  0
  9 10  1  0  0  0
  9 27  2  0  0  0
 10 11  2  0  0  0
 10 15  1  0  0  0
 11 12  1  0  0  0
 11 97  1  0  0  0
 12 13  2  0  0  0
 12 98  1  0  0  0
 13 14  1  0  0  0
 13 31  1  0  0  0
 14 15  2  0  0  0
 14 99  1  0  0  0
 15100  1  0  0  0
 16 17  2  0  0  0
 16 21  1  0  0  0
 16 31  1  0  0  0
 17 18  1  0  0  0
 17101  1  0  0  0
 18 19  2  0  0  0
 18102  1  0  0  0
 19 20  1  0  0  0
 19 24  1  0  0  0
 20 21  2  0  0  0
 20103  1  0  0  0
 21 23  1  0  0  0
 22 28  1  0  0  0
 22 32  2  0  0  0
 26 27  1  0  0  0
 28104  1  0  0  0
 28105  1  0  0  0
 29106  1  0  0  0
 29107  1  0  0  0
 33 34  1  0  0  0
 33 66  1  0  0  0
 33 70  2  0  0  0
 34 36  1  0  0  0
 34 59  1  0  0  0
 34108  1  0  0  0
 35 44  2  0  0  0
 35 45  1  0  0  0
 35 68  1  0  0  0
 36 56  1  0  0  0
 36109  1  0  0  0
 37 39  1  0  0  0
 37 47  1  0  0  0
 37 66  1  0  0  0
 37110  1  0  0  0
 38 43  2  0  0  0
 38 46  1  0  0  0
 38 47  1  0  0  0
 39 64  1  0  0  0
 39 67  2  0  0  0
 40 52  1  0  0  0
 40 53  2  0  0  0
 40 58  1  0  0  0
 41111  1  0  0  0
 41112  1  0  0  0
 41113  1  0  0  0
 41 48  1  0  0  0
 42 43  1  0  0  0
 42 66  1  0  0  0
 42114  1  0  0  0
 42115  1  0  0  0
 43 44  1  0  0  0
 44116  1  0  0  0
 45 46  2  0  0  0
 45117  1  0  0  0
 46118  1  0  0  0
 47119  1  0  0  0
 47120  1  0  0  0
 48 56  1  0  0  0
 48 65  1  0  0  0
 48121  1  0  0  0
 49 50  1  0  0  0
 49 53  1  0  0  0
 49 64  1  0  0  0
 49122  1  0  0  0
 50 51  1  0  0  0
 50123  1  0  0  0
 50124  1  0  0  0
 51 52  1  0  0  0
 51125  1  0  0  0
 51126  1  0  0  0
 52127  1  0  0  0
 52128  1  0  0  0
 53 54  1  0  0  0
 54 55  2  0  0  0
 54129  1  0  0  0
 55 57  1  0  0  0
 55130  1  0  0  0
 56 69  2  0  0  0
 57 58  2  0  0  0
 57131  1  0  0  0
 58132  1  0  0  0
 59 60  1  0  0  0
 59 61  1  0  0  0
 59 62  1  0  0  0
 60133  1  0  0  0
 60134  1  0  0  0
 60135  1  0  0  0
 61136  1  0  0  0
 61137  1  0  0  0
 61138  1  0  0  0
 62139  1  0  0  0
 62140  1  0  0  0
 62141  1  0  0  0
 63 65  1  0  0  0
 63142  1  0  0  0
 63143  1  0  0  0
 63144  1  0  0  0
 64145  1  0  0  0
 65146  1  0  0  0
 68 81  1  0  0  0
 71 73  2  0  0  0
 71 74  1  0  0  0
 71147  1  0  0  0
 72 73  1  0  0  0
 72 75  2  0  0  0
 72148  1  0  0  0
 73 82  1  0  0  0
 74 76  2  0  0  0
 74 83  1  0  0  0
 75 76  1  0  0  0
 75 84  1  0  0  0
 76 85  1  0  0  0
 77 79  1  0  0  0
 77 82  1  0  0  0
 77 86  2  0  0  0
 78 80  1  0  0  0
 78 82  1  0  0  0
 78 87  2  0  0  0
 79 80  1  0  0  0
 79149  1  0  0  0
 79150  1  0  0  0
 80 81  1  0  0  0
 80151  1  0  0  0
 81152  1  0  0  0
 81153  1  0  0  0
 83154  1  0  0  0
 83155  1  0  0  0
 84156  1  0  0  0
 84157  1  0  0  0
 85158  1  0  0  0
M  ISO  4   1 100  68 101  81 101  85 100
M  END
> <chiral flag>
0

> <version>
0

> <s_m_source_file>
/data/baiqing/PycharmProjects/Reinvent-master-3.2/result/LINK_invent/BTK/process_docking_weight1_custom_product_contain_oxygen_bond_distance_aromatic_linkinvent_7_9_3/rearranged_h_0092.sdf

> <i_m_source_file_index>
78

> <r_mmod_Potential_Energy-OPLS-2005>
-43.8115463256836

> <r_mmod_Stretch_Energy-OPLS-2005>
85.5594024658203

> <r_mmod_Bend_Energy-OPLS-2005>
169.558288574219

> <r_mmod_Torsional_Energy-OPLS-2005>
279.523681640625

> <r_mmod_Improper_Torsional_Energy-OPLS-2005>
12.5445413589478

> <r_mmod_Van_der_Waal_Energy-OPLS-2005>
153.368591308594

> <r_mmod_Electrostatic_Energy-OPLS-2005>
-549.950012207031

> <r_mmod_Solvation_Energy-OPLS-2005>
-245.48876953125

> <b_mmod_Minimization_Converged-OPLS-2005>
0

> <r_mmod_RMS_Derivative-OPLS-2005>
1.13002133369446

$$$$
78
                    3D
 Structure written by MMmdl.
161169  0  0  1  0            999 V2000
  -30.7053  -14.5121   20.5719 C   0  0  0  0  0  0
  -30.4206  -12.3301   19.4518 C   0  0  0  0  0  0
  -29.5054  -12.5117   18.2208 C   0  0  0  0  0  0
  -28.0232  -12.3637   18.6166 C   0  0  0  0  0  0
  -27.6567  -13.2111   19.8630 C   0  0  2  0  0  0
  -28.6898  -13.0159   20.9938 C   0  0  0  0  0  0
  -25.2583  -13.8159   20.5650 C   0  0  0  0  0  0
  -24.1841  -13.0434   20.9145 C   0  0  0  0  0  0
  -24.6392  -11.6898   20.8690 C   0  0  0  0  0  0
  -23.9054  -10.4292   21.0377 C   0  0  0  0  0  0
  -24.3609   -9.4215   21.9163 C   0  0  0  0  0  0
  -23.6285   -8.2251   22.0752 C   0  0  0  0  0  0
  -22.4268   -8.0280   21.3543 C   0  0  0  0  0  0
  -21.9895   -9.0250   20.4647 C   0  0  0  0  0  0
  -22.7219  -10.2134   20.3043 C   0  0  0  0  0  0
  -21.6864   -6.0721   22.5271 C   0  0  0  0  0  0
  -21.4017   -6.5626   23.8200 C   0  0  0  0  0  0
  -21.3666   -5.6788   24.9166 C   0  0  0  0  0  0
  -21.6046   -4.3048   24.7224 C   0  0  0  0  0  0
  -21.8826   -3.8132   23.4348 C   0  0  0  0  0  0
  -21.9200   -4.6946   22.3397 C   0  0  0  0  0  0
  -22.7869  -13.5232   21.1817 C   0  0  0  0  0  0
  -22.1674   -4.2126   21.0978 F   0  0  0  0  0  0
  -21.5629   -3.4539   25.7739 F   0  0  0  0  0  0
  -30.0272  -13.3284   20.4673 N   0  0  0  0  0  0
  -26.2990  -12.9331   20.3259 N   0  0  0  0  0  0
  -25.9318  -11.6491   20.5686 N   0  0  0  0  0  0
  -22.0530  -12.8219   22.0385 N   0  0  0  0  0  0
  -25.4327  -15.1882   20.4112 N   0  0  0  0  0  0
  -31.7998  -14.7049   20.0342 O   0  0  0  0  0  0
  -21.6649   -6.8865   21.4231 O   0  0  0  0  0  0
  -22.3548  -14.5540   20.6676 O   0  0  0  0  0  0
  -24.6187  -31.8659   23.2063 C   0  0  0  0  0  0
  -25.9066  -32.4810   23.8371 C   0  0  1  0  0  0
  -27.2352  -27.3983   20.0824 C   0  0  0  0  0  0
  -25.5910  -33.8613   24.2293 N   0  0  0  0  0  0
  -23.4079  -30.4908   21.5488 C   0  0  2  0  0  0
  -24.8520  -28.9537   20.1142 C   0  0  0  0  0  0
  -22.7427  -29.4664   22.4972 C   0  0  0  0  0  0
  -18.0279  -28.1385   22.8505 C   0  0  0  0  0  0
  -24.1489  -36.7309   23.2639 C   0  0  0  0  0  0
  -25.9427  -30.8179   21.3670 C   0  0  0  0  0  0
  -26.0166  -29.4505   20.7111 C   0  0  0  0  0  0
  -27.2062  -28.6787   20.6954 C   0  0  0  0  0  0
  -26.0354  -26.9182   19.5034 C   0  0  0  0  0  0
  -24.8576  -27.6864   19.5121 C   0  0  0  0  0  0
  -23.6168  -29.8249   20.1636 C   0  0  0  0  0  0
  -25.4111  -36.3100   24.0328 C   0  0  1  0  0  0
  -20.5872  -28.3687   23.1303 C   0  0  2  0  0  0
  -20.6776  -26.9420   22.5410 C   0  0  0  0  0  0
  -19.5752  -26.6391   21.5220 C   0  0  0  0  0  0
  -18.1927  -26.7931   22.1631 C   0  0  0  0  0  0
  -19.1529  -28.8847   23.2903 C   0  0  0  0  0  0
  -18.9457  -30.1452   23.8921 C   0  0  0  0  0  0
  -17.6457  -30.6595   24.0569 C   0  0  0  0  0  0
  -25.9047  -34.9471   23.5107 C   0  0  0  0  0  0
  -16.5348  -29.9097   23.6327 C   0  0  0  0  0  0
  -16.7266  -28.6510   23.0360 C   0  0  0  0  0  0
  -26.4474  -31.6611   25.0722 C   0  0  0  0  0  0
  -25.3715  -31.3743   26.1455 C   0  0  0  0  0  0
  -27.0316  -30.3045   24.6140 C   0  0  0  0  0  0
  -27.6042  -32.4347   25.7485 C   0  0  0  0  0  0
  -27.5584  -37.1808   24.8464 C   0  0  0  0  0  0
  -21.4150  -29.3049   22.3703 N   0  0  0  0  0  0
  -26.4300  -37.3785   23.9400 N   0  0  0  0  0  0
  -24.6752  -31.0733   22.0984 N   0  0  0  0  0  0
  -23.4178  -28.8206   23.3029 O   0  0  0  0  0  0
  -28.4089  -26.6535   20.1118 O   0  0  0  0  0  0
  -26.5612  -34.8924   22.4670 O   0  0  0  0  0  0
  -23.5370  -32.1438   23.7434 O   0  0  0  0  0  0
  -30.6977  -19.3868   18.9784 C   0  0  0  0  0  0
  -29.1009  -20.6815   20.2915 C   0  0  0  0  0  0
  -29.7881  -19.4493   20.0571 C   0  0  0  0  0  0
  -30.8893  -20.4981   18.1381 C   0  0  0  0  0  0
  -29.2990  -21.8271   19.4603 C   0  0  0  0  0  0
  -30.1833  -21.7001   18.3556 C   0  0  0  0  0  0
  -29.5987  -18.2406   20.9603 C   0  0  0  0  0  0
  -30.0624  -15.7646   21.2405 C   0  0  0  0  0  0
  -29.1867  -24.2635   19.8544 C   0  0  0  0  0  0
  -27.1043  -22.9984   19.5649 C   0  0  0  0  0  0
  -28.6156  -25.5537   19.1870 C   0  0  0  0  0  0
  -31.7814  -20.4252   17.0674 N   0  0  0  0  0  0
  -30.3443  -22.7070   17.4000 N   0  0  0  0  0  0
  -30.0862  -16.9438   20.5375 N   0  0  0  0  0  0
  -28.5651  -23.0600   19.6587 N   0  0  0  0  0  0
  -29.5931  -15.7012   22.4964 N   0  3  0  0  0  0
  -29.0222  -18.3304   22.0474 O   0  0  0  0  0  0
  -30.2267  -24.3552   20.5188 O   0  0  0  0  0  0
  -31.4688  -12.4155   19.1593 H   0  0  0  0  0  0
  -30.3158  -11.3221   19.8567 H   0  0  0  0  0  0
  -29.7596  -11.7836   17.4494 H   0  0  0  0  0  0
  -29.6748  -13.4941   17.7772 H   0  0  0  0  0  0
  -27.8362  -11.3078   18.8156 H   0  0  0  0  0  0
  -27.3786  -12.6310   17.7774 H   0  0  0  0  0  0
  -27.6938  -14.2551   19.5534 H   0  0  0  0  0  0
  -28.6708  -11.9805   21.3407 H   0  0  0  0  0  0
  -28.4076  -13.6058   21.8611 H   0  0  0  0  0  0
  -25.2773   -9.5686   22.4713 H   0  0  0  0  0  0
  -24.0003   -7.4643   22.7471 H   0  0  0  0  0  0
  -21.0827   -8.8755   19.8947 H   0  0  0  0  0  0
  -22.3676  -10.9656   19.6135 H   0  0  0  0  0  0
  -21.2009   -7.6135   23.9686 H   0  0  0  0  0  0
  -21.1484   -6.0523   25.9063 H   0  0  0  0  0  0
  -22.0601   -2.7590   23.2857 H   0  0  0  0  0  0
  -22.4174  -11.9891   22.4768 H   0  0  0  0  0  0
  -21.1140  -13.1215   22.2587 H   0  0  0  0  0  0
  -24.6608  -15.8390   20.5074 H   0  0  0  0  0  0
  -26.2756  -15.6271   20.0625 H   0  0  0  0  0  0
  -26.7138  -32.5504   23.1134 H   0  0  0  0  0  0
  -25.0063  -33.9779   25.0440 H   0  0  0  0  0  0
  -22.6996  -31.3097   21.4086 H   0  0  0  0  0  0
  -23.3749  -35.9651   23.3312 H   0  0  0  0  0  0
  -24.3587  -36.8917   22.2054 H   0  0  0  0  0  0
  -23.7250  -37.6519   23.6655 H   0  0  0  0  0  0
  -26.0630  -31.5827   20.5988 H   0  0  0  0  0  0
  -26.8280  -30.8672   21.9884 H   0  0  0  0  0  0
  -28.1040  -29.0614   21.1603 H   0  0  0  0  0  0
  -25.9544  -25.9386   19.0612 H   0  0  0  0  0  0
  -23.9582  -27.2897   19.0627 H   0  0  0  0  0  0
  -23.7251  -30.6002   19.4040 H   0  0  0  0  0  0
  -22.7390  -29.2463   19.8691 H   0  0  0  0  0  0
  -25.1291  -36.1964   25.0824 H   0  0  0  0  0  0
  -20.9974  -28.3267   24.1421 H   0  0  0  0  0  0
  -20.5707  -26.2297   23.3606 H   0  0  0  0  0  0
  -21.6644  -26.7478   22.1190 H   0  0  0  0  0  0
  -19.6916  -25.6304   21.1251 H   0  0  0  0  0  0
  -19.6684  -27.3206   20.6756 H   0  0  0  0  0  0
  -17.4197  -26.6691   21.4025 H   0  0  0  0  0  0
  -18.0322  -26.0065   22.9018 H   0  0  0  0  0  0
  -19.7932  -30.7262   24.2305 H   0  0  0  0  0  0
  -17.5014  -31.6282   24.5161 H   0  0  0  0  0  0
  -15.5348  -30.3007   23.7644 H   0  0  0  0  0  0
  -15.8663  -28.0830   22.7068 H   0  0  0  0  0  0
  -24.5864  -30.7129   25.7774 H   0  0  0  0  0  0
  -24.8938  -32.2922   26.4907 H   0  0  0  0  0  0
  -25.8038  -30.8888   27.0213 H   0  0  0  0  0  0
  -26.2882  -29.6806   24.1169 H   0  0  0  0  0  0
  -27.4040  -29.7293   25.4625 H   0  0  0  0  0  0
  -27.8733  -30.4352   23.9333 H   0  0  0  0  0  0
  -27.2650  -33.3634   26.2094 H   0  0  0  0  0  0
  -28.3837  -32.6944   25.0306 H   0  0  0  0  0  0
  -28.0734  -31.8458   26.5380 H   0  0  0  0  0  0
  -28.2603  -38.0104   24.7508 H   0  0  0  0  0  0
  -28.1075  -36.2632   24.6291 H   0  0  0  0  0  0
  -27.2301  -37.1463   25.8868 H   0  0  0  0  0  0
  -20.9309  -29.8754   21.6915 H   0  0  0  0  0  0
  -26.0184  -38.2868   24.1386 H   0  0  0  0  0  0
  -31.2515  -18.4797   18.7830 H   0  0  0  0  0  0
  -28.4127  -20.7469   21.1224 H   0  0  0  0  0  0
  -26.7805  -23.1675   18.5375 H   0  0  0  0  0  0
  -26.6282  -23.7441   20.2040 H   0  0  0  0  0  0
  -26.7211  -22.0259   19.8727 H   0  0  0  0  0  0
  -27.7948  -25.3194   18.5178 H   0  0  0  0  0  0
  -29.3943  -25.8968   18.5051 H   0  0  0  0  0  0
  -32.5003  -19.7131   17.1289 H   0  0  0  0  0  0
  -32.1833  -21.3241   16.8219 H   0  0  0  0  0  0
  -30.6969  -22.3259   16.5284 H   0  0  0  0  0  0
  -29.5187  -23.2628   17.2201 H   0  0  0  0  0  0
  -30.5471  -16.8221   19.6472 H   0  0  0  0  0  0
  -29.2002  -16.5268   22.9174 H   0  0  0  0  0  0
  -29.7626  -14.9010   23.0769 H   0  0  0  0  0  0
  1 25  1  0  0  0
  1 30  2  0  0  0
  1 78  1  0  0  0
  2  3  1  0  0  0
  2 25  1  0  0  0
  2 89  1  0  0  0
  2 90  1  0  0  0
  3  4  1  0  0  0
  3 91  1  0  0  0
  3 92  1  0  0  0
  4  5  1  0  0  0
  4 93  1  0  0  0
  4 94  1  0  0  0
  5  6  1  0  0  0
  5 26  1  0  0  0
  5 95  1  0  0  0
  6 25  1  0  0  0
  6 96  1  0  0  0
  6 97  1  0  0  0
  7  8  2  0  0  0
  7 26  1  0  0  0
  7 29  1  0  0  0
  8  9  1  0  0  0
  8 22  1  0  0  0
  9 10  1  0  0  0
  9 27  2  0  0  0
 10 11  2  0  0  0
 10 15  1  0  0  0
 11 12  1  0  0  0
 11 98  1  0  0  0
 12 13  2  0  0  0
 12 99  1  0  0  0
 13 14  1  0  0  0
 13 31  1  0  0  0
 14 15  2  0  0  0
 14100  1  0  0  0
 15101  1  0  0  0
 16 17  2  0  0  0
 16 21  1  0  0  0
 16 31  1  0  0  0
 17 18  1  0  0  0
 17102  1  0  0  0
 18 19  2  0  0  0
 18103  1  0  0  0
 19 20  1  0  0  0
 19 24  1  0  0  0
 20 21  2  0  0  0
 20104  1  0  0  0
 21 23  1  0  0  0
 22 28  1  0  0  0
 22 32  2  0  0  0
 26 27  1  0  0  0
 28105  1  0  0  0
 28106  1  0  0  0
 29107  1  0  0  0
 29108  1  0  0  0
 33 34  1  0  0  0
 33 66  1  0  0  0
 33 70  2  0  0  0
 34 36  1  0  0  0
 34 59  1  0  0  0
 34109  1  0  0  0
 35 44  2  0  0  0
 35 45  1  0  0  0
 35 68  1  0  0  0
 36 56  1  0  0  0
 36110  1  0  0  0
 37 39  1  0  0  0
 37 47  1  0  0  0
 37 66  1  0  0  0
 37111  1  0  0  0
 38 43  2  0  0  0
 38 46  1  0  0  0
 38 47  1  0  0  0
 39 64  1  0  0  0
 39 67  2  0  0  0
 40 52  1  0  0  0
 40 53  2  0  0  0
 40 58  1  0  0  0
 41112  1  0  0  0
 41113  1  0  0  0
 41114  1  0  0  0
 41 48  1  0  0  0
 42 43  1  0  0  0
 42 66  1  0  0  0
 42115  1  0  0  0
 42116  1  0  0  0
 43 44  1  0  0  0
 44117  1  0  0  0
 45 46  2  0  0  0
 45118  1  0  0  0
 46119  1  0  0  0
 47120  1  0  0  0
 47121  1  0  0  0
 48 56  1  0  0  0
 48 65  1  0  0  0
 48122  1  0  0  0
 49 50  1  0  0  0
 49 53  1  0  0  0
 49 64  1  0  0  0
 49123  1  0  0  0
 50 51  1  0  0  0
 50124  1  0  0  0
 50125  1  0  0  0
 51 52  1  0  0  0
 51126  1  0  0  0
 51127  1  0  0  0
 52128  1  0  0  0
 52129  1  0  0  0
 53 54  1  0  0  0
 54 55  2  0  0  0
 54130  1  0  0  0
 55 57  1  0  0  0
 55131  1  0  0  0
 56 69  2  0  0  0
 57 58  2  0  0  0
 57132  1  0  0  0
 58133  1  0  0  0
 59 60  1  0  0  0
 59 61  1  0  0  0
 59 62  1  0  0  0
 60134  1  0  0  0
 60135  1  0  0  0
 60136  1  0  0  0
 61137  1  0  0  0
 61138  1  0  0  0
 61139  1  0  0  0
 62140  1  0  0  0
 62141  1  0  0  0
 62142  1  0  0  0
 63 65  1  0  0  0
 63143  1  0  0  0
 63144  1  0  0  0
 63145  1  0  0  0
 64146  1  0  0  0
 65147  1  0  0  0
 68 81  1  0  0  0
 71 73  2  0  0  0
 71 74  1  0  0  0
 71148  1  0  0  0
 72 73  1  0  0  0
 72 75  2  0  0  0
 72149  1  0  0  0
 73 77  1  0  0  0
 74 76  2  0  0  0
 74 82  1  0  0  0
 75 76  1  0  0  0
 75 85  1  0  0  0
 76 83  1  0  0  0
 77 84  1  0  0  0
 77 87  2  0  0  0
 78 84  1  0  0  0
 78 86  2  0  0  0
 79 81  1  0  0  0
 79 85  1  0  0  0
 79 88  2  0  0  0
 80 85  1  0  0  0
 80150  1  0  0  0
 80151  1  0  0  0
 80152  1  0  0  0
 81153  1  0  0  0
 81154  1  0  0  0
 82155  1  0  0  0
 82156  1  0  0  0
 83157  1  0  0  0
 83158  1  0  0  0
 84159  1  0  0  0
 86160  1  0  0  0
 86161  1  0  0  0
M  CHG  1  86   1
M  ISO  4   1 100  68 101  78 100  81 101
M  END
> <chiral flag>
0

> <version>
0

> <s_m_source_file>
/data/baiqing/PycharmProjects/Reinvent-master-3.2/result/LINK_invent/BTK/process_docking_weight1_custom_product_contain_oxygen_bond_distance_aromatic_linkinvent_7_9_3/rearranged_h_0092.sdf

> <i_m_source_file_index>
79

> <r_mmod_Potential_Energy-OPLS-2005>
-490.258544921875

> <r_mmod_Stretch_Energy-OPLS-2005>
55.9682922363281

> <r_mmod_Bend_Energy-OPLS-2005>
129.647033691406

> <r_mmod_Torsional_Energy-OPLS-2005>
300.687927246094

> <r_mmod_Improper_Torsional_Energy-OPLS-2005>
15.4030475616455

> <r_mmod_Van_der_Waal_Energy-OPLS-2005>
176.082702636719

> <r_mmod_Electrostatic_Energy-OPLS-2005>
-631.962646484375

> <r_mmod_Solvation_Energy-OPLS-2005>
-554.238952636719

> <b_mmod_Minimization_Converged-OPLS-2005>
0

> <r_mmod_RMS_Derivative-OPLS-2005>
1.57281291484833

$$$$
79
                    3D
 Structure written by MMmdl.
156164  0  0  1  0            999 V2000
  -30.6229  -14.8204   20.4232 C   0  0  0  0  0  0
  -30.4224  -12.5128   19.4559 C   0  0  0  0  0  0
  -29.4958  -12.5069   18.2246 C   0  0  0  0  0  0
  -28.0237  -12.3308   18.6521 C   0  0  0  0  0  0
  -27.6262  -13.2508   19.8412 C   0  0  2  0  0  0
  -28.6861  -13.2271   20.9597 C   0  0  0  0  0  0
  -25.2450  -13.8247   20.5747 C   0  0  0  0  0  0
  -24.1752  -13.0444   20.9227 C   0  0  0  0  0  0
  -24.6375  -11.6937   20.8791 C   0  0  0  0  0  0
  -23.9066  -10.4304   21.0441 C   0  0  0  0  0  0
  -24.3612   -9.4203   21.9220 C   0  0  0  0  0  0
  -23.6295   -8.2228   22.0760 C   0  0  0  0  0  0
  -22.4275   -8.0278   21.3521 C   0  0  0  0  0  0
  -21.9928   -9.0260   20.4634 C   0  0  0  0  0  0
  -22.7253  -10.2146   20.3076 C   0  0  0  0  0  0
  -21.6821   -6.0734   22.5273 C   0  0  0  0  0  0
  -21.4017   -6.5641   23.8223 C   0  0  0  0  0  0
  -21.3678   -5.6782   24.9199 C   0  0  0  0  0  0
  -21.6036   -4.3040   24.7224 C   0  0  0  0  0  0
  -21.8820   -3.8145   23.4339 C   0  0  0  0  0  0
  -21.9203   -4.6965   22.3412 C   0  0  0  0  0  0
  -22.7754  -13.5198   21.1892 C   0  0  0  0  0  0
  -22.1646   -4.2143   21.0986 F   0  0  0  0  0  0
  -21.5641   -3.4538   25.7750 F   0  0  0  0  0  0
  -29.9511  -13.6159   20.3284 N   0  0  0  0  0  0
  -26.2884  -12.9470   20.3365 N   0  0  0  0  0  0
  -25.9317  -11.6599   20.5823 N   0  0  0  0  0  0
  -22.0429  -12.8169   22.0468 N   0  0  0  0  0  0
  -25.4104  -15.1975   20.4133 N   0  0  0  0  0  0
  -31.8517  -14.8006   20.3197 O   0  0  0  0  0  0
  -21.6626   -6.8873   21.4214 O   0  0  0  0  0  0
  -22.3440  -14.5480   20.6761 O   0  0  0  0  0  0
  -24.6344  -31.8542   23.1930 C   0  0  0  0  0  0
  -25.9127  -32.4790   23.8331 C   0  0  1  0  0  0
  -27.2141  -27.2169   20.1389 C   0  0  0  0  0  0
  -25.5881  -33.8586   24.2221 N   0  0  0  0  0  0
  -23.4336  -30.4658   21.5455 C   0  0  2  0  0  0
  -24.8779  -28.9017   20.1158 C   0  0  0  0  0  0
  -22.7546  -29.4504   22.4994 C   0  0  0  0  0  0
  -18.0379  -28.1313   22.8609 C   0  0  0  0  0  0
  -24.1473  -36.7265   23.2654 C   0  0  0  0  0  0
  -25.9832  -30.7483   21.3741 C   0  0  0  0  0  0
  -26.0519  -29.3653   20.7211 C   0  0  0  0  0  0
  -27.2216  -28.5368   20.7167 C   0  0  0  0  0  0
  -26.0183  -26.8265   19.4993 C   0  0  0  0  0  0
  -24.8700  -27.6440   19.4937 C   0  0  0  0  0  0
  -23.6489  -29.7909   20.1671 C   0  0  0  0  0  0
  -25.4104  -36.3081   24.0350 C   0  0  1  0  0  0
  -20.5985  -28.3633   23.1286 C   0  0  2  0  0  0
  -20.6891  -26.9392   22.5289 C   0  0  0  0  0  0
  -19.5728  -26.6350   21.5221 C   0  0  0  0  0  0
  -18.2023  -26.7798   22.1847 C   0  0  0  0  0  0
  -19.1643  -28.8817   23.2919 C   0  0  0  0  0  0
  -18.9546  -30.1457   23.8860 C   0  0  0  0  0  0
  -17.6539  -30.6606   24.0494 C   0  0  0  0  0  0
  -25.9046  -34.9473   23.5118 C   0  0  0  0  0  0
  -16.5439  -29.9070   23.6371 C   0  0  0  0  0  0
  -16.7351  -28.6428   23.0493 C   0  0  0  0  0  0
  -26.4459  -31.6603   25.0726 C   0  0  0  0  0  0
  -25.3693  -31.3690   26.1455 C   0  0  0  0  0  0
  -27.0307  -30.3033   24.6170 C   0  0  0  0  0  0
  -27.6029  -32.4358   25.7479 C   0  0  0  0  0  0
  -27.5579  -37.1771   24.8476 C   0  0  0  0  0  0
  -21.4264  -29.2976   22.3737 N   0  0  0  0  0  0
  -26.4284  -37.3764   23.9421 N   0  0  0  0  0  0
  -24.7072  -31.0408   22.0958 N   0  0  0  0  0  0
  -23.4254  -28.8070   23.3142 O   0  0  0  0  0  0
  -28.3203  -26.3318   20.2202 O   0  0  0  0  0  0
  -26.5655  -34.8945   22.4717 O   0  0  0  0  0  0
  -23.5451  -32.1389   23.7165 O   0  0  0  0  0  0
  -29.5617  -18.6180   20.1650 C   0  0  0  0  0  0
  -27.6855  -19.3827   21.4975 C   0  0  0  0  0  0
  -28.3150  -17.0034   21.4845 C   0  0  0  0  0  0
  -28.7487  -19.7496   20.6369 C   0  0  0  0  0  0
  -29.3653  -17.2141   20.5727 C   0  0  0  0  0  0
  -27.4694  -18.0439   21.9196 C   0  0  0  0  0  0
  -28.8662  -21.2695   20.1962 C   0  0  0  0  0  0
  -28.0735  -23.7732   20.9595 C   0  0  0  0  0  0
  -25.2494  -18.4508   22.7386 C   0  0  0  0  0  0
  -28.3315  -24.8532   19.8395 C   0  0  0  0  0  0
  -30.0327  -16.0134   19.9752 N   0  0  0  0  0  0
  -28.2768  -22.3720   21.0362 N   0  0  0  0  0  0
  -27.5325  -24.3641   22.0509 N   0  3  0  0  0  0
  -29.4718  -21.5653   19.1589 O   0  0  0  0  0  0
  -26.4374  -17.6681   22.7551 O   0  0  0  0  0  0
  -31.4555  -12.6454   19.1396 H   0  0  0  0  0  0
  -30.3828  -11.5552   19.9796 H   0  0  0  0  0  0
  -29.7777  -11.7109   17.5346 H   0  0  0  0  0  0
  -29.6040  -13.4420   17.6777 H   0  0  0  0  0  0
  -27.8856  -11.2848   18.9366 H   0  0  0  0  0  0
  -27.3569  -12.5009   17.8054 H   0  0  0  0  0  0
  -27.6055  -14.2680   19.4418 H   0  0  0  0  0  0
  -28.7581  -12.2344   21.4053 H   0  0  0  0  0  0
  -28.4248  -13.9010   21.7720 H   0  0  0  0  0  0
  -25.2765   -9.5662   22.4790 H   0  0  0  0  0  0
  -23.9999   -7.4619   22.7456 H   0  0  0  0  0  0
  -21.0865   -8.8749   19.8923 H   0  0  0  0  0  0
  -22.3722  -10.9657   19.6186 H   0  0  0  0  0  0
  -21.1983   -7.6145   23.9710 H   0  0  0  0  0  0
  -21.1508   -6.0526   25.9080 H   0  0  0  0  0  0
  -22.0586   -2.7587   23.2854 H   0  0  0  0  0  0
  -22.4020  -11.9816   22.4815 H   0  0  0  0  0  0
  -21.1053  -13.1136   22.2703 H   0  0  0  0  0  0
  -24.6452  -15.8517   20.5339 H   0  0  0  0  0  0
  -26.2665  -15.6396   20.1037 H   0  0  0  0  0  0
  -26.7255  -32.5391   23.1142 H   0  0  0  0  0  0
  -25.0014  -33.9738   25.0351 H   0  0  0  0  0  0
  -22.7292  -31.2902   21.4006 H   0  0  0  0  0  0
  -23.3763  -35.9561   23.3309 H   0  0  0  0  0  0
  -24.3546  -36.8883   22.2056 H   0  0  0  0  0  0
  -23.7183  -37.6456   23.6681 H   0  0  0  0  0  0
  -26.1153  -31.5012   20.5948 H   0  0  0  0  0  0
  -26.8631  -30.7984   22.0022 H   0  0  0  0  0  0
  -28.1204  -28.8960   21.1954 H   0  0  0  0  0  0
  -25.9383  -25.8634   19.0139 H   0  0  0  0  0  0
  -23.9765  -27.2699   19.0192 H   0  0  0  0  0  0
  -23.7576  -30.5638   19.4066 H   0  0  0  0  0  0
  -22.7631  -29.2251   19.8777 H   0  0  0  0  0  0
  -25.1267  -36.1955   25.0831 H   0  0  0  0  0  0
  -21.0093  -28.3116   24.1374 H   0  0  0  0  0  0
  -20.6035  -26.2173   23.3451 H   0  0  0  0  0  0
  -21.6713  -26.7570   22.0863 H   0  0  0  0  0  0
  -19.6914  -25.6258   21.1238 H   0  0  0  0  0  0
  -19.6537  -27.3190   20.6736 H   0  0  0  0  0  0
  -17.4149  -26.6368   21.4423 H   0  0  0  0  0  0
  -18.0694  -26.0013   22.9370 H   0  0  0  0  0  0
  -19.8051  -30.7321   24.2113 H   0  0  0  0  0  0
  -17.5150  -31.6359   24.4949 H   0  0  0  0  0  0
  -15.5449  -30.2959   23.7711 H   0  0  0  0  0  0
  -15.8755  -28.0703   22.7268 H   0  0  0  0  0  0
  -24.5870  -30.7053   25.7745 H   0  0  0  0  0  0
  -24.8885  -32.2820   26.4967 H   0  0  0  0  0  0
  -25.8021  -30.8798   27.0188 H   0  0  0  0  0  0
  -26.2855  -29.6807   24.1192 H   0  0  0  0  0  0
  -27.4002  -29.7260   25.4645 H   0  0  0  0  0  0
  -27.8751  -30.4342   23.9404 H   0  0  0  0  0  0
  -27.2651  -33.3680   26.2030 H   0  0  0  0  0  0
  -28.3820  -32.6885   25.0275 H   0  0  0  0  0  0
  -28.0744  -31.8514   26.5388 H   0  0  0  0  0  0
  -28.2592  -38.0069   24.7548 H   0  0  0  0  0  0
  -28.1091  -36.2608   24.6295 H   0  0  0  0  0  0
  -27.2325  -37.1425   25.8888 H   0  0  0  0  0  0
  -20.9436  -29.8781   21.7046 H   0  0  0  0  0  0
  -26.0185  -38.2850   24.1407 H   0  0  0  0  0  0
  -30.3334  -18.8361   19.4378 H   0  0  0  0  0  0
  -27.0114  -20.1553   21.8379 H   0  0  0  0  0  0
  -28.0925  -16.0056   21.8190 H   0  0  0  0  0  0
  -24.4855  -17.9796   23.3602 H   0  0  0  0  0  0
  -24.8484  -18.5206   21.7270 H   0  0  0  0  0  0
  -25.4132  -19.4491   23.1392 H   0  0  0  0  0  0
  -29.3372  -24.6927   19.4685 H   0  0  0  0  0  0
  -27.6869  -24.6488   18.9848 H   0  0  0  0  0  0
  -30.6632  -16.3341   19.2541 H   0  0  0  0  0  0
  -27.9176  -22.0660   21.9249 H   0  0  0  0  0  0
  -27.4513  -25.3707   22.0439 H   0  0  0  0  0  0
  -27.2072  -23.8861   22.8843 H   0  0  0  0  0  0
  1 25  1  0  0  0
  1 30  2  0  0  0
  1 81  1  0  0  0
  2  3  1  0  0  0
  2 25  1  0  0  0
  2 86  1  0  0  0
  2 87  1  0  0  0
  3  4  1  0  0  0
  3 88  1  0  0  0
  3 89  1  0  0  0
  4  5  1  0  0  0
  4 90  1  0  0  0
  4 91  1  0  0  0
  5  6  1  0  0  0
  5 26  1  0  0  0
  5 92  1  0  0  0
  6 25  1  0  0  0
  6 93  1  0  0  0
  6 94  1  0  0  0
  7  8  2  0  0  0
  7 26  1  0  0  0
  7 29  1  0  0  0
  8  9  1  0  0  0
  8 22  1  0  0  0
  9 10  1  0  0  0
  9 27  2  0  0  0
 10 11  2  0  0  0
 10 15  1  0  0  0
 11 12  1  0  0  0
 11 95  1  0  0  0
 12 13  2  0  0  0
 12 96  1  0  0  0
 13 14  1  0  0  0
 13 31  1  0  0  0
 14 15  2  0  0  0
 14 97  1  0  0  0
 15 98  1  0  0  0
 16 17  2  0  0  0
 16 21  1  0  0  0
 16 31  1  0  0  0
 17 18  1  0  0  0
 17 99  1  0  0  0
 18 19  2  0  0  0
 18100  1  0  0  0
 19 20  1  0  0  0
 19 24  1  0  0  0
 20 21  2  0  0  0
 20101  1  0  0  0
 21 23  1  0  0  0
 22 28  1  0  0  0
 22 32  2  0  0  0
 26 27  1  0  0  0
 28102  1  0  0  0
 28103  1  0  0  0
 29104  1  0  0  0
 29105  1  0  0  0
 33 34  1  0  0  0
 33 66  1  0  0  0
 33 70  2  0  0  0
 34 36  1  0  0  0
 34 59  1  0  0  0
 34106  1  0  0  0
 35 44  2  0  0  0
 35 45  1  0  0  0
 35 68  1  0  0  0
 36 56  1  0  0  0
 36107  1  0  0  0
 37 39  1  0  0  0
 37 47  1  0  0  0
 37 66  1  0  0  0
 37108  1  0  0  0
 38 43  2  0  0  0
 38 46  1  0  0  0
 38 47  1  0  0  0
 39 64  1  0  0  0
 39 67  2  0  0  0
 40 52  1  0  0  0
 40 53  2  0  0  0
 40 58  1  0  0  0
 41109  1  0  0  0
 41110  1  0  0  0
 41111  1  0  0  0
 41 48  1  0  0  0
 42 43  1  0  0  0
 42 66  1  0  0  0
 42112  1  0  0  0
 42113  1  0  0  0
 43 44  1  0  0  0
 44114  1  0  0  0
 45 46  2  0  0  0
 45115  1  0  0  0
 46116  1  0  0  0
 47117  1  0  0  0
 47118  1  0  0  0
 48 56  1  0  0  0
 48 65  1  0  0  0
 48119  1  0  0  0
 49 50  1  0  0  0
 49 53  1  0  0  0
 49 64  1  0  0  0
 49120  1  0  0  0
 50 51  1  0  0  0
 50121  1  0  0  0
 50122  1  0  0  0
 51 52  1  0  0  0
 51123  1  0  0  0
 51124  1  0  0  0
 52125  1  0  0  0
 52126  1  0  0  0
 53 54  1  0  0  0
 54 55  2  0  0  0
 54127  1  0  0  0
 55 57  1  0  0  0
 55128  1  0  0  0
 56 69  2  0  0  0
 57 58  2  0  0  0
 57129  1  0  0  0
 58130  1  0  0  0
 59 60  1  0  0  0
 59 61  1  0  0  0
 59 62  1  0  0  0
 60131  1  0  0  0
 60132  1  0  0  0
 60133  1  0  0  0
 61134  1  0  0  0
 61135  1  0  0  0
 61136  1  0  0  0
 62137  1  0  0  0
 62138  1  0  0  0
 62139  1  0  0  0
 63 65  1  0  0  0
 63140  1  0  0  0
 63141  1  0  0  0
 63142  1  0  0  0
 64143  1  0  0  0
 65144  1  0  0  0
 68 80  1  0  0  0
 71 74  2  0  0  0
 71 75  1  0  0  0
 71145  1  0  0  0
 72 74  1  0  0  0
 72 76  2  0  0  0
 72146  1  0  0  0
 73 75  2  0  0  0
 73 76  1  0  0  0
 73147  1  0  0  0
 74 77  1  0  0  0
 75 81  1  0  0  0
 76 85  1  0  0  0
 77 82  1  0  0  0
 77 84  2  0  0  0
 78 80  1  0  0  0
 78 82  1  0  0  0
 78 83  2  0  0  0
 79 85  1  0  0  0
 79148  1  0  0  0
 79149  1  0  0  0
 79150  1  0  0  0
 80151  1  0  0  0
 80152  1  0  0  0
 81153  1  0  0  0
 82154  1  0  0  0
 83155  1  0  0  0
 83156  1  0  0  0
M  CHG  1  83   1
M  ISO  4   1 100  68 101  80 101  81 100
M  END
> <chiral flag>
0

> <version>
0

> <s_m_source_file>
/data/baiqing/PycharmProjects/Reinvent-master-3.2/result/LINK_invent/BTK/process_docking_weight1_custom_product_contain_oxygen_bond_distance_aromatic_linkinvent_7_9_3/rearranged_h_0092.sdf

> <i_m_source_file_index>
80

> <r_mmod_Potential_Energy-OPLS-2005>
112.85514831543

> <r_mmod_Stretch_Energy-OPLS-2005>
160.32942199707

> <r_mmod_Bend_Energy-OPLS-2005>
280.990417480469

> <r_mmod_Torsional_Energy-OPLS-2005>
276.017700195312

> <r_mmod_Improper_Torsional_Energy-OPLS-2005>
29.462516784668

> <r_mmod_Van_der_Waal_Energy-OPLS-2005>
125.811721801758

> <r_mmod_Electrostatic_Energy-OPLS-2005>
-378.09619140625

> <r_mmod_Solvation_Energy-OPLS-2005>
-506.393981933594

> <b_mmod_Minimization_Converged-OPLS-2005>
0

> <r_mmod_RMS_Derivative-OPLS-2005>
8.75697898864746

$$$$
80
                    3D
 Structure written by MMmdl.
159168  0  0  1  0            999 V2000
  -30.7015  -14.5014   20.5760 C   0  0  0  0  0  0
  -30.4208  -12.3297   19.4292 C   0  0  0  0  0  0
  -29.4912  -12.5002   18.2102 C   0  0  0  0  0  0
  -28.0149  -12.3563   18.6242 C   0  0  0  0  0  0
  -27.6562  -13.2108   19.8696 C   0  0  2  0  0  0
  -28.6959  -13.0223   20.9951 C   0  0  0  0  0  0
  -25.2578  -13.8180   20.5674 C   0  0  0  0  0  0
  -24.1843  -13.0448   20.9177 C   0  0  0  0  0  0
  -24.6412  -11.6913   20.8757 C   0  0  0  0  0  0
  -23.9087  -10.4293   21.0416 C   0  0  0  0  0  0
  -24.3625   -9.4209   21.9199 C   0  0  0  0  0  0
  -23.6294   -8.2251   22.0761 C   0  0  0  0  0  0
  -22.4287   -8.0283   21.3547 C   0  0  0  0  0  0
  -21.9933   -9.0257   20.4645 C   0  0  0  0  0  0
  -22.7262  -10.2133   20.3060 C   0  0  0  0  0  0
  -21.6860   -6.0738   22.5279 C   0  0  0  0  0  0
  -21.4008   -6.5637   23.8199 C   0  0  0  0  0  0
  -21.3662   -5.6799   24.9167 C   0  0  0  0  0  0
  -21.6037   -4.3057   24.7230 C   0  0  0  0  0  0
  -21.8820   -3.8156   23.4353 C   0  0  0  0  0  0
  -21.9185   -4.6969   22.3408 C   0  0  0  0  0  0
  -22.7851  -13.5232   21.1850 C   0  0  0  0  0  0
  -22.1658   -4.2156   21.0989 F   0  0  0  0  0  0
  -21.5641   -3.4545   25.7755 F   0  0  0  0  0  0
  -30.0216  -13.3303   20.4352 N   0  0  0  0  0  0
  -26.2999  -12.9353   20.3352 N   0  0  0  0  0  0
  -25.9333  -11.6507   20.5778 N   0  0  0  0  0  0
  -22.0500  -12.8194   22.0371 N   0  0  0  0  0  0
  -25.4309  -15.1904   20.4090 N   0  0  0  0  0  0
  -31.8332  -14.6621   20.1130 O   0  0  0  0  0  0
  -21.6646   -6.8887   21.4243 O   0  0  0  0  0  0
  -22.3548  -14.5565   20.6712 O   0  0  0  0  0  0
  -24.6198  -31.8661   23.2083 C   0  0  0  0  0  0
  -25.9081  -32.4801   23.8386 C   0  0  1  0  0  0
  -27.2284  -27.4101   20.0823 C   0  0  0  0  0  0
  -25.5957  -33.8609   24.2302 N   0  0  0  0  0  0
  -23.4045  -30.4930   21.5504 C   0  0  2  0  0  0
  -24.8465  -28.9568   20.1115 C   0  0  0  0  0  0
  -22.7417  -29.4658   22.4965 C   0  0  0  0  0  0
  -18.0278  -28.1388   22.8477 C   0  0  0  0  0  0
  -24.1481  -36.7282   23.2638 C   0  0  0  0  0  0
  -25.9361  -30.8201   21.3678 C   0  0  0  0  0  0
  -26.0073  -29.4525   20.7167 C   0  0  0  0  0  0
  -27.1946  -28.6798   20.7130 C   0  0  0  0  0  0
  -26.0433  -26.9374   19.4779 C   0  0  0  0  0  0
  -24.8584  -27.6965   19.4936 C   0  0  0  0  0  0
  -23.6117  -29.8287   20.1631 C   0  0  0  0  0  0
  -25.4103  -36.3080   24.0340 C   0  0  1  0  0  0
  -20.5866  -28.3666   23.1305 C   0  0  2  0  0  0
  -20.6749  -26.9382   22.5453 C   0  0  0  0  0  0
  -19.5757  -26.6375   21.5212 C   0  0  0  0  0  0
  -18.1898  -26.7947   22.1543 C   0  0  0  0  0  0
  -19.1530  -28.8841   23.2899 C   0  0  0  0  0  0
  -18.9466  -30.1434   23.8937 C   0  0  0  0  0  0
  -17.6467  -30.6579   24.0574 C   0  0  0  0  0  0
  -25.9050  -34.9458   23.5096 C   0  0  0  0  0  0
  -16.5356  -29.9084   23.6342 C   0  0  0  0  0  0
  -16.7267  -28.6502   23.0365 C   0  0  0  0  0  0
  -26.4493  -31.6628   25.0753 C   0  0  0  0  0  0
  -25.3727  -31.3767   26.1487 C   0  0  0  0  0  0
  -27.0303  -30.3052   24.6169 C   0  0  0  0  0  0
  -27.6060  -32.4374   25.7499 C   0  0  0  0  0  0
  -27.5586  -37.1780   24.8429 C   0  0  0  0  0  0
  -21.4138  -29.3045   22.3720 N   0  0  0  0  0  0
  -26.4263  -37.3787   23.9437 N   0  0  0  0  0  0
  -24.6718  -31.0759   22.0992 N   0  0  0  0  0  0
  -23.4175  -28.8203   23.3019 O   0  0  0  0  0  0
  -28.3961  -26.6616   20.0934 O   0  0  0  0  0  0
  -26.5597  -34.8929   22.4650 O   0  0  0  0  0  0
  -23.5395  -32.1434   23.7473 O   0  0  0  0  0  0
  -28.6521  -18.4588   21.2206 C   0  0  0  0  0  0
  -30.8323  -19.0615   20.3530 C   0  0  0  0  0  0
  -28.1607  -19.7368   20.8483 C   0  0  0  0  0  0
  -30.3353  -20.3276   19.9619 C   0  0  0  0  0  0
  -27.1443  -23.5442   18.8814 C   0  0  0  0  0  0
  -30.0050  -18.1121   20.9967 C   0  0  0  0  0  0
  -28.3113  -24.2244   19.3272 C   0  0  0  0  0  0
  -28.9945  -20.7002   20.2203 C   0  0  0  0  0  0
  -29.0985  -23.2637   19.9378 C   0  0  0  0  0  0
  -27.2786  -22.2223   19.1800 C   0  0  0  0  0  0
  -30.4271  -23.4722   20.5993 C   0  0  0  0  0  0
  -30.6296  -16.8151   21.5502 C   0  0  0  0  0  0
  -28.6421  -25.7006   19.0436 C   0  0  0  0  0  0
  -28.4896  -21.9941   19.8194 N   0  0  0  0  0  0
  -30.0372  -15.5186   21.1679 N   0  0  0  0  0  0
  -26.4196  -21.2106   18.8799 O   0  0  0  0  0  0
  -31.4647  -12.4294   19.1255 H   0  0  0  0  0  0
  -30.3308  -11.3259   19.8460 H   0  0  0  0  0  0
  -29.7380  -11.7604   17.4481 H   0  0  0  0  0  0
  -29.6506  -13.4778   17.7528 H   0  0  0  0  0  0
  -27.8370  -11.3005   18.8352 H   0  0  0  0  0  0
  -27.3616  -12.6142   17.7915 H   0  0  0  0  0  0
  -27.6912  -14.2544   19.5566 H   0  0  0  0  0  0
  -28.6801  -11.9947   21.3610 H   0  0  0  0  0  0
  -28.4507  -13.6436   21.8576 H   0  0  0  0  0  0
  -25.2768   -9.5683   22.4779 H   0  0  0  0  0  0
  -24.0002   -7.4642   22.7483 H   0  0  0  0  0  0
  -21.0876   -8.8765   19.8950 H   0  0  0  0  0  0
  -22.3730  -10.9669   19.6167 H   0  0  0  0  0  0
  -21.1984   -7.6143   23.9715 H   0  0  0  0  0  0
  -21.1490   -6.0529   25.9068 H   0  0  0  0  0  0
  -22.0598   -2.7620   23.2862 H   0  0  0  0  0  0
  -22.4109  -11.9817   22.4694 H   0  0  0  0  0  0
  -21.1121  -13.1200   22.2589 H   0  0  0  0  0  0
  -24.6637  -15.8468   20.5054 H   0  0  0  0  0  0
  -26.2810  -15.6259   20.0750 H   0  0  0  0  0  0
  -26.7161  -32.5472   23.1156 H   0  0  0  0  0  0
  -25.0227  -33.9800   25.0527 H   0  0  0  0  0  0
  -22.6944  -31.3104   21.4125 H   0  0  0  0  0  0
  -23.3750  -35.9600   23.3249 H   0  0  0  0  0  0
  -24.3586  -36.8960   22.2066 H   0  0  0  0  0  0
  -23.7205  -37.6458   23.6701 H   0  0  0  0  0  0
  -26.0596  -31.5820   20.5973 H   0  0  0  0  0  0
  -26.8187  -30.8682   21.9918 H   0  0  0  0  0  0
  -28.0885  -29.0590   21.1887 H   0  0  0  0  0  0
  -26.0091  -25.9750   18.9999 H   0  0  0  0  0  0
  -23.9657  -27.3051   19.0272 H   0  0  0  0  0  0
  -23.7184  -30.6071   19.4047 H   0  0  0  0  0  0
  -22.7330  -29.2566   19.8624 H   0  0  0  0  0  0
  -25.1279  -36.1912   25.0821 H   0  0  0  0  0  0
  -20.9987  -28.3264   24.1414 H   0  0  0  0  0  0
  -20.5548  -26.2312   23.3674 H   0  0  0  0  0  0
  -21.6647  -26.7354   22.1319 H   0  0  0  0  0  0
  -19.6911  -25.6267   21.1268 H   0  0  0  0  0  0
  -19.6756  -27.3186   20.6737 H   0  0  0  0  0  0
  -17.4229  -26.6844   21.3853 H   0  0  0  0  0  0
  -18.0156  -26.0024   22.8837 H   0  0  0  0  0  0
  -19.7938  -30.7247   24.2332 H   0  0  0  0  0  0
  -17.5006  -31.6263   24.5162 H   0  0  0  0  0  0
  -15.5358  -30.3007   23.7629 H   0  0  0  0  0  0
  -15.8656  -28.0822   22.7078 H   0  0  0  0  0  0
  -24.6219  -30.6677   25.7991 H   0  0  0  0  0  0
  -24.8512  -32.2853   26.4507 H   0  0  0  0  0  0
  -25.8122  -30.9476   27.0499 H   0  0  0  0  0  0
  -26.2850  -29.6843   24.1179 H   0  0  0  0  0  0
  -27.4000  -29.7292   25.4659 H   0  0  0  0  0  0
  -27.8725  -30.4355   23.9359 H   0  0  0  0  0  0
  -27.2688  -33.3712   26.2022 H   0  0  0  0  0  0
  -28.3896  -32.6882   25.0327 H   0  0  0  0  0  0
  -28.0704  -31.8534   26.5468 H   0  0  0  0  0  0
  -28.2565  -38.0115   24.7532 H   0  0  0  0  0  0
  -28.1124  -36.2657   24.6135 H   0  0  0  0  0  0
  -27.2349  -37.1304   25.8842 H   0  0  0  0  0  0
  -20.9295  -29.8841   21.7011 H   0  0  0  0  0  0
  -26.0121  -38.2842   24.1523 H   0  0  0  0  0  0
  -27.9888  -17.7594   21.7113 H   0  0  0  0  0  0
  -31.8733  -18.8322   20.1738 H   0  0  0  0  0  0
  -27.1260  -19.9750   21.0479 H   0  0  0  0  0  0
  -31.0013  -21.0206   19.4689 H   0  0  0  0  0  0
  -26.3100  -23.9682   18.3430 H   0  0  0  0  0  0
  -30.4136  -24.3717   21.2154 H   0  0  0  0  0  0
  -31.2115  -23.5960   19.8525 H   0  0  0  0  0  0
  -30.7024  -22.6476   21.2568 H   0  0  0  0  0  0
  -30.5739  -16.8782   22.6374 H   0  0  0  0  0  0
  -31.6977  -16.8261   21.3298 H   0  0  0  0  0  0
  -28.1614  -26.0059   18.1100 H   0  0  0  0  0  0
  -29.7078  -25.7567   18.8193 H   0  0  0  0  0  0
  -29.1040  -15.3234   21.4951 H   0  0  0  0  0  0
  -25.6859  -21.5888   18.4072 H   0  0  0  0  0  0
  1 25  1  0  0  0
  1 30  2  0  0  0
  1 85  1  0  0  0
  2  3  1  0  0  0
  2 25  1  0  0  0
  2 87  1  0  0  0
  2 88  1  0  0  0
  3  4  1  0  0  0
  3 89  1  0  0  0
  3 90  1  0  0  0
  4  5  1  0  0  0
  4 91  1  0  0  0
  4 92  1  0  0  0
  5  6  1  0  0  0
  5 26  1  0  0  0
  5 93  1  0  0  0
  6 25  1  0  0  0
  6 94  1  0  0  0
  6 95  1  0  0  0
  7  8  2  0  0  0
  7 26  1  0  0  0
  7 29  1  0  0  0
  8  9  1  0  0  0
  8 22  1  0  0  0
  9 10  1  0  0  0
  9 27  2  0  0  0
 10 11  2  0  0  0
 10 15  1  0  0  0
 11 12  1  0  0  0
 11 96  1  0  0  0
 12 13  2  0  0  0
 12 97  1  0  0  0
 13 14  1  0  0  0
 13 31  1  0  0  0
 14 15  2  0  0  0
 14 98  1  0  0  0
 15 99  1  0  0  0
 16 17  2  0  0  0
 16 21  1  0  0  0
 16 31  1  0  0  0
 17 18  1  0  0  0
 17100  1  0  0  0
 18 19  2  0  0  0
 18101  1  0  0  0
 19 20  1  0  0  0
 19 24  1  0  0  0
 20 21  2  0  0  0
 20102  1  0  0  0
 21 23  1  0  0  0
 22 28  1  0  0  0
 22 32  2  0  0  0
 26 27  1  0  0  0
 28103  1  0  0  0
 28104  1  0  0  0
 29105  1  0  0  0
 29106  1  0  0  0
 33 34  1  0  0  0
 33 66  1  0  0  0
 33 70  2  0  0  0
 34 36  1  0  0  0
 34 59  1  0  0  0
 34107  1  0  0  0
 35 44  2  0  0  0
 35 45  1  0  0  0
 35 68  1  0  0  0
 36 56  1  0  0  0
 36108  1  0  0  0
 37 39  1  0  0  0
 37 47  1  0  0  0
 37 66  1  0  0  0
 37109  1  0  0  0
 38 43  2  0  0  0
 38 46  1  0  0  0
 38 47  1  0  0  0
 39 64  1  0  0  0
 39 67  2  0  0  0
 40 52  1  0  0  0
 40 53  2  0  0  0
 40 58  1  0  0  0
 41110  1  0  0  0
 41111  1  0  0  0
 41112  1  0  0  0
 41 48  1  0  0  0
 42 43  1  0  0  0
 42 66  1  0  0  0
 42113  1  0  0  0
 42114  1  0  0  0
 43 44  1  0  0  0
 44115  1  0  0  0
 45 46  2  0  0  0
 45116  1  0  0  0
 46117  1  0  0  0
 47118  1  0  0  0
 47119  1  0  0  0
 48 56  1  0  0  0
 48 65  1  0  0  0
 48120  1  0  0  0
 49 50  1  0  0  0
 49 53  1  0  0  0
 49 64  1  0  0  0
 49121  1  0  0  0
 50 51  1  0  0  0
 50122  1  0  0  0
 50123  1  0  0  0
 51 52  1  0  0  0
 51124  1  0  0  0
 51125  1  0  0  0
 52126  1  0  0  0
 52127  1  0  0  0
 53 54  1  0  0  0
 54 55  2  0  0  0
 54128  1  0  0  0
 55 57  1  0  0  0
 55129  1  0  0  0
 56 69  2  0  0  0
 57 58  2  0  0  0
 57130  1  0  0  0
 58131  1  0  0  0
 59 60  1  0  0  0
 59 61  1  0  0  0
 59 62  1  0  0  0
 60132  1  0  0  0
 60133  1  0  0  0
 60134  1  0  0  0
 61135  1  0  0  0
 61136  1  0  0  0
 61137  1  0  0  0
 62138  1  0  0  0
 62139  1  0  0  0
 62140  1  0  0  0
 63 65  1  0  0  0
 63141  1  0  0  0
 63142  1  0  0  0
 63143  1  0  0  0
 64144  1  0  0  0
 65145  1  0  0  0
 68 83  1  0  0  0
 71 73  2  0  0  0
 71 76  1  0  0  0
 71146  1  0  0  0
 72 74  1  0  0  0
 72 76  2  0  0  0
 72147  1  0  0  0
 73 78  1  0  0  0
 73148  1  0  0  0
 74 78  2  0  0  0
 74149  1  0  0  0
 75 77  1  0  0  0
 75 80  2  0  0  0
 75150  1  0  0  0
 76 82  1  0  0  0
 77 79  2  0  0  0
 77 83  1  0  0  0
 78 84  1  0  0  0
 79 81  1  0  0  0
 79 84  1  0  0  0
 80 84  1  0  0  0
 80 86  1  0  0  0
 81151  1  0  0  0
 81152  1  0  0  0
 81153  1  0  0  0
 82 85  1  0  0  0
 82154  1  0  0  0
 82155  1  0  0  0
 83156  1  0  0  0
 83157  1  0  0  0
 85158  1  0  0  0
 86159  1  0  0  0
M  ISO  4   1 100  68 101  83 101  85 100
M  END
> <chiral flag>
0

> <version>
0

> <s_m_source_file>
/data/baiqing/PycharmProjects/Reinvent-master-3.2/result/LINK_invent/BTK/process_docking_weight1_custom_product_contain_oxygen_bond_distance_aromatic_linkinvent_7_9_3/rearranged_h_0092.sdf

> <i_m_source_file_index>
81

> <r_mmod_Potential_Energy-OPLS-2005>
-79.614013671875

> <r_mmod_Stretch_Energy-OPLS-2005>
45.7939224243164

> <r_mmod_Bend_Energy-OPLS-2005>
111.998794555664

> <r_mmod_Torsional_Energy-OPLS-2005>
218.076904296875

> <r_mmod_Improper_Torsional_Energy-OPLS-2005>
3.59140157699585

> <r_mmod_Van_der_Waal_Energy-OPLS-2005>
150.131210327148

> <r_mmod_Electrostatic_Energy-OPLS-2005>
-403.732391357422

> <r_mmod_Solvation_Energy-OPLS-2005>
-222.554412841797

> <b_mmod_Minimization_Converged-OPLS-2005>
0

> <r_mmod_RMS_Derivative-OPLS-2005>
3.37297129631042

$$$$
81
                    3D
 Structure written by MMmdl.
155164  0  0  1  0            999 V2000
  -30.6259  -14.7995   20.4258 C   0  0  0  0  0  0
  -30.4247  -12.4858   19.4846 C   0  0  0  0  0  0
  -29.5112  -12.5093   18.2406 C   0  0  0  0  0  0
  -28.0377  -12.3313   18.6536 C   0  0  0  0  0  0
  -27.6358  -13.2447   19.8432 C   0  0  2  0  0  0
  -28.6821  -13.2253   20.9790 C   0  0  0  0  0  0
  -25.2486  -13.8215   20.5709 C   0  0  0  0  0  0
  -24.1787  -13.0441   20.9209 C   0  0  0  0  0  0
  -24.6397  -11.6926   20.8734 C   0  0  0  0  0  0
  -23.9081  -10.4300   21.0395 C   0  0  0  0  0  0
  -24.3629   -9.4213   21.9175 C   0  0  0  0  0  0
  -23.6300   -8.2252   22.0754 C   0  0  0  0  0  0
  -22.4289   -8.0280   21.3538 C   0  0  0  0  0  0
  -21.9920   -9.0258   20.4645 C   0  0  0  0  0  0
  -22.7251  -10.2135   20.3046 C   0  0  0  0  0  0
  -21.6858   -6.0735   22.5275 C   0  0  0  0  0  0
  -21.4020   -6.5639   23.8211 C   0  0  0  0  0  0
  -21.3657   -5.6791   24.9173 C   0  0  0  0  0  0
  -21.6047   -4.3057   24.7224 C   0  0  0  0  0  0
  -21.8816   -3.8148   23.4346 C   0  0  0  0  0  0
  -21.9199   -4.6964   22.3401 C   0  0  0  0  0  0
  -22.7805  -13.5212   21.1862 C   0  0  0  0  0  0
  -22.1661   -4.2154   21.0976 F   0  0  0  0  0  0
  -21.5631   -3.4535   25.7734 F   0  0  0  0  0  0
  -29.9776  -13.5786   20.3871 N   0  0  0  0  0  0
  -26.2922  -12.9448   20.3274 N   0  0  0  0  0  0
  -25.9335  -11.6577   20.5745 N   0  0  0  0  0  0
  -22.0465  -12.8205   22.0425 N   0  0  0  0  0  0
  -25.4166  -15.1943   20.4144 N   0  0  0  0  0  0
  -31.8284  -14.8148   20.1572 O   0  0  0  0  0  0
  -21.6650   -6.8877   21.4237 O   0  0  0  0  0  0
  -22.3486  -14.5520   20.6716 O   0  0  0  0  0  0
  -24.6366  -31.8513   23.1985 C   0  0  0  0  0  0
  -25.9173  -32.4737   23.8340 C   0  0  1  0  0  0
  -27.2194  -27.2353   20.1320 C   0  0  0  0  0  0
  -25.5961  -33.8543   24.2265 N   0  0  0  0  0  0
  -23.4358  -30.4738   21.5409 C   0  0  2  0  0  0
  -24.8870  -28.9223   20.1062 C   0  0  0  0  0  0
  -22.7532  -29.4581   22.4895 C   0  0  0  0  0  0
  -18.0287  -28.1388   22.8491 C   0  0  0  0  0  0
  -24.1475  -36.7258   23.2643 C   0  0  0  0  0  0
  -25.9851  -30.7554   21.3850 C   0  0  0  0  0  0
  -26.0608  -29.3766   20.7245 C   0  0  0  0  0  0
  -27.2335  -28.5446   20.7295 C   0  0  0  0  0  0
  -26.0295  -26.8641   19.4715 C   0  0  0  0  0  0
  -24.8781  -27.6742   19.4663 C   0  0  0  0  0  0
  -23.6578  -29.8110   20.1561 C   0  0  0  0  0  0
  -25.4108  -36.3056   24.0330 C   0  0  1  0  0  0
  -20.5902  -28.3705   23.1254 C   0  0  2  0  0  0
  -20.6769  -26.9409   22.5408 C   0  0  0  0  0  0
  -19.5736  -26.6381   21.5214 C   0  0  0  0  0  0
  -18.1917  -26.7933   22.1626 C   0  0  0  0  0  0
  -19.1547  -28.8865   23.2868 C   0  0  0  0  0  0
  -18.9470  -30.1473   23.8882 C   0  0  0  0  0  0
  -17.6468  -30.6595   24.0561 C   0  0  0  0  0  0
  -25.9055  -34.9427   23.5093 C   0  0  0  0  0  0
  -16.5359  -29.9085   23.6342 C   0  0  0  0  0  0
  -16.7276  -28.6500   23.0370 C   0  0  0  0  0  0
  -26.4531  -31.6586   25.0747 C   0  0  0  0  0  0
  -25.3743  -31.3756   26.1467 C   0  0  0  0  0  0
  -27.0395  -30.2993   24.6274 C   0  0  0  0  0  0
  -27.6084  -32.4337   25.7509 C   0  0  0  0  0  0
  -27.5568  -37.1790   24.8470 C   0  0  0  0  0  0
  -21.4232  -29.3046   22.3640 N   0  0  0  0  0  0
  -26.4273  -37.3765   23.9423 N   0  0  0  0  0  0
  -24.7047  -31.0448   22.0978 N   0  0  0  0  0  0
  -23.4209  -28.8111   23.3003 O   0  0  0  0  0  0
  -28.2373  -26.2438   20.2020 O   0  0  0  0  0  0
  -26.5613  -34.8911   22.4655 O   0  0  0  0  0  0
  -23.5506  -32.1360   23.7249 O   0  0  0  0  0  0
  -30.9766  -20.1562   19.5455 C   0  0  0  0  0  0
  -31.4605  -17.7429   19.6064 C   0  0  0  0  0  0
  -29.7407  -19.9949   20.2070 C   0  0  0  0  0  0
  -31.8203  -19.0632   19.2601 C   0  0  0  0  0  0
  -30.2456  -17.4325   20.2683 C   0  0  0  0  0  0
  -29.4001  -18.5993   20.5602 C   0  0  0  0  0  0
  -28.1976  -23.6387   20.7573 C   0  0  0  0  0  0
  -27.4221  -22.6881   21.5866 C   0  0  0  0  0  0
  -27.8409  -25.0010   20.7991 C   0  0  0  0  0  0
  -29.2262  -22.6704   20.0526 C   0  0  0  0  0  0
  -27.8608  -21.2247   21.4077 C   0  0  0  0  0  0
  -28.9673  -21.2201   20.4607 N   0  0  0  0  0  0
  -33.0383  -19.2893   18.6158 N   0  0  0  0  0  0
  -29.8988  -15.9908   20.5773 N   0  0  0  0  0  0
  -26.5036  -22.9838   22.3583 O   0  0  0  0  0  0
  -28.2220  -18.3615   21.1858 F   0  0  0  0  0  0
  -31.4677  -12.5931   19.1812 H   0  0  0  0  0  0
  -30.3621  -11.5211   19.9918 H   0  0  0  0  0  0
  -29.8022  -11.7260   17.5399 H   0  0  0  0  0  0
  -29.6347  -13.4549   17.7112 H   0  0  0  0  0  0
  -27.9024  -11.2836   18.9271 H   0  0  0  0  0  0
  -27.3829  -12.5107   17.7997 H   0  0  0  0  0  0
  -27.6137  -14.2582   19.4422 H   0  0  0  0  0  0
  -28.7275  -12.2430   21.4517 H   0  0  0  0  0  0
  -28.4101  -13.9325   21.7643 H   0  0  0  0  0  0
  -25.2775   -9.5688   22.4753 H   0  0  0  0  0  0
  -24.0012   -7.4644   22.7468 H   0  0  0  0  0  0
  -21.0858   -8.8762   19.8943 H   0  0  0  0  0  0
  -22.3708  -10.9666   19.6150 H   0  0  0  0  0  0
  -21.2006   -7.6147   23.9716 H   0  0  0  0  0  0
  -21.1483   -6.0522   25.9075 H   0  0  0  0  0  0
  -22.0600   -2.7611   23.2848 H   0  0  0  0  0  0
  -22.4096  -11.9871   22.4813 H   0  0  0  0  0  0
  -21.1074  -13.1214   22.2616 H   0  0  0  0  0  0
  -24.6488  -15.8464   20.5307 H   0  0  0  0  0  0
  -26.2672  -15.6411   20.0971 H   0  0  0  0  0  0
  -26.7240  -32.5378   23.1081 H   0  0  0  0  0  0
  -25.0155  -33.9683   25.0442 H   0  0  0  0  0  0
  -22.7351  -31.2982   21.3938 H   0  0  0  0  0  0
  -23.3754  -35.9568   23.3284 H   0  0  0  0  0  0
  -24.3565  -36.8899   22.2059 H   0  0  0  0  0  0
  -23.7206  -37.6442   23.6687 H   0  0  0  0  0  0
  -26.1300  -31.5161   20.6167 H   0  0  0  0  0  0
  -26.8592  -30.8037   22.0226 H   0  0  0  0  0  0
  -28.1253  -28.8771   21.2420 H   0  0  0  0  0  0
  -25.9738  -25.8987   18.9888 H   0  0  0  0  0  0
  -23.9834  -27.3203   18.9735 H   0  0  0  0  0  0
  -23.7859  -30.5897   19.4036 H   0  0  0  0  0  0
  -22.7751  -29.2474   19.8482 H   0  0  0  0  0  0
  -25.1285  -36.1895   25.0820 H   0  0  0  0  0  0
  -20.9992  -28.3286   24.1374 H   0  0  0  0  0  0
  -20.5655  -26.2316   23.3625 H   0  0  0  0  0  0
  -21.6640  -26.7420   22.1199 H   0  0  0  0  0  0
  -19.6889  -25.6284   21.1257 H   0  0  0  0  0  0
  -19.6676  -27.3179   20.6727 H   0  0  0  0  0  0
  -17.4186  -26.6708   21.4017 H   0  0  0  0  0  0
  -18.0295  -26.0072   22.9015 H   0  0  0  0  0  0
  -19.7944  -30.7306   24.2236 H   0  0  0  0  0  0
  -17.5011  -31.6273   24.5164 H   0  0  0  0  0  0
  -15.5360  -30.2977   23.7683 H   0  0  0  0  0  0
  -15.8670  -28.0813   22.7108 H   0  0  0  0  0  0
  -24.5908  -30.7114   25.7800 H   0  0  0  0  0  0
  -24.8950  -32.2927   26.4893 H   0  0  0  0  0  0
  -25.8045  -30.8931   27.0249 H   0  0  0  0  0  0
  -26.3000  -29.6724   24.1271 H   0  0  0  0  0  0
  -27.4029  -29.7287   25.4835 H   0  0  0  0  0  0
  -27.8895  -30.4262   23.9565 H   0  0  0  0  0  0
  -27.2713  -33.3671   26.2027 H   0  0  0  0  0  0
  -28.3919  -32.6839   25.0344 H   0  0  0  0  0  0
  -28.0717  -31.8494   26.5467 H   0  0  0  0  0  0
  -28.2590  -38.0083   24.7523 H   0  0  0  0  0  0
  -28.1062  -36.2622   24.6283 H   0  0  0  0  0  0
  -27.2285  -37.1409   25.8871 H   0  0  0  0  0  0
  -20.9420  -29.8802   21.6871 H   0  0  0  0  0  0
  -26.0143  -38.2826   24.1454 H   0  0  0  0  0  0
  -31.2968  -21.1449   19.2521 H   0  0  0  0  0  0
  -32.1508  -16.9644   19.3275 H   0  0  0  0  0  0
  -27.0234  -25.2329   21.4705 H   0  0  0  0  0  0
  -30.2375  -22.9698   20.3292 H   0  0  0  0  0  0
  -29.1368  -22.7718   18.9699 H   0  0  0  0  0  0
  -27.0260  -20.6328   21.0315 H   0  0  0  0  0  0
  -28.1706  -20.8135   22.3694 H   0  0  0  0  0  0
  -33.4133  -20.2330   18.5789 H   0  0  0  0  0  0
  -33.7646  -18.5799   18.6686 H   0  0  0  0  0  0
  -28.9424  -15.8529   20.8672 H   0  0  0  0  0  0
  1 25  1  0  0  0
  1 30  2  0  0  0
  1 84  1  0  0  0
  2  3  1  0  0  0
  2 25  1  0  0  0
  2 87  1  0  0  0
  2 88  1  0  0  0
  3  4  1  0  0  0
  3 89  1  0  0  0
  3 90  1  0  0  0
  4  5  1  0  0  0
  4 91  1  0  0  0
  4 92  1  0  0  0
  5  6  1  0  0  0
  5 26  1  0  0  0
  5 93  1  0  0  0
  6 25  1  0  0  0
  6 94  1  0  0  0
  6 95  1  0  0  0
  7  8  2  0  0  0
  7 26  1  0  0  0
  7 29  1  0  0  0
  8  9  1  0  0  0
  8 22  1  0  0  0
  9 10  1  0  0  0
  9 27  2  0  0  0
 10 11  2  0  0  0
 10 15  1  0  0  0
 11 12  1  0  0  0
 11 96  1  0  0  0
 12 13  2  0  0  0
 12 97  1  0  0  0
 13 14  1  0  0  0
 13 31  1  0  0  0
 14 15  2  0  0  0
 14 98  1  0  0  0
 15 99  1  0  0  0
 16 17  2  0  0  0
 16 21  1  0  0  0
 16 31  1  0  0  0
 17 18  1  0  0  0
 17100  1  0  0  0
 18 19  2  0  0  0
 18101  1  0  0  0
 19 20  1  0  0  0
 19 24  1  0  0  0
 20 21  2  0  0  0
 20102  1  0  0  0
 21 23  1  0  0  0
 22 28  1  0  0  0
 22 32  2  0  0  0
 26 27  1  0  0  0
 28103  1  0  0  0
 28104  1  0  0  0
 29105  1  0  0  0
 29106  1  0  0  0
 33 34  1  0  0  0
 33 66  1  0  0  0
 33 70  2  0  0  0
 34 36  1  0  0  0
 34 59  1  0  0  0
 34107  1  0  0  0
 35 44  2  0  0  0
 35 45  1  0  0  0
 35 68  1  0  0  0
 36 56  1  0  0  0
 36108  1  0  0  0
 37 39  1  0  0  0
 37 47  1  0  0  0
 37 66  1  0  0  0
 37109  1  0  0  0
 38 43  2  0  0  0
 38 46  1  0  0  0
 38 47  1  0  0  0
 39 64  1  0  0  0
 39 67  2  0  0  0
 40 52  1  0  0  0
 40 53  2  0  0  0
 40 58  1  0  0  0
 41110  1  0  0  0
 41111  1  0  0  0
 41112  1  0  0  0
 41 48  1  0  0  0
 42 43  1  0  0  0
 42 66  1  0  0  0
 42113  1  0  0  0
 42114  1  0  0  0
 43 44  1  0  0  0
 44115  1  0  0  0
 45 46  2  0  0  0
 45116  1  0  0  0
 46117  1  0  0  0
 47118  1  0  0  0
 47119  1  0  0  0
 48 56  1  0  0  0
 48 65  1  0  0  0
 48120  1  0  0  0
 49 50  1  0  0  0
 49 53  1  0  0  0
 49 64  1  0  0  0
 49121  1  0  0  0
 50 51  1  0  0  0
 50122  1  0  0  0
 50123  1  0  0  0
 51 52  1  0  0  0
 51124  1  0  0  0
 51125  1  0  0  0
 52126  1  0  0  0
 52127  1  0  0  0
 53 54  1  0  0  0
 54 55  2  0  0  0
 54128  1  0  0  0
 55 57  1  0  0  0
 55129  1  0  0  0
 56 69  2  0  0  0
 57 58  2  0  0  0
 57130  1  0  0  0
 58131  1  0  0  0
 59 60  1  0  0  0
 59 61  1  0  0  0
 59 62  1  0  0  0
 60132  1  0  0  0
 60133  1  0  0  0
 60134  1  0  0  0
 61135  1  0  0  0
 61136  1  0  0  0
 61137  1  0  0  0
 62138  1  0  0  0
 62139  1  0  0  0
 62140  1  0  0  0
 63 65  1  0  0  0
 63141  1  0  0  0
 63142  1  0  0  0
 63143  1  0  0  0
 64144  1  0  0  0
 65145  1  0  0  0
 68 79  1  0  0  0
 71 73  2  0  0  0
 71 74  1  0  0  0
 71146  1  0  0  0
 72 74  2  0  0  0
 72 75  1  0  0  0
 72147  1  0  0  0
 73 76  1  0  0  0
 73 82  1  0  0  0
 74 83  1  0  0  0
 75 76  2  0  0  0
 75 84  1  0  0  0
 76 86  1  0  0  0
 77 78  1  0  0  0
 77 79  2  0  0  0
 77 80  1  0  0  0
 78 81  1  0  0  0
 78 85  2  0  0  0
 79148  1  0  0  0
 80 82  1  0  0  0
 80149  1  0  0  0
 80150  1  0  0  0
 81 82  1  0  0  0
 81151  1  0  0  0
 81152  1  0  0  0
 83153  1  0  0  0
 83154  1  0  0  0
 84155  1  0  0  0
M  ISO  4   1 100  68 101  79 101  84 100
M  END
> <chiral flag>
0

> <version>
0

> <s_m_source_file>
/data/baiqing/PycharmProjects/Reinvent-master-3.2/result/LINK_invent/BTK/process_docking_weight1_custom_product_contain_oxygen_bond_distance_aromatic_linkinvent_7_9_3/rearranged_h_0092.sdf

> <i_m_source_file_index>
82

> <r_mmod_Potential_Energy-OPLS-2005>
388.224029541016

> <r_mmod_Stretch_Energy-OPLS-2005>
150.23908996582

> <r_mmod_Bend_Energy-OPLS-2005>
260.430358886719

> <r_mmod_Torsional_Energy-OPLS-2005>
215.561904907227

> <r_mmod_Improper_Torsional_Energy-OPLS-2005>
7.23596048355103

> <r_mmod_Van_der_Waal_Energy-OPLS-2005>
143.655487060547

> <r_mmod_Electrostatic_Energy-OPLS-2005>
-271.103088378906

> <r_mmod_Solvation_Energy-OPLS-2005>
-235.189834594727

> <b_mmod_Minimization_Converged-OPLS-2005>
0

> <r_mmod_RMS_Derivative-OPLS-2005>
1.4718382358551

$$$$
82
                    3D
 Structure written by MMmdl.
155164  0  0  1  0            999 V2000
  -30.5850  -14.7913   20.4416 C   0  0  0  0  0  0
  -30.4369  -12.4731   19.4968 C   0  0  0  0  0  0
  -29.5198  -12.4983   18.2523 C   0  0  0  0  0  0
  -28.0424  -12.3350   18.6585 C   0  0  0  0  0  0
  -27.6452  -13.2376   19.8576 C   0  0  2  0  0  0
  -28.6864  -13.1792   20.9979 C   0  0  0  0  0  0
  -25.2515  -13.8219   20.5711 C   0  0  0  0  0  0
  -24.1804  -13.0453   20.9207 C   0  0  0  0  0  0
  -24.6405  -11.6934   20.8752 C   0  0  0  0  0  0
  -23.9087  -10.4300   21.0402 C   0  0  0  0  0  0
  -24.3634   -9.4210   21.9179 C   0  0  0  0  0  0
  -23.6301   -8.2251   22.0756 C   0  0  0  0  0  0
  -22.4283   -8.0290   21.3551 C   0  0  0  0  0  0
  -21.9921   -9.0261   20.4649 C   0  0  0  0  0  0
  -22.7258  -10.2136   20.3055 C   0  0  0  0  0  0
  -21.6853   -6.0744   22.5282 C   0  0  0  0  0  0
  -21.4011   -6.5644   23.8215 C   0  0  0  0  0  0
  -21.3660   -5.6798   24.9179 C   0  0  0  0  0  0
  -21.6048   -4.3062   24.7230 C   0  0  0  0  0  0
  -21.8814   -3.8153   23.4350 C   0  0  0  0  0  0
  -21.9188   -4.6970   22.3404 C   0  0  0  0  0  0
  -22.7822  -13.5221   21.1873 C   0  0  0  0  0  0
  -22.1658   -4.2154   21.0982 F   0  0  0  0  0  0
  -21.5630   -3.4547   25.7745 F   0  0  0  0  0  0
  -29.9878  -13.5441   20.4239 N   0  0  0  0  0  0
  -26.2952  -12.9438   20.3314 N   0  0  0  0  0  0
  -25.9341  -11.6574   20.5776 N   0  0  0  0  0  0
  -22.0478  -12.8200   22.0429 N   0  0  0  0  0  0
  -25.4213  -15.1950   20.4148 N   0  0  0  0  0  0
  -31.7560  -14.8988   20.0657 O   0  0  0  0  0  0
  -21.6645   -6.8890   21.4247 O   0  0  0  0  0  0
  -22.3494  -14.5527   20.6728 O   0  0  0  0  0  0
  -24.6346  -31.8530   23.1979 C   0  0  0  0  0  0
  -25.9158  -32.4740   23.8327 C   0  0  1  0  0  0
  -27.2130  -27.2210   20.1393 C   0  0  0  0  0  0
  -25.5942  -33.8545   24.2244 N   0  0  0  0  0  0
  -23.4337  -30.4761   21.5407 C   0  0  2  0  0  0
  -24.8835  -28.9227   20.1074 C   0  0  0  0  0  0
  -22.7517  -29.4595   22.4890 C   0  0  0  0  0  0
  -18.0295  -28.1388   22.8485 C   0  0  0  0  0  0
  -24.1492  -36.7275   23.2641 C   0  0  0  0  0  0
  -25.9841  -30.7509   21.3888 C   0  0  0  0  0  0
  -26.0555  -29.3702   20.7319 C   0  0  0  0  0  0
  -27.2212  -28.5292   20.7450 C   0  0  0  0  0  0
  -26.0294  -26.8745   19.4479 C   0  0  0  0  0  0
  -24.8779  -27.6832   19.4530 C   0  0  0  0  0  0
  -23.6559  -29.8135   20.1564 C   0  0  0  0  0  0
  -25.4122  -36.3059   24.0324 C   0  0  1  0  0  0
  -20.5900  -28.3712   23.1254 C   0  0  2  0  0  0
  -20.6784  -26.9426   22.5409 C   0  0  0  0  0  0
  -19.5756  -26.6383   21.5215 C   0  0  0  0  0  0
  -18.1935  -26.7927   22.1627 C   0  0  0  0  0  0
  -19.1550  -28.8866   23.2863 C   0  0  0  0  0  0
  -18.9469  -30.1466   23.8887 C   0  0  0  0  0  0
  -17.6467  -30.6591   24.0563 C   0  0  0  0  0  0
  -25.9065  -34.9432   23.5087 C   0  0  0  0  0  0
  -16.5360  -29.9090   23.6328 C   0  0  0  0  0  0
  -16.7284  -28.6504   23.0357 C   0  0  0  0  0  0
  -26.4513  -31.6571   25.0728 C   0  0  0  0  0  0
  -25.3718  -31.3734   26.1435 C   0  0  0  0  0  0
  -27.0375  -30.2978   24.6253 C   0  0  0  0  0  0
  -27.6056  -32.4325   25.7507 C   0  0  0  0  0  0
  -27.5576  -37.1796   24.8465 C   0  0  0  0  0  0
  -21.4222  -29.3050   22.3633 N   0  0  0  0  0  0
  -26.4290  -37.3762   23.9408 N   0  0  0  0  0  0
  -24.7028  -31.0461   22.0977 N   0  0  0  0  0  0
  -23.4199  -28.8130   23.3002 O   0  0  0  0  0  0
  -28.2620  -26.2571   20.2043 O   0  0  0  0  0  0
  -26.5640  -34.8913   22.4658 O   0  0  0  0  0  0
  -23.5484  -32.1377   23.7242 O   0  0  0  0  0  0
  -29.2013  -19.7511   18.6575 C   0  0  0  0  0  0
  -29.2748  -18.5154   17.9894 C   0  0  0  0  0  0
  -29.6299  -18.5760   20.7413 C   0  0  0  0  0  0
  -29.3756  -19.8495   20.0514 C   0  0  0  0  0  0
  -29.5249  -17.3039   18.6673 C   0  0  0  0  0  0
  -29.7214  -17.2671   20.0751 C   0  0  0  0  0  0
  -28.6820  -23.6729   20.3346 C   0  0  0  0  0  0
  -30.1305  -23.5168   20.2427 C   0  0  0  0  0  0
  -27.9316  -24.8560   20.3365 C   0  0  0  0  0  0
  -28.2013  -22.1739   20.4486 C   0  0  0  0  0  0
  -30.5361  -22.0230   20.3667 C   0  0  0  0  0  0
  -29.3404  -21.1931   20.6305 N   0  0  0  0  0  0
  -29.5198  -16.1429   17.8979 N   0  0  0  0  0  0
  -29.8197  -15.9209   20.7424 N   0  0  0  0  0  0
  -30.9578  -24.4204   20.0898 O   0  0  0  0  0  0
  -31.4786  -12.5970   19.1962 H   0  0  0  0  0  0
  -30.3855  -11.5001   19.9890 H   0  0  0  0  0  0
  -29.8038  -11.7064   17.5585 H   0  0  0  0  0  0
  -29.6535  -13.4334   17.7101 H   0  0  0  0  0  0
  -27.8890  -11.2871   18.9193 H   0  0  0  0  0  0
  -27.3922  -12.5337   17.8061 H   0  0  0  0  0  0
  -27.6395  -14.2591   19.4763 H   0  0  0  0  0  0
  -28.7271  -12.1817   21.4386 H   0  0  0  0  0  0
  -28.4130  -13.8582   21.8070 H   0  0  0  0  0  0
  -25.2781   -9.5684   22.4749 H   0  0  0  0  0  0
  -24.0007   -7.4646   22.7477 H   0  0  0  0  0  0
  -21.0854   -8.8786   19.8952 H   0  0  0  0  0  0
  -22.3718  -10.9674   19.6163 H   0  0  0  0  0  0
  -21.1999   -7.6151   23.9724 H   0  0  0  0  0  0
  -21.1490   -6.0529   25.9083 H   0  0  0  0  0  0
  -22.0590   -2.7613   23.2857 H   0  0  0  0  0  0
  -22.4101  -11.9859   22.4806 H   0  0  0  0  0  0
  -21.1095  -13.1218   22.2654 H   0  0  0  0  0  0
  -24.6555  -15.8510   20.5262 H   0  0  0  0  0  0
  -26.2726  -15.6325   20.0856 H   0  0  0  0  0  0
  -26.7221  -32.5383   23.1062 H   0  0  0  0  0  0
  -25.0084  -33.9682   25.0385 H   0  0  0  0  0  0
  -22.7320  -31.2998   21.3933 H   0  0  0  0  0  0
  -23.3757  -35.9602   23.3296 H   0  0  0  0  0  0
  -24.3577  -36.8910   22.2056 H   0  0  0  0  0  0
  -23.7243  -37.6472   23.6677 H   0  0  0  0  0  0
  -26.1311  -31.5091   20.6185 H   0  0  0  0  0  0
  -26.8587  -30.8000   22.0259 H   0  0  0  0  0  0
  -28.1110  -28.8587   21.2627 H   0  0  0  0  0  0
  -25.9689  -25.9366   18.9148 H   0  0  0  0  0  0
  -23.9884  -27.3412   18.9422 H   0  0  0  0  0  0
  -23.7848  -30.5919   19.4033 H   0  0  0  0  0  0
  -22.7736  -29.2506   19.8461 H   0  0  0  0  0  0
  -25.1305  -36.1902   25.0814 H   0  0  0  0  0  0
  -20.9996  -28.3301   24.1377 H   0  0  0  0  0  0
  -20.5686  -26.2328   23.3624 H   0  0  0  0  0  0
  -21.6650  -26.7443   22.1202 H   0  0  0  0  0  0
  -19.6922  -25.6290   21.1256 H   0  0  0  0  0  0
  -19.6688  -27.3183   20.6738 H   0  0  0  0  0  0
  -17.4206  -26.6675   21.4028 H   0  0  0  0  0  0
  -18.0333  -26.0068   22.9024 H   0  0  0  0  0  0
  -19.7949  -30.7283   24.2249 H   0  0  0  0  0  0
  -17.5027  -31.6267   24.5171 H   0  0  0  0  0  0
  -15.5362  -30.2995   23.7655 H   0  0  0  0  0  0
  -15.8677  -28.0824   22.7081 H   0  0  0  0  0  0
  -24.5911  -30.7060   25.7762 H   0  0  0  0  0  0
  -24.8889  -32.2909   26.4809 H   0  0  0  0  0  0
  -25.8024  -30.8950   27.0239 H   0  0  0  0  0  0
  -26.2977  -29.6710   24.1260 H   0  0  0  0  0  0
  -27.4018  -29.7258   25.4797 H   0  0  0  0  0  0
  -27.8871  -30.4239   23.9540 H   0  0  0  0  0  0
  -27.2657  -33.3647   26.2033 H   0  0  0  0  0  0
  -28.3891  -32.6847   25.0348 H   0  0  0  0  0  0
  -28.0687  -31.8477   26.5465 H   0  0  0  0  0  0
  -28.2588  -38.0098   24.7515 H   0  0  0  0  0  0
  -28.1080  -36.2629   24.6291 H   0  0  0  0  0  0
  -27.2293  -37.1440   25.8868 H   0  0  0  0  0  0
  -20.9415  -29.8780   21.6840 H   0  0  0  0  0  0
  -26.0165  -38.2835   24.1409 H   0  0  0  0  0  0
  -29.0169  -20.6392   18.0706 H   0  0  0  0  0  0
  -29.1228  -18.5101   16.9195 H   0  0  0  0  0  0
  -29.7532  -18.6046   21.8138 H   0  0  0  0  0  0
  -26.8682  -24.7288   20.4719 H   0  0  0  0  0  0
  -27.6244  -21.9268   19.5561 H   0  0  0  0  0  0
  -27.5169  -22.0875   21.2939 H   0  0  0  0  0  0
  -31.2550  -21.9115   21.1788 H   0  0  0  0  0  0
  -31.0310  -21.7151   19.4445 H   0  0  0  0  0  0
  -29.5924  -16.2566   16.8929 H   0  0  0  0  0  0
  -30.0907  -15.3768   18.2282 H   0  0  0  0  0  0
  -28.9875  -15.6846   21.2607 H   0  0  0  0  0  0
  1 25  1  0  0  0
  1 30  2  0  0  0
  1 84  1  0  0  0
  2  3  1  0  0  0
  2 25  1  0  0  0
  2 86  1  0  0  0
  2 87  1  0  0  0
  3  4  1  0  0  0
  3 88  1  0  0  0
  3 89  1  0  0  0
  4  5  1  0  0  0
  4 90  1  0  0  0
  4 91  1  0  0  0
  5  6  1  0  0  0
  5 26  1  0  0  0
  5 92  1  0  0  0
  6 25  1  0  0  0
  6 93  1  0  0  0
  6 94  1  0  0  0
  7  8  2  0  0  0
  7 26  1  0  0  0
  7 29  1  0  0  0
  8  9  1  0  0  0
  8 22  1  0  0  0
  9 10  1  0  0  0
  9 27  2  0  0  0
 10 11  2  0  0  0
 10 15  1  0  0  0
 11 12  1  0  0  0
 11 95  1  0  0  0
 12 13  2  0  0  0
 12 96  1  0  0  0
 13 14  1  0  0  0
 13 31  1  0  0  0
 14 15  2  0  0  0
 14 97  1  0  0  0
 15 98  1  0  0  0
 16 17  2  0  0  0
 16 21  1  0  0  0
 16 31  1  0  0  0
 17 18  1  0  0  0
 17 99  1  0  0  0
 18 19  2  0  0  0
 18100  1  0  0  0
 19 20  1  0  0  0
 19 24  1  0  0  0
 20 21  2  0  0  0
 20101  1  0  0  0
 21 23  1  0  0  0
 22 28  1  0  0  0
 22 32  2  0  0  0
 26 27  1  0  0  0
 28102  1  0  0  0
 28103  1  0  0  0
 29104  1  0  0  0
 29105  1  0  0  0
 33 34  1  0  0  0
 33 66  1  0  0  0
 33 70  2  0  0  0
 34 36  1  0  0  0
 34 59  1  0  0  0
 34106  1  0  0  0
 35 44  2  0  0  0
 35 45  1  0  0  0
 35 68  1  0  0  0
 36 56  1  0  0  0
 36107  1  0  0  0
 37 39  1  0  0  0
 37 47  1  0  0  0
 37 66  1  0  0  0
 37108  1  0  0  0
 38 43  2  0  0  0
 38 46  1  0  0  0
 38 47  1  0  0  0
 39 64  1  0  0  0
 39 67  2  0  0  0
 40 52  1  0  0  0
 40 53  2  0  0  0
 40 58  1  0  0  0
 41109  1  0  0  0
 41110  1  0  0  0
 41111  1  0  0  0
 41 48  1  0  0  0
 42 43  1  0  0  0
 42 66  1  0  0  0
 42112  1  0  0  0
 42113  1  0  0  0
 43 44  1  0  0  0
 44114  1  0  0  0
 45 46  2  0  0  0
 45115  1  0  0  0
 46116  1  0  0  0
 47117  1  0  0  0
 47118  1  0  0  0
 48 56  1  0  0  0
 48 65  1  0  0  0
 48119  1  0  0  0
 49 50  1  0  0  0
 49 53  1  0  0  0
 49 64  1  0  0  0
 49120  1  0  0  0
 50 51  1  0  0  0
 50121  1  0  0  0
 50122  1  0  0  0
 51 52  1  0  0  0
 51123  1  0  0  0
 51124  1  0  0  0
 52125  1  0  0  0
 52126  1  0  0  0
 53 54  1  0  0  0
 54 55  2  0  0  0
 54127  1  0  0  0
 55 57  1  0  0  0
 55128  1  0  0  0
 56 69  2  0  0  0
 57 58  2  0  0  0
 57129  1  0  0  0
 58130  1  0  0  0
 59 60  1  0  0  0
 59 61  1  0  0  0
 59 62  1  0  0  0
 60131  1  0  0  0
 60132  1  0  0  0
 60133  1  0  0  0
 61134  1  0  0  0
 61135  1  0  0  0
 61136  1  0  0  0
 62137  1  0  0  0
 62138  1  0  0  0
 62139  1  0  0  0
 63 65  1  0  0  0
 63140  1  0  0  0
 63141  1  0  0  0
 63142  1  0  0  0
 64143  1  0  0  0
 65144  1  0  0  0
 68 79  1  0  0  0
 71 72  2  0  0  0
 71 74  1  0  0  0
 71145  1  0  0  0
 72 75  1  0  0  0
 72146  1  0  0  0
 73 74  2  0  0  0
 73 76  1  0  0  0
 73147  1  0  0  0
 74 82  1  0  0  0
 75 76  2  0  0  0
 75 83  1  0  0  0
 76 84  1  0  0  0
 77 78  1  0  0  0
 77 79  2  0  0  0
 77 80  1  0  0  0
 78 81  1  0  0  0
 78 85  2  0  0  0
 79148  1  0  0  0
 80 82  1  0  0  0
 80149  1  0  0  0
 80150  1  0  0  0
 81 82  1  0  0  0
 81151  1  0  0  0
 81152  1  0  0  0
 83153  1  0  0  0
 83154  1  0  0  0
 84155  1  0  0  0
M  ISO  4   1 100  68 101  79 101  84 100
M  END
> <chiral flag>
0

> <version>
0

> <s_m_source_file>
/data/baiqing/PycharmProjects/Reinvent-master-3.2/result/LINK_invent/BTK/process_docking_weight1_custom_product_contain_oxygen_bond_distance_aromatic_linkinvent_7_9_3/rearranged_h_0092.sdf

> <i_m_source_file_index>
83

> <r_mmod_Potential_Energy-OPLS-2005>
198.441070556641

> <r_mmod_Stretch_Energy-OPLS-2005>
141.540313720703

> <r_mmod_Bend_Energy-OPLS-2005>
209.904235839844

> <r_mmod_Torsional_Energy-OPLS-2005>
273.486755371094

> <r_mmod_Improper_Torsional_Energy-OPLS-2005>
14.8029413223267

> <r_mmod_Van_der_Waal_Energy-OPLS-2005>
138.826446533203

> <r_mmod_Electrostatic_Energy-OPLS-2005>
-447.790679931641

> <r_mmod_Solvation_Energy-OPLS-2005>
-245.752746582031

> <b_mmod_Minimization_Converged-OPLS-2005>
0

> <r_mmod_RMS_Derivative-OPLS-2005>
0.974914491176605

$$$$
83
                    3D
 Structure written by MMmdl.
157166  0  0  1  0            999 V2000
  -30.6228  -14.6508   20.4948 C   0  0  0  0  0  0
  -30.4418  -12.3977   19.4527 C   0  0  0  0  0  0
  -29.5084  -12.5109   18.2264 C   0  0  0  0  0  0
  -28.0311  -12.3510   18.6394 C   0  0  0  0  0  0
  -27.6553  -13.2209   19.8690 C   0  0  2  0  0  0
  -28.7034  -13.0747   20.9954 C   0  0  0  0  0  0
  -25.2554  -13.8172   20.5705 C   0  0  0  0  0  0
  -24.1808  -13.0421   20.9122 C   0  0  0  0  0  0
  -24.6399  -11.6900   20.8708 C   0  0  0  0  0  0
  -23.9071  -10.4281   21.0385 C   0  0  0  0  0  0
  -24.3618   -9.4201   21.9175 C   0  0  0  0  0  0
  -23.6291   -8.2239   22.0754 C   0  0  0  0  0  0
  -22.4275   -8.0276   21.3542 C   0  0  0  0  0  0
  -21.9909   -9.0245   20.4640 C   0  0  0  0  0  0
  -22.7238  -10.2122   20.3041 C   0  0  0  0  0  0
  -21.6853   -6.0731   22.5279 C   0  0  0  0  0  0
  -21.4012   -6.5637   23.8211 C   0  0  0  0  0  0
  -21.3663   -5.6794   24.9176 C   0  0  0  0  0  0
  -21.6046   -4.3055   24.7227 C   0  0  0  0  0  0
  -21.8822   -3.8143   23.4349 C   0  0  0  0  0  0
  -21.9192   -4.6958   22.3404 C   0  0  0  0  0  0
  -22.7834  -13.5206   21.1820 C   0  0  0  0  0  0
  -22.1662   -4.2146   21.0980 F   0  0  0  0  0  0
  -21.5633   -3.4538   25.7737 F   0  0  0  0  0  0
  -30.0185  -13.4205   20.4298 N   0  0  0  0  0  0
  -26.3014  -12.9376   20.3387 N   0  0  0  0  0  0
  -25.9341  -11.6518   20.5778 N   0  0  0  0  0  0
  -22.0499  -12.8190   22.0390 N   0  0  0  0  0  0
  -25.4225  -15.1907   20.4270 N   0  0  0  0  0  0
  -31.7847  -14.8158   20.1115 O   0  0  0  0  0  0
  -21.6640   -6.8875   21.4242 O   0  0  0  0  0  0
  -22.3502  -14.5522   20.6696 O   0  0  0  0  0  0
  -24.6288  -31.8601   23.2043 C   0  0  0  0  0  0
  -25.9131  -32.4781   23.8369 C   0  0  1  0  0  0
  -27.2192  -27.3034   20.1056 C   0  0  0  0  0  0
  -25.5940  -33.8582   24.2289 N   0  0  0  0  0  0
  -23.4227  -30.4872   21.5479 C   0  0  2  0  0  0
  -24.8679  -28.9494   20.1090 C   0  0  0  0  0  0
  -22.7489  -29.4631   22.4930 C   0  0  0  0  0  0
  -18.0289  -28.1389   22.8490 C   0  0  0  0  0  0
  -24.1488  -36.7290   23.2633 C   0  0  0  0  0  0
  -25.9684  -30.7847   21.3806 C   0  0  0  0  0  0
  -26.0410  -29.4133   20.7178 C   0  0  0  0  0  0
  -27.2190  -28.6021   20.7102 C   0  0  0  0  0  0
  -26.0201  -26.9138   19.4563 C   0  0  0  0  0  0
  -24.8606  -27.7048   19.4699 C   0  0  0  0  0  0
  -23.6374  -29.8302   20.1615 C   0  0  0  0  0  0
  -25.4111  -36.3084   24.0328 C   0  0  1  0  0  0
  -20.5891  -28.3695   23.1277 C   0  0  2  0  0  0
  -20.6777  -26.9414   22.5409 C   0  0  0  0  0  0
  -19.5752  -26.6386   21.5213 C   0  0  0  0  0  0
  -18.1931  -26.7933   22.1625 C   0  0  0  0  0  0
  -19.1541  -28.8859   23.2880 C   0  0  0  0  0  0
  -18.9462  -30.1459   23.8898 C   0  0  0  0  0  0
  -17.6461  -30.6590   24.0565 C   0  0  0  0  0  0
  -25.9056  -34.9455   23.5107 C   0  0  0  0  0  0
  -16.5353  -29.9088   23.6332 C   0  0  0  0  0  0
  -16.7274  -28.6504   23.0358 C   0  0  0  0  0  0
  -26.4507  -31.6589   25.0738 C   0  0  0  0  0  0
  -25.3737  -31.3719   26.1459 C   0  0  0  0  0  0
  -27.0354  -30.3013   24.6200 C   0  0  0  0  0  0
  -27.6062  -32.4324   25.7512 C   0  0  0  0  0  0
  -27.5589  -37.1787   24.8454 C   0  0  0  0  0  0
  -21.4199  -29.3050   22.3668 N   0  0  0  0  0  0
  -26.4283  -37.3786   23.9425 N   0  0  0  0  0  0
  -24.6923  -31.0599   22.1008 N   0  0  0  0  0  0
  -23.4204  -28.8157   23.3007 O   0  0  0  0  0  0
  -28.3108  -26.4087   20.1736 O   0  0  0  0  0  0
  -26.5616  -34.8920   22.4670 O   0  0  0  0  0  0
  -23.5444  -32.1406   23.7356 O   0  0  0  0  0  0
  -30.8340  -19.3601   20.1287 C   0  0  0  0  0  0
  -30.9313  -17.9323   20.2103 C   0  0  0  0  0  0
  -28.5992  -22.4262   20.1371 C   0  0  0  0  0  0
  -30.6959  -22.4132   20.8295 C   0  0  0  0  0  0
  -28.9489  -23.7709   20.2406 C   0  0  0  0  0  0
  -29.6845  -20.0901   20.5568 C   0  0  0  0  0  0
  -29.8669  -17.1464   20.7274 C   0  0  0  0  0  0
  -28.6209  -19.2931   21.0801 C   0  0  0  0  0  0
  -28.7166  -17.8664   21.1443 C   0  0  0  0  0  0
  -30.3069  -23.7285   20.6857 C   0  0  0  0  0  0
  -28.0034  -24.9786   19.8914 C   0  0  0  0  0  0
  -29.6474  -21.5612   20.5057 N   0  0  0  0  0  0
  -27.4632  -19.8821   21.6049 N   0  0  0  0  0  0
  -27.6234  -17.1514   21.6407 N   0  0  0  0  0  0
  -29.8095  -15.6891   20.8553 N   0  0  0  0  0  0
  -31.0958  -24.8131   20.9284 O   0  0  0  0  0  0
  -31.4821  -12.5258   19.1483 H   0  0  0  0  0  0
  -30.3790  -11.4028   19.8961 H   0  0  0  0  0  0
  -29.7711  -11.7592   17.4809 H   0  0  0  0  0  0
  -29.6501  -13.4802   17.7461 H   0  0  0  0  0  0
  -27.8657  -11.2978   18.8693 H   0  0  0  0  0  0
  -27.3765  -12.5841   17.7990 H   0  0  0  0  0  0
  -27.6705  -14.2574   19.5306 H   0  0  0  0  0  0
  -28.7159  -12.0525   21.3770 H   0  0  0  0  0  0
  -28.4491  -13.7056   21.8482 H   0  0  0  0  0  0
  -25.2767   -9.5682   22.4744 H   0  0  0  0  0  0
  -24.0002   -7.4638   22.7479 H   0  0  0  0  0  0
  -21.0843   -8.8760   19.8945 H   0  0  0  0  0  0
  -22.3698  -10.9659   19.6144 H   0  0  0  0  0  0
  -21.2005   -7.6146   23.9712 H   0  0  0  0  0  0
  -21.1486   -6.0524   25.9080 H   0  0  0  0  0  0
  -22.0599   -2.7603   23.2850 H   0  0  0  0  0  0
  -22.4135  -11.9846   22.4754 H   0  0  0  0  0  0
  -21.1121  -13.1206   22.2626 H   0  0  0  0  0  0
  -24.6637  -15.8303   20.6322 H   0  0  0  0  0  0
  -26.3272  -15.6573   20.4332 H   0  0  0  0  0  0
  -26.7196  -32.5450   23.1116 H   0  0  0  0  0  0
  -25.0101  -33.9728   25.0445 H   0  0  0  0  0  0
  -22.7173  -31.3089   21.4082 H   0  0  0  0  0  0
  -23.3769  -35.9602   23.3263 H   0  0  0  0  0  0
  -24.3589  -36.8947   22.2057 H   0  0  0  0  0  0
  -23.7214  -37.6467   23.6680 H   0  0  0  0  0  0
  -26.1048  -31.5500   20.6149 H   0  0  0  0  0  0
  -26.8474  -30.8298   22.0121 H   0  0  0  0  0  0
  -28.1144  -28.9505   21.2052 H   0  0  0  0  0  0
  -25.9274  -25.9741   18.9342 H   0  0  0  0  0  0
  -23.9645  -27.3467   18.9812 H   0  0  0  0  0  0
  -23.7580  -30.6105   19.4093 H   0  0  0  0  0  0
  -22.7567  -29.2624   19.8562 H   0  0  0  0  0  0
  -25.1285  -36.1932   25.0821 H   0  0  0  0  0  0
  -20.9986  -28.3274   24.1395 H   0  0  0  0  0  0
  -20.5682  -26.2303   23.3607 H   0  0  0  0  0  0
  -21.6644  -26.7445   22.1201 H   0  0  0  0  0  0
  -19.6911  -25.6298   21.1240 H   0  0  0  0  0  0
  -19.6690  -27.3196   20.6740 H   0  0  0  0  0  0
  -17.4200  -26.6688   21.4023 H   0  0  0  0  0  0
  -18.0325  -26.0073   22.9017 H   0  0  0  0  0  0
  -19.7936  -30.7276   24.2268 H   0  0  0  0  0  0
  -17.5015  -31.6270   24.5167 H   0  0  0  0  0  0
  -15.5350  -30.2990   23.7656 H   0  0  0  0  0  0
  -15.8674  -28.0819   22.7080 H   0  0  0  0  0  0
  -24.5927  -30.7049   25.7788 H   0  0  0  0  0  0
  -24.8909  -32.2878   26.4877 H   0  0  0  0  0  0
  -25.8066  -30.8909   27.0240 H   0  0  0  0  0  0
  -26.2933  -29.6757   24.1225 H   0  0  0  0  0  0
  -27.4051  -29.7274   25.4708 H   0  0  0  0  0  0
  -27.8808  -30.4298   23.9436 H   0  0  0  0  0  0
  -27.2679  -33.3634   26.2074 H   0  0  0  0  0  0
  -28.3886  -32.6863   25.0347 H   0  0  0  0  0  0
  -28.0717  -31.8456   26.5442 H   0  0  0  0  0  0
  -28.2555  -38.0139   24.7585 H   0  0  0  0  0  0
  -28.1143  -36.2672   24.6178 H   0  0  0  0  0  0
  -27.2321  -37.1311   25.8857 H   0  0  0  0  0  0
  -20.9368  -29.8792   21.6898 H   0  0  0  0  0  0
  -26.0163  -38.2848   24.1483 H   0  0  0  0  0  0
  -31.6742  -19.9068   19.7265 H   0  0  0  0  0  0
  -31.8354  -17.4520   19.8648 H   0  0  0  0  0  0
  -27.6596  -21.9941   19.8200 H   0  0  0  0  0  0
  -31.6405  -21.9933   21.1491 H   0  0  0  0  0  0
  -27.0720  -24.7246   20.4002 H   0  0  0  0  0  0
  -27.8169  -24.8875   18.8209 H   0  0  0  0  0  0
  -27.5576  -20.8730   21.7965 H   0  0  0  0  0  0
  -27.0832  -19.3980   22.4087 H   0  0  0  0  0  0
  -27.7981  -16.7640   22.5599 H   0  0  0  0  0  0
  -26.8289  -17.7774   21.7092 H   0  0  0  0  0  0
  -28.8953  -15.3938   21.1671 H   0  0  0  0  0  0
  -31.9689  -24.5846   21.2347 H   0  0  0  0  0  0
  1 25  1  0  0  0
  1 30  2  0  0  0
  1 85  1  0  0  0
  2  3  1  0  0  0
  2 25  1  0  0  0
  2 87  1  0  0  0
  2 88  1  0  0  0
  3  4  1  0  0  0
  3 89  1  0  0  0
  3 90  1  0  0  0
  4  5  1  0  0  0
  4 91  1  0  0  0
  4 92  1  0  0  0
  5  6  1  0  0  0
  5 26  1  0  0  0
  5 93  1  0  0  0
  6 25  1  0  0  0
  6 94  1  0  0  0
  6 95  1  0  0  0
  7  8  2  0  0  0
  7 26  1  0  0  0
  7 29  1  0  0  0
  8  9  1  0  0  0
  8 22  1  0  0  0
  9 10  1  0  0  0
  9 27  2  0  0  0
 10 11  2  0  0  0
 10 15  1  0  0  0
 11 12  1  0  0  0
 11 96  1  0  0  0
 12 13  2  0  0  0
 12 97  1  0  0  0
 13 14  1  0  0  0
 13 31  1  0  0  0
 14 15  2  0  0  0
 14 98  1  0  0  0
 15 99  1  0  0  0
 16 17  2  0  0  0
 16 21  1  0  0  0
 16 31  1  0  0  0
 17 18  1  0  0  0
 17100  1  0  0  0
 18 19  2  0  0  0
 18101  1  0  0  0
 19 20  1  0  0  0
 19 24  1  0  0  0
 20 21  2  0  0  0
 20102  1  0  0  0
 21 23  1  0  0  0
 22 28  1  0  0  0
 22 32  2  0  0  0
 26 27  1  0  0  0
 28103  1  0  0  0
 28104  1  0  0  0
 29105  1  0  0  0
 29106  1  0  0  0
 33 34  1  0  0  0
 33 66  1  0  0  0
 33 70  2  0  0  0
 34 36  1  0  0  0
 34 59  1  0  0  0
 34107  1  0  0  0
 35 44  2  0  0  0
 35 45  1  0  0  0
 35 68  1  0  0  0
 36 56  1  0  0  0
 36108  1  0  0  0
 37 39  1  0  0  0
 37 47  1  0  0  0
 37 66  1  0  0  0
 37109  1  0  0  0
 38 43  2  0  0  0
 38 46  1  0  0  0
 38 47  1  0  0  0
 39 64  1  0  0  0
 39 67  2  0  0  0
 40 52  1  0  0  0
 40 53  2  0  0  0
 40 58  1  0  0  0
 41110  1  0  0  0
 41111  1  0  0  0
 41112  1  0  0  0
 41 48  1  0  0  0
 42 43  1  0  0  0
 42 66  1  0  0  0
 42113  1  0  0  0
 42114  1  0  0  0
 43 44  1  0  0  0
 44115  1  0  0  0
 45 46  2  0  0  0
 45116  1  0  0  0
 46117  1  0  0  0
 47118  1  0  0  0
 47119  1  0  0  0
 48 56  1  0  0  0
 48 65  1  0  0  0
 48120  1  0  0  0
 49 50  1  0  0  0
 49 53  1  0  0  0
 49 64  1  0  0  0
 49121  1  0  0  0
 50 51  1  0  0  0
 50122  1  0  0  0
 50123  1  0  0  0
 51 52  1  0  0  0
 51124  1  0  0  0
 51125  1  0  0  0
 52126  1  0  0  0
 52127  1  0  0  0
 53 54  1  0  0  0
 54 55  2  0  0  0
 54128  1  0  0  0
 55 57  1  0  0  0
 55129  1  0  0  0
 56 69  2  0  0  0
 57 58  2  0  0  0
 57130  1  0  0  0
 58131  1  0  0  0
 59 60  1  0  0  0
 59 61  1  0  0  0
 59 62  1  0  0  0
 60132  1  0  0  0
 60133  1  0  0  0
 60134  1  0  0  0
 61135  1  0  0  0
 61136  1  0  0  0
 61137  1  0  0  0
 62138  1  0  0  0
 62139  1  0  0  0
 62140  1  0  0  0
 63 65  1  0  0  0
 63141  1  0  0  0
 63142  1  0  0  0
 63143  1  0  0  0
 64144  1  0  0  0
 65145  1  0  0  0
 68 81  1  0  0  0
 71 72  2  0  0  0
 71 76  1  0  0  0
 71146  1  0  0  0
 72 77  1  0  0  0
 72147  1  0  0  0
 73 75  2  0  0  0
 73 82  1  0  0  0
 73148  1  0  0  0
 74 80  2  0  0  0
 74 82  1  0  0  0
 74149  1  0  0  0
 75 80  1  0  0  0
 75 81  1  0  0  0
 76 78  2  0  0  0
 76 82  1  0  0  0
 77 79  2  0  0  0
 77 85  1  0  0  0
 78 79  1  0  0  0
 78 83  1  0  0  0
 79 84  1  0  0  0
 80 86  1  0  0  0
 81150  1  0  0  0
 81151  1  0  0  0
 83152  1  0  0  0
 83153  1  0  0  0
 84154  1  0  0  0
 84155  1  0  0  0
 85156  1  0  0  0
 86157  1  0  0  0
M  ISO  4   1 100  68 101  81 101  85 100
M  END
> <chiral flag>
0

> <version>
0

> <s_m_source_file>
/data/baiqing/PycharmProjects/Reinvent-master-3.2/result/LINK_invent/BTK/process_docking_weight1_custom_product_contain_oxygen_bond_distance_aromatic_linkinvent_7_9_3/rearranged_h_0092.sdf

> <i_m_source_file_index>
84

> <r_mmod_Potential_Energy-OPLS-2005>
-73.6720962524414

> <r_mmod_Stretch_Energy-OPLS-2005>
82.9700775146484

> <r_mmod_Bend_Energy-OPLS-2005>
152.571807861328

> <r_mmod_Torsional_Energy-OPLS-2005>
245.807312011719

> <r_mmod_Improper_Torsional_Energy-OPLS-2005>
16.492166519165

> <r_mmod_Van_der_Waal_Energy-OPLS-2005>
157.950714111328

> <r_mmod_Electrostatic_Energy-OPLS-2005>
-539.390991210938

> <r_mmod_Solvation_Energy-OPLS-2005>
-246.719161987305

> <b_mmod_Minimization_Converged-OPLS-2005>
0

> <r_mmod_RMS_Derivative-OPLS-2005>
0.780469477176666

$$$$
84
                    3D
 Structure written by MMmdl.
153161  0  0  1  0            999 V2000
  -30.6119  -14.7923   20.4652 C   0  0  0  0  0  0
  -30.4381  -12.4854   19.4879 C   0  0  0  0  0  0
  -29.5168  -12.5239   18.2461 C   0  0  0  0  0  0
  -28.0410  -12.3346   18.6498 C   0  0  0  0  0  0
  -27.6435  -13.2225   19.8578 C   0  0  2  0  0  0
  -28.6907  -13.1273   20.9916 C   0  0  0  0  0  0
  -25.2517  -13.8171   20.5681 C   0  0  0  0  0  0
  -24.1792  -13.0428   20.9163 C   0  0  0  0  0  0
  -24.6377  -11.6904   20.8727 C   0  0  0  0  0  0
  -23.9055  -10.4289   21.0401 C   0  0  0  0  0  0
  -24.3608   -9.4209   21.9181 C   0  0  0  0  0  0
  -23.6289   -8.2244   22.0753 C   0  0  0  0  0  0
  -22.4271   -8.0278   21.3545 C   0  0  0  0  0  0
  -21.9904   -9.0253   20.4650 C   0  0  0  0  0  0
  -22.7229  -10.2133   20.3058 C   0  0  0  0  0  0
  -21.6856   -6.0735   22.5280 C   0  0  0  0  0  0
  -21.4015   -6.5637   23.8213 C   0  0  0  0  0  0
  -21.3654   -5.6786   24.9172 C   0  0  0  0  0  0
  -21.6045   -4.3051   24.7222 C   0  0  0  0  0  0
  -21.8817   -3.8146   23.4340 C   0  0  0  0  0  0
  -21.9191   -4.6964   22.3400 C   0  0  0  0  0  0
  -22.7818  -13.5221   21.1839 C   0  0  0  0  0  0
  -22.1663   -4.2148   21.0979 F   0  0  0  0  0  0
  -21.5626   -3.4536   25.7736 F   0  0  0  0  0  0
  -29.9842  -13.5487   20.4276 N   0  0  0  0  0  0
  -26.2940  -12.9357   20.3311 N   0  0  0  0  0  0
  -25.9310  -11.6508   20.5757 N   0  0  0  0  0  0
  -22.0469  -12.8226   22.0413 N   0  0  0  0  0  0
  -25.4240  -15.1897   20.4171 N   0  0  0  0  0  0
  -31.7816  -14.8355   20.0752 O   0  0  0  0  0  0
  -21.6639   -6.8876   21.4241 O   0  0  0  0  0  0
  -22.3500  -14.5529   20.6687 O   0  0  0  0  0  0
  -24.6334  -31.8529   23.1982 C   0  0  0  0  0  0
  -25.9144  -32.4745   23.8340 C   0  0  1  0  0  0
  -27.2239  -27.2510   20.1264 C   0  0  0  0  0  0
  -25.5929  -33.8548   24.2255 N   0  0  0  0  0  0
  -23.4340  -30.4750   21.5409 C   0  0  2  0  0  0
  -24.8878  -28.9287   20.1023 C   0  0  0  0  0  0
  -22.7527  -29.4579   22.4892 C   0  0  0  0  0  0
  -18.0297  -28.1395   22.8481 C   0  0  0  0  0  0
  -24.1489  -36.7283   23.2643 C   0  0  0  0  0  0
  -25.9830  -30.7604   21.3855 C   0  0  0  0  0  0
  -26.0594  -29.3842   20.7232 C   0  0  0  0  0  0
  -27.2329  -28.5555   20.7319 C   0  0  0  0  0  0
  -26.0392  -26.8833   19.4511 C   0  0  0  0  0  0
  -24.8837  -27.6865   19.4522 C   0  0  0  0  0  0
  -23.6551  -29.8121   20.1559 C   0  0  0  0  0  0
  -25.4115  -36.3063   24.0328 C   0  0  1  0  0  0
  -20.5905  -28.3706   23.1265 C   0  0  2  0  0  0
  -20.6780  -26.9418   22.5413 C   0  0  0  0  0  0
  -19.5754  -26.6385   21.5219 C   0  0  0  0  0  0
  -18.1935  -26.7935   22.1628 C   0  0  0  0  0  0
  -19.1552  -28.8867   23.2866 C   0  0  0  0  0  0
  -18.9471  -30.1470   23.8883 C   0  0  0  0  0  0
  -17.6468  -30.6591   24.0568 C   0  0  0  0  0  0
  -25.9055  -34.9432   23.5095 C   0  0  0  0  0  0
  -16.5359  -29.9088   23.6337 C   0  0  0  0  0  0
  -16.7284  -28.6508   23.0354 C   0  0  0  0  0  0
  -26.4504  -31.6582   25.0740 C   0  0  0  0  0  0
  -25.3719  -31.3744   26.1459 C   0  0  0  0  0  0
  -27.0359  -30.2990   24.6256 C   0  0  0  0  0  0
  -27.6054  -32.4332   25.7504 C   0  0  0  0  0  0
  -27.5581  -37.1798   24.8462 C   0  0  0  0  0  0
  -21.4228  -29.3046   22.3645 N   0  0  0  0  0  0
  -26.4291  -37.3764   23.9407 N   0  0  0  0  0  0
  -24.7022  -31.0477   22.0971 N   0  0  0  0  0  0
  -23.4210  -28.8112   23.2998 O   0  0  0  0  0  0
  -28.2277  -26.2490   20.2302 O   0  0  0  0  0  0
  -26.5634  -34.8909   22.4669 O   0  0  0  0  0  0
  -23.5472  -32.1363   23.7252 O   0  0  0  0  0  0
  -31.3111  -20.4372   20.5376 C   0  0  0  0  0  0
  -32.1957  -19.3543   20.6819 C   0  0  0  0  0  0
  -29.4940  -18.8371   20.5827 C   0  0  0  0  0  0
  -30.3746  -17.6619   20.6928 C   0  0  0  0  0  0
  -29.9200  -20.2351   20.5200 C   0  0  0  0  0  0
  -31.7604  -18.0140   20.7974 C   0  0  0  0  0  0
  -27.7627  -25.0260   20.8103 C   0  0  0  0  0  0
  -29.7929  -16.1789   20.8062 C   0  0  0  0  0  0
  -28.0714  -23.6572   20.8655 C   0  0  0  0  0  0
  -29.1822  -22.7932   20.3152 C   0  0  0  0  0  0
  -28.5737  -16.1156   21.1508 N   0  0  0  0  0  0
  -32.7800  -17.1066   21.0781 N   0  0  0  0  0  0
  -29.0139  -21.4216   20.5513 N   0  0  0  0  0  0
  -30.1509  -23.2354   19.6947 O   0  0  0  0  0  0
  -27.1791  -22.9512   21.5865 O   0  0  0  0  0  0
  -31.4774  -12.6068   19.1798 H   0  0  0  0  0  0
  -30.3971  -11.5050   19.9651 H   0  0  0  0  0  0
  -29.8127  -11.7553   17.5311 H   0  0  0  0  0  0
  -29.6351  -13.4797   17.7334 H   0  0  0  0  0  0
  -27.8996  -11.2828   18.9024 H   0  0  0  0  0  0
  -27.3863  -12.5353   17.8010 H   0  0  0  0  0  0
  -27.6394  -14.2441   19.4788 H   0  0  0  0  0  0
  -28.7512  -12.1010   21.3577 H   0  0  0  0  0  0
  -28.4105  -13.7096   21.8680 H   0  0  0  0  0  0
  -25.2758   -9.5688   22.4744 H   0  0  0  0  0  0
  -24.0003   -7.4638   22.7471 H   0  0  0  0  0  0
  -21.0836   -8.8769   19.8961 H   0  0  0  0  0  0
  -22.3687  -10.9664   19.6165 H   0  0  0  0  0  0
  -21.2014   -7.6146   23.9715 H   0  0  0  0  0  0
  -21.1477   -6.0519   25.9072 H   0  0  0  0  0  0
  -22.0604   -2.7611   23.2840 H   0  0  0  0  0  0
  -22.4095  -11.9893   22.4798 H   0  0  0  0  0  0
  -21.1095  -13.1258   22.2636 H   0  0  0  0  0  0
  -24.6659  -15.8477   20.5596 H   0  0  0  0  0  0
  -26.3100  -15.6458   20.2270 H   0  0  0  0  0  0
  -26.7212  -32.5391   23.1083 H   0  0  0  0  0  0
  -25.0053  -33.9683   25.0384 H   0  0  0  0  0  0
  -22.7318  -31.2985   21.3949 H   0  0  0  0  0  0
  -23.3748  -35.9619   23.3299 H   0  0  0  0  0  0
  -24.3580  -36.8910   22.2058 H   0  0  0  0  0  0
  -23.7248  -37.6484   23.6673 H   0  0  0  0  0  0
  -26.1289  -31.5223   20.6183 H   0  0  0  0  0  0
  -26.8567  -30.8062   22.0236 H   0  0  0  0  0  0
  -28.1187  -28.8855   21.2559 H   0  0  0  0  0  0
  -25.9876  -25.9217   18.9599 H   0  0  0  0  0  0
  -23.9917  -27.3342   18.9529 H   0  0  0  0  0  0
  -23.7754  -30.5903   19.4015 H   0  0  0  0  0  0
  -22.7750  -29.2428   19.8502 H   0  0  0  0  0  0
  -25.1299  -36.1910   25.0823 H   0  0  0  0  0  0
  -21.0006  -28.3289   24.1383 H   0  0  0  0  0  0
  -20.5681  -26.2315   23.3619 H   0  0  0  0  0  0
  -21.6647  -26.7432   22.1212 H   0  0  0  0  0  0
  -19.6911  -25.6292   21.1257 H   0  0  0  0  0  0
  -19.6696  -27.3186   20.6742 H   0  0  0  0  0  0
  -17.4208  -26.6687   21.4028 H   0  0  0  0  0  0
  -18.0331  -26.0085   22.9028 H   0  0  0  0  0  0
  -19.7944  -30.7297   24.2242 H   0  0  0  0  0  0
  -17.5018  -31.6268   24.5172 H   0  0  0  0  0  0
  -15.5356  -30.2983   23.7672 H   0  0  0  0  0  0
  -15.8684  -28.0826   22.7070 H   0  0  0  0  0  0
  -24.5874  -30.7117   25.7785 H   0  0  0  0  0  0
  -24.8935  -32.2918   26.4896 H   0  0  0  0  0  0
  -25.8027  -30.8903   27.0231 H   0  0  0  0  0  0
  -26.2956  -29.6725   24.1260 H   0  0  0  0  0  0
  -27.3999  -29.7268   25.4801 H   0  0  0  0  0  0
  -27.8854  -30.4250   23.9540 H   0  0  0  0  0  0
  -27.2656  -33.3627   26.2085 H   0  0  0  0  0  0
  -28.3856  -32.6903   25.0328 H   0  0  0  0  0  0
  -28.0736  -31.8461   26.5415 H   0  0  0  0  0  0
  -28.2601  -38.0095   24.7507 H   0  0  0  0  0  0
  -28.1079  -36.2625   24.6287 H   0  0  0  0  0  0
  -27.2303  -37.1447   25.8868 H   0  0  0  0  0  0
  -20.9418  -29.8772   21.6849 H   0  0  0  0  0  0
  -26.0165  -38.2836   24.1409 H   0  0  0  0  0  0
  -31.7287  -21.4326   20.5063 H   0  0  0  0  0  0
  -33.2503  -19.5836   20.7468 H   0  0  0  0  0  0
  -28.4296  -18.6516   20.5721 H   0  0  0  0  0  0
  -26.8801  -25.2828   21.3827 H   0  0  0  0  0  0
  -28.2709  -15.1514   21.2004 H   0  0  0  0  0  0
  -32.6245  -16.1485   20.7484 H   0  0  0  0  0  0
  -33.7325  -17.4066   20.8981 H   0  0  0  0  0  0
  -28.0949  -21.2467   20.9390 H   0  0  0  0  0  0
  -26.5205  -23.5540   21.9044 H   0  0  0  0  0  0
  1 25  1  0  0  0
  1 30  2  0  0  0
  1 78  1  0  0  0
  2  3  1  0  0  0
  2 25  1  0  0  0
  2 86  1  0  0  0
  2 87  1  0  0  0
  3  4  1  0  0  0
  3 88  1  0  0  0
  3 89  1  0  0  0
  4  5  1  0  0  0
  4 90  1  0  0  0
  4 91  1  0  0  0
  5  6  1  0  0  0
  5 26  1  0  0  0
  5 92  1  0  0  0
  6 25  1  0  0  0
  6 93  1  0  0  0
  6 94  1  0  0  0
  7  8  2  0  0  0
  7 26  1  0  0  0
  7 29  1  0  0  0
  8  9  1  0  0  0
  8 22  1  0  0  0
  9 10  1  0  0  0
  9 27  2  0  0  0
 10 11  2  0  0  0
 10 15  1  0  0  0
 11 12  1  0  0  0
 11 95  1  0  0  0
 12 13  2  0  0  0
 12 96  1  0  0  0
 13 14  1  0  0  0
 13 31  1  0  0  0
 14 15  2  0  0  0
 14 97  1  0  0  0
 15 98  1  0  0  0
 16 17  2  0  0  0
 16 21  1  0  0  0
 16 31  1  0  0  0
 17 18  1  0  0  0
 17 99  1  0  0  0
 18 19  2  0  0  0
 18100  1  0  0  0
 19 20  1  0  0  0
 19 24  1  0  0  0
 20 21  2  0  0  0
 20101  1  0  0  0
 21 23  1  0  0  0
 22 28  1  0  0  0
 22 32  2  0  0  0
 26 27  1  0  0  0
 28102  1  0  0  0
 28103  1  0  0  0
 29104  1  0  0  0
 29105  1  0  0  0
 33 34  1  0  0  0
 33 66  1  0  0  0
 33 70  2  0  0  0
 34 36  1  0  0  0
 34 59  1  0  0  0
 34106  1  0  0  0
 35 44  2  0  0  0
 35 45  1  0  0  0
 35 68  1  0  0  0
 36 56  1  0  0  0
 36107  1  0  0  0
 37 39  1  0  0  0
 37 47  1  0  0  0
 37 66  1  0  0  0
 37108  1  0  0  0
 38 43  2  0  0  0
 38 46  1  0  0  0
 38 47  1  0  0  0
 39 64  1  0  0  0
 39 67  2  0  0  0
 40 52  1  0  0  0
 40 53  2  0  0  0
 40 58  1  0  0  0
 41109  1  0  0  0
 41110  1  0  0  0
 41111  1  0  0  0
 41 48  1  0  0  0
 42 43  1  0  0  0
 42 66  1  0  0  0
 42112  1  0  0  0
 42113  1  0  0  0
 43 44  1  0  0  0
 44114  1  0  0  0
 45 46  2  0  0  0
 45115  1  0  0  0
 46116  1  0  0  0
 47117  1  0  0  0
 47118  1  0  0  0
 48 56  1  0  0  0
 48 65  1  0  0  0
 48119  1  0  0  0
 49 50  1  0  0  0
 49 53  1  0  0  0
 49 64  1  0  0  0
 49120  1  0  0  0
 50 51  1  0  0  0
 50121  1  0  0  0
 50122  1  0  0  0
 51 52  1  0  0  0
 51123  1  0  0  0
 51124  1  0  0  0
 52125  1  0  0  0
 52126  1  0  0  0
 53 54  1  0  0  0
 54 55  2  0  0  0
 54127  1  0  0  0
 55 57  1  0  0  0
 55128  1  0  0  0
 56 69  2  0  0  0
 57 58  2  0  0  0
 57129  1  0  0  0
 58130  1  0  0  0
 59 60  1  0  0  0
 59 61  1  0  0  0
 59 62  1  0  0  0
 60131  1  0  0  0
 60132  1  0  0  0
 60133  1  0  0  0
 61134  1  0  0  0
 61135  1  0  0  0
 61136  1  0  0  0
 62137  1  0  0  0
 62138  1  0  0  0
 62139  1  0  0  0
 63 65  1  0  0  0
 63140  1  0  0  0
 63141  1  0  0  0
 63142  1  0  0  0
 64143  1  0  0  0
 65144  1  0  0  0
 68 77  1  0  0  0
 71 72  2  0  0  0
 71 75  1  0  0  0
 71145  1  0  0  0
 72 76  1  0  0  0
 72146  1  0  0  0
 73 74  1  0  0  0
 73 75  2  0  0  0
 73147  1  0  0  0
 74 76  2  0  0  0
 74 78  1  0  0  0
 75 83  1  0  0  0
 76 82  1  0  0  0
 77 79  2  0  0  0
 77148  1  0  0  0
 78 81  2  0  0  0
 79 80  1  0  0  0
 79 85  1  0  0  0
 80 83  1  0  0  0
 80 84  2  0  0  0
 81149  1  0  0  0
 82150  1  0  0  0
 82151  1  0  0  0
 83152  1  0  0  0
 85153  1  0  0  0
M  ISO  4   1 100  68 101  77 101  78 100
M  END
> <chiral flag>
0

> <version>
0

> <s_m_source_file>
/data/baiqing/PycharmProjects/Reinvent-master-3.2/result/LINK_invent/BTK/process_docking_weight1_custom_product_contain_oxygen_bond_distance_aromatic_linkinvent_7_9_3/rearranged_h_0092.sdf

> <i_m_source_file_index>
85

> <r_mmod_Potential_Energy-OPLS-2005>
407.479858398438

> <r_mmod_Stretch_Energy-OPLS-2005>
169.925994873047

> <r_mmod_Bend_Energy-OPLS-2005>
257.181396484375

> <r_mmod_Torsional_Energy-OPLS-2005>
200.063659667969

> <r_mmod_Improper_Torsional_Energy-OPLS-2005>
9.51416683197021

> <r_mmod_Van_der_Waal_Energy-OPLS-2005>
178.300140380859

> <r_mmod_Electrostatic_Energy-OPLS-2005>
-291.74609375

> <r_mmod_Solvation_Energy-OPLS-2005>
-222.349227905273

> <b_mmod_Minimization_Converged-OPLS-2005>
0

> <r_mmod_RMS_Derivative-OPLS-2005>
1.05559408664703

$$$$
85
                    3D
 Structure written by MMmdl.
156165  0  0  1  0            999 V2000
  -30.6183  -14.8825   20.4210 C   0  0  0  0  0  0
  -30.4349  -12.5507   19.4653 C   0  0  0  0  0  0
  -29.5018  -12.4900   18.2367 C   0  0  0  0  0  0
  -28.0436  -12.2517   18.6726 C   0  0  0  0  0  0
  -27.6232  -13.1863   19.8310 C   0  0  2  0  0  0
  -28.6857  -13.2234   20.9591 C   0  0  0  0  0  0
  -25.2473  -13.7993   20.5767 C   0  0  0  0  0  0
  -24.1742  -13.0308   20.9256 C   0  0  0  0  0  0
  -24.6313  -11.6788   20.8797 C   0  0  0  0  0  0
  -23.8999  -10.4210   21.0443 C   0  0  0  0  0  0
  -24.3575   -9.4138   21.9210 C   0  0  0  0  0  0
  -23.6258   -8.2178   22.0760 C   0  0  0  0  0  0
  -22.4241   -8.0235   21.3544 C   0  0  0  0  0  0
  -21.9870   -9.0205   20.4645 C   0  0  0  0  0  0
  -22.7189  -10.2083   20.3068 C   0  0  0  0  0  0
  -21.6820   -6.0718   22.5286 C   0  0  0  0  0  0
  -21.3995   -6.5628   23.8222 C   0  0  0  0  0  0
  -21.3652   -5.6785   24.9186 C   0  0  0  0  0  0
  -21.6041   -4.3048   24.7232 C   0  0  0  0  0  0
  -21.8818   -3.8138   23.4353 C   0  0  0  0  0  0
  -21.9183   -4.6953   22.3411 C   0  0  0  0  0  0
  -22.7784  -13.5165   21.1877 C   0  0  0  0  0  0
  -22.1653   -4.2148   21.0987 F   0  0  0  0  0  0
  -21.5631   -3.4530   25.7744 F   0  0  0  0  0  0
  -29.9535  -13.6542   20.3441 N   0  0  0  0  0  0
  -26.2845  -12.9125   20.3281 N   0  0  0  0  0  0
  -25.9224  -11.6327   20.5798 N   0  0  0  0  0  0
  -22.0400  -12.8201   22.0440 N   0  0  0  0  0  0
  -25.4110  -15.1700   20.4250 N   0  0  0  0  0  0
  -31.8342  -14.8298   20.2245 O   0  0  0  0  0  0
  -21.6595   -6.8849   21.4244 O   0  0  0  0  0  0
  -22.3513  -14.5481   20.6702 O   0  0  0  0  0  0
  -24.6345  -31.8520   23.1965 C   0  0  0  0  0  0
  -25.9157  -32.4737   23.8322 C   0  0  1  0  0  0
  -27.2291  -27.2357   20.1318 C   0  0  0  0  0  0
  -25.5940  -33.8541   24.2235 N   0  0  0  0  0  0
  -23.4335  -30.4740   21.5382 C   0  0  2  0  0  0
  -24.8847  -28.9185   20.1073 C   0  0  0  0  0  0
  -22.7521  -29.4582   22.4878 C   0  0  0  0  0  0
  -18.0297  -28.1392   22.8474 C   0  0  0  0  0  0
  -24.1492  -36.7275   23.2639 C   0  0  0  0  0  0
  -25.9821  -30.7559   21.3829 C   0  0  0  0  0  0
  -26.0559  -29.3767   20.7238 C   0  0  0  0  0  0
  -27.2281  -28.5480   20.7255 C   0  0  0  0  0  0
  -26.0367  -26.8625   19.4684 C   0  0  0  0  0  0
  -24.8825  -27.6706   19.4673 C   0  0  0  0  0  0
  -23.6557  -29.8074   20.1547 C   0  0  0  0  0  0
  -25.4120  -36.3053   24.0319 C   0  0  1  0  0  0
  -20.5901  -28.3705   23.1250 C   0  0  2  0  0  0
  -20.6781  -26.9417   22.5398 C   0  0  0  0  0  0
  -19.5755  -26.6382   21.5202 C   0  0  0  0  0  0
  -18.1939  -26.7932   22.1618 C   0  0  0  0  0  0
  -19.1551  -28.8864   23.2859 C   0  0  0  0  0  0
  -18.9472  -30.1463   23.8883 C   0  0  0  0  0  0
  -17.6471  -30.6589   24.0559 C   0  0  0  0  0  0
  -25.9060  -34.9425   23.5080 C   0  0  0  0  0  0
  -16.5361  -29.9084   23.6333 C   0  0  0  0  0  0
  -16.7283  -28.6503   23.0350 C   0  0  0  0  0  0
  -26.4516  -31.6575   25.0727 C   0  0  0  0  0  0
  -25.3736  -31.3735   26.1445 C   0  0  0  0  0  0
  -27.0369  -30.2984   24.6247 C   0  0  0  0  0  0
  -27.6054  -32.4330   25.7507 C   0  0  0  0  0  0
  -27.5575  -37.1796   24.8464 C   0  0  0  0  0  0
  -21.4219  -29.3050   22.3632 N   0  0  0  0  0  0
  -26.4287  -37.3757   23.9408 N   0  0  0  0  0  0
  -24.7021  -31.0463   22.0952 N   0  0  0  0  0  0
  -23.4205  -28.8125   23.2995 O   0  0  0  0  0  0
  -28.3150  -26.3167   20.2170 O   0  0  0  0  0  0
  -26.5630  -34.8906   22.4649 O   0  0  0  0  0  0
  -23.5483  -32.1349   23.7241 O   0  0  0  0  0  0
  -32.4587  -19.0744   20.2700 C   0  0  0  0  0  0
  -31.6537  -20.2270   20.2879 C   0  0  0  0  0  0
  -31.9143  -17.7830   20.3587 C   0  0  0  0  0  0
  -29.7362  -18.8294   20.5265 C   0  0  0  0  0  0
  -30.2453  -20.2046   20.4277 C   0  0  0  0  0  0
  -30.5198  -17.5710   20.4605 C   0  0  0  0  0  0
  -28.3153  -22.1611   20.7038 C   0  0  0  0  0  0
  -28.0299  -16.6806   19.1067 C   0  0  0  0  0  0
  -28.5724  -16.2034   20.2456 C   0  0  0  0  0  0
  -30.0995  -22.7859   19.8744 C   0  0  0  0  0  0
  -28.9816  -23.6209   20.6081 C   0  0  1  0  0  0
  -28.0913  -24.8319   19.9726 C   0  0  0  0  0  0
  -29.5667  -21.5483   20.4945 N   0  0  0  0  0  0
  -29.9483  -16.1544   20.4679 N   0  0  0  0  0  0
  -27.2076  -21.6882   20.8584 O   0  0  0  0  0  0
  -31.4614  -12.7013   19.1275 H   0  0  0  0  0  0
  -30.4399  -11.6001   20.0015 H   0  0  0  0  0  0
  -29.8225  -11.6985   17.5579 H   0  0  0  0  0  0
  -29.5708  -13.4229   17.6746 H   0  0  0  0  0  0
  -27.9571  -11.2121   18.9911 H   0  0  0  0  0  0
  -27.3713  -12.3666   17.8217 H   0  0  0  0  0  0
  -27.5557  -14.1467   19.3422 H   0  0  0  0  0  0
  -28.7901  -12.2374   21.4147 H   0  0  0  0  0  0
  -28.3963  -13.8863   21.7734 H   0  0  0  0  0  0
  -25.2720   -9.5618   22.4788 H   0  0  0  0  0  0
  -23.9961   -7.4557   22.7467 H   0  0  0  0  0  0
  -21.0802   -8.8719   19.8944 H   0  0  0  0  0  0
  -22.3654  -10.9631   19.6181 H   0  0  0  0  0  0
  -21.1983   -7.6138   23.9730 H   0  0  0  0  0  0
  -21.1475   -6.0513   25.9094 H   0  0  0  0  0  0
  -22.0610   -2.7600   23.2851 H   0  0  0  0  0  0
  -22.3988  -11.9865   22.4858 H   0  0  0  0  0  0
  -21.1023  -13.1258   22.2618 H   0  0  0  0  0  0
  -24.6447  -15.8221   20.5501 H   0  0  0  0  0  0
  -26.2594  -15.6055   20.0908 H   0  0  0  0  0  0
  -26.7221  -32.5377   23.1057 H   0  0  0  0  0  0
  -25.0091  -33.9671   25.0383 H   0  0  0  0  0  0
  -22.7317  -31.2974   21.3894 H   0  0  0  0  0  0
  -23.3747  -35.9613   23.3295 H   0  0  0  0  0  0
  -24.3578  -36.8910   22.2054 H   0  0  0  0  0  0
  -23.7257  -37.6478   23.6673 H   0  0  0  0  0  0
  -26.1283  -31.5163   20.6145 H   0  0  0  0  0  0
  -26.8563  -30.8030   22.0207 H   0  0  0  0  0  0
  -28.1210  -28.8917   21.2291 H   0  0  0  0  0  0
  -25.9633  -25.9174   18.9519 H   0  0  0  0  0  0
  -23.9905  -27.3179   18.9684 H   0  0  0  0  0  0
  -23.7835  -30.5837   19.3995 H   0  0  0  0  0  0
  -22.7739  -29.2426   19.8470 H   0  0  0  0  0  0
  -25.1304  -36.1886   25.0810 H   0  0  0  0  0  0
  -20.9997  -28.3293   24.1368 H   0  0  0  0  0  0
  -20.5668  -26.2322   23.3611 H   0  0  0  0  0  0
  -21.6654  -26.7430   22.1204 H   0  0  0  0  0  0
  -19.6920  -25.6289   21.1244 H   0  0  0  0  0  0
  -19.6695  -27.3180   20.6721 H   0  0  0  0  0  0
  -17.4206  -26.6663   21.4027 H   0  0  0  0  0  0
  -18.0351  -26.0080   22.9023 H   0  0  0  0  0  0
  -19.7949  -30.7277   24.2252 H   0  0  0  0  0  0
  -17.5027  -31.6268   24.5162 H   0  0  0  0  0  0
  -15.5362  -30.2982   23.7667 H   0  0  0  0  0  0
  -15.8682  -28.0819   22.7072 H   0  0  0  0  0  0
  -24.5914  -30.7077   25.7782 H   0  0  0  0  0  0
  -24.8929  -32.2908   26.4856 H   0  0  0  0  0  0
  -25.8060  -30.8929   27.0231 H   0  0  0  0  0  0
  -26.2964  -29.6721   24.1259 H   0  0  0  0  0  0
  -27.4014  -29.7263   25.4791 H   0  0  0  0  0  0
  -27.8860  -30.4237   23.9524 H   0  0  0  0  0  0
  -27.2645  -33.3633   26.2062 H   0  0  0  0  0  0
  -28.3883  -32.6889   25.0354 H   0  0  0  0  0  0
  -28.0703  -31.8476   26.5450 H   0  0  0  0  0  0
  -28.2587  -38.0094   24.7501 H   0  0  0  0  0  0
  -28.1072  -36.2625   24.6298 H   0  0  0  0  0  0
  -27.2291  -37.1455   25.8865 H   0  0  0  0  0  0
  -20.9407  -29.8781   21.6838 H   0  0  0  0  0  0
  -26.0154  -38.2825   24.1410 H   0  0  0  0  0  0
  -33.5305  -19.1867   20.1817 H   0  0  0  0  0  0
  -32.1768  -21.1686   20.2185 H   0  0  0  0  0  0
  -32.6245  -16.9753   20.3270 H   0  0  0  0  0  0
  -28.6663  -18.7561   20.6497 H   0  0  0  0  0  0
  -26.9621  -16.7471   18.9594 H   0  0  0  0  0  0
  -28.6538  -17.0214   18.2929 H   0  0  0  0  0  0
  -27.9816  -15.8716   21.0866 H   0  0  0  0  0  0
  -31.1059  -23.0715   20.1824 H   0  0  0  0  0  0
  -30.0050  -22.7856   18.7853 H   0  0  0  0  0  0
  -29.3477  -23.9216   21.5902 H   0  0  0  0  0  0
  -27.0732  -24.6217   20.3003 H   0  0  0  0  0  0
  -28.0677  -24.7038   18.8899 H   0  0  0  0  0  0
  1 25  1  0  0  0
  1 30  2  0  0  0
  1 84  1  0  0  0
  2  3  1  0  0  0
  2 25  1  0  0  0
  2 86  1  0  0  0
  2 87  1  0  0  0
  3  4  1  0  0  0
  3 88  1  0  0  0
  3 89  1  0  0  0
  4  5  1  0  0  0
  4 90  1  0  0  0
  4 91  1  0  0  0
  5  6  1  0  0  0
  5 26  1  0  0  0
  5 92  1  0  0  0
  6 25  1  0  0  0
  6 93  1  0  0  0
  6 94  1  0  0  0
  7  8  2  0  0  0
  7 26  1  0  0  0
  7 29  1  0  0  0
  8  9  1  0  0  0
  8 22  1  0  0  0
  9 10  1  0  0  0
  9 27  2  0  0  0
 10 11  2  0  0  0
 10 15  1  0  0  0
 11 12  1  0  0  0
 11 95  1  0  0  0
 12 13  2  0  0  0
 12 96  1  0  0  0
 13 14  1  0  0  0
 13 31  1  0  0  0
 14 15  2  0  0  0
 14 97  1  0  0  0
 15 98  1  0  0  0
 16 17  2  0  0  0
 16 21  1  0  0  0
 16 31  1  0  0  0
 17 18  1  0  0  0
 17 99  1  0  0  0
 18 19  2  0  0  0
 18100  1  0  0  0
 19 20  1  0  0  0
 19 24  1  0  0  0
 20 21  2  0  0  0
 20101  1  0  0  0
 21 23  1  0  0  0
 22 28  1  0  0  0
 22 32  2  0  0  0
 26 27  1  0  0  0
 28102  1  0  0  0
 28103  1  0  0  0
 29104  1  0  0  0
 29105  1  0  0  0
 33 34  1  0  0  0
 33 66  1  0  0  0
 33 70  2  0  0  0
 34 36  1  0  0  0
 34 59  1  0  0  0
 34106  1  0  0  0
 35 44  2  0  0  0
 35 45  1  0  0  0
 35 68  1  0  0  0
 36 56  1  0  0  0
 36107  1  0  0  0
 37 39  1  0  0  0
 37 47  1  0  0  0
 37 66  1  0  0  0
 37108  1  0  0  0
 38 43  2  0  0  0
 38 46  1  0  0  0
 38 47  1  0  0  0
 39 64  1  0  0  0
 39 67  2  0  0  0
 40 52  1  0  0  0
 40 53  2  0  0  0
 40 58  1  0  0  0
 41109  1  0  0  0
 41110  1  0  0  0
 41111  1  0  0  0
 41 48  1  0  0  0
 42 43  1  0  0  0
 42 66  1  0  0  0
 42112  1  0  0  0
 42113  1  0  0  0
 43 44  1  0  0  0
 44114  1  0  0  0
 45 46  2  0  0  0
 45115  1  0  0  0
 46116  1  0  0  0
 47117  1  0  0  0
 47118  1  0  0  0
 48 56  1  0  0  0
 48 65  1  0  0  0
 48119  1  0  0  0
 49 50  1  0  0  0
 49 53  1  0  0  0
 49 64  1  0  0  0
 49120  1  0  0  0
 50 51  1  0  0  0
 50121  1  0  0  0
 50122  1  0  0  0
 51 52  1  0  0  0
 51123  1  0  0  0
 51124  1  0  0  0
 52125  1  0  0  0
 52126  1  0  0  0
 53 54  1  0  0  0
 54 55  2  0  0  0
 54127  1  0  0  0
 55 57  1  0  0  0
 55128  1  0  0  0
 56 69  2  0  0  0
 57 58  2  0  0  0
 57129  1  0  0  0
 58130  1  0  0  0
 59 60  1  0  0  0
 59 61  1  0  0  0
 59 62  1  0  0  0
 60131  1  0  0  0
 60132  1  0  0  0
 60133  1  0  0  0
 61134  1  0  0  0
 61135  1  0  0  0
 61136  1  0  0  0
 62137  1  0  0  0
 62138  1  0  0  0
 62139  1  0  0  0
 63 65  1  0  0  0
 63140  1  0  0  0
 63141  1  0  0  0
 63142  1  0  0  0
 64143  1  0  0  0
 65144  1  0  0  0
 68 82  1  0  0  0
 71 72  2  0  0  0
 71 73  1  0  0  0
 71145  1  0  0  0
 72 75  1  0  0  0
 72146  1  0  0  0
 73 76  2  0  0  0
 73147  1  0  0  0
 74 75  2  0  0  0
 74 76  1  0  0  0
 74148  1  0  0  0
 75 83  1  0  0  0
 76 84  1  0  0  0
 77 81  1  0  0  0
 77 83  1  0  0  0
 77 85  2  0  0  0
 78 79  2  0  0  0
 78149  1  0  0  0
 78150  1  0  0  0
 79 84  1  0  0  0
 79151  1  0  0  0
 80 81  1  0  0  0
 80 83  1  0  0  0
 80152  1  0  0  0
 80153  1  0  0  0
 81 82  1  0  0  0
 81154  1  0  0  0
 82155  1  0  0  0
 82156  1  0  0  0
M  ISO  4   1 100  68 101  82 101  84 100
M  END
> <chiral flag>
0

> <version>
0

> <s_m_source_file>
/data/baiqing/PycharmProjects/Reinvent-master-3.2/result/LINK_invent/BTK/process_docking_weight1_custom_product_contain_oxygen_bond_distance_aromatic_linkinvent_7_9_3/rearranged_h_0092.sdf

> <i_m_source_file_index>
86

> <r_mmod_Potential_Energy-OPLS-2005>
551.99365234375

> <r_mmod_Stretch_Energy-OPLS-2005>
177.559066772461

> <r_mmod_Bend_Energy-OPLS-2005>
251.369079589844

> <r_mmod_Torsional_Energy-OPLS-2005>
313.252593994141

> <r_mmod_Improper_Torsional_Energy-OPLS-2005>
6.89750337600708

> <r_mmod_Van_der_Waal_Energy-OPLS-2005>
173.033538818359

> <r_mmod_Electrostatic_Energy-OPLS-2005>
-295.507781982422

> <r_mmod_Solvation_Energy-OPLS-2005>
-207.456146240234

> <b_mmod_Minimization_Converged-OPLS-2005>
0

> <r_mmod_RMS_Derivative-OPLS-2005>
1.15059232711792

$$$$
86
                    3D
 Structure written by MMmdl.
161170  0  0  1  0            999 V2000
  -30.7261  -14.4623   20.6281 C   0  0  0  0  0  0
  -30.4198  -12.3285   19.4114 C   0  0  0  0  0  0
  -29.4877  -12.5193   18.1991 C   0  0  0  0  0  0
  -28.0113  -12.3728   18.6154 C   0  0  0  0  0  0
  -27.6584  -13.2105   19.8732 C   0  0  2  0  0  0
  -28.7000  -12.9938   20.9916 C   0  0  0  0  0  0
  -25.2574  -13.8171   20.5687 C   0  0  0  0  0  0
  -24.1829  -13.0443   20.9177 C   0  0  0  0  0  0
  -24.6389  -11.6910   20.8732 C   0  0  0  0  0  0
  -23.9060  -10.4293   21.0403 C   0  0  0  0  0  0
  -24.3613   -9.4210   21.9180 C   0  0  0  0  0  0
  -23.6289   -8.2244   22.0754 C   0  0  0  0  0  0
  -22.4272   -8.0282   21.3545 C   0  0  0  0  0  0
  -21.9906   -9.0254   20.4648 C   0  0  0  0  0  0
  -22.7233  -10.2135   20.3054 C   0  0  0  0  0  0
  -21.6853   -6.0734   22.5280 C   0  0  0  0  0  0
  -21.4013   -6.5637   23.8214 C   0  0  0  0  0  0
  -21.3660   -5.6792   24.9176 C   0  0  0  0  0  0
  -21.6045   -4.3053   24.7228 C   0  0  0  0  0  0
  -21.8818   -3.8146   23.4346 C   0  0  0  0  0  0
  -21.9194   -4.6962   22.3405 C   0  0  0  0  0  0
  -22.7853  -13.5237   21.1845 C   0  0  0  0  0  0
  -22.1662   -4.2147   21.0982 F   0  0  0  0  0  0
  -21.5629   -3.4539   25.7740 F   0  0  0  0  0  0
  -30.0280  -13.3084   20.4380 N   0  0  0  0  0  0
  -26.3007  -12.9345   20.3362 N   0  0  0  0  0  0
  -25.9314  -11.6499   20.5760 N   0  0  0  0  0  0
  -22.0496  -12.8231   22.0403 N   0  0  0  0  0  0
  -25.4302  -15.1889   20.4098 N   0  0  0  0  0  0
  -31.8266  -14.6652   20.1068 O   0  0  0  0  0  0
  -21.6639   -6.8875   21.4241 O   0  0  0  0  0  0
  -22.3537  -14.5545   20.6699 O   0  0  0  0  0  0
  -24.6165  -31.8676   23.2116 C   0  0  0  0  0  0
  -25.9055  -32.4823   23.8407 C   0  0  1  0  0  0
  -27.2168  -27.4027   20.0954 C   0  0  0  0  0  0
  -25.5912  -33.8622   24.2337 N   0  0  0  0  0  0
  -23.4051  -30.4947   21.5526 C   0  0  2  0  0  0
  -24.8476  -28.9665   20.1096 C   0  0  0  0  0  0
  -22.7422  -29.4654   22.4973 C   0  0  0  0  0  0
  -18.0274  -28.1383   22.8497 C   0  0  0  0  0  0
  -24.1485  -36.7308   23.2639 C   0  0  0  0  0  0
  -25.9395  -30.8213   21.3732 C   0  0  0  0  0  0
  -26.0120  -29.4568   20.7145 C   0  0  0  0  0  0
  -27.1991  -28.6820   20.7078 C   0  0  0  0  0  0
  -26.0380  -26.9573   19.4504 C   0  0  0  0  0  0
  -24.8571  -27.7171   19.4732 C   0  0  0  0  0  0
  -23.6135  -29.8375   20.1634 C   0  0  0  0  0  0
  -25.4109  -36.3110   24.0340 C   0  0  1  0  0  0
  -20.5869  -28.3668   23.1315 C   0  0  2  0  0  0
  -20.6770  -26.9405   22.5415 C   0  0  0  0  0  0
  -19.5746  -26.6391   21.5217 C   0  0  0  0  0  0
  -18.1924  -26.7932   22.1627 C   0  0  0  0  0  0
  -19.1526  -28.8843   23.2906 C   0  0  0  0  0  0
  -18.9455  -30.1451   23.8912 C   0  0  0  0  0  0
  -17.6459  -30.6591   24.0570 C   0  0  0  0  0  0
  -25.9042  -34.9473   23.5137 C   0  0  0  0  0  0
  -16.5348  -29.9092   23.6335 C   0  0  0  0  0  0
  -16.7267  -28.6510   23.0357 C   0  0  0  0  0  0
  -26.4471  -31.6604   25.0737 C   0  0  0  0  0  0
  -25.3739  -31.3716   26.1487 C   0  0  0  0  0  0
  -27.0304  -30.3043   24.6130 C   0  0  0  0  0  0
  -27.6049  -32.4313   25.7497 C   0  0  0  0  0  0
  -27.5580  -37.1816   24.8470 C   0  0  0  0  0  0
  -21.4148  -29.3039   22.3724 N   0  0  0  0  0  0
  -26.4293  -37.3797   23.9414 N   0  0  0  0  0  0
  -24.6721  -31.0757   22.1030 N   0  0  0  0  0  0
  -23.4191  -28.8186   23.3010 O   0  0  0  0  0  0
  -28.3555  -26.6108   20.1459 O   0  0  0  0  0  0
  -26.5593  -34.8918   22.4690 O   0  0  0  0  0  0
  -23.5355  -32.1441   23.7497 O   0  0  0  0  0  0
  -29.3171  -18.4639   21.5303 C   0  0  0  0  0  0
  -29.1272  -19.8669   21.4098 C   0  0  0  0  0  0
  -31.7082  -18.8161   21.7409 C   0  0  0  0  0  0
  -30.6105  -17.9284   21.7385 C   0  0  0  0  0  0
  -30.2215  -20.7622   21.4993 C   0  0  0  0  0  0
  -31.5233  -20.2090   21.6194 C   0  0  0  0  0  0
  -29.3357  -23.0125   20.7634 C   0  0  0  0  0  0
  -28.9949  -24.3052   21.0284 C   0  0  0  0  0  0
  -29.3710  -24.8737   22.3475 C   0  0  0  0  0  0
  -30.3914  -24.0906   23.1722 C   0  0  0  0  0  0
  -30.1749  -22.5742   23.0353 C   0  0  0  0  0  0
  -30.8682  -16.4591   22.1175 C   0  0  0  0  0  0
  -28.1522  -25.1708   20.0786 C   0  0  0  0  0  0
  -30.0376  -22.1644   21.6331 N   0  0  0  0  0  0
  -32.6389  -21.0469   21.6558 N   0  0  0  0  0  0
  -30.1448  -15.3894   21.4141 N   0  0  0  0  0  0
  -28.9087  -25.9168   22.8189 O   0  0  0  0  0  0
  -31.4619  -12.4366   19.1049 H   0  0  0  0  0  0
  -30.3327  -11.3160   19.8085 H   0  0  0  0  0  0
  -29.7295  -11.7969   17.4184 H   0  0  0  0  0  0
  -29.6498  -13.5067   17.7632 H   0  0  0  0  0  0
  -27.8240  -11.3161   18.8098 H   0  0  0  0  0  0
  -27.3583  -12.6494   17.7867 H   0  0  0  0  0  0
  -27.7026  -14.2595   19.5793 H   0  0  0  0  0  0
  -28.6830  -11.9565   21.3293 H   0  0  0  0  0  0
  -28.4501  -13.5871   21.8716 H   0  0  0  0  0  0
  -25.2760   -9.5688   22.4752 H   0  0  0  0  0  0
  -24.0004   -7.4635   22.7470 H   0  0  0  0  0  0
  -21.0835   -8.8768   19.8954 H   0  0  0  0  0  0
  -22.3686  -10.9670   19.6159 H   0  0  0  0  0  0
  -21.2005   -7.6146   23.9714 H   0  0  0  0  0  0
  -21.1482   -6.0523   25.9079 H   0  0  0  0  0  0
  -22.0598   -2.7608   23.2850 H   0  0  0  0  0  0
  -22.4111  -11.9889   22.4785 H   0  0  0  0  0  0
  -21.1119  -13.1260   22.2616 H   0  0  0  0  0  0
  -24.6659  -15.8472   20.5176 H   0  0  0  0  0  0
  -26.2862  -15.6257   20.0912 H   0  0  0  0  0  0
  -26.7123  -32.5517   23.1167 H   0  0  0  0  0  0
  -25.0087  -33.9798   25.0498 H   0  0  0  0  0  0
  -22.6945  -31.3130   21.4187 H   0  0  0  0  0  0
  -23.3748  -35.9640   23.3310 H   0  0  0  0  0  0
  -24.3585  -36.8909   22.2052 H   0  0  0  0  0  0
  -23.7222  -37.6513   23.6641 H   0  0  0  0  0  0
  -26.0638  -31.5881   20.6072 H   0  0  0  0  0  0
  -26.8239  -30.8673   21.9968 H   0  0  0  0  0  0
  -28.0914  -29.0475   21.1974 H   0  0  0  0  0  0
  -26.0049  -26.0171   18.9197 H   0  0  0  0  0  0
  -23.9674  -27.3424   18.9851 H   0  0  0  0  0  0
  -23.7271  -30.6177   19.4097 H   0  0  0  0  0  0
  -22.7354  -29.2638   19.8619 H   0  0  0  0  0  0
  -25.1284  -36.1986   25.0833 H   0  0  0  0  0  0
  -20.9971  -28.3229   24.1433 H   0  0  0  0  0  0
  -20.5683  -26.2272   23.3598 H   0  0  0  0  0  0
  -21.6638  -26.7456   22.1201 H   0  0  0  0  0  0
  -19.6899  -25.6304   21.1235 H   0  0  0  0  0  0
  -19.6682  -27.3211   20.6754 H   0  0  0  0  0  0
  -17.4196  -26.6691   21.4025 H   0  0  0  0  0  0
  -18.0320  -26.0070   22.9020 H   0  0  0  0  0  0
  -19.7931  -30.7271   24.2280 H   0  0  0  0  0  0
  -17.5014  -31.6274   24.5169 H   0  0  0  0  0  0
  -15.5350  -30.3006   23.7648 H   0  0  0  0  0  0
  -15.8666  -28.0838   22.7062 H   0  0  0  0  0  0
  -24.5909  -30.7062   25.7834 H   0  0  0  0  0  0
  -24.8932  -32.2874   26.4936 H   0  0  0  0  0  0
  -25.8095  -30.8889   27.0246 H   0  0  0  0  0  0
  -26.2861  -29.6809   24.1157 H   0  0  0  0  0  0
  -27.4045  -29.7266   25.4594 H   0  0  0  0  0  0
  -27.8711  -30.4360   23.9314 H   0  0  0  0  0  0
  -27.2676  -33.3600   26.2109 H   0  0  0  0  0  0
  -28.3841  -32.6889   25.0312 H   0  0  0  0  0  0
  -28.0735  -31.8411   26.5383 H   0  0  0  0  0  0
  -28.2614  -38.0100   24.7515 H   0  0  0  0  0  0
  -28.1059  -36.2632   24.6299 H   0  0  0  0  0  0
  -27.2304  -37.1479   25.8875 H   0  0  0  0  0  0
  -20.9299  -29.8778   21.6969 H   0  0  0  0  0  0
  -26.0182  -38.2877   24.1409 H   0  0  0  0  0  0
  -28.4552  -17.8110   21.5316 H   0  0  0  0  0  0
  -28.1239  -20.2584   21.3227 H   0  0  0  0  0  0
  -32.7046  -18.4255   21.8939 H   0  0  0  0  0  0
  -29.0531  -22.5416   19.8312 H   0  0  0  0  0  0
  -30.3297  -24.3886   24.2187 H   0  0  0  0  0  0
  -31.3860  -24.3607   22.8190 H   0  0  0  0  0  0
  -29.2671  -22.2896   23.5708 H   0  0  0  0  0  0
  -30.9919  -22.0507   23.5329 H   0  0  0  0  0  0
  -30.6074  -16.3617   23.1720 H   0  0  0  0  0  0
  -31.9421  -16.2650   22.0846 H   0  0  0  0  0  0
  -27.1363  -24.8906   20.3568 H   0  0  0  0  0  0
  -28.3027  -24.8390   19.0507 H   0  0  0  0  0  0
  -33.4421  -20.7468   22.1971 H   0  0  0  0  0  0
  -32.4198  -22.0310   21.7746 H   0  0  0  0  0  0
  -29.2181  -15.1736   21.7486 H   0  0  0  0  0  0
  1 25  1  0  0  0
  1 30  2  0  0  0
  1 86  1  0  0  0
  2  3  1  0  0  0
  2 25  1  0  0  0
  2 88  1  0  0  0
  2 89  1  0  0  0
  3  4  1  0  0  0
  3 90  1  0  0  0
  3 91  1  0  0  0
  4  5  1  0  0  0
  4 92  1  0  0  0
  4 93  1  0  0  0
  5  6  1  0  0  0
  5 26  1  0  0  0
  5 94  1  0  0  0
  6 25  1  0  0  0
  6 95  1  0  0  0
  6 96  1  0  0  0
  7  8  2  0  0  0
  7 26  1  0  0  0
  7 29  1  0  0  0
  8  9  1  0  0  0
  8 22  1  0  0  0
  9 10  1  0  0  0
  9 27  2  0  0  0
 10 11  2  0  0  0
 10 15  1  0  0  0
 11 12  1  0  0  0
 11 97  1  0  0  0
 12 13  2  0  0  0
 12 98  1  0  0  0
 13 14  1  0  0  0
 13 31  1  0  0  0
 14 15  2  0  0  0
 14 99  1  0  0  0
 15100  1  0  0  0
 16 17  2  0  0  0
 16 21  1  0  0  0
 16 31  1  0  0  0
 17 18  1  0  0  0
 17101  1  0  0  0
 18 19  2  0  0  0
 18102  1  0  0  0
 19 20  1  0  0  0
 19 24  1  0  0  0
 20 21  2  0  0  0
 20103  1  0  0  0
 21 23  1  0  0  0
 22 28  1  0  0  0
 22 32  2  0  0  0
 26 27  1  0  0  0
 28104  1  0  0  0
 28105  1  0  0  0
 29106  1  0  0  0
 29107  1  0  0  0
 33 34  1  0  0  0
 33 66  1  0  0  0
 33 70  2  0  0  0
 34 36  1  0  0  0
 34 59  1  0  0  0
 34108  1  0  0  0
 35 44  2  0  0  0
 35 45  1  0  0  0
 35 68  1  0  0  0
 36 56  1  0  0  0
 36109  1  0  0  0
 37 39  1  0  0  0
 37 47  1  0  0  0
 37 66  1  0  0  0
 37110  1  0  0  0
 38 43  2  0  0  0
 38 46  1  0  0  0
 38 47  1  0  0  0
 39 64  1  0  0  0
 39 67  2  0  0  0
 40 52  1  0  0  0
 40 53  2  0  0  0
 40 58  1  0  0  0
 41111  1  0  0  0
 41112  1  0  0  0
 41113  1  0  0  0
 41 48  1  0  0  0
 42 43  1  0  0  0
 42 66  1  0  0  0
 42114  1  0  0  0
 42115  1  0  0  0
 43 44  1  0  0  0
 44116  1  0  0  0
 45 46  2  0  0  0
 45117  1  0  0  0
 46118  1  0  0  0
 47119  1  0  0  0
 47120  1  0  0  0
 48 56  1  0  0  0
 48 65  1  0  0  0
 48121  1  0  0  0
 49 50  1  0  0  0
 49 53  1  0  0  0
 49 64  1  0  0  0
 49122  1  0  0  0
 50 51  1  0  0  0
 50123  1  0  0  0
 50124  1  0  0  0
 51 52  1  0  0  0
 51125  1  0  0  0
 51126  1  0  0  0
 52127  1  0  0  0
 52128  1  0  0  0
 53 54  1  0  0  0
 54 55  2  0  0  0
 54129  1  0  0  0
 55 57  1  0  0  0
 55130  1  0  0  0
 56 69  2  0  0  0
 57 58  2  0  0  0
 57131  1  0  0  0
 58132  1  0  0  0
 59 60  1  0  0  0
 59 61  1  0  0  0
 59 62  1  0  0  0
 60133  1  0  0  0
 60134  1  0  0  0
 60135  1  0  0  0
 61136  1  0  0  0
 61137  1  0  0  0
 61138  1  0  0  0
 62139  1  0  0  0
 62140  1  0  0  0
 62141  1  0  0  0
 63 65  1  0  0  0
 63142  1  0  0  0
 63143  1  0  0  0
 63144  1  0  0  0
 64145  1  0  0  0
 65146  1  0  0  0
 68 83  1  0  0  0
 71 72  2  0  0  0
 71 74  1  0  0  0
 71147  1  0  0  0
 72 75  1  0  0  0
 72148  1  0  0  0
 73 74  2  0  0  0
 73 76  1  0  0  0
 73149  1  0  0  0
 74 82  1  0  0  0
 75 76  2  0  0  0
 75 84  1  0  0  0
 76 85  1  0  0  0
 77 78  2  0  0  0
 77 84  1  0  0  0
 77150  1  0  0  0
 78 79  1  0  0  0
 78 83  1  0  0  0
 79 80  1  0  0  0
 79 87  2  0  0  0
 80 81  1  0  0  0
 80151  1  0  0  0
 80152  1  0  0  0
 81 84  1  0  0  0
 81153  1  0  0  0
 81154  1  0  0  0
 82 86  1  0  0  0
 82155  1  0  0  0
 82156  1  0  0  0
 83157  1  0  0  0
 83158  1  0  0  0
 85159  1  0  0  0
 85160  1  0  0  0
 86161  1  0  0  0
M  ISO  4   1 100  68 101  83 101  86 100
M  END
> <chiral flag>
0

> <version>
0

> <s_m_source_file>
/data/baiqing/PycharmProjects/Reinvent-master-3.2/result/LINK_invent/BTK/process_docking_weight1_custom_product_contain_oxygen_bond_distance_aromatic_linkinvent_7_9_3/rearranged_h_0092.sdf

> <i_m_source_file_index>
87

> <r_mmod_Potential_Energy-OPLS-2005>
-96.9054794311523

> <r_mmod_Stretch_Energy-OPLS-2005>
45.232551574707

> <r_mmod_Bend_Energy-OPLS-2005>
105.560333251953

> <r_mmod_Torsional_Energy-OPLS-2005>
220.034454345703

> <r_mmod_Improper_Torsional_Energy-OPLS-2005>
9.20166206359863

> <r_mmod_Van_der_Waal_Energy-OPLS-2005>
174.469818115234

> <r_mmod_Electrostatic_Energy-OPLS-2005>
-425.348388671875

> <r_mmod_Solvation_Energy-OPLS-2005>
-242.736236572266

> <b_mmod_Minimization_Converged-OPLS-2005>
0

> <r_mmod_RMS_Derivative-OPLS-2005>
1.00909006595612

$$$$
87
                    3D
 Structure written by MMmdl.
158167  0  0  1  0            999 V2000
  -30.5845  -14.7842   20.4501 C   0  0  0  0  0  0
  -30.4220  -12.4764   19.4693 C   0  0  0  0  0  0
  -29.5007  -12.5175   18.2294 C   0  0  0  0  0  0
  -28.0253  -12.3407   18.6403 C   0  0  0  0  0  0
  -27.6320  -13.2363   19.8467 C   0  0  2  0  0  0
  -28.6796  -13.1718   20.9779 C   0  0  0  0  0  0
  -25.2440  -13.8206   20.5690 C   0  0  0  0  0  0
  -24.1740  -13.0430   20.9229 C   0  0  0  0  0  0
  -24.6351  -11.6927   20.8744 C   0  0  0  0  0  0
  -23.9034  -10.4281   21.0392 C   0  0  0  0  0  0
  -24.3602   -9.4208   21.9173 C   0  0  0  0  0  0
  -23.6287   -8.2232   22.0733 C   0  0  0  0  0  0
  -22.4266   -8.0256   21.3521 C   0  0  0  0  0  0
  -21.9900   -9.0223   20.4625 C   0  0  0  0  0  0
  -22.7210  -10.2115   20.3038 C   0  0  0  0  0  0
  -21.6858   -6.0725   22.5273 C   0  0  0  0  0  0
  -21.4015   -6.5628   23.8204 C   0  0  0  0  0  0
  -21.3664   -5.6784   24.9171 C   0  0  0  0  0  0
  -21.6049   -4.3044   24.7226 C   0  0  0  0  0  0
  -21.8815   -3.8131   23.4344 C   0  0  0  0  0  0
  -21.9192   -4.6950   22.3401 C   0  0  0  0  0  0
  -22.7771  -13.5205   21.1904 C   0  0  0  0  0  0
  -22.1655   -4.2140   21.0980 F   0  0  0  0  0  0
  -21.5639   -3.4530   25.7736 F   0  0  0  0  0  0
  -29.9676  -13.5496   20.3864 N   0  0  0  0  0  0
  -26.2876  -12.9425   20.3276 N   0  0  0  0  0  0
  -25.9282  -11.6566   20.5757 N   0  0  0  0  0  0
  -22.0434  -12.8150   22.0462 N   0  0  0  0  0  0
  -25.4107  -15.1921   20.4036 N   0  0  0  0  0  0
  -31.7861  -14.8538   20.1785 O   0  0  0  0  0  0
  -21.6628   -6.8856   21.4223 O   0  0  0  0  0  0
  -22.3450  -14.5515   20.6790 O   0  0  0  0  0  0
  -24.6364  -31.8491   23.1933 C   0  0  0  0  0  0
  -25.9168  -32.4716   23.8302 C   0  0  1  0  0  0
  -27.2323  -27.2212   20.1611 C   0  0  0  0  0  0
  -25.5949  -33.8527   24.2241 N   0  0  0  0  0  0
  -23.4360  -30.4702   21.5350 C   0  0  2  0  0  0
  -24.8906  -28.8997   20.1200 C   0  0  0  0  0  0
  -22.7517  -29.4588   22.4850 C   0  0  0  0  0  0
  -18.0297  -28.1417   22.8450 C   0  0  0  0  0  0
  -24.1489  -36.7259   23.2642 C   0  0  0  0  0  0
  -25.9865  -30.7525   21.3762 C   0  0  0  0  0  0
  -26.0618  -29.3673   20.7322 C   0  0  0  0  0  0
  -27.2369  -28.5411   20.7394 C   0  0  0  0  0  0
  -26.0414  -26.8291   19.5207 C   0  0  0  0  0  0
  -24.8853  -27.6380   19.5059 C   0  0  0  0  0  0
  -23.6641  -29.7943   20.1548 C   0  0  0  0  0  0
  -25.4109  -36.3048   24.0334 C   0  0  1  0  0  0
  -20.5914  -28.3727   23.1249 C   0  0  2  0  0  0
  -20.6780  -26.9420   22.5422 C   0  0  0  0  0  0
  -19.5755  -26.6392   21.5225 C   0  0  0  0  0  0
  -18.1933  -26.7956   22.1605 C   0  0  0  0  0  0
  -19.1558  -28.8876   23.2855 C   0  0  0  0  0  0
  -18.9469  -30.1465   23.8900 C   0  0  0  0  0  0
  -17.6475  -30.6603   24.0571 C   0  0  0  0  0  0
  -25.9049  -34.9418   23.5082 C   0  0  0  0  0  0
  -16.5363  -29.9120   23.6322 C   0  0  0  0  0  0
  -16.7285  -28.6542   23.0330 C   0  0  0  0  0  0
  -26.4522  -31.6550   25.0680 C   0  0  0  0  0  0
  -25.3740  -31.3730   26.1407 C   0  0  0  0  0  0
  -27.0342  -30.2957   24.6159 C   0  0  0  0  0  0
  -27.6083  -32.4264   25.7472 C   0  0  0  0  0  0
  -27.5570  -37.1769   24.8454 C   0  0  0  0  0  0
  -21.4212  -29.3086   22.3623 N   0  0  0  0  0  0
  -26.4270  -37.3742   23.9414 N   0  0  0  0  0  0
  -24.7056  -31.0432   22.0922 N   0  0  0  0  0  0
  -23.4199  -28.8087   23.2928 O   0  0  0  0  0  0
  -28.3109  -26.2929   20.1525 O   0  0  0  0  0  0
  -26.5610  -34.8910   22.4652 O   0  0  0  0  0  0
  -23.5509  -32.1309   23.7208 O   0  0  0  0  0  0
  -30.9275  -20.1745   21.0706 C   0  0  0  0  0  0
  -29.2663  -18.5501   20.3627 C   0  0  0  0  0  0
  -31.4090  -17.7556   21.1878 C   0  0  0  0  0  0
  -29.6317  -19.9671   20.5479 C   0  0  0  0  0  0
  -31.7968  -19.1020   21.3798 C   0  0  0  0  0  0
  -30.1380  -17.4048   20.6773 C   0  0  0  0  0  0
  -28.5611  -23.7311   20.3645 C   0  0  0  0  0  0
  -28.9652  -23.3298   19.0152 C   0  0  0  0  0  0
  -28.2436  -25.0201   20.8323 C   0  0  0  0  0  0
  -28.5753  -22.3395   21.1183 C   0  0  0  0  0  0
  -29.0987  -21.7849   18.9018 C   0  0  0  0  0  0
  -27.9180  -25.2076   22.3081 C   0  0  0  0  0  0
  -28.8307  -21.1517   20.2086 N   0  0  0  0  0  0
  -33.0663  -19.3741   21.8895 N   0  0  0  0  0  0
  -29.7937  -15.9397   20.5616 N   0  0  0  0  0  0
  -29.2086  -24.0840   18.0685 O   0  0  0  0  0  0
  -31.4651  -12.5976   19.1698 H   0  0  0  0  0  0
  -30.3643  -11.5018   19.9578 H   0  0  0  0  0  0
  -29.7861  -11.7447   17.5142 H   0  0  0  0  0  0
  -29.6241  -13.4718   17.7158 H   0  0  0  0  0  0
  -27.8724  -11.2902   18.8894 H   0  0  0  0  0  0
  -27.3707  -12.5472   17.7919 H   0  0  0  0  0  0
  -27.6203  -14.2581   19.4703 H   0  0  0  0  0  0
  -28.7286  -12.1658   21.3980 H   0  0  0  0  0  0
  -28.4172  -13.8373   21.8021 H   0  0  0  0  0  0
  -25.2752   -9.5696   22.4747 H   0  0  0  0  0  0
  -24.0007   -7.4618   22.7436 H   0  0  0  0  0  0
  -21.0851   -8.8715   19.8920 H   0  0  0  0  0  0
  -22.3653  -10.9643   19.6137 H   0  0  0  0  0  0
  -21.1991   -7.6135   23.9711 H   0  0  0  0  0  0
  -21.1506   -6.0514   25.9080 H   0  0  0  0  0  0
  -22.0595   -2.7596   23.2846 H   0  0  0  0  0  0
  -22.4068  -11.9804   22.4832 H   0  0  0  0  0  0
  -21.1038  -13.1118   22.2660 H   0  0  0  0  0  0
  -24.6388  -15.8442   20.4940 H   0  0  0  0  0  0
  -26.2453  -15.6252   20.0292 H   0  0  0  0  0  0
  -26.7236  -32.5368   23.1029 H   0  0  0  0  0  0
  -25.0117  -33.9666   25.0402 H   0  0  0  0  0  0
  -22.7384  -31.2972   21.3772 H   0  0  0  0  0  0
  -23.3776  -35.9568   23.3260 H   0  0  0  0  0  0
  -24.3594  -36.8927   22.2065 H   0  0  0  0  0  0
  -23.7231  -37.6445   23.6686 H   0  0  0  0  0  0
  -26.1237  -31.4957   20.5911 H   0  0  0  0  0  0
  -26.8700  -30.8183   21.9983 H   0  0  0  0  0  0
  -28.1352  -28.8932   21.2276 H   0  0  0  0  0  0
  -26.0037  -25.8594   19.0456 H   0  0  0  0  0  0
  -23.9901  -27.2752   19.0231 H   0  0  0  0  0  0
  -23.7998  -30.5686   19.3997 H   0  0  0  0  0  0
  -22.7800  -29.2356   19.8396 H   0  0  0  0  0  0
  -25.1302  -36.1858   25.0827 H   0  0  0  0  0  0
  -21.0021  -28.3312   24.1358 H   0  0  0  0  0  0
  -20.5699  -26.2304   23.3624 H   0  0  0  0  0  0
  -21.6625  -26.7425   22.1182 H   0  0  0  0  0  0
  -19.6921  -25.6316   21.1228 H   0  0  0  0  0  0
  -19.6739  -27.3201   20.6773 H   0  0  0  0  0  0
  -17.4203  -26.6707   21.4020 H   0  0  0  0  0  0
  -18.0318  -26.0158   22.9040 H   0  0  0  0  0  0
  -19.7949  -30.7284   24.2270 H   0  0  0  0  0  0
  -17.5029  -31.6283   24.5169 H   0  0  0  0  0  0
  -15.5362  -30.3032   23.7671 H   0  0  0  0  0  0
  -15.8660  -28.0891   22.7027 H   0  0  0  0  0  0
  -24.5974  -30.6987   25.7763 H   0  0  0  0  0  0
  -24.8855  -32.2911   26.4685 H   0  0  0  0  0  0
  -25.8070  -30.9039   27.0248 H   0  0  0  0  0  0
  -26.2897  -29.6715   24.1192 H   0  0  0  0  0  0
  -27.4064  -29.7192   25.4637 H   0  0  0  0  0  0
  -27.8769  -30.4244   23.9360 H   0  0  0  0  0  0
  -27.2743  -33.3650   26.1902 H   0  0  0  0  0  0
  -28.3991  -32.6661   25.0342 H   0  0  0  0  0  0
  -28.0621  -31.8443   26.5493 H   0  0  0  0  0  0
  -28.2538  -38.0104   24.7513 H   0  0  0  0  0  0
  -28.1119  -36.2628   24.6259 H   0  0  0  0  0  0
  -27.2286  -37.1380   25.8857 H   0  0  0  0  0  0
  -20.9356  -29.8885   21.6911 H   0  0  0  0  0  0
  -26.0145  -38.2805   24.1472 H   0  0  0  0  0  0
  -31.2758  -21.1863   21.2274 H   0  0  0  0  0  0
  -28.2851  -18.3359   19.9653 H   0  0  0  0  0  0
  -32.0993  -16.9714   21.4637 H   0  0  0  0  0  0
  -27.6018  -22.2008   21.5966 H   0  0  0  0  0  0
  -29.3167  -22.3812   21.9136 H   0  0  0  0  0  0
  -30.0912  -21.5320   18.5230 H   0  0  0  0  0  0
  -28.3640  -21.4305   18.1784 H   0  0  0  0  0  0
  -27.0702  -24.5913   22.6033 H   0  0  0  0  0  0
  -27.6758  -26.2405   22.5500 H   0  0  0  0  0  0
  -28.7716  -24.9231   22.9276 H   0  0  0  0  0  0
  -33.3581  -20.3140   22.1427 H   0  0  0  0  0  0
  -33.7066  -18.6377   22.1722 H   0  0  0  0  0  0
  -28.8066  -15.7348   20.5726 H   0  0  0  0  0  0
  1 25  1  0  0  0
  1 30  2  0  0  0
  1 85  1  0  0  0
  2  3  1  0  0  0
  2 25  1  0  0  0
  2 87  1  0  0  0
  2 88  1  0  0  0
  3  4  1  0  0  0
  3 89  1  0  0  0
  3 90  1  0  0  0
  4  5  1  0  0  0
  4 91  1  0  0  0
  4 92  1  0  0  0
  5  6  1  0  0  0
  5 26  1  0  0  0
  5 93  1  0  0  0
  6 25  1  0  0  0
  6 94  1  0  0  0
  6 95  1  0  0  0
  7  8  2  0  0  0
  7 26  1  0  0  0
  7 29  1  0  0  0
  8  9  1  0  0  0
  8 22  1  0  0  0
  9 10  1  0  0  0
  9 27  2  0  0  0
 10 11  2  0  0  0
 10 15  1  0  0  0
 11 12  1  0  0  0
 11 96  1  0  0  0
 12 13  2  0  0  0
 12 97  1  0  0  0
 13 14  1  0  0  0
 13 31  1  0  0  0
 14 15  2  0  0  0
 14 98  1  0  0  0
 15 99  1  0  0  0
 16 17  2  0  0  0
 16 21  1  0  0  0
 16 31  1  0  0  0
 17 18  1  0  0  0
 17100  1  0  0  0
 18 19  2  0  0  0
 18101  1  0  0  0
 19 20  1  0  0  0
 19 24  1  0  0  0
 20 21  2  0  0  0
 20102  1  0  0  0
 21 23  1  0  0  0
 22 28  1  0  0  0
 22 32  2  0  0  0
 26 27  1  0  0  0
 28103  1  0  0  0
 28104  1  0  0  0
 29105  1  0  0  0
 29106  1  0  0  0
 33 34  1  0  0  0
 33 66  1  0  0  0
 33 70  2  0  0  0
 34 36  1  0  0  0
 34 59  1  0  0  0
 34107  1  0  0  0
 35 44  2  0  0  0
 35 45  1  0  0  0
 35 68  1  0  0  0
 36 56  1  0  0  0
 36108  1  0  0  0
 37 39  1  0  0  0
 37 47  1  0  0  0
 37 66  1  0  0  0
 37109  1  0  0  0
 38 43  2  0  0  0
 38 46  1  0  0  0
 38 47  1  0  0  0
 39 64  1  0  0  0
 39 67  2  0  0  0
 40 52  1  0  0  0
 40 53  2  0  0  0
 40 58  1  0  0  0
 41110  1  0  0  0
 41111  1  0  0  0
 41112  1  0  0  0
 41 48  1  0  0  0
 42 43  1  0  0  0
 42 66  1  0  0  0
 42113  1  0  0  0
 42114  1  0  0  0
 43 44  1  0  0  0
 44115  1  0  0  0
 45 46  2  0  0  0
 45116  1  0  0  0
 46117  1  0  0  0
 47118  1  0  0  0
 47119  1  0  0  0
 48 56  1  0  0  0
 48 65  1  0  0  0
 48120  1  0  0  0
 49 50  1  0  0  0
 49 53  1  0  0  0
 49 64  1  0  0  0
 49121  1  0  0  0
 50 51  1  0  0  0
 50122  1  0  0  0
 50123  1  0  0  0
 51 52  1  0  0  0
 51124  1  0  0  0
 51125  1  0  0  0
 52126  1  0  0  0
 52127  1  0  0  0
 53 54  1  0  0  0
 54 55  2  0  0  0
 54128  1  0  0  0
 55 57  1  0  0  0
 55129  1  0  0  0
 56 69  2  0  0  0
 57 58  2  0  0  0
 57130  1  0  0  0
 58131  1  0  0  0
 59 60  1  0  0  0
 59 61  1  0  0  0
 59 62  1  0  0  0
 60132  1  0  0  0
 60133  1  0  0  0
 60134  1  0  0  0
 61135  1  0  0  0
 61136  1  0  0  0
 61137  1  0  0  0
 62138  1  0  0  0
 62139  1  0  0  0
 62140  1  0  0  0
 63 65  1  0  0  0
 63141  1  0  0  0
 63142  1  0  0  0
 63143  1  0  0  0
 64144  1  0  0  0
 65145  1  0  0  0
 68 79  1  0  0  0
 71 74  2  0  0  0
 71 75  1  0  0  0
 71146  1  0  0  0
 72 74  1  0  0  0
 72 76  2  0  0  0
 72147  1  0  0  0
 73 75  2  0  0  0
 73 76  1  0  0  0
 73148  1  0  0  0
 74 83  1  0  0  0
 75 84  1  0  0  0
 76 85  1  0  0  0
 77 78  1  0  0  0
 77 79  2  0  0  0
 77 80  1  0  0  0
 78 81  1  0  0  0
 78 86  2  0  0  0
 79 82  1  0  0  0
 80 83  1  0  0  0
 80149  1  0  0  0
 80150  1  0  0  0
 81 83  1  0  0  0
 81151  1  0  0  0
 81152  1  0  0  0
 82153  1  0  0  0
 82154  1  0  0  0
 82155  1  0  0  0
 84156  1  0  0  0
 84157  1  0  0  0
 85158  1  0  0  0
M  ISO  4   1 100  68 101  79 101  85 100
M  END
> <chiral flag>
0

> <version>
0

> <s_m_source_file>
/data/baiqing/PycharmProjects/Reinvent-master-3.2/result/LINK_invent/BTK/process_docking_weight1_custom_product_contain_oxygen_bond_distance_aromatic_linkinvent_7_9_3/rearranged_h_0092.sdf

> <i_m_source_file_index>
88

> <r_mmod_Potential_Energy-OPLS-2005>
391.15087890625

> <r_mmod_Stretch_Energy-OPLS-2005>
150.6123046875

> <r_mmod_Bend_Energy-OPLS-2005>
218.686111450195

> <r_mmod_Torsional_Energy-OPLS-2005>
256.221588134766

> <r_mmod_Improper_Torsional_Energy-OPLS-2005>
11.1598711013794

> <r_mmod_Van_der_Waal_Energy-OPLS-2005>
125.716049194336

> <r_mmod_Electrostatic_Energy-OPLS-2005>
-231.431793212891

> <r_mmod_Solvation_Energy-OPLS-2005>
-246.215118408203

> <b_mmod_Minimization_Converged-OPLS-2005>
0

> <r_mmod_RMS_Derivative-OPLS-2005>
4.31107568740845

$$$$
88
                    3D
 Structure written by MMmdl.
155163  0  0  1  0            999 V2000
  -30.7088  -14.6435   20.5007 C   0  0  0  0  0  0
  -30.4129  -12.4080   19.4511 C   0  0  0  0  0  0
  -29.4930  -12.4961   18.2187 C   0  0  0  0  0  0
  -28.0218  -12.3333   18.6423 C   0  0  0  0  0  0
  -27.6402  -13.2341   19.8484 C   0  0  2  0  0  0
  -28.6910  -13.1669   20.9781 C   0  0  0  0  0  0
  -25.2510  -13.8216   20.5725 C   0  0  0  0  0  0
  -24.1794  -13.0449   20.9192 C   0  0  0  0  0  0
  -24.6391  -11.6930   20.8741 C   0  0  0  0  0  0
  -23.9072  -10.4300   21.0398 C   0  0  0  0  0  0
  -24.3621   -9.4214   21.9175 C   0  0  0  0  0  0
  -23.6299   -8.2247   22.0750 C   0  0  0  0  0  0
  -22.4281   -8.0282   21.3544 C   0  0  0  0  0  0
  -21.9912   -9.0255   20.4646 C   0  0  0  0  0  0
  -22.7242  -10.2134   20.3051 C   0  0  0  0  0  0
  -21.6857   -6.0733   22.5280 C   0  0  0  0  0  0
  -21.4013   -6.5637   23.8212 C   0  0  0  0  0  0
  -21.3659   -5.6787   24.9175 C   0  0  0  0  0  0
  -21.6046   -4.3052   24.7228 C   0  0  0  0  0  0
  -21.8821   -3.8143   23.4350 C   0  0  0  0  0  0
  -21.9194   -4.6959   22.3404 C   0  0  0  0  0  0
  -22.7816  -13.5220   21.1862 C   0  0  0  0  0  0
  -22.1663   -4.2141   21.0983 F   0  0  0  0  0  0
  -21.5628   -3.4535   25.7742 F   0  0  0  0  0  0
  -29.9946  -13.4785   20.3809 N   0  0  0  0  0  0
  -26.2942  -12.9434   20.3318 N   0  0  0  0  0  0
  -25.9326  -11.6570   20.5771 N   0  0  0  0  0  0
  -22.0466  -12.8202   22.0418 N   0  0  0  0  0  0
  -25.4198  -15.1946   20.4218 N   0  0  0  0  0  0
  -31.9024  -14.6456   20.1891 O   0  0  0  0  0  0
  -21.6651   -6.8875   21.4242 O   0  0  0  0  0  0
  -22.3489  -14.5522   20.6713 O   0  0  0  0  0  0
  -24.6285  -31.8613   23.2065 C   0  0  0  0  0  0
  -25.9139  -32.4780   23.8377 C   0  0  1  0  0  0
  -27.2018  -27.3049   20.1092 C   0  0  0  0  0  0
  -25.5964  -33.8580   24.2302 N   0  0  0  0  0  0
  -23.4201  -30.4914   21.5501 C   0  0  2  0  0  0
  -24.8614  -28.9578   20.1083 C   0  0  0  0  0  0
  -22.7483  -29.4645   22.4937 C   0  0  0  0  0  0
  -18.0287  -28.1379   22.8489 C   0  0  0  0  0  0
  -24.1495  -36.7284   23.2627 C   0  0  0  0  0  0
  -25.9662  -30.7870   21.3829 C   0  0  0  0  0  0
  -26.0356  -29.4171   20.7187 C   0  0  0  0  0  0
  -27.2099  -28.6019   20.7146 C   0  0  0  0  0  0
  -26.0032  -26.9216   19.4554 C   0  0  0  0  0  0
  -24.8481  -27.7154   19.4677 C   0  0  0  0  0  0
  -23.6331  -29.8389   20.1620 C   0  0  0  0  0  0
  -25.4114  -36.3081   24.0332 C   0  0  1  0  0  0
  -20.5890  -28.3696   23.1270 C   0  0  2  0  0  0
  -20.6778  -26.9417   22.5408 C   0  0  0  0  0  0
  -19.5760  -26.6385   21.5208 C   0  0  0  0  0  0
  -18.1936  -26.7930   22.1614 C   0  0  0  0  0  0
  -19.1540  -28.8854   23.2876 C   0  0  0  0  0  0
  -18.9460  -30.1453   23.8895 C   0  0  0  0  0  0
  -17.6459  -30.6582   24.0560 C   0  0  0  0  0  0
  -25.9063  -34.9450   23.5113 C   0  0  0  0  0  0
  -16.5352  -29.9080   23.6326 C   0  0  0  0  0  0
  -16.7275  -28.6494   23.0359 C   0  0  0  0  0  0
  -26.4505  -31.6581   25.0750 C   0  0  0  0  0  0
  -25.3728  -31.3753   26.1475 C   0  0  0  0  0  0
  -27.0307  -30.2980   24.6224 C   0  0  0  0  0  0
  -27.6083  -32.4297   25.7502 C   0  0  0  0  0  0
  -27.5592  -37.1781   24.8446 C   0  0  0  0  0  0
  -21.4197  -29.3049   22.3666 N   0  0  0  0  0  0
  -26.4279  -37.3788   23.9428 N   0  0  0  0  0  0
  -24.6905  -31.0624   22.1026 N   0  0  0  0  0  0
  -23.4208  -28.8172   23.3005 O   0  0  0  0  0  0
  -28.2796  -26.3978   20.1791 O   0  0  0  0  0  0
  -26.5613  -34.8919   22.4668 O   0  0  0  0  0  0
  -23.5447  -32.1416   23.7391 O   0  0  0  0  0  0
  -30.2958  -20.8635   20.2008 C   0  0  0  0  0  0
  -28.1434  -20.1081   20.9266 C   0  0  0  0  0  0
  -29.9811  -18.4258   20.7646 C   0  0  0  0  0  0
  -30.7904  -19.5263   20.2955 C   0  0  0  0  0  0
  -28.9638  -21.1992   20.5261 C   0  0  0  0  0  0
  -28.6218  -18.7651   21.0671 C   0  0  0  0  0  0
  -30.6309  -17.0340   21.0413 C   0  0  0  0  0  0
  -28.9185  -23.8092   20.3318 C   0  0  0  0  0  0
  -32.2411  -19.3344   19.8641 C   0  0  0  0  0  0
  -27.9095  -24.9691   19.9745 C   0  0  0  0  0  0
  -27.7032  -17.8164   21.5337 N   0  0  0  0  0  0
  -28.3892  -22.5408   20.3921 N   0  0  0  0  0  0
  -30.0414  -15.8307   20.7192 N   0  0  0  0  0  0
  -31.7417  -17.0578   21.5882 O   0  0  0  0  0  0
  -30.1109  -24.0546   20.5338 O   0  0  0  0  0  0
  -31.4560  -12.4925   19.1419 H   0  0  0  0  0  0
  -30.3247  -11.4326   19.9317 H   0  0  0  0  0  0
  -29.7601  -11.7270   17.4928 H   0  0  0  0  0  0
  -29.6320  -13.4552   17.7169 H   0  0  0  0  0  0
  -27.8733  -11.2852   18.9045 H   0  0  0  0  0  0
  -27.3593  -12.5305   17.7983 H   0  0  0  0  0  0
  -27.6354  -14.2561   19.4691 H   0  0  0  0  0  0
  -28.7099  -12.1777   21.4374 H   0  0  0  0  0  0
  -28.4447  -13.8722   21.7734 H   0  0  0  0  0  0
  -25.2763   -9.5698   22.4749 H   0  0  0  0  0  0
  -24.0011   -7.4640   22.7467 H   0  0  0  0  0  0
  -21.0840   -8.8777   19.8955 H   0  0  0  0  0  0
  -22.3695  -10.9671   19.6161 H   0  0  0  0  0  0
  -21.2006   -7.6143   23.9714 H   0  0  0  0  0  0
  -21.1474   -6.0517   25.9075 H   0  0  0  0  0  0
  -22.0597   -2.7604   23.2854 H   0  0  0  0  0  0
  -22.4083  -11.9861   22.4801 H   0  0  0  0  0  0
  -21.1083  -13.1227   22.2630 H   0  0  0  0  0  0
  -24.6612  -15.8511   20.5679 H   0  0  0  0  0  0
  -26.2958  -15.6551   20.2062 H   0  0  0  0  0  0
  -26.7208  -32.5438   23.1124 H   0  0  0  0  0  0
  -25.0170  -33.9724   25.0488 H   0  0  0  0  0  0
  -22.7138  -31.3133   21.4143 H   0  0  0  0  0  0
  -23.3773  -35.9598   23.3253 H   0  0  0  0  0  0
  -24.3613  -36.8934   22.2051 H   0  0  0  0  0  0
  -23.7220  -37.6470   23.6658 H   0  0  0  0  0  0
  -26.1054  -31.5532   20.6188 H   0  0  0  0  0  0
  -26.8436  -30.8273   22.0167 H   0  0  0  0  0  0
  -28.1039  -28.9442   21.2168 H   0  0  0  0  0  0
  -25.9016  -25.9841   18.9321 H   0  0  0  0  0  0
  -23.9511  -27.3610   18.9783 H   0  0  0  0  0  0
  -23.7548  -30.6204   19.4113 H   0  0  0  0  0  0
  -22.7515  -29.2726   19.8566 H   0  0  0  0  0  0
  -25.1282  -36.1932   25.0823 H   0  0  0  0  0  0
  -20.9986  -28.3276   24.1389 H   0  0  0  0  0  0
  -20.5677  -26.2312   23.3613 H   0  0  0  0  0  0
  -21.6647  -26.7445   22.1206 H   0  0  0  0  0  0
  -19.6928  -25.6296   21.1240 H   0  0  0  0  0  0
  -19.6706  -27.3189   20.6733 H   0  0  0  0  0  0
  -17.4216  -26.6688   21.4002 H   0  0  0  0  0  0
  -18.0332  -26.0058   22.8998 H   0  0  0  0  0  0
  -19.7936  -30.7264   24.2267 H   0  0  0  0  0  0
  -17.5017  -31.6261   24.5166 H   0  0  0  0  0  0
  -15.5353  -30.2981   23.7649 H   0  0  0  0  0  0
  -15.8680  -28.0805   22.7082 H   0  0  0  0  0  0
  -24.5967  -30.7002   25.7851 H   0  0  0  0  0  0
  -24.8831  -32.2916   26.4781 H   0  0  0  0  0  0
  -25.8061  -30.9068   27.0322 H   0  0  0  0  0  0
  -26.2869  -29.6768   24.1219 H   0  0  0  0  0  0
  -27.3929  -29.7215   25.4748 H   0  0  0  0  0  0
  -27.8794  -30.4217   23.9492 H   0  0  0  0  0  0
  -27.2721  -33.3619   26.2051 H   0  0  0  0  0  0
  -28.3902  -32.6806   25.0324 H   0  0  0  0  0  0
  -28.0736  -31.8431   26.5435 H   0  0  0  0  0  0
  -28.2554  -38.0133   24.7575 H   0  0  0  0  0  0
  -28.1137  -36.2669   24.6144 H   0  0  0  0  0  0
  -27.2334  -37.1287   25.8850 H   0  0  0  0  0  0
  -20.9378  -29.8786   21.6887 H   0  0  0  0  0  0
  -26.0157  -38.2849   24.1486 H   0  0  0  0  0  0
  -30.9549  -21.6465   19.8518 H   0  0  0  0  0  0
  -27.1083  -20.3153   21.1616 H   0  0  0  0  0  0
  -32.5741  -20.1454   19.2155 H   0  0  0  0  0  0
  -32.3785  -18.4093   19.3034 H   0  0  0  0  0  0
  -32.9004  -19.3175   20.7328 H   0  0  0  0  0  0
  -27.0036  -24.7532   20.5443 H   0  0  0  0  0  0
  -27.6810  -24.8214   18.9184 H   0  0  0  0  0  0
  -26.7970  -18.1739   21.8217 H   0  0  0  0  0  0
  -28.0340  -17.1379   22.2112 H   0  0  0  0  0  0
  -27.3810  -22.5463   20.3169 H   0  0  0  0  0  0
  -29.0469  -15.8469   20.5678 H   0  0  0  0  0  0
  1 25  1  0  0  0
  1 30  2  0  0  0
  1 83  1  0  0  0
  2  3  1  0  0  0
  2 25  1  0  0  0
  2 86  1  0  0  0
  2 87  1  0  0  0
  3  4  1  0  0  0
  3 88  1  0  0  0
  3 89  1  0  0  0
  4  5  1  0  0  0
  4 90  1  0  0  0
  4 91  1  0  0  0
  5  6  1  0  0  0
  5 26  1  0  0  0
  5 92  1  0  0  0
  6 25  1  0  0  0
  6 93  1  0  0  0
  6 94  1  0  0  0
  7  8  2  0  0  0
  7 26  1  0  0  0
  7 29  1  0  0  0
  8  9  1  0  0  0
  8 22  1  0  0  0
  9 10  1  0  0  0
  9 27  2  0  0  0
 10 11  2  0  0  0
 10 15  1  0  0  0
 11 12  1  0  0  0
 11 95  1  0  0  0
 12 13  2  0  0  0
 12 96  1  0  0  0
 13 14  1  0  0  0
 13 31  1  0  0  0
 14 15  2  0  0  0
 14 97  1  0  0  0
 15 98  1  0  0  0
 16 17  2  0  0  0
 16 21  1  0  0  0
 16 31  1  0  0  0
 17 18  1  0  0  0
 17 99  1  0  0  0
 18 19  2  0  0  0
 18100  1  0  0  0
 19 20  1  0  0  0
 19 24  1  0  0  0
 20 21  2  0  0  0
 20101  1  0  0  0
 21 23  1  0  0  0
 22 28  1  0  0  0
 22 32  2  0  0  0
 26 27  1  0  0  0
 28102  1  0  0  0
 28103  1  0  0  0
 29104  1  0  0  0
 29105  1  0  0  0
 33 34  1  0  0  0
 33 66  1  0  0  0
 33 70  2  0  0  0
 34 36  1  0  0  0
 34 59  1  0  0  0
 34106  1  0  0  0
 35 44  2  0  0  0
 35 45  1  0  0  0
 35 68  1  0  0  0
 36 56  1  0  0  0
 36107  1  0  0  0
 37 39  1  0  0  0
 37 47  1  0  0  0
 37 66  1  0  0  0
 37108  1  0  0  0
 38 43  2  0  0  0
 38 46  1  0  0  0
 38 47  1  0  0  0
 39 64  1  0  0  0
 39 67  2  0  0  0
 40 52  1  0  0  0
 40 53  2  0  0  0
 40 58  1  0  0  0
 41109  1  0  0  0
 41110  1  0  0  0
 41111  1  0  0  0
 41 48  1  0  0  0
 42 43  1  0  0  0
 42 66  1  0  0  0
 42112  1  0  0  0
 42113  1  0  0  0
 43 44  1  0  0  0
 44114  1  0  0  0
 45 46  2  0  0  0
 45115  1  0  0  0
 46116  1  0  0  0
 47117  1  0  0  0
 47118  1  0  0  0
 48 56  1  0  0  0
 48 65  1  0  0  0
 48119  1  0  0  0
 49 50  1  0  0  0
 49 53  1  0  0  0
 49 64  1  0  0  0
 49120  1  0  0  0
 50 51  1  0  0  0
 50121  1  0  0  0
 50122  1  0  0  0
 51 52  1  0  0  0
 51123  1  0  0  0
 51124  1  0  0  0
 52125  1  0  0  0
 52126  1  0  0  0
 53 54  1  0  0  0
 54 55  2  0  0  0
 54127  1  0  0  0
 55 57  1  0  0  0
 55128  1  0  0  0
 56 69  2  0  0  0
 57 58  2  0  0  0
 57129  1  0  0  0
 58130  1  0  0  0
 59 60  1  0  0  0
 59 61  1  0  0  0
 59 62  1  0  0  0
 60131  1  0  0  0
 60132  1  0  0  0
 60133  1  0  0  0
 61134  1  0  0  0
 61135  1  0  0  0
 61136  1  0  0  0
 62137  1  0  0  0
 62138  1  0  0  0
 62139  1  0  0  0
 63 65  1  0  0  0
 63140  1  0  0  0
 63141  1  0  0  0
 63142  1  0  0  0
 64143  1  0  0  0
 65144  1  0  0  0
 68 80  1  0  0  0
 71 74  2  0  0  0
 71 75  1  0  0  0
 71145  1  0  0  0
 72 75  2  0  0  0
 72 76  1  0  0  0
 72146  1  0  0  0
 73 74  1  0  0  0
 73 76  2  0  0  0
 73 77  1  0  0  0
 74 79  1  0  0  0
 75 82  1  0  0  0
 76 81  1  0  0  0
 77 83  1  0  0  0
 77 84  2  0  0  0
 78 80  1  0  0  0
 78 82  1  0  0  0
 78 85  2  0  0  0
 79147  1  0  0  0
 79148  1  0  0  0
 79149  1  0  0  0
 80150  1  0  0  0
 80151  1  0  0  0
 81152  1  0  0  0
 81153  1  0  0  0
 82154  1  0  0  0
 83155  1  0  0  0
M  ISO  4   1 100  68 101  80 101  83 100
M  END
> <chiral flag>
0

> <version>
0

> <s_m_source_file>
/data/baiqing/PycharmProjects/Reinvent-master-3.2/result/LINK_invent/BTK/process_docking_weight1_custom_product_contain_oxygen_bond_distance_aromatic_linkinvent_7_9_3/rearranged_h_0092.sdf

> <i_m_source_file_index>
89

> <r_mmod_Potential_Energy-OPLS-2005>
191.555633544922

> <r_mmod_Stretch_Energy-OPLS-2005>
88.6869735717773

> <r_mmod_Bend_Energy-OPLS-2005>
159.091415405273

> <r_mmod_Torsional_Energy-OPLS-2005>
254.114364624023

> <r_mmod_Improper_Torsional_Energy-OPLS-2005>
10.5202655792236

> <r_mmod_Van_der_Waal_Energy-OPLS-2005>
166.443756103516

> <r_mmod_Electrostatic_Energy-OPLS-2005>
-294.117401123047

> <r_mmod_Solvation_Energy-OPLS-2005>
-257.486419677734

> <b_mmod_Minimization_Converged-OPLS-2005>
0

> <r_mmod_RMS_Derivative-OPLS-2005>
0.955969572067261

$$$$
89
                    3D
 Structure written by MMmdl.
153161  0  0  1  0            999 V2000
  -30.6137  -14.6518   20.5187 C   0  0  0  0  0  0
  -30.4439  -12.4029   19.4578 C   0  0  0  0  0  0
  -29.5128  -12.5159   18.2290 C   0  0  0  0  0  0
  -28.0367  -12.3438   18.6406 C   0  0  0  0  0  0
  -27.6575  -13.2145   19.8687 C   0  0  2  0  0  0
  -28.7003  -13.0632   21.0000 C   0  0  0  0  0  0
  -25.2583  -13.8163   20.5687 C   0  0  0  0  0  0
  -24.1841  -13.0438   20.9176 C   0  0  0  0  0  0
  -24.6404  -11.6906   20.8735 C   0  0  0  0  0  0
  -23.9071  -10.4293   21.0405 C   0  0  0  0  0  0
  -24.3621   -9.4208   21.9186 C   0  0  0  0  0  0
  -23.6294   -8.2246   22.0755 C   0  0  0  0  0  0
  -22.4277   -8.0283   21.3547 C   0  0  0  0  0  0
  -21.9914   -9.0259   20.4650 C   0  0  0  0  0  0
  -22.7242  -10.2136   20.3058 C   0  0  0  0  0  0
  -21.6855   -6.0739   22.5281 C   0  0  0  0  0  0
  -21.4013   -6.5643   23.8213 C   0  0  0  0  0  0
  -21.3660   -5.6795   24.9177 C   0  0  0  0  0  0
  -21.6044   -4.3058   24.7227 C   0  0  0  0  0  0
  -21.8819   -3.8149   23.4349 C   0  0  0  0  0  0
  -21.9191   -4.6967   22.3404 C   0  0  0  0  0  0
  -22.7865  -13.5238   21.1844 C   0  0  0  0  0  0
  -22.1660   -4.2153   21.0982 F   0  0  0  0  0  0
  -21.5629   -3.4540   25.7739 F   0  0  0  0  0  0
  -30.0171  -13.4179   20.4438 N   0  0  0  0  0  0
  -26.3014  -12.9342   20.3339 N   0  0  0  0  0  0
  -25.9337  -11.6499   20.5768 N   0  0  0  0  0  0
  -22.0504  -12.8235   22.0399 N   0  0  0  0  0  0
  -25.4308  -15.1884   20.4111 N   0  0  0  0  0  0
  -31.7507  -14.8424   20.0752 O   0  0  0  0  0  0
  -21.6640   -6.8883   21.4244 O   0  0  0  0  0  0
  -22.3557  -14.5550   20.6693 O   0  0  0  0  0  0
  -24.6269  -31.8586   23.2032 C   0  0  0  0  0  0
  -25.9116  -32.4768   23.8361 C   0  0  1  0  0  0
  -27.2254  -27.3123   20.1162 C   0  0  0  0  0  0
  -25.5933  -33.8571   24.2284 N   0  0  0  0  0  0
  -23.4210  -30.4840   21.5448 C   0  0  2  0  0  0
  -24.8686  -28.9411   20.1090 C   0  0  0  0  0  0
  -22.7476  -29.4617   22.4923 C   0  0  0  0  0  0
  -18.0287  -28.1372   22.8493 C   0  0  0  0  0  0
  -24.1494  -36.7290   23.2636 C   0  0  0  0  0  0
  -25.9638  -30.7881   21.3769 C   0  0  0  0  0  0
  -26.0375  -29.4158   20.7170 C   0  0  0  0  0  0
  -27.2176  -28.6123   20.7131 C   0  0  0  0  0  0
  -26.0345  -26.8998   19.4733 C   0  0  0  0  0  0
  -24.8692  -27.6885   19.4785 C   0  0  0  0  0  0
  -23.6368  -29.8214   20.1593 C   0  0  0  0  0  0
  -25.4117  -36.3074   24.0325 C   0  0  1  0  0  0
  -20.5889  -28.3682   23.1277 C   0  0  2  0  0  0
  -20.6772  -26.9404   22.5406 C   0  0  0  0  0  0
  -19.5745  -26.6380   21.5210 C   0  0  0  0  0  0
  -18.1927  -26.7919   22.1625 C   0  0  0  0  0  0
  -19.1540  -28.8844   23.2884 C   0  0  0  0  0  0
  -18.9459  -30.1447   23.8899 C   0  0  0  0  0  0
  -17.6457  -30.6577   24.0562 C   0  0  0  0  0  0
  -25.9051  -34.9443   23.5103 C   0  0  0  0  0  0
  -16.5349  -29.9074   23.6330 C   0  0  0  0  0  0
  -16.7274  -28.6490   23.0357 C   0  0  0  0  0  0
  -26.4514  -31.6576   25.0724 C   0  0  0  0  0  0
  -25.3755  -31.3705   26.1454 C   0  0  0  0  0  0
  -27.0357  -30.2996   24.6178 C   0  0  0  0  0  0
  -27.6070  -32.4311   25.7501 C   0  0  0  0  0  0
  -27.5578  -37.1797   24.8461 C   0  0  0  0  0  0
  -21.4186  -29.3036   22.3666 N   0  0  0  0  0  0
  -26.4292  -37.3770   23.9404 N   0  0  0  0  0  0
  -24.6892  -31.0601   22.0982 N   0  0  0  0  0  0
  -23.4201  -28.8150   23.2998 O   0  0  0  0  0  0
  -28.3396  -26.4537   20.1816 O   0  0  0  0  0  0
  -26.5615  -34.8910   22.4667 O   0  0  0  0  0  0
  -23.5431  -32.1383   23.7360 O   0  0  0  0  0  0
  -29.8950  -17.8854   19.7459 C   0  0  0  0  0  0
  -29.7833  -19.3177   19.7475 C   0  0  0  0  0  0
  -29.8296  -17.8792   22.1506 C   0  0  0  0  0  0
  -29.9199  -17.1260   20.9518 C   0  0  0  0  0  0
  -29.7518  -19.3020   22.1532 C   0  0  0  0  0  0
  -29.7131  -20.0670   20.9565 C   0  0  0  0  0  0
  -29.1712  -23.9352   20.5236 C   0  0  0  0  0  0
  -28.1409  -24.9997   19.9368 C   0  0  0  0  0  0
  -28.9791  -22.3820   20.1735 C   0  0  0  0  0  0
  -29.6874  -19.9810   23.3697 N   0  0  0  0  0  0
  -29.8351  -15.6645   21.0163 N   0  0  0  0  0  0
  -29.6866  -21.4764   21.0794 O   0  0  0  0  0  0
  -31.4851  -12.5331   19.1573 H   0  0  0  0  0  0
  -30.3836  -11.4058   19.8963 H   0  0  0  0  0  0
  -29.7820  -11.7696   17.4804 H   0  0  0  0  0  0
  -29.6485  -13.4880   17.7526 H   0  0  0  0  0  0
  -27.8810  -11.2898   18.8748 H   0  0  0  0  0  0
  -27.3806  -12.5667   17.7986 H   0  0  0  0  0  0
  -27.6789  -14.2512   19.5315 H   0  0  0  0  0  0
  -28.7167  -12.0377   21.3718 H   0  0  0  0  0  0
  -28.4370  -13.6807   21.8599 H   0  0  0  0  0  0
  -25.2769   -9.5684   22.4758 H   0  0  0  0  0  0
  -24.0001   -7.4641   22.7478 H   0  0  0  0  0  0
  -21.0843   -8.8786   19.8960 H   0  0  0  0  0  0
  -22.3706  -10.9679   19.6166 H   0  0  0  0  0  0
  -21.2005   -7.6150   23.9719 H   0  0  0  0  0  0
  -21.1483   -6.0525   25.9080 H   0  0  0  0  0  0
  -22.0595   -2.7611   23.2848 H   0  0  0  0  0  0
  -22.4115  -11.9894   22.4786 H   0  0  0  0  0  0
  -21.1128  -13.1276   22.2613 H   0  0  0  0  0  0
  -24.6656  -15.8448   20.5227 H   0  0  0  0  0  0
  -26.2869  -15.6291   20.0987 H   0  0  0  0  0  0
  -26.7189  -32.5446   23.1116 H   0  0  0  0  0  0
  -25.0098  -33.9732   25.0440 H   0  0  0  0  0  0
  -22.7144  -31.3043   21.4022 H   0  0  0  0  0  0
  -23.3750  -35.9630   23.3300 H   0  0  0  0  0  0
  -24.3590  -36.8906   22.2050 H   0  0  0  0  0  0
  -23.7259  -37.6496   23.6661 H   0  0  0  0  0  0
  -26.0977  -31.5529   20.6103 H   0  0  0  0  0  0
  -26.8434  -30.8349   22.0076 H   0  0  0  0  0  0
  -28.1124  -28.9695   21.2036 H   0  0  0  0  0  0
  -25.9734  -25.9484   18.9666 H   0  0  0  0  0  0
  -23.9751  -27.3199   18.9944 H   0  0  0  0  0  0
  -23.7562  -30.5986   19.4033 H   0  0  0  0  0  0
  -22.7576  -29.2501   19.8567 H   0  0  0  0  0  0
  -25.1301  -36.1922   25.0817 H   0  0  0  0  0  0
  -21.0000  -28.3263   24.1389 H   0  0  0  0  0  0
  -20.5664  -26.2295   23.3608 H   0  0  0  0  0  0
  -21.6641  -26.7419   22.1201 H   0  0  0  0  0  0
  -19.6901  -25.6296   21.1227 H   0  0  0  0  0  0
  -19.6674  -27.3202   20.6750 H   0  0  0  0  0  0
  -17.4193  -26.6672   21.4027 H   0  0  0  0  0  0
  -18.0321  -26.0055   22.9015 H   0  0  0  0  0  0
  -19.7936  -30.7262   24.2269 H   0  0  0  0  0  0
  -17.5009  -31.6260   24.5155 H   0  0  0  0  0  0
  -15.5348  -30.2972   23.7647 H   0  0  0  0  0  0
  -15.8676  -28.0804   22.7074 H   0  0  0  0  0  0
  -24.5951  -30.7026   25.7791 H   0  0  0  0  0  0
  -24.8931  -32.2865   26.4875 H   0  0  0  0  0  0
  -25.8099  -30.8900   27.0230 H   0  0  0  0  0  0
  -26.2929  -29.6738   24.1212 H   0  0  0  0  0  0
  -27.4060  -29.7257   25.4685 H   0  0  0  0  0  0
  -27.8806  -30.4274   23.9404 H   0  0  0  0  0  0
  -27.2678  -33.3611   26.2085 H   0  0  0  0  0  0
  -28.3891  -32.6865   25.0336 H   0  0  0  0  0  0
  -28.0733  -31.8424   26.5414 H   0  0  0  0  0  0
  -28.2587  -38.0101   24.7510 H   0  0  0  0  0  0
  -28.1079  -36.2627   24.6288 H   0  0  0  0  0  0
  -27.2293  -37.1450   25.8863 H   0  0  0  0  0  0
  -20.9344  -29.8783   21.6909 H   0  0  0  0  0  0
  -26.0163  -38.2839   24.1413 H   0  0  0  0  0  0
  -29.9260  -17.3690   18.7967 H   0  0  0  0  0  0
  -29.7696  -19.8394   18.8020 H   0  0  0  0  0  0
  -29.8122  -17.3509   23.0938 H   0  0  0  0  0  0
  -30.1792  -24.2237   20.2248 H   0  0  0  0  0  0
  -29.1493  -24.0346   21.6087 H   0  0  0  0  0  0
  -28.0758  -24.8525   18.8580 H   0  0  0  0  0  0
  -27.1726  -24.7085   20.3456 H   0  0  0  0  0  0
  -29.2952  -22.1986   19.1461 H   0  0  0  0  0  0
  -27.9188  -22.1313   20.2208 H   0  0  0  0  0  0
  -29.3915  -20.9509   23.3092 H   0  0  0  0  0  0
  -29.2757  -19.4992   24.1621 H   0  0  0  0  0  0
  -29.0110  -15.3168   21.4832 H   0  0  0  0  0  0
  1 25  1  0  0  0
  1 30  2  0  0  0
  1 81  1  0  0  0
  2  3  1  0  0  0
  2 25  1  0  0  0
  2 83  1  0  0  0
  2 84  1  0  0  0
  3  4  1  0  0  0
  3 85  1  0  0  0
  3 86  1  0  0  0
  4  5  1  0  0  0
  4 87  1  0  0  0
  4 88  1  0  0  0
  5  6  1  0  0  0
  5 26  1  0  0  0
  5 89  1  0  0  0
  6 25  1  0  0  0
  6 90  1  0  0  0
  6 91  1  0  0  0
  7  8  2  0  0  0
  7 26  1  0  0  0
  7 29  1  0  0  0
  8  9  1  0  0  0
  8 22  1  0  0  0
  9 10  1  0  0  0
  9 27  2  0  0  0
 10 11  2  0  0  0
 10 15  1  0  0  0
 11 12  1  0  0  0
 11 92  1  0  0  0
 12 13  2  0  0  0
 12 93  1  0  0  0
 13 14  1  0  0  0
 13 31  1  0  0  0
 14 15  2  0  0  0
 14 94  1  0  0  0
 15 95  1  0  0  0
 16 17  2  0  0  0
 16 21  1  0  0  0
 16 31  1  0  0  0
 17 18  1  0  0  0
 17 96  1  0  0  0
 18 19  2  0  0  0
 18 97  1  0  0  0
 19 20  1  0  0  0
 19 24  1  0  0  0
 20 21  2  0  0  0
 20 98  1  0  0  0
 21 23  1  0  0  0
 22 28  1  0  0  0
 22 32  2  0  0  0
 26 27  1  0  0  0
 28 99  1  0  0  0
 28100  1  0  0  0
 29101  1  0  0  0
 29102  1  0  0  0
 33 34  1  0  0  0
 33 66  1  0  0  0
 33 70  2  0  0  0
 34 36  1  0  0  0
 34 59  1  0  0  0
 34103  1  0  0  0
 35 44  2  0  0  0
 35 45  1  0  0  0
 35 68  1  0  0  0
 36 56  1  0  0  0
 36104  1  0  0  0
 37 39  1  0  0  0
 37 47  1  0  0  0
 37 66  1  0  0  0
 37105  1  0  0  0
 38 43  2  0  0  0
 38 46  1  0  0  0
 38 47  1  0  0  0
 39 64  1  0  0  0
 39 67  2  0  0  0
 40 52  1  0  0  0
 40 53  2  0  0  0
 40 58  1  0  0  0
 41106  1  0  0  0
 41107  1  0  0  0
 41108  1  0  0  0
 41 48  1  0  0  0
 42 43  1  0  0  0
 42 66  1  0  0  0
 42109  1  0  0  0
 42110  1  0  0  0
 43 44  1  0  0  0
 44111  1  0  0  0
 45 46  2  0  0  0
 45112  1  0  0  0
 46113  1  0  0  0
 47114  1  0  0  0
 47115  1  0  0  0
 48 56  1  0  0  0
 48 65  1  0  0  0
 48116  1  0  0  0
 49 50  1  0  0  0
 49 53  1  0  0  0
 49 64  1  0  0  0
 49117  1  0  0  0
 50 51  1  0  0  0
 50118  1  0  0  0
 50119  1  0  0  0
 51 52  1  0  0  0
 51120  1  0  0  0
 51121  1  0  0  0
 52122  1  0  0  0
 52123  1  0  0  0
 53 54  1  0  0  0
 54 55  2  0  0  0
 54124  1  0  0  0
 55 57  1  0  0  0
 55125  1  0  0  0
 56 69  2  0  0  0
 57 58  2  0  0  0
 57126  1  0  0  0
 58127  1  0  0  0
 59 60  1  0  0  0
 59 61  1  0  0  0
 59 62  1  0  0  0
 60128  1  0  0  0
 60129  1  0  0  0
 60130  1  0  0  0
 61131  1  0  0  0
 61132  1  0  0  0
 61133  1  0  0  0
 62134  1  0  0  0
 62135  1  0  0  0
 62136  1  0  0  0
 63 65  1  0  0  0
 63137  1  0  0  0
 63138  1  0  0  0
 63139  1  0  0  0
 64140  1  0  0  0
 65141  1  0  0  0
 68 78  1  0  0  0
 71 72  2  0  0  0
 71 74  1  0  0  0
 71142  1  0  0  0
 72 76  1  0  0  0
 72143  1  0  0  0
 73 74  2  0  0  0
 73 75  1  0  0  0
 73144  1  0  0  0
 74 81  1  0  0  0
 75 76  2  0  0  0
 75 80  1  0  0  0
 76 82  1  0  0  0
 77 78  1  0  0  0
 77 79  1  0  0  0
 77145  1  0  0  0
 77146  1  0  0  0
 78147  1  0  0  0
 78148  1  0  0  0
 79 82  1  0  0  0
 79149  1  0  0  0
 79150  1  0  0  0
 80151  1  0  0  0
 80152  1  0  0  0
 81153  1  0  0  0
M  ISO  4   1 100  68 101  78 101  81 100
M  END
> <chiral flag>
0

> <version>
0

> <s_m_source_file>
/data/baiqing/PycharmProjects/Reinvent-master-3.2/result/LINK_invent/BTK/process_docking_weight1_custom_product_contain_oxygen_bond_distance_aromatic_linkinvent_7_9_3/rearranged_h_0092.sdf

> <i_m_source_file_index>
90

> <r_mmod_Potential_Energy-OPLS-2005>
66.8887023925781

> <r_mmod_Stretch_Energy-OPLS-2005>
82.94677734375

> <r_mmod_Bend_Energy-OPLS-2005>
149.46403503418

> <r_mmod_Torsional_Energy-OPLS-2005>
245.477020263672

> <r_mmod_Improper_Torsional_Energy-OPLS-2005>
7.72417879104614

> <r_mmod_Van_der_Waal_Energy-OPLS-2005>
142.917083740234

> <r_mmod_Electrostatic_Energy-OPLS-2005>
-385.364990234375

> <r_mmod_Solvation_Energy-OPLS-2005>
-228.714752197266

> <b_mmod_Minimization_Converged-OPLS-2005>
0

> <r_mmod_RMS_Derivative-OPLS-2005>
0.953903317451477

$$$$
90
                    3D
 Structure written by MMmdl.
155163  0  0  1  0            999 V2000
  -30.7028  -14.6576   20.4741 C   0  0  0  0  0  0
  -30.4066  -12.4040   19.4675 C   0  0  0  0  0  0
  -29.4963  -12.4949   18.2277 C   0  0  0  0  0  0
  -28.0230  -12.3359   18.6433 C   0  0  0  0  0  0
  -27.6391  -13.2364   19.8492 C   0  0  2  0  0  0
  -28.6862  -13.1780   20.9835 C   0  0  0  0  0  0
  -25.2491  -13.8213   20.5708 C   0  0  0  0  0  0
  -24.1787  -13.0447   20.9202 C   0  0  0  0  0  0
  -24.6387  -11.6926   20.8751 C   0  0  0  0  0  0
  -23.9069  -10.4298   21.0407 C   0  0  0  0  0  0
  -24.3619   -9.4212   21.9183 C   0  0  0  0  0  0
  -23.6296   -8.2247   22.0752 C   0  0  0  0  0  0
  -22.4280   -8.0282   21.3540 C   0  0  0  0  0  0
  -21.9913   -9.0256   20.4644 C   0  0  0  0  0  0
  -22.7240  -10.2138   20.3055 C   0  0  0  0  0  0
  -21.6857   -6.0737   22.5278 C   0  0  0  0  0  0
  -21.4019   -6.5641   23.8212 C   0  0  0  0  0  0
  -21.3660   -5.6792   24.9171 C   0  0  0  0  0  0
  -21.6043   -4.3055   24.7221 C   0  0  0  0  0  0
  -21.8820   -3.8147   23.4342 C   0  0  0  0  0  0
  -21.9195   -4.6964   22.3400 C   0  0  0  0  0  0
  -22.7807  -13.5225   21.1859 C   0  0  0  0  0  0
  -22.1664   -4.2148   21.0977 F   0  0  0  0  0  0
  -21.5622   -3.4538   25.7734 F   0  0  0  0  0  0
  -29.9925  -13.4846   20.3914 N   0  0  0  0  0  0
  -26.2928  -12.9434   20.3312 N   0  0  0  0  0  0
  -25.9321  -11.6567   20.5770 N   0  0  0  0  0  0
  -22.0461  -12.8214   22.0421 N   0  0  0  0  0  0
  -25.4167  -15.1937   20.4140 N   0  0  0  0  0  0
  -31.8961  -14.6325   20.1643 O   0  0  0  0  0  0
  -21.6642   -6.8881   21.4240 O   0  0  0  0  0  0
  -22.3491  -14.5530   20.6708 O   0  0  0  0  0  0
  -24.6257  -31.8599   23.2030 C   0  0  0  0  0  0
  -25.9103  -32.4779   23.8359 C   0  0  1  0  0  0
  -27.2133  -27.3201   20.1253 C   0  0  0  0  0  0
  -25.5917  -33.8578   24.2282 N   0  0  0  0  0  0
  -23.4198  -30.4841   21.5454 C   0  0  2  0  0  0
  -24.8662  -28.9408   20.1089 C   0  0  0  0  0  0
  -22.7473  -29.4623   22.4931 C   0  0  0  0  0  0
  -18.0288  -28.1382   22.8491 C   0  0  0  0  0  0
  -24.1488  -36.7298   23.2638 C   0  0  0  0  0  0
  -25.9606  -30.7917   21.3739 C   0  0  0  0  0  0
  -26.0352  -29.4195   20.7164 C   0  0  0  0  0  0
  -27.2169  -28.6201   20.7151 C   0  0  0  0  0  0
  -26.0312  -26.8975   19.4829 C   0  0  0  0  0  0
  -24.8659  -27.6855   19.4812 C   0  0  0  0  0  0
  -23.6342  -29.8210   20.1598 C   0  0  0  0  0  0
  -25.4111  -36.3083   24.0329 C   0  0  1  0  0  0
  -20.5888  -28.3685   23.1282 C   0  0  2  0  0  0
  -20.6775  -26.9408   22.5407 C   0  0  0  0  0  0
  -19.5749  -26.6383   21.5211 C   0  0  0  0  0  0
  -18.1932  -26.7927   22.1629 C   0  0  0  0  0  0
  -19.1541  -28.8852   23.2886 C   0  0  0  0  0  0
  -18.9463  -30.1456   23.8899 C   0  0  0  0  0  0
  -17.6462  -30.6585   24.0565 C   0  0  0  0  0  0
  -25.9048  -34.9451   23.5108 C   0  0  0  0  0  0
  -16.5354  -29.9082   23.6330 C   0  0  0  0  0  0
  -16.7277  -28.6500   23.0355 C   0  0  0  0  0  0
  -26.4488  -31.6589   25.0727 C   0  0  0  0  0  0
  -25.3725  -31.3732   26.1460 C   0  0  0  0  0  0
  -27.0325  -30.3012   24.6178 C   0  0  0  0  0  0
  -27.6049  -32.4323   25.7494 C   0  0  0  0  0  0
  -27.5579  -37.1801   24.8460 C   0  0  0  0  0  0
  -21.4186  -29.3040   22.3674 N   0  0  0  0  0  0
  -26.4290  -37.3776   23.9408 N   0  0  0  0  0  0
  -24.6877  -31.0613   22.0978 N   0  0  0  0  0  0
  -23.4196  -28.8161   23.3011 O   0  0  0  0  0  0
  -28.2943  -26.4318   20.1662 O   0  0  0  0  0  0
  -26.5623  -34.8916   22.4678 O   0  0  0  0  0  0
  -23.5421  -32.1393   23.7358 O   0  0  0  0  0  0
  -28.3172  -20.2247   21.4983 C   0  0  0  0  0  0
  -29.8716  -20.8262   19.7772 C   0  0  0  0  0  0
  -29.8437  -18.4575   20.6274 C   0  0  0  0  0  0
  -28.8646  -21.2523   20.6762 C   0  0  0  0  0  0
  -28.7835  -18.8685   21.4982 C   0  0  0  0  0  0
  -30.3401  -19.4786   19.7531 C   0  0  0  0  0  0
  -30.6206  -17.1140   20.7139 C   0  0  0  0  0  0
  -28.7686  -23.8497   20.3152 C   0  0  0  0  0  0
  -28.3949  -25.3780   22.3370 C   0  0  0  0  0  0
  -28.0296  -25.1454   20.8614 C   0  0  1  0  0  0
  -28.1843  -17.9948   22.4162 N   0  0  0  0  0  0
  -28.3713  -22.6313   20.8168 N   0  0  0  0  0  0
  -30.0368  -15.8572   20.6682 N   0  0  0  0  0  0
  -31.8453  -17.2477   20.8367 O   0  0  0  0  0  0
  -29.6568  -23.9640   19.4668 O   0  0  0  0  0  0
  -31.3231  -19.1833   18.8657 F   0  0  0  0  0  0
  -31.4526  -12.4715   19.1644 H   0  0  0  0  0  0
  -30.3056  -11.4316   19.9520 H   0  0  0  0  0  0
  -29.7653  -11.7259   17.5024 H   0  0  0  0  0  0
  -29.6404  -13.4538   17.7276 H   0  0  0  0  0  0
  -27.8704  -11.2873   18.9010 H   0  0  0  0  0  0
  -27.3663  -12.5381   17.7965 H   0  0  0  0  0  0
  -27.6320  -14.2579   19.4683 H   0  0  0  0  0  0
  -28.7021  -12.1916   21.4499 H   0  0  0  0  0  0
  -28.4387  -13.8884   21.7738 H   0  0  0  0  0  0
  -25.2764   -9.5685   22.4757 H   0  0  0  0  0  0
  -24.0001   -7.4640   22.7474 H   0  0  0  0  0  0
  -21.0843   -8.8775   19.8954 H   0  0  0  0  0  0
  -22.3697  -10.9674   19.6164 H   0  0  0  0  0  0
  -21.2022   -7.6150   23.9717 H   0  0  0  0  0  0
  -21.1477   -6.0520   25.9075 H   0  0  0  0  0  0
  -22.0601   -2.7607   23.2842 H   0  0  0  0  0  0
  -22.4088  -11.9879   22.4804 H   0  0  0  0  0  0
  -21.1077  -13.1229   22.2634 H   0  0  0  0  0  0
  -24.6553  -15.8502   20.5489 H   0  0  0  0  0  0
  -26.2785  -15.6440   20.1340 H   0  0  0  0  0  0
  -26.7172  -32.5451   23.1110 H   0  0  0  0  0  0
  -25.0057  -33.9723   25.0422 H   0  0  0  0  0  0
  -22.7142  -31.3053   21.4039 H   0  0  0  0  0  0
  -23.3741  -35.9639   23.3300 H   0  0  0  0  0  0
  -24.3579  -36.8918   22.2053 H   0  0  0  0  0  0
  -23.7251  -37.6503   23.6662 H   0  0  0  0  0  0
  -26.0909  -31.5557   20.6061 H   0  0  0  0  0  0
  -26.8413  -30.8406   22.0026 H   0  0  0  0  0  0
  -28.1129  -28.9762   21.2041 H   0  0  0  0  0  0
  -25.9988  -25.9327   18.9967 H   0  0  0  0  0  0
  -23.9720  -27.3150   18.9982 H   0  0  0  0  0  0
  -23.7522  -30.5990   19.4046 H   0  0  0  0  0  0
  -22.7538  -29.2510   19.8577 H   0  0  0  0  0  0
  -25.1289  -36.1936   25.0822 H   0  0  0  0  0  0
  -20.9990  -28.3260   24.1400 H   0  0  0  0  0  0
  -20.5676  -26.2294   23.3606 H   0  0  0  0  0  0
  -21.6645  -26.7436   22.1201 H   0  0  0  0  0  0
  -19.6907  -25.6293   21.1240 H   0  0  0  0  0  0
  -19.6686  -27.3196   20.6743 H   0  0  0  0  0  0
  -17.4198  -26.6679   21.4035 H   0  0  0  0  0  0
  -18.0334  -26.0068   22.9026 H   0  0  0  0  0  0
  -19.7937  -30.7277   24.2270 H   0  0  0  0  0  0
  -17.5012  -31.6265   24.5165 H   0  0  0  0  0  0
  -15.5355  -30.2987   23.7648 H   0  0  0  0  0  0
  -15.8678  -28.0819   22.7067 H   0  0  0  0  0  0
  -24.5882  -30.7104   25.7785 H   0  0  0  0  0  0
  -24.8940  -32.2903   26.4904 H   0  0  0  0  0  0
  -25.8048  -30.8887   27.0224 H   0  0  0  0  0  0
  -26.2899  -29.6769   24.1195 H   0  0  0  0  0  0
  -27.4013  -29.7262   25.4682 H   0  0  0  0  0  0
  -27.8771  -30.4297   23.9405 H   0  0  0  0  0  0
  -27.2658  -33.3621   26.2076 H   0  0  0  0  0  0
  -28.3854  -32.6891   25.0319 H   0  0  0  0  0  0
  -28.0722  -31.8447   26.5406 H   0  0  0  0  0  0
  -28.2592  -38.0103   24.7505 H   0  0  0  0  0  0
  -28.1081  -36.2632   24.6288 H   0  0  0  0  0  0
  -27.2297  -37.1447   25.8863 H   0  0  0  0  0  0
  -20.9357  -29.8770   21.6894 H   0  0  0  0  0  0
  -26.0169  -38.2851   24.1406 H   0  0  0  0  0  0
  -27.5310  -20.4985   22.1885 H   0  0  0  0  0  0
  -30.3243  -21.5344   19.0996 H   0  0  0  0  0  0
  -28.2535  -24.4804   22.9396 H   0  0  0  0  0  0
  -27.7739  -26.1600   22.7731 H   0  0  0  0  0  0
  -29.4360  -25.6846   22.4381 H   0  0  0  0  0  0
  -26.9675  -24.9022   20.8244 H   0  0  0  0  0  0
  -27.5696  -18.3918   23.1210 H   0  0  0  0  0  0
  -28.7057  -17.2046   22.7804 H   0  0  0  0  0  0
  -27.6129  -22.7270   21.4783 H   0  0  0  0  0  0
  -29.0318  -15.8299   20.7125 H   0  0  0  0  0  0
  1 25  1  0  0  0
  1 30  2  0  0  0
  1 83  1  0  0  0
  2  3  1  0  0  0
  2 25  1  0  0  0
  2 87  1  0  0  0
  2 88  1  0  0  0
  3  4  1  0  0  0
  3 89  1  0  0  0
  3 90  1  0  0  0
  4  5  1  0  0  0
  4 91  1  0  0  0
  4 92  1  0  0  0
  5  6  1  0  0  0
  5 26  1  0  0  0
  5 93  1  0  0  0
  6 25  1  0  0  0
  6 94  1  0  0  0
  6 95  1  0  0  0
  7  8  2  0  0  0
  7 26  1  0  0  0
  7 29  1  0  0  0
  8  9  1  0  0  0
  8 22  1  0  0  0
  9 10  1  0  0  0
  9 27  2  0  0  0
 10 11  2  0  0  0
 10 15  1  0  0  0
 11 12  1  0  0  0
 11 96  1  0  0  0
 12 13  2  0  0  0
 12 97  1  0  0  0
 13 14  1  0  0  0
 13 31  1  0  0  0
 14 15  2  0  0  0
 14 98  1  0  0  0
 15 99  1  0  0  0
 16 17  2  0  0  0
 16 21  1  0  0  0
 16 31  1  0  0  0
 17 18  1  0  0  0
 17100  1  0  0  0
 18 19  2  0  0  0
 18101  1  0  0  0
 19 20  1  0  0  0
 19 24  1  0  0  0
 20 21  2  0  0  0
 20102  1  0  0  0
 21 23  1  0  0  0
 22 28  1  0  0  0
 22 32  2  0  0  0
 26 27  1  0  0  0
 28103  1  0  0  0
 28104  1  0  0  0
 29105  1  0  0  0
 29106  1  0  0  0
 33 34  1  0  0  0
 33 66  1  0  0  0
 33 70  2  0  0  0
 34 36  1  0  0  0
 34 59  1  0  0  0
 34107  1  0  0  0
 35 44  2  0  0  0
 35 45  1  0  0  0
 35 68  1  0  0  0
 36 56  1  0  0  0
 36108  1  0  0  0
 37 39  1  0  0  0
 37 47  1  0  0  0
 37 66  1  0  0  0
 37109  1  0  0  0
 38 43  2  0  0  0
 38 46  1  0  0  0
 38 47  1  0  0  0
 39 64  1  0  0  0
 39 67  2  0  0  0
 40 52  1  0  0  0
 40 53  2  0  0  0
 40 58  1  0  0  0
 41110  1  0  0  0
 41111  1  0  0  0
 41112  1  0  0  0
 41 48  1  0  0  0
 42 43  1  0  0  0
 42 66  1  0  0  0
 42113  1  0  0  0
 42114  1  0  0  0
 43 44  1  0  0  0
 44115  1  0  0  0
 45 46  2  0  0  0
 45116  1  0  0  0
 46117  1  0  0  0
 47118  1  0  0  0
 47119  1  0  0  0
 48 56  1  0  0  0
 48 65  1  0  0  0
 48120  1  0  0  0
 49 50  1  0  0  0
 49 53  1  0  0  0
 49 64  1  0  0  0
 49121  1  0  0  0
 50 51  1  0  0  0
 50122  1  0  0  0
 50123  1  0  0  0
 51 52  1  0  0  0
 51124  1  0  0  0
 51125  1  0  0  0
 52126  1  0  0  0
 52127  1  0  0  0
 53 54  1  0  0  0
 54 55  2  0  0  0
 54128  1  0  0  0
 55 57  1  0  0  0
 55129  1  0  0  0
 56 69  2  0  0  0
 57 58  2  0  0  0
 57130  1  0  0  0
 58131  1  0  0  0
 59 60  1  0  0  0
 59 61  1  0  0  0
 59 62  1  0  0  0
 60132  1  0  0  0
 60133  1  0  0  0
 60134  1  0  0  0
 61135  1  0  0  0
 61136  1  0  0  0
 61137  1  0  0  0
 62138  1  0  0  0
 62139  1  0  0  0
 62140  1  0  0  0
 63 65  1  0  0  0
 63141  1  0  0  0
 63142  1  0  0  0
 63143  1  0  0  0
 64144  1  0  0  0
 65145  1  0  0  0
 68 80  1  0  0  0
 71 74  2  0  0  0
 71 75  1  0  0  0
 71146  1  0  0  0
 72 74  1  0  0  0
 72 76  2  0  0  0
 72147  1  0  0  0
 73 75  2  0  0  0
 73 76  1  0  0  0
 73 77  1  0  0  0
 74 82  1  0  0  0
 75 81  1  0  0  0
 76 86  1  0  0  0
 77 83  1  0  0  0
 77 84  2  0  0  0
 78 80  1  0  0  0
 78 82  1  0  0  0
 78 85  2  0  0  0
 79148  1  0  0  0
 79149  1  0  0  0
 79150  1  0  0  0
 79 80  1  0  0  0
 80151  1  0  0  0
 81152  1  0  0  0
 81153  1  0  0  0
 82154  1  0  0  0
 83155  1  0  0  0
M  ISO  4   1 100  68 101  80 101  83 100
M  END
> <chiral flag>
0

> <version>
0

> <s_m_source_file>
/data/baiqing/PycharmProjects/Reinvent-master-3.2/result/LINK_invent/BTK/process_docking_weight1_custom_product_contain_oxygen_bond_distance_aromatic_linkinvent_7_9_3/rearranged_h_0092.sdf

> <i_m_source_file_index>
91

> <r_mmod_Potential_Energy-OPLS-2005>
205.933349609375

> <r_mmod_Stretch_Energy-OPLS-2005>
88.3572158813477

> <r_mmod_Bend_Energy-OPLS-2005>
159.044738769531

> <r_mmod_Torsional_Energy-OPLS-2005>
265.495330810547

> <r_mmod_Improper_Torsional_Energy-OPLS-2005>
9.42905139923096

> <r_mmod_Van_der_Waal_Energy-OPLS-2005>
152.270462036133

> <r_mmod_Electrostatic_Energy-OPLS-2005>
-264.310333251953

> <r_mmod_Solvation_Energy-OPLS-2005>
-265.381958007812

> <b_mmod_Minimization_Converged-OPLS-2005>
0

> <r_mmod_RMS_Derivative-OPLS-2005>
0.738159596920013

$$$$
91
                    3D
 Structure written by MMmdl.
156165  0  0  1  0            999 V2000
  -30.7438  -14.5483   20.3852 C   0  0  0  0  0  0
  -30.4090  -12.3087   19.4377 C   0  0  0  0  0  0
  -29.4958  -12.4637   18.2050 C   0  0  0  0  0  0
  -28.0103  -12.3501   18.6115 C   0  0  0  0  0  0
  -27.6446  -13.2255   19.8434 C   0  0  2  0  0  0
  -28.7075  -13.1456   20.9652 C   0  0  0  0  0  0
  -25.2586  -13.8153   20.5759 C   0  0  0  0  0  0
  -24.1839  -13.0425   20.9272 C   0  0  0  0  0  0
  -24.6438  -11.6911   20.8817 C   0  0  0  0  0  0
  -23.9149  -10.4292   21.0446 C   0  0  0  0  0  0
  -24.3689   -9.4172   21.9196 C   0  0  0  0  0  0
  -23.6341   -8.2213   22.0735 C   0  0  0  0  0  0
  -22.4308   -8.0308   21.3548 C   0  0  0  0  0  0
  -21.9982   -9.0313   20.4658 C   0  0  0  0  0  0
  -22.7355  -10.2157   20.3085 C   0  0  0  0  0  0
  -21.6815   -6.0766   22.5309 C   0  0  0  0  0  0
  -21.3983   -6.5643   23.8259 C   0  0  0  0  0  0
  -21.3653   -5.6775   24.9191 C   0  0  0  0  0  0
  -21.6071   -4.3056   24.7220 C   0  0  0  0  0  0
  -21.8815   -3.8163   23.4328 C   0  0  0  0  0  0
  -21.9171   -4.6990   22.3389 C   0  0  0  0  0  0
  -22.7866  -13.5238   21.1933 C   0  0  0  0  0  0
  -22.1670   -4.2198   21.0967 F   0  0  0  0  0  0
  -21.5620   -3.4548   25.7721 F   0  0  0  0  0  0
  -30.0375  -13.3780   20.3783 N   0  0  0  0  0  0
  -26.2999  -12.9356   20.3332 N   0  0  0  0  0  0
  -25.9376  -11.6510   20.5848 N   0  0  0  0  0  0
  -22.0478  -12.8205   22.0452 N   0  0  0  0  0  0
  -25.4274  -15.1867   20.4211 N   0  0  0  0  0  0
  -31.9699  -14.5588   20.2927 O   0  0  0  0  0  0
  -21.6605   -6.8949   21.4294 O   0  0  0  0  0  0
  -22.3590  -14.5538   20.6764 O   0  0  0  0  0  0
  -24.6197  -31.8639   23.2099 C   0  0  0  0  0  0
  -25.9047  -32.4836   23.8423 C   0  0  1  0  0  0
  -27.2446  -27.3734   20.1033 C   0  0  0  0  0  0
  -25.5853  -33.8628   24.2338 N   0  0  0  0  0  0
  -23.4150  -30.4854   21.5494 C   0  0  2  0  0  0
  -24.8658  -28.9573   20.1076 C   0  0  0  0  0  0
  -22.7468  -29.4598   22.4962 C   0  0  0  0  0  0
  -18.0279  -28.1392   22.8475 C   0  0  0  0  0  0
  -24.1473  -36.7293   23.2642 C   0  0  0  0  0  0
  -25.9497  -30.8159   21.3755 C   0  0  0  0  0  0
  -26.0312  -29.4483   20.7098 C   0  0  0  0  0  0
  -27.2246  -28.6707   20.6906 C   0  0  0  0  0  0
  -26.0540  -26.9317   19.4775 C   0  0  0  0  0  0
  -24.8797  -27.7066   19.4736 C   0  0  0  0  0  0
  -23.6287  -29.8250   20.1627 C   0  0  0  0  0  0
  -25.4095  -36.3118   24.0352 C   0  0  1  0  0  0
  -20.5867  -28.3656   23.1301 C   0  0  2  0  0  0
  -20.6753  -26.9386   22.5402 C   0  0  0  0  0  0
  -19.5754  -26.6377   21.5186 C   0  0  0  0  0  0
  -18.1937  -26.7924   22.1606 C   0  0  0  0  0  0
  -19.1529  -28.8845   23.2887 C   0  0  0  0  0  0
  -18.9446  -30.1444   23.8908 C   0  0  0  0  0  0
  -17.6448  -30.6585   24.0547 C   0  0  0  0  0  0
  -25.9023  -34.9480   23.5160 C   0  0  0  0  0  0
  -16.5340  -29.9073   23.6343 C   0  0  0  0  0  0
  -16.7259  -28.6495   23.0355 C   0  0  0  0  0  0
  -26.4461  -31.6616   25.0762 C   0  0  0  0  0  0
  -25.3714  -31.3658   26.1502 C   0  0  0  0  0  0
  -27.0272  -30.3071   24.6124 C   0  0  0  0  0  0
  -27.6087  -32.4302   25.7477 C   0  0  0  0  0  0
  -27.5573  -37.1800   24.8466 C   0  0  0  0  0  0
  -21.4175  -29.3007   22.3693 N   0  0  0  0  0  0
  -26.4287  -37.3797   23.9426 N   0  0  0  0  0  0
  -24.6791  -31.0680   22.1037 N   0  0  0  0  0  0
  -23.4217  -28.8150   23.3040 O   0  0  0  0  0  0
  -28.3812  -26.5574   20.1571 O   0  0  0  0  0  0
  -26.5598  -34.8901   22.4735 O   0  0  0  0  0  0
  -23.5371  -32.1379   23.7458 O   0  0  0  0  0  0
  -30.1119  -19.5633   20.1327 C   0  0  0  0  0  0
  -29.3066  -18.1913   18.2878 C   0  0  0  0  0  0
  -28.9699  -20.6022   18.2749 C   0  0  0  0  0  0
  -29.9698  -18.2734   19.5363 C   0  0  0  0  0  0
  -29.6152  -20.7673   19.5339 C   0  0  0  0  0  0
  -28.8311  -19.3482   17.6403 C   0  0  0  0  0  0
  -28.7636  -22.7310   20.9431 C   0  0  0  0  0  0
  -30.5270  -17.0196   20.1449 C   0  0  0  0  0  0
  -30.0038  -15.7687   20.0259 C   0  0  0  0  0  0
  -30.0535  -23.2561   19.4033 C   0  0  0  0  0  0
  -29.3065  -24.1178   20.4624 C   0  0  1  0  0  0
  -28.1657  -25.1119   20.0518 C   0  0  0  0  0  0
  -29.7083  -22.0552   20.1834 N   0  0  0  0  0  0
  -28.2147  -19.2497   16.3818 N   0  0  0  0  0  0
  -27.8132  -22.3090   21.5769 O   0  0  0  0  0  0
  -31.4611  -12.3556   19.1472 H   0  0  0  0  0  0
  -30.2543  -11.3291   19.8983 H   0  0  0  0  0  0
  -29.7414  -11.7108   17.4538 H   0  0  0  0  0  0
  -29.6726  -13.4261   17.7208 H   0  0  0  0  0  0
  -27.8092  -11.2979   18.8288 H   0  0  0  0  0  0
  -27.3733  -12.6215   17.7638 H   0  0  0  0  0  0
  -27.6176  -14.2420   19.4596 H   0  0  0  0  0  0
  -28.6892  -12.1674   21.4504 H   0  0  0  0  0  0
  -28.4975  -13.8810   21.7437 H   0  0  0  0  0  0
  -25.2839   -9.5553   22.4797 H   0  0  0  0  0  0
  -24.0016   -7.4533   22.7379 H   0  0  0  0  0  0
  -21.0945   -8.8969   19.8902 H   0  0  0  0  0  0
  -22.3965  -10.9750   19.6211 H   0  0  0  0  0  0
  -21.2003   -7.6149   23.9783 H   0  0  0  0  0  0
  -21.1479   -6.0484   25.9093 H   0  0  0  0  0  0
  -22.0592   -2.7640   23.2816 H   0  0  0  0  0  0
  -22.4125  -11.9935   22.4903 H   0  0  0  0  0  0
  -21.1102  -13.1243   22.2580 H   0  0  0  0  0  0
  -24.6660  -15.8425   20.5475 H   0  0  0  0  0  0
  -26.2865  -15.6368   20.1319 H   0  0  0  0  0  0
  -26.7107  -32.5544   23.1168 H   0  0  0  0  0  0
  -24.9961  -33.9801   25.0464 H   0  0  0  0  0  0
  -22.7029  -31.3011   21.4134 H   0  0  0  0  0  0
  -23.3756  -35.9603   23.3316 H   0  0  0  0  0  0
  -24.3545  -36.8905   22.2046 H   0  0  0  0  0  0
  -23.7191  -37.6491   23.6646 H   0  0  0  0  0  0
  -26.0718  -31.5889   20.6156 H   0  0  0  0  0  0
  -26.8346  -30.8638   21.9999 H   0  0  0  0  0  0
  -28.1230  -29.0525   21.1566 H   0  0  0  0  0  0
  -26.0092  -25.9749   18.9838 H   0  0  0  0  0  0
  -23.9953  -27.3379   18.9721 H   0  0  0  0  0  0
  -23.7324  -30.6056   19.4096 H   0  0  0  0  0  0
  -22.7556  -29.2422   19.8667 H   0  0  0  0  0  0
  -25.1270  -36.1987   25.0848 H   0  0  0  0  0  0
  -20.9931  -28.3207   24.1436 H   0  0  0  0  0  0
  -20.5633  -26.2252   23.3580 H   0  0  0  0  0  0
  -21.6635  -26.7425   22.1211 H   0  0  0  0  0  0
  -19.6903  -25.6286   21.1247 H   0  0  0  0  0  0
  -19.6717  -27.3173   20.6705 H   0  0  0  0  0  0
  -17.4179  -26.6638   21.4036 H   0  0  0  0  0  0
  -18.0380  -26.0090   22.9039 H   0  0  0  0  0  0
  -19.7904  -30.7267   24.2308 H   0  0  0  0  0  0
  -17.4988  -31.6274   24.5118 H   0  0  0  0  0  0
  -15.5352  -30.2971   23.7663 H   0  0  0  0  0  0
  -15.8639  -28.0809   22.7097 H   0  0  0  0  0  0
  -24.5922  -30.6988   25.7793 H   0  0  0  0  0  0
  -24.8860  -32.2767   26.5014 H   0  0  0  0  0  0
  -25.8079  -30.8768   27.0227 H   0  0  0  0  0  0
  -26.2789  -29.6858   24.1198 H   0  0  0  0  0  0
  -27.4055  -29.7293   25.4567 H   0  0  0  0  0  0
  -27.8634  -30.4410   23.9260 H   0  0  0  0  0  0
  -27.2812  -33.3640   26.2048 H   0  0  0  0  0  0
  -28.3868  -32.6789   25.0249 H   0  0  0  0  0  0
  -28.0769  -31.8411   26.5369 H   0  0  0  0  0  0
  -28.2607  -38.0086   24.7537 H   0  0  0  0  0  0
  -28.1061  -36.2631   24.6276 H   0  0  0  0  0  0
  -27.2294  -37.1421   25.8868 H   0  0  0  0  0  0
  -20.9336  -29.8709   21.6887 H   0  0  0  0  0  0
  -26.0186  -38.2880   24.1466 H   0  0  0  0  0  0
  -30.6273  -19.6134   21.0846 H   0  0  0  0  0  0
  -29.2008  -17.2352   17.7955 H   0  0  0  0  0  0
  -28.5341  -21.4617   17.7815 H   0  0  0  0  0  0
  -31.4829  -17.1275   20.6450 H   0  0  0  0  0  0
  -29.0465  -15.6708   19.5527 H   0  0  0  0  0  0
  -31.1299  -23.4574   19.3651 H   0  0  0  0  0  0
  -29.6119  -23.3240   18.4066 H   0  0  0  0  0  0
  -29.9864  -24.5436   21.2068 H   0  0  0  0  0  0
  -27.2805  -24.8661   20.6415 H   0  0  0  0  0  0
  -27.8982  -24.8974   19.0217 H   0  0  0  0  0  0
  -28.3741  -18.4122   15.8253 H   0  0  0  0  0  0
  -28.1769  -20.0693   15.7849 H   0  0  0  0  0  0
  1 25  1  0  0  0
  1 30  2  0  0  0
  1 79  1  0  0  0
  2  3  1  0  0  0
  2 25  1  0  0  0
  2 86  1  0  0  0
  2 87  1  0  0  0
  3  4  1  0  0  0
  3 88  1  0  0  0
  3 89  1  0  0  0
  4  5  1  0  0  0
  4 90  1  0  0  0
  4 91  1  0  0  0
  5  6  1  0  0  0
  5 26  1  0  0  0
  5 92  1  0  0  0
  6 25  1  0  0  0
  6 93  1  0  0  0
  6 94  1  0  0  0
  7  8  2  0  0  0
  7 26  1  0  0  0
  7 29  1  0  0  0
  8  9  1  0  0  0
  8 22  1  0  0  0
  9 10  1  0  0  0
  9 27  2  0  0  0
 10 11  2  0  0  0
 10 15  1  0  0  0
 11 12  1  0  0  0
 11 95  1  0  0  0
 12 13  2  0  0  0
 12 96  1  0  0  0
 13 14  1  0  0  0
 13 31  1  0  0  0
 14 15  2  0  0  0
 14 97  1  0  0  0
 15 98  1  0  0  0
 16 17  2  0  0  0
 16 21  1  0  0  0
 16 31  1  0  0  0
 17 18  1  0  0  0
 17 99  1  0  0  0
 18 19  2  0  0  0
 18100  1  0  0  0
 19 20  1  0  0  0
 19 24  1  0  0  0
 20 21  2  0  0  0
 20101  1  0  0  0
 21 23  1  0  0  0
 22 28  1  0  0  0
 22 32  2  0  0  0
 26 27  1  0  0  0
 28102  1  0  0  0
 28103  1  0  0  0
 29104  1  0  0  0
 29105  1  0  0  0
 33 34  1  0  0  0
 33 66  1  0  0  0
 33 70  2  0  0  0
 34 36  1  0  0  0
 34 59  1  0  0  0
 34106  1  0  0  0
 35 44  2  0  0  0
 35 45  1  0  0  0
 35 68  1  0  0  0
 36 56  1  0  0  0
 36107  1  0  0  0
 37 39  1  0  0  0
 37 47  1  0  0  0
 37 66  1  0  0  0
 37108  1  0  0  0
 38 43  2  0  0  0
 38 46  1  0  0  0
 38 47  1  0  0  0
 39 64  1  0  0  0
 39 67  2  0  0  0
 40 52  1  0  0  0
 40 53  2  0  0  0
 40 58  1  0  0  0
 41109  1  0  0  0
 41110  1  0  0  0
 41111  1  0  0  0
 41 48  1  0  0  0
 42 43  1  0  0  0
 42 66  1  0  0  0
 42112  1  0  0  0
 42113  1  0  0  0
 43 44  1  0  0  0
 44114  1  0  0  0
 45 46  2  0  0  0
 45115  1  0  0  0
 46116  1  0  0  0
 47117  1  0  0  0
 47118  1  0  0  0
 48 56  1  0  0  0
 48 65  1  0  0  0
 48119  1  0  0  0
 49 50  1  0  0  0
 49 53  1  0  0  0
 49 64  1  0  0  0
 49120  1  0  0  0
 50 51  1  0  0  0
 50121  1  0  0  0
 50122  1  0  0  0
 51 52  1  0  0  0
 51123  1  0  0  0
 51124  1  0  0  0
 52125  1  0  0  0
 52126  1  0  0  0
 53 54  1  0  0  0
 54 55  2  0  0  0
 54127  1  0  0  0
 55 57  1  0  0  0
 55128  1  0  0  0
 56 69  2  0  0  0
 57 58  2  0  0  0
 57129  1  0  0  0
 58130  1  0  0  0
 59 60  1  0  0  0
 59 61  1  0  0  0
 59 62  1  0  0  0
 60131  1  0  0  0
 60132  1  0  0  0
 60133  1  0  0  0
 61134  1  0  0  0
 61135  1  0  0  0
 61136  1  0  0  0
 62137  1  0  0  0
 62138  1  0  0  0
 62139  1  0  0  0
 63 65  1  0  0  0
 63140  1  0  0  0
 63141  1  0  0  0
 63142  1  0  0  0
 64143  1  0  0  0
 65144  1  0  0  0
 68 82  1  0  0  0
 71 74  2  0  0  0
 71 75  1  0  0  0
 71145  1  0  0  0
 72 74  1  0  0  0
 72 76  2  0  0  0
 72146  1  0  0  0
 73 75  2  0  0  0
 73 76  1  0  0  0
 73147  1  0  0  0
 74 78  1  0  0  0
 75 83  1  0  0  0
 76 84  1  0  0  0
 77 81  1  0  0  0
 77 83  1  0  0  0
 77 85  2  0  0  0
 78 79  2  0  0  0
 78148  1  0  0  0
 79149  1  0  0  0
 80 81  1  0  0  0
 80 83  1  0  0  0
 80150  1  0  0  0
 80151  1  0  0  0
 81 82  1  0  0  0
 81152  1  0  0  0
 82153  1  0  0  0
 82154  1  0  0  0
 84155  1  0  0  0
 84156  1  0  0  0
M  ISO  4   1 100  68 101  79 100  82 101
M  END
> <chiral flag>
0

> <version>
0

> <s_m_source_file>
/data/baiqing/PycharmProjects/Reinvent-master-3.2/result/LINK_invent/BTK/process_docking_weight1_custom_product_contain_oxygen_bond_distance_aromatic_linkinvent_7_9_3/rearranged_h_0092.sdf

> <i_m_source_file_index>
92

> <r_mmod_Potential_Energy-OPLS-2005>
120.544898986816

> <r_mmod_Stretch_Energy-OPLS-2005>
57.6355438232422

> <r_mmod_Bend_Energy-OPLS-2005>
130.9609375

> <r_mmod_Torsional_Energy-OPLS-2005>
265.830108642578

> <r_mmod_Improper_Torsional_Energy-OPLS-2005>
24.7456760406494

> <r_mmod_Van_der_Waal_Energy-OPLS-2005>
149.385848999023

> <r_mmod_Electrostatic_Energy-OPLS-2005>
-328.260498046875

> <r_mmod_Solvation_Energy-OPLS-2005>
-226.262634277344

> <b_mmod_Minimization_Converged-OPLS-2005>
0

> <r_mmod_RMS_Derivative-OPLS-2005>
7.85013437271118

$$$$
92
                    3D
 Structure written by MMmdl.
155163  0  0  1  0            999 V2000
  -30.6375  -14.5936   20.4700 C   0  0  0  0  0  0
  -30.4358  -12.3554   19.4217 C   0  0  0  0  0  0
  -29.4874  -12.4635   18.2069 C   0  0  0  0  0  0
  -28.0256  -12.2795   18.6586 C   0  0  0  0  0  0
  -27.6545  -13.1929   19.8548 C   0  0  2  0  0  0
  -28.7103  -13.0689   20.9766 C   0  0  0  0  0  0
  -25.2632  -13.8184   20.5738 C   0  0  0  0  0  0
  -24.1824  -13.0455   20.9184 C   0  0  0  0  0  0
  -24.6369  -11.6919   20.8767 C   0  0  0  0  0  0
  -23.9044  -10.4301   21.0442 C   0  0  0  0  0  0
  -24.3604   -9.4214   21.9202 C   0  0  0  0  0  0
  -23.6281   -8.2254   22.0754 C   0  0  0  0  0  0
  -22.4257   -8.0304   21.3559 C   0  0  0  0  0  0
  -21.9925   -9.0263   20.4631 C   0  0  0  0  0  0
  -22.7263  -10.2139   20.3051 C   0  0  0  0  0  0
  -21.6834   -6.0738   22.5270 C   0  0  0  0  0  0
  -21.4010   -6.5632   23.8211 C   0  0  0  0  0  0
  -21.3654   -5.6785   24.9168 C   0  0  0  0  0  0
  -21.6048   -4.3050   24.7219 C   0  0  0  0  0  0
  -21.8824   -3.8142   23.4341 C   0  0  0  0  0  0
  -21.9195   -4.6959   22.3392 C   0  0  0  0  0  0
  -22.7862  -13.5263   21.1813 C   0  0  0  0  0  0
  -22.1655   -4.2155   21.0973 F   0  0  0  0  0  0
  -21.5632   -3.4534   25.7731 F   0  0  0  0  0  0
  -30.0176  -13.3842   20.3836 N   0  0  0  0  0  0
  -26.2993  -12.9273   20.3363 N   0  0  0  0  0  0
  -25.9298  -11.6462   20.5828 N   0  0  0  0  0  0
  -22.0509  -12.8216   22.0341 N   0  0  0  0  0  0
  -25.4446  -15.1899   20.4234 N   0  0  0  0  0  0
  -31.8329  -14.7486   20.1936 O   0  0  0  0  0  0
  -21.6627   -6.8894   21.4242 O   0  0  0  0  0  0
  -22.3562  -14.5605   20.6741 O   0  0  0  0  0  0
  -24.6178  -31.8594   23.2104 C   0  0  0  0  0  0
  -25.9083  -32.4787   23.8359 C   0  0  1  0  0  0
  -27.2249  -27.4035   20.0509 C   0  0  0  0  0  0
  -25.5994  -33.8591   24.2345 N   0  0  0  0  0  0
  -23.4074  -30.4794   21.5553 C   0  0  2  0  0  0
  -24.8583  -28.9682   20.0900 C   0  0  0  0  0  0
  -22.7495  -29.4518   22.5073 C   0  0  0  0  0  0
  -18.0232  -28.1246   22.8390 C   0  0  0  0  0  0
  -24.1505  -36.7277   23.2627 C   0  0  0  0  0  0
  -25.9442  -30.8215   21.3640 C   0  0  0  0  0  0
  -26.0274  -29.4644   20.6869 C   0  0  0  0  0  0
  -27.2256  -28.6956   20.6487 C   0  0  0  0  0  0
  -26.0364  -26.9445   19.4507 C   0  0  0  0  0  0
  -24.8682  -27.7212   19.4490 C   0  0  0  0  0  0
  -23.6117  -29.8210   20.1664 C   0  0  0  0  0  0
  -25.4123  -36.3091   24.0347 C   0  0  1  0  0  0
  -20.5839  -28.3523   23.1318 C   0  0  2  0  0  0
  -20.6739  -26.9278   22.5393 C   0  0  0  0  0  0
  -19.5757  -26.6282   21.5139 C   0  0  0  0  0  0
  -18.1894  -26.7767   22.1491 C   0  0  0  0  0  0
  -19.1500  -28.8710   23.2783 C   0  0  0  0  0  0
  -18.9435  -30.1290   23.8830 C   0  0  0  0  0  0
  -17.6474  -30.6494   24.0476 C   0  0  0  0  0  0
  -25.9064  -34.9453   23.5119 C   0  0  0  0  0  0
  -16.5348  -29.8983   23.6317 C   0  0  0  0  0  0
  -16.7232  -28.6384   23.0312 C   0  0  0  0  0  0
  -26.4543  -31.6547   25.0667 C   0  0  0  0  0  0
  -25.3805  -31.3639   26.1401 C   0  0  0  0  0  0
  -27.0373  -30.3007   24.5945 C   0  0  0  0  0  0
  -27.6108  -32.4268   25.7474 C   0  0  0  0  0  0
  -27.5590  -37.1778   24.8460 C   0  0  0  0  0  0
  -21.4223  -29.2915   22.3828 N   0  0  0  0  0  0
  -26.4318  -37.3785   23.9404 N   0  0  0  0  0  0
  -24.6758  -31.0633   22.1048 N   0  0  0  0  0  0
  -23.4287  -28.8052   23.3090 O   0  0  0  0  0  0
  -28.2717  -26.4942   20.1133 O   0  0  0  0  0  0
  -26.5542  -34.8918   22.4632 O   0  0  0  0  0  0
  -23.5365  -32.1398   23.7483 O   0  0  0  0  0  0
  -30.6451  -18.5992   22.6911 C   0  0  0  0  0  0
  -30.1657  -19.6819   21.9223 C   0  0  0  0  0  0
  -30.6007  -17.2802   22.1957 C   0  0  0  0  0  0
  -29.6415  -19.4732   20.6218 C   0  0  0  0  0  0
  -30.0273  -17.0164   20.9357 C   0  0  0  0  0  0
  -29.5612  -18.1184   20.1540 C   0  0  0  0  0  0
  -28.1291  -24.0965   20.9593 C   0  0  0  0  0  0
  -27.9887  -25.4590   20.9957 C   0  0  0  0  0  0
  -28.7060  -23.1560   19.9761 C   0  0  0  0  0  0
  -27.1739  -21.3732   20.8570 C   0  0  0  0  0  0
  -29.2773  -20.6940   19.7123 C   0  0  0  0  0  0
  -29.7854  -15.6517   20.5363 N   0  0  0  0  0  0
  -28.4507  -21.8225   20.2539 N   0  0  0  0  0  0
  -29.4576  -23.5005   19.0503 O   0  0  0  0  0  0
  -29.0216  -17.8663   18.9362 F   0  0  0  0  0  0
  -31.4745  -12.4751   19.1083 H   0  0  0  0  0  0
  -30.3599  -11.3687   19.8837 H   0  0  0  0  0  0
  -29.7469  -11.7066   17.4667 H   0  0  0  0  0  0
  -29.5978  -13.4287   17.7083 H   0  0  0  0  0  0
  -27.9192  -11.2374   18.9610 H   0  0  0  0  0  0
  -27.3346  -12.4215   17.8239 H   0  0  0  0  0  0
  -27.6621  -14.2129   19.4718 H   0  0  0  0  0  0
  -28.7252  -12.0587   21.3853 H   0  0  0  0  0  0
  -28.4787  -13.7346   21.8107 H   0  0  0  0  0  0
  -25.2760   -9.5669   22.4764 H   0  0  0  0  0  0
  -23.9974   -7.4648   22.7469 H   0  0  0  0  0  0
  -21.0879   -8.8801   19.8913 H   0  0  0  0  0  0
  -22.3777  -10.9666   19.6126 H   0  0  0  0  0  0
  -21.1995   -7.6141   23.9724 H   0  0  0  0  0  0
  -21.1468   -6.0505   25.9079 H   0  0  0  0  0  0
  -22.0611   -2.7604   23.2838 H   0  0  0  0  0  0
  -22.4099  -11.9822   22.4605 H   0  0  0  0  0  0
  -21.1143  -13.1187   22.2599 H   0  0  0  0  0  0
  -24.7015  -15.8628   20.5724 H   0  0  0  0  0  0
  -26.3281  -15.6316   20.2008 H   0  0  0  0  0  0
  -26.7160  -32.5542   23.1122 H   0  0  0  0  0  0
  -25.0346  -33.9784   25.0609 H   0  0  0  0  0  0
  -22.6890  -31.2915   21.4254 H   0  0  0  0  0  0
  -23.3808  -35.9578   23.3300 H   0  0  0  0  0  0
  -24.3632  -36.8884   22.2042 H   0  0  0  0  0  0
  -23.7223  -37.6466   23.6636 H   0  0  0  0  0  0
  -26.0486  -31.6151   20.6216 H   0  0  0  0  0  0
  -26.8373  -30.8738   21.9721 H   0  0  0  0  0  0
  -28.1320  -29.0749   21.0978 H   0  0  0  0  0  0
  -26.0166  -25.9586   19.0098 H   0  0  0  0  0  0
  -23.9787  -27.3494   18.9544 H   0  0  0  0  0  0
  -23.6812  -30.6003   19.4112 H   0  0  0  0  0  0
  -22.7471  -29.2156   19.8818 H   0  0  0  0  0  0
  -25.1284  -36.1967   25.0856 H   0  0  0  0  0  0
  -20.9734  -28.2990   24.1501 H   0  0  0  0  0  0
  -20.5548  -26.2105   23.3539 H   0  0  0  0  0  0
  -21.6618  -26.7280   22.1231 H   0  0  0  0  0  0
  -19.6980  -25.6211   21.1126 H   0  0  0  0  0  0
  -19.6754  -27.3098   20.6702 H   0  0  0  0  0  0
  -17.4180  -26.6485   21.3862 H   0  0  0  0  0  0
  -18.0284  -25.9878   22.8858 H   0  0  0  0  0  0
  -19.7942  -30.7003   24.2239 H   0  0  0  0  0  0
  -17.5063  -31.6215   24.4979 H   0  0  0  0  0  0
  -15.5334  -30.2836   23.7735 H   0  0  0  0  0  0
  -15.8587  -28.0705   22.7092 H   0  0  0  0  0  0
  -24.6200  -30.6691   25.7824 H   0  0  0  0  0  0
  -24.8723  -32.2736   26.4562 H   0  0  0  0  0  0
  -25.8204  -30.9138   27.0301 H   0  0  0  0  0  0
  -26.2857  -29.6753   24.1091 H   0  0  0  0  0  0
  -27.4335  -29.7210   25.4300 H   0  0  0  0  0  0
  -27.8635  -30.4373   23.8958 H   0  0  0  0  0  0
  -27.2724  -33.3610   26.1949 H   0  0  0  0  0  0
  -28.3991  -32.6728   25.0342 H   0  0  0  0  0  0
  -28.0680  -31.8414   26.5445 H   0  0  0  0  0  0
  -28.2556  -38.0104   24.7521 H   0  0  0  0  0  0
  -28.1127  -36.2629   24.6291 H   0  0  0  0  0  0
  -27.2299  -37.1442   25.8856 H   0  0  0  0  0  0
  -20.9415  -29.8826   21.7202 H   0  0  0  0  0  0
  -26.0204  -38.2863   24.1428 H   0  0  0  0  0  0
  -31.0635  -18.7739   23.6747 H   0  0  0  0  0  0
  -30.2490  -20.6806   22.3341 H   0  0  0  0  0  0
  -30.9618  -16.4724   22.8160 H   0  0  0  0  0  0
  -27.7443  -23.6315   21.8512 H   0  0  0  0  0  0
  -27.5260  -25.8784   21.8793 H   0  0  0  0  0  0
  -26.3148  -21.9805   20.5432 H   0  0  0  0  0  0
  -27.2135  -21.3973   21.9480 H   0  0  0  0  0  0
  -26.9182  -20.3518   20.5609 H   0  0  0  0  0  0
  -28.8106  -20.3493   18.7858 H   0  0  0  0  0  0
  -30.2452  -21.1123   19.4247 H   0  0  0  0  0  0
  -28.8167  -15.4359   20.3442 H   0  0  0  0  0  0
  1 25  1  0  0  0
  1 30  2  0  0  0
  1 82  1  0  0  0
  2  3  1  0  0  0
  2 25  1  0  0  0
  2 86  1  0  0  0
  2 87  1  0  0  0
  3  4  1  0  0  0
  3 88  1  0  0  0
  3 89  1  0  0  0
  4  5  1  0  0  0
  4 90  1  0  0  0
  4 91  1  0  0  0
  5  6  1  0  0  0
  5 26  1  0  0  0
  5 92  1  0  0  0
  6 25  1  0  0  0
  6 93  1  0  0  0
  6 94  1  0  0  0
  7  8  2  0  0  0
  7 26  1  0  0  0
  7 29  1  0  0  0
  8  9  1  0  0  0
  8 22  1  0  0  0
  9 10  1  0  0  0
  9 27  2  0  0  0
 10 11  2  0  0  0
 10 15  1  0  0  0
 11 12  1  0  0  0
 11 95  1  0  0  0
 12 13  2  0  0  0
 12 96  1  0  0  0
 13 14  1  0  0  0
 13 31  1  0  0  0
 14 15  2  0  0  0
 14 97  1  0  0  0
 15 98  1  0  0  0
 16 17  2  0  0  0
 16 21  1  0  0  0
 16 31  1  0  0  0
 17 18  1  0  0  0
 17 99  1  0  0  0
 18 19  2  0  0  0
 18100  1  0  0  0
 19 20  1  0  0  0
 19 24  1  0  0  0
 20 21  2  0  0  0
 20101  1  0  0  0
 21 23  1  0  0  0
 22 28  1  0  0  0
 22 32  2  0  0  0
 26 27  1  0  0  0
 28102  1  0  0  0
 28103  1  0  0  0
 29104  1  0  0  0
 29105  1  0  0  0
 33 34  1  0  0  0
 33 66  1  0  0  0
 33 70  2  0  0  0
 34 36  1  0  0  0
 34 59  1  0  0  0
 34106  1  0  0  0
 35 44  2  0  0  0
 35 45  1  0  0  0
 35 68  1  0  0  0
 36 56  1  0  0  0
 36107  1  0  0  0
 37 39  1  0  0  0
 37 47  1  0  0  0
 37 66  1  0  0  0
 37108  1  0  0  0
 38 43  2  0  0  0
 38 46  1  0  0  0
 38 47  1  0  0  0
 39 64  1  0  0  0
 39 67  2  0  0  0
 40 52  1  0  0  0
 40 53  2  0  0  0
 40 58  1  0  0  0
 41109  1  0  0  0
 41110  1  0  0  0
 41111  1  0  0  0
 41 48  1  0  0  0
 42 43  1  0  0  0
 42 66  1  0  0  0
 42112  1  0  0  0
 42113  1  0  0  0
 43 44  1  0  0  0
 44114  1  0  0  0
 45 46  2  0  0  0
 45115  1  0  0  0
 46116  1  0  0  0
 47117  1  0  0  0
 47118  1  0  0  0
 48 56  1  0  0  0
 48 65  1  0  0  0
 48119  1  0  0  0
 49 50  1  0  0  0
 49 53  1  0  0  0
 49 64  1  0  0  0
 49120  1  0  0  0
 50 51  1  0  0  0
 50121  1  0  0  0
 50122  1  0  0  0
 51 52  1  0  0  0
 51123  1  0  0  0
 51124  1  0  0  0
 52125  1  0  0  0
 52126  1  0  0  0
 53 54  1  0  0  0
 54 55  2  0  0  0
 54127  1  0  0  0
 55 57  1  0  0  0
 55128  1  0  0  0
 56 69  2  0  0  0
 57 58  2  0  0  0
 57129  1  0  0  0
 58130  1  0  0  0
 59 60  1  0  0  0
 59 61  1  0  0  0
 59 62  1  0  0  0
 60131  1  0  0  0
 60132  1  0  0  0
 60133  1  0  0  0
 61134  1  0  0  0
 61135  1  0  0  0
 61136  1  0  0  0
 62137  1  0  0  0
 62138  1  0  0  0
 62139  1  0  0  0
 63 65  1  0  0  0
 63140  1  0  0  0
 63141  1  0  0  0
 63142  1  0  0  0
 64143  1  0  0  0
 65144  1  0  0  0
 68 78  1  0  0  0
 71 72  2  0  0  0
 71 73  1  0  0  0
 71145  1  0  0  0
 72 74  1  0  0  0
 72146  1  0  0  0
 73 75  2  0  0  0
 73147  1  0  0  0
 74 76  2  0  0  0
 74 81  1  0  0  0
 75 76  1  0  0  0
 75 82  1  0  0  0
 76 85  1  0  0  0
 77 78  2  0  0  0
 77 79  1  0  0  0
 77148  1  0  0  0
 78149  1  0  0  0
 79 83  1  0  0  0
 79 84  2  0  0  0
 80 83  1  0  0  0
 80150  1  0  0  0
 80151  1  0  0  0
 80152  1  0  0  0
 81 83  1  0  0  0
 81153  1  0  0  0
 81154  1  0  0  0
 82155  1  0  0  0
M  ISO  4   1 100  68 101  78 101  82 100
M  END
> <chiral flag>
0

> <version>
0

> <s_m_source_file>
/data/baiqing/PycharmProjects/Reinvent-master-3.2/result/LINK_invent/BTK/process_docking_weight1_custom_product_contain_oxygen_bond_distance_aromatic_linkinvent_7_9_3/rearranged_h_0092.sdf

> <i_m_source_file_index>
93

> <r_mmod_Potential_Energy-OPLS-2005>
74.017822265625

> <r_mmod_Stretch_Energy-OPLS-2005>
62.6010208129883

> <r_mmod_Bend_Energy-OPLS-2005>
150.113708496094

> <r_mmod_Torsional_Energy-OPLS-2005>
281.729766845703

> <r_mmod_Improper_Torsional_Energy-OPLS-2005>
11.4858808517456

> <r_mmod_Van_der_Waal_Energy-OPLS-2005>
149.033493041992

> <r_mmod_Electrostatic_Energy-OPLS-2005>
-393.463043212891

> <r_mmod_Solvation_Energy-OPLS-2005>
-229.165374755859

> <b_mmod_Minimization_Converged-OPLS-2005>
0

> <r_mmod_RMS_Derivative-OPLS-2005>
8.87692642211914

$$$$
93
                    3D
 Structure written by MMmdl.
156164  0  0  1  0            999 V2000
  -30.6279  -14.7111   20.3763 C   0  0  0  0  0  0
  -30.4465  -12.3953   19.4868 C   0  0  0  0  0  0
  -29.5232  -12.3584   18.2477 C   0  0  0  0  0  0
  -28.0299  -12.2988   18.6448 C   0  0  0  0  0  0
  -27.6383  -13.2128   19.8413 C   0  0  2  0  0  0
  -28.6938  -13.1787   20.9658 C   0  0  0  0  0  0
  -25.2546  -13.8110   20.5780 C   0  0  0  0  0  0
  -24.1789  -13.0393   20.9228 C   0  0  0  0  0  0
  -24.6347  -11.6864   20.8762 C   0  0  0  0  0  0
  -23.9012  -10.4249   21.0406 C   0  0  0  0  0  0
  -24.3571   -9.4158   21.9179 C   0  0  0  0  0  0
  -23.6250   -8.2195   22.0753 C   0  0  0  0  0  0
  -22.4241   -8.0237   21.3531 C   0  0  0  0  0  0
  -21.9869   -9.0203   20.4633 C   0  0  0  0  0  0
  -22.7187  -10.2087   20.3044 C   0  0  0  0  0  0
  -21.6829   -6.0704   22.5274 C   0  0  0  0  0  0
  -21.4005   -6.5619   23.8200 C   0  0  0  0  0  0
  -21.3668   -5.6781   24.9169 C   0  0  0  0  0  0
  -21.6053   -4.3042   24.7235 C   0  0  0  0  0  0
  -21.8813   -3.8125   23.4358 C   0  0  0  0  0  0
  -21.9175   -4.6937   22.3403 C   0  0  0  0  0  0
  -22.7812  -13.5201   21.1891 C   0  0  0  0  0  0
  -22.1647   -4.2115   21.0985 F   0  0  0  0  0  0
  -21.5637   -3.4535   25.7753 F   0  0  0  0  0  0
  -29.9917  -13.4943   20.3584 N   0  0  0  0  0  0
  -26.2929  -12.9274   20.3306 N   0  0  0  0  0  0
  -25.9274  -11.6449   20.5792 N   0  0  0  0  0  0
  -22.0447  -12.8189   22.0436 N   0  0  0  0  0  0
  -25.4344  -15.1832   20.4317 N   0  0  0  0  0  0
  -31.8551  -14.7737   20.2554 O   0  0  0  0  0  0
  -21.6613   -6.8834   21.4221 O   0  0  0  0  0  0
  -22.3522  -14.5538   20.6775 O   0  0  0  0  0  0
  -24.6252  -31.8613   23.2039 C   0  0  0  0  0  0
  -25.9117  -32.4780   23.8356 C   0  0  1  0  0  0
  -27.2156  -27.3273   20.1071 C   0  0  0  0  0  0
  -25.5940  -33.8576   24.2283 N   0  0  0  0  0  0
  -23.4163  -30.4871   21.5469 C   0  0  2  0  0  0
  -24.8600  -28.9476   20.1060 C   0  0  0  0  0  0
  -22.7461  -29.4629   22.4928 C   0  0  0  0  0  0
  -18.0294  -28.1377   22.8487 C   0  0  0  0  0  0
  -24.1493  -36.7299   23.2632 C   0  0  0  0  0  0
  -25.9562  -30.7928   21.3744 C   0  0  0  0  0  0
  -26.0276  -29.4216   20.7159 C   0  0  0  0  0  0
  -27.2080  -28.6224   20.7096 C   0  0  0  0  0  0
  -26.0278  -26.9128   19.4588 C   0  0  0  0  0  0
  -24.8612  -27.6981   19.4702 C   0  0  0  0  0  0
  -23.6288  -29.8269   20.1591 C   0  0  0  0  0  0
  -25.4115  -36.3077   24.0322 C   0  0  1  0  0  0
  -20.5894  -28.3680   23.1280 C   0  0  2  0  0  0
  -20.6781  -26.9403   22.5405 C   0  0  0  0  0  0
  -19.5765  -26.6381   21.5204 C   0  0  0  0  0  0
  -18.1945  -26.7923   22.1617 C   0  0  0  0  0  0
  -19.1544  -28.8845   23.2882 C   0  0  0  0  0  0
  -18.9463  -30.1446   23.8900 C   0  0  0  0  0  0
  -17.6463  -30.6577   24.0562 C   0  0  0  0  0  0
  -25.9048  -34.9447   23.5099 C   0  0  0  0  0  0
  -16.5357  -29.9073   23.6325 C   0  0  0  0  0  0
  -16.7278  -28.6492   23.0343 C   0  0  0  0  0  0
  -26.4519  -31.6578   25.0715 C   0  0  0  0  0  0
  -25.3775  -31.3706   26.1457 C   0  0  0  0  0  0
  -27.0345  -30.3000   24.6140 C   0  0  0  0  0  0
  -27.6072  -32.4303   25.7492 C   0  0  0  0  0  0
  -27.5583  -37.1803   24.8457 C   0  0  0  0  0  0
  -21.4180  -29.3040   22.3679 N   0  0  0  0  0  0
  -26.4289  -37.3777   23.9411 N   0  0  0  0  0  0
  -24.6848  -31.0633   22.0987 N   0  0  0  0  0  0
  -23.4196  -28.8161   23.2993 O   0  0  0  0  0  0
  -28.3327  -26.4810   20.1741 O   0  0  0  0  0  0
  -26.5602  -34.8913   22.4657 O   0  0  0  0  0  0
  -23.5419  -32.1400   23.7380 O   0  0  0  0  0  0
  -30.7834  -18.1362   19.9684 C   0  0  0  0  0  0
  -30.5713  -19.5381   20.1266 C   0  0  0  0  0  0
  -28.7412  -17.6796   21.1609 C   0  0  0  0  0  0
  -29.8620  -17.1655   20.4551 C   0  0  0  0  0  0
  -29.4234  -20.0492   20.7858 C   0  0  0  0  0  0
  -28.5324  -19.0840   21.3320 C   0  0  0  0  0  0
  -29.1903  -22.5152   20.1096 C   0  0  0  0  0  0
  -29.7085  -15.8244   18.4752 C   0  0  0  0  0  0
  -29.1409  -24.0114   20.6188 C   0  0  0  0  0  0
  -28.1541  -25.0326   19.9125 C   0  0  0  0  0  0
  -27.3989  -19.5268   22.0162 N   0  0  0  0  0  0
  -29.2038  -21.4787   21.0031 N   0  0  0  0  0  0
  -29.8715  -15.7922   19.9405 N   0  0  0  0  0  0
  -29.2390  -22.3078   18.8955 O   0  0  0  0  0  0
  -31.4863  -12.5222   19.1760 H   0  0  0  0  0  0
  -30.4052  -11.4518   20.0309 H   0  0  0  0  0  0
  -29.7649  -11.4772   17.6530 H   0  0  0  0  0  0
  -29.7328  -13.1938   17.5848 H   0  0  0  0  0  0
  -27.8233  -11.2604   18.9052 H   0  0  0  0  0  0
  -27.4008  -12.5193   17.7825 H   0  0  0  0  0  0
  -27.6008  -14.2267   19.4563 H   0  0  0  0  0  0
  -28.7191  -12.2010   21.4498 H   0  0  0  0  0  0
  -28.4501  -13.9088   21.7403 H   0  0  0  0  0  0
  -25.2712   -9.5641   22.4749 H   0  0  0  0  0  0
  -23.9951   -7.4582   22.7474 H   0  0  0  0  0  0
  -21.0793   -8.8698   19.8958 H   0  0  0  0  0  0
  -22.3630  -10.9606   19.6140 H   0  0  0  0  0  0
  -21.2013   -7.6127   23.9698 H   0  0  0  0  0  0
  -21.1507   -6.0521   25.9070 H   0  0  0  0  0  0
  -22.0601   -2.7591   23.2869 H   0  0  0  0  0  0
  -22.4040  -11.9823   22.4798 H   0  0  0  0  0  0
  -21.1070  -13.1226   22.2650 H   0  0  0  0  0  0
  -24.6907  -15.8481   20.6115 H   0  0  0  0  0  0
  -26.2995  -15.6173   20.1378 H   0  0  0  0  0  0
  -26.7172  -32.5454   23.1094 H   0  0  0  0  0  0
  -25.0141  -33.9733   25.0460 H   0  0  0  0  0  0
  -22.7101  -31.3078   21.4077 H   0  0  0  0  0  0
  -23.3751  -35.9639   23.3286 H   0  0  0  0  0  0
  -24.3583  -36.8927   22.2049 H   0  0  0  0  0  0
  -23.7257  -37.6501   23.6659 H   0  0  0  0  0  0
  -26.0835  -31.5573   20.6062 H   0  0  0  0  0  0
  -26.8386  -30.8412   22.0003 H   0  0  0  0  0  0
  -28.1026  -28.9782   21.2025 H   0  0  0  0  0  0
  -25.9690  -25.9688   18.9373 H   0  0  0  0  0  0
  -23.9692  -27.3345   18.9786 H   0  0  0  0  0  0
  -23.7486  -30.6062   19.4054 H   0  0  0  0  0  0
  -22.7486  -29.2582   19.8549 H   0  0  0  0  0  0
  -25.1296  -36.1927   25.0814 H   0  0  0  0  0  0
  -20.9990  -28.3256   24.1399 H   0  0  0  0  0  0
  -20.5673  -26.2293   23.3604 H   0  0  0  0  0  0
  -21.6654  -26.7429   22.1212 H   0  0  0  0  0  0
  -19.6925  -25.6291   21.1234 H   0  0  0  0  0  0
  -19.6704  -27.3192   20.6737 H   0  0  0  0  0  0
  -17.4213  -26.6674   21.4012 H   0  0  0  0  0  0
  -18.0340  -26.0052   22.9002 H   0  0  0  0  0  0
  -19.7934  -30.7267   24.2265 H   0  0  0  0  0  0
  -17.5011  -31.6256   24.5170 H   0  0  0  0  0  0
  -15.5349  -30.2977   23.7638 H   0  0  0  0  0  0
  -15.8682  -28.0812   22.7046 H   0  0  0  0  0  0
  -24.5929  -30.7074   25.7799 H   0  0  0  0  0  0
  -24.9004  -32.2868   26.4929 H   0  0  0  0  0  0
  -25.8126  -30.8851   27.0200 H   0  0  0  0  0  0
  -26.2892  -29.6759   24.1189 H   0  0  0  0  0  0
  -27.4077  -29.7244   25.4621 H   0  0  0  0  0  0
  -27.8757  -30.4286   23.9325 H   0  0  0  0  0  0
  -27.2673  -33.3587   26.2097 H   0  0  0  0  0  0
  -28.3886  -32.6888   25.0333 H   0  0  0  0  0  0
  -28.0746  -31.8415   26.5398 H   0  0  0  0  0  0
  -28.2586  -38.0115   24.7509 H   0  0  0  0  0  0
  -28.1093  -36.2639   24.6268 H   0  0  0  0  0  0
  -27.2301  -37.1435   25.8860 H   0  0  0  0  0  0
  -20.9342  -29.8793   21.6928 H   0  0  0  0  0  0
  -26.0165  -38.2847   24.1427 H   0  0  0  0  0  0
  -31.6410  -17.8112   19.3953 H   0  0  0  0  0  0
  -31.2994  -20.2257   19.7221 H   0  0  0  0  0  0
  -27.9921  -16.9852   21.5136 H   0  0  0  0  0  0
  -29.0011  -15.0857   18.1210 H   0  0  0  0  0  0
  -30.6588  -15.6641   17.9617 H   0  0  0  0  0  0
  -29.3111  -16.7771   18.1204 H   0  0  0  0  0  0
  -30.1529  -24.3967   20.4971 H   0  0  0  0  0  0
  -28.9491  -24.0212   21.6919 H   0  0  0  0  0  0
  -27.1601  -24.7190   20.2320 H   0  0  0  0  0  0
  -28.1892  -24.8876   18.8313 H   0  0  0  0  0  0
  -26.6173  -18.8840   22.0822 H   0  0  0  0  0  0
  -27.0905  -20.4699   21.8099 H   0  0  0  0  0  0
  -28.9905  -21.7288   21.9590 H   0  0  0  0  0  0
  1 25  1  0  0  0
  1 30  2  0  0  0
  1 83  1  0  0  0
  2  3  1  0  0  0
  2 25  1  0  0  0
  2 85  1  0  0  0
  2 86  1  0  0  0
  3  4  1  0  0  0
  3 87  1  0  0  0
  3 88  1  0  0  0
  4  5  1  0  0  0
  4 89  1  0  0  0
  4 90  1  0  0  0
  5  6  1  0  0  0
  5 26  1  0  0  0
  5 91  1  0  0  0
  6 25  1  0  0  0
  6 92  1  0  0  0
  6 93  1  0  0  0
  7  8  2  0  0  0
  7 26  1  0  0  0
  7 29  1  0  0  0
  8  9  1  0  0  0
  8 22  1  0  0  0
  9 10  1  0  0  0
  9 27  2  0  0  0
 10 11  2  0  0  0
 10 15  1  0  0  0
 11 12  1  0  0  0
 11 94  1  0  0  0
 12 13  2  0  0  0
 12 95  1  0  0  0
 13 14  1  0  0  0
 13 31  1  0  0  0
 14 15  2  0  0  0
 14 96  1  0  0  0
 15 97  1  0  0  0
 16 17  2  0  0  0
 16 21  1  0  0  0
 16 31  1  0  0  0
 17 18  1  0  0  0
 17 98  1  0  0  0
 18 19  2  0  0  0
 18 99  1  0  0  0
 19 20  1  0  0  0
 19 24  1  0  0  0
 20 21  2  0  0  0
 20100  1  0  0  0
 21 23  1  0  0  0
 22 28  1  0  0  0
 22 32  2  0  0  0
 26 27  1  0  0  0
 28101  1  0  0  0
 28102  1  0  0  0
 29103  1  0  0  0
 29104  1  0  0  0
 33 34  1  0  0  0
 33 66  1  0  0  0
 33 70  2  0  0  0
 34 36  1  0  0  0
 34 59  1  0  0  0
 34105  1  0  0  0
 35 44  2  0  0  0
 35 45  1  0  0  0
 35 68  1  0  0  0
 36 56  1  0  0  0
 36106  1  0  0  0
 37 39  1  0  0  0
 37 47  1  0  0  0
 37 66  1  0  0  0
 37107  1  0  0  0
 38 43  2  0  0  0
 38 46  1  0  0  0
 38 47  1  0  0  0
 39 64  1  0  0  0
 39 67  2  0  0  0
 40 52  1  0  0  0
 40 53  2  0  0  0
 40 58  1  0  0  0
 41108  1  0  0  0
 41109  1  0  0  0
 41110  1  0  0  0
 41 48  1  0  0  0
 42 43  1  0  0  0
 42 66  1  0  0  0
 42111  1  0  0  0
 42112  1  0  0  0
 43 44  1  0  0  0
 44113  1  0  0  0
 45 46  2  0  0  0
 45114  1  0  0  0
 46115  1  0  0  0
 47116  1  0  0  0
 47117  1  0  0  0
 48 56  1  0  0  0
 48 65  1  0  0  0
 48118  1  0  0  0
 49 50  1  0  0  0
 49 53  1  0  0  0
 49 64  1  0  0  0
 49119  1  0  0  0
 50 51  1  0  0  0
 50120  1  0  0  0
 50121  1  0  0  0
 51 52  1  0  0  0
 51122  1  0  0  0
 51123  1  0  0  0
 52124  1  0  0  0
 52125  1  0  0  0
 53 54  1  0  0  0
 54 55  2  0  0  0
 54126  1  0  0  0
 55 57  1  0  0  0
 55127  1  0  0  0
 56 69  2  0  0  0
 57 58  2  0  0  0
 57128  1  0  0  0
 58129  1  0  0  0
 59 60  1  0  0  0
 59 61  1  0  0  0
 59 62  1  0  0  0
 60130  1  0  0  0
 60131  1  0  0  0
 60132  1  0  0  0
 61133  1  0  0  0
 61134  1  0  0  0
 61135  1  0  0  0
 62136  1  0  0  0
 62137  1  0  0  0
 62138  1  0  0  0
 63 65  1  0  0  0
 63139  1  0  0  0
 63140  1  0  0  0
 63141  1  0  0  0
 64142  1  0  0  0
 65143  1  0  0  0
 68 80  1  0  0  0
 71 72  2  0  0  0
 71 74  1  0  0  0
 71144  1  0  0  0
 72 75  1  0  0  0
 72145  1  0  0  0
 73 74  2  0  0  0
 73 76  1  0  0  0
 73146  1  0  0  0
 74 83  1  0  0  0
 75 76  2  0  0  0
 75 82  1  0  0  0
 76 81  1  0  0  0
 77 79  1  0  0  0
 77 82  1  0  0  0
 77 84  2  0  0  0
 78 83  1  0  0  0
 78147  1  0  0  0
 78148  1  0  0  0
 78149  1  0  0  0
 79 80  1  0  0  0
 79150  1  0  0  0
 79151  1  0  0  0
 80152  1  0  0  0
 80153  1  0  0  0
 81154  1  0  0  0
 81155  1  0  0  0
 82156  1  0  0  0
M  ISO  4   1 100  68 101  80 101  83 100
M  END
> <chiral flag>
0

> <version>
0

> <s_m_source_file>
/data/baiqing/PycharmProjects/Reinvent-master-3.2/result/LINK_invent/BTK/process_docking_weight1_custom_product_contain_oxygen_bond_distance_aromatic_linkinvent_7_9_3/rearranged_h_0092.sdf

> <i_m_source_file_index>
94

> <r_mmod_Potential_Energy-OPLS-2005>
201.076171875

> <r_mmod_Stretch_Energy-OPLS-2005>
79.7470245361328

> <r_mmod_Bend_Energy-OPLS-2005>
143.126098632812

> <r_mmod_Torsional_Energy-OPLS-2005>
362.214935302734

> <r_mmod_Improper_Torsional_Energy-OPLS-2005>
30.3530216217041

> <r_mmod_Van_der_Waal_Energy-OPLS-2005>
149.34016418457

> <r_mmod_Electrostatic_Energy-OPLS-2005>
-412.143707275391

> <r_mmod_Solvation_Energy-OPLS-2005>
-227.029586791992

> <b_mmod_Minimization_Converged-OPLS-2005>
0

> <r_mmod_RMS_Derivative-OPLS-2005>
2.26983618736267

$$$$
94
                    3D
 Structure written by MMmdl.
154162  0  0  1  0            999 V2000
  -30.7176  -14.4514   20.6220 C   0  0  0  0  0  0
  -30.4260  -12.3202   19.4028 C   0  0  0  0  0  0
  -29.4873  -12.5112   18.1953 C   0  0  0  0  0  0
  -28.0105  -12.3739   18.6150 C   0  0  0  0  0  0
  -27.6619  -13.2063   19.8772 C   0  0  2  0  0  0
  -28.7055  -12.9735   20.9921 C   0  0  0  0  0  0
  -25.2607  -13.8162   20.5692 C   0  0  0  0  0  0
  -24.1854  -13.0441   20.9172 C   0  0  0  0  0  0
  -24.6410  -11.6906   20.8751 C   0  0  0  0  0  0
  -23.9063  -10.4295   21.0410 C   0  0  0  0  0  0
  -24.3613   -9.4219   21.9198 C   0  0  0  0  0  0
  -23.6287   -8.2257   22.0769 C   0  0  0  0  0  0
  -22.4270   -8.0290   21.3551 C   0  0  0  0  0  0
  -21.9908   -9.0272   20.4654 C   0  0  0  0  0  0
  -22.7234  -10.2150   20.3065 C   0  0  0  0  0  0
  -21.6849   -6.0742   22.5285 C   0  0  0  0  0  0
  -21.4006   -6.5646   23.8218 C   0  0  0  0  0  0
  -21.3650   -5.6801   24.9177 C   0  0  0  0  0  0
  -21.6042   -4.3064   24.7232 C   0  0  0  0  0  0
  -21.8823   -3.8149   23.4353 C   0  0  0  0  0  0
  -21.9190   -4.6967   22.3404 C   0  0  0  0  0  0
  -22.7873  -13.5243   21.1830 C   0  0  0  0  0  0
  -22.1659   -4.2152   21.0984 F   0  0  0  0  0  0
  -21.5634   -3.4545   25.7742 F   0  0  0  0  0  0
  -30.0334  -13.2908   20.4367 N   0  0  0  0  0  0
  -26.3036  -12.9331   20.3381 N   0  0  0  0  0  0
  -25.9329  -11.6486   20.5767 N   0  0  0  0  0  0
  -22.0514  -12.8253   22.0397 N   0  0  0  0  0  0
  -25.4346  -15.1882   20.4101 N   0  0  0  0  0  0
  -31.8171  -14.6719   20.1076 O   0  0  0  0  0  0
  -21.6638   -6.8879   21.4241 O   0  0  0  0  0  0
  -22.3547  -14.5536   20.6660 O   0  0  0  0  0  0
  -24.6112  -31.8696   23.2119 C   0  0  0  0  0  0
  -25.9017  -32.4833   23.8413 C   0  0  1  0  0  0
  -27.2312  -27.4403   20.0974 C   0  0  0  0  0  0
  -25.5868  -33.8628   24.2329 N   0  0  0  0  0  0
  -23.4016  -30.4911   21.5520 C   0  0  2  0  0  0
  -24.8490  -28.9570   20.1159 C   0  0  0  0  0  0
  -22.7413  -29.4639   22.4991 C   0  0  0  0  0  0
  -18.0269  -28.1365   22.8487 C   0  0  0  0  0  0
  -24.1458  -36.7309   23.2655 C   0  0  0  0  0  0
  -25.9294  -30.8352   21.3660 C   0  0  0  0  0  0
  -26.0080  -29.4708   20.7125 C   0  0  0  0  0  0
  -27.2061  -28.7195   20.6984 C   0  0  0  0  0  0
  -26.0592  -26.9410   19.4920 C   0  0  0  0  0  0
  -24.8683  -27.6915   19.5031 C   0  0  0  0  0  0
  -23.6113  -29.8250   20.1656 C   0  0  0  0  0  0
  -25.4099  -36.3118   24.0335 C   0  0  1  0  0  0
  -20.5852  -28.3658   23.1324 C   0  0  2  0  0  0
  -20.6743  -26.9401   22.5433 C   0  0  0  0  0  0
  -19.5729  -26.6381   21.5210 C   0  0  0  0  0  0
  -18.1895  -26.7915   22.1613 C   0  0  0  0  0  0
  -19.1516  -28.8822   23.2898 C   0  0  0  0  0  0
  -18.9458  -30.1423   23.8930 C   0  0  0  0  0  0
  -17.6466  -30.6587   24.0564 C   0  0  0  0  0  0
  -25.9037  -34.9479   23.5140 C   0  0  0  0  0  0
  -16.5358  -29.9095   23.6317 C   0  0  0  0  0  0
  -16.7265  -28.6498   23.0363 C   0  0  0  0  0  0
  -26.4456  -31.6629   25.0744 C   0  0  0  0  0  0
  -25.3717  -31.3673   26.1466 C   0  0  0  0  0  0
  -27.0350  -30.3095   24.6118 C   0  0  0  0  0  0
  -27.5988  -32.4391   25.7534 C   0  0  0  0  0  0
  -27.5571  -37.1815   24.8478 C   0  0  0  0  0  0
  -21.4136  -29.3027   22.3741 N   0  0  0  0  0  0
  -26.4288  -37.3808   23.9410 N   0  0  0  0  0  0
  -24.6656  -31.0786   22.1019 N   0  0  0  0  0  0
  -23.4183  -28.8174   23.3035 O   0  0  0  0  0  0
  -28.3825  -26.6884   20.0971 O   0  0  0  0  0  0
  -26.5634  -34.8929   22.4727 O   0  0  0  0  0  0
  -23.5301  -32.1449   23.7500 O   0  0  0  0  0  0
  -30.7216  -18.3854   20.0548 C   0  0  0  0  0  0
  -30.3699  -19.6533   19.5415 C   0  0  0  0  0  0
  -28.8860  -20.0105   21.4321 C   0  0  0  0  0  0
  -30.1767  -17.9250   21.2733 C   0  0  0  0  0  0
  -29.4647  -20.4895   20.2322 C   0  0  0  0  0  0
  -29.2404  -18.7438   21.9496 C   0  0  0  0  0  0
  -28.7322  -24.2383   19.9189 C   0  0  0  0  0  0
  -30.6769  -16.6176   21.8973 C   0  0  0  0  0  0
  -28.6377  -22.8335   20.5526 C   0  0  0  0  0  0
  -28.2574  -25.4266   20.7793 C   0  0  0  0  0  0
  -29.1808  -21.7638   19.7037 N   0  0  0  0  0  0
  -30.0948  -15.3756   21.3728 N   0  0  0  0  0  0
  -29.1794  -24.3907   18.7752 O   0  0  0  0  0  0
  -28.6925  -18.3283   23.1184 F   0  0  0  0  0  0
  -31.4651  -12.4391   19.0896 H   0  0  0  0  0  0
  -30.3509  -11.3046   19.7950 H   0  0  0  0  0  0
  -29.7238  -11.7809   17.4211 H   0  0  0  0  0  0
  -29.6521  -13.4929   17.7490 H   0  0  0  0  0  0
  -27.8179  -11.3177   18.8044 H   0  0  0  0  0  0
  -27.3572  -12.6569   17.7886 H   0  0  0  0  0  0
  -27.7101  -14.2569   19.5899 H   0  0  0  0  0  0
  -28.6892  -11.9335   21.3218 H   0  0  0  0  0  0
  -28.4573  -13.5584   21.8791 H   0  0  0  0  0  0
  -25.2752   -9.5711   22.4786 H   0  0  0  0  0  0
  -24.0005   -7.4660   22.7496 H   0  0  0  0  0  0
  -21.0841   -8.8791   19.8956 H   0  0  0  0  0  0
  -22.3690  -10.9700   19.6188 H   0  0  0  0  0  0
  -21.2007   -7.6162   23.9716 H   0  0  0  0  0  0
  -21.1457   -6.0530   25.9080 H   0  0  0  0  0  0
  -22.0608   -2.7618   23.2852 H   0  0  0  0  0  0
  -22.4102  -11.9902   22.4786 H   0  0  0  0  0  0
  -21.1149  -13.1321   22.2628 H   0  0  0  0  0  0
  -24.6741  -15.8494   20.5247 H   0  0  0  0  0  0
  -26.2995  -15.6264   20.1178 H   0  0  0  0  0  0
  -26.7081  -32.5558   23.1177 H   0  0  0  0  0  0
  -24.9945  -33.9797   25.0421 H   0  0  0  0  0  0
  -22.6874  -31.3049   21.4139 H   0  0  0  0  0  0
  -23.3720  -35.9642   23.3326 H   0  0  0  0  0  0
  -24.3524  -36.8941   22.2072 H   0  0  0  0  0  0
  -23.7198  -37.6498   23.6697 H   0  0  0  0  0  0
  -26.0405  -31.6019   20.5973 H   0  0  0  0  0  0
  -26.8169  -30.8906   21.9846 H   0  0  0  0  0  0
  -28.1010  -29.1074   21.1632 H   0  0  0  0  0  0
  -26.0672  -25.9740   19.0076 H   0  0  0  0  0  0
  -23.9762  -27.2931   19.0384 H   0  0  0  0  0  0
  -23.7285  -30.6021   19.4096 H   0  0  0  0  0  0
  -22.7331  -29.2508   19.8667 H   0  0  0  0  0  0
  -25.1265  -36.2001   25.0826 H   0  0  0  0  0  0
  -20.9940  -28.3247   24.1445 H   0  0  0  0  0  0
  -20.5631  -26.2279   23.3616 H   0  0  0  0  0  0
  -21.6626  -26.7429   22.1262 H   0  0  0  0  0  0
  -19.6891  -25.6289   21.1258 H   0  0  0  0  0  0
  -19.6659  -27.3173   20.6719 H   0  0  0  0  0  0
  -17.4180  -26.6660   21.3995 H   0  0  0  0  0  0
  -18.0268  -26.0049   22.8991 H   0  0  0  0  0  0
  -19.7942  -30.7199   24.2339 H   0  0  0  0  0  0
  -17.5041  -31.6268   24.5165 H   0  0  0  0  0  0
  -15.5360  -30.3029   23.7604 H   0  0  0  0  0  0
  -15.8639  -28.0831   22.7091 H   0  0  0  0  0  0
  -24.5948  -30.6967   25.7786 H   0  0  0  0  0  0
  -24.8828  -32.2796   26.4898 H   0  0  0  0  0  0
  -25.8079  -30.8886   27.0242 H   0  0  0  0  0  0
  -26.2930  -29.6806   24.1194 H   0  0  0  0  0  0
  -27.4173  -29.7370   25.4578 H   0  0  0  0  0  0
  -27.8708  -30.4460   23.9250 H   0  0  0  0  0  0
  -27.2574  -33.3688   26.2108 H   0  0  0  0  0  0
  -28.3800  -32.6984   25.0379 H   0  0  0  0  0  0
  -28.0648  -31.8541   26.5474 H   0  0  0  0  0  0
  -28.2616  -38.0095   24.7555 H   0  0  0  0  0  0
  -28.1046  -36.2630   24.6306 H   0  0  0  0  0  0
  -27.2273  -37.1478   25.8878 H   0  0  0  0  0  0
  -20.9295  -29.8805   21.7007 H   0  0  0  0  0  0
  -26.0170  -38.2879   24.1443 H   0  0  0  0  0  0
  -31.4467  -17.7825   19.5251 H   0  0  0  0  0  0
  -30.8261  -19.9863   18.6194 H   0  0  0  0  0  0
  -28.1762  -20.6095   21.9841 H   0  0  0  0  0  0
  -30.4810  -16.6413   22.9703 H   0  0  0  0  0  0
  -31.7652  -16.5959   21.8144 H   0  0  0  0  0  0
  -27.5882  -22.6270   20.7680 H   0  0  0  0  0  0
  -29.1621  -22.8571   21.5099 H   0  0  0  0  0  0
  -28.8702  -25.4608   21.6798 H   0  0  0  0  0  0
  -27.2347  -25.2325   21.1065 H   0  0  0  0  0  0
  -29.6977  -22.0881   18.8880 H   0  0  0  0  0  0
  -29.1777  -15.1284   21.7126 H   0  0  0  0  0  0
  1 25  1  0  0  0
  1 30  2  0  0  0
  1 82  1  0  0  0
  2  3  1  0  0  0
  2 25  1  0  0  0
  2 85  1  0  0  0
  2 86  1  0  0  0
  3  4  1  0  0  0
  3 87  1  0  0  0
  3 88  1  0  0  0
  4  5  1  0  0  0
  4 89  1  0  0  0
  4 90  1  0  0  0
  5  6  1  0  0  0
  5 26  1  0  0  0
  5 91  1  0  0  0
  6 25  1  0  0  0
  6 92  1  0  0  0
  6 93  1  0  0  0
  7  8  2  0  0  0
  7 26  1  0  0  0
  7 29  1  0  0  0
  8  9  1  0  0  0
  8 22  1  0  0  0
  9 10  1  0  0  0
  9 27  2  0  0  0
 10 11  2  0  0  0
 10 15  1  0  0  0
 11 12  1  0  0  0
 11 94  1  0  0  0
 12 13  2  0  0  0
 12 95  1  0  0  0
 13 14  1  0  0  0
 13 31  1  0  0  0
 14 15  2  0  0  0
 14 96  1  0  0  0
 15 97  1  0  0  0
 16 17  2  0  0  0
 16 21  1  0  0  0
 16 31  1  0  0  0
 17 18  1  0  0  0
 17 98  1  0  0  0
 18 19  2  0  0  0
 18 99  1  0  0  0
 19 20  1  0  0  0
 19 24  1  0  0  0
 20 21  2  0  0  0
 20100  1  0  0  0
 21 23  1  0  0  0
 22 28  1  0  0  0
 22 32  2  0  0  0
 26 27  1  0  0  0
 28101  1  0  0  0
 28102  1  0  0  0
 29103  1  0  0  0
 29104  1  0  0  0
 33 34  1  0  0  0
 33 66  1  0  0  0
 33 70  2  0  0  0
 34 36  1  0  0  0
 34 59  1  0  0  0
 34105  1  0  0  0
 35 44  2  0  0  0
 35 45  1  0  0  0
 35 68  1  0  0  0
 36 56  1  0  0  0
 36106  1  0  0  0
 37 39  1  0  0  0
 37 47  1  0  0  0
 37 66  1  0  0  0
 37107  1  0  0  0
 38 43  2  0  0  0
 38 46  1  0  0  0
 38 47  1  0  0  0
 39 64  1  0  0  0
 39 67  2  0  0  0
 40 52  1  0  0  0
 40 53  2  0  0  0
 40 58  1  0  0  0
 41108  1  0  0  0
 41109  1  0  0  0
 41110  1  0  0  0
 41 48  1  0  0  0
 42 43  1  0  0  0
 42 66  1  0  0  0
 42111  1  0  0  0
 42112  1  0  0  0
 43 44  1  0  0  0
 44113  1  0  0  0
 45 46  2  0  0  0
 45114  1  0  0  0
 46115  1  0  0  0
 47116  1  0  0  0
 47117  1  0  0  0
 48 56  1  0  0  0
 48 65  1  0  0  0
 48118  1  0  0  0
 49 50  1  0  0  0
 49 53  1  0  0  0
 49 64  1  0  0  0
 49119  1  0  0  0
 50 51  1  0  0  0
 50120  1  0  0  0
 50121  1  0  0  0
 51 52  1  0  0  0
 51122  1  0  0  0
 51123  1  0  0  0
 52124  1  0  0  0
 52125  1  0  0  0
 53 54  1  0  0  0
 54 55  2  0  0  0
 54126  1  0  0  0
 55 57  1  0  0  0
 55127  1  0  0  0
 56 69  2  0  0  0
 57 58  2  0  0  0
 57128  1  0  0  0
 58129  1  0  0  0
 59 60  1  0  0  0
 59 61  1  0  0  0
 59 62  1  0  0  0
 60130  1  0  0  0
 60131  1  0  0  0
 60132  1  0  0  0
 61133  1  0  0  0
 61134  1  0  0  0
 61135  1  0  0  0
 62136  1  0  0  0
 62137  1  0  0  0
 62138  1  0  0  0
 63 65  1  0  0  0
 63139  1  0  0  0
 63140  1  0  0  0
 63141  1  0  0  0
 64142  1  0  0  0
 65143  1  0  0  0
 68 80  1  0  0  0
 71 72  2  0  0  0
 71 74  1  0  0  0
 71144  1  0  0  0
 72 75  1  0  0  0
 72145  1  0  0  0
 73 75  2  0  0  0
 73 76  1  0  0  0
 73146  1  0  0  0
 74 76  2  0  0  0
 74 78  1  0  0  0
 75 81  1  0  0  0
 76 84  1  0  0  0
 77 79  1  0  0  0
 77 80  1  0  0  0
 77 83  2  0  0  0
 78 82  1  0  0  0
 78147  1  0  0  0
 78148  1  0  0  0
 79 81  1  0  0  0
 79149  1  0  0  0
 79150  1  0  0  0
 80151  1  0  0  0
 80152  1  0  0  0
 81153  1  0  0  0
 82154  1  0  0  0
M  ISO  4   1 100  68 101  80 101  82 100
M  END
> <chiral flag>
0

> <version>
0

> <s_m_source_file>
/data/baiqing/PycharmProjects/Reinvent-master-3.2/result/LINK_invent/BTK/process_docking_weight1_custom_product_contain_oxygen_bond_distance_aromatic_linkinvent_7_9_3/rearranged_h_0092.sdf

> <i_m_source_file_index>
95

> <r_mmod_Potential_Energy-OPLS-2005>
-66.2934951782227

> <r_mmod_Stretch_Energy-OPLS-2005>
36.6823043823242

> <r_mmod_Bend_Energy-OPLS-2005>
96.3340682983398

> <r_mmod_Torsional_Energy-OPLS-2005>
210.37109375

> <r_mmod_Improper_Torsional_Energy-OPLS-2005>
3.87730360031128

> <r_mmod_Van_der_Waal_Energy-OPLS-2005>
150.372406005859

> <r_mmod_Electrostatic_Energy-OPLS-2005>
-343.213287353516

> <r_mmod_Solvation_Energy-OPLS-2005>
-231.441833496094

> <b_mmod_Minimization_Converged-OPLS-2005>
0

> <r_mmod_RMS_Derivative-OPLS-2005>
2.38762903213501

$$$$
95
                    3D
 Structure written by MMmdl.
155164  0  0  1  0            999 V2000
  -30.5965  -14.7661   20.4470 C   0  0  0  0  0  0
  -30.4555  -12.4846   19.4385 C   0  0  0  0  0  0
  -29.5009  -12.4858   18.2221 C   0  0  0  0  0  0
  -28.0316  -12.3240   18.6561 C   0  0  0  0  0  0
  -27.6451  -13.2232   19.8578 C   0  0  2  0  0  0
  -28.7057  -13.1500   20.9765 C   0  0  0  0  0  0
  -25.2565  -13.8140   20.5731 C   0  0  0  0  0  0
  -24.1847  -13.0404   20.9222 C   0  0  0  0  0  0
  -24.6424  -11.6872   20.8834 C   0  0  0  0  0  0
  -23.9091  -10.4277   21.0465 C   0  0  0  0  0  0
  -24.3627   -9.4173   21.9237 C   0  0  0  0  0  0
  -23.6290   -8.2207   22.0787 C   0  0  0  0  0  0
  -22.4287   -8.0272   21.3541 C   0  0  0  0  0  0
  -21.9932   -9.0259   20.4658 C   0  0  0  0  0  0
  -22.7277  -10.2121   20.3101 C   0  0  0  0  0  0
  -21.6841   -6.0770   22.5286 C   0  0  0  0  0  0
  -21.3993   -6.5662   23.8227 C   0  0  0  0  0  0
  -21.3642   -5.6801   24.9165 C   0  0  0  0  0  0
  -21.6012   -4.3081   24.7225 C   0  0  0  0  0  0
  -21.8808   -3.8194   23.4357 C   0  0  0  0  0  0
  -21.9180   -4.6999   22.3404 C   0  0  0  0  0  0
  -22.7874  -13.5224   21.1787 C   0  0  0  0  0  0
  -22.1659   -4.2197   21.0997 F   0  0  0  0  0  0
  -21.5618   -3.4546   25.7740 F   0  0  0  0  0  0
  -29.9847  -13.5315   20.3721 N   0  0  0  0  0  0
  -26.2998  -12.9318   20.3377 N   0  0  0  0  0  0
  -25.9393  -11.6495   20.5897 N   0  0  0  0  0  0
  -22.0480  -12.8264   22.0335 N   0  0  0  0  0  0
  -25.4203  -15.1888   20.4106 N   0  0  0  0  0  0
  -31.8280  -14.8244   20.3256 O   0  0  0  0  0  0
  -21.6606   -6.8911   21.4264 O   0  0  0  0  0  0
  -22.3572  -14.5515   20.6579 O   0  0  0  0  0  0
  -24.6249  -31.8563   23.1993 C   0  0  0  0  0  0
  -25.9095  -32.4783   23.8393 C   0  0  1  0  0  0
  -27.2035  -27.2846   20.1857 C   0  0  0  0  0  0
  -25.5882  -33.8588   24.2300 N   0  0  0  0  0  0
  -23.4252  -30.4807   21.5371 C   0  0  2  0  0  0
  -24.8789  -28.9275   20.1117 C   0  0  0  0  0  0
  -22.7487  -29.4663   22.4886 C   0  0  0  0  0  0
  -18.0282  -28.1363   22.8465 C   0  0  0  0  0  0
  -24.1478  -36.7291   23.2647 C   0  0  0  0  0  0
  -25.9639  -30.7840   21.3753 C   0  0  0  0  0  0
  -26.0440  -29.4075   20.7254 C   0  0  0  0  0  0
  -27.2208  -28.5983   20.7475 C   0  0  0  0  0  0
  -26.0306  -26.8628   19.5344 C   0  0  0  0  0  0
  -24.8752  -27.6608   19.5047 C   0  0  0  0  0  0
  -23.6484  -29.8110   20.1541 C   0  0  0  0  0  0
  -25.4109  -36.3091   24.0335 C   0  0  1  0  0  0
  -20.5912  -28.3705   23.1237 C   0  0  2  0  0  0
  -20.6782  -26.9441   22.5379 C   0  0  0  0  0  0
  -19.5759  -26.6393   21.5180 C   0  0  0  0  0  0
  -18.1940  -26.7911   22.1610 C   0  0  0  0  0  0
  -19.1541  -28.8847   23.2850 C   0  0  0  0  0  0
  -18.9472  -30.1440   23.8899 C   0  0  0  0  0  0
  -17.6478  -30.6574   24.0566 C   0  0  0  0  0  0
  -25.9022  -34.9466   23.5129 C   0  0  0  0  0  0
  -16.5370  -29.9076   23.6328 C   0  0  0  0  0  0
  -16.7278  -28.6489   23.0351 C   0  0  0  0  0  0
  -26.4504  -31.6587   25.0742 C   0  0  0  0  0  0
  -25.3733  -31.3698   26.1467 C   0  0  0  0  0  0
  -27.0353  -30.3001   24.6171 C   0  0  0  0  0  0
  -27.6069  -32.4330   25.7501 C   0  0  0  0  0  0
  -27.5572  -37.1836   24.8484 C   0  0  0  0  0  0
  -21.4188  -29.3057   22.3635 N   0  0  0  0  0  0
  -26.4312  -37.3776   23.9392 N   0  0  0  0  0  0
  -24.6922  -31.0603   22.0938 N   0  0  0  0  0  0
  -23.4206  -28.8202   23.2984 O   0  0  0  0  0  0
  -28.2664  -26.3742   20.2783 O   0  0  0  0  0  0
  -26.5620  -34.8944   22.4706 O   0  0  0  0  0  0
  -23.5426  -32.1394   23.7310 O   0  0  0  0  0  0
  -28.0993  -19.1474   20.9840 C   0  0  0  0  0  0
  -30.3887  -19.6096   20.6274 C   0  0  0  0  0  0
  -28.3599  -17.7353   20.9131 C   0  0  0  0  0  0
  -30.6664  -18.2051   20.5481 C   0  0  0  0  0  0
  -29.0788  -20.1727   20.7911 C   0  0  0  0  0  0
  -29.6579  -17.2070   20.6296 C   0  0  0  0  0  0
  -29.5353  -22.8082   20.5743 C   0  0  0  0  0  0
  -27.5660  -22.3821   20.7537 C   0  0  0  0  0  0
  -29.2455  -16.9525   17.8677 C   0  0  0  0  0  0
  -29.9036  -16.0282   18.6008 C   0  0  0  0  0  0
  -28.2764  -23.6548   20.1776 C   0  0  0  0  0  0
  -27.9614  -25.0438   20.9091 C   0  0  0  0  0  0
  -28.7624  -21.6241   20.7112 N   0  0  0  0  0  0
  -29.8485  -15.8675   20.0106 N   0  0  0  0  0  0
  -30.7313  -22.9999   20.6830 O   0  0  0  0  0  0
  -26.4293  -22.0835   21.0726 O   0  0  0  0  0  0
  -31.4731  -12.6725   19.0986 H   0  0  0  0  0  0
  -30.4793  -11.5097   19.9321 H   0  0  0  0  0  0
  -29.7714  -11.6977   17.5218 H   0  0  0  0  0  0
  -29.6115  -13.4234   17.6705 H   0  0  0  0  0  0
  -27.8778  -11.2811   18.9216 H   0  0  0  0  0  0
  -27.3585  -12.5250   17.8193 H   0  0  0  0  0  0
  -27.6361  -14.2471   19.4855 H   0  0  0  0  0  0
  -28.7698  -12.1327   21.3777 H   0  0  0  0  0  0
  -28.4533  -13.8003   21.8161 H   0  0  0  0  0  0
  -25.2768   -9.5610   22.4828 H   0  0  0  0  0  0
  -23.9943   -7.4618   22.7537 H   0  0  0  0  0  0
  -21.0838   -8.8818   19.9014 H   0  0  0  0  0  0
  -22.3755  -10.9676   19.6229 H   0  0  0  0  0  0
  -21.1983   -7.6175   23.9735 H   0  0  0  0  0  0
  -21.1462   -6.0540   25.9054 H   0  0  0  0  0  0
  -22.0615   -2.7663   23.2836 H   0  0  0  0  0  0
  -22.4019  -11.9892   22.4744 H   0  0  0  0  0  0
  -21.1124  -13.1364   22.2503 H   0  0  0  0  0  0
  -24.6466  -15.8309   20.5042 H   0  0  0  0  0  0
  -26.2546  -15.6180   20.0385 H   0  0  0  0  0  0
  -26.7170  -32.5449   23.1172 H   0  0  0  0  0  0
  -25.0058  -33.9780   25.0471 H   0  0  0  0  0  0
  -22.7185  -31.3017   21.3828 H   0  0  0  0  0  0
  -23.3736  -35.9639   23.3378 H   0  0  0  0  0  0
  -24.3584  -36.8822   22.2053 H   0  0  0  0  0  0
  -23.7267  -37.6530   23.6611 H   0  0  0  0  0  0
  -26.1014  -31.5437   20.6042 H   0  0  0  0  0  0
  -26.8502  -30.8441   21.9997 H   0  0  0  0  0  0
  -28.1096  -28.9529   21.2582 H   0  0  0  0  0  0
  -25.9950  -25.8754   19.0901 H   0  0  0  0  0  0
  -23.9803  -27.2770   19.0365 H   0  0  0  0  0  0
  -23.7833  -30.5816   19.3966 H   0  0  0  0  0  0
  -22.7689  -29.2411   19.8444 H   0  0  0  0  0  0
  -25.1311  -36.1982   25.0832 H   0  0  0  0  0  0
  -21.0006  -28.3269   24.1353 H   0  0  0  0  0  0
  -20.5648  -26.2331   23.3596 H   0  0  0  0  0  0
  -21.6649  -26.7431   22.1214 H   0  0  0  0  0  0
  -19.6948  -25.6305   21.1189 H   0  0  0  0  0  0
  -19.6664  -27.3222   20.6730 H   0  0  0  0  0  0
  -17.4210  -26.6626   21.4010 H   0  0  0  0  0  0
  -18.0352  -26.0051   22.9009 H   0  0  0  0  0  0
  -19.7958  -30.7209   24.2294 H   0  0  0  0  0  0
  -17.5050  -31.6264   24.5141 H   0  0  0  0  0  0
  -15.5374  -30.2994   23.7631 H   0  0  0  0  0  0
  -15.8672  -28.0801   22.7082 H   0  0  0  0  0  0
  -24.5973  -30.6942   25.7817 H   0  0  0  0  0  0
  -24.8835  -32.2825   26.4854 H   0  0  0  0  0  0
  -25.8095  -30.8952   27.0259 H   0  0  0  0  0  0
  -26.2892  -29.6748   24.1189 H   0  0  0  0  0  0
  -27.4056  -29.7275   25.4695 H   0  0  0  0  0  0
  -27.8786  -30.4332   23.9391 H   0  0  0  0  0  0
  -27.2687  -33.3655   26.2077 H   0  0  0  0  0  0
  -28.3886  -32.6849   25.0307 H   0  0  0  0  0  0
  -28.0724  -31.8424   26.5432 H   0  0  0  0  0  0
  -28.2660  -38.0060   24.7476 H   0  0  0  0  0  0
  -28.1018  -36.2608   24.6399 H   0  0  0  0  0  0
  -27.2295  -37.1577   25.8892 H   0  0  0  0  0  0
  -20.9352  -29.8799   21.6860 H   0  0  0  0  0  0
  -26.0197  -38.2860   24.1328 H   0  0  0  0  0  0
  -27.0726  -19.4423   21.1178 H   0  0  0  0  0  0
  -31.2250  -20.2729   20.4646 H   0  0  0  0  0  0
  -27.5112  -17.0665   20.9552 H   0  0  0  0  0  0
  -31.6695  -17.9047   20.2890 H   0  0  0  0  0  0
  -29.4132  -17.0294   16.8079 H   0  0  0  0  0  0
  -28.5372  -17.6521   18.2962 H   0  0  0  0  0  0
  -30.5953  -15.3566   18.0941 H   0  0  0  0  0  0
  -28.1191  -23.7255   19.0987 H   0  0  0  0  0  0
  -26.9054  -25.0397   21.1889 H   0  0  0  0  0  0
  -28.4604  -25.0415   21.8779 H   0  0  0  0  0  0
  1 25  1  0  0  0
  1 30  2  0  0  0
  1 84  1  0  0  0
  2  3  1  0  0  0
  2 25  1  0  0  0
  2 87  1  0  0  0
  2 88  1  0  0  0
  3  4  1  0  0  0
  3 89  1  0  0  0
  3 90  1  0  0  0
  4  5  1  0  0  0
  4 91  1  0  0  0
  4 92  1  0  0  0
  5  6  1  0  0  0
  5 26  1  0  0  0
  5 93  1  0  0  0
  6 25  1  0  0  0
  6 94  1  0  0  0
  6 95  1  0  0  0
  7  8  2  0  0  0
  7 26  1  0  0  0
  7 29  1  0  0  0
  8  9  1  0  0  0
  8 22  1  0  0  0
  9 10  1  0  0  0
  9 27  2  0  0  0
 10 11  2  0  0  0
 10 15  1  0  0  0
 11 12  1  0  0  0
 11 96  1  0  0  0
 12 13  2  0  0  0
 12 97  1  0  0  0
 13 14  1  0  0  0
 13 31  1  0  0  0
 14 15  2  0  0  0
 14 98  1  0  0  0
 15 99  1  0  0  0
 16 17  2  0  0  0
 16 21  1  0  0  0
 16 31  1  0  0  0
 17 18  1  0  0  0
 17100  1  0  0  0
 18 19  2  0  0  0
 18101  1  0  0  0
 19 20  1  0  0  0
 19 24  1  0  0  0
 20 21  2  0  0  0
 20102  1  0  0  0
 21 23  1  0  0  0
 22 28  1  0  0  0
 22 32  2  0  0  0
 26 27  1  0  0  0
 28103  1  0  0  0
 28104  1  0  0  0
 29105  1  0  0  0
 29106  1  0  0  0
 33 34  1  0  0  0
 33 66  1  0  0  0
 33 70  2  0  0  0
 34 36  1  0  0  0
 34 59  1  0  0  0
 34107  1  0  0  0
 35 44  2  0  0  0
 35 45  1  0  0  0
 35 68  1  0  0  0
 36 56  1  0  0  0
 36108  1  0  0  0
 37 39  1  0  0  0
 37 47  1  0  0  0
 37 66  1  0  0  0
 37109  1  0  0  0
 38 43  2  0  0  0
 38 46  1  0  0  0
 38 47  1  0  0  0
 39 64  1  0  0  0
 39 67  2  0  0  0
 40 52  1  0  0  0
 40 53  2  0  0  0
 40 58  1  0  0  0
 41110  1  0  0  0
 41111  1  0  0  0
 41112  1  0  0  0
 41 48  1  0  0  0
 42 43  1  0  0  0
 42 66  1  0  0  0
 42113  1  0  0  0
 42114  1  0  0  0
 43 44  1  0  0  0
 44115  1  0  0  0
 45 46  2  0  0  0
 45116  1  0  0  0
 46117  1  0  0  0
 47118  1  0  0  0
 47119  1  0  0  0
 48 56  1  0  0  0
 48 65  1  0  0  0
 48120  1  0  0  0
 49 50  1  0  0  0
 49 53  1  0  0  0
 49 64  1  0  0  0
 49121  1  0  0  0
 50 51  1  0  0  0
 50122  1  0  0  0
 50123  1  0  0  0
 51 52  1  0  0  0
 51124  1  0  0  0
 51125  1  0  0  0
 52126  1  0  0  0
 52127  1  0  0  0
 53 54  1  0  0  0
 54 55  2  0  0  0
 54128  1  0  0  0
 55 57  1  0  0  0
 55129  1  0  0  0
 56 69  2  0  0  0
 57 58  2  0  0  0
 57130  1  0  0  0
 58131  1  0  0  0
 59 60  1  0  0  0
 59 61  1  0  0  0
 59 62  1  0  0  0
 60132  1  0  0  0
 60133  1  0  0  0
 60134  1  0  0  0
 61135  1  0  0  0
 61136  1  0  0  0
 61137  1  0  0  0
 62138  1  0  0  0
 62139  1  0  0  0
 62140  1  0  0  0
 63 65  1  0  0  0
 63141  1  0  0  0
 63142  1  0  0  0
 63143  1  0  0  0
 64144  1  0  0  0
 65145  1  0  0  0
 68 82  1  0  0  0
 71 73  2  0  0  0
 71 75  1  0  0  0
 71146  1  0  0  0
 72 74  1  0  0  0
 72 75  2  0  0  0
 72147  1  0  0  0
 73 76  1  0  0  0
 73148  1  0  0  0
 74 76  2  0  0  0
 74149  1  0  0  0
 75 83  1  0  0  0
 76 84  1  0  0  0
 77 81  1  0  0  0
 77 83  1  0  0  0
 77 85  2  0  0  0
 78 81  1  0  0  0
 78 83  1  0  0  0
 78 86  2  0  0  0
 79 80  2  0  0  0
 79150  1  0  0  0
 79151  1  0  0  0
 80 84  1  0  0  0
 80152  1  0  0  0
 81 82  1  0  0  0
 81153  1  0  0  0
 82154  1  0  0  0
 82155  1  0  0  0
M  ISO  4   1 100  68 101  82 101  84 100
M  END
> <chiral flag>
0

> <version>
0

> <s_m_source_file>
/data/baiqing/PycharmProjects/Reinvent-master-3.2/result/LINK_invent/BTK/process_docking_weight1_custom_product_contain_oxygen_bond_distance_aromatic_linkinvent_7_9_3/rearranged_h_0092.sdf

> <i_m_source_file_index>
96

> <r_mmod_Potential_Energy-OPLS-2005>
329.749694824219

> <r_mmod_Stretch_Energy-OPLS-2005>
107.71248626709

> <r_mmod_Bend_Energy-OPLS-2005>
181.572052001953

> <r_mmod_Torsional_Energy-OPLS-2005>
357.786193847656

> <r_mmod_Improper_Torsional_Energy-OPLS-2005>
33.0424728393555

> <r_mmod_Van_der_Waal_Energy-OPLS-2005>
142.122955322266

> <r_mmod_Electrostatic_Energy-OPLS-2005>
-377.783660888672

> <r_mmod_Solvation_Energy-OPLS-2005>
-212.271392822266

> <b_mmod_Minimization_Converged-OPLS-2005>
0

> <r_mmod_RMS_Derivative-OPLS-2005>
11.5055046081543

$$$$
96
                    3D
 Structure written by MMmdl.
153161  0  0  1  0            999 V2000
  -30.5694  -14.7713   20.4648 C   0  0  0  0  0  0
  -30.4518  -12.4743   19.4656 C   0  0  0  0  0  0
  -29.5175  -12.5146   18.2339 C   0  0  0  0  0  0
  -28.0434  -12.3285   18.6488 C   0  0  0  0  0  0
  -27.6456  -13.2252   19.8505 C   0  0  2  0  0  0
  -28.6929  -13.1433   20.9833 C   0  0  0  0  0  0
  -25.2540  -13.8182   20.5684 C   0  0  0  0  0  0
  -24.1822  -13.0434   20.9194 C   0  0  0  0  0  0
  -24.6400  -11.6908   20.8733 C   0  0  0  0  0  0
  -23.9069  -10.4289   21.0402 C   0  0  0  0  0  0
  -24.3613   -9.4205   21.9182 C   0  0  0  0  0  0
  -23.6286   -8.2244   22.0756 C   0  0  0  0  0  0
  -22.4266   -8.0282   21.3548 C   0  0  0  0  0  0
  -21.9905   -9.0258   20.4653 C   0  0  0  0  0  0
  -22.7239  -10.2134   20.3055 C   0  0  0  0  0  0
  -21.6854   -6.0731   22.5276 C   0  0  0  0  0  0
  -21.4018   -6.5632   23.8210 C   0  0  0  0  0  0
  -21.3659   -5.6786   24.9174 C   0  0  0  0  0  0
  -21.6042   -4.3050   24.7224 C   0  0  0  0  0  0
  -21.8820   -3.8141   23.4345 C   0  0  0  0  0  0
  -21.9195   -4.6957   22.3401 C   0  0  0  0  0  0
  -22.7841  -13.5230   21.1847 C   0  0  0  0  0  0
  -22.1664   -4.2142   21.0981 F   0  0  0  0  0  0
  -21.5627   -3.4533   25.7739 F   0  0  0  0  0  0
  -29.9931  -13.5199   20.4072 N   0  0  0  0  0  0
  -26.2961  -12.9373   20.3264 N   0  0  0  0  0  0
  -25.9328  -11.6520   20.5722 N   0  0  0  0  0  0
  -22.0479  -12.8234   22.0406 N   0  0  0  0  0  0
  -25.4200  -15.1915   20.4125 N   0  0  0  0  0  0
  -31.7582  -14.9225   20.1646 O   0  0  0  0  0  0
  -21.6639   -6.8874   21.4238 O   0  0  0  0  0  0
  -22.3525  -14.5530   20.6685 O   0  0  0  0  0  0
  -24.6328  -31.8538   23.1978 C   0  0  0  0  0  0
  -25.9143  -32.4750   23.8333 C   0  0  1  0  0  0
  -27.2277  -27.2577   20.1369 C   0  0  0  0  0  0
  -25.5929  -33.8553   24.2250 N   0  0  0  0  0  0
  -23.4321  -30.4748   21.5407 C   0  0  2  0  0  0
  -24.8841  -28.9170   20.1157 C   0  0  0  0  0  0
  -22.7516  -29.4593   22.4912 C   0  0  0  0  0  0
  -18.0289  -28.1395   22.8483 C   0  0  0  0  0  0
  -24.1489  -36.7283   23.2640 C   0  0  0  0  0  0
  -25.9785  -30.7646   21.3807 C   0  0  0  0  0  0
  -26.0556  -29.3834   20.7298 C   0  0  0  0  0  0
  -27.2341  -28.5646   20.7336 C   0  0  0  0  0  0
  -26.0369  -26.8563   19.5024 C   0  0  0  0  0  0
  -24.8791  -27.6594   19.4916 C   0  0  0  0  0  0
  -23.6541  -29.8050   20.1588 C   0  0  0  0  0  0
  -25.4114  -36.3068   24.0325 C   0  0  1  0  0  0
  -20.5897  -28.3705   23.1264 C   0  0  2  0  0  0
  -20.6777  -26.9419   22.5412 C   0  0  0  0  0  0
  -19.5752  -26.6388   21.5215 C   0  0  0  0  0  0
  -18.1930  -26.7937   22.1624 C   0  0  0  0  0  0
  -19.1546  -28.8867   23.2867 C   0  0  0  0  0  0
  -18.9466  -30.1468   23.8889 C   0  0  0  0  0  0
  -17.6465  -30.6593   24.0564 C   0  0  0  0  0  0
  -25.9057  -34.9437   23.5090 C   0  0  0  0  0  0
  -16.5354  -29.9091   23.6334 C   0  0  0  0  0  0
  -16.7276  -28.6510   23.0351 C   0  0  0  0  0  0
  -26.4501  -31.6582   25.0730 C   0  0  0  0  0  0
  -25.3719  -31.3736   26.1448 C   0  0  0  0  0  0
  -27.0350  -30.2995   24.6229 C   0  0  0  0  0  0
  -27.6056  -32.4325   25.7500 C   0  0  0  0  0  0
  -27.5577  -37.1796   24.8463 C   0  0  0  0  0  0
  -21.4218  -29.3048   22.3654 N   0  0  0  0  0  0
  -26.4288  -37.3769   23.9407 N   0  0  0  0  0  0
  -24.7001  -31.0494   22.0959 N   0  0  0  0  0  0
  -23.4202  -28.8130   23.3020 O   0  0  0  0  0  0
  -28.2858  -26.3230   20.1001 O   0  0  0  0  0  0
  -26.5637  -34.8914   22.4665 O   0  0  0  0  0  0
  -23.5473  -32.1361   23.7262 O   0  0  0  0  0  0
  -30.8311  -18.1636   21.0003 C   0  0  0  0  0  0
  -28.4904  -19.4766   20.1791 C   0  0  0  0  0  0
  -30.7120  -19.6015   21.0585 C   0  0  0  0  0  0
  -29.7615  -17.3249   20.5694 C   0  0  0  0  0  0
  -29.5337  -20.3151   20.6642 C   0  0  0  0  0  0
  -28.5993  -18.0416   20.1493 C   0  0  0  0  0  0
  -28.6401  -24.1725   21.3536 C   0  0  0  0  0  0
  -28.8276  -22.8952   20.3882 C   0  0  0  0  0  0
  -28.7798  -23.7521   22.8161 C   0  0  0  0  0  0
  -28.3247  -25.4651   21.2778 N   0  0  0  0  0  0
  -31.7856  -20.3425   21.5536 N   0  0  0  0  0  0
  -29.3978  -21.7681   20.9802 N   0  0  0  0  0  0
  -29.6977  -15.8353   20.6445 N   0  0  0  0  0  0
  -28.4696  -22.9169   19.2069 O   0  0  0  0  0  0
  -27.5292  -17.3191   19.7363 F   0  0  0  0  0  0
  -31.4877  -12.6296   19.1577 H   0  0  0  0  0  0
  -30.4242  -11.4939   19.9430 H   0  0  0  0  0  0
  -29.8042  -11.7442   17.5172 H   0  0  0  0  0  0
  -29.6332  -13.4690   17.7173 H   0  0  0  0  0  0
  -27.9059  -11.2796   18.9134 H   0  0  0  0  0  0
  -27.3844  -12.5165   17.8003 H   0  0  0  0  0  0
  -27.6400  -14.2468   19.4706 H   0  0  0  0  0  0
  -28.7359  -12.1351   21.3982 H   0  0  0  0  0  0
  -28.4217  -13.7998   21.8119 H   0  0  0  0  0  0
  -25.2759   -9.5682   22.4756 H   0  0  0  0  0  0
  -23.9993   -7.4636   22.7476 H   0  0  0  0  0  0
  -21.0832   -8.8781   19.8964 H   0  0  0  0  0  0
  -22.3698  -10.9669   19.6160 H   0  0  0  0  0  0
  -21.2015   -7.6139   23.9710 H   0  0  0  0  0  0
  -21.1478   -6.0517   25.9075 H   0  0  0  0  0  0
  -22.0600   -2.7603   23.2850 H   0  0  0  0  0  0
  -22.4087  -11.9907   22.4821 H   0  0  0  0  0  0
  -21.1098  -13.1277   22.2597 H   0  0  0  0  0  0
  -24.6443  -15.8328   20.5307 H   0  0  0  0  0  0
  -26.2536  -15.6539   20.0677 H   0  0  0  0  0  0
  -26.7215  -32.5405   23.1084 H   0  0  0  0  0  0
  -25.0060  -33.9684   25.0386 H   0  0  0  0  0  0
  -22.7294  -31.2971   21.3914 H   0  0  0  0  0  0
  -23.3750  -35.9617   23.3301 H   0  0  0  0  0  0
  -24.3578  -36.8911   22.2056 H   0  0  0  0  0  0
  -23.7246  -37.6483   23.6670 H   0  0  0  0  0  0
  -26.1167  -31.5210   20.6067 H   0  0  0  0  0  0
  -26.8559  -30.8183   22.0139 H   0  0  0  0  0  0
  -28.1344  -28.9156   21.2176 H   0  0  0  0  0  0
  -26.0005  -25.8848   19.0295 H   0  0  0  0  0  0
  -23.9845  -27.2946   19.0062 H   0  0  0  0  0  0
  -23.7800  -30.5789   19.4007 H   0  0  0  0  0  0
  -22.7728  -29.2378   19.8541 H   0  0  0  0  0  0
  -25.1298  -36.1912   25.0819 H   0  0  0  0  0  0
  -20.9987  -28.3285   24.1384 H   0  0  0  0  0  0
  -20.5670  -26.2314   23.3620 H   0  0  0  0  0  0
  -21.6645  -26.7438   22.1209 H   0  0  0  0  0  0
  -19.6909  -25.6295   21.1253 H   0  0  0  0  0  0
  -19.6689  -27.3190   20.6739 H   0  0  0  0  0  0
  -17.4201  -26.6685   21.4024 H   0  0  0  0  0  0
  -18.0324  -26.0082   22.9026 H   0  0  0  0  0  0
  -19.7941  -30.7289   24.2253 H   0  0  0  0  0  0
  -17.5016  -31.6270   24.5170 H   0  0  0  0  0  0
  -15.5352  -30.2987   23.7666 H   0  0  0  0  0  0
  -15.8676  -28.0827   22.7067 H   0  0  0  0  0  0
  -24.5900  -30.7079   25.7773 H   0  0  0  0  0  0
  -24.8903  -32.2906   26.4855 H   0  0  0  0  0  0
  -25.8033  -30.8926   27.0237 H   0  0  0  0  0  0
  -26.2940  -29.6739   24.1240 H   0  0  0  0  0  0
  -27.4005  -29.7264   25.4759 H   0  0  0  0  0  0
  -27.8828  -30.4257   23.9492 H   0  0  0  0  0  0
  -27.2666  -33.3631   26.2065 H   0  0  0  0  0  0
  -28.3871  -32.6878   25.0331 H   0  0  0  0  0  0
  -28.0722  -31.8462   26.5426 H   0  0  0  0  0  0
  -28.2596  -38.0091   24.7508 H   0  0  0  0  0  0
  -28.1072  -36.2624   24.6291 H   0  0  0  0  0  0
  -27.2299  -37.1454   25.8868 H   0  0  0  0  0  0
  -20.9412  -29.8771   21.6854 H   0  0  0  0  0  0
  -26.0164  -38.2842   24.1408 H   0  0  0  0  0  0
  -31.7398  -17.6939   21.3476 H   0  0  0  0  0  0
  -27.5520  -19.9233   19.8873 H   0  0  0  0  0  0
  -28.1266  -22.9091   23.0433 H   0  0  0  0  0  0
  -28.5014  -24.5583   23.4971 H   0  0  0  0  0  0
  -29.8109  -23.4797   23.0425 H   0  0  0  0  0  0
  -32.6907  -19.8837   21.5805 H   0  0  0  0  0  0
  -31.8667  -21.2982   21.2227 H   0  0  0  0  0  0
  -29.8089  -21.9926   21.8759 H   0  0  0  0  0  0
  -28.7493  -15.5050   20.7313 H   0  0  0  0  0  0
  1 25  1  0  0  0
  1 30  2  0  0  0
  1 83  1  0  0  0
  2  3  1  0  0  0
  2 25  1  0  0  0
  2 86  1  0  0  0
  2 87  1  0  0  0
  3  4  1  0  0  0
  3 88  1  0  0  0
  3 89  1  0  0  0
  4  5  1  0  0  0
  4 90  1  0  0  0
  4 91  1  0  0  0
  5  6  1  0  0  0
  5 26  1  0  0  0
  5 92  1  0  0  0
  6 25  1  0  0  0
  6 93  1  0  0  0
  6 94  1  0  0  0
  7  8  2  0  0  0
  7 26  1  0  0  0
  7 29  1  0  0  0
  8  9  1  0  0  0
  8 22  1  0  0  0
  9 10  1  0  0  0
  9 27  2  0  0  0
 10 11  2  0  0  0
 10 15  1  0  0  0
 11 12  1  0  0  0
 11 95  1  0  0  0
 12 13  2  0  0  0
 12 96  1  0  0  0
 13 14  1  0  0  0
 13 31  1  0  0  0
 14 15  2  0  0  0
 14 97  1  0  0  0
 15 98  1  0  0  0
 16 17  2  0  0  0
 16 21  1  0  0  0
 16 31  1  0  0  0
 17 18  1  0  0  0
 17 99  1  0  0  0
 18 19  2  0  0  0
 18100  1  0  0  0
 19 20  1  0  0  0
 19 24  1  0  0  0
 20 21  2  0  0  0
 20101  1  0  0  0
 21 23  1  0  0  0
 22 28  1  0  0  0
 22 32  2  0  0  0
 26 27  1  0  0  0
 28102  1  0  0  0
 28103  1  0  0  0
 29104  1  0  0  0
 29105  1  0  0  0
 33 34  1  0  0  0
 33 66  1  0  0  0
 33 70  2  0  0  0
 34 36  1  0  0  0
 34 59  1  0  0  0
 34106  1  0  0  0
 35 44  2  0  0  0
 35 45  1  0  0  0
 35 68  1  0  0  0
 36 56  1  0  0  0
 36107  1  0  0  0
 37 39  1  0  0  0
 37 47  1  0  0  0
 37 66  1  0  0  0
 37108  1  0  0  0
 38 43  2  0  0  0
 38 46  1  0  0  0
 38 47  1  0  0  0
 39 64  1  0  0  0
 39 67  2  0  0  0
 40 52  1  0  0  0
 40 53  2  0  0  0
 40 58  1  0  0  0
 41109  1  0  0  0
 41110  1  0  0  0
 41111  1  0  0  0
 41 48  1  0  0  0
 42 43  1  0  0  0
 42 66  1  0  0  0
 42112  1  0  0  0
 42113  1  0  0  0
 43 44  1  0  0  0
 44114  1  0  0  0
 45 46  2  0  0  0
 45115  1  0  0  0
 46116  1  0  0  0
 47117  1  0  0  0
 47118  1  0  0  0
 48 56  1  0  0  0
 48 65  1  0  0  0
 48119  1  0  0  0
 49 50  1  0  0  0
 49 53  1  0  0  0
 49 64  1  0  0  0
 49120  1  0  0  0
 50 51  1  0  0  0
 50121  1  0  0  0
 50122  1  0  0  0
 51 52  1  0  0  0
 51123  1  0  0  0
 51124  1  0  0  0
 52125  1  0  0  0
 52126  1  0  0  0
 53 54  1  0  0  0
 54 55  2  0  0  0
 54127  1  0  0  0
 55 57  1  0  0  0
 55128  1  0  0  0
 56 69  2  0  0  0
 57 58  2  0  0  0
 57129  1  0  0  0
 58130  1  0  0  0
 59 60  1  0  0  0
 59 61  1  0  0  0
 59 62  1  0  0  0
 60131  1  0  0  0
 60132  1  0  0  0
 60133  1  0  0  0
 61134  1  0  0  0
 61135  1  0  0  0
 61136  1  0  0  0
 62137  1  0  0  0
 62138  1  0  0  0
 62139  1  0  0  0
 63 65  1  0  0  0
 63140  1  0  0  0
 63141  1  0  0  0
 63142  1  0  0  0
 64143  1  0  0  0
 65144  1  0  0  0
 68 80  1  0  0  0
 71 73  2  0  0  0
 71 74  1  0  0  0
 71145  1  0  0  0
 72 75  2  0  0  0
 72 76  1  0  0  0
 72146  1  0  0  0
 73 75  1  0  0  0
 73 81  1  0  0  0
 74 76  2  0  0  0
 74 83  1  0  0  0
 75 82  1  0  0  0
 76 85  1  0  0  0
 77 78  1  0  0  0
 77 79  1  0  0  0
 77 80  2  0  0  0
 78 82  1  0  0  0
 78 84  2  0  0  0
 79147  1  0  0  0
 79148  1  0  0  0
 79149  1  0  0  0
 81150  1  0  0  0
 81151  1  0  0  0
 82152  1  0  0  0
 83153  1  0  0  0
M  ISO  4   1 100  68 101  80 101  83 100
M  END
> <chiral flag>
0

> <version>
0

> <s_m_source_file>
/data/baiqing/PycharmProjects/Reinvent-master-3.2/result/LINK_invent/BTK/process_docking_weight1_custom_product_contain_oxygen_bond_distance_aromatic_linkinvent_7_9_3/rearranged_h_0092.sdf

> <i_m_source_file_index>
97

> <r_mmod_Potential_Energy-OPLS-2005>
146.778305053711

> <r_mmod_Stretch_Energy-OPLS-2005>
127.680374145508

> <r_mmod_Bend_Energy-OPLS-2005>
247.691909790039

> <r_mmod_Torsional_Energy-OPLS-2005>
257.110504150391

> <r_mmod_Improper_Torsional_Energy-OPLS-2005>
11.6606950759888

> <r_mmod_Van_der_Waal_Energy-OPLS-2005>
134.045318603516

> <r_mmod_Electrostatic_Energy-OPLS-2005>
-477.260314941406

> <r_mmod_Solvation_Energy-OPLS-2005>
-249.686279296875

> <b_mmod_Minimization_Converged-OPLS-2005>
0

> <r_mmod_RMS_Derivative-OPLS-2005>
0.833025276660919

$$$$
97
                    3D
 Structure written by MMmdl.
158167  0  0  1  0            999 V2000
  -30.6193  -14.6664   20.4881 C   0  0  0  0  0  0
  -30.4414  -12.4094   19.4544 C   0  0  0  0  0  0
  -29.5088  -12.5107   18.2264 C   0  0  0  0  0  0
  -28.0328  -12.3430   18.6406 C   0  0  0  0  0  0
  -27.6515  -13.2210   19.8624 C   0  0  2  0  0  0
  -28.6989  -13.0916   20.9918 C   0  0  0  0  0  0
  -25.2540  -13.8175   20.5691 C   0  0  0  0  0  0
  -24.1811  -13.0426   20.9161 C   0  0  0  0  0  0
  -24.6396  -11.6906   20.8725 C   0  0  0  0  0  0
  -23.9065  -10.4290   21.0398 C   0  0  0  0  0  0
  -24.3616   -9.4206   21.9181 C   0  0  0  0  0  0
  -23.6292   -8.2243   22.0754 C   0  0  0  0  0  0
  -22.4275   -8.0280   21.3543 C   0  0  0  0  0  0
  -21.9907   -9.0252   20.4646 C   0  0  0  0  0  0
  -22.7235  -10.2130   20.3050 C   0  0  0  0  0  0
  -21.6853   -6.0734   22.5281 C   0  0  0  0  0  0
  -21.4011   -6.5639   23.8213 C   0  0  0  0  0  0
  -21.3659   -5.6792   24.9176 C   0  0  0  0  0  0
  -21.6045   -4.3052   24.7226 C   0  0  0  0  0  0
  -21.8821   -3.8145   23.4347 C   0  0  0  0  0  0
  -21.9191   -4.6963   22.3403 C   0  0  0  0  0  0
  -22.7833  -13.5217   21.1843 C   0  0  0  0  0  0
  -22.1660   -4.2150   21.0981 F   0  0  0  0  0  0
  -21.5632   -3.4534   25.7735 F   0  0  0  0  0  0
  -30.0122  -13.4374   20.4240 N   0  0  0  0  0  0
  -26.2987  -12.9375   20.3338 N   0  0  0  0  0  0
  -25.9331  -11.6520   20.5764 N   0  0  0  0  0  0
  -22.0479  -12.8211   22.0404 N   0  0  0  0  0  0
  -25.4183  -15.1913   20.4202 N   0  0  0  0  0  0
  -31.7887  -14.8226   20.1254 O   0  0  0  0  0  0
  -21.6637   -6.8878   21.4243 O   0  0  0  0  0  0
  -22.3512  -14.5529   20.6709 O   0  0  0  0  0  0
  -24.6288  -31.8598   23.2033 C   0  0  0  0  0  0
  -25.9127  -32.4779   23.8366 C   0  0  1  0  0  0
  -27.2190  -27.3018   20.1081 C   0  0  0  0  0  0
  -25.5938  -33.8581   24.2289 N   0  0  0  0  0  0
  -23.4226  -30.4862   21.5471 C   0  0  2  0  0  0
  -24.8672  -28.9445   20.1115 C   0  0  0  0  0  0
  -22.7490  -29.4629   22.4931 C   0  0  0  0  0  0
  -18.0287  -28.1386   22.8487 C   0  0  0  0  0  0
  -24.1490  -36.7289   23.2636 C   0  0  0  0  0  0
  -25.9676  -30.7850   21.3778 C   0  0  0  0  0  0
  -26.0405  -29.4125   20.7163 C   0  0  0  0  0  0
  -27.2200  -28.6044   20.7044 C   0  0  0  0  0  0
  -26.0161  -26.8990   19.4776 C   0  0  0  0  0  0
  -24.8580  -27.6937   19.4837 C   0  0  0  0  0  0
  -23.6379  -29.8270   20.1613 C   0  0  0  0  0  0
  -25.4113  -36.3085   24.0331 C   0  0  1  0  0  0
  -20.5891  -28.3697   23.1274 C   0  0  2  0  0  0
  -20.6776  -26.9420   22.5403 C   0  0  0  0  0  0
  -19.5750  -26.6390   21.5209 C   0  0  0  0  0  0
  -18.1933  -26.7929   22.1626 C   0  0  0  0  0  0
  -19.1541  -28.8856   23.2876 C   0  0  0  0  0  0
  -18.9463  -30.1456   23.8898 C   0  0  0  0  0  0
  -17.6461  -30.6588   24.0561 C   0  0  0  0  0  0
  -25.9056  -34.9452   23.5108 C   0  0  0  0  0  0
  -16.5354  -29.9086   23.6329 C   0  0  0  0  0  0
  -16.7274  -28.6502   23.0356 C   0  0  0  0  0  0
  -26.4505  -31.6584   25.0733 C   0  0  0  0  0  0
  -25.3740  -31.3733   26.1465 C   0  0  0  0  0  0
  -27.0332  -30.2999   24.6191 C   0  0  0  0  0  0
  -27.6080  -32.4307   25.7495 C   0  0  0  0  0  0
  -27.5581  -37.1796   24.8462 C   0  0  0  0  0  0
  -21.4200  -29.3049   22.3669 N   0  0  0  0  0  0
  -26.4287  -37.3780   23.9417 N   0  0  0  0  0  0
  -24.6921  -31.0602   22.0991 N   0  0  0  0  0  0
  -23.4209  -28.8156   23.3004 O   0  0  0  0  0  0
  -28.3223  -26.4211   20.1546 O   0  0  0  0  0  0
  -26.5620  -34.8917   22.4672 O   0  0  0  0  0  0
  -23.5445  -32.1400   23.7348 O   0  0  0  0  0  0
  -28.8634  -19.4290   20.7676 C   0  0  0  0  0  0
  -31.1131  -17.8739   20.2771 C   0  0  0  0  0  0
  -28.8074  -18.0037   20.9025 C   0  0  0  0  0  0
  -29.9395  -17.1758   20.6545 C   0  0  0  0  0  0
  -30.0657  -20.1070   20.4058 C   0  0  0  0  0  0
  -29.0811  -22.5065   20.1973 C   0  0  0  0  0  0
  -29.1460  -23.8887   20.2180 C   0  0  0  0  0  0
  -31.4525  -22.1839   20.2256 C   0  0  0  0  0  0
  -31.5869  -23.6999   19.9476 C   0  0  0  0  0  0
  -28.0299  -24.9680   19.9877 C   0  0  0  0  0  0
  -31.1165  -19.2419   20.1782 N   0  3  0  0  0  0
  -30.2077  -21.6033   20.3003 N   0  0  0  0  0  0
  -27.6149  -17.3860   21.2947 N   0  0  0  0  0  0
  -29.8036  -15.7221   20.7954 N   0  0  0  0  0  0
  -30.4565  -24.5208   20.4318 N   0  3  0  0  0  0
  -32.5214  -21.5693   20.3681 O   0  0  0  0  0  0
  -31.4816  -12.5399   19.1502 H   0  0  0  0  0  0
  -30.3823  -11.4168   19.9040 H   0  0  0  0  0  0
  -29.7782  -11.7572   17.4850 H   0  0  0  0  0  0
  -29.6442  -13.4781   17.7399 H   0  0  0  0  0  0
  -27.8767  -11.2907   18.8806 H   0  0  0  0  0  0
  -27.3761  -12.5617   17.7982 H   0  0  0  0  0  0
  -27.6611  -14.2538   19.5129 H   0  0  0  0  0  0
  -28.7161  -12.0735   21.3842 H   0  0  0  0  0  0
  -28.4430  -13.7318   21.8372 H   0  0  0  0  0  0
  -25.2765   -9.5684   22.4749 H   0  0  0  0  0  0
  -24.0006   -7.4632   22.7471 H   0  0  0  0  0  0
  -21.0839   -8.8771   19.8949 H   0  0  0  0  0  0
  -22.3699  -10.9667   19.6153 H   0  0  0  0  0  0
  -21.2001   -7.6146   23.9717 H   0  0  0  0  0  0
  -21.1479   -6.0519   25.9079 H   0  0  0  0  0  0
  -22.0598   -2.7609   23.2844 H   0  0  0  0  0  0
  -22.4091  -11.9866   22.4784 H   0  0  0  0  0  0
  -21.1098  -13.1241   22.2620 H   0  0  0  0  0  0
  -24.6499  -15.8343   20.5746 H   0  0  0  0  0  0
  -26.2927  -15.6749   20.2418 H   0  0  0  0  0  0
  -26.7189  -32.5444   23.1111 H   0  0  0  0  0  0
  -25.0089  -33.9730   25.0436 H   0  0  0  0  0  0
  -22.7175  -31.3079   21.4062 H   0  0  0  0  0  0
  -23.3759  -35.9613   23.3290 H   0  0  0  0  0  0
  -24.3584  -36.8916   22.2052 H   0  0  0  0  0  0
  -23.7229  -37.6483   23.6661 H   0  0  0  0  0  0
  -26.1031  -31.5489   20.6110 H   0  0  0  0  0  0
  -26.8465  -30.8308   22.0091 H   0  0  0  0  0  0
  -28.1181  -28.9611   21.1888 H   0  0  0  0  0  0
  -25.9230  -25.9499   18.9745 H   0  0  0  0  0  0
  -23.9590  -27.3315   19.0036 H   0  0  0  0  0  0
  -23.7614  -30.6060   19.4081 H   0  0  0  0  0  0
  -22.7567  -29.2602   19.8553 H   0  0  0  0  0  0
  -25.1287  -36.1935   25.0821 H   0  0  0  0  0  0
  -20.9984  -28.3268   24.1395 H   0  0  0  0  0  0
  -20.5685  -26.2308   23.3605 H   0  0  0  0  0  0
  -21.6644  -26.7453   22.1191 H   0  0  0  0  0  0
  -19.6915  -25.6303   21.1238 H   0  0  0  0  0  0
  -19.6684  -27.3203   20.6741 H   0  0  0  0  0  0
  -17.4201  -26.6671   21.4032 H   0  0  0  0  0  0
  -18.0341  -26.0073   22.9027 H   0  0  0  0  0  0
  -19.7938  -30.7266   24.2278 H   0  0  0  0  0  0
  -17.5019  -31.6272   24.5159 H   0  0  0  0  0  0
  -15.5354  -30.2988   23.7656 H   0  0  0  0  0  0
  -15.8675  -28.0819   22.7076 H   0  0  0  0  0  0
  -24.5880  -30.7128   25.7783 H   0  0  0  0  0  0
  -24.8978  -32.2909   26.4928 H   0  0  0  0  0  0
  -25.8057  -30.8861   27.0216 H   0  0  0  0  0  0
  -26.2891  -29.6755   24.1227 H   0  0  0  0  0  0
  -27.4026  -29.7253   25.4696 H   0  0  0  0  0  0
  -27.8777  -30.4269   23.9415 H   0  0  0  0  0  0
  -27.2712  -33.3626   26.2050 H   0  0  0  0  0  0
  -28.3901  -32.6826   25.0321 H   0  0  0  0  0  0
  -28.0731  -31.8435   26.5424 H   0  0  0  0  0  0
  -28.2584  -38.0109   24.7531 H   0  0  0  0  0  0
  -28.1091  -36.2639   24.6258 H   0  0  0  0  0  0
  -27.2306  -37.1404   25.8866 H   0  0  0  0  0  0
  -20.9382  -29.8783   21.6885 H   0  0  0  0  0  0
  -26.0169  -38.2853   24.1430 H   0  0  0  0  0  0
  -27.9776  -20.0054   20.9802 H   0  0  0  0  0  0
  -32.0552  -17.3847   20.0635 H   0  0  0  0  0  0
  -28.1468  -22.0000   20.0181 H   0  0  0  0  0  0
  -31.6658  -23.8251   18.8674 H   0  0  0  0  0  0
  -32.5157  -24.0776   20.3748 H   0  0  0  0  0  0
  -27.1951  -24.6976   20.6371 H   0  0  0  0  0  0
  -27.7021  -24.8003   18.9614 H   0  0  0  0  0  0
  -32.0136  -19.6877   19.9418 H   0  0  0  0  0  0
  -26.8840  -18.0248   21.5804 H   0  0  0  0  0  0
  -27.7359  -16.6812   22.0094 H   0  0  0  0  0  0
  -28.8671  -15.4439   21.0415 H   0  0  0  0  0  0
  -30.4788  -25.4211   19.9785 H   0  0  0  0  0  0
  -30.5853  -24.7067   21.4146 H   0  0  0  0  0  0
  1 25  1  0  0  0
  1 30  2  0  0  0
  1 84  1  0  0  0
  2  3  1  0  0  0
  2 25  1  0  0  0
  2 87  1  0  0  0
  2 88  1  0  0  0
  3  4  1  0  0  0
  3 89  1  0  0  0
  3 90  1  0  0  0
  4  5  1  0  0  0
  4 91  1  0  0  0
  4 92  1  0  0  0
  5  6  1  0  0  0
  5 26  1  0  0  0
  5 93  1  0  0  0
  6 25  1  0  0  0
  6 94  1  0  0  0
  6 95  1  0  0  0
  7  8  2  0  0  0
  7 26  1  0  0  0
  7 29  1  0  0  0
  8  9  1  0  0  0
  8 22  1  0  0  0
  9 10  1  0  0  0
  9 27  2  0  0  0
 10 11  2  0  0  0
 10 15  1  0  0  0
 11 12  1  0  0  0
 11 96  1  0  0  0
 12 13  2  0  0  0
 12 97  1  0  0  0
 13 14  1  0  0  0
 13 31  1  0  0  0
 14 15  2  0  0  0
 14 98  1  0  0  0
 15 99  1  0  0  0
 16 17  2  0  0  0
 16 21  1  0  0  0
 16 31  1  0  0  0
 17 18  1  0  0  0
 17100  1  0  0  0
 18 19  2  0  0  0
 18101  1  0  0  0
 19 20  1  0  0  0
 19 24  1  0  0  0
 20 21  2  0  0  0
 20102  1  0  0  0
 21 23  1  0  0  0
 22 28  1  0  0  0
 22 32  2  0  0  0
 26 27  1  0  0  0
 28103  1  0  0  0
 28104  1  0  0  0
 29105  1  0  0  0
 29106  1  0  0  0
 33 34  1  0  0  0
 33 66  1  0  0  0
 33 70  2  0  0  0
 34 36  1  0  0  0
 34 59  1  0  0  0
 34107  1  0  0  0
 35 44  2  0  0  0
 35 45  1  0  0  0
 35 68  1  0  0  0
 36 56  1  0  0  0
 36108  1  0  0  0
 37 39  1  0  0  0
 37 47  1  0  0  0
 37 66  1  0  0  0
 37109  1  0  0  0
 38 43  2  0  0  0
 38 46  1  0  0  0
 38 47  1  0  0  0
 39 64  1  0  0  0
 39 67  2  0  0  0
 40 52  1  0  0  0
 40 53  2  0  0  0
 40 58  1  0  0  0
 41110  1  0  0  0
 41111  1  0  0  0
 41112  1  0  0  0
 41 48  1  0  0  0
 42 43  1  0  0  0
 42 66  1  0  0  0
 42113  1  0  0  0
 42114  1  0  0  0
 43 44  1  0  0  0
 44115  1  0  0  0
 45 46  2  0  0  0
 45116  1  0  0  0
 46117  1  0  0  0
 47118  1  0  0  0
 47119  1  0  0  0
 48 56  1  0  0  0
 48 65  1  0  0  0
 48120  1  0  0  0
 49 50  1  0  0  0
 49 53  1  0  0  0
 49 64  1  0  0  0
 49121  1  0  0  0
 50 51  1  0  0  0
 50122  1  0  0  0
 50123  1  0  0  0
 51 52  1  0  0  0
 51124  1  0  0  0
 51125  1  0  0  0
 52126  1  0  0  0
 52127  1  0  0  0
 53 54  1  0  0  0
 54 55  2  0  0  0
 54128  1  0  0  0
 55 57  1  0  0  0
 55129  1  0  0  0
 56 69  2  0  0  0
 57 58  2  0  0  0
 57130  1  0  0  0
 58131  1  0  0  0
 59 60  1  0  0  0
 59 61  1  0  0  0
 59 62  1  0  0  0
 60132  1  0  0  0
 60133  1  0  0  0
 60134  1  0  0  0
 61135  1  0  0  0
 61136  1  0  0  0
 61137  1  0  0  0
 62138  1  0  0  0
 62139  1  0  0  0
 62140  1  0  0  0
 63 65  1  0  0  0
 63141  1  0  0  0
 63142  1  0  0  0
 63143  1  0  0  0
 64144  1  0  0  0
 65145  1  0  0  0
 68 80  1  0  0  0
 71 73  2  0  0  0
 71 75  1  0  0  0
 71146  1  0  0  0
 72 74  2  0  0  0
 72 81  1  0  0  0
 72147  1  0  0  0
 73 74  1  0  0  0
 73 83  1  0  0  0
 74 84  1  0  0  0
 75 81  2  0  0  0
 75 82  1  0  0  0
 76 77  2  0  0  0
 76 82  1  0  0  0
 76148  1  0  0  0
 77 80  1  0  0  0
 77 85  1  0  0  0
 78 79  1  0  0  0
 78 82  1  0  0  0
 78 86  2  0  0  0
 79 85  1  0  0  0
 79149  1  0  0  0
 79150  1  0  0  0
 80151  1  0  0  0
 80152  1  0  0  0
 81153  1  0  0  0
 83154  1  0  0  0
 83155  1  0  0  0
 84156  1  0  0  0
 85157  1  0  0  0
 85158  1  0  0  0
M  CHG  2  81   1  85   1
M  ISO  4   1 100  68 101  80 101  84 100
M  END
> <chiral flag>
0

> <version>
0

> <s_m_source_file>
/data/baiqing/PycharmProjects/Reinvent-master-3.2/result/LINK_invent/BTK/process_docking_weight1_custom_product_contain_oxygen_bond_distance_aromatic_linkinvent_7_9_3/rearranged_h_0092.sdf

> <i_m_source_file_index>
98

> <r_mmod_Potential_Energy-OPLS-2005>
-451.570159912109

> <r_mmod_Stretch_Energy-OPLS-2005>
104.020164489746

> <r_mmod_Bend_Energy-OPLS-2005>
149.391265869141

> <r_mmod_Torsional_Energy-OPLS-2005>
236.882339477539

> <r_mmod_Improper_Torsional_Energy-OPLS-2005>
9.8162670135498

> <r_mmod_Van_der_Waal_Energy-OPLS-2005>
181.163330078125

> <r_mmod_Electrostatic_Energy-OPLS-2005>
-159.944427490234

> <r_mmod_Solvation_Energy-OPLS-2005>
-1031.32824707031

> <b_mmod_Minimization_Converged-OPLS-2005>
0

> <r_mmod_RMS_Derivative-OPLS-2005>
0.697317838668823

$$$$
