0
                    3D
 Structure written by MMmdl.
155163  0  0  1  0            999 V2000
  -30.7144  -14.4830   20.5623 C   0  0  0  0  0  0
  -30.4168  -12.3118   19.4291 C   0  0  0  0  0  0
  -29.4931  -12.5013   18.2090 C   0  0  0  0  0  0
  -28.0148  -12.3617   18.6219 C   0  0  0  0  0  0
  -27.6584  -13.2117   19.8715 C   0  0  2  0  0  0
  -28.7012  -13.0170   20.9961 C   0  0  0  0  0  0
  -25.2573  -13.8176   20.5684 C   0  0  0  0  0  0
  -24.1830  -13.0442   20.9170 C   0  0  0  0  0  0
  -24.6393  -11.6912   20.8735 C   0  0  0  0  0  0
  -23.9064  -10.4293   21.0403 C   0  0  0  0  0  0
  -24.3616   -9.4209   21.9181 C   0  0  0  0  0  0
  -23.6292   -8.2245   22.0754 C   0  0  0  0  0  0
  -22.4273   -8.0282   21.3545 C   0  0  0  0  0  0
  -21.9910   -9.0254   20.4646 C   0  0  0  0  0  0
  -22.7237  -10.2133   20.3053 C   0  0  0  0  0  0
  -21.6853   -6.0738   22.5279 C   0  0  0  0  0  0
  -21.4012   -6.5640   23.8212 C   0  0  0  0  0  0
  -21.3659   -5.6793   24.9174 C   0  0  0  0  0  0
  -21.6044   -4.3056   24.7224 C   0  0  0  0  0  0
  -21.8820   -3.8149   23.4345 C   0  0  0  0  0  0
  -21.9192   -4.6966   22.3402 C   0  0  0  0  0  0
  -22.7853  -13.5236   21.1838 C   0  0  0  0  0  0
  -22.1661   -4.2151   21.0980 F   0  0  0  0  0  0
  -21.5628   -3.4539   25.7736 F   0  0  0  0  0  0
  -30.0303  -13.3123   20.4378 N   0  0  0  0  0  0
  -26.3011  -12.9356   20.3363 N   0  0  0  0  0  0
  -25.9323  -11.6511   20.5774 N   0  0  0  0  0  0
  -22.0497  -12.8226   22.0394 N   0  0  0  0  0  0
  -25.4292  -15.1898   20.4112 N   0  0  0  0  0  0
  -31.8457  -14.6304   20.0940 O   0  0  0  0  0  0
  -21.6639   -6.8879   21.4241 O   0  0  0  0  0  0
  -22.3537  -14.5545   20.6690 O   0  0  0  0  0  0
  -24.6161  -31.8673   23.2091 C   0  0  0  0  0  0
  -25.9050  -32.4818   23.8392 C   0  0  1  0  0  0
  -27.2279  -27.4256   20.1003 C   0  0  0  0  0  0
  -25.5905  -33.8617   24.2328 N   0  0  0  0  0  0
  -23.4047  -30.4909   21.5496 C   0  0  2  0  0  0
  -24.8520  -28.9584   20.1106 C   0  0  0  0  0  0
  -22.7419  -29.4656   22.4980 C   0  0  0  0  0  0
  -18.0274  -28.1381   22.8491 C   0  0  0  0  0  0
  -24.1485  -36.7309   23.2638 C   0  0  0  0  0  0
  -25.9347  -30.8321   21.3620 C   0  0  0  0  0  0
  -26.0137  -29.4668   20.7069 C   0  0  0  0  0  0
  -27.2096  -28.7088   20.6960 C   0  0  0  0  0  0
  -26.0543  -26.9380   19.4884 C   0  0  0  0  0  0
  -24.8680  -27.6946   19.4955 C   0  0  0  0  0  0
  -23.6130  -29.8246   20.1636 C   0  0  0  0  0  0
  -25.4106  -36.3108   24.0337 C   0  0  1  0  0  0
  -20.5867  -28.3667   23.1313 C   0  0  2  0  0  0
  -20.6766  -26.9402   22.5416 C   0  0  0  0  0  0
  -19.5744  -26.6390   21.5214 C   0  0  0  0  0  0
  -18.1921  -26.7928   22.1623 C   0  0  0  0  0  0
  -19.1524  -28.8840   23.2901 C   0  0  0  0  0  0
  -18.9452  -30.1447   23.8909 C   0  0  0  0  0  0
  -17.6454  -30.6588   24.0566 C   0  0  0  0  0  0
  -25.9034  -34.9473   23.5130 C   0  0  0  0  0  0
  -16.5344  -29.9088   23.6329 C   0  0  0  0  0  0
  -16.7263  -28.6505   23.0348 C   0  0  0  0  0  0
  -26.4473  -31.6590   25.0716 C   0  0  0  0  0  0
  -25.3739  -31.3702   26.1465 C   0  0  0  0  0  0
  -27.0294  -30.3031   24.6085 C   0  0  0  0  0  0
  -27.6057  -32.4298   25.7479 C   0  0  0  0  0  0
  -27.5578  -37.1808   24.8466 C   0  0  0  0  0  0
  -21.4144  -29.3034   22.3718 N   0  0  0  0  0  0
  -26.4293  -37.3791   23.9408 N   0  0  0  0  0  0
  -24.6702  -31.0772   22.0990 N   0  0  0  0  0  0
  -23.4187  -28.8196   23.3026 O   0  0  0  0  0  0
  -28.3498  -26.6258   20.1341 O   0  0  0  0  0  0
  -26.5595  -34.8925   22.4689 O   0  0  0  0  0  0
  -23.5351  -32.1420   23.7485 O   0  0  0  0  0  0
  -31.1169  -19.6565   21.3041 C   0  0  0  0  0  0
  -31.7755  -17.3073   21.2801 C   0  0  0  0  0  0
  -29.7574  -19.2979   21.1757 C   0  0  0  0  0  0
  -30.4243  -16.9056   21.1394 C   0  0  0  0  0  0
  -32.1159  -18.6700   21.3540 C   0  0  0  0  0  0
  -29.4218  -17.9111   21.0972 C   0  0  0  0  0  0
  -28.7420  -20.3768   21.2022 C   0  0  0  0  0  0
  -28.7569  -24.1579   20.3998 C   0  0  0  0  0  0
  -28.1230  -22.8339   20.8814 C   0  0  0  0  0  0
  -28.1629  -25.4646   20.9767 C   0  0  0  0  0  0
  -30.0270  -15.5225   21.0841 N   0  0  0  0  0  0
  -28.9989  -21.6319   20.7641 N   0  0  0  0  0  0
  -27.5390  -20.1410   21.7252 N   0  3  0  0  0  0
  -29.7153  -24.1533   19.6174 O   0  0  0  0  0  0
  -33.4132  -19.0361   21.4888 F   0  0  0  0  0  0
  -28.1256  -17.5190   21.0041 F   0  0  0  0  0  0
  -31.4626  -12.3973   19.1283 H   0  0  0  0  0  0
  -30.3091  -11.3064   19.8389 H   0  0  0  0  0  0
  -29.7352  -11.7713   17.4354 H   0  0  0  0  0  0
  -29.6608  -13.4842   17.7656 H   0  0  0  0  0  0
  -27.8287  -11.3068   18.8270 H   0  0  0  0  0  0
  -27.3638  -12.6268   17.7880 H   0  0  0  0  0  0
  -27.6949  -14.2561   19.5604 H   0  0  0  0  0  0
  -28.6784  -11.9892   21.3616 H   0  0  0  0  0  0
  -28.4645  -13.6396   21.8602 H   0  0  0  0  0  0
  -25.2763   -9.5685   22.4752 H   0  0  0  0  0  0
  -24.0001   -7.4638   22.7475 H   0  0  0  0  0  0
  -21.0841   -8.8770   19.8954 H   0  0  0  0  0  0
  -22.3696  -10.9668   19.6159 H   0  0  0  0  0  0
  -21.2004   -7.6148   23.9715 H   0  0  0  0  0  0
  -21.1479   -6.0523   25.9076 H   0  0  0  0  0  0
  -22.0599   -2.7611   23.2844 H   0  0  0  0  0  0
  -22.4109  -11.9879   22.4771 H   0  0  0  0  0  0
  -21.1115  -13.1252   22.2603 H   0  0  0  0  0  0
  -24.6627  -15.8438   20.5255 H   0  0  0  0  0  0
  -26.2882  -15.6377   20.1181 H   0  0  0  0  0  0
  -26.7123  -32.5528   23.1158 H   0  0  0  0  0  0
  -25.0065  -33.9782   25.0480 H   0  0  0  0  0  0
  -22.6935  -31.3077   21.4112 H   0  0  0  0  0  0
  -23.3745  -35.9645   23.3313 H   0  0  0  0  0  0
  -24.3579  -36.8907   22.2050 H   0  0  0  0  0  0
  -23.7241  -37.6520   23.6638 H   0  0  0  0  0  0
  -26.0472  -31.5991   20.5943 H   0  0  0  0  0  0
  -26.8228  -30.8856   21.9800 H   0  0  0  0  0  0
  -28.1048  -29.0923   21.1655 H   0  0  0  0  0  0
  -26.0528  -25.9649   19.0174 H   0  0  0  0  0  0
  -23.9751  -27.2987   19.0310 H   0  0  0  0  0  0
  -23.7188  -30.6002   19.4041 H   0  0  0  0  0  0
  -22.7371  -29.2438   19.8686 H   0  0  0  0  0  0
  -25.1287  -36.1969   25.0831 H   0  0  0  0  0  0
  -20.9962  -28.3231   24.1431 H   0  0  0  0  0  0
  -20.5675  -26.2275   23.3605 H   0  0  0  0  0  0
  -21.6636  -26.7449   22.1202 H   0  0  0  0  0  0
  -19.6907  -25.6308   21.1226 H   0  0  0  0  0  0
  -19.6685  -27.3214   20.6757 H   0  0  0  0  0  0
  -17.4197  -26.6682   21.4021 H   0  0  0  0  0  0
  -18.0318  -26.0069   22.9017 H   0  0  0  0  0  0
  -19.7929  -30.7262   24.2280 H   0  0  0  0  0  0
  -17.5010  -31.6267   24.5168 H   0  0  0  0  0  0
  -15.5346  -30.2994   23.7653 H   0  0  0  0  0  0
  -15.8661  -28.0832   22.7056 H   0  0  0  0  0  0
  -24.5909  -30.7053   25.7803 H   0  0  0  0  0  0
  -24.8936  -32.2862   26.4917 H   0  0  0  0  0  0
  -25.8093  -30.8865   27.0219 H   0  0  0  0  0  0
  -26.2831  -29.6804   24.1139 H   0  0  0  0  0  0
  -27.4066  -29.7256   25.4534 H   0  0  0  0  0  0
  -27.8666  -30.4354   23.9229 H   0  0  0  0  0  0
  -27.2694  -33.3605   26.2061 H   0  0  0  0  0  0
  -28.3868  -32.6839   25.0301 H   0  0  0  0  0  0
  -28.0717  -31.8407   26.5389 H   0  0  0  0  0  0
  -28.2604  -38.0097   24.7502 H   0  0  0  0  0  0
  -28.1065  -36.2628   24.6304 H   0  0  0  0  0  0
  -27.2294  -37.1469   25.8870 H   0  0  0  0  0  0
  -20.9304  -29.8754   21.6937 H   0  0  0  0  0  0
  -26.0182  -38.2870   24.1406 H   0  0  0  0  0  0
  -31.4125  -20.6914   21.3918 H   0  0  0  0  0  0
  -32.5746  -16.5867   21.3492 H   0  0  0  0  0  0
  -27.2094  -22.6733   20.3079 H   0  0  0  0  0  0
  -27.8244  -22.9627   21.9226 H   0  0  0  0  0  0
  -28.6452  -25.6603   21.9343 H   0  0  0  0  0  0
  -27.1092  -25.2893   21.1979 H   0  0  0  0  0  0
  -29.0660  -15.3336   21.3250 H   0  0  0  0  0  0
  -29.8714  -21.8073   20.2773 H   0  0  0  0  0  0
  -27.3091  -19.1864   21.9685 H   0  0  0  0  0  0
  -26.8150  -20.8357   21.7812 H   0  0  0  0  0  0
  1 25  1  0  0  0
  1 30  2  0  0  0
  1 81  1  0  0  0
  2  3  1  0  0  0
  2 25  1  0  0  0
  2 87  1  0  0  0
  2 88  1  0  0  0
  3  4  1  0  0  0
  3 89  1  0  0  0
  3 90  1  0  0  0
  4  5  1  0  0  0
  4 91  1  0  0  0
  4 92  1  0  0  0
  5  6  1  0  0  0
  5 26  1  0  0  0
  5 93  1  0  0  0
  6 25  1  0  0  0
  6 94  1  0  0  0
  6 95  1  0  0  0
  7  8  2  0  0  0
  7 26  1  0  0  0
  7 29  1  0  0  0
  8  9  1  0  0  0
  8 22  1  0  0  0
  9 10  1  0  0  0
  9 27  2  0  0  0
 10 11  2  0  0  0
 10 15  1  0  0  0
 11 12  1  0  0  0
 11 96  1  0  0  0
 12 13  2  0  0  0
 12 97  1  0  0  0
 13 14  1  0  0  0
 13 31  1  0  0  0
 14 15  2  0  0  0
 14 98  1  0  0  0
 15 99  1  0  0  0
 16 17  2  0  0  0
 16 21  1  0  0  0
 16 31  1  0  0  0
 17 18  1  0  0  0
 17100  1  0  0  0
 18 19  2  0  0  0
 18101  1  0  0  0
 19 20  1  0  0  0
 19 24  1  0  0  0
 20 21  2  0  0  0
 20102  1  0  0  0
 21 23  1  0  0  0
 22 28  1  0  0  0
 22 32  2  0  0  0
 26 27  1  0  0  0
 28103  1  0  0  0
 28104  1  0  0  0
 29105  1  0  0  0
 29106  1  0  0  0
 33 34  1  0  0  0
 33 66  1  0  0  0
 33 70  2  0  0  0
 34 36  1  0  0  0
 34 59  1  0  0  0
 34107  1  0  0  0
 35 44  2  0  0  0
 35 45  1  0  0  0
 35 68  1  0  0  0
 36 56  1  0  0  0
 36108  1  0  0  0
 37 39  1  0  0  0
 37 47  1  0  0  0
 37 66  1  0  0  0
 37109  1  0  0  0
 38 43  2  0  0  0
 38 46  1  0  0  0
 38 47  1  0  0  0
 39 64  1  0  0  0
 39 67  2  0  0  0
 40 52  1  0  0  0
 40 53  2  0  0  0
 40 58  1  0  0  0
 41110  1  0  0  0
 41111  1  0  0  0
 41112  1  0  0  0
 41 48  1  0  0  0
 42 43  1  0  0  0
 42 66  1  0  0  0
 42113  1  0  0  0
 42114  1  0  0  0
 43 44  1  0  0  0
 44115  1  0  0  0
 45 46  2  0  0  0
 45116  1  0  0  0
 46117  1  0  0  0
 47118  1  0  0  0
 47119  1  0  0  0
 48 56  1  0  0  0
 48 65  1  0  0  0
 48120  1  0  0  0
 49 50  1  0  0  0
 49 53  1  0  0  0
 49 64  1  0  0  0
 49121  1  0  0  0
 50 51  1  0  0  0
 50122  1  0  0  0
 50123  1  0  0  0
 51 52  1  0  0  0
 51124  1  0  0  0
 51125  1  0  0  0
 52126  1  0  0  0
 52127  1  0  0  0
 53 54  1  0  0  0
 54 55  2  0  0  0
 54128  1  0  0  0
 55 57  1  0  0  0
 55129  1  0  0  0
 56 69  2  0  0  0
 57 58  2  0  0  0
 57130  1  0  0  0
 58131  1  0  0  0
 59 60  1  0  0  0
 59 61  1  0  0  0
 59 62  1  0  0  0
 60132  1  0  0  0
 60133  1  0  0  0
 60134  1  0  0  0
 61135  1  0  0  0
 61136  1  0  0  0
 61137  1  0  0  0
 62138  1  0  0  0
 62139  1  0  0  0
 62140  1  0  0  0
 63 65  1  0  0  0
 63141  1  0  0  0
 63142  1  0  0  0
 63143  1  0  0  0
 64144  1  0  0  0
 65145  1  0  0  0
 68 80  1  0  0  0
 71 73  2  0  0  0
 71 75  1  0  0  0
 71146  1  0  0  0
 72 74  1  0  0  0
 72 75  2  0  0  0
 72147  1  0  0  0
 73 76  1  0  0  0
 73 77  1  0  0  0
 74 76  2  0  0  0
 74 81  1  0  0  0
 75 85  1  0  0  0
 76 86  1  0  0  0
 77 82  1  0  0  0
 77 83  2  0  0  0
 78 79  1  0  0  0
 78 80  1  0  0  0
 78 84  2  0  0  0
 79 82  1  0  0  0
 79148  1  0  0  0
 79149  1  0  0  0
 80150  1  0  0  0
 80151  1  0  0  0
 81152  1  0  0  0
 82153  1  0  0  0
 83154  1  0  0  0
 83155  1  0  0  0
M  CHG  1  83   1
M  ISO  4   1 100  68 101  80 101  81 100
M  END
> <chiral flag>
0

> <version>
0

> <s_m_source_file>
/data/baiqing/PycharmProjects/Reinvent-master-3.2/result/LINK_invent/BTK/process_docking_weight1_custom_product_contain_oxygen_bond_distance_aromatic_linkinvent_7_9_3/rearranged_h_0168.sdf

> <i_m_source_file_index>
1

> <r_mmod_Potential_Energy-OPLS-2005>
-369.443878173828

> <r_mmod_Stretch_Energy-OPLS-2005>
42.2419357299805

> <r_mmod_Bend_Energy-OPLS-2005>
95.7191925048828

> <r_mmod_Torsional_Energy-OPLS-2005>
233.103500366211

> <r_mmod_Improper_Torsional_Energy-OPLS-2005>
4.28396987915039

> <r_mmod_Van_der_Waal_Energy-OPLS-2005>
159.221130371094

> <r_mmod_Electrostatic_Energy-OPLS-2005>
-469.267242431641

> <r_mmod_Solvation_Energy-OPLS-2005>
-451.014862060547

> <b_mmod_Minimization_Converged-OPLS-2005>
0

> <r_mmod_RMS_Derivative-OPLS-2005>
0.535065710544586

$$$$
1
                    3D
 Structure written by MMmdl.
158166  0  0  1  0            999 V2000
  -30.7380  -14.4157   20.5226 C   0  0  0  0  0  0
  -30.4062  -12.2500   19.4335 C   0  0  0  0  0  0
  -29.4914  -12.4781   18.2124 C   0  0  0  0  0  0
  -28.0106  -12.3571   18.6228 C   0  0  0  0  0  0
  -27.6611  -13.2057   19.8753 C   0  0  2  0  0  0
  -28.7024  -13.0023   21.0012 C   0  0  0  0  0  0
  -25.2577  -13.8148   20.5671 C   0  0  0  0  0  0
  -24.1828  -13.0412   20.9171 C   0  0  0  0  0  0
  -24.6395  -11.6886   20.8731 C   0  0  0  0  0  0
  -23.9068  -10.4264   21.0386 C   0  0  0  0  0  0
  -24.3621   -9.4170   21.9150 C   0  0  0  0  0  0
  -23.6280   -8.2219   22.0731 C   0  0  0  0  0  0
  -22.4261   -8.0266   21.3526 C   0  0  0  0  0  0
  -21.9909   -9.0237   20.4626 C   0  0  0  0  0  0
  -22.7251  -10.2105   20.3028 C   0  0  0  0  0  0
  -21.6856   -6.0708   22.5265 C   0  0  0  0  0  0
  -21.4021   -6.5620   23.8193 C   0  0  0  0  0  0
  -21.3656   -5.6788   24.9165 C   0  0  0  0  0  0
  -21.6046   -4.3044   24.7242 C   0  0  0  0  0  0
  -21.8822   -3.8127   23.4364 C   0  0  0  0  0  0
  -21.9185   -4.6931   22.3407 C   0  0  0  0  0  0
  -22.7864  -13.5208   21.1872 C   0  0  0  0  0  0
  -22.1651   -4.2090   21.0994 F   0  0  0  0  0  0
  -21.5652   -3.4546   25.7769 F   0  0  0  0  0  0
  -30.0381  -13.2562   20.4401 N   0  0  0  0  0  0
  -26.3019  -12.9317   20.3379 N   0  0  0  0  0  0
  -25.9315  -11.6472   20.5768 N   0  0  0  0  0  0
  -22.0579  -12.8122   22.0443 N   0  0  0  0  0  0
  -25.4304  -15.1864   20.4053 N   0  0  0  0  0  0
  -31.9135  -14.5093   20.1635 O   0  0  0  0  0  0
  -21.6638   -6.8851   21.4229 O   0  0  0  0  0  0
  -22.3509  -14.5523   20.6774 O   0  0  0  0  0  0
  -24.6100  -31.8723   23.2163 C   0  0  0  0  0  0
  -25.9019  -32.4846   23.8432 C   0  0  1  0  0  0
  -27.2270  -27.4713   20.0827 C   0  0  0  0  0  0
  -25.5902  -33.8646   24.2361 N   0  0  0  0  0  0
  -23.3950  -30.4987   21.5559 C   0  0  2  0  0  0
  -24.8388  -28.9695   20.1205 C   0  0  0  0  0  0
  -22.7368  -29.4690   22.5011 C   0  0  0  0  0  0
  -18.0274  -28.1372   22.8496 C   0  0  0  0  0  0
  -24.1494  -36.7312   23.2638 C   0  0  0  0  0  0
  -25.9212  -30.8476   21.3664 C   0  0  0  0  0  0
  -25.9984  -29.4854   20.7119 C   0  0  0  0  0  0
  -27.1979  -28.7424   20.6924 C   0  0  0  0  0  0
  -26.0511  -26.9637   19.4880 C   0  0  0  0  0  0
  -24.8568  -27.7050   19.5103 C   0  0  0  0  0  0
  -23.6013  -29.8343   20.1692 C   0  0  0  0  0  0
  -25.4117  -36.3125   24.0337 C   0  0  1  0  0  0
  -20.5859  -28.3658   23.1326 C   0  0  2  0  0  0
  -20.6776  -26.9402   22.5418 C   0  0  0  0  0  0
  -19.5755  -26.6388   21.5213 C   0  0  0  0  0  0
  -18.1928  -26.7924   22.1620 C   0  0  0  0  0  0
  -19.1520  -28.8830   23.2911 C   0  0  0  0  0  0
  -18.9452  -30.1436   23.8919 C   0  0  0  0  0  0
  -17.6459  -30.6581   24.0572 C   0  0  0  0  0  0
  -25.9034  -34.9486   23.5140 C   0  0  0  0  0  0
  -16.5348  -29.9087   23.6327 C   0  0  0  0  0  0
  -16.7266  -28.6500   23.0349 C   0  0  0  0  0  0
  -26.4478  -31.6597   25.0721 C   0  0  0  0  0  0
  -25.3767  -31.3665   26.1474 C   0  0  0  0  0  0
  -27.0302  -30.3052   24.6047 C   0  0  0  0  0  0
  -27.6074  -32.4295   25.7471 C   0  0  0  0  0  0
  -27.5587  -37.1806   24.8462 C   0  0  0  0  0  0
  -21.4104  -29.3035   22.3731 N   0  0  0  0  0  0
  -26.4304  -37.3797   23.9402 N   0  0  0  0  0  0
  -24.6599  -31.0853   22.1057 N   0  0  0  0  0  0
  -23.4156  -28.8230   23.3039 O   0  0  0  0  0  0
  -28.4027  -26.7645   20.0433 O   0  0  0  0  0  0
  -26.5580  -34.8924   22.4690 O   0  0  0  0  0  0
  -23.5303  -32.1459   23.7584 O   0  0  0  0  0  0
  -31.0661  -17.1364   19.2669 C   0  0  0  0  0  0
  -31.4523  -18.4492   18.9455 C   0  0  0  0  0  0
  -30.0275  -17.9233   21.3272 C   0  0  0  0  0  0
  -30.3778  -16.8503   20.4752 C   0  0  0  0  0  0
  -31.1524  -19.5034   19.8251 C   0  0  0  0  0  0
  -30.4334  -19.2413   21.0154 C   0  0  0  0  0  0
  -28.9957  -22.3336   21.1397 C   0  0  0  0  0  0
  -28.0509  -24.3324   19.9163 C   0  0  0  0  0  0
  -27.7272  -23.0250   20.6376 C   0  0  0  0  0  0
  -28.8441  -20.9029   21.6637 C   0  0  0  0  0  0
  -28.3947  -25.5475   20.7929 C   0  0  0  0  0  0
  -31.5692  -20.7996   19.5160 N   0  0  0  0  0  0
  -30.0226  -15.5114   20.8319 N   0  0  0  0  0  0
  -30.1525  -20.2928   21.8935 N   0  0  0  0  0  0
  -30.1137  -22.8678   21.1261 O   0  0  0  0  0  0
  -28.0080  -24.4031   18.6823 O   0  0  0  0  0  0
  -31.4577  -12.3025   19.1418 H   0  0  0  0  0  0
  -30.2628  -11.2451   19.8353 H   0  0  0  0  0  0
  -29.7170  -11.7568   17.4266 H   0  0  0  0  0  0
  -29.6797  -13.4664   17.7895 H   0  0  0  0  0  0
  -27.8133  -11.3033   18.8231 H   0  0  0  0  0  0
  -27.3614  -12.6316   17.7908 H   0  0  0  0  0  0
  -27.7036  -14.2505   19.5671 H   0  0  0  0  0  0
  -28.6561  -11.9819   21.3858 H   0  0  0  0  0  0
  -28.4869  -13.6501   21.8546 H   0  0  0  0  0  0
  -25.2789   -9.5607   22.4704 H   0  0  0  0  0  0
  -23.9973   -7.4613   22.7463 H   0  0  0  0  0  0
  -21.0834   -8.8769   19.8947 H   0  0  0  0  0  0
  -22.3737  -10.9631   19.6119 H   0  0  0  0  0  0
  -21.2031   -7.6129   23.9675 H   0  0  0  0  0  0
  -21.1474   -6.0532   25.9063 H   0  0  0  0  0  0
  -22.0610   -2.7588   23.2900 H   0  0  0  0  0  0
  -22.4271  -11.9754   22.4712 H   0  0  0  0  0  0
  -21.1196  -13.1055   22.2746 H   0  0  0  0  0  0
  -24.6726  -15.8513   20.5164 H   0  0  0  0  0  0
  -26.2840  -15.6190   20.0763 H   0  0  0  0  0  0
  -26.7079  -32.5576   23.1194 H   0  0  0  0  0  0
  -25.0092  -33.9837   25.0532 H   0  0  0  0  0  0
  -22.6829  -31.3155   21.4200 H   0  0  0  0  0  0
  -23.3760  -35.9638   23.3315 H   0  0  0  0  0  0
  -24.3590  -36.8905   22.2046 H   0  0  0  0  0  0
  -23.7237  -37.6517   23.6641 H   0  0  0  0  0  0
  -26.0315  -31.6193   20.6034 H   0  0  0  0  0  0
  -26.8101  -30.8978   21.9834 H   0  0  0  0  0  0
  -28.0965  -29.1406   21.1430 H   0  0  0  0  0  0
  -26.0455  -26.0098   18.9845 H   0  0  0  0  0  0
  -23.9651  -27.3055   19.0476 H   0  0  0  0  0  0
  -23.7129  -30.6116   19.4123 H   0  0  0  0  0  0
  -22.7255  -29.2551   19.8720 H   0  0  0  0  0  0
  -25.1299  -36.2000   25.0829 H   0  0  0  0  0  0
  -20.9957  -28.3234   24.1442 H   0  0  0  0  0  0
  -20.5703  -26.2262   23.3595 H   0  0  0  0  0  0
  -21.6646  -26.7472   22.1194 H   0  0  0  0  0  0
  -19.6928  -25.6307   21.1219 H   0  0  0  0  0  0
  -19.6710  -27.3222   20.6760 H   0  0  0  0  0  0
  -17.4208  -26.6684   21.4010 H   0  0  0  0  0  0
  -18.0334  -26.0054   22.9002 H   0  0  0  0  0  0
  -19.7931  -30.7246   24.2292 H   0  0  0  0  0  0
  -17.5017  -31.6266   24.5168 H   0  0  0  0  0  0
  -15.5352  -30.3003   23.7626 H   0  0  0  0  0  0
  -15.8663  -28.0826   22.7054 H   0  0  0  0  0  0
  -24.5961  -30.6992   25.7801 H   0  0  0  0  0  0
  -24.8938  -32.2799   26.4949 H   0  0  0  0  0  0
  -25.8143  -30.8815   27.0206 H   0  0  0  0  0  0
  -26.2814  -29.6799   24.1164 H   0  0  0  0  0  0
  -27.4164  -29.7297   25.4470 H   0  0  0  0  0  0
  -27.8616  -30.4389   23.9123 H   0  0  0  0  0  0
  -27.2723  -33.3588   26.2089 H   0  0  0  0  0  0
  -28.3867  -32.6849   25.0279 H   0  0  0  0  0  0
  -28.0756  -31.8378   26.5347 H   0  0  0  0  0  0
  -28.2603  -38.0108   24.7527 H   0  0  0  0  0  0
  -28.1090  -36.2637   24.6287 H   0  0  0  0  0  0
  -27.2294  -37.1441   25.8862 H   0  0  0  0  0  0
  -20.9251  -29.8743   21.6949 H   0  0  0  0  0  0
  -26.0201  -38.2870   24.1431 H   0  0  0  0  0  0
  -31.3281  -16.3511   18.5720 H   0  0  0  0  0  0
  -31.9943  -18.6304   18.0272 H   0  0  0  0  0  0
  -29.4896  -17.7396   22.2471 H   0  0  0  0  0  0
  -27.0682  -23.2254   21.4823 H   0  0  0  0  0  0
  -27.1990  -22.3550   19.9605 H   0  0  0  0  0  0
  -28.2434  -20.3291   20.9541 H   0  0  0  0  0  0
  -28.2855  -20.9341   22.5991 H   0  0  0  0  0  0
  -29.3911  -25.4054   21.2117 H   0  0  0  0  0  0
  -27.7044  -25.6086   21.6363 H   0  0  0  0  0  0
  -31.7549  -21.0172   18.5424 H   0  0  0  0  0  0
  -31.1326  -21.5743   20.0085 H   0  0  0  0  0  0
  -29.1136  -15.3591   21.2414 H   0  0  0  0  0  0
  -30.8423  -21.0320   21.7614 H   0  0  0  0  0  0
  1 25  1  0  0  0
  1 30  2  0  0  0
  1 83  1  0  0  0
  2  3  1  0  0  0
  2 25  1  0  0  0
  2 87  1  0  0  0
  2 88  1  0  0  0
  3  4  1  0  0  0
  3 89  1  0  0  0
  3 90  1  0  0  0
  4  5  1  0  0  0
  4 91  1  0  0  0
  4 92  1  0  0  0
  5  6  1  0  0  0
  5 26  1  0  0  0
  5 93  1  0  0  0
  6 25  1  0  0  0
  6 94  1  0  0  0
  6 95  1  0  0  0
  7  8  2  0  0  0
  7 26  1  0  0  0
  7 29  1  0  0  0
  8  9  1  0  0  0
  8 22  1  0  0  0
  9 10  1  0  0  0
  9 27  2  0  0  0
 10 11  2  0  0  0
 10 15  1  0  0  0
 11 12  1  0  0  0
 11 96  1  0  0  0
 12 13  2  0  0  0
 12 97  1  0  0  0
 13 14  1  0  0  0
 13 31  1  0  0  0
 14 15  2  0  0  0
 14 98  1  0  0  0
 15 99  1  0  0  0
 16 17  2  0  0  0
 16 21  1  0  0  0
 16 31  1  0  0  0
 17 18  1  0  0  0
 17100  1  0  0  0
 18 19  2  0  0  0
 18101  1  0  0  0
 19 20  1  0  0  0
 19 24  1  0  0  0
 20 21  2  0  0  0
 20102  1  0  0  0
 21 23  1  0  0  0
 22 28  1  0  0  0
 22 32  2  0  0  0
 26 27  1  0  0  0
 28103  1  0  0  0
 28104  1  0  0  0
 29105  1  0  0  0
 29106  1  0  0  0
 33 34  1  0  0  0
 33 66  1  0  0  0
 33 70  2  0  0  0
 34 36  1  0  0  0
 34 59  1  0  0  0
 34107  1  0  0  0
 35 44  2  0  0  0
 35 45  1  0  0  0
 35 68  1  0  0  0
 36 56  1  0  0  0
 36108  1  0  0  0
 37 39  1  0  0  0
 37 47  1  0  0  0
 37 66  1  0  0  0
 37109  1  0  0  0
 38 43  2  0  0  0
 38 46  1  0  0  0
 38 47  1  0  0  0
 39 64  1  0  0  0
 39 67  2  0  0  0
 40 52  1  0  0  0
 40 53  2  0  0  0
 40 58  1  0  0  0
 41110  1  0  0  0
 41111  1  0  0  0
 41112  1  0  0  0
 41 48  1  0  0  0
 42 43  1  0  0  0
 42 66  1  0  0  0
 42113  1  0  0  0
 42114  1  0  0  0
 43 44  1  0  0  0
 44115  1  0  0  0
 45 46  2  0  0  0
 45116  1  0  0  0
 46117  1  0  0  0
 47118  1  0  0  0
 47119  1  0  0  0
 48 56  1  0  0  0
 48 65  1  0  0  0
 48120  1  0  0  0
 49 50  1  0  0  0
 49 53  1  0  0  0
 49 64  1  0  0  0
 49121  1  0  0  0
 50 51  1  0  0  0
 50122  1  0  0  0
 50123  1  0  0  0
 51 52  1  0  0  0
 51124  1  0  0  0
 51125  1  0  0  0
 52126  1  0  0  0
 52127  1  0  0  0
 53 54  1  0  0  0
 54 55  2  0  0  0
 54128  1  0  0  0
 55 57  1  0  0  0
 55129  1  0  0  0
 56 69  2  0  0  0
 57 58  2  0  0  0
 57130  1  0  0  0
 58131  1  0  0  0
 59 60  1  0  0  0
 59 61  1  0  0  0
 59 62  1  0  0  0
 60132  1  0  0  0
 60133  1  0  0  0
 60134  1  0  0  0
 61135  1  0  0  0
 61136  1  0  0  0
 61137  1  0  0  0
 62138  1  0  0  0
 62139  1  0  0  0
 62140  1  0  0  0
 63 65  1  0  0  0
 63141  1  0  0  0
 63142  1  0  0  0
 63143  1  0  0  0
 64144  1  0  0  0
 65145  1  0  0  0
 68 81  1  0  0  0
 71 72  2  0  0  0
 71 74  1  0  0  0
 71146  1  0  0  0
 72 75  1  0  0  0
 72147  1  0  0  0
 73 74  2  0  0  0
 73 76  1  0  0  0
 73148  1  0  0  0
 74 83  1  0  0  0
 75 76  2  0  0  0
 75 82  1  0  0  0
 76 84  1  0  0  0
 77 79  1  0  0  0
 77 80  1  0  0  0
 77 85  2  0  0  0
 78 79  1  0  0  0
 78 81  1  0  0  0
 78 86  2  0  0  0
 79149  1  0  0  0
 79150  1  0  0  0
 80 84  1  0  0  0
 80151  1  0  0  0
 80152  1  0  0  0
 81153  1  0  0  0
 81154  1  0  0  0
 82155  1  0  0  0
 82156  1  0  0  0
 83157  1  0  0  0
 84158  1  0  0  0
M  ISO  4   1 100  68 101  81 101  83 100
M  END
> <chiral flag>
0

> <version>
0

> <s_m_source_file>
/data/baiqing/PycharmProjects/Reinvent-master-3.2/result/LINK_invent/BTK/process_docking_weight1_custom_product_contain_oxygen_bond_distance_aromatic_linkinvent_7_9_3/rearranged_h_0168.sdf

> <i_m_source_file_index>
2

> <r_mmod_Potential_Energy-OPLS-2005>
-166.903930664062

> <r_mmod_Stretch_Energy-OPLS-2005>
33.0546073913574

> <r_mmod_Bend_Energy-OPLS-2005>
90.4013748168945

> <r_mmod_Torsional_Energy-OPLS-2005>
268.702514648438

> <r_mmod_Improper_Torsional_Energy-OPLS-2005>
14.5204343795776

> <r_mmod_Van_der_Waal_Energy-OPLS-2005>
171.139907836914

> <r_mmod_Electrostatic_Energy-OPLS-2005>
-507.777648925781

> <r_mmod_Solvation_Energy-OPLS-2005>
-252.459747314453

> <b_mmod_Minimization_Converged-OPLS-2005>
0

> <r_mmod_RMS_Derivative-OPLS-2005>
2.54418349266052

$$$$
2
                    3D
 Structure written by MMmdl.
163171  0  0  1  0            999 V2000
  -30.7211  -14.4377   20.5024 C   0  0  0  0  0  0
  -30.4190  -12.2618   19.4254 C   0  0  0  0  0  0
  -29.4998  -12.4846   18.2064 C   0  0  0  0  0  0
  -28.0180  -12.3643   18.6136 C   0  0  0  0  0  0
  -27.6635  -13.2083   19.8667 C   0  0  2  0  0  0
  -28.7066  -13.0071   20.9908 C   0  0  0  0  0  0
  -25.2586  -13.8160   20.5658 C   0  0  0  0  0  0
  -24.1827  -13.0446   20.9149 C   0  0  0  0  0  0
  -24.6391  -11.6913   20.8681 C   0  0  0  0  0  0
  -23.9059  -10.4291   21.0358 C   0  0  0  0  0  0
  -24.3604   -9.4219   21.9141 C   0  0  0  0  0  0
  -23.6275   -8.2259   22.0740 C   0  0  0  0  0  0
  -22.4264   -8.0276   21.3545 C   0  0  0  0  0  0
  -21.9882   -9.0242   20.4654 C   0  0  0  0  0  0
  -22.7220  -10.2106   20.3040 C   0  0  0  0  0  0
  -21.6852   -6.0720   22.5261 C   0  0  0  0  0  0
  -21.4021   -6.5619   23.8204 C   0  0  0  0  0  0
  -21.3661   -5.6782   24.9159 C   0  0  0  0  0  0
  -21.6038   -4.3041   24.7210 C   0  0  0  0  0  0
  -21.8832   -3.8143   23.4336 C   0  0  0  0  0  0
  -21.9185   -4.6954   22.3392 C   0  0  0  0  0  0
  -22.7868  -13.5266   21.1822 C   0  0  0  0  0  0
  -22.1670   -4.2154   21.0973 F   0  0  0  0  0  0
  -21.5622   -3.4529   25.7720 F   0  0  0  0  0  0
  -30.0430  -13.2632   20.4334 N   0  0  0  0  0  0
  -26.3029  -12.9336   20.3315 N   0  0  0  0  0  0
  -25.9316  -11.6492   20.5708 N   0  0  0  0  0  0
  -22.0493  -12.8278   22.0349 N   0  0  0  0  0  0
  -25.4334  -15.1873   20.4089 N   0  0  0  0  0  0
  -31.8996  -14.5495   20.1704 O   0  0  0  0  0  0
  -21.6652   -6.8858   21.4228 O   0  0  0  0  0  0
  -22.3567  -14.5585   20.6689 O   0  0  0  0  0  0
  -24.6141  -31.8711   23.2139 C   0  0  0  0  0  0
  -25.9061  -32.4844   23.8397 C   0  0  1  0  0  0
  -27.2358  -27.4576   20.0564 C   0  0  0  0  0  0
  -25.5937  -33.8634   24.2338 N   0  0  0  0  0  0
  -23.3981  -30.4952   21.5571 C   0  0  2  0  0  0
  -24.8387  -28.9612   20.1223 C   0  0  0  0  0  0
  -22.7395  -29.4668   22.5050 C   0  0  0  0  0  0
  -18.0264  -28.1391   22.8498 C   0  0  0  0  0  0
  -24.1497  -36.7308   23.2632 C   0  0  0  0  0  0
  -25.9260  -30.8364   21.3650 C   0  0  0  0  0  0
  -25.9995  -29.4704   20.7155 C   0  0  0  0  0  0
  -27.1938  -28.7191   20.6927 C   0  0  0  0  0  0
  -26.0457  -26.9530   19.4852 C   0  0  0  0  0  0
  -24.8543  -27.6951   19.5162 C   0  0  0  0  0  0
  -23.6039  -29.8280   20.1715 C   0  0  0  0  0  0
  -25.4120  -36.3108   24.0329 C   0  0  1  0  0  0
  -20.5851  -28.3681   23.1355 C   0  0  2  0  0  0
  -20.6768  -26.9424   22.5431 C   0  0  0  0  0  0
  -19.5738  -26.6411   21.5235 C   0  0  0  0  0  0
  -18.1908  -26.7943   22.1638 C   0  0  0  0  0  0
  -19.1511  -28.8853   23.2918 C   0  0  0  0  0  0
  -18.9444  -30.1462   23.8928 C   0  0  0  0  0  0
  -17.6445  -30.6605   24.0578 C   0  0  0  0  0  0
  -25.9053  -34.9486   23.5126 C   0  0  0  0  0  0
  -16.5337  -29.9106   23.6323 C   0  0  0  0  0  0
  -16.7255  -28.6520   23.0343 C   0  0  0  0  0  0
  -26.4475  -31.6598   25.0705 C   0  0  0  0  0  0
  -25.3749  -31.3720   26.1465 C   0  0  0  0  0  0
  -27.0289  -30.3043   24.6060 C   0  0  0  0  0  0
  -27.6046  -32.4315   25.7469 C   0  0  0  0  0  0
  -27.5586  -37.1810   24.8465 C   0  0  0  0  0  0
  -21.4129  -29.3039   22.3772 N   0  0  0  0  0  0
  -26.4300  -37.3793   23.9397 N   0  0  0  0  0  0
  -24.6647  -31.0804   22.1041 N   0  0  0  0  0  0
  -23.4180  -28.8226   23.3100 O   0  0  0  0  0  0
  -28.4406  -26.7840   20.0351 O   0  0  0  0  0  0
  -26.5589  -34.8924   22.4674 O   0  0  0  0  0  0
  -23.5343  -32.1461   23.7543 O   0  0  0  0  0  0
  -29.0732  -17.7719   20.4412 C   0  0  0  0  0  0
  -30.0342  -19.3259   18.8175 C   0  0  0  0  0  0
  -31.0027  -17.1147   19.1082 C   0  0  0  0  0  0
  -29.0639  -19.0318   19.7967 C   0  0  0  0  0  0
  -30.0413  -16.7965   20.1080 C   0  0  0  0  0  0
  -30.9986  -18.3683   18.4737 C   0  0  0  0  0  0
  -27.8490  -22.4872   20.5983 C   0  0  0  0  0  0
  -26.9450  -19.9993   18.9259 C   0  0  0  0  0  0
  -28.5889  -26.5330   17.5601 C   0  0  0  0  0  0
  -28.5840  -23.8183   20.4554 C   0  0  0  0  0  0
  -28.2887  -24.4609   19.0870 C   0  0  0  0  0  0
  -27.9644  -20.0418   20.0821 C   0  0  2  0  0  0
  -28.8116  -25.9103   18.9561 C   0  0  2  0  0  0
  -29.9563  -15.5181   20.7512 N   0  0  0  0  0  0
  -28.5204  -21.3871   20.2387 N   0  0  0  0  0  0
  -26.6797  -22.4697   20.9846 O   0  0  0  0  0  0
  -31.9099  -18.6468   17.5133 F   0  0  0  0  0  0
  -31.4682  -12.3268   19.1294 H   0  0  0  0  0  0
  -30.2839  -11.2556   19.8249 H   0  0  0  0  0  0
  -29.7255  -11.7583   17.4242 H   0  0  0  0  0  0
  -29.6857  -13.4687   17.7717 H   0  0  0  0  0  0
  -27.8052  -11.3101   18.7995 H   0  0  0  0  0  0
  -27.3834  -12.6611   17.7801 H   0  0  0  0  0  0
  -27.7031  -14.2531   19.5563 H   0  0  0  0  0  0
  -28.6615  -11.9877   21.3738 H   0  0  0  0  0  0
  -28.4900  -13.6522   21.8427 H   0  0  0  0  0  0
  -25.2726   -9.5728   22.4729 H   0  0  0  0  0  0
  -23.9987   -7.4658   22.7465 H   0  0  0  0  0  0
  -21.0820   -8.8766   19.8958 H   0  0  0  0  0  0
  -22.3654  -10.9642   19.6182 H   0  0  0  0  0  0
  -21.2037   -7.6138   23.9701 H   0  0  0  0  0  0
  -21.1469   -6.0510   25.9059 H   0  0  0  0  0  0
  -22.0612   -2.7602   23.2832 H   0  0  0  0  0  0
  -22.4127  -11.9964   22.4751 H   0  0  0  0  0  0
  -21.1130  -13.1321   22.2574 H   0  0  0  0  0  0
  -24.6702  -15.8440   20.5196 H   0  0  0  0  0  0
  -26.2911  -15.6197   20.0871 H   0  0  0  0  0  0
  -26.7133  -32.5541   23.1155 H   0  0  0  0  0  0
  -25.0103  -33.9794   25.0493 H   0  0  0  0  0  0
  -22.6855  -31.3117   21.4230 H   0  0  0  0  0  0
  -23.3745  -35.9654   23.3322 H   0  0  0  0  0  0
  -24.3582  -36.8892   22.2038 H   0  0  0  0  0  0
  -23.7276  -37.6531   23.6629 H   0  0  0  0  0  0
  -26.0344  -31.5990   20.5925 H   0  0  0  0  0  0
  -26.8165  -30.8925   21.9778 H   0  0  0  0  0  0
  -28.0938  -29.1176   21.1406 H   0  0  0  0  0  0
  -26.0083  -25.9963   18.9994 H   0  0  0  0  0  0
  -23.9562  -27.2880   19.0713 H   0  0  0  0  0  0
  -23.7186  -30.6033   19.4142 H   0  0  0  0  0  0
  -22.7255  -29.2520   19.8735 H   0  0  0  0  0  0
  -25.1300  -36.1961   25.0819 H   0  0  0  0  0  0
  -20.9917  -28.3235   24.1488 H   0  0  0  0  0  0
  -20.5720  -26.2267   23.3610 H   0  0  0  0  0  0
  -21.6638  -26.7509   22.1204 H   0  0  0  0  0  0
  -19.6904  -25.6329   21.1238 H   0  0  0  0  0  0
  -19.6678  -27.3242   20.6779 H   0  0  0  0  0  0
  -17.4190  -26.6705   21.4029 H   0  0  0  0  0  0
  -18.0298  -26.0085   22.9032 H   0  0  0  0  0  0
  -19.7926  -30.7280   24.2294 H   0  0  0  0  0  0
  -17.5007  -31.6282   24.5208 H   0  0  0  0  0  0
  -15.5343  -30.3031   23.7650 H   0  0  0  0  0  0
  -15.8644  -28.0875   22.7030 H   0  0  0  0  0  0
  -24.5901  -30.7091   25.7812 H   0  0  0  0  0  0
  -24.8967  -32.2891   26.4916 H   0  0  0  0  0  0
  -25.8105  -30.8879   27.0217 H   0  0  0  0  0  0
  -26.2815  -29.6820   24.1129 H   0  0  0  0  0  0
  -27.4087  -29.7262   25.4490 H   0  0  0  0  0  0
  -27.8638  -30.4356   23.9173 H   0  0  0  0  0  0
  -27.2652  -33.3597   26.2073 H   0  0  0  0  0  0
  -28.3834  -32.6913   25.0289 H   0  0  0  0  0  0
  -28.0736  -31.8431   26.5361 H   0  0  0  0  0  0
  -28.2623  -38.0092   24.7500 H   0  0  0  0  0  0
  -28.1066  -36.2624   24.6309 H   0  0  0  0  0  0
  -27.2293  -37.1487   25.8866 H   0  0  0  0  0  0
  -20.9303  -29.8746   21.6974 H   0  0  0  0  0  0
  -26.0188  -38.2869   24.1393 H   0  0  0  0  0  0
  -28.3134  -17.5533   21.1789 H   0  0  0  0  0  0
  -30.0226  -20.2683   18.2886 H   0  0  0  0  0  0
  -31.7504  -16.4119   18.7702 H   0  0  0  0  0  0
  -26.5431  -18.9940   18.7943 H   0  0  0  0  0  0
  -27.4029  -20.2913   17.9811 H   0  0  0  0  0  0
  -26.0987  -20.6621   19.1009 H   0  0  0  0  0  0
  -29.0911  -25.9459   16.7887 H   0  0  0  0  0  0
  -28.9964  -27.5435   17.5149 H   0  0  0  0  0  0
  -27.5380  -26.5897   17.2843 H   0  0  0  0  0  0
  -29.6590  -23.6910   20.5980 H   0  0  0  0  0  0
  -28.2413  -24.4766   21.2544 H   0  0  0  0  0  0
  -27.2276  -24.3835   18.8686 H   0  0  0  0  0  0
  -28.7649  -23.8514   18.3157 H   0  0  0  0  0  0
  -27.4663  -19.7635   21.0126 H   0  0  0  0  0  0
  -29.8948  -25.8375   19.0596 H   0  0  0  0  0  0
  -29.0778  -15.3086   21.1968 H   0  0  0  0  0  0
  -29.4957  -21.4958   20.0013 H   0  0  0  0  0  0
  1 25  1  0  0  0
  1 30  2  0  0  0
  1 84  1  0  0  0
  2  3  1  0  0  0
  2 25  1  0  0  0
  2 88  1  0  0  0
  2 89  1  0  0  0
  3  4  1  0  0  0
  3 90  1  0  0  0
  3 91  1  0  0  0
  4  5  1  0  0  0
  4 92  1  0  0  0
  4 93  1  0  0  0
  5  6  1  0  0  0
  5 26  1  0  0  0
  5 94  1  0  0  0
  6 25  1  0  0  0
  6 95  1  0  0  0
  6 96  1  0  0  0
  7  8  2  0  0  0
  7 26  1  0  0  0
  7 29  1  0  0  0
  8  9  1  0  0  0
  8 22  1  0  0  0
  9 10  1  0  0  0
  9 27  2  0  0  0
 10 11  2  0  0  0
 10 15  1  0  0  0
 11 12  1  0  0  0
 11 97  1  0  0  0
 12 13  2  0  0  0
 12 98  1  0  0  0
 13 14  1  0  0  0
 13 31  1  0  0  0
 14 15  2  0  0  0
 14 99  1  0  0  0
 15100  1  0  0  0
 16 17  2  0  0  0
 16 21  1  0  0  0
 16 31  1  0  0  0
 17 18  1  0  0  0
 17101  1  0  0  0
 18 19  2  0  0  0
 18102  1  0  0  0
 19 20  1  0  0  0
 19 24  1  0  0  0
 20 21  2  0  0  0
 20103  1  0  0  0
 21 23  1  0  0  0
 22 28  1  0  0  0
 22 32  2  0  0  0
 26 27  1  0  0  0
 28104  1  0  0  0
 28105  1  0  0  0
 29106  1  0  0  0
 29107  1  0  0  0
 33 34  1  0  0  0
 33 66  1  0  0  0
 33 70  2  0  0  0
 34 36  1  0  0  0
 34 59  1  0  0  0
 34108  1  0  0  0
 35 44  2  0  0  0
 35 45  1  0  0  0
 35 68  1  0  0  0
 36 56  1  0  0  0
 36109  1  0  0  0
 37 39  1  0  0  0
 37 47  1  0  0  0
 37 66  1  0  0  0
 37110  1  0  0  0
 38 43  2  0  0  0
 38 46  1  0  0  0
 38 47  1  0  0  0
 39 64  1  0  0  0
 39 67  2  0  0  0
 40 52  1  0  0  0
 40 53  2  0  0  0
 40 58  1  0  0  0
 41111  1  0  0  0
 41112  1  0  0  0
 41113  1  0  0  0
 41 48  1  0  0  0
 42 43  1  0  0  0
 42 66  1  0  0  0
 42114  1  0  0  0
 42115  1  0  0  0
 43 44  1  0  0  0
 44116  1  0  0  0
 45 46  2  0  0  0
 45117  1  0  0  0
 46118  1  0  0  0
 47119  1  0  0  0
 47120  1  0  0  0
 48 56  1  0  0  0
 48 65  1  0  0  0
 48121  1  0  0  0
 49 50  1  0  0  0
 49 53  1  0  0  0
 49 64  1  0  0  0
 49122  1  0  0  0
 50 51  1  0  0  0
 50123  1  0  0  0
 50124  1  0  0  0
 51 52  1  0  0  0
 51125  1  0  0  0
 51126  1  0  0  0
 52127  1  0  0  0
 52128  1  0  0  0
 53 54  1  0  0  0
 54 55  2  0  0  0
 54129  1  0  0  0
 55 57  1  0  0  0
 55130  1  0  0  0
 56 69  2  0  0  0
 57 58  2  0  0  0
 57131  1  0  0  0
 58132  1  0  0  0
 59 60  1  0  0  0
 59 61  1  0  0  0
 59 62  1  0  0  0
 60133  1  0  0  0
 60134  1  0  0  0
 60135  1  0  0  0
 61136  1  0  0  0
 61137  1  0  0  0
 61138  1  0  0  0
 62139  1  0  0  0
 62140  1  0  0  0
 62141  1  0  0  0
 63 65  1  0  0  0
 63142  1  0  0  0
 63143  1  0  0  0
 63144  1  0  0  0
 64145  1  0  0  0
 65146  1  0  0  0
 68 83  1  0  0  0
 71 74  2  0  0  0
 71 75  1  0  0  0
 71147  1  0  0  0
 72 74  1  0  0  0
 72 76  2  0  0  0
 72148  1  0  0  0
 73 75  2  0  0  0
 73 76  1  0  0  0
 73149  1  0  0  0
 74 82  1  0  0  0
 75 84  1  0  0  0
 76 87  1  0  0  0
 77 80  1  0  0  0
 77 85  1  0  0  0
 77 86  2  0  0  0
 78150  1  0  0  0
 78151  1  0  0  0
 78152  1  0  0  0
 78 82  1  0  0  0
 79153  1  0  0  0
 79154  1  0  0  0
 79155  1  0  0  0
 79 83  1  0  0  0
 80 81  1  0  0  0
 80156  1  0  0  0
 80157  1  0  0  0
 81 83  1  0  0  0
 81158  1  0  0  0
 81159  1  0  0  0
 82 85  1  0  0  0
 82160  1  0  0  0
 83161  1  0  0  0
 84162  1  0  0  0
 85163  1  0  0  0
M  ISO  4   1 100  68 101  83 101  84 100
M  END
> <chiral flag>
0

> <version>
0

> <s_m_source_file>
/data/baiqing/PycharmProjects/Reinvent-master-3.2/result/LINK_invent/BTK/process_docking_weight1_custom_product_contain_oxygen_bond_distance_aromatic_linkinvent_7_9_3/rearranged_h_0168.sdf

> <i_m_source_file_index>
3

> <r_mmod_Potential_Energy-OPLS-2005>
-158.988418579102

> <r_mmod_Stretch_Energy-OPLS-2005>
34.8546943664551

> <r_mmod_Bend_Energy-OPLS-2005>
109.799240112305

> <r_mmod_Torsional_Energy-OPLS-2005>
229.022064208984

> <r_mmod_Improper_Torsional_Energy-OPLS-2005>
6.46551656723022

> <r_mmod_Van_der_Waal_Energy-OPLS-2005>
160.24169921875

> <r_mmod_Electrostatic_Energy-OPLS-2005>
-490.655639648438

> <r_mmod_Solvation_Energy-OPLS-2005>
-225.037780761719

> <b_mmod_Minimization_Converged-OPLS-2005>
0

> <r_mmod_RMS_Derivative-OPLS-2005>
4.08351755142212

$$$$
3
                    3D
 Structure written by MMmdl.
155163  0  0  1  0            999 V2000
  -30.6515  -14.5833   20.4831 C   0  0  0  0  0  0
  -30.4272  -12.3485   19.4551 C   0  0  0  0  0  0
  -29.5022  -12.4774   18.2251 C   0  0  0  0  0  0
  -28.0231  -12.3403   18.6356 C   0  0  0  0  0  0
  -27.6531  -13.2110   19.8659 C   0  0  2  0  0  0
  -28.6963  -13.0626   20.9971 C   0  0  0  0  0  0
  -25.2558  -13.8168   20.5672 C   0  0  0  0  0  0
  -24.1818  -13.0444   20.9182 C   0  0  0  0  0  0
  -24.6377  -11.6909   20.8744 C   0  0  0  0  0  0
  -23.9047  -10.4292   21.0404 C   0  0  0  0  0  0
  -24.3606   -9.4211   21.9178 C   0  0  0  0  0  0
  -23.6291   -8.2240   22.0748 C   0  0  0  0  0  0
  -22.4277   -8.0274   21.3536 C   0  0  0  0  0  0
  -21.9901   -9.0245   20.4639 C   0  0  0  0  0  0
  -22.7219  -10.2131   20.3052 C   0  0  0  0  0  0
  -21.6857   -6.0725   22.5274 C   0  0  0  0  0  0
  -21.4014   -6.5628   23.8207 C   0  0  0  0  0  0
  -21.3655   -5.6783   24.9167 C   0  0  0  0  0  0
  -21.6047   -4.3049   24.7221 C   0  0  0  0  0  0
  -21.8823   -3.8139   23.4341 C   0  0  0  0  0  0
  -21.9193   -4.6951   22.3398 C   0  0  0  0  0  0
  -22.7841  -13.5240   21.1844 C   0  0  0  0  0  0
  -22.1668   -4.2139   21.0974 F   0  0  0  0  0  0
  -21.5626   -3.4532   25.7733 F   0  0  0  0  0  0
  -30.0199  -13.3721   20.4357 N   0  0  0  0  0  0
  -26.2980  -12.9335   20.3339 N   0  0  0  0  0  0
  -25.9306  -11.6498   20.5782 N   0  0  0  0  0  0
  -22.0483  -12.8233   22.0399 N   0  0  0  0  0  0
  -25.4299  -15.1882   20.4067 N   0  0  0  0  0  0
  -31.8138  -14.7236   20.0879 O   0  0  0  0  0  0
  -21.6645   -6.8869   21.4239 O   0  0  0  0  0  0
  -22.3527  -14.5547   20.6696 O   0  0  0  0  0  0
  -24.6202  -31.8628   23.2051 C   0  0  0  0  0  0
  -25.9073  -32.4791   23.8364 C   0  0  1  0  0  0
  -27.2325  -27.3692   20.1039 C   0  0  0  0  0  0
  -25.5907  -33.8592   24.2297 N   0  0  0  0  0  0
  -23.4111  -30.4860   21.5457 C   0  0  2  0  0  0
  -24.8572  -28.9434   20.1081 C   0  0  0  0  0  0
  -22.7438  -29.4637   22.4948 C   0  0  0  0  0  0
  -18.0279  -28.1390   22.8479 C   0  0  0  0  0  0
  -24.1486  -36.7304   23.2638 C   0  0  0  0  0  0
  -25.9449  -30.8069   21.3682 C   0  0  0  0  0  0
  -26.0181  -29.4362   20.7146 C   0  0  0  0  0  0
  -27.2024  -28.6541   20.7136 C   0  0  0  0  0  0
  -26.0495  -26.9086   19.4831 C   0  0  0  0  0  0
  -24.8707  -27.6813   19.4891 C   0  0  0  0  0  0
  -23.6227  -29.8187   20.1596 C   0  0  0  0  0  0
  -25.4108  -36.3092   24.0333 C   0  0  1  0  0  0
  -20.5871  -28.3684   23.1293 C   0  0  2  0  0  0
  -20.6770  -26.9413   22.5413 C   0  0  0  0  0  0
  -19.5753  -26.6389   21.5207 C   0  0  0  0  0  0
  -18.1929  -26.7932   22.1615 C   0  0  0  0  0  0
  -19.1529  -28.8854   23.2881 C   0  0  0  0  0  0
  -18.9458  -30.1456   23.8898 C   0  0  0  0  0  0
  -17.6462  -30.6589   24.0569 C   0  0  0  0  0  0
  -25.9041  -34.9461   23.5115 C   0  0  0  0  0  0
  -16.5352  -29.9094   23.6331 C   0  0  0  0  0  0
  -16.7268  -28.6515   23.0341 C   0  0  0  0  0  0
  -26.4487  -31.6587   25.0713 C   0  0  0  0  0  0
  -25.3741  -31.3713   26.1455 C   0  0  0  0  0  0
  -27.0325  -30.3021   24.6127 C   0  0  0  0  0  0
  -27.6058  -32.4314   25.7474 C   0  0  0  0  0  0
  -27.5579  -37.1804   24.8465 C   0  0  0  0  0  0
  -21.4159  -29.3036   22.3685 N   0  0  0  0  0  0
  -26.4291  -37.3782   23.9408 N   0  0  0  0  0  0
  -24.6771  -31.0682   22.0976 N   0  0  0  0  0  0
  -23.4182  -28.8183   23.3017 O   0  0  0  0  0  0
  -28.3912  -26.5986   20.1771 O   0  0  0  0  0  0
  -26.5607  -34.8925   22.4681 O   0  0  0  0  0  0
  -23.5380  -32.1406   23.7417 O   0  0  0  0  0  0
  -28.9488  -17.6371   17.8167 C   0  0  0  0  0  0
  -29.2510  -16.5781   18.6762 C   0  0  0  0  0  0
  -29.0561  -18.9563   18.2839 C   0  0  0  0  0  0
  -29.6649  -16.8270   19.9988 C   0  0  0  0  0  0
  -29.4326  -19.1937   19.6315 C   0  0  0  0  0  0
  -29.0498  -22.8861   19.8282 C   0  0  0  0  0  0
  -28.2775  -24.0118   19.9643 C   0  0  0  0  0  0
  -28.6835  -21.5164   20.2629 C   0  0  0  0  0  0
  -28.7697  -20.0845   17.2996 C   0  0  0  0  0  0
  -28.5967  -25.4104   19.3581 C   0  0  0  0  0  0
  -29.7280  -18.1266   20.4531 N   0  0  0  0  0  0
  -29.6322  -20.5779   19.9953 N   0  0  0  0  0  0
  -29.8858  -15.6590   20.8216 N   0  0  0  0  0  0
  -27.6157  -21.2344   20.8156 O   0  0  0  0  0  0
  -27.0985  -24.0369   20.6074 O   0  0  0  0  0  0
  -31.4706  -12.4515   19.1522 H   0  0  0  0  0  0
  -30.3430  -11.3544   19.8964 H   0  0  0  0  0  0
  -29.7521  -11.7142   17.4871 H   0  0  0  0  0  0
  -29.6654  -13.4348   17.7311 H   0  0  0  0  0  0
  -27.8453  -11.2890   18.8648 H   0  0  0  0  0  0
  -27.3732  -12.5791   17.7932 H   0  0  0  0  0  0
  -27.6691  -14.2453   19.5275 H   0  0  0  0  0  0
  -28.6888  -12.0462   21.3933 H   0  0  0  0  0  0
  -28.4508  -13.7131   21.8379 H   0  0  0  0  0  0
  -25.2751   -9.5693   22.4757 H   0  0  0  0  0  0
  -23.9997   -7.4636   22.7475 H   0  0  0  0  0  0
  -21.0822   -8.8762   19.8954 H   0  0  0  0  0  0
  -22.3667  -10.9672   19.6167 H   0  0  0  0  0  0
  -21.2016   -7.6140   23.9701 H   0  0  0  0  0  0
  -21.1474   -6.0517   25.9067 H   0  0  0  0  0  0
  -22.0610   -2.7601   23.2848 H   0  0  0  0  0  0
  -22.4110  -11.9911   22.4806 H   0  0  0  0  0  0
  -21.1101  -13.1262   22.2607 H   0  0  0  0  0  0
  -24.6612  -15.8432   20.5045 H   0  0  0  0  0  0
  -26.2779  -15.6241   20.0673 H   0  0  0  0  0  0
  -26.7135  -32.5484   23.1111 H   0  0  0  0  0  0
  -25.0060  -33.9744   25.0444 H   0  0  0  0  0  0
  -22.7023  -31.3044   21.4044 H   0  0  0  0  0  0
  -23.3743  -35.9644   23.3314 H   0  0  0  0  0  0
  -24.3575  -36.8910   22.2049 H   0  0  0  0  0  0
  -23.7250  -37.6516   23.6649 H   0  0  0  0  0  0
  -26.0656  -31.5699   20.5980 H   0  0  0  0  0  0
  -26.8302  -30.8601   21.9904 H   0  0  0  0  0  0
  -28.0943  -29.0257   21.1984 H   0  0  0  0  0  0
  -26.0093  -25.9355   19.0169 H   0  0  0  0  0  0
  -23.9765  -27.2944   19.0201 H   0  0  0  0  0  0
  -23.7379  -30.5949   19.4020 H   0  0  0  0  0  0
  -22.7440  -29.2446   19.8600 H   0  0  0  0  0  0
  -25.1286  -36.1949   25.0825 H   0  0  0  0  0  0
  -20.9962  -28.3267   24.1413 H   0  0  0  0  0  0
  -20.5669  -26.2295   23.3606 H   0  0  0  0  0  0
  -21.6644  -26.7451   22.1212 H   0  0  0  0  0  0
  -19.6917  -25.6301   21.1235 H   0  0  0  0  0  0
  -19.6694  -27.3201   20.6739 H   0  0  0  0  0  0
  -17.4196  -26.6672   21.4020 H   0  0  0  0  0  0
  -18.0334  -26.0077   22.9016 H   0  0  0  0  0  0
  -19.7937  -30.7270   24.2265 H   0  0  0  0  0  0
  -17.5020  -31.6267   24.5176 H   0  0  0  0  0  0
  -15.5355  -30.2999   23.7660 H   0  0  0  0  0  0
  -15.8664  -28.0845   22.7046 H   0  0  0  0  0  0
  -24.5912  -30.7060   25.7797 H   0  0  0  0  0  0
  -24.8934  -32.2877   26.4894 H   0  0  0  0  0  0
  -25.8085  -30.8888   27.0219 H   0  0  0  0  0  0
  -26.2883  -29.6764   24.1184 H   0  0  0  0  0  0
  -27.4083  -29.7276   25.4604 H   0  0  0  0  0  0
  -27.8724  -30.4328   23.9298 H   0  0  0  0  0  0
  -27.2676  -33.3606   26.2076 H   0  0  0  0  0  0
  -28.3855  -32.6888   25.0291 H   0  0  0  0  0  0
  -28.0740  -31.8421   26.5369 H   0  0  0  0  0  0
  -28.2604  -38.0093   24.7503 H   0  0  0  0  0  0
  -28.1066  -36.2625   24.6299 H   0  0  0  0  0  0
  -27.2296  -37.1470   25.8868 H   0  0  0  0  0  0
  -20.9328  -29.8749   21.6893 H   0  0  0  0  0  0
  -26.0177  -38.2859   24.1408 H   0  0  0  0  0  0
  -28.6475  -17.4306   16.7995 H   0  0  0  0  0  0
  -29.1582  -15.5739   18.2918 H   0  0  0  0  0  0
  -29.9923  -23.0072   19.3118 H   0  0  0  0  0  0
  -28.6534  -19.7074   16.2827 H   0  0  0  0  0  0
  -29.5836  -20.8103   17.2828 H   0  0  0  0  0  0
  -27.8467  -20.6006   17.5653 H   0  0  0  0  0  0
  -28.0977  -25.5071   18.3932 H   0  0  0  0  0  0
  -29.6596  -25.4086   19.1136 H   0  0  0  0  0  0
  -30.5099  -20.9596   19.6759 H   0  0  0  0  0  0
  -29.0856  -15.4111   21.3808 H   0  0  0  0  0  0
  -26.9240  -23.1536   20.9189 H   0  0  0  0  0  0
  1 25  1  0  0  0
  1 30  2  0  0  0
  1 83  1  0  0  0
  2  3  1  0  0  0
  2 25  1  0  0  0
  2 86  1  0  0  0
  2 87  1  0  0  0
  3  4  1  0  0  0
  3 88  1  0  0  0
  3 89  1  0  0  0
  4  5  1  0  0  0
  4 90  1  0  0  0
  4 91  1  0  0  0
  5  6  1  0  0  0
  5 26  1  0  0  0
  5 92  1  0  0  0
  6 25  1  0  0  0
  6 93  1  0  0  0
  6 94  1  0  0  0
  7  8  2  0  0  0
  7 26  1  0  0  0
  7 29  1  0  0  0
  8  9  1  0  0  0
  8 22  1  0  0  0
  9 10  1  0  0  0
  9 27  2  0  0  0
 10 11  2  0  0  0
 10 15  1  0  0  0
 11 12  1  0  0  0
 11 95  1  0  0  0
 12 13  2  0  0  0
 12 96  1  0  0  0
 13 14  1  0  0  0
 13 31  1  0  0  0
 14 15  2  0  0  0
 14 97  1  0  0  0
 15 98  1  0  0  0
 16 17  2  0  0  0
 16 21  1  0  0  0
 16 31  1  0  0  0
 17 18  1  0  0  0
 17 99  1  0  0  0
 18 19  2  0  0  0
 18100  1  0  0  0
 19 20  1  0  0  0
 19 24  1  0  0  0
 20 21  2  0  0  0
 20101  1  0  0  0
 21 23  1  0  0  0
 22 28  1  0  0  0
 22 32  2  0  0  0
 26 27  1  0  0  0
 28102  1  0  0  0
 28103  1  0  0  0
 29104  1  0  0  0
 29105  1  0  0  0
 33 34  1  0  0  0
 33 66  1  0  0  0
 33 70  2  0  0  0
 34 36  1  0  0  0
 34 59  1  0  0  0
 34106  1  0  0  0
 35 44  2  0  0  0
 35 45  1  0  0  0
 35 68  1  0  0  0
 36 56  1  0  0  0
 36107  1  0  0  0
 37 39  1  0  0  0
 37 47  1  0  0  0
 37 66  1  0  0  0
 37108  1  0  0  0
 38 43  2  0  0  0
 38 46  1  0  0  0
 38 47  1  0  0  0
 39 64  1  0  0  0
 39 67  2  0  0  0
 40 52  1  0  0  0
 40 53  2  0  0  0
 40 58  1  0  0  0
 41109  1  0  0  0
 41110  1  0  0  0
 41111  1  0  0  0
 41 48  1  0  0  0
 42 43  1  0  0  0
 42 66  1  0  0  0
 42112  1  0  0  0
 42113  1  0  0  0
 43 44  1  0  0  0
 44114  1  0  0  0
 45 46  2  0  0  0
 45115  1  0  0  0
 46116  1  0  0  0
 47117  1  0  0  0
 47118  1  0  0  0
 48 56  1  0  0  0
 48 65  1  0  0  0
 48119  1  0  0  0
 49 50  1  0  0  0
 49 53  1  0  0  0
 49 64  1  0  0  0
 49120  1  0  0  0
 50 51  1  0  0  0
 50121  1  0  0  0
 50122  1  0  0  0
 51 52  1  0  0  0
 51123  1  0  0  0
 51124  1  0  0  0
 52125  1  0  0  0
 52126  1  0  0  0
 53 54  1  0  0  0
 54 55  2  0  0  0
 54127  1  0  0  0
 55 57  1  0  0  0
 55128  1  0  0  0
 56 69  2  0  0  0
 57 58  2  0  0  0
 57129  1  0  0  0
 58130  1  0  0  0
 59 60  1  0  0  0
 59 61  1  0  0  0
 59 62  1  0  0  0
 60131  1  0  0  0
 60132  1  0  0  0
 60133  1  0  0  0
 61134  1  0  0  0
 61135  1  0  0  0
 61136  1  0  0  0
 62137  1  0  0  0
 62138  1  0  0  0
 62139  1  0  0  0
 63 65  1  0  0  0
 63140  1  0  0  0
 63141  1  0  0  0
 63142  1  0  0  0
 64143  1  0  0  0
 65144  1  0  0  0
 68 80  1  0  0  0
 71 72  2  0  0  0
 71 73  1  0  0  0
 71145  1  0  0  0
 72 74  1  0  0  0
 72146  1  0  0  0
 73 75  2  0  0  0
 73 79  1  0  0  0
 74 81  2  0  0  0
 74 83  1  0  0  0
 75 81  1  0  0  0
 75 82  1  0  0  0
 76 77  2  0  0  0
 76 78  1  0  0  0
 76147  1  0  0  0
 77 80  1  0  0  0
 77 85  1  0  0  0
 78 82  1  0  0  0
 78 84  2  0  0  0
 79148  1  0  0  0
 79149  1  0  0  0
 79150  1  0  0  0
 80151  1  0  0  0
 80152  1  0  0  0
 82153  1  0  0  0
 83154  1  0  0  0
 85155  1  0  0  0
M  ISO  4   1 100  68 101  80 101  83 100
M  END
> <chiral flag>
0

> <version>
0

> <s_m_source_file>
/data/baiqing/PycharmProjects/Reinvent-master-3.2/result/LINK_invent/BTK/process_docking_weight1_custom_product_contain_oxygen_bond_distance_aromatic_linkinvent_7_9_3/rearranged_h_0168.sdf

> <i_m_source_file_index>
4

> <r_mmod_Potential_Energy-OPLS-2005>
-131.363204956055

> <r_mmod_Stretch_Energy-OPLS-2005>
60.1908493041992

> <r_mmod_Bend_Energy-OPLS-2005>
127.83366394043

> <r_mmod_Torsional_Energy-OPLS-2005>
279.261901855469

> <r_mmod_Improper_Torsional_Energy-OPLS-2005>
9.56096267700195

> <r_mmod_Van_der_Waal_Energy-OPLS-2005>
148.840682983398

> <r_mmod_Electrostatic_Energy-OPLS-2005>
-532.106384277344

> <r_mmod_Solvation_Energy-OPLS-2005>
-256.893768310547

> <b_mmod_Minimization_Converged-OPLS-2005>
0

> <r_mmod_RMS_Derivative-OPLS-2005>
1.1336168050766

$$$$
4
                    3D
 Structure written by MMmdl.
158166  0  0  1  0            999 V2000
  -30.7221  -14.4833   20.6552 C   0  0  0  0  0  0
  -30.4113  -12.3479   19.4066 C   0  0  0  0  0  0
  -29.4853  -12.5363   18.1903 C   0  0  0  0  0  0
  -28.0108  -12.3783   18.6080 C   0  0  0  0  0  0
  -27.6571  -13.2076   19.8684 C   0  0  2  0  0  0
  -28.6958  -12.9898   20.9879 C   0  0  0  0  0  0
  -25.2546  -13.8157   20.5619 C   0  0  0  0  0  0
  -24.1815  -13.0444   20.9163 C   0  0  0  0  0  0
  -24.6355  -11.6914   20.8697 C   0  0  0  0  0  0
  -23.9016  -10.4298   21.0375 C   0  0  0  0  0  0
  -24.3588   -9.4224   21.9170 C   0  0  0  0  0  0
  -23.6254   -8.2263   22.0755 C   0  0  0  0  0  0
  -22.4231   -8.0286   21.3542 C   0  0  0  0  0  0
  -21.9851   -9.0254   20.4653 C   0  0  0  0  0  0
  -22.7163  -10.2125   20.3048 C   0  0  0  0  0  0
  -21.6839   -6.0702   22.5275 C   0  0  0  0  0  0
  -21.4014   -6.5617   23.8208 C   0  0  0  0  0  0
  -21.3655   -5.6772   24.9180 C   0  0  0  0  0  0
  -21.6033   -4.3036   24.7222 C   0  0  0  0  0  0
  -21.8813   -3.8118   23.4353 C   0  0  0  0  0  0
  -21.9197   -4.6931   22.3404 C   0  0  0  0  0  0
  -22.7849  -13.5280   21.1847 C   0  0  0  0  0  0
  -22.1681   -4.2122   21.0973 F   0  0  0  0  0  0
  -21.5612   -3.4522   25.7738 F   0  0  0  0  0  0
  -30.0224  -13.3237   20.4482 N   0  0  0  0  0  0
  -26.3005  -12.9343   20.3316 N   0  0  0  0  0  0
  -25.9271  -11.6504   20.5707 N   0  0  0  0  0  0
  -22.0463  -12.8317   22.0406 N   0  0  0  0  0  0
  -25.4196  -15.1860   20.3935 N   0  0  0  0  0  0
  -31.7727  -14.7183   20.0520 O   0  0  0  0  0  0
  -21.6620   -6.8843   21.4234 O   0  0  0  0  0  0
  -22.3551  -14.5563   20.6641 O   0  0  0  0  0  0
  -24.6233  -31.8671   23.2044 C   0  0  0  0  0  0
  -25.9096  -32.4818   23.8376 C   0  0  1  0  0  0
  -27.1972  -27.3472   20.0917 C   0  0  0  0  0  0
  -25.5957  -33.8618   24.2319 N   0  0  0  0  0  0
  -23.4118  -30.4973   21.5441 C   0  0  2  0  0  0
  -24.8447  -28.9562   20.1046 C   0  0  0  0  0  0
  -22.7446  -29.4698   22.4890 C   0  0  0  0  0  0
  -18.0304  -28.1374   22.8502 C   0  0  0  0  0  0
  -24.1491  -36.7310   23.2622 C   0  0  0  0  0  0
  -25.9507  -30.7993   21.3717 C   0  0  0  0  0  0
  -26.0140  -29.4305   20.7139 C   0  0  0  0  0  0
  -27.1893  -28.6337   20.7065 C   0  0  0  0  0  0
  -26.0038  -26.9199   19.4559 C   0  0  0  0  0  0
  -24.8389  -27.7056   19.4747 C   0  0  0  0  0  0
  -23.6177  -29.8382   20.1548 C   0  0  0  0  0  0
  -25.4115  -36.3119   24.0338 C   0  0  1  0  0  0
  -20.5926  -28.3687   23.1247 C   0  0  2  0  0  0
  -20.6796  -26.9418   22.5384 C   0  0  0  0  0  0
  -19.5787  -26.6393   21.5194 C   0  0  0  0  0  0
  -18.1956  -26.7921   22.1631 C   0  0  0  0  0  0
  -19.1562  -28.8850   23.2881 C   0  0  0  0  0  0
  -18.9466  -30.1439   23.8911 C   0  0  0  0  0  0
  -17.6476  -30.6558   24.0556 C   0  0  0  0  0  0
  -25.9058  -34.9484   23.5128 C   0  0  0  0  0  0
  -16.5362  -29.9065   23.6310 C   0  0  0  0  0  0
  -16.7303  -28.6473   23.0354 C   0  0  0  0  0  0
  -26.4485  -31.6588   25.0722 C   0  0  0  0  0  0
  -25.3751  -31.3740   26.1468 C   0  0  0  0  0  0
  -27.0262  -30.3005   24.6158 C   0  0  0  0  0  0
  -27.6074  -32.4282   25.7488 C   0  0  0  0  0  0
  -27.5592  -37.1805   24.8469 C   0  0  0  0  0  0
  -21.4166  -29.3082   22.3633 N   0  0  0  0  0  0
  -26.4285  -37.3822   23.9431 N   0  0  0  0  0  0
  -24.6796  -31.0726   22.0952 N   0  0  0  0  0  0
  -23.4213  -28.8232   23.2950 O   0  0  0  0  0  0
  -28.3417  -26.5473   20.1383 O   0  0  0  0  0  0
  -26.5573  -34.8939   22.4680 O   0  0  0  0  0  0
  -23.5409  -32.1416   23.7435 O   0  0  0  0  0  0
  -28.2155  -16.4988   22.0539 C   0  0  0  0  0  0
  -30.0489  -17.7362   21.0139 C   0  0  0  0  0  0
  -29.5123  -16.4968   21.4938 C   0  0  0  0  0  0
  -27.4661  -17.6910   22.1184 C   0  0  0  0  0  0
  -29.3018  -18.9597   21.0675 C   0  0  0  0  0  0
  -27.9897  -18.8983   21.6048 C   0  0  0  0  0  0
  -29.3019  -22.6790   20.1746 C   0  0  0  0  0  0
  -29.0036  -24.1442   20.6996 C   0  0  0  0  0  0
  -31.1929  -15.3638   22.8295 C   0  0  0  0  0  0
  -29.5791  -21.5286   21.1944 C   0  0  0  0  0  0
  -28.2281  -25.1286   19.7686 C   0  0  0  0  0  0
  -26.2010  -17.7090   22.7066 N   0  0  0  0  0  0
  -29.8546  -20.1874   20.5901 N   0  0  0  0  0  0
  -30.3101  -15.3022   21.6662 N   0  0  0  0  0  0
  -29.3807  -22.4485   18.9605 O   0  0  0  0  0  0
  -29.3514  -24.4845   21.8368 O   0  0  0  0  0  0
  -27.1900  -19.9976   21.6131 F   0  0  0  0  0  0
  -31.4563  -12.4477   19.1046 H   0  0  0  0  0  0
  -30.3078  -11.3326   19.7959 H   0  0  0  0  0  0
  -29.7314  -11.8140   17.4118 H   0  0  0  0  0  0
  -29.6494  -13.5229   17.7555 H   0  0  0  0  0  0
  -27.8348  -11.3188   18.7981 H   0  0  0  0  0  0
  -27.3508  -12.6503   17.7842 H   0  0  0  0  0  0
  -27.7012  -14.2581   19.5790 H   0  0  0  0  0  0
  -28.6866  -11.9441   21.3102 H   0  0  0  0  0  0
  -28.4424  -13.5686   21.8720 H   0  0  0  0  0  0
  -25.2735   -9.5716   22.4745 H   0  0  0  0  0  0
  -23.9943   -7.4651   22.7495 H   0  0  0  0  0  0
  -21.0747   -8.8744   19.8998 H   0  0  0  0  0  0
  -22.3580  -10.9657   19.6171 H   0  0  0  0  0  0
  -21.2025   -7.6135   23.9707 H   0  0  0  0  0  0
  -21.1483   -6.0512   25.9082 H   0  0  0  0  0  0
  -22.0596   -2.7576   23.2861 H   0  0  0  0  0  0
  -22.4077  -12.0028   22.4910 H   0  0  0  0  0  0
  -21.1140  -13.1424   22.2653 H   0  0  0  0  0  0
  -24.6333  -15.8214   20.4644 H   0  0  0  0  0  0
  -26.2611  -15.6310   20.0497 H   0  0  0  0  0  0
  -26.7189  -32.5454   23.1130 H   0  0  0  0  0  0
  -25.0204  -33.9778   25.0540 H   0  0  0  0  0  0
  -22.7017  -31.3180   21.4067 H   0  0  0  0  0  0
  -23.3756  -35.9635   23.3285 H   0  0  0  0  0  0
  -24.3599  -36.8909   22.2038 H   0  0  0  0  0  0
  -23.7216  -37.6525   23.6589 H   0  0  0  0  0  0
  -26.0817  -31.5623   20.6050 H   0  0  0  0  0  0
  -26.8334  -30.8403   21.9980 H   0  0  0  0  0  0
  -28.0833  -28.9855   21.1981 H   0  0  0  0  0  0
  -25.9251  -25.9782   18.9322 H   0  0  0  0  0  0
  -23.9418  -27.3436   18.9942 H   0  0  0  0  0  0
  -23.7381  -30.6141   19.3942 H   0  0  0  0  0  0
  -22.7323  -29.2708   19.8547 H   0  0  0  0  0  0
  -25.1287  -36.1999   25.0822 H   0  0  0  0  0  0
  -21.0038  -28.3291   24.1367 H   0  0  0  0  0  0
  -20.5693  -26.2335   23.3589 H   0  0  0  0  0  0
  -21.6647  -26.7429   22.1198 H   0  0  0  0  0  0
  -19.6923  -25.6301   21.1222 H   0  0  0  0  0  0
  -19.6685  -27.3186   20.6705 H   0  0  0  0  0  0
  -17.4216  -26.6685   21.4020 H   0  0  0  0  0  0
  -18.0350  -26.0021   22.9002 H   0  0  0  0  0  0
  -19.7962  -30.7263   24.2269 H   0  0  0  0  0  0
  -17.5033  -31.6242   24.5177 H   0  0  0  0  0  0
  -15.5379  -30.2977   23.7602 H   0  0  0  0  0  0
  -15.8719  -28.0795   22.7063 H   0  0  0  0  0  0
  -24.5942  -30.7064   25.7824 H   0  0  0  0  0  0
  -24.8916  -32.2892   26.4865 H   0  0  0  0  0  0
  -25.8097  -30.8961   27.0252 H   0  0  0  0  0  0
  -26.2798  -29.6860   24.1111 H   0  0  0  0  0  0
  -27.3867  -29.7186   25.4650 H   0  0  0  0  0  0
  -27.8728  -30.4283   23.9422 H   0  0  0  0  0  0
  -27.2717  -33.3577   26.2096 H   0  0  0  0  0  0
  -28.3857  -32.6847   25.0291 H   0  0  0  0  0  0
  -28.0762  -31.8382   26.5375 H   0  0  0  0  0  0
  -28.2620  -38.0092   24.7502 H   0  0  0  0  0  0
  -28.1066  -36.2621   24.6277 H   0  0  0  0  0  0
  -27.2298  -37.1439   25.8867 H   0  0  0  0  0  0
  -20.9297  -29.8843   21.6898 H   0  0  0  0  0  0
  -26.0193  -38.2917   24.1398 H   0  0  0  0  0  0
  -27.8127  -15.5932   22.4866 H   0  0  0  0  0  0
  -31.0633  -17.7530   20.6443 H   0  0  0  0  0  0
  -30.6354  -15.6883   23.7107 H   0  0  0  0  0  0
  -32.0012  -16.0753   22.6606 H   0  0  0  0  0  0
  -31.6366  -14.3937   23.0541 H   0  0  0  0  0  0
  -28.7682  -21.5074   21.9192 H   0  0  0  0  0  0
  -30.4442  -21.8332   21.7850 H   0  0  0  0  0  0
  -27.2020  -24.7828   19.8697 H   0  0  0  0  0  0
  -28.5135  -24.9857   18.7254 H   0  0  0  0  0  0
  -25.6571  -16.8549   22.7690 H   0  0  0  0  0  0
  -25.6489  -18.5395   22.5287 H   0  0  0  0  0  0
  -30.5127  -20.1654   19.8113 H   0  0  0  0  0  0
  1 25  1  0  0  0
  1 30  2  0  0  0
  1 84  1  0  0  0
  2  3  1  0  0  0
  2 25  1  0  0  0
  2 88  1  0  0  0
  2 89  1  0  0  0
  3  4  1  0  0  0
  3 90  1  0  0  0
  3 91  1  0  0  0
  4  5  1  0  0  0
  4 92  1  0  0  0
  4 93  1  0  0  0
  5  6  1  0  0  0
  5 26  1  0  0  0
  5 94  1  0  0  0
  6 25  1  0  0  0
  6 95  1  0  0  0
  6 96  1  0  0  0
  7  8  2  0  0  0
  7 26  1  0  0  0
  7 29  1  0  0  0
  8  9  1  0  0  0
  8 22  1  0  0  0
  9 10  1  0  0  0
  9 27  2  0  0  0
 10 11  2  0  0  0
 10 15  1  0  0  0
 11 12  1  0  0  0
 11 97  1  0  0  0
 12 13  2  0  0  0
 12 98  1  0  0  0
 13 14  1  0  0  0
 13 31  1  0  0  0
 14 15  2  0  0  0
 14 99  1  0  0  0
 15100  1  0  0  0
 16 17  2  0  0  0
 16 21  1  0  0  0
 16 31  1  0  0  0
 17 18  1  0  0  0
 17101  1  0  0  0
 18 19  2  0  0  0
 18102  1  0  0  0
 19 20  1  0  0  0
 19 24  1  0  0  0
 20 21  2  0  0  0
 20103  1  0  0  0
 21 23  1  0  0  0
 22 28  1  0  0  0
 22 32  2  0  0  0
 26 27  1  0  0  0
 28104  1  0  0  0
 28105  1  0  0  0
 29106  1  0  0  0
 29107  1  0  0  0
 33 34  1  0  0  0
 33 66  1  0  0  0
 33 70  2  0  0  0
 34 36  1  0  0  0
 34 59  1  0  0  0
 34108  1  0  0  0
 35 44  2  0  0  0
 35 45  1  0  0  0
 35 68  1  0  0  0
 36 56  1  0  0  0
 36109  1  0  0  0
 37 39  1  0  0  0
 37 47  1  0  0  0
 37 66  1  0  0  0
 37110  1  0  0  0
 38 43  2  0  0  0
 38 46  1  0  0  0
 38 47  1  0  0  0
 39 64  1  0  0  0
 39 67  2  0  0  0
 40 52  1  0  0  0
 40 53  2  0  0  0
 40 58  1  0  0  0
 41111  1  0  0  0
 41112  1  0  0  0
 41113  1  0  0  0
 41 48  1  0  0  0
 42 43  1  0  0  0
 42 66  1  0  0  0
 42114  1  0  0  0
 42115  1  0  0  0
 43 44  1  0  0  0
 44116  1  0  0  0
 45 46  2  0  0  0
 45117  1  0  0  0
 46118  1  0  0  0
 47119  1  0  0  0
 47120  1  0  0  0
 48 56  1  0  0  0
 48 65  1  0  0  0
 48121  1  0  0  0
 49 50  1  0  0  0
 49 53  1  0  0  0
 49 64  1  0  0  0
 49122  1  0  0  0
 50 51  1  0  0  0
 50123  1  0  0  0
 50124  1  0  0  0
 51 52  1  0  0  0
 51125  1  0  0  0
 51126  1  0  0  0
 52127  1  0  0  0
 52128  1  0  0  0
 53 54  1  0  0  0
 54 55  2  0  0  0
 54129  1  0  0  0
 55 57  1  0  0  0
 55130  1  0  0  0
 56 69  2  0  0  0
 57 58  2  0  0  0
 57131  1  0  0  0
 58132  1  0  0  0
 59 60  1  0  0  0
 59 61  1  0  0  0
 59 62  1  0  0  0
 60133  1  0  0  0
 60134  1  0  0  0
 60135  1  0  0  0
 61136  1  0  0  0
 61137  1  0  0  0
 61138  1  0  0  0
 62139  1  0  0  0
 62140  1  0  0  0
 62141  1  0  0  0
 63 65  1  0  0  0
 63142  1  0  0  0
 63143  1  0  0  0
 63144  1  0  0  0
 64145  1  0  0  0
 65146  1  0  0  0
 68 81  1  0  0  0
 71 73  2  0  0  0
 71 74  1  0  0  0
 71147  1  0  0  0
 72 73  1  0  0  0
 72 75  2  0  0  0
 72148  1  0  0  0
 73 84  1  0  0  0
 74 76  2  0  0  0
 74 82  1  0  0  0
 75 76  1  0  0  0
 75 83  1  0  0  0
 76 87  1  0  0  0
 77 78  1  0  0  0
 77 80  1  0  0  0
 77 85  2  0  0  0
 78 81  1  0  0  0
 78 86  2  0  0  0
 79 84  1  0  0  0
 79149  1  0  0  0
 79150  1  0  0  0
 79151  1  0  0  0
 80 83  1  0  0  0
 80152  1  0  0  0
 80153  1  0  0  0
 81154  1  0  0  0
 81155  1  0  0  0
 82156  1  0  0  0
 82157  1  0  0  0
 83158  1  0  0  0
M  ISO  4   1 100  68 101  81 101  84 100
M  END
> <chiral flag>
0

> <version>
0

> <s_m_source_file>
/data/baiqing/PycharmProjects/Reinvent-master-3.2/result/LINK_invent/BTK/process_docking_weight1_custom_product_contain_oxygen_bond_distance_aromatic_linkinvent_7_9_3/rearranged_h_0168.sdf

> <i_m_source_file_index>
5

> <r_mmod_Potential_Energy-OPLS-2005>
379.12646484375

> <r_mmod_Stretch_Energy-OPLS-2005>
66.0407104492188

> <r_mmod_Bend_Energy-OPLS-2005>
132.46142578125

> <r_mmod_Torsional_Energy-OPLS-2005>
305.944213867188

> <r_mmod_Improper_Torsional_Energy-OPLS-2005>
10.233717918396

> <r_mmod_Van_der_Waal_Energy-OPLS-2005>
142.35124206543

> <r_mmod_Electrostatic_Energy-OPLS-2005>
-76.8330764770508

> <r_mmod_Solvation_Energy-OPLS-2005>
-225.366790771484

> <b_mmod_Minimization_Converged-OPLS-2005>
0

> <r_mmod_RMS_Derivative-OPLS-2005>
7.35752058029175

$$$$
5
                    3D
 Structure written by MMmdl.
160168  0  0  1  0            999 V2000
  -30.6824  -14.4623   20.6157 C   0  0  0  0  0  0
  -30.4350  -12.3147   19.4184 C   0  0  0  0  0  0
  -29.4997  -12.5138   18.2069 C   0  0  0  0  0  0
  -28.0205  -12.3659   18.6174 C   0  0  0  0  0  0
  -27.6667  -13.1972   19.8782 C   0  0  2  0  0  0
  -28.7030  -12.9474   20.9973 C   0  0  0  0  0  0
  -25.2619  -13.8133   20.5660 C   0  0  0  0  0  0
  -24.1847  -13.0430   20.9145 C   0  0  0  0  0  0
  -24.6378  -11.6887   20.8712 C   0  0  0  0  0  0
  -23.9042  -10.4282   21.0390 C   0  0  0  0  0  0
  -24.3602   -9.4202   21.9165 C   0  0  0  0  0  0
  -23.6281   -8.2236   22.0746 C   0  0  0  0  0  0
  -22.4258   -8.0269   21.3543 C   0  0  0  0  0  0
  -21.9891   -9.0240   20.4648 C   0  0  0  0  0  0
  -22.7216  -10.2117   20.3045 C   0  0  0  0  0  0
  -21.6847   -6.0726   22.5268 C   0  0  0  0  0  0
  -21.4020   -6.5634   23.8205 C   0  0  0  0  0  0
  -21.3660   -5.6787   24.9165 C   0  0  0  0  0  0
  -21.6042   -4.3048   24.7219 C   0  0  0  0  0  0
  -21.8820   -3.8140   23.4344 C   0  0  0  0  0  0
  -21.9197   -4.6956   22.3397 C   0  0  0  0  0  0
  -22.7878  -13.5250   21.1807 C   0  0  0  0  0  0
  -22.1660   -4.2139   21.0977 F   0  0  0  0  0  0
  -21.5633   -3.4538   25.7738 F   0  0  0  0  0  0
  -30.0401  -13.2717   20.4643 N   0  0  0  0  0  0
  -26.3036  -12.9280   20.3338 N   0  0  0  0  0  0
  -25.9297  -11.6450   20.5727 N   0  0  0  0  0  0
  -22.0512  -12.8259   22.0376 N   0  0  0  0  0  0
  -25.4397  -15.1848   20.4092 N   0  0  0  0  0  0
  -31.7624  -14.7171   20.0719 O   0  0  0  0  0  0
  -21.6632   -6.8859   21.4228 O   0  0  0  0  0  0
  -22.3568  -14.5562   20.6656 O   0  0  0  0  0  0
  -24.6139  -31.8679   23.2080 C   0  0  0  0  0  0
  -25.9030  -32.4825   23.8382 C   0  0  1  0  0  0
  -27.2415  -27.4451   20.0911 C   0  0  0  0  0  0
  -25.5877  -33.8622   24.2305 N   0  0  0  0  0  0
  -23.4032  -30.4887   21.5484 C   0  0  2  0  0  0
  -24.8528  -28.9515   20.1177 C   0  0  0  0  0  0
  -22.7410  -29.4652   22.4982 C   0  0  0  0  0  0
  -18.0267  -28.1382   22.8480 C   0  0  0  0  0  0
  -24.1484  -36.7325   23.2636 C   0  0  0  0  0  0
  -25.9307  -30.8370   21.3593 C   0  0  0  0  0  0
  -26.0121  -29.4699   20.7096 C   0  0  0  0  0  0
  -27.2137  -28.7247   20.6904 C   0  0  0  0  0  0
  -26.0677  -26.9338   19.5030 C   0  0  0  0  0  0
  -24.8747  -27.6814   19.5129 C   0  0  0  0  0  0
  -23.6138  -29.8171   20.1650 C   0  0  0  0  0  0
  -25.4102  -36.3115   24.0331 C   0  0  1  0  0  0
  -20.5856  -28.3669   23.1312 C   0  0  2  0  0  0
  -20.6750  -26.9402   22.5420 C   0  0  0  0  0  0
  -19.5736  -26.6390   21.5206 C   0  0  0  0  0  0
  -18.1913  -26.7925   22.1618 C   0  0  0  0  0  0
  -19.1515  -28.8839   23.2894 C   0  0  0  0  0  0
  -18.9454  -30.1441   23.8906 C   0  0  0  0  0  0
  -17.6462  -30.6588   24.0569 C   0  0  0  0  0  0
  -25.9033  -34.9481   23.5121 C   0  0  0  0  0  0
  -16.5351  -29.9096   23.6322 C   0  0  0  0  0  0
  -16.7261  -28.6517   23.0334 C   0  0  0  0  0  0
  -26.4462  -31.6608   25.0714 C   0  0  0  0  0  0
  -25.3739  -31.3733   26.1480 C   0  0  0  0  0  0
  -27.0277  -30.3043   24.6089 C   0  0  0  0  0  0
  -27.6040  -32.4327   25.7473 C   0  0  0  0  0  0
  -27.5581  -37.1802   24.8453 C   0  0  0  0  0  0
  -21.4136  -29.3041   22.3730 N   0  0  0  0  0  0
  -26.4284  -37.3803   23.9416 N   0  0  0  0  0  0
  -24.6673  -31.0785   22.0976 N   0  0  0  0  0  0
  -23.4186  -28.8191   23.3022 O   0  0  0  0  0  0
  -28.3961  -26.6998   20.0507 O   0  0  0  0  0  0
  -26.5614  -34.8933   22.4695 O   0  0  0  0  0  0
  -23.5329  -32.1424   23.7477 O   0  0  0  0  0  0
  -29.6530  -18.8347   22.6639 C   0  0  0  0  0  0
  -30.5813  -17.5789   20.3273 C   0  0  0  0  0  0
  -30.1411  -19.6360   21.6058 C   0  0  0  0  0  0
  -30.1152  -16.7820   21.4033 C   0  0  0  0  0  0
  -29.6277  -17.4298   22.5561 C   0  0  0  0  0  0
  -30.5867  -18.9929   20.4245 C   0  0  0  0  0  0
  -30.2306  -21.0983   21.8033 C   0  0  0  0  0  0
  -31.3468  -23.8691   20.3594 C   0  0  0  0  0  0
  -28.8351  -24.2773   20.3267 C   0  0  0  0  0  0
  -31.8805  -25.2775   20.5880 C   0  0  0  0  0  0
  -28.4226  -25.6121   20.9864 C   0  0  0  0  0  0
  -29.9903  -23.4944   20.9903 C   0  0  1  0  0  0
  -30.0272  -15.3561   21.3759 N   0  0  0  0  0  0
  -29.7928  -22.0140   20.9119 N   0  0  0  0  0  0
  -30.7633  -21.5437   22.9478 N   0  3  0  0  0  0
  -32.0209  -23.0743   19.6967 O   0  0  0  0  0  0
  -28.2302  -23.8522   19.3354 O   0  0  0  0  0  0
  -29.1317  -16.6894   23.5784 F   0  0  0  0  0  0
  -31.0425  -19.7244   19.3781 F   0  0  0  0  0  0
  -31.4774  -12.4364   19.1173 H   0  0  0  0  0  0
  -30.3547  -11.2956   19.7985 H   0  0  0  0  0  0
  -29.7421  -11.7945   17.4228 H   0  0  0  0  0  0
  -29.6627  -13.5017   17.7744 H   0  0  0  0  0  0
  -27.8331  -11.3088   18.8084 H   0  0  0  0  0  0
  -27.3697  -12.6461   17.7886 H   0  0  0  0  0  0
  -27.7213  -14.2486   19.5917 H   0  0  0  0  0  0
  -28.6825  -11.9009   21.3054 H   0  0  0  0  0  0
  -28.4433  -13.5080   21.8961 H   0  0  0  0  0  0
  -25.2744   -9.5705   22.4739 H   0  0  0  0  0  0
  -23.9994   -7.4647   22.7475 H   0  0  0  0  0  0
  -21.0818   -8.8764   19.8961 H   0  0  0  0  0  0
  -22.3666  -10.9657   19.6162 H   0  0  0  0  0  0
  -21.2011   -7.6143   23.9706 H   0  0  0  0  0  0
  -21.1481   -6.0514   25.9069 H   0  0  0  0  0  0
  -22.0604   -2.7604   23.2842 H   0  0  0  0  0  0
  -22.4115  -11.9927   22.4782 H   0  0  0  0  0  0
  -21.1133  -13.1308   22.2570 H   0  0  0  0  0  0
  -24.6778  -15.8450   20.5208 H   0  0  0  0  0  0
  -26.2956  -15.6198   20.0879 H   0  0  0  0  0  0
  -26.7107  -32.5540   23.1152 H   0  0  0  0  0  0
  -24.9983  -33.9786   25.0418 H   0  0  0  0  0  0
  -22.6912  -31.3042   21.4053 H   0  0  0  0  0  0
  -23.3743  -35.9661   23.3292 H   0  0  0  0  0  0
  -24.3583  -36.8957   22.2054 H   0  0  0  0  0  0
  -23.7242  -37.6525   23.6666 H   0  0  0  0  0  0
  -26.0370  -31.6027   20.5895 H   0  0  0  0  0  0
  -26.8204  -30.8954   21.9747 H   0  0  0  0  0  0
  -28.1139  -29.1267   21.1336 H   0  0  0  0  0  0
  -26.0828  -25.9601   19.0325 H   0  0  0  0  0  0
  -23.9839  -27.2742   19.0547 H   0  0  0  0  0  0
  -23.7230  -30.5896   19.4031 H   0  0  0  0  0  0
  -22.7392  -29.2355   19.8688 H   0  0  0  0  0  0
  -25.1276  -36.1968   25.0823 H   0  0  0  0  0  0
  -20.9936  -28.3239   24.1439 H   0  0  0  0  0  0
  -20.5634  -26.2284   23.3615 H   0  0  0  0  0  0
  -21.6629  -26.7434   22.1237 H   0  0  0  0  0  0
  -19.6902  -25.6305   21.1229 H   0  0  0  0  0  0
  -19.6674  -27.3209   20.6741 H   0  0  0  0  0  0
  -17.4183  -26.6662   21.4024 H   0  0  0  0  0  0
  -18.0320  -26.0070   22.9020 H   0  0  0  0  0  0
  -19.7935  -30.7242   24.2284 H   0  0  0  0  0  0
  -17.5029  -31.6265   24.5179 H   0  0  0  0  0  0
  -15.5355  -30.3015   23.7637 H   0  0  0  0  0  0
  -15.8657  -28.0857   22.7028 H   0  0  0  0  0  0
  -24.5871  -30.7124   25.7828 H   0  0  0  0  0  0
  -24.8985  -32.2907   26.4960 H   0  0  0  0  0  0
  -25.8100  -30.8871   27.0216 H   0  0  0  0  0  0
  -26.2812  -29.6816   24.1147 H   0  0  0  0  0  0
  -27.4039  -29.7267   25.4540 H   0  0  0  0  0  0
  -27.8650  -30.4340   23.9229 H   0  0  0  0  0  0
  -27.2647  -33.3601   26.2094 H   0  0  0  0  0  0
  -28.3824  -32.6935   25.0295 H   0  0  0  0  0  0
  -28.0740  -31.8437   26.5355 H   0  0  0  0  0  0
  -28.2583  -38.0115   24.7535 H   0  0  0  0  0  0
  -28.1089  -36.2651   24.6225 H   0  0  0  0  0  0
  -27.2313  -37.1396   25.8858 H   0  0  0  0  0  0
  -20.9292  -29.8793   21.6977 H   0  0  0  0  0  0
  -26.0167  -38.2871   24.1453 H   0  0  0  0  0  0
  -29.2919  -19.2923   23.5736 H   0  0  0  0  0  0
  -30.9294  -17.1222   19.4134 H   0  0  0  0  0  0
  -31.5235  -25.6816   21.5342 H   0  0  0  0  0  0
  -31.5576  -25.9353   19.7814 H   0  0  0  0  0  0
  -32.9700  -25.2687   20.6089 H   0  0  0  0  0  0
  -29.1200  -25.8613   21.7861 H   0  0  0  0  0  0
  -27.4467  -25.4677   21.4528 H   0  0  0  0  0  0
  -30.0110  -23.7860   22.0401 H   0  0  0  0  0  0
  -29.2890  -14.9739   21.9474 H   0  0  0  0  0  0
  -29.3974  -21.6797   20.0419 H   0  0  0  0  0  0
  -31.1623  -20.8840   23.5987 H   0  0  0  0  0  0
  -30.7904  -22.5188   23.1897 H   0  0  0  0  0  0
  1 25  1  0  0  0
  1 30  2  0  0  0
  1 83  1  0  0  0
  2  3  1  0  0  0
  2 25  1  0  0  0
  2 90  1  0  0  0
  2 91  1  0  0  0
  3  4  1  0  0  0
  3 92  1  0  0  0
  3 93  1  0  0  0
  4  5  1  0  0  0
  4 94  1  0  0  0
  4 95  1  0  0  0
  5  6  1  0  0  0
  5 26  1  0  0  0
  5 96  1  0  0  0
  6 25  1  0  0  0
  6 97  1  0  0  0
  6 98  1  0  0  0
  7  8  2  0  0  0
  7 26  1  0  0  0
  7 29  1  0  0  0
  8  9  1  0  0  0
  8 22  1  0  0  0
  9 10  1  0  0  0
  9 27  2  0  0  0
 10 11  2  0  0  0
 10 15  1  0  0  0
 11 12  1  0  0  0
 11 99  1  0  0  0
 12 13  2  0  0  0
 12100  1  0  0  0
 13 14  1  0  0  0
 13 31  1  0  0  0
 14 15  2  0  0  0
 14101  1  0  0  0
 15102  1  0  0  0
 16 17  2  0  0  0
 16 21  1  0  0  0
 16 31  1  0  0  0
 17 18  1  0  0  0
 17103  1  0  0  0
 18 19  2  0  0  0
 18104  1  0  0  0
 19 20  1  0  0  0
 19 24  1  0  0  0
 20 21  2  0  0  0
 20105  1  0  0  0
 21 23  1  0  0  0
 22 28  1  0  0  0
 22 32  2  0  0  0
 26 27  1  0  0  0
 28106  1  0  0  0
 28107  1  0  0  0
 29108  1  0  0  0
 29109  1  0  0  0
 33 34  1  0  0  0
 33 66  1  0  0  0
 33 70  2  0  0  0
 34 36  1  0  0  0
 34 59  1  0  0  0
 34110  1  0  0  0
 35 44  2  0  0  0
 35 45  1  0  0  0
 35 68  1  0  0  0
 36 56  1  0  0  0
 36111  1  0  0  0
 37 39  1  0  0  0
 37 47  1  0  0  0
 37 66  1  0  0  0
 37112  1  0  0  0
 38 43  2  0  0  0
 38 46  1  0  0  0
 38 47  1  0  0  0
 39 64  1  0  0  0
 39 67  2  0  0  0
 40 52  1  0  0  0
 40 53  2  0  0  0
 40 58  1  0  0  0
 41113  1  0  0  0
 41114  1  0  0  0
 41115  1  0  0  0
 41 48  1  0  0  0
 42 43  1  0  0  0
 42 66  1  0  0  0
 42116  1  0  0  0
 42117  1  0  0  0
 43 44  1  0  0  0
 44118  1  0  0  0
 45 46  2  0  0  0
 45119  1  0  0  0
 46120  1  0  0  0
 47121  1  0  0  0
 47122  1  0  0  0
 48 56  1  0  0  0
 48 65  1  0  0  0
 48123  1  0  0  0
 49 50  1  0  0  0
 49 53  1  0  0  0
 49 64  1  0  0  0
 49124  1  0  0  0
 50 51  1  0  0  0
 50125  1  0  0  0
 50126  1  0  0  0
 51 52  1  0  0  0
 51127  1  0  0  0
 51128  1  0  0  0
 52129  1  0  0  0
 52130  1  0  0  0
 53 54  1  0  0  0
 54 55  2  0  0  0
 54131  1  0  0  0
 55 57  1  0  0  0
 55132  1  0  0  0
 56 69  2  0  0  0
 57 58  2  0  0  0
 57133  1  0  0  0
 58134  1  0  0  0
 59 60  1  0  0  0
 59 61  1  0  0  0
 59 62  1  0  0  0
 60135  1  0  0  0
 60136  1  0  0  0
 60137  1  0  0  0
 61138  1  0  0  0
 61139  1  0  0  0
 61140  1  0  0  0
 62141  1  0  0  0
 62142  1  0  0  0
 62143  1  0  0  0
 63 65  1  0  0  0
 63144  1  0  0  0
 63145  1  0  0  0
 63146  1  0  0  0
 64147  1  0  0  0
 65148  1  0  0  0
 68 81  1  0  0  0
 71 73  2  0  0  0
 71 75  1  0  0  0
 71149  1  0  0  0
 72 74  1  0  0  0
 72 76  2  0  0  0
 72150  1  0  0  0
 73 76  1  0  0  0
 73 77  1  0  0  0
 74 75  2  0  0  0
 74 83  1  0  0  0
 75 88  1  0  0  0
 76 89  1  0  0  0
 77 84  1  0  0  0
 77 85  2  0  0  0
 78 80  1  0  0  0
 78 82  1  0  0  0
 78 86  2  0  0  0
 79 81  1  0  0  0
 79 82  1  0  0  0
 79 87  2  0  0  0
 80151  1  0  0  0
 80152  1  0  0  0
 80153  1  0  0  0
 81154  1  0  0  0
 81155  1  0  0  0
 82 84  1  0  0  0
 82156  1  0  0  0
 83157  1  0  0  0
 84158  1  0  0  0
 85159  1  0  0  0
 85160  1  0  0  0
M  CHG  1  85   1
M  ISO  4   1 100  68 101  81 101  83 100
M  END
> <chiral flag>
0

> <version>
0

> <s_m_source_file>
/data/baiqing/PycharmProjects/Reinvent-master-3.2/result/LINK_invent/BTK/process_docking_weight1_custom_product_contain_oxygen_bond_distance_aromatic_linkinvent_7_9_3/rearranged_h_0168.sdf

> <i_m_source_file_index>
6

> <r_mmod_Potential_Energy-OPLS-2005>
-469.85498046875

> <r_mmod_Stretch_Energy-OPLS-2005>
38.6519165039062

> <r_mmod_Bend_Energy-OPLS-2005>
96.8051452636719

> <r_mmod_Torsional_Energy-OPLS-2005>
261.041534423828

> <r_mmod_Improper_Torsional_Energy-OPLS-2005>
2.88804817199707

> <r_mmod_Van_der_Waal_Energy-OPLS-2005>
151.515121459961

> <r_mmod_Electrostatic_Energy-OPLS-2005>
-560.335205078125

> <r_mmod_Solvation_Energy-OPLS-2005>
-470.882202148438

> <b_mmod_Minimization_Converged-OPLS-2005>
0

> <r_mmod_RMS_Derivative-OPLS-2005>
1.70910501480103

$$$$
6
                    3D
 Structure written by MMmdl.
158166  0  0  1  0            999 V2000
  -30.6613  -14.4376   20.6304 C   0  0  0  0  0  0
  -30.4322  -12.3146   19.3886 C   0  0  0  0  0  0
  -29.4889  -12.5436   18.1903 C   0  0  0  0  0  0
  -28.0120  -12.3795   18.6075 C   0  0  0  0  0  0
  -27.6661  -13.1915   19.8841 C   0  0  2  0  0  0
  -28.7024  -12.9024   20.9911 C   0  0  0  0  0  0
  -25.2614  -13.8127   20.5621 C   0  0  0  0  0  0
  -24.1847  -13.0423   20.9140 C   0  0  0  0  0  0
  -24.6372  -11.6882   20.8701 C   0  0  0  0  0  0
  -23.9014  -10.4295   21.0393 C   0  0  0  0  0  0
  -24.3569   -9.4220   21.9191 C   0  0  0  0  0  0
  -23.6265   -8.2238   22.0763 C   0  0  0  0  0  0
  -22.4260   -8.0263   21.3533 C   0  0  0  0  0  0
  -21.9887   -9.0218   20.4627 C   0  0  0  0  0  0
  -22.7179  -10.2117   20.3059 C   0  0  0  0  0  0
  -21.6841   -6.0723   22.5258 C   0  0  0  0  0  0
  -21.4000   -6.5625   23.8190 C   0  0  0  0  0  0
  -21.3668   -5.6789   24.9168 C   0  0  0  0  0  0
  -21.6065   -4.3054   24.7222 C   0  0  0  0  0  0
  -21.8811   -3.8141   23.4333 C   0  0  0  0  0  0
  -21.9181   -4.6954   22.3385 C   0  0  0  0  0  0
  -22.7889  -13.5256   21.1806 C   0  0  0  0  0  0
  -22.1648   -4.2138   21.0957 F   0  0  0  0  0  0
  -21.5659   -3.4553   25.7742 F   0  0  0  0  0  0
  -30.0332  -13.2453   20.4541 N   0  0  0  0  0  0
  -26.3034  -12.9256   20.3367 N   0  0  0  0  0  0
  -25.9289  -11.6421   20.5721 N   0  0  0  0  0  0
  -22.0526  -12.8237   22.0344 N   0  0  0  0  0  0
  -25.4348  -15.1836   20.3968 N   0  0  0  0  0  0
  -31.7718  -14.6952   20.1526 O   0  0  0  0  0  0
  -21.6608   -6.8869   21.4222 O   0  0  0  0  0  0
  -22.3585  -14.5600   20.6720 O   0  0  0  0  0  0
  -24.6134  -31.8669   23.2086 C   0  0  0  0  0  0
  -25.9027  -32.4811   23.8370 C   0  0  1  0  0  0
  -27.2395  -27.4479   20.1042 C   0  0  0  0  0  0
  -25.5906  -33.8609   24.2326 N   0  0  0  0  0  0
  -23.4007  -30.4871   21.5490 C   0  0  2  0  0  0
  -24.8523  -28.9529   20.1163 C   0  0  0  0  0  0
  -22.7372  -29.4643   22.4997 C   0  0  0  0  0  0
  -18.0249  -28.1389   22.8497 C   0  0  0  0  0  0
  -24.1499  -36.7313   23.2633 C   0  0  0  0  0  0
  -25.9212  -30.8453   21.3468 C   0  0  0  0  0  0
  -26.0090  -29.4728   20.7123 C   0  0  0  0  0  0
  -27.2087  -28.7260   20.7059 C   0  0  0  0  0  0
  -26.0723  -26.9401   19.4983 C   0  0  0  0  0  0
  -24.8788  -27.6864   19.5037 C   0  0  0  0  0  0
  -23.6090  -29.8121   20.1660 C   0  0  0  0  0  0
  -25.4118  -36.3095   24.0329 C   0  0  1  0  0  0
  -20.5833  -28.3645   23.1333 C   0  0  2  0  0  0
  -20.6741  -26.9393   22.5414 C   0  0  0  0  0  0
  -19.5727  -26.6414   21.5197 C   0  0  0  0  0  0
  -18.1904  -26.7958   22.1601 C   0  0  0  0  0  0
  -19.1496  -28.8833   23.2929 C   0  0  0  0  0  0
  -18.9427  -30.1457   23.8937 C   0  0  0  0  0  0
  -17.6431  -30.6592   24.0572 C   0  0  0  0  0  0
  -25.9040  -34.9459   23.5113 C   0  0  0  0  0  0
  -16.5321  -29.9091   23.6351 C   0  0  0  0  0  0
  -16.7250  -28.6518   23.0354 C   0  0  0  0  0  0
  -26.4487  -31.6528   25.0642 C   0  0  0  0  0  0
  -25.3773  -31.3448   26.1360 C   0  0  0  0  0  0
  -27.0343  -30.3042   24.5844 C   0  0  0  0  0  0
  -27.6063  -32.4203   25.7461 C   0  0  0  0  0  0
  -27.5598  -37.1796   24.8469 C   0  0  0  0  0  0
  -21.4099  -29.3019   22.3743 N   0  0  0  0  0  0
  -26.4298  -37.3787   23.9437 N   0  0  0  0  0  0
  -24.6651  -31.0763   22.0978 N   0  0  0  0  0  0
  -23.4138  -28.8186   23.3037 O   0  0  0  0  0  0
  -28.3898  -26.6963   20.0991 O   0  0  0  0  0  0
  -26.5573  -34.8920   22.4654 O   0  0  0  0  0  0
  -23.5342  -32.1378   23.7515 O   0  0  0  0  0  0
  -29.1549  -19.0013   21.2351 C   0  0  0  0  0  0
  -29.0160  -17.6090   21.0781 C   0  0  0  0  0  0
  -31.2751  -17.3018   21.9051 C   0  0  0  0  0  0
  -30.3428  -19.5792   21.7512 C   0  0  0  0  0  0
  -30.0869  -16.7496   21.3871 C   0  0  0  0  0  0
  -31.4078  -18.6991   22.1275 C   0  0  0  0  0  0
  -29.4558  -23.2662   21.2552 C   0  0  0  0  0  0
  -30.4071  -21.0862   21.9130 C   0  0  0  0  0  0
  -29.7704  -21.9905   20.9045 C   0  0  0  0  0  0
  -28.8539  -24.2817   20.3601 C   0  0  0  0  0  0
  -33.3777  -18.3150   23.5815 C   0  0  0  0  0  0
  -28.3463  -25.5845   21.0089 C   0  0  0  0  0  0
  -29.8998  -15.3471   21.2668 N   0  0  0  0  0  0
  -32.5891  -19.1895   22.7191 N   0  0  0  0  0  0
  -30.9951  -21.5808   22.8833 O   0  0  0  0  0  0
  -28.7296  -24.1119   19.1412 O   0  0  0  0  0  0
  -29.5439  -21.5041   19.6705 O   0  0  0  0  0  0
  -31.4715  -12.4529   19.0870 H   0  0  0  0  0  0
  -30.3574  -11.2840   19.7373 H   0  0  0  0  0  0
  -29.7248  -11.8537   17.3806 H   0  0  0  0  0  0
  -29.6446  -13.5459   17.7870 H   0  0  0  0  0  0
  -27.8344  -11.3189   18.7859 H   0  0  0  0  0  0
  -27.3522  -12.6701   17.7886 H   0  0  0  0  0  0
  -27.7300  -14.2485   19.6249 H   0  0  0  0  0  0
  -28.6813  -11.8442   21.2600 H   0  0  0  0  0  0
  -28.4499  -13.4251   21.9150 H   0  0  0  0  0  0
  -25.2710   -9.5708   22.4767 H   0  0  0  0  0  0
  -23.9968   -7.4638   22.7507 H   0  0  0  0  0  0
  -21.0827   -8.8697   19.8924 H   0  0  0  0  0  0
  -22.3608  -10.9643   19.6170 H   0  0  0  0  0  0
  -21.1974   -7.6121   23.9692 H   0  0  0  0  0  0
  -21.1515   -6.0524   25.9066 H   0  0  0  0  0  0
  -22.0594   -2.7606   23.2828 H   0  0  0  0  0  0
  -22.4121  -11.9868   22.4672 H   0  0  0  0  0  0
  -21.1146  -13.1253   22.2534 H   0  0  0  0  0  0
  -24.6680  -15.8426   20.4889 H   0  0  0  0  0  0
  -26.2793  -15.6086   20.0341 H   0  0  0  0  0  0
  -26.7078  -32.5596   23.1141 H   0  0  0  0  0  0
  -25.0115  -33.9778   25.0511 H   0  0  0  0  0  0
  -22.6935  -31.3060   21.4047 H   0  0  0  0  0  0
  -23.3791  -35.9609   23.3244 H   0  0  0  0  0  0
  -24.3602  -36.8990   22.2055 H   0  0  0  0  0  0
  -23.7210  -37.6483   23.6693 H   0  0  0  0  0  0
  -25.9861  -31.5946   20.5567 H   0  0  0  0  0  0
  -26.8270  -30.9397   21.9319 H   0  0  0  0  0  0
  -28.1037  -29.1209   21.1678 H   0  0  0  0  0  0
  -26.0942  -25.9689   19.0235 H   0  0  0  0  0  0
  -23.9924  -27.2817   19.0356 H   0  0  0  0  0  0
  -23.7048  -30.5819   19.3995 H   0  0  0  0  0  0
  -22.7387  -29.2181   19.8808 H   0  0  0  0  0  0
  -25.1294  -36.1939   25.0820 H   0  0  0  0  0  0
  -20.9922  -28.3201   24.1444 H   0  0  0  0  0  0
  -20.5628  -26.2249   23.3572 H   0  0  0  0  0  0
  -21.6616  -26.7431   22.1210 H   0  0  0  0  0  0
  -19.6893  -25.6339   21.1200 H   0  0  0  0  0  0
  -19.6706  -27.3265   20.6761 H   0  0  0  0  0  0
  -17.4173  -26.6722   21.4004 H   0  0  0  0  0  0
  -18.0309  -26.0082   22.8966 H   0  0  0  0  0  0
  -19.7888  -30.7287   24.2329 H   0  0  0  0  0  0
  -17.4959  -31.6284   24.5148 H   0  0  0  0  0  0
  -15.5327  -30.2988   23.7676 H   0  0  0  0  0  0
  -15.8641  -28.0870   22.7029 H   0  0  0  0  0  0
  -24.6173  -30.6555   25.7663 H   0  0  0  0  0  0
  -24.8686  -32.2471   26.4742 H   0  0  0  0  0  0
  -25.8183  -30.8732   27.0149 H   0  0  0  0  0  0
  -26.2809  -29.6762   24.1071 H   0  0  0  0  0  0
  -27.4441  -29.7266   25.4142 H   0  0  0  0  0  0
  -27.8470  -30.4516   23.8729 H   0  0  0  0  0  0
  -27.2757  -33.3569   26.1959 H   0  0  0  0  0  0
  -28.3961  -32.6598   25.0330 H   0  0  0  0  0  0
  -28.0610  -31.8313   26.5447 H   0  0  0  0  0  0
  -28.2509  -38.0190   24.7623 H   0  0  0  0  0  0
  -28.1199  -36.2713   24.6189 H   0  0  0  0  0  0
  -27.2310  -37.1305   25.8861 H   0  0  0  0  0  0
  -20.9254  -29.8754   21.6997 H   0  0  0  0  0  0
  -26.0185  -38.2847   24.1502 H   0  0  0  0  0  0
  -28.3157  -19.6307   20.9743 H   0  0  0  0  0  0
  -28.0779  -17.2146   20.7094 H   0  0  0  0  0  0
  -32.0754  -16.6226   22.1621 H   0  0  0  0  0  0
  -29.6548  -23.6037   22.2626 H   0  0  0  0  0  0
  -33.9666  -18.9068   24.2816 H   0  0  0  0  0  0
  -34.0689  -17.7119   22.9917 H   0  0  0  0  0  0
  -32.7537  -17.6436   24.1758 H   0  0  0  0  0  0
  -28.9568  -25.8182   21.8824 H   0  0  0  0  0  0
  -27.3321  -25.4053   21.3700 H   0  0  0  0  0  0
  -28.9810  -15.0064   21.5065 H   0  0  0  0  0  0
  -32.5527  -20.1702   23.0023 H   0  0  0  0  0  0
  -29.1808  -22.2179   19.1552 H   0  0  0  0  0  0
  1 25  1  0  0  0
  1 30  2  0  0  0
  1 83  1  0  0  0
  2  3  1  0  0  0
  2 25  1  0  0  0
  2 88  1  0  0  0
  2 89  1  0  0  0
  3  4  1  0  0  0
  3 90  1  0  0  0
  3 91  1  0  0  0
  4  5  1  0  0  0
  4 92  1  0  0  0
  4 93  1  0  0  0
  5  6  1  0  0  0
  5 26  1  0  0  0
  5 94  1  0  0  0
  6 25  1  0  0  0
  6 95  1  0  0  0
  6 96  1  0  0  0
  7  8  2  0  0  0
  7 26  1  0  0  0
  7 29  1  0  0  0
  8  9  1  0  0  0
  8 22  1  0  0  0
  9 10  1  0  0  0
  9 27  2  0  0  0
 10 11  2  0  0  0
 10 15  1  0  0  0
 11 12  1  0  0  0
 11 97  1  0  0  0
 12 13  2  0  0  0
 12 98  1  0  0  0
 13 14  1  0  0  0
 13 31  1  0  0  0
 14 15  2  0  0  0
 14 99  1  0  0  0
 15100  1  0  0  0
 16 17  2  0  0  0
 16 21  1  0  0  0
 16 31  1  0  0  0
 17 18  1  0  0  0
 17101  1  0  0  0
 18 19  2  0  0  0
 18102  1  0  0  0
 19 20  1  0  0  0
 19 24  1  0  0  0
 20 21  2  0  0  0
 20103  1  0  0  0
 21 23  1  0  0  0
 22 28  1  0  0  0
 22 32  2  0  0  0
 26 27  1  0  0  0
 28104  1  0  0  0
 28105  1  0  0  0
 29106  1  0  0  0
 29107  1  0  0  0
 33 34  1  0  0  0
 33 66  1  0  0  0
 33 70  2  0  0  0
 34 36  1  0  0  0
 34 59  1  0  0  0
 34108  1  0  0  0
 35 44  2  0  0  0
 35 45  1  0  0  0
 35 68  1  0  0  0
 36 56  1  0  0  0
 36109  1  0  0  0
 37 39  1  0  0  0
 37 47  1  0  0  0
 37 66  1  0  0  0
 37110  1  0  0  0
 38 43  2  0  0  0
 38 46  1  0  0  0
 38 47  1  0  0  0
 39 64  1  0  0  0
 39 67  2  0  0  0
 40 52  1  0  0  0
 40 53  2  0  0  0
 40 58  1  0  0  0
 41111  1  0  0  0
 41112  1  0  0  0
 41113  1  0  0  0
 41 48  1  0  0  0
 42 43  1  0  0  0
 42 66  1  0  0  0
 42114  1  0  0  0
 42115  1  0  0  0
 43 44  1  0  0  0
 44116  1  0  0  0
 45 46  2  0  0  0
 45117  1  0  0  0
 46118  1  0  0  0
 47119  1  0  0  0
 47120  1  0  0  0
 48 56  1  0  0  0
 48 65  1  0  0  0
 48121  1  0  0  0
 49 50  1  0  0  0
 49 53  1  0  0  0
 49 64  1  0  0  0
 49122  1  0  0  0
 50 51  1  0  0  0
 50123  1  0  0  0
 50124  1  0  0  0
 51 52  1  0  0  0
 51125  1  0  0  0
 51126  1  0  0  0
 52127  1  0  0  0
 52128  1  0  0  0
 53 54  1  0  0  0
 54 55  2  0  0  0
 54129  1  0  0  0
 55 57  1  0  0  0
 55130  1  0  0  0
 56 69  2  0  0  0
 57 58  2  0  0  0
 57131  1  0  0  0
 58132  1  0  0  0
 59 60  1  0  0  0
 59 61  1  0  0  0
 59 62  1  0  0  0
 60133  1  0  0  0
 60134  1  0  0  0
 60135  1  0  0  0
 61136  1  0  0  0
 61137  1  0  0  0
 61138  1  0  0  0
 62139  1  0  0  0
 62140  1  0  0  0
 62141  1  0  0  0
 63 65  1  0  0  0
 63142  1  0  0  0
 63143  1  0  0  0
 63144  1  0  0  0
 64145  1  0  0  0
 65146  1  0  0  0
 68 82  1  0  0  0
 71 72  2  0  0  0
 71 74  1  0  0  0
 71147  1  0  0  0
 72 75  1  0  0  0
 72148  1  0  0  0
 73 75  2  0  0  0
 73 76  1  0  0  0
 73149  1  0  0  0
 74 76  2  0  0  0
 74 78  1  0  0  0
 75 83  1  0  0  0
 76 84  1  0  0  0
 77 79  2  0  0  0
 77 80  1  0  0  0
 77150  1  0  0  0
 78 79  1  0  0  0
 78 85  2  0  0  0
 79 87  1  0  0  0
 80 82  1  0  0  0
 80 86  2  0  0  0
 81 84  1  0  0  0
 81151  1  0  0  0
 81152  1  0  0  0
 81153  1  0  0  0
 82154  1  0  0  0
 82155  1  0  0  0
 83156  1  0  0  0
 84157  1  0  0  0
 87158  1  0  0  0
M  ISO  4   1 100  68 101  82 101  83 100
M  END
> <chiral flag>
0

> <version>
0

> <s_m_source_file>
/data/baiqing/PycharmProjects/Reinvent-master-3.2/result/LINK_invent/BTK/process_docking_weight1_custom_product_contain_oxygen_bond_distance_aromatic_linkinvent_7_9_3/rearranged_h_0168.sdf

> <i_m_source_file_index>
7

> <r_mmod_Potential_Energy-OPLS-2005>
72.7857666015625

> <r_mmod_Stretch_Energy-OPLS-2005>
42.5929527282715

> <r_mmod_Bend_Energy-OPLS-2005>
103.290710449219

> <r_mmod_Torsional_Energy-OPLS-2005>
244.12174987793

> <r_mmod_Improper_Torsional_Energy-OPLS-2005>
6.97773838043213

> <r_mmod_Van_der_Waal_Energy-OPLS-2005>
173.379791259766

> <r_mmod_Electrostatic_Energy-OPLS-2005>
-260.798767089844

> <r_mmod_Solvation_Energy-OPLS-2005>
-247.229934692383

> <b_mmod_Minimization_Converged-OPLS-2005>
0

> <r_mmod_RMS_Derivative-OPLS-2005>
3.53714060783386

$$$$
7
                    3D
 Structure written by MMmdl.
170178  0  0  1  0            999 V2000
  -30.7014  -14.5195   20.4919 C   0  0  0  0  0  0
  -30.4156  -12.3138   19.4436 C   0  0  0  0  0  0
  -29.4960  -12.4840   18.2165 C   0  0  0  0  0  0
  -28.0174  -12.3475   18.6287 C   0  0  0  0  0  0
  -27.6549  -13.2153   19.8638 C   0  0  2  0  0  0
  -28.6985  -13.0596   20.9935 C   0  0  0  0  0  0
  -25.2570  -13.8184   20.5691 C   0  0  0  0  0  0
  -24.1838  -13.0445   20.9194 C   0  0  0  0  0  0
  -24.6400  -11.6916   20.8745 C   0  0  0  0  0  0
  -23.9076  -10.4298   21.0408 C   0  0  0  0  0  0
  -24.3626   -9.4213   21.9189 C   0  0  0  0  0  0
  -23.6300   -8.2246   22.0761 C   0  0  0  0  0  0
  -22.4282   -8.0284   21.3548 C   0  0  0  0  0  0
  -21.9925   -9.0259   20.4647 C   0  0  0  0  0  0
  -22.7254  -10.2136   20.3056 C   0  0  0  0  0  0
  -21.6851   -6.0743   22.5282 C   0  0  0  0  0  0
  -21.4011   -6.5644   23.8215 C   0  0  0  0  0  0
  -21.3663   -5.6796   24.9174 C   0  0  0  0  0  0
  -21.6041   -4.3060   24.7225 C   0  0  0  0  0  0
  -21.8825   -3.8152   23.4345 C   0  0  0  0  0  0
  -21.9193   -4.6971   22.3401 C   0  0  0  0  0  0
  -22.7855  -13.5235   21.1858 C   0  0  0  0  0  0
  -22.1661   -4.2157   21.0979 F   0  0  0  0  0  0
  -21.5630   -3.4545   25.7736 F   0  0  0  0  0  0
  -30.0260  -13.3385   20.4263 N   0  0  0  0  0  0
  -26.3001  -12.9360   20.3344 N   0  0  0  0  0  0
  -25.9332  -11.6513   20.5782 N   0  0  0  0  0  0
  -22.0495  -12.8210   22.0399 N   0  0  0  0  0  0
  -25.4281  -15.1905   20.4097 N   0  0  0  0  0  0
  -31.8825  -14.6057   20.1528 O   0  0  0  0  0  0
  -21.6641   -6.8886   21.4242 O   0  0  0  0  0  0
  -22.3538  -14.5551   20.6729 O   0  0  0  0  0  0
  -24.6175  -31.8649   23.2094 C   0  0  0  0  0  0
  -25.9069  -32.4799   23.8390 C   0  0  1  0  0  0
  -27.2313  -27.4226   20.1082 C   0  0  0  0  0  0
  -25.5922  -33.8598   24.2319 N   0  0  0  0  0  0
  -23.4052  -30.4893   21.5484 C   0  0  2  0  0  0
  -24.8529  -28.9525   20.1133 C   0  0  0  0  0  0
  -22.7410  -29.4659   22.4978 C   0  0  0  0  0  0
  -18.0268  -28.1380   22.8486 C   0  0  0  0  0  0
  -24.1487  -36.7300   23.2647 C   0  0  0  0  0  0
  -25.9354  -30.8292   21.3637 C   0  0  0  0  0  0
  -26.0134  -29.4646   20.7073 C   0  0  0  0  0  0
  -27.2101  -28.7096   20.6960 C   0  0  0  0  0  0
  -26.0566  -26.9232   19.5085 C   0  0  0  0  0  0
  -24.8698  -27.6819   19.5083 C   0  0  0  0  0  0
  -23.6140  -29.8203   20.1633 C   0  0  0  0  0  0
  -25.4110  -36.3089   24.0338 C   0  0  1  0  0  0
  -20.5859  -28.3672   23.1295 C   0  0  2  0  0  0
  -20.6762  -26.9405   22.5404 C   0  0  0  0  0  0
  -19.5743  -26.6384   21.5202 C   0  0  0  0  0  0
  -18.1911  -26.7930   22.1597 C   0  0  0  0  0  0
  -19.1520  -28.8844   23.2884 C   0  0  0  0  0  0
  -18.9459  -30.1450   23.8902 C   0  0  0  0  0  0
  -17.6465  -30.6588   24.0573 C   0  0  0  0  0  0
  -25.9041  -34.9456   23.5119 C   0  0  0  0  0  0
  -16.5346  -29.9090   23.6348 C   0  0  0  0  0  0
  -16.7263  -28.6505   23.0368 C   0  0  0  0  0  0
  -26.4508  -31.6593   25.0730 C   0  0  0  0  0  0
  -25.3777  -31.3662   26.1476 C   0  0  0  0  0  0
  -27.0400  -30.3047   24.6137 C   0  0  0  0  0  0
  -27.6066  -32.4348   25.7488 C   0  0  0  0  0  0
  -27.5570  -37.1806   24.8469 C   0  0  0  0  0  0
  -21.4139  -29.3037   22.3702 N   0  0  0  0  0  0
  -26.4291  -37.3776   23.9407 N   0  0  0  0  0  0
  -24.6707  -31.0751   22.0987 N   0  0  0  0  0  0
  -23.4166  -28.8211   23.3045 O   0  0  0  0  0  0
  -28.3703  -26.6482   20.1190 O   0  0  0  0  0  0
  -26.5594  -34.8906   22.4676 O   0  0  0  0  0  0
  -23.5369  -32.1419   23.7483 O   0  0  0  0  0  0
  -29.4749  -18.0539   20.9796 C   0  0  0  0  0  0
  -30.6329  -19.7125   19.6105 C   0  0  0  0  0  0
  -31.1543  -17.3440   19.3720 C   0  0  0  0  0  0
  -29.6707  -19.4148   20.5989 C   0  0  0  0  0  0
  -30.2159  -16.9967   20.3803 C   0  0  0  0  0  0
  -31.3782  -18.6897   18.9976 C   0  0  0  0  0  0
  -28.9376  -20.5425   21.2925 C   0  0  0  0  0  0
  -28.5025  -24.1497   20.3026 C   0  0  0  0  0  0
  -25.7995  -22.5525   23.3842 C   0  0  0  0  0  0
  -24.2107  -21.7253   21.6227 C   0  0  0  0  0  0
  -33.5393  -18.2463   17.9233 C   0  0  0  0  0  0
  -28.2905  -25.5127   21.0103 C   0  0  0  0  0  0
  -26.4143  -22.7584   20.9001 C   0  0  0  0  0  0
  -27.9623  -22.8759   21.0184 C   0  0  1  0  0  0
  -25.6913  -21.9234   21.9845 C   0  0  0  0  0  0
  -29.9607  -15.6238   20.7676 N   0  0  0  0  0  0
  -32.3242  -19.0469   18.0252 N   0  0  0  0  0  0
  -28.6342  -21.6353   20.5584 N   0  0  0  0  0  0
  -28.6312  -20.4347   22.4798 O   0  0  0  0  0  0
  -29.0778  -24.0951   19.2103 O   0  0  0  0  0  0
  -31.4629  -12.3912   19.1450 H   0  0  0  0  0  0
  -30.3024  -11.3175   19.8741 H   0  0  0  0  0  0
  -29.7397  -11.7395   17.4569 H   0  0  0  0  0  0
  -29.6636  -13.4591   17.7567 H   0  0  0  0  0  0
  -27.8377  -11.2952   18.8500 H   0  0  0  0  0  0
  -27.3675  -12.5965   17.7898 H   0  0  0  0  0  0
  -27.6795  -14.2533   19.5300 H   0  0  0  0  0  0
  -28.6768  -12.0477   21.4023 H   0  0  0  0  0  0
  -28.4713  -13.7225   21.8296 H   0  0  0  0  0  0
  -25.2766   -9.5686   22.4772 H   0  0  0  0  0  0
  -24.0008   -7.4640   22.7485 H   0  0  0  0  0  0
  -21.0862   -8.8780   19.8946 H   0  0  0  0  0  0
  -22.3725  -10.9676   19.6167 H   0  0  0  0  0  0
  -21.2000   -7.6150   23.9722 H   0  0  0  0  0  0
  -21.1477   -6.0524   25.9078 H   0  0  0  0  0  0
  -22.0600   -2.7617   23.2844 H   0  0  0  0  0  0
  -22.4108  -11.9849   22.4738 H   0  0  0  0  0  0
  -21.1122  -13.1236   22.2624 H   0  0  0  0  0  0
  -24.6611  -15.8455   20.5197 H   0  0  0  0  0  0
  -26.2775  -15.6291   20.0757 H   0  0  0  0  0  0
  -26.7138  -32.5488   23.1148 H   0  0  0  0  0  0
  -25.0133  -33.9762   25.0505 H   0  0  0  0  0  0
  -22.6958  -31.3078   21.4074 H   0  0  0  0  0  0
  -23.3739  -35.9640   23.3319 H   0  0  0  0  0  0
  -24.3572  -36.8920   22.2059 H   0  0  0  0  0  0
  -23.7254  -37.6506   23.6671 H   0  0  0  0  0  0
  -26.0554  -31.5995   20.6005 H   0  0  0  0  0  0
  -26.8194  -30.8744   21.9888 H   0  0  0  0  0  0
  -28.1077  -29.1014   21.1536 H   0  0  0  0  0  0
  -26.0578  -25.9452   19.0475 H   0  0  0  0  0  0
  -23.9763  -27.2806   19.0485 H   0  0  0  0  0  0
  -23.7193  -30.5956   19.4035 H   0  0  0  0  0  0
  -22.7377  -29.2408   19.8686 H   0  0  0  0  0  0
  -25.1290  -36.1951   25.0833 H   0  0  0  0  0  0
  -20.9945  -28.3248   24.1418 H   0  0  0  0  0  0
  -20.5667  -26.2289   23.3596 H   0  0  0  0  0  0
  -21.6635  -26.7442   22.1204 H   0  0  0  0  0  0
  -19.6912  -25.6301   21.1229 H   0  0  0  0  0  0
  -19.6696  -27.3199   20.6740 H   0  0  0  0  0  0
  -17.4193  -26.6718   21.3978 H   0  0  0  0  0  0
  -18.0283  -26.0050   22.8969 H   0  0  0  0  0  0
  -19.7934  -30.7266   24.2265 H   0  0  0  0  0  0
  -17.5019  -31.6271   24.5167 H   0  0  0  0  0  0
  -15.5348  -30.3000   23.7681 H   0  0  0  0  0  0
  -15.8653  -28.0830   22.7094 H   0  0  0  0  0  0
  -24.5999  -30.6952   25.7814 H   0  0  0  0  0  0
  -24.8914  -32.2792   26.4915 H   0  0  0  0  0  0
  -25.8164  -30.8860   27.0236 H   0  0  0  0  0  0
  -26.2974  -29.6716   24.1271 H   0  0  0  0  0  0
  -27.4270  -29.7371   25.4613 H   0  0  0  0  0  0
  -27.8742  -30.4381   23.9246 H   0  0  0  0  0  0
  -27.2678  -33.3652   26.2049 H   0  0  0  0  0  0
  -28.3877  -32.6907   25.0319 H   0  0  0  0  0  0
  -28.0738  -31.8494   26.5417 H   0  0  0  0  0  0
  -28.2601  -38.0085   24.7501 H   0  0  0  0  0  0
  -28.1055  -36.2623   24.6327 H   0  0  0  0  0  0
  -27.2281  -37.1495   25.8869 H   0  0  0  0  0  0
  -20.9307  -29.8742   21.6904 H   0  0  0  0  0  0
  -26.0171  -38.2852   24.1401 H   0  0  0  0  0  0
  -28.7492  -17.8276   21.7482 H   0  0  0  0  0  0
  -30.8173  -20.7417   19.3359 H   0  0  0  0  0  0
  -31.7091  -16.5767   18.8555 H   0  0  0  0  0  0
  -25.2438  -21.9707   24.1197 H   0  0  0  0  0  0
  -25.3981  -23.5665   23.3974 H   0  0  0  0  0  0
  -26.8293  -22.5955   23.7380 H   0  0  0  0  0  0
  -23.7046  -21.1039   22.3626 H   0  0  0  0  0  0
  -24.0975  -21.2332   20.6560 H   0  0  0  0  0  0
  -23.6813  -22.6775   21.5760 H   0  0  0  0  0  0
  -34.3288  -18.8270   17.4427 H   0  0  0  0  0  0
  -33.3734  -17.3472   17.3278 H   0  0  0  0  0  0
  -33.9051  -17.9486   18.9085 H   0  0  0  0  0  0
  -29.0717  -25.6212   21.7632 H   0  0  0  0  0  0
  -27.3441  -25.4957   21.5526 H   0  0  0  0  0  0
  -26.1764  -22.3517   19.9157 H   0  0  0  0  0  0
  -25.9665  -23.7541   20.9022 H   0  0  0  0  0  0
  -28.2210  -23.0130   22.0676 H   0  0  0  0  0  0
  -26.1370  -20.9306   22.0200 H   0  0  0  0  0  0
  -29.0524  -15.4372   21.1651 H   0  0  0  0  0  0
  -32.4359  -20.0429   17.8413 H   0  0  0  0  0  0
  -28.9333  -21.6406   19.5931 H   0  0  0  0  0  0
  1 25  1  0  0  0
  1 30  2  0  0  0
  1 86  1  0  0  0
  2  3  1  0  0  0
  2 25  1  0  0  0
  2 91  1  0  0  0
  2 92  1  0  0  0
  3  4  1  0  0  0
  3 93  1  0  0  0
  3 94  1  0  0  0
  4  5  1  0  0  0
  4 95  1  0  0  0
  4 96  1  0  0  0
  5  6  1  0  0  0
  5 26  1  0  0  0
  5 97  1  0  0  0
  6 25  1  0  0  0
  6 98  1  0  0  0
  6 99  1  0  0  0
  7  8  2  0  0  0
  7 26  1  0  0  0
  7 29  1  0  0  0
  8  9  1  0  0  0
  8 22  1  0  0  0
  9 10  1  0  0  0
  9 27  2  0  0  0
 10 11  2  0  0  0
 10 15  1  0  0  0
 11 12  1  0  0  0
 11100  1  0  0  0
 12 13  2  0  0  0
 12101  1  0  0  0
 13 14  1  0  0  0
 13 31  1  0  0  0
 14 15  2  0  0  0
 14102  1  0  0  0
 15103  1  0  0  0
 16 17  2  0  0  0
 16 21  1  0  0  0
 16 31  1  0  0  0
 17 18  1  0  0  0
 17104  1  0  0  0
 18 19  2  0  0  0
 18105  1  0  0  0
 19 20  1  0  0  0
 19 24  1  0  0  0
 20 21  2  0  0  0
 20106  1  0  0  0
 21 23  1  0  0  0
 22 28  1  0  0  0
 22 32  2  0  0  0
 26 27  1  0  0  0
 28107  1  0  0  0
 28108  1  0  0  0
 29109  1  0  0  0
 29110  1  0  0  0
 33 34  1  0  0  0
 33 66  1  0  0  0
 33 70  2  0  0  0
 34 36  1  0  0  0
 34 59  1  0  0  0
 34111  1  0  0  0
 35 44  2  0  0  0
 35 45  1  0  0  0
 35 68  1  0  0  0
 36 56  1  0  0  0
 36112  1  0  0  0
 37 39  1  0  0  0
 37 47  1  0  0  0
 37 66  1  0  0  0
 37113  1  0  0  0
 38 43  2  0  0  0
 38 46  1  0  0  0
 38 47  1  0  0  0
 39 64  1  0  0  0
 39 67  2  0  0  0
 40 52  1  0  0  0
 40 53  2  0  0  0
 40 58  1  0  0  0
 41114  1  0  0  0
 41115  1  0  0  0
 41116  1  0  0  0
 41 48  1  0  0  0
 42 43  1  0  0  0
 42 66  1  0  0  0
 42117  1  0  0  0
 42118  1  0  0  0
 43 44  1  0  0  0
 44119  1  0  0  0
 45 46  2  0  0  0
 45120  1  0  0  0
 46121  1  0  0  0
 47122  1  0  0  0
 47123  1  0  0  0
 48 56  1  0  0  0
 48 65  1  0  0  0
 48124  1  0  0  0
 49 50  1  0  0  0
 49 53  1  0  0  0
 49 64  1  0  0  0
 49125  1  0  0  0
 50 51  1  0  0  0
 50126  1  0  0  0
 50127  1  0  0  0
 51 52  1  0  0  0
 51128  1  0  0  0
 51129  1  0  0  0
 52130  1  0  0  0
 52131  1  0  0  0
 53 54  1  0  0  0
 54 55  2  0  0  0
 54132  1  0  0  0
 55 57  1  0  0  0
 55133  1  0  0  0
 56 69  2  0  0  0
 57 58  2  0  0  0
 57134  1  0  0  0
 58135  1  0  0  0
 59 60  1  0  0  0
 59 61  1  0  0  0
 59 62  1  0  0  0
 60136  1  0  0  0
 60137  1  0  0  0
 60138  1  0  0  0
 61139  1  0  0  0
 61140  1  0  0  0
 61141  1  0  0  0
 62142  1  0  0  0
 62143  1  0  0  0
 62144  1  0  0  0
 63 65  1  0  0  0
 63145  1  0  0  0
 63146  1  0  0  0
 63147  1  0  0  0
 64148  1  0  0  0
 65149  1  0  0  0
 68 82  1  0  0  0
 71 74  2  0  0  0
 71 75  1  0  0  0
 71150  1  0  0  0
 72 74  1  0  0  0
 72 76  2  0  0  0
 72151  1  0  0  0
 73 75  2  0  0  0
 73 76  1  0  0  0
 73152  1  0  0  0
 74 77  1  0  0  0
 75 86  1  0  0  0
 76 87  1  0  0  0
 77 88  1  0  0  0
 77 89  2  0  0  0
 78 82  1  0  0  0
 78 84  1  0  0  0
 78 90  2  0  0  0
 79153  1  0  0  0
 79154  1  0  0  0
 79155  1  0  0  0
 79 85  1  0  0  0
 80 85  1  0  0  0
 80156  1  0  0  0
 80157  1  0  0  0
 80158  1  0  0  0
 81 87  1  0  0  0
 81159  1  0  0  0
 81160  1  0  0  0
 81161  1  0  0  0
 82162  1  0  0  0
 82163  1  0  0  0
 83 85  1  0  0  0
 83164  1  0  0  0
 83165  1  0  0  0
 83 84  1  0  0  0
 84 88  1  0  0  0
 84166  1  0  0  0
 85167  1  0  0  0
 86168  1  0  0  0
 87169  1  0  0  0
 88170  1  0  0  0
M  ISO  4   1 100  68 101  82 101  86 100
M  END
> <chiral flag>
0

> <version>
0

> <s_m_source_file>
/data/baiqing/PycharmProjects/Reinvent-master-3.2/result/LINK_invent/BTK/process_docking_weight1_custom_product_contain_oxygen_bond_distance_aromatic_linkinvent_7_9_3/rearranged_h_0168.sdf

> <i_m_source_file_index>
8

> <r_mmod_Potential_Energy-OPLS-2005>
-89.0247650146484

> <r_mmod_Stretch_Energy-OPLS-2005>
47.5123481750488

> <r_mmod_Bend_Energy-OPLS-2005>
107.290954589844

> <r_mmod_Torsional_Energy-OPLS-2005>
266.530456542969

> <r_mmod_Improper_Torsional_Energy-OPLS-2005>
7.43864154815674

> <r_mmod_Van_der_Waal_Energy-OPLS-2005>
148.185302734375

> <r_mmod_Electrostatic_Energy-OPLS-2005>
-435.871185302734

> <r_mmod_Solvation_Energy-OPLS-2005>
-252.172286987305

> <b_mmod_Minimization_Converged-OPLS-2005>
0

> <r_mmod_RMS_Derivative-OPLS-2005>
1.75744032859802

$$$$
8
                    3D
 Structure written by MMmdl.
147155  0  0  1  0            999 V2000
  -30.5865  -14.7885   20.4453 C   0  0  0  0  0  0
  -30.4362  -12.4774   19.4848 C   0  0  0  0  0  0
  -29.5151  -12.5129   18.2440 C   0  0  0  0  0  0
  -28.0414  -12.3300   18.6551 C   0  0  0  0  0  0
  -27.6413  -13.2332   19.8517 C   0  0  2  0  0  0
  -28.6844  -13.1771   20.9899 C   0  0  0  0  0  0
  -25.2507  -13.8195   20.5697 C   0  0  0  0  0  0
  -24.1801  -13.0439   20.9213 C   0  0  0  0  0  0
  -24.6394  -11.6917   20.8749 C   0  0  0  0  0  0
  -23.9072  -10.4293   21.0408 C   0  0  0  0  0  0
  -24.3622   -9.4207   21.9185 C   0  0  0  0  0  0
  -23.6296   -8.2243   22.0754 C   0  0  0  0  0  0
  -22.4278   -8.0281   21.3544 C   0  0  0  0  0  0
  -21.9914   -9.0255   20.4646 C   0  0  0  0  0  0
  -22.7244  -10.2134   20.3056 C   0  0  0  0  0  0
  -21.6853   -6.0736   22.5279 C   0  0  0  0  0  0
  -21.4014   -6.5640   23.8212 C   0  0  0  0  0  0
  -21.3660   -5.6793   24.9174 C   0  0  0  0  0  0
  -21.6044   -4.3055   24.7225 C   0  0  0  0  0  0
  -21.8819   -3.8147   23.4346 C   0  0  0  0  0  0
  -21.9193   -4.6964   22.3402 C   0  0  0  0  0  0
  -22.7822  -13.5220   21.1870 C   0  0  0  0  0  0
  -22.1662   -4.2150   21.0980 F   0  0  0  0  0  0
  -21.5629   -3.4539   25.7738 F   0  0  0  0  0  0
  -29.9843  -13.5441   20.4128 N   0  0  0  0  0  0
  -26.2932  -12.9404   20.3278 N   0  0  0  0  0  0
  -25.9325  -11.6546   20.5752 N   0  0  0  0  0  0
  -22.0468  -12.8209   22.0425 N   0  0  0  0  0  0
  -25.4191  -15.1922   20.4109 N   0  0  0  0  0  0
  -31.7727  -14.8785   20.1085 O   0  0  0  0  0  0
  -21.6641   -6.8879   21.4241 O   0  0  0  0  0  0
  -22.3509  -14.5526   20.6717 O   0  0  0  0  0  0
  -24.6341  -31.8520   23.1953 C   0  0  0  0  0  0
  -25.9155  -32.4734   23.8309 C   0  0  1  0  0  0
  -27.2222  -27.2306   20.1258 C   0  0  0  0  0  0
  -25.5941  -33.8538   24.2232 N   0  0  0  0  0  0
  -23.4320  -30.4737   21.5392 C   0  0  2  0  0  0
  -24.8791  -28.9155   20.1075 C   0  0  0  0  0  0
  -22.7517  -29.4585   22.4897 C   0  0  0  0  0  0
  -18.0294  -28.1389   22.8483 C   0  0  0  0  0  0
  -24.1491  -36.7272   23.2641 C   0  0  0  0  0  0
  -25.9801  -30.7545   21.3798 C   0  0  0  0  0  0
  -26.0507  -29.3745   20.7204 C   0  0  0  0  0  0
  -27.2196  -28.5434   20.7202 C   0  0  0  0  0  0
  -26.0216  -26.8443   19.4871 C   0  0  0  0  0  0
  -24.8717  -27.6602   19.4812 C   0  0  0  0  0  0
  -23.6513  -29.8062   20.1556 C   0  0  0  0  0  0
  -25.4120  -36.3056   24.0323 C   0  0  1  0  0  0
  -20.5900  -28.3703   23.1262 C   0  0  2  0  0  0
  -20.6780  -26.9417   22.5408 C   0  0  0  0  0  0
  -19.5755  -26.6382   21.5213 C   0  0  0  0  0  0
  -18.1936  -26.7930   22.1624 C   0  0  0  0  0  0
  -19.1548  -28.8864   23.2866 C   0  0  0  0  0  0
  -18.9468  -30.1464   23.8886 C   0  0  0  0  0  0
  -17.6466  -30.6589   24.0561 C   0  0  0  0  0  0
  -25.9063  -34.9429   23.5082 C   0  0  0  0  0  0
  -16.5357  -29.9085   23.6333 C   0  0  0  0  0  0
  -16.7280  -28.6502   23.0354 C   0  0  0  0  0  0
  -26.4512  -31.6575   25.0716 C   0  0  0  0  0  0
  -25.3723  -31.3737   26.1428 C   0  0  0  0  0  0
  -27.0370  -30.2987   24.6233 C   0  0  0  0  0  0
  -27.6056  -32.4327   25.7494 C   0  0  0  0  0  0
  -27.5576  -37.1793   24.8466 C   0  0  0  0  0  0
  -21.4220  -29.3043   22.3645 N   0  0  0  0  0  0
  -26.4289  -37.3760   23.9408 N   0  0  0  0  0  0
  -24.7013  -31.0458   22.0941 N   0  0  0  0  0  0
  -23.4203  -28.8131   23.3012 O   0  0  0  0  0  0
  -28.3264  -26.3401   20.2208 O   0  0  0  0  0  0
  -26.5640  -34.8912   22.4654 O   0  0  0  0  0  0
  -23.5485  -32.1357   23.7234 O   0  0  0  0  0  0
  -30.6363  -19.2884   19.5342 C   0  0  0  0  0  0
  -29.5568  -19.6310   20.3220 C   0  0  0  0  0  0
  -29.9639  -17.3611   20.4148 C   0  0  0  0  0  0
  -28.5638  -23.6363   20.5039 C   0  0  0  0  0  0
  -29.0656  -22.2231   19.8840 C   0  0  0  0  0  0
  -28.3837  -24.9586   19.5899 C   0  0  0  0  0  0
  -30.8815  -17.8992   19.6012 N   0  0  0  0  0  0
  -28.9059  -20.9012   20.6446 N   0  0  0  0  0  0
  -29.7992  -15.9086   20.7144 N   0  0  0  0  0  0
  -28.3001  -23.6878   21.7099 O   0  0  0  0  0  0
  -29.1247  -18.3894   20.8773 O   0  0  0  0  0  0
  -31.4766  -12.6055   19.1818 H   0  0  0  0  0  0
  -30.3883  -11.5029   19.9734 H   0  0  0  0  0  0
  -29.8048  -11.7356   17.5356 H   0  0  0  0  0  0
  -29.6359  -13.4634   17.7218 H   0  0  0  0  0  0
  -27.9040  -11.2819   18.9233 H   0  0  0  0  0  0
  -27.3842  -12.5140   17.8043 H   0  0  0  0  0  0
  -27.6319  -14.2526   19.4655 H   0  0  0  0  0  0
  -28.7277  -12.1788   21.4283 H   0  0  0  0  0  0
  -28.4090  -13.8525   21.8013 H   0  0  0  0  0  0
  -25.2766   -9.5684   22.4760 H   0  0  0  0  0  0
  -24.0005   -7.4634   22.7473 H   0  0  0  0  0  0
  -21.0846   -8.8775   19.8951 H   0  0  0  0  0  0
  -22.3702  -10.9674   19.6166 H   0  0  0  0  0  0
  -21.2006   -7.6148   23.9716 H   0  0  0  0  0  0
  -21.1482   -6.0523   25.9077 H   0  0  0  0  0  0
  -22.0598   -2.7609   23.2845 H   0  0  0  0  0  0
  -22.4086  -11.9872   22.4814 H   0  0  0  0  0  0
  -21.1084  -13.1230   22.2629 H   0  0  0  0  0  0
  -24.6457  -15.8404   20.5143 H   0  0  0  0  0  0
  -26.2536  -15.6313   20.0447 H   0  0  0  0  0  0
  -26.7219  -32.5369   23.1043 H   0  0  0  0  0  0
  -25.0084  -33.9668   25.0375 H   0  0  0  0  0  0
  -22.7299  -31.2969   21.3916 H   0  0  0  0  0  0
  -23.3755  -35.9603   23.3300 H   0  0  0  0  0  0
  -24.3579  -36.8903   22.2057 H   0  0  0  0  0  0
  -23.7244  -37.6470   23.6673 H   0  0  0  0  0  0
  -26.1245  -31.5143   20.6105 H   0  0  0  0  0  0
  -26.8554  -30.8019   22.0161 H   0  0  0  0  0  0
  -28.1143  -28.8894   21.2188 H   0  0  0  0  0  0
  -25.9167  -25.8829   19.0124 H   0  0  0  0  0  0
  -23.9720  -27.3011   19.0004 H   0  0  0  0  0  0
  -23.7780  -30.5820   19.3997 H   0  0  0  0  0  0
  -22.7685  -29.2418   19.8500 H   0  0  0  0  0  0
  -25.1305  -36.1894   25.0815 H   0  0  0  0  0  0
  -20.9992  -28.3283   24.1383 H   0  0  0  0  0  0
  -20.5677  -26.2315   23.3617 H   0  0  0  0  0  0
  -21.6647  -26.7435   22.1203 H   0  0  0  0  0  0
  -19.6916  -25.6291   21.1249 H   0  0  0  0  0  0
  -19.6692  -27.3187   20.6738 H   0  0  0  0  0  0
  -17.4206  -26.6677   21.4027 H   0  0  0  0  0  0
  -18.0335  -26.0075   22.9023 H   0  0  0  0  0  0
  -19.7944  -30.7283   24.2249 H   0  0  0  0  0  0
  -17.5020  -31.6268   24.5164 H   0  0  0  0  0  0
  -15.5357  -30.2982   23.7665 H   0  0  0  0  0  0
  -15.8680  -28.0818   22.7075 H   0  0  0  0  0  0
  -24.5906  -30.7077   25.7754 H   0  0  0  0  0  0
  -24.8905  -32.2910   26.4822 H   0  0  0  0  0  0
  -25.8029  -30.8935   27.0224 H   0  0  0  0  0  0
  -26.2966  -29.6719   24.1247 H   0  0  0  0  0  0
  -27.4028  -29.7267   25.4771 H   0  0  0  0  0  0
  -27.8853  -30.4251   23.9502 H   0  0  0  0  0  0
  -27.2657  -33.3638   26.2041 H   0  0  0  0  0  0
  -28.3882  -32.6870   25.0334 H   0  0  0  0  0  0
  -28.0706  -31.8472   26.5436 H   0  0  0  0  0  0
  -28.2593  -38.0091   24.7509 H   0  0  0  0  0  0
  -28.1073  -36.2621   24.6299 H   0  0  0  0  0  0
  -27.2293  -37.1448   25.8869 H   0  0  0  0  0  0
  -20.9413  -29.8761   21.6841 H   0  0  0  0  0  0
  -26.0162  -38.2832   24.1406 H   0  0  0  0  0  0
  -31.2653  -19.9323   18.9357 H   0  0  0  0  0  0
  -30.1231  -22.3485   19.6494 H   0  0  0  0  0  0
  -28.5661  -22.1113   18.9209 H   0  0  0  0  0  0
  -27.5454  -24.7762   18.9246 H   0  0  0  0  0  0
  -29.2491  -24.9758   18.9277 H   0  0  0  0  0  0
  -28.1279  -20.9028   21.3008 H   0  0  0  0  0  0
  -28.8982  -15.6808   21.1005 H   0  0  0  0  0  0
  1 25  1  0  0  0
  1 30  2  0  0  0
  1 79  1  0  0  0
  2  3  1  0  0  0
  2 25  1  0  0  0
  2 82  1  0  0  0
  2 83  1  0  0  0
  3  4  1  0  0  0
  3 84  1  0  0  0
  3 85  1  0  0  0
  4  5  1  0  0  0
  4 86  1  0  0  0
  4 87  1  0  0  0
  5  6  1  0  0  0
  5 26  1  0  0  0
  5 88  1  0  0  0
  6 25  1  0  0  0
  6 89  1  0  0  0
  6 90  1  0  0  0
  7  8  2  0  0  0
  7 26  1  0  0  0
  7 29  1  0  0  0
  8  9  1  0  0  0
  8 22  1  0  0  0
  9 10  1  0  0  0
  9 27  2  0  0  0
 10 11  2  0  0  0
 10 15  1  0  0  0
 11 12  1  0  0  0
 11 91  1  0  0  0
 12 13  2  0  0  0
 12 92  1  0  0  0
 13 14  1  0  0  0
 13 31  1  0  0  0
 14 15  2  0  0  0
 14 93  1  0  0  0
 15 94  1  0  0  0
 16 17  2  0  0  0
 16 21  1  0  0  0
 16 31  1  0  0  0
 17 18  1  0  0  0
 17 95  1  0  0  0
 18 19  2  0  0  0
 18 96  1  0  0  0
 19 20  1  0  0  0
 19 24  1  0  0  0
 20 21  2  0  0  0
 20 97  1  0  0  0
 21 23  1  0  0  0
 22 28  1  0  0  0
 22 32  2  0  0  0
 26 27  1  0  0  0
 28 98  1  0  0  0
 28 99  1  0  0  0
 29100  1  0  0  0
 29101  1  0  0  0
 33 34  1  0  0  0
 33 66  1  0  0  0
 33 70  2  0  0  0
 34 36  1  0  0  0
 34 59  1  0  0  0
 34102  1  0  0  0
 35 44  2  0  0  0
 35 45  1  0  0  0
 35 68  1  0  0  0
 36 56  1  0  0  0
 36103  1  0  0  0
 37 39  1  0  0  0
 37 47  1  0  0  0
 37 66  1  0  0  0
 37104  1  0  0  0
 38 43  2  0  0  0
 38 46  1  0  0  0
 38 47  1  0  0  0
 39 64  1  0  0  0
 39 67  2  0  0  0
 40 52  1  0  0  0
 40 53  2  0  0  0
 40 58  1  0  0  0
 41105  1  0  0  0
 41106  1  0  0  0
 41107  1  0  0  0
 41 48  1  0  0  0
 42 43  1  0  0  0
 42 66  1  0  0  0
 42108  1  0  0  0
 42109  1  0  0  0
 43 44  1  0  0  0
 44110  1  0  0  0
 45 46  2  0  0  0
 45111  1  0  0  0
 46112  1  0  0  0
 47113  1  0  0  0
 47114  1  0  0  0
 48 56  1  0  0  0
 48 65  1  0  0  0
 48115  1  0  0  0
 49 50  1  0  0  0
 49 53  1  0  0  0
 49 64  1  0  0  0
 49116  1  0  0  0
 50 51  1  0  0  0
 50117  1  0  0  0
 50118  1  0  0  0
 51 52  1  0  0  0
 51119  1  0  0  0
 51120  1  0  0  0
 52121  1  0  0  0
 52122  1  0  0  0
 53 54  1  0  0  0
 54 55  2  0  0  0
 54123  1  0  0  0
 55 57  1  0  0  0
 55124  1  0  0  0
 56 69  2  0  0  0
 57 58  2  0  0  0
 57125  1  0  0  0
 58126  1  0  0  0
 59 60  1  0  0  0
 59 61  1  0  0  0
 59 62  1  0  0  0
 60127  1  0  0  0
 60128  1  0  0  0
 60129  1  0  0  0
 61130  1  0  0  0
 61131  1  0  0  0
 61132  1  0  0  0
 62133  1  0  0  0
 62134  1  0  0  0
 62135  1  0  0  0
 63 65  1  0  0  0
 63136  1  0  0  0
 63137  1  0  0  0
 63138  1  0  0  0
 64139  1  0  0  0
 65140  1  0  0  0
 68 76  1  0  0  0
 71 72  2  0  0  0
 71 77  1  0  0  0
 71141  1  0  0  0
 72 78  1  0  0  0
 72 81  1  0  0  0
 73 77  2  0  0  0
 73 79  1  0  0  0
 73 81  1  0  0  0
 74 75  1  0  0  0
 74 76  1  0  0  0
 74 80  2  0  0  0
 75 78  1  0  0  0
 75142  1  0  0  0
 75143  1  0  0  0
 76144  1  0  0  0
 76145  1  0  0  0
 78146  1  0  0  0
 79147  1  0  0  0
M  ISO  4   1 100  68 101  76 101  79 100
M  END
> <chiral flag>
0

> <version>
0

> <s_m_source_file>
/data/baiqing/PycharmProjects/Reinvent-master-3.2/result/LINK_invent/BTK/process_docking_weight1_custom_product_contain_oxygen_bond_distance_aromatic_linkinvent_7_9_3/rearranged_h_0168.sdf

> <i_m_source_file_index>
9

> <r_mmod_Potential_Energy-OPLS-2005>
166.275680541992

> <r_mmod_Stretch_Energy-OPLS-2005>
142.048645019531

> <r_mmod_Bend_Energy-OPLS-2005>
190.537002563477

> <r_mmod_Torsional_Energy-OPLS-2005>
201.580780029297

> <r_mmod_Improper_Torsional_Energy-OPLS-2005>
4.25482273101807

> <r_mmod_Van_der_Waal_Energy-OPLS-2005>
116.377326965332

> <r_mmod_Electrostatic_Energy-OPLS-2005>
-316.460510253906

> <r_mmod_Solvation_Energy-OPLS-2005>
-274.820098876953

> <b_mmod_Minimization_Converged-OPLS-2005>
0

> <r_mmod_RMS_Derivative-OPLS-2005>
0.114461429417133

$$$$
9
                    3D
 Structure written by MMmdl.
157165  0  0  1  0            999 V2000
  -30.6486  -14.5962   20.4935 C   0  0  0  0  0  0
  -30.4294  -12.3596   19.4511 C   0  0  0  0  0  0
  -29.5099  -12.5054   18.2192 C   0  0  0  0  0  0
  -28.0300  -12.3548   18.6263 C   0  0  0  0  0  0
  -27.6564  -13.2178   19.8603 C   0  0  2  0  0  0
  -28.6972  -13.0643   20.9927 C   0  0  0  0  0  0
  -25.2565  -13.8169   20.5681 C   0  0  0  0  0  0
  -24.1831  -13.0437   20.9183 C   0  0  0  0  0  0
  -24.6407  -11.6911   20.8727 C   0  0  0  0  0  0
  -23.9077  -10.4288   21.0411 C   0  0  0  0  0  0
  -24.3629   -9.4200   21.9189 C   0  0  0  0  0  0
  -23.6296   -8.2241   22.0765 C   0  0  0  0  0  0
  -22.4270   -8.0294   21.3562 C   0  0  0  0  0  0
  -21.9914   -9.0263   20.4657 C   0  0  0  0  0  0
  -22.7252  -10.2139   20.3058 C   0  0  0  0  0  0
  -21.6857   -6.0747   22.5282 C   0  0  0  0  0  0
  -21.4015   -6.5639   23.8212 C   0  0  0  0  0  0
  -21.3653   -5.6796   24.9178 C   0  0  0  0  0  0
  -21.6040   -4.3056   24.7223 C   0  0  0  0  0  0
  -21.8820   -3.8152   23.4340 C   0  0  0  0  0  0
  -21.9185   -4.6978   22.3407 C   0  0  0  0  0  0
  -22.7852  -13.5233   21.1816 C   0  0  0  0  0  0
  -22.1668   -4.2165   21.0984 F   0  0  0  0  0  0
  -21.5617   -3.4536   25.7732 F   0  0  0  0  0  0
  -30.0212  -13.3810   20.4368 N   0  0  0  0  0  0
  -26.3002  -12.9360   20.3284 N   0  0  0  0  0  0
  -25.9327  -11.6514   20.5713 N   0  0  0  0  0  0
  -22.0472  -12.8250   22.0382 N   0  0  0  0  0  0
  -25.4276  -15.1897   20.4130 N   0  0  0  0  0  0
  -31.8120  -14.7340   20.1002 O   0  0  0  0  0  0
  -21.6648   -6.8891   21.4245 O   0  0  0  0  0  0
  -22.3548  -14.5547   20.6670 O   0  0  0  0  0  0
  -24.6208  -31.8634   23.2040 C   0  0  0  0  0  0
  -25.9077  -32.4791   23.8353 C   0  0  1  0  0  0
  -27.2275  -27.3654   20.1128 C   0  0  0  0  0  0
  -25.5919  -33.8588   24.2286 N   0  0  0  0  0  0
  -23.4094  -30.4868   21.5481 C   0  0  2  0  0  0
  -24.8539  -28.9402   20.1159 C   0  0  0  0  0  0
  -22.7431  -29.4636   22.4968 C   0  0  0  0  0  0
  -18.0277  -28.1407   22.8504 C   0  0  0  0  0  0
  -24.1475  -36.7284   23.2639 C   0  0  0  0  0  0
  -25.9439  -30.8106   21.3622 C   0  0  0  0  0  0
  -26.0199  -29.4391   20.7101 C   0  0  0  0  0  0
  -27.2088  -28.6636   20.6949 C   0  0  0  0  0  0
  -26.0384  -26.8973   19.5071 C   0  0  0  0  0  0
  -24.8633  -27.6750   19.5055 C   0  0  0  0  0  0
  -23.6193  -29.8169   20.1627 C   0  0  0  0  0  0
  -25.4100  -36.3087   24.0330 C   0  0  1  0  0  0
  -20.5870  -28.3685   23.1319 C   0  0  2  0  0  0
  -20.6757  -26.9416   22.5429 C   0  0  0  0  0  0
  -19.5727  -26.6411   21.5226 C   0  0  0  0  0  0
  -18.1913  -26.7952   22.1648 C   0  0  0  0  0  0
  -19.1526  -28.8865   23.2908 C   0  0  0  0  0  0
  -18.9463  -30.1479   23.8901 C   0  0  0  0  0  0
  -17.6466  -30.6602   24.0585 C   0  0  0  0  0  0
  -25.9040  -34.9458   23.5105 C   0  0  0  0  0  0
  -16.5354  -29.9116   23.6338 C   0  0  0  0  0  0
  -16.7271  -28.6538   23.0348 C   0  0  0  0  0  0
  -26.4479  -31.6594   25.0704 C   0  0  0  0  0  0
  -25.3748  -31.3730   26.1457 C   0  0  0  0  0  0
  -27.0296  -30.3030   24.6102 C   0  0  0  0  0  0
  -27.6025  -32.4334   25.7489 C   0  0  0  0  0  0
  -27.5567  -37.1797   24.8461 C   0  0  0  0  0  0
  -21.4149  -29.3029   22.3699 N   0  0  0  0  0  0
  -26.4271  -37.3790   23.9415 N   0  0  0  0  0  0
  -24.6774  -31.0685   22.0965 N   0  0  0  0  0  0
  -23.4178  -28.8175   23.3030 O   0  0  0  0  0  0
  -28.3857  -26.5957   20.1272 O   0  0  0  0  0  0
  -26.5605  -34.8925   22.4668 O   0  0  0  0  0  0
  -23.5395  -32.1413   23.7413 O   0  0  0  0  0  0
  -30.2030  -18.7089   18.8600 C   0  0  0  0  0  0
  -29.4913  -19.4553   19.7797 C   0  0  0  0  0  0
  -29.9105  -17.0290   20.4064 C   0  0  0  0  0  0
  -29.9757  -22.9913   20.6049 C   0  0  0  0  0  0
  -29.6815  -24.4618   20.1553 C   0  0  0  0  0  0
  -30.6785  -19.1921   17.5224 C   0  0  0  0  0  0
  -32.7227  -21.0721   21.4210 C   0  0  0  0  0  0
  -28.8826  -21.8671   20.5882 C   0  0  0  0  0  0
  -28.2779  -25.1318   20.2102 C   0  0  0  0  0  0
  -30.4458  -17.3713   19.2271 N   0  0  0  0  0  0
  -31.1720  -22.6970   20.9657 N   0  0  0  0  0  0
  -29.0690  -20.8009   19.5631 N   0  0  0  0  0  0
  -29.8917  -15.6596   20.8893 N   0  0  0  0  0  0
  -30.6211  -25.1696   19.7578 O   0  0  0  0  0  0
  -31.3381  -21.3857   21.4459 O   0  0  0  0  0  0
  -29.0973  -18.4314   21.1728 S   0  0  0  0  0  0
  -31.4750  -12.4602   19.1563 H   0  0  0  0  0  0
  -30.3370  -11.3602   19.8787 H   0  0  0  0  0  0
  -29.7683  -11.7611   17.4656 H   0  0  0  0  0  0
  -29.6718  -13.4781   17.7513 H   0  0  0  0  0  0
  -27.8528  -11.3018   18.8484 H   0  0  0  0  0  0
  -27.3816  -12.6010   17.7842 H   0  0  0  0  0  0
  -27.6801  -14.2556   19.5245 H   0  0  0  0  0  0
  -28.6880  -12.0458   21.3832 H   0  0  0  0  0  0
  -28.4489  -13.7082   21.8375 H   0  0  0  0  0  0
  -25.2775   -9.5681   22.4761 H   0  0  0  0  0  0
  -23.9996   -7.4644   22.7496 H   0  0  0  0  0  0
  -21.0835   -8.8794   19.8974 H   0  0  0  0  0  0
  -22.3716  -10.9681   19.6166 H   0  0  0  0  0  0
  -21.2027   -7.6158   23.9730 H   0  0  0  0  0  0
  -21.1467   -6.0523   25.9081 H   0  0  0  0  0  0
  -22.0604   -2.7619   23.2844 H   0  0  0  0  0  0
  -22.4068  -11.9928   22.4795 H   0  0  0  0  0  0
  -21.1098  -13.1324   22.2554 H   0  0  0  0  0  0
  -24.6565  -15.8392   20.5211 H   0  0  0  0  0  0
  -26.2681  -15.6301   20.0614 H   0  0  0  0  0  0
  -26.7133  -32.5476   23.1094 H   0  0  0  0  0  0
  -25.0069  -33.9728   25.0437 H   0  0  0  0  0  0
  -22.7004  -31.3056   21.4084 H   0  0  0  0  0  0
  -23.3733  -35.9623   23.3315 H   0  0  0  0  0  0
  -24.3550  -36.8880   22.2048 H   0  0  0  0  0  0
  -23.7241  -37.6497   23.6645 H   0  0  0  0  0  0
  -26.0621  -31.5730   20.5918 H   0  0  0  0  0  0
  -26.8272  -30.8653   21.9856 H   0  0  0  0  0  0
  -28.1097  -29.0470   21.1524 H   0  0  0  0  0  0
  -26.0010  -25.9330   19.0233 H   0  0  0  0  0  0
  -23.9696  -27.2918   19.0326 H   0  0  0  0  0  0
  -23.7348  -30.5913   19.4030 H   0  0  0  0  0  0
  -22.7389  -29.2454   19.8636 H   0  0  0  0  0  0
  -25.1297  -36.1927   25.0829 H   0  0  0  0  0  0
  -20.9983  -28.3260   24.1437 H   0  0  0  0  0  0
  -20.5674  -26.2292   23.3622 H   0  0  0  0  0  0
  -21.6631  -26.7463   22.1224 H   0  0  0  0  0  0
  -19.6871  -25.6329   21.1243 H   0  0  0  0  0  0
  -19.6663  -27.3223   20.6756 H   0  0  0  0  0  0
  -17.4192  -26.6715   21.4047 H   0  0  0  0  0  0
  -18.0311  -26.0094   22.9044 H   0  0  0  0  0  0
  -19.7932  -30.7308   24.2253 H   0  0  0  0  0  0
  -17.5015  -31.6272   24.5207 H   0  0  0  0  0  0
  -15.5350  -30.3030   23.7644 H   0  0  0  0  0  0
  -15.8669  -28.0861   22.7053 H   0  0  0  0  0  0
  -24.5915  -30.7062   25.7831 H   0  0  0  0  0  0
  -24.8949  -32.2905   26.4890 H   0  0  0  0  0  0
  -25.8131  -30.8943   27.0221 H   0  0  0  0  0  0
  -26.2838  -29.6798   24.1150 H   0  0  0  0  0  0
  -27.4038  -29.7267   25.4567 H   0  0  0  0  0  0
  -27.8687  -30.4322   23.9254 H   0  0  0  0  0  0
  -27.2599  -33.3616   26.2076 H   0  0  0  0  0  0
  -28.3850  -32.6921   25.0346 H   0  0  0  0  0  0
  -28.0665  -31.8456   26.5419 H   0  0  0  0  0  0
  -28.2606  -38.0081   24.7528 H   0  0  0  0  0  0
  -28.1056  -36.2620   24.6282 H   0  0  0  0  0  0
  -27.2283  -37.1433   25.8865 H   0  0  0  0  0  0
  -20.9313  -29.8753   21.6917 H   0  0  0  0  0  0
  -26.0139  -38.2853   24.1464 H   0  0  0  0  0  0
  -31.2049  -18.4121   16.9721 H   0  0  0  0  0  0
  -31.3598  -20.0370   17.6227 H   0  0  0  0  0  0
  -29.8421  -19.5211   16.9037 H   0  0  0  0  0  0
  -33.1052  -21.0543   20.3994 H   0  0  0  0  0  0
  -32.8819  -20.0812   21.8465 H   0  0  0  0  0  0
  -33.3157  -21.7761   22.0063 H   0  0  0  0  0  0
  -27.9085  -22.3290   20.4324 H   0  0  0  0  0  0
  -28.8324  -21.4184   21.5796 H   0  0  0  0  0  0
  -27.7803  -24.8473   21.1381 H   0  0  0  0  0  0
  -27.6901  -24.7352   19.3848 H   0  0  0  0  0  0
  -29.2652  -21.1684   18.6364 H   0  0  0  0  0  0
  -29.0704  -15.4194   21.4214 H   0  0  0  0  0  0
  1 25  1  0  0  0
  1 30  2  0  0  0
  1 83  1  0  0  0
  2  3  1  0  0  0
  2 25  1  0  0  0
  2 87  1  0  0  0
  2 88  1  0  0  0
  3  4  1  0  0  0
  3 89  1  0  0  0
  3 90  1  0  0  0
  4  5  1  0  0  0
  4 91  1  0  0  0
  4 92  1  0  0  0
  5  6  1  0  0  0
  5 26  1  0  0  0
  5 93  1  0  0  0
  6 25  1  0  0  0
  6 94  1  0  0  0
  6 95  1  0  0  0
  7  8  2  0  0  0
  7 26  1  0  0  0
  7 29  1  0  0  0
  8  9  1  0  0  0
  8 22  1  0  0  0
  9 10  1  0  0  0
  9 27  2  0  0  0
 10 11  2  0  0  0
 10 15  1  0  0  0
 11 12  1  0  0  0
 11 96  1  0  0  0
 12 13  2  0  0  0
 12 97  1  0  0  0
 13 14  1  0  0  0
 13 31  1  0  0  0
 14 15  2  0  0  0
 14 98  1  0  0  0
 15 99  1  0  0  0
 16 17  2  0  0  0
 16 21  1  0  0  0
 16 31  1  0  0  0
 17 18  1  0  0  0
 17100  1  0  0  0
 18 19  2  0  0  0
 18101  1  0  0  0
 19 20  1  0  0  0
 19 24  1  0  0  0
 20 21  2  0  0  0
 20102  1  0  0  0
 21 23  1  0  0  0
 22 28  1  0  0  0
 22 32  2  0  0  0
 26 27  1  0  0  0
 28103  1  0  0  0
 28104  1  0  0  0
 29105  1  0  0  0
 29106  1  0  0  0
 33 34  1  0  0  0
 33 66  1  0  0  0
 33 70  2  0  0  0
 34 36  1  0  0  0
 34 59  1  0  0  0
 34107  1  0  0  0
 35 44  2  0  0  0
 35 45  1  0  0  0
 35 68  1  0  0  0
 36 56  1  0  0  0
 36108  1  0  0  0
 37 39  1  0  0  0
 37 47  1  0  0  0
 37 66  1  0  0  0
 37109  1  0  0  0
 38 43  2  0  0  0
 38 46  1  0  0  0
 38 47  1  0  0  0
 39 64  1  0  0  0
 39 67  2  0  0  0
 40 52  1  0  0  0
 40 53  2  0  0  0
 40 58  1  0  0  0
 41110  1  0  0  0
 41111  1  0  0  0
 41112  1  0  0  0
 41 48  1  0  0  0
 42 43  1  0  0  0
 42 66  1  0  0  0
 42113  1  0  0  0
 42114  1  0  0  0
 43 44  1  0  0  0
 44115  1  0  0  0
 45 46  2  0  0  0
 45116  1  0  0  0
 46117  1  0  0  0
 47118  1  0  0  0
 47119  1  0  0  0
 48 56  1  0  0  0
 48 65  1  0  0  0
 48120  1  0  0  0
 49 50  1  0  0  0
 49 53  1  0  0  0
 49 64  1  0  0  0
 49121  1  0  0  0
 50 51  1  0  0  0
 50122  1  0  0  0
 50123  1  0  0  0
 51 52  1  0  0  0
 51124  1  0  0  0
 51125  1  0  0  0
 52126  1  0  0  0
 52127  1  0  0  0
 53 54  1  0  0  0
 54 55  2  0  0  0
 54128  1  0  0  0
 55 57  1  0  0  0
 55129  1  0  0  0
 56 69  2  0  0  0
 57 58  2  0  0  0
 57130  1  0  0  0
 58131  1  0  0  0
 59 60  1  0  0  0
 59 61  1  0  0  0
 59 62  1  0  0  0
 60132  1  0  0  0
 60133  1  0  0  0
 60134  1  0  0  0
 61135  1  0  0  0
 61136  1  0  0  0
 61137  1  0  0  0
 62138  1  0  0  0
 62139  1  0  0  0
 62140  1  0  0  0
 63 65  1  0  0  0
 63141  1  0  0  0
 63142  1  0  0  0
 63143  1  0  0  0
 64144  1  0  0  0
 65145  1  0  0  0
 68 79  1  0  0  0
 71 72  2  0  0  0
 71 76  1  0  0  0
 71 80  1  0  0  0
 72 82  1  0  0  0
 72 86  1  0  0  0
 73 80  2  0  0  0
 73 83  1  0  0  0
 73 86  1  0  0  0
 74 75  1  0  0  0
 74 78  1  0  0  0
 74 81  2  0  0  0
 75 79  1  0  0  0
 75 84  2  0  0  0
 76146  1  0  0  0
 76147  1  0  0  0
 76148  1  0  0  0
 77 85  1  0  0  0
 77149  1  0  0  0
 77150  1  0  0  0
 77151  1  0  0  0
 78 82  1  0  0  0
 78152  1  0  0  0
 78153  1  0  0  0
 79154  1  0  0  0
 79155  1  0  0  0
 81 85  1  0  0  0
 82156  1  0  0  0
 83157  1  0  0  0
M  ISO  4   1 100  68 101  79 101  83 100
M  END
> <chiral flag>
0

> <version>
0

> <s_m_source_file>
/data/baiqing/PycharmProjects/Reinvent-master-3.2/result/LINK_invent/BTK/process_docking_weight1_custom_product_contain_oxygen_bond_distance_aromatic_linkinvent_7_9_3/rearranged_h_0168.sdf

> <i_m_source_file_index>
10

> <r_mmod_Potential_Energy-OPLS-2005>
125.535118103027

> <r_mmod_Stretch_Energy-OPLS-2005>
65.3054962158203

> <r_mmod_Bend_Energy-OPLS-2005>
142.067474365234

> <r_mmod_Torsional_Energy-OPLS-2005>
224.69108581543

> <r_mmod_Improper_Torsional_Energy-OPLS-2005>
6.21558237075806

> <r_mmod_Van_der_Waal_Energy-OPLS-2005>
121.008522033691

> <r_mmod_Electrostatic_Energy-OPLS-2005>
-183.93635559082

> <r_mmod_Solvation_Energy-OPLS-2005>
-281.243194580078

> <b_mmod_Minimization_Converged-OPLS-2005>
0

> <r_mmod_RMS_Derivative-OPLS-2005>
2.8948347568512

$$$$
10
                    3D
 Structure written by MMmdl.
163171  0  0  1  0            999 V2000
  -30.6553  -14.4128   20.5876 C   0  0  0  0  0  0
  -30.4284  -12.2827   19.3898 C   0  0  0  0  0  0
  -29.4880  -12.5296   18.1891 C   0  0  0  0  0  0
  -28.0071  -12.3826   18.5979 C   0  0  0  0  0  0
  -27.6634  -13.1842   19.8810 C   0  0  2  0  0  0
  -28.7010  -12.8880   20.9880 C   0  0  0  0  0  0
  -25.2616  -13.8073   20.5664 C   0  0  0  0  0  0
  -24.1857  -13.0410   20.9185 C   0  0  0  0  0  0
  -24.6359  -11.6853   20.8736 C   0  0  0  0  0  0
  -23.9005  -10.4281   21.0407 C   0  0  0  0  0  0
  -24.3580   -9.4209   21.9180 C   0  0  0  0  0  0
  -23.6285   -8.2232   22.0744 C   0  0  0  0  0  0
  -22.4267   -8.0262   21.3538 C   0  0  0  0  0  0
  -21.9887   -9.0228   20.4636 C   0  0  0  0  0  0
  -22.7182  -10.2119   20.3054 C   0  0  0  0  0  0
  -21.6846   -6.0729   22.5277 C   0  0  0  0  0  0
  -21.4005   -6.5626   23.8210 C   0  0  0  0  0  0
  -21.3676   -5.6784   24.9173 C   0  0  0  0  0  0
  -21.6053   -4.3050   24.7229 C   0  0  0  0  0  0
  -21.8820   -3.8137   23.4348 C   0  0  0  0  0  0
  -21.9198   -4.6959   22.3396 C   0  0  0  0  0  0
  -22.7891  -13.5250   21.1863 C   0  0  0  0  0  0
  -22.1668   -4.2126   21.0979 F   0  0  0  0  0  0
  -21.5648   -3.4546   25.7742 F   0  0  0  0  0  0
  -30.0370  -13.2142   20.4523 N   0  0  0  0  0  0
  -26.3019  -12.9195   20.3353 N   0  0  0  0  0  0
  -25.9269  -11.6377   20.5733 N   0  0  0  0  0  0
  -22.0513  -12.8264   22.0407 N   0  0  0  0  0  0
  -25.4371  -15.1808   20.4065 N   0  0  0  0  0  0
  -31.7876  -14.6506   20.1638 O   0  0  0  0  0  0
  -21.6643   -6.8853   21.4232 O   0  0  0  0  0  0
  -22.3596  -14.5570   20.6703 O   0  0  0  0  0  0
  -24.6106  -31.8677   23.2133 C   0  0  0  0  0  0
  -25.9001  -32.4841   23.8405 C   0  0  1  0  0  0
  -27.2377  -27.4556   20.0825 C   0  0  0  0  0  0
  -25.5852  -33.8646   24.2346 N   0  0  0  0  0  0
  -23.3969  -30.4945   21.5521 C   0  0  2  0  0  0
  -24.8414  -28.9620   20.1210 C   0  0  0  0  0  0
  -22.7371  -29.4661   22.4992 C   0  0  0  0  0  0
  -18.0267  -28.1350   22.8551 C   0  0  0  0  0  0
  -24.1471  -36.7283   23.2651 C   0  0  0  0  0  0
  -25.9268  -30.8384   21.3666 C   0  0  0  0  0  0
  -26.0001  -29.4743   20.7142 C   0  0  0  0  0  0
  -27.1941  -28.7251   20.6985 C   0  0  0  0  0  0
  -26.0475  -26.9453   19.5030 C   0  0  0  0  0  0
  -24.8568  -27.6927   19.5212 C   0  0  0  0  0  0
  -23.6060  -29.8275   20.1677 C   0  0  0  0  0  0
  -25.4099  -36.3127   24.0361 C   0  0  1  0  0  0
  -20.5871  -28.3629   23.1345 C   0  0  2  0  0  0
  -20.6756  -26.9365   22.5445 C   0  0  0  0  0  0
  -19.5722  -26.6372   21.5247 C   0  0  0  0  0  0
  -18.1901  -26.7908   22.1664 C   0  0  0  0  0  0
  -19.1529  -28.8810   23.2947 C   0  0  0  0  0  0
  -18.9452  -30.1423   23.8946 C   0  0  0  0  0  0
  -17.6461  -30.6575   24.0574 C   0  0  0  0  0  0
  -25.9022  -34.9496   23.5156 C   0  0  0  0  0  0
  -16.5348  -29.9085   23.6336 C   0  0  0  0  0  0
  -16.7269  -28.6487   23.0391 C   0  0  0  0  0  0
  -26.4449  -31.6618   25.0726 C   0  0  0  0  0  0
  -25.3744  -31.3729   26.1497 C   0  0  0  0  0  0
  -27.0283  -30.3068   24.6079 C   0  0  0  0  0  0
  -27.6008  -32.4343   25.7484 C   0  0  0  0  0  0
  -27.5564  -37.1801   24.8479 C   0  0  0  0  0  0
  -21.4104  -29.3003   22.3739 N   0  0  0  0  0  0
  -26.4280  -37.3801   23.9422 N   0  0  0  0  0  0
  -24.6630  -31.0807   22.1026 N   0  0  0  0  0  0
  -23.4155  -28.8186   23.3002 O   0  0  0  0  0  0
  -28.4590  -26.8121   20.0895 O   0  0  0  0  0  0
  -26.5580  -34.8936   22.4719 O   0  0  0  0  0  0
  -23.5294  -32.1417   23.7527 O   0  0  0  0  0  0
  -30.0559  -18.9660   20.0340 C   0  0  0  0  0  0
  -29.0621  -17.3566   22.0788 C   0  0  0  0  0  0
  -30.2502  -17.5676   19.9382 C   0  0  0  0  0  0
  -29.3345  -19.5587   21.0925 C   0  0  0  0  0  0
  -29.7849  -16.7506   21.0240 C   0  0  0  0  0  0
  -28.8214  -18.7416   22.1126 C   0  0  0  0  0  0
  -29.8035  -21.9268   20.6555 C   0  0  0  0  0  0
  -28.0593  -24.4638   21.7982 C   0  0  0  0  0  0
  -30.4596  -24.9526   21.1857 C   0  0  0  0  0  0
  -29.1615  -23.1157   19.9307 C   0  0  0  0  0  0
  -28.6271  -25.5027   19.5530 C   0  0  0  0  0  0
  -30.8544  -17.0641   18.6150 C   0  0  0  0  0  0
  -29.0845  -24.4977   20.6430 C   0  0  0  0  0  0
  -28.9891  -20.9360   21.0432 N   0  0  0  0  0  0
  -29.8545  -15.3316   21.1436 N   0  0  0  0  0  0
  -31.0267  -21.8796   20.8100 O   0  0  0  0  0  0
  -28.0827  -19.2745   23.1151 F   0  0  0  0  0  0
  -32.1631  -16.8395   18.7291 F   0  0  0  0  0  0
  -30.2284  -15.9730   18.1734 F   0  0  0  0  0  0
  -30.7133  -17.9733   17.6482 F   0  0  0  0  0  0
  -31.4707  -12.4048   19.0887 H   0  0  0  0  0  0
  -30.3383  -11.2548   19.7430 H   0  0  0  0  0  0
  -29.7223  -11.8427   17.3753 H   0  0  0  0  0  0
  -29.6552  -13.5330   17.7962 H   0  0  0  0  0  0
  -27.8097  -11.3236   18.7601 H   0  0  0  0  0  0
  -27.3566  -12.6907   17.7779 H   0  0  0  0  0  0
  -27.7272  -14.2408   19.6235 H   0  0  0  0  0  0
  -28.6745  -11.8306   21.2617 H   0  0  0  0  0  0
  -28.4615  -13.4215   21.9098 H   0  0  0  0  0  0
  -25.2725   -9.5720   22.4764 H   0  0  0  0  0  0
  -24.0014   -7.4633   22.7476 H   0  0  0  0  0  0
  -21.0816   -8.8736   19.8957 H   0  0  0  0  0  0
  -22.3626  -10.9663   19.6192 H   0  0  0  0  0  0
  -21.1973   -7.6128   23.9696 H   0  0  0  0  0  0
  -21.1511   -6.0519   25.9074 H   0  0  0  0  0  0
  -22.0588   -2.7595   23.2847 H   0  0  0  0  0  0
  -22.4083  -11.9910   22.4821 H   0  0  0  0  0  0
  -21.1134  -13.1313   22.2589 H   0  0  0  0  0  0
  -24.6614  -15.8277   20.4960 H   0  0  0  0  0  0
  -26.2760  -15.6202   20.0499 H   0  0  0  0  0  0
  -26.7078  -32.5540   23.1169 H   0  0  0  0  0  0
  -25.0056  -33.9836   25.0526 H   0  0  0  0  0  0
  -22.6866  -31.3120   21.4122 H   0  0  0  0  0  0
  -23.3746  -35.9600   23.3352 H   0  0  0  0  0  0
  -24.3583  -36.8836   22.2056 H   0  0  0  0  0  0
  -23.7208  -37.6504   23.6628 H   0  0  0  0  0  0
  -26.0407  -31.6050   20.5980 H   0  0  0  0  0  0
  -26.8172  -30.8888   21.9843 H   0  0  0  0  0  0
  -28.0907  -29.1203   21.1590 H   0  0  0  0  0  0
  -25.9820  -25.9817   19.0283 H   0  0  0  0  0  0
  -23.9613  -27.2853   19.0713 H   0  0  0  0  0  0
  -23.7123  -30.5988   19.4034 H   0  0  0  0  0  0
  -22.7329  -29.2428   19.8733 H   0  0  0  0  0  0
  -25.1281  -36.1998   25.0856 H   0  0  0  0  0  0
  -21.0013  -28.3180   24.1439 H   0  0  0  0  0  0
  -20.5683  -26.2202   23.3611 H   0  0  0  0  0  0
  -21.6611  -26.7395   22.1208 H   0  0  0  0  0  0
  -19.6853  -25.6297   21.1219 H   0  0  0  0  0  0
  -19.6660  -27.3246   20.6833 H   0  0  0  0  0  0
  -17.4173  -26.6720   21.4044 H   0  0  0  0  0  0
  -18.0251  -26.0021   22.9027 H   0  0  0  0  0  0
  -19.7939  -30.7233   24.2306 H   0  0  0  0  0  0
  -17.5028  -31.6286   24.5129 H   0  0  0  0  0  0
  -15.5358  -30.3012   23.7626 H   0  0  0  0  0  0
  -15.8658  -28.0825   22.7088 H   0  0  0  0  0  0
  -24.5936  -30.7023   25.7889 H   0  0  0  0  0  0
  -24.8909  -32.2889   26.4901 H   0  0  0  0  0  0
  -25.8144  -30.8979   27.0271 H   0  0  0  0  0  0
  -26.2836  -29.6843   24.1103 H   0  0  0  0  0  0
  -27.4041  -29.7279   25.4519 H   0  0  0  0  0  0
  -27.8664  -30.4403   23.9245 H   0  0  0  0  0  0
  -27.2616  -33.3646   26.2039 H   0  0  0  0  0  0
  -28.3833  -32.6871   25.0330 H   0  0  0  0  0  0
  -28.0641  -31.8473   26.5424 H   0  0  0  0  0  0
  -28.2618  -38.0059   24.7511 H   0  0  0  0  0  0
  -28.1025  -36.2598   24.6342 H   0  0  0  0  0  0
  -27.2282  -37.1493   25.8882 H   0  0  0  0  0  0
  -20.9196  -29.8737   21.7021 H   0  0  0  0  0  0
  -26.0169  -38.2876   24.1438 H   0  0  0  0  0  0
  -30.3997  -19.5978   19.2309 H   0  0  0  0  0  0
  -28.6516  -16.7513   22.8737 H   0  0  0  0  0  0
  -28.3478  -23.7538   22.5754 H   0  0  0  0  0  0
  -27.0635  -24.1919   21.4432 H   0  0  0  0  0  0
  -27.9637  -25.4399   22.2763 H   0  0  0  0  0  0
  -30.8087  -24.3392   22.0165 H   0  0  0  0  0  0
  -30.4252  -25.9782   21.5544 H   0  0  0  0  0  0
  -31.2236  -24.9184   20.4094 H   0  0  0  0  0  0
  -28.1664  -22.8207   19.5921 H   0  0  0  0  0  0
  -29.7416  -23.2315   19.0139 H   0  0  0  0  0  0
  -27.7718  -25.1090   19.0165 H   0  0  0  0  0  0
  -29.4093  -25.5825   18.7966 H   0  0  0  0  0  0
  -28.0039  -21.1487   21.1260 H   0  0  0  0  0  0
  -29.0642  -14.9105   21.6116 H   0  0  0  0  0  0
  1 25  1  0  0  0
  1 30  2  0  0  0
  1 85  1  0  0  0
  2  3  1  0  0  0
  2 25  1  0  0  0
  2 91  1  0  0  0
  2 92  1  0  0  0
  3  4  1  0  0  0
  3 93  1  0  0  0
  3 94  1  0  0  0
  4  5  1  0  0  0
  4 95  1  0  0  0
  4 96  1  0  0  0
  5  6  1  0  0  0
  5 26  1  0  0  0
  5 97  1  0  0  0
  6 25  1  0  0  0
  6 98  1  0  0  0
  6 99  1  0  0  0
  7  8  2  0  0  0
  7 26  1  0  0  0
  7 29  1  0  0  0
  8  9  1  0  0  0
  8 22  1  0  0  0
  9 10  1  0  0  0
  9 27  2  0  0  0
 10 11  2  0  0  0
 10 15  1  0  0  0
 11 12  1  0  0  0
 11100  1  0  0  0
 12 13  2  0  0  0
 12101  1  0  0  0
 13 14  1  0  0  0
 13 31  1  0  0  0
 14 15  2  0  0  0
 14102  1  0  0  0
 15103  1  0  0  0
 16 17  2  0  0  0
 16 21  1  0  0  0
 16 31  1  0  0  0
 17 18  1  0  0  0
 17104  1  0  0  0
 18 19  2  0  0  0
 18105  1  0  0  0
 19 20  1  0  0  0
 19 24  1  0  0  0
 20 21  2  0  0  0
 20106  1  0  0  0
 21 23  1  0  0  0
 22 28  1  0  0  0
 22 32  2  0  0  0
 26 27  1  0  0  0
 28107  1  0  0  0
 28108  1  0  0  0
 29109  1  0  0  0
 29110  1  0  0  0
 33 34  1  0  0  0
 33 66  1  0  0  0
 33 70  2  0  0  0
 34 36  1  0  0  0
 34 59  1  0  0  0
 34111  1  0  0  0
 35 44  2  0  0  0
 35 45  1  0  0  0
 35 68  1  0  0  0
 36 56  1  0  0  0
 36112  1  0  0  0
 37 39  1  0  0  0
 37 47  1  0  0  0
 37 66  1  0  0  0
 37113  1  0  0  0
 38 43  2  0  0  0
 38 46  1  0  0  0
 38 47  1  0  0  0
 39 64  1  0  0  0
 39 67  2  0  0  0
 40 52  1  0  0  0
 40 53  2  0  0  0
 40 58  1  0  0  0
 41114  1  0  0  0
 41115  1  0  0  0
 41116  1  0  0  0
 41 48  1  0  0  0
 42 43  1  0  0  0
 42 66  1  0  0  0
 42117  1  0  0  0
 42118  1  0  0  0
 43 44  1  0  0  0
 44119  1  0  0  0
 45 46  2  0  0  0
 45120  1  0  0  0
 46121  1  0  0  0
 47122  1  0  0  0
 47123  1  0  0  0
 48 56  1  0  0  0
 48 65  1  0  0  0
 48124  1  0  0  0
 49 50  1  0  0  0
 49 53  1  0  0  0
 49 64  1  0  0  0
 49125  1  0  0  0
 50 51  1  0  0  0
 50126  1  0  0  0
 50127  1  0  0  0
 51 52  1  0  0  0
 51128  1  0  0  0
 51129  1  0  0  0
 52130  1  0  0  0
 52131  1  0  0  0
 53 54  1  0  0  0
 54 55  2  0  0  0
 54132  1  0  0  0
 55 57  1  0  0  0
 55133  1  0  0  0
 56 69  2  0  0  0
 57 58  2  0  0  0
 57134  1  0  0  0
 58135  1  0  0  0
 59 60  1  0  0  0
 59 61  1  0  0  0
 59 62  1  0  0  0
 60136  1  0  0  0
 60137  1  0  0  0
 60138  1  0  0  0
 61139  1  0  0  0
 61140  1  0  0  0
 61141  1  0  0  0
 62142  1  0  0  0
 62143  1  0  0  0
 62144  1  0  0  0
 63 65  1  0  0  0
 63145  1  0  0  0
 63146  1  0  0  0
 63147  1  0  0  0
 64148  1  0  0  0
 65149  1  0  0  0
 68 81  1  0  0  0
 71 73  2  0  0  0
 71 74  1  0  0  0
 71150  1  0  0  0
 72 75  2  0  0  0
 72 76  1  0  0  0
 72151  1  0  0  0
 73 75  1  0  0  0
 73 82  1  0  0  0
 74 76  2  0  0  0
 74 84  1  0  0  0
 75 85  1  0  0  0
 76 87  1  0  0  0
 77 80  1  0  0  0
 77 84  1  0  0  0
 77 86  2  0  0  0
 78152  1  0  0  0
 78153  1  0  0  0
 78154  1  0  0  0
 78 83  1  0  0  0
 79 83  1  0  0  0
 79155  1  0  0  0
 79156  1  0  0  0
 79157  1  0  0  0
 80 83  1  0  0  0
 80158  1  0  0  0
 80159  1  0  0  0
 81 83  1  0  0  0
 81160  1  0  0  0
 81161  1  0  0  0
 82 88  1  0  0  0
 82 89  1  0  0  0
 82 90  1  0  0  0
 84162  1  0  0  0
 85163  1  0  0  0
M  ISO  4   1 100  68 101  81 101  85 100
M  END
> <chiral flag>
0

> <version>
0

> <s_m_source_file>
/data/baiqing/PycharmProjects/Reinvent-master-3.2/result/LINK_invent/BTK/process_docking_weight1_custom_product_contain_oxygen_bond_distance_aromatic_linkinvent_7_9_3/rearranged_h_0168.sdf

> <i_m_source_file_index>
11

> <r_mmod_Potential_Energy-OPLS-2005>
12.1683435440063

> <r_mmod_Stretch_Energy-OPLS-2005>
37.5996208190918

> <r_mmod_Bend_Energy-OPLS-2005>
142.748931884766

> <r_mmod_Torsional_Energy-OPLS-2005>
248.357116699219

> <r_mmod_Improper_Torsional_Energy-OPLS-2005>
5.34028291702271

> <r_mmod_Van_der_Waal_Energy-OPLS-2005>
170.809753417969

> <r_mmod_Electrostatic_Energy-OPLS-2005>
-378.795196533203

> <r_mmod_Solvation_Energy-OPLS-2005>
-226.090789794922

> <b_mmod_Minimization_Converged-OPLS-2005>
0

> <r_mmod_RMS_Derivative-OPLS-2005>
4.05308246612549

$$$$
11
                    3D
 Structure written by MMmdl.
167175  0  0  1  0            999 V2000
  -30.7282  -14.4979   20.5568 C   0  0  0  0  0  0
  -30.4169  -12.3219   19.4346 C   0  0  0  0  0  0
  -29.5000  -12.5162   18.2107 C   0  0  0  0  0  0
  -28.0217  -12.3704   18.6196 C   0  0  0  0  0  0
  -27.6603  -13.2189   19.8698 C   0  0  2  0  0  0
  -28.7031  -13.0379   20.9982 C   0  0  0  0  0  0
  -25.2582  -13.8179   20.5677 C   0  0  0  0  0  0
  -24.1838  -13.0439   20.9167 C   0  0  0  0  0  0
  -24.6404  -11.6908   20.8712 C   0  0  0  0  0  0
  -23.9061  -10.4293   21.0381 C   0  0  0  0  0  0
  -24.3606   -9.4218   21.9172 C   0  0  0  0  0  0
  -23.6293   -8.2250   22.0744 C   0  0  0  0  0  0
  -22.4278   -8.0281   21.3538 C   0  0  0  0  0  0
  -21.9914   -9.0252   20.4639 C   0  0  0  0  0  0
  -22.7230  -10.2135   20.3036 C   0  0  0  0  0  0
  -21.6856   -6.0723   22.5274 C   0  0  0  0  0  0
  -21.4019   -6.5625   23.8209 C   0  0  0  0  0  0
  -21.3662   -5.6786   24.9172 C   0  0  0  0  0  0
  -21.6051   -4.3047   24.7232 C   0  0  0  0  0  0
  -21.8820   -3.8134   23.4349 C   0  0  0  0  0  0
  -21.9204   -4.6951   22.3398 C   0  0  0  0  0  0
  -22.7863  -13.5232   21.1838 C   0  0  0  0  0  0
  -22.1670   -4.2135   21.0978 F   0  0  0  0  0  0
  -21.5629   -3.4531   25.7741 F   0  0  0  0  0  0
  -30.0324  -13.3310   20.4400 N   0  0  0  0  0  0
  -26.3028  -12.9370   20.3338 N   0  0  0  0  0  0
  -25.9336  -11.6516   20.5738 N   0  0  0  0  0  0
  -22.0489  -12.8233   22.0381 N   0  0  0  0  0  0
  -25.4305  -15.1895   20.4076 N   0  0  0  0  0  0
  -31.8561  -14.6185   20.0734 O   0  0  0  0  0  0
  -21.6640   -6.8871   21.4237 O   0  0  0  0  0  0
  -22.3558  -14.5546   20.6683 O   0  0  0  0  0  0
  -24.6189  -31.8667   23.2108 C   0  0  0  0  0  0
  -25.9084  -32.4801   23.8391 C   0  0  1  0  0  0
  -27.2192  -27.3986   20.0855 C   0  0  0  0  0  0
  -25.5939  -33.8600   24.2325 N   0  0  0  0  0  0
  -23.4059  -30.4951   21.5536 C   0  0  2  0  0  0
  -24.8473  -28.9661   20.1129 C   0  0  0  0  0  0
  -22.7424  -29.4661   22.4981 C   0  0  0  0  0  0
  -18.0261  -28.1381   22.8474 C   0  0  0  0  0  0
  -24.1497  -36.7300   23.2636 C   0  0  0  0  0  0
  -25.9419  -30.8194   21.3722 C   0  0  0  0  0  0
  -26.0142  -29.4549   20.7136 C   0  0  0  0  0  0
  -27.2020  -28.6788   20.7003 C   0  0  0  0  0  0
  -26.0290  -26.9534   19.4576 C   0  0  0  0  0  0
  -24.8513  -27.7154   19.4835 C   0  0  0  0  0  0
  -23.6131  -29.8367   20.1656 C   0  0  0  0  0  0
  -25.4115  -36.3093   24.0336 C   0  0  1  0  0  0
  -20.5859  -28.3672   23.1308 C   0  0  2  0  0  0
  -20.6765  -26.9403   22.5418 C   0  0  0  0  0  0
  -19.5752  -26.6383   21.5207 C   0  0  0  0  0  0
  -18.1914  -26.7929   22.1595 C   0  0  0  0  0  0
  -19.1512  -28.8842   23.2881 C   0  0  0  0  0  0
  -18.9445  -30.1451   23.8887 C   0  0  0  0  0  0
  -17.6451  -30.6595   24.0552 C   0  0  0  0  0  0
  -25.9048  -34.9462   23.5119 C   0  0  0  0  0  0
  -16.5337  -29.9090   23.6336 C   0  0  0  0  0  0
  -16.7254  -28.6509   23.0349 C   0  0  0  0  0  0
  -26.4494  -31.6572   25.0725 C   0  0  0  0  0  0
  -25.3749  -31.3692   26.1464 C   0  0  0  0  0  0
  -27.0317  -30.2999   24.6129 C   0  0  0  0  0  0
  -27.6065  -32.4282   25.7498 C   0  0  0  0  0  0
  -27.5591  -37.1789   24.8446 C   0  0  0  0  0  0
  -21.4148  -29.3039   22.3719 N   0  0  0  0  0  0
  -26.4285  -37.3795   23.9418 N   0  0  0  0  0  0
  -24.6741  -31.0751   22.1023 N   0  0  0  0  0  0
  -23.4191  -28.8181   23.3008 O   0  0  0  0  0  0
  -28.3597  -26.6031   20.1218 O   0  0  0  0  0  0
  -26.5594  -34.8917   22.4668 O   0  0  0  0  0  0
  -23.5374  -32.1437   23.7489 O   0  0  0  0  0  0
  -29.6205  -18.0180   20.9653 C   0  0  0  0  0  0
  -31.9043  -17.2522   21.3064 C   0  0  0  0  0  0
  -30.0550  -19.3814   20.9443 C   0  0  0  0  0  0
  -30.5354  -16.9371   21.1151 C   0  0  0  0  0  0
  -32.3541  -18.5842   21.2681 C   0  0  0  0  0  0
  -31.4430  -19.6414   21.0821 C   0  0  0  0  0  0
  -29.0504  -20.5095   20.7703 C   0  0  0  0  0  0
  -29.1899  -24.2378   20.4406 C   0  0  0  0  0  0
  -27.6952  -22.0054   23.3874 C   0  0  0  0  0  0
  -27.4618  -24.4371   22.9750 C   0  0  0  0  0  0
  -29.7239  -23.4767   23.4777 C   0  0  0  0  0  0
  -28.1519  -25.1978   19.8174 C   0  0  0  0  0  0
  -28.6312  -22.9838   21.2000 C   0  0  2  0  0  0
  -28.3902  -23.2234   22.7370 C   0  0  0  0  0  0
  -33.7131  -18.8720   21.4069 N   0  0  0  0  0  0
  -30.0744  -15.5668   21.0821 N   0  0  0  0  0  0
  -29.4637  -21.7761   20.9940 N   0  0  0  0  0  0
  -27.8746  -20.2520   20.4990 O   0  0  0  0  0  0
  -30.3993  -24.4626   20.3168 O   0  0  0  0  0  0
  -31.9358  -20.9069   21.0550 F   0  0  0  0  0  0
  -31.4630  -12.4002   19.1329 H   0  0  0  0  0  0
  -30.3034  -11.3164   19.8438 H   0  0  0  0  0  0
  -29.7484  -11.7938   17.4309 H   0  0  0  0  0  0
  -29.6695  -13.5042   17.7770 H   0  0  0  0  0  0
  -27.8377  -11.3151   18.8231 H   0  0  0  0  0  0
  -27.3723  -12.6355   17.7839 H   0  0  0  0  0  0
  -27.6936  -14.2625   19.5554 H   0  0  0  0  0  0
  -28.6820  -12.0144   21.3766 H   0  0  0  0  0  0
  -28.4663  -13.6767   21.8510 H   0  0  0  0  0  0
  -25.2756   -9.5707   22.4730 H   0  0  0  0  0  0
  -24.0010   -7.4643   22.7469 H   0  0  0  0  0  0
  -21.0840   -8.8765   19.8954 H   0  0  0  0  0  0
  -22.3685  -10.9659   19.6127 H   0  0  0  0  0  0
  -21.2003   -7.6135   23.9702 H   0  0  0  0  0  0
  -21.1487   -6.0515   25.9079 H   0  0  0  0  0  0
  -22.0598   -2.7598   23.2846 H   0  0  0  0  0  0
  -22.4078  -11.9886   22.4779 H   0  0  0  0  0  0
  -21.1105  -13.1278   22.2548 H   0  0  0  0  0  0
  -24.6637  -15.8467   20.5046 H   0  0  0  0  0  0
  -26.2829  -15.6238   20.0767 H   0  0  0  0  0  0
  -26.7147  -32.5499   23.1139 H   0  0  0  0  0  0
  -25.0116  -33.9755   25.0489 H   0  0  0  0  0  0
  -22.6962  -31.3139   21.4191 H   0  0  0  0  0  0
  -23.3771  -35.9619   23.3267 H   0  0  0  0  0  0
  -24.3600  -36.8943   22.2056 H   0  0  0  0  0  0
  -23.7236  -37.6492   23.6663 H   0  0  0  0  0  0
  -26.0658  -31.5859   20.6059 H   0  0  0  0  0  0
  -26.8265  -30.8624   21.9958 H   0  0  0  0  0  0
  -28.0969  -29.0490   21.1813 H   0  0  0  0  0  0
  -25.9689  -26.0107   18.9353 H   0  0  0  0  0  0
  -23.9572  -27.3357   19.0082 H   0  0  0  0  0  0
  -23.7233  -30.6153   19.4092 H   0  0  0  0  0  0
  -22.7365  -29.2588   19.8679 H   0  0  0  0  0  0
  -25.1282  -36.1946   25.0826 H   0  0  0  0  0  0
  -20.9934  -28.3237   24.1438 H   0  0  0  0  0  0
  -20.5681  -26.2269   23.3600 H   0  0  0  0  0  0
  -21.6635  -26.7462   22.1215 H   0  0  0  0  0  0
  -19.6927  -25.6298   21.1230 H   0  0  0  0  0  0
  -19.6719  -27.3194   20.6737 H   0  0  0  0  0  0
  -17.4210  -26.6703   21.3963 H   0  0  0  0  0  0
  -18.0282  -26.0059   22.8974 H   0  0  0  0  0  0
  -19.7926  -30.7251   24.2252 H   0  0  0  0  0  0
  -17.5022  -31.6277   24.5147 H   0  0  0  0  0  0
  -15.5338  -30.2994   23.7685 H   0  0  0  0  0  0
  -15.8647  -28.0841   22.7065 H   0  0  0  0  0  0
  -24.5967  -30.6973   25.7824 H   0  0  0  0  0  0
  -24.8885  -32.2844   26.4852 H   0  0  0  0  0  0
  -25.8110  -30.8937   27.0259 H   0  0  0  0  0  0
  -26.2868  -29.6757   24.1183 H   0  0  0  0  0  0
  -27.4057  -29.7236   25.4602 H   0  0  0  0  0  0
  -27.8724  -30.4281   23.9306 H   0  0  0  0  0  0
  -27.2690  -33.3584   26.2080 H   0  0  0  0  0  0
  -28.3891  -32.6822   25.0337 H   0  0  0  0  0  0
  -28.0717  -31.8395   26.5415 H   0  0  0  0  0  0
  -28.2556  -38.0138   24.7555 H   0  0  0  0  0  0
  -28.1123  -36.2660   24.6168 H   0  0  0  0  0  0
  -27.2310  -37.1337   25.8847 H   0  0  0  0  0  0
  -20.9306  -29.8777   21.6956 H   0  0  0  0  0  0
  -26.0158  -38.2859   24.1455 H   0  0  0  0  0  0
  -28.5675  -17.8052   20.8429 H   0  0  0  0  0  0
  -32.6301  -16.4692   21.4667 H   0  0  0  0  0  0
  -27.4183  -22.2090   24.4232 H   0  0  0  0  0  0
  -28.3389  -21.1263   23.4125 H   0  0  0  0  0  0
  -26.7831  -21.7323   22.8547 H   0  0  0  0  0  0
  -27.1741  -24.5212   24.0241 H   0  0  0  0  0  0
  -26.5404  -24.3580   22.3961 H   0  0  0  0  0  0
  -27.9385  -25.3823   22.7129 H   0  0  0  0  0  0
  -29.5664  -23.6138   24.5484 H   0  0  0  0  0  0
  -30.2308  -24.3720   23.1156 H   0  0  0  0  0  0
  -30.4206  -22.6453   23.3612 H   0  0  0  0  0  0
  -27.1819  -24.8672   20.1857 H   0  0  0  0  0  0
  -28.1560  -25.0614   18.7355 H   0  0  0  0  0  0
  -27.6578  -22.7718   20.7539 H   0  0  0  0  0  0
  -34.3200  -18.2014   21.8656 H   0  0  0  0  0  0
  -33.9605  -19.8382   21.5938 H   0  0  0  0  0  0
  -29.1152  -15.3991   21.3477 H   0  0  0  0  0  0
  -30.4592  -21.8996   21.1401 H   0  0  0  0  0  0
  1 25  1  0  0  0
  1 30  2  0  0  0
  1 86  1  0  0  0
  2  3  1  0  0  0
  2 25  1  0  0  0
  2 91  1  0  0  0
  2 92  1  0  0  0
  3  4  1  0  0  0
  3 93  1  0  0  0
  3 94  1  0  0  0
  4  5  1  0  0  0
  4 95  1  0  0  0
  4 96  1  0  0  0
  5  6  1  0  0  0
  5 26  1  0  0  0
  5 97  1  0  0  0
  6 25  1  0  0  0
  6 98  1  0  0  0
  6 99  1  0  0  0
  7  8  2  0  0  0
  7 26  1  0  0  0
  7 29  1  0  0  0
  8  9  1  0  0  0
  8 22  1  0  0  0
  9 10  1  0  0  0
  9 27  2  0  0  0
 10 11  2  0  0  0
 10 15  1  0  0  0
 11 12  1  0  0  0
 11100  1  0  0  0
 12 13  2  0  0  0
 12101  1  0  0  0
 13 14  1  0  0  0
 13 31  1  0  0  0
 14 15  2  0  0  0
 14102  1  0  0  0
 15103  1  0  0  0
 16 17  2  0  0  0
 16 21  1  0  0  0
 16 31  1  0  0  0
 17 18  1  0  0  0
 17104  1  0  0  0
 18 19  2  0  0  0
 18105  1  0  0  0
 19 20  1  0  0  0
 19 24  1  0  0  0
 20 21  2  0  0  0
 20106  1  0  0  0
 21 23  1  0  0  0
 22 28  1  0  0  0
 22 32  2  0  0  0
 26 27  1  0  0  0
 28107  1  0  0  0
 28108  1  0  0  0
 29109  1  0  0  0
 29110  1  0  0  0
 33 34  1  0  0  0
 33 66  1  0  0  0
 33 70  2  0  0  0
 34 36  1  0  0  0
 34 59  1  0  0  0
 34111  1  0  0  0
 35 44  2  0  0  0
 35 45  1  0  0  0
 35 68  1  0  0  0
 36 56  1  0  0  0
 36112  1  0  0  0
 37 39  1  0  0  0
 37 47  1  0  0  0
 37 66  1  0  0  0
 37113  1  0  0  0
 38 43  2  0  0  0
 38 46  1  0  0  0
 38 47  1  0  0  0
 39 64  1  0  0  0
 39 67  2  0  0  0
 40 52  1  0  0  0
 40 53  2  0  0  0
 40 58  1  0  0  0
 41114  1  0  0  0
 41115  1  0  0  0
 41116  1  0  0  0
 41 48  1  0  0  0
 42 43  1  0  0  0
 42 66  1  0  0  0
 42117  1  0  0  0
 42118  1  0  0  0
 43 44  1  0  0  0
 44119  1  0  0  0
 45 46  2  0  0  0
 45120  1  0  0  0
 46121  1  0  0  0
 47122  1  0  0  0
 47123  1  0  0  0
 48 56  1  0  0  0
 48 65  1  0  0  0
 48124  1  0  0  0
 49 50  1  0  0  0
 49 53  1  0  0  0
 49 64  1  0  0  0
 49125  1  0  0  0
 50 51  1  0  0  0
 50126  1  0  0  0
 50127  1  0  0  0
 51 52  1  0  0  0
 51128  1  0  0  0
 51129  1  0  0  0
 52130  1  0  0  0
 52131  1  0  0  0
 53 54  1  0  0  0
 54 55  2  0  0  0
 54132  1  0  0  0
 55 57  1  0  0  0
 55133  1  0  0  0
 56 69  2  0  0  0
 57 58  2  0  0  0
 57134  1  0  0  0
 58135  1  0  0  0
 59 60  1  0  0  0
 59 61  1  0  0  0
 59 62  1  0  0  0
 60136  1  0  0  0
 60137  1  0  0  0
 60138  1  0  0  0
 61139  1  0  0  0
 61140  1  0  0  0
 61141  1  0  0  0
 62142  1  0  0  0
 62143  1  0  0  0
 62144  1  0  0  0
 63 65  1  0  0  0
 63145  1  0  0  0
 63146  1  0  0  0
 63147  1  0  0  0
 64148  1  0  0  0
 65149  1  0  0  0
 68 82  1  0  0  0
 71 73  2  0  0  0
 71 74  1  0  0  0
 71150  1  0  0  0
 72 74  2  0  0  0
 72 75  1  0  0  0
 72151  1  0  0  0
 73 76  1  0  0  0
 73 77  1  0  0  0
 74 86  1  0  0  0
 75 76  2  0  0  0
 75 85  1  0  0  0
 76 90  1  0  0  0
 77 87  1  0  0  0
 77 88  2  0  0  0
 78 82  1  0  0  0
 78 83  1  0  0  0
 78 89  2  0  0  0
 79152  1  0  0  0
 79153  1  0  0  0
 79154  1  0  0  0
 79 84  1  0  0  0
 80 84  1  0  0  0
 80155  1  0  0  0
 80156  1  0  0  0
 80157  1  0  0  0
 81 84  1  0  0  0
 81158  1  0  0  0
 81159  1  0  0  0
 81160  1  0  0  0
 82161  1  0  0  0
 82162  1  0  0  0
 83 84  1  0  0  0
 83 87  1  0  0  0
 83163  1  0  0  0
 85164  1  0  0  0
 85165  1  0  0  0
 86166  1  0  0  0
 87167  1  0  0  0
M  ISO  4   1 100  68 101  82 101  86 100
M  END
> <chiral flag>
0

> <version>
0

> <s_m_source_file>
/data/baiqing/PycharmProjects/Reinvent-master-3.2/result/LINK_invent/BTK/process_docking_weight1_custom_product_contain_oxygen_bond_distance_aromatic_linkinvent_7_9_3/rearranged_h_0168.sdf

> <i_m_source_file_index>
12

> <r_mmod_Potential_Energy-OPLS-2005>
-83.7152862548828

> <r_mmod_Stretch_Energy-OPLS-2005>
53.3075218200684

> <r_mmod_Bend_Energy-OPLS-2005>
113.006065368652

> <r_mmod_Torsional_Energy-OPLS-2005>
222.454574584961

> <r_mmod_Improper_Torsional_Energy-OPLS-2005>
7.16086435317993

> <r_mmod_Van_der_Waal_Energy-OPLS-2005>
174.231918334961

> <r_mmod_Electrostatic_Energy-OPLS-2005>
-442.722961425781

> <r_mmod_Solvation_Energy-OPLS-2005>
-231.232620239258

> <b_mmod_Minimization_Converged-OPLS-2005>
0

> <r_mmod_RMS_Derivative-OPLS-2005>
2.07002544403076

$$$$
12
                    3D
 Structure written by MMmdl.
162170  0  0  1  0            999 V2000
  -30.7535  -14.4157   20.6220 C   0  0  0  0  0  0
  -30.4107  -12.2932   19.4087 C   0  0  0  0  0  0
  -29.4856  -12.5107   18.1965 C   0  0  0  0  0  0
  -28.0091  -12.3697   18.6129 C   0  0  0  0  0  0
  -27.6613  -13.2064   19.8734 C   0  0  2  0  0  0
  -28.7022  -12.9822   20.9936 C   0  0  0  0  0  0
  -25.2591  -13.8165   20.5668 C   0  0  0  0  0  0
  -24.1843  -13.0447   20.9165 C   0  0  0  0  0  0
  -24.6385  -11.6911   20.8719 C   0  0  0  0  0  0
  -23.9051  -10.4295   21.0397 C   0  0  0  0  0  0
  -24.3601   -9.4214   21.9178 C   0  0  0  0  0  0
  -23.6277   -8.2252   22.0756 C   0  0  0  0  0  0
  -22.4260   -8.0284   21.3546 C   0  0  0  0  0  0
  -21.9892   -9.0257   20.4647 C   0  0  0  0  0  0
  -22.7221  -10.2136   20.3051 C   0  0  0  0  0  0
  -21.6850   -6.0730   22.5274 C   0  0  0  0  0  0
  -21.4013   -6.5636   23.8205 C   0  0  0  0  0  0
  -21.3660   -5.6791   24.9170 C   0  0  0  0  0  0
  -21.6045   -4.3052   24.7223 C   0  0  0  0  0  0
  -21.8819   -3.8139   23.4344 C   0  0  0  0  0  0
  -21.9190   -4.6956   22.3399 C   0  0  0  0  0  0
  -22.7864  -13.5249   21.1827 C   0  0  0  0  0  0
  -22.1663   -4.2141   21.0975 F   0  0  0  0  0  0
  -21.5627   -3.4539   25.7736 F   0  0  0  0  0  0
  -30.0372  -13.2721   20.4424 N   0  0  0  0  0  0
  -26.3022  -12.9331   20.3352 N   0  0  0  0  0  0
  -25.9309  -11.6493   20.5744 N   0  0  0  0  0  0
  -22.0503  -12.8249   22.0384 N   0  0  0  0  0  0
  -25.4338  -15.1884   20.4086 N   0  0  0  0  0  0
  -31.8377  -14.6071   20.0606 O   0  0  0  0  0  0
  -21.6635   -6.8876   21.4236 O   0  0  0  0  0  0
  -22.3563  -14.5561   20.6683 O   0  0  0  0  0  0
  -24.6122  -31.8688   23.2106 C   0  0  0  0  0  0
  -25.9022  -32.4831   23.8396 C   0  0  1  0  0  0
  -27.2332  -27.4481   20.0964 C   0  0  0  0  0  0
  -25.5889  -33.8631   24.2322 N   0  0  0  0  0  0
  -23.3993  -30.4910   21.5512 C   0  0  2  0  0  0
  -24.8461  -28.9575   20.1159 C   0  0  0  0  0  0
  -22.7397  -29.4658   22.5003 C   0  0  0  0  0  0
  -18.0264  -28.1368   22.8494 C   0  0  0  0  0  0
  -24.1491  -36.7328   23.2638 C   0  0  0  0  0  0
  -25.9262  -30.8401   21.3596 C   0  0  0  0  0  0
  -26.0057  -29.4750   20.7074 C   0  0  0  0  0  0
  -27.2052  -28.7295   20.6893 C   0  0  0  0  0  0
  -26.0579  -26.9399   19.5016 C   0  0  0  0  0  0
  -24.8669  -27.6894   19.5087 C   0  0  0  0  0  0
  -23.6060  -29.8205   20.1668 C   0  0  0  0  0  0
  -25.4110  -36.3115   24.0331 C   0  0  1  0  0  0
  -20.5852  -28.3657   23.1328 C   0  0  2  0  0  0
  -20.6757  -26.9400   22.5420 C   0  0  0  0  0  0
  -19.5740  -26.6379   21.5214 C   0  0  0  0  0  0
  -18.1912  -26.7916   22.1621 C   0  0  0  0  0  0
  -19.1512  -28.8828   23.2905 C   0  0  0  0  0  0
  -18.9446  -30.1435   23.8917 C   0  0  0  0  0  0
  -17.6453  -30.6587   24.0562 C   0  0  0  0  0  0
  -25.9035  -34.9480   23.5122 C   0  0  0  0  0  0
  -16.5342  -29.9093   23.6323 C   0  0  0  0  0  0
  -16.7257  -28.6503   23.0353 C   0  0  0  0  0  0
  -26.4460  -31.6609   25.0718 C   0  0  0  0  0  0
  -25.3726  -31.3710   26.1465 C   0  0  0  0  0  0
  -27.0298  -30.3055   24.6085 C   0  0  0  0  0  0
  -27.6032  -32.4339   25.7483 C   0  0  0  0  0  0
  -27.5592  -37.1811   24.8455 C   0  0  0  0  0  0
  -21.4128  -29.3031   22.3746 N   0  0  0  0  0  0
  -26.4301  -37.3800   23.9403 N   0  0  0  0  0  0
  -24.6640  -31.0807   22.0992 N   0  0  0  0  0  0
  -23.4177  -28.8192   23.3031 O   0  0  0  0  0  0
  -28.4005  -26.7209   20.0969 O   0  0  0  0  0  0
  -26.5606  -34.8928   22.4689 O   0  0  0  0  0  0
  -23.5320  -32.1439   23.7505 O   0  0  0  0  0  0
  -31.9971  -16.5471   22.4596 C   0  0  0  0  0  0
  -32.6340  -17.7317   22.8542 C   0  0  0  0  0  0
  -32.0051  -18.9610   22.5539 C   0  0  0  0  0  0
  -30.7733  -16.5947   21.7638 C   0  0  0  0  0  0
  -30.7715  -18.9422   21.8536 C   0  0  0  0  0  0
  -29.2675  -22.2151   20.7296 C   0  0  0  0  0  0
  -29.2554  -20.6636   20.8090 C   0  0  0  0  0  0
  -28.5131  -24.3284   19.4974 C   0  0  0  0  0  0
  -35.1377  -17.5211   22.5558 C   0  0  0  0  0  0
  -33.9812  -17.6407   23.5565 C   0  0  0  0  0  0
  -28.2020  -22.8625   19.8295 C   0  0  0  0  0  0
  -28.2851  -25.3797   20.5986 C   0  0  0  0  0  0
  -30.1679  -17.7786   21.4983 N   0  0  0  0  0  0
  -32.5936  -20.1780   22.9316 N   0  0  0  0  0  0
  -30.2890  -20.2330   21.5434 N   0  0  0  0  0  0
  -30.1789  -15.3636   21.3854 N   0  0  0  0  0  0
  -30.0838  -22.8851   21.3805 O   0  0  0  0  0  0
  -28.3925  -19.9643   20.2643 O   0  0  0  0  0  0
  -28.8954  -24.6501   18.3659 O   0  0  0  0  0  0
  -31.4555  -12.3720   19.1047 H   0  0  0  0  0  0
  -30.2959  -11.2812   19.7986 H   0  0  0  0  0  0
  -29.7220  -11.7949   17.4079 H   0  0  0  0  0  0
  -29.6562  -13.5009   17.7709 H   0  0  0  0  0  0
  -27.8193  -11.3126   18.8044 H   0  0  0  0  0  0
  -27.3552  -12.6464   17.7852 H   0  0  0  0  0  0
  -27.7081  -14.2557   19.5802 H   0  0  0  0  0  0
  -28.6708  -11.9470   21.3355 H   0  0  0  0  0  0
  -28.4608  -13.5838   21.8706 H   0  0  0  0  0  0
  -25.2747   -9.5691   22.4752 H   0  0  0  0  0  0
  -23.9982   -7.4647   22.7484 H   0  0  0  0  0  0
  -21.0820   -8.8774   19.8961 H   0  0  0  0  0  0
  -22.3672  -10.9673   19.6156 H   0  0  0  0  0  0
  -21.2014   -7.6142   23.9703 H   0  0  0  0  0  0
  -21.1488   -6.0524   25.9073 H   0  0  0  0  0  0
  -22.0597   -2.7601   23.2843 H   0  0  0  0  0  0
  -22.4104  -11.9899   22.4765 H   0  0  0  0  0  0
  -21.1134  -13.1307   22.2601 H   0  0  0  0  0  0
  -24.6721  -15.8492   20.5199 H   0  0  0  0  0  0
  -26.2930  -15.6251   20.0976 H   0  0  0  0  0  0
  -26.7095  -32.5543   23.1165 H   0  0  0  0  0  0
  -25.0038  -33.9801   25.0461 H   0  0  0  0  0  0
  -22.6864  -31.3059   21.4111 H   0  0  0  0  0  0
  -23.3745  -35.9672   23.3300 H   0  0  0  0  0  0
  -24.3582  -36.8947   22.2054 H   0  0  0  0  0  0
  -23.7256  -37.6534   23.6658 H   0  0  0  0  0  0
  -26.0332  -31.6060   20.5898 H   0  0  0  0  0  0
  -26.8171  -30.8971   21.9740 H   0  0  0  0  0  0
  -28.1023  -29.1265   21.1441 H   0  0  0  0  0  0
  -26.0592  -25.9706   19.0242 H   0  0  0  0  0  0
  -23.9760  -27.2869   19.0464 H   0  0  0  0  0  0
  -23.7088  -30.5926   19.4042 H   0  0  0  0  0  0
  -22.7318  -29.2352   19.8763 H   0  0  0  0  0  0
  -25.1290  -36.1989   25.0826 H   0  0  0  0  0  0
  -20.9939  -28.3225   24.1453 H   0  0  0  0  0  0
  -20.5669  -26.2266   23.3599 H   0  0  0  0  0  0
  -21.6626  -26.7453   22.1211 H   0  0  0  0  0  0
  -19.6907  -25.6292   21.1236 H   0  0  0  0  0  0
  -19.6679  -27.3191   20.6744 H   0  0  0  0  0  0
  -17.4185  -26.6663   21.4017 H   0  0  0  0  0  0
  -18.0307  -26.0050   22.9009 H   0  0  0  0  0  0
  -19.7921  -30.7235   24.2305 H   0  0  0  0  0  0
  -17.5010  -31.6273   24.5155 H   0  0  0  0  0  0
  -15.5343  -30.3008   23.7632 H   0  0  0  0  0  0
  -15.8644  -28.0835   22.7071 H   0  0  0  0  0  0
  -24.5898  -30.7064   25.7796 H   0  0  0  0  0  0
  -24.8918  -32.2868   26.4922 H   0  0  0  0  0  0
  -25.8075  -30.8874   27.0218 H   0  0  0  0  0  0
  -26.2849  -29.6810   24.1142 H   0  0  0  0  0  0
  -27.4080  -29.7298   25.4541 H   0  0  0  0  0  0
  -27.8665  -30.4385   23.9221 H   0  0  0  0  0  0
  -27.2655  -33.3635   26.2080 H   0  0  0  0  0  0
  -28.3830  -32.6916   25.0303 H   0  0  0  0  0  0
  -28.0708  -31.8453   26.5386 H   0  0  0  0  0  0
  -28.2588  -38.0133   24.7546 H   0  0  0  0  0  0
  -28.1113  -36.2665   24.6235 H   0  0  0  0  0  0
  -27.2308  -37.1407   25.8856 H   0  0  0  0  0  0
  -20.9280  -29.8772   21.6989 H   0  0  0  0  0  0
  -26.0190  -38.2875   24.1413 H   0  0  0  0  0  0
  -32.4687  -15.5979   22.6755 H   0  0  0  0  0  0
  -36.0927  -17.4227   23.0716 H   0  0  0  0  0  0
  -35.1920  -18.3996   21.9126 H   0  0  0  0  0  0
  -35.0132  -16.6466   21.9158 H   0  0  0  0  0  0
  -33.9775  -16.7685   24.2114 H   0  0  0  0  0  0
  -34.1360  -18.4967   24.2128 H   0  0  0  0  0  0
  -27.2356  -22.8007   20.3272 H   0  0  0  0  0  0
  -28.1256  -22.2925   18.9046 H   0  0  0  0  0  0
  -29.0382  -25.2444   21.3738 H   0  0  0  0  0  0
  -27.3182  -25.2069   21.0739 H   0  0  0  0  0  0
  -33.4589  -20.1110   23.4577 H   0  0  0  0  0  0
  -31.9839  -20.8719   23.3538 H   0  0  0  0  0  0
  -30.8957  -20.9724   21.8729 H   0  0  0  0  0  0
  -29.2266  -15.2049   21.6722 H   0  0  0  0  0  0
  1 25  1  0  0  0
  1 30  2  0  0  0
  1 86  1  0  0  0
  2  3  1  0  0  0
  2 25  1  0  0  0
  2 90  1  0  0  0
  2 91  1  0  0  0
  3  4  1  0  0  0
  3 92  1  0  0  0
  3 93  1  0  0  0
  4  5  1  0  0  0
  4 94  1  0  0  0
  4 95  1  0  0  0
  5  6  1  0  0  0
  5 26  1  0  0  0
  5 96  1  0  0  0
  6 25  1  0  0  0
  6 97  1  0  0  0
  6 98  1  0  0  0
  7  8  2  0  0  0
  7 26  1  0  0  0
  7 29  1  0  0  0
  8  9  1  0  0  0
  8 22  1  0  0  0
  9 10  1  0  0  0
  9 27  2  0  0  0
 10 11  2  0  0  0
 10 15  1  0  0  0
 11 12  1  0  0  0
 11 99  1  0  0  0
 12 13  2  0  0  0
 12100  1  0  0  0
 13 14  1  0  0  0
 13 31  1  0  0  0
 14 15  2  0  0  0
 14101  1  0  0  0
 15102  1  0  0  0
 16 17  2  0  0  0
 16 21  1  0  0  0
 16 31  1  0  0  0
 17 18  1  0  0  0
 17103  1  0  0  0
 18 19  2  0  0  0
 18104  1  0  0  0
 19 20  1  0  0  0
 19 24  1  0  0  0
 20 21  2  0  0  0
 20105  1  0  0  0
 21 23  1  0  0  0
 22 28  1  0  0  0
 22 32  2  0  0  0
 26 27  1  0  0  0
 28106  1  0  0  0
 28107  1  0  0  0
 29108  1  0  0  0
 29109  1  0  0  0
 33 34  1  0  0  0
 33 66  1  0  0  0
 33 70  2  0  0  0
 34 36  1  0  0  0
 34 59  1  0  0  0
 34110  1  0  0  0
 35 44  2  0  0  0
 35 45  1  0  0  0
 35 68  1  0  0  0
 36 56  1  0  0  0
 36111  1  0  0  0
 37 39  1  0  0  0
 37 47  1  0  0  0
 37 66  1  0  0  0
 37112  1  0  0  0
 38 43  2  0  0  0
 38 46  1  0  0  0
 38 47  1  0  0  0
 39 64  1  0  0  0
 39 67  2  0  0  0
 40 52  1  0  0  0
 40 53  2  0  0  0
 40 58  1  0  0  0
 41113  1  0  0  0
 41114  1  0  0  0
 41115  1  0  0  0
 41 48  1  0  0  0
 42 43  1  0  0  0
 42 66  1  0  0  0
 42116  1  0  0  0
 42117  1  0  0  0
 43 44  1  0  0  0
 44118  1  0  0  0
 45 46  2  0  0  0
 45119  1  0  0  0
 46120  1  0  0  0
 47121  1  0  0  0
 47122  1  0  0  0
 48 56  1  0  0  0
 48 65  1  0  0  0
 48123  1  0  0  0
 49 50  1  0  0  0
 49 53  1  0  0  0
 49 64  1  0  0  0
 49124  1  0  0  0
 50 51  1  0  0  0
 50125  1  0  0  0
 50126  1  0  0  0
 51 52  1  0  0  0
 51127  1  0  0  0
 51128  1  0  0  0
 52129  1  0  0  0
 52130  1  0  0  0
 53 54  1  0  0  0
 54 55  2  0  0  0
 54131  1  0  0  0
 55 57  1  0  0  0
 55132  1  0  0  0
 56 69  2  0  0  0
 57 58  2  0  0  0
 57133  1  0  0  0
 58134  1  0  0  0
 59 60  1  0  0  0
 59 61  1  0  0  0
 59 62  1  0  0  0
 60135  1  0  0  0
 60136  1  0  0  0
 60137  1  0  0  0
 61138  1  0  0  0
 61139  1  0  0  0
 61140  1  0  0  0
 62141  1  0  0  0
 62142  1  0  0  0
 62143  1  0  0  0
 63 65  1  0  0  0
 63144  1  0  0  0
 63145  1  0  0  0
 63146  1  0  0  0
 64147  1  0  0  0
 65148  1  0  0  0
 68 82  1  0  0  0
 71 72  2  0  0  0
 71 74  1  0  0  0
 71149  1  0  0  0
 72 73  1  0  0  0
 72 80  1  0  0  0
 73 75  2  0  0  0
 73 84  1  0  0  0
 74 83  2  0  0  0
 74 86  1  0  0  0
 75 83  1  0  0  0
 75 85  1  0  0  0
 76 77  1  0  0  0
 76 81  1  0  0  0
 76 87  2  0  0  0
 77 85  1  0  0  0
 77 88  2  0  0  0
 78 81  1  0  0  0
 78 82  1  0  0  0
 78 89  2  0  0  0
 79 80  1  0  0  0
 79150  1  0  0  0
 79151  1  0  0  0
 79152  1  0  0  0
 80153  1  0  0  0
 80154  1  0  0  0
 81155  1  0  0  0
 81156  1  0  0  0
 82157  1  0  0  0
 82158  1  0  0  0
 84159  1  0  0  0
 84160  1  0  0  0
 85161  1  0  0  0
 86162  1  0  0  0
M  ISO  4   1 100  68 101  82 101  86 100
M  END
> <chiral flag>
0

> <version>
0

> <s_m_source_file>
/data/baiqing/PycharmProjects/Reinvent-master-3.2/result/LINK_invent/BTK/process_docking_weight1_custom_product_contain_oxygen_bond_distance_aromatic_linkinvent_7_9_3/rearranged_h_0168.sdf

> <i_m_source_file_index>
13

> <r_mmod_Potential_Energy-OPLS-2005>
-357.338012695312

> <r_mmod_Stretch_Energy-OPLS-2005>
36.4155654907227

> <r_mmod_Bend_Energy-OPLS-2005>
108.902252197266

> <r_mmod_Torsional_Energy-OPLS-2005>
249.798263549805

> <r_mmod_Improper_Torsional_Energy-OPLS-2005>
7.00465202331543

> <r_mmod_Van_der_Waal_Energy-OPLS-2005>
170.486862182617

> <r_mmod_Electrostatic_Energy-OPLS-2005>
-673.880310058594

> <r_mmod_Solvation_Energy-OPLS-2005>
-265.382629394531

> <b_mmod_Minimization_Converged-OPLS-2005>
0

> <r_mmod_RMS_Derivative-OPLS-2005>
1.26621448993683

$$$$
13
                    3D
 Structure written by MMmdl.
158166  0  0  1  0            999 V2000
  -30.6592  -14.6234   20.5229 C   0  0  0  0  0  0
  -30.4285  -12.3840   19.4860 C   0  0  0  0  0  0
  -29.5225  -12.5047   18.2448 C   0  0  0  0  0  0
  -28.0472  -12.3329   18.6566 C   0  0  0  0  0  0
  -27.6544  -13.2250   19.8655 C   0  0  2  0  0  0
  -28.6858  -13.1056   21.0121 C   0  0  0  0  0  0
  -25.2590  -13.8277   20.5738 C   0  0  0  0  0  0
  -24.1846  -13.0495   20.9188 C   0  0  0  0  0  0
  -24.6409  -11.6989   20.8632 C   0  0  0  0  0  0
  -23.9112  -10.4374   21.0332 C   0  0  0  0  0  0
  -24.3701   -9.4337   21.9119 C   0  0  0  0  0  0
  -23.6395   -8.2387   22.0760 C   0  0  0  0  0  0
  -22.4361   -8.0388   21.3558 C   0  0  0  0  0  0
  -21.9955   -9.0368   20.4670 C   0  0  0  0  0  0
  -22.7282  -10.2230   20.3016 C   0  0  0  0  0  0
  -21.6937   -6.0820   22.5251 C   0  0  0  0  0  0
  -21.4066   -6.5725   23.8170 C   0  0  0  0  0  0
  -21.3611   -5.6845   24.9108 C   0  0  0  0  0  0
  -21.6007   -4.3120   24.7151 C   0  0  0  0  0  0
  -21.8850   -3.8223   23.4287 C   0  0  0  0  0  0
  -21.9252   -4.7055   22.3343 C   0  0  0  0  0  0
  -22.7871  -13.5270   21.1948 C   0  0  0  0  0  0
  -22.1721   -4.2232   21.0942 F   0  0  0  0  0  0
  -21.5553   -3.4601   25.7664 F   0  0  0  0  0  0
  -30.0113  -13.4165   20.4578 N   0  0  0  0  0  0
  -26.2973  -12.9428   20.3240 N   0  0  0  0  0  0
  -25.9298  -11.6566   20.5574 N   0  0  0  0  0  0
  -22.0574  -12.8132   22.0487 N   0  0  0  0  0  0
  -25.4402  -15.2009   20.4385 N   0  0  0  0  0  0
  -31.8010  -14.7661   20.0850 O   0  0  0  0  0  0
  -21.6756   -6.8978   21.4223 O   0  0  0  0  0  0
  -22.3495  -14.5567   20.6877 O   0  0  0  0  0  0
  -24.6198  -31.8587   23.2135 C   0  0  0  0  0  0
  -25.9032  -32.4824   23.8506 C   0  0  1  0  0  0
  -27.2705  -27.4178   20.0951 C   0  0  0  0  0  0
  -25.5870  -33.8629   24.2415 N   0  0  0  0  0  0
  -23.4194  -30.4715   21.5520 C   0  0  2  0  0  0
  -24.8801  -28.9368   20.1272 C   0  0  0  0  0  0
  -22.7464  -29.4534   22.5037 C   0  0  0  0  0  0
  -18.0267  -28.1420   22.8515 C   0  0  0  0  0  0
  -24.1466  -36.7339   23.2647 C   0  0  0  0  0  0
  -25.9476  -30.8282   21.3641 C   0  0  0  0  0  0
  -26.0405  -29.4566   20.7170 C   0  0  0  0  0  0
  -27.2423  -28.7044   20.6964 C   0  0  0  0  0  0
  -26.0984  -26.9262   19.4872 C   0  0  0  0  0  0
  -24.9024  -27.6696   19.5165 C   0  0  0  0  0  0
  -23.6367  -29.7960   20.1724 C   0  0  0  0  0  0
  -25.4084  -36.3152   24.0362 C   0  0  1  0  0  0
  -20.5834  -28.3610   23.1360 C   0  0  2  0  0  0
  -20.6692  -26.9345   22.5449 C   0  0  0  0  0  0
  -19.5653  -26.6431   21.5242 C   0  0  0  0  0  0
  -18.1874  -26.7951   22.1704 C   0  0  0  0  0  0
  -19.1518  -28.8848   23.2943 C   0  0  0  0  0  0
  -18.9458  -30.1404   23.9040 C   0  0  0  0  0  0
  -17.6457  -30.6553   24.0724 C   0  0  0  0  0  0
  -25.8986  -34.9481   23.5192 C   0  0  0  0  0  0
  -16.5356  -29.9111   23.6354 C   0  0  0  0  0  0
  -16.7266  -28.6574   23.0325 C   0  0  0  0  0  0
  -26.4497  -31.6650   25.0847 C   0  0  0  0  0  0
  -25.3793  -31.3743   26.1630 C   0  0  0  0  0  0
  -27.0307  -30.3111   24.6177 C   0  0  0  0  0  0
  -27.6113  -32.4365   25.7588 C   0  0  0  0  0  0
  -27.5585  -37.1812   24.8461 C   0  0  0  0  0  0
  -21.4160  -29.2987   22.3820 N   0  0  0  0  0  0
  -26.4296  -37.3821   23.9412 N   0  0  0  0  0  0
  -24.6819  -31.0636   22.1053 N   0  0  0  0  0  0
  -23.4200  -28.8034   23.3066 O   0  0  0  0  0  0
  -28.4297  -26.6551   20.0679 O   0  0  0  0  0  0
  -26.5543  -34.8908   22.4748 O   0  0  0  0  0  0
  -23.5357  -32.1307   23.7470 O   0  0  0  0  0  0
  -27.3802  -19.4172   18.9311 C   0  0  0  0  0  0
  -26.8546  -18.4897   18.0209 C   0  0  0  0  0  0
  -28.5567  -16.9174   18.6770 C   0  0  0  0  0  0
  -29.0759  -17.8040   19.6547 C   0  0  0  0  0  0
  -28.5466  -19.1586   19.7161 C   0  0  0  0  0  0
  -27.4706  -17.2505   17.8590 C   0  0  0  0  0  0
  -28.9106  -21.4606   20.1538 C   0  0  0  0  0  0
  -29.0682  -22.8016   20.8869 C   0  0  0  0  0  0
  -27.5454  -25.4512   22.0740 C   0  0  0  0  0  0
  -30.1556  -17.1660   20.5746 C   0  0  0  0  0  0
  -28.5638  -24.0799   20.1262 C   0  0  0  0  0  0
  -28.5393  -25.4507   20.8953 C   0  0  1  0  0  0
  -29.0421  -20.2205   20.5438 N   0  0  0  0  0  0
  -29.9174  -15.7082   20.8898 N   0  0  0  0  0  0
  -29.5657  -22.8767   22.0163 O   0  0  0  0  0  0
  -26.9946  -16.3661   16.9512 F   0  0  0  0  0  0
  -31.4764  -12.4843   19.1978 H   0  0  0  0  0  0
  -30.3404  -11.3882   19.9237 H   0  0  0  0  0  0
  -29.8004  -11.7446   17.5123 H   0  0  0  0  0  0
  -29.6796  -13.4700   17.7606 H   0  0  0  0  0  0
  -27.9249  -11.2851   18.9337 H   0  0  0  0  0  0
  -27.3854  -12.5089   17.8072 H   0  0  0  0  0  0
  -27.6712  -14.2544   19.5075 H   0  0  0  0  0  0
  -28.6824  -12.1019   21.4431 H   0  0  0  0  0  0
  -28.4212  -13.7844   21.8230 H   0  0  0  0  0  0
  -25.2903   -9.5863   22.4603 H   0  0  0  0  0  0
  -24.0177   -7.4837   22.7506 H   0  0  0  0  0  0
  -21.0857   -8.8891   19.9020 H   0  0  0  0  0  0
  -22.3768  -10.9765   19.6103 H   0  0  0  0  0  0
  -21.2108   -7.6247   23.9673 H   0  0  0  0  0  0
  -21.1334   -6.0583   25.8990 H   0  0  0  0  0  0
  -22.0667   -2.7716   23.2729 H   0  0  0  0  0  0
  -22.4321  -11.9800   22.4740 H   0  0  0  0  0  0
  -21.1184  -13.1002   22.2833 H   0  0  0  0  0  0
  -24.6911  -15.8656   20.6037 H   0  0  0  0  0  0
  -26.3050  -15.6485   20.1575 H   0  0  0  0  0  0
  -26.7111  -32.5569   23.1310 H   0  0  0  0  0  0
  -25.0149  -33.9814   25.0643 H   0  0  0  0  0  0
  -22.7107  -31.2866   21.3984 H   0  0  0  0  0  0
  -23.3758  -35.9650   23.3321 H   0  0  0  0  0  0
  -24.3569  -36.8922   22.2063 H   0  0  0  0  0  0
  -23.7155  -37.6530   23.6621 H   0  0  0  0  0  0
  -26.0349  -31.5874   20.5852 H   0  0  0  0  0  0
  -26.8446  -30.9111   21.9685 H   0  0  0  0  0  0
  -28.1438  -29.0992   21.1513 H   0  0  0  0  0  0
  -26.1255  -25.9626   18.9968 H   0  0  0  0  0  0
  -24.0070  -27.2537   19.0793 H   0  0  0  0  0  0
  -23.7501  -30.5644   19.4074 H   0  0  0  0  0  0
  -22.7733  -29.1956   19.8789 H   0  0  0  0  0  0
  -25.1236  -36.2106   25.0858 H   0  0  0  0  0  0
  -20.9830  -28.3106   24.1496 H   0  0  0  0  0  0
  -20.5645  -26.2164   23.3614 H   0  0  0  0  0  0
  -21.6547  -26.7402   22.1199 H   0  0  0  0  0  0
  -19.6767  -25.6418   21.1100 H   0  0  0  0  0  0
  -19.6578  -27.3338   20.6855 H   0  0  0  0  0  0
  -17.4136  -26.6668   21.4131 H   0  0  0  0  0  0
  -18.0239  -26.0171   22.9181 H   0  0  0  0  0  0
  -19.7942  -30.7158   24.2498 H   0  0  0  0  0  0
  -17.4948  -31.6155   24.5462 H   0  0  0  0  0  0
  -15.5355  -30.3011   23.7571 H   0  0  0  0  0  0
  -15.8692  -28.0946   22.6918 H   0  0  0  0  0  0
  -24.5985  -30.7031   25.8040 H   0  0  0  0  0  0
  -24.8964  -32.2867   26.5141 H   0  0  0  0  0  0
  -25.8198  -30.8944   27.0381 H   0  0  0  0  0  0
  -26.2811  -29.6937   24.1208 H   0  0  0  0  0  0
  -27.4068  -29.7294   25.4611 H   0  0  0  0  0  0
  -27.8669  -30.4504   23.9317 H   0  0  0  0  0  0
  -27.2785  -33.3664   26.2238 H   0  0  0  0  0  0
  -28.3909  -32.6935   25.0395 H   0  0  0  0  0  0
  -28.0837  -31.8463   26.5464 H   0  0  0  0  0  0
  -28.2629  -38.0093   24.7532 H   0  0  0  0  0  0
  -28.1042  -36.2628   24.6254 H   0  0  0  0  0  0
  -27.2291  -37.1424   25.8858 H   0  0  0  0  0  0
  -20.9287  -29.8878   21.7222 H   0  0  0  0  0  0
  -26.0230  -38.2927   24.1392 H   0  0  0  0  0  0
  -26.8331  -20.3467   19.0111 H   0  0  0  0  0  0
  -25.9770  -18.7270   17.4382 H   0  0  0  0  0  0
  -28.9662  -15.9277   18.5561 H   0  0  0  0  0  0
  -28.6231  -21.6497   19.1169 H   0  0  0  0  0  0
  -27.7039  -24.5912   22.7208 H   0  0  0  0  0  0
  -26.5099  -25.4070   21.7366 H   0  0  0  0  0  0
  -27.6687  -26.3527   22.6739 H   0  0  0  0  0  0
  -30.2277  -17.7518   21.4924 H   0  0  0  0  0  0
  -31.1229  -17.2707   20.0811 H   0  0  0  0  0  0
  -29.2110  -24.1768   19.2583 H   0  0  0  0  0  0
  -27.5733  -23.8845   19.7193 H   0  0  0  0  0  0
  -29.5373  -25.5432   21.3288 H   0  0  0  0  0  0
  -29.0209  -15.5062   21.3051 H   0  0  0  0  0  0
  1 25  1  0  0  0
  1 30  2  0  0  0
  1 84  1  0  0  0
  2  3  1  0  0  0
  2 25  1  0  0  0
  2 87  1  0  0  0
  2 88  1  0  0  0
  3  4  1  0  0  0
  3 89  1  0  0  0
  3 90  1  0  0  0
  4  5  1  0  0  0
  4 91  1  0  0  0
  4 92  1  0  0  0
  5  6  1  0  0  0
  5 26  1  0  0  0
  5 93  1  0  0  0
  6 25  1  0  0  0
  6 94  1  0  0  0
  6 95  1  0  0  0
  7  8  2  0  0  0
  7 26  1  0  0  0
  7 29  1  0  0  0
  8  9  1  0  0  0
  8 22  1  0  0  0
  9 10  1  0  0  0
  9 27  2  0  0  0
 10 11  2  0  0  0
 10 15  1  0  0  0
 11 12  1  0  0  0
 11 96  1  0  0  0
 12 13  2  0  0  0
 12 97  1  0  0  0
 13 14  1  0  0  0
 13 31  1  0  0  0
 14 15  2  0  0  0
 14 98  1  0  0  0
 15 99  1  0  0  0
 16 17  2  0  0  0
 16 21  1  0  0  0
 16 31  1  0  0  0
 17 18  1  0  0  0
 17100  1  0  0  0
 18 19  2  0  0  0
 18101  1  0  0  0
 19 20  1  0  0  0
 19 24  1  0  0  0
 20 21  2  0  0  0
 20102  1  0  0  0
 21 23  1  0  0  0
 22 28  1  0  0  0
 22 32  2  0  0  0
 26 27  1  0  0  0
 28103  1  0  0  0
 28104  1  0  0  0
 29105  1  0  0  0
 29106  1  0  0  0
 33 34  1  0  0  0
 33 66  1  0  0  0
 33 70  2  0  0  0
 34 36  1  0  0  0
 34 59  1  0  0  0
 34107  1  0  0  0
 35 44  2  0  0  0
 35 45  1  0  0  0
 35 68  1  0  0  0
 36 56  1  0  0  0
 36108  1  0  0  0
 37 39  1  0  0  0
 37 47  1  0  0  0
 37 66  1  0  0  0
 37109  1  0  0  0
 38 43  2  0  0  0
 38 46  1  0  0  0
 38 47  1  0  0  0
 39 64  1  0  0  0
 39 67  2  0  0  0
 40 52  1  0  0  0
 40 53  2  0  0  0
 40 58  1  0  0  0
 41110  1  0  0  0
 41111  1  0  0  0
 41112  1  0  0  0
 41 48  1  0  0  0
 42 43  1  0  0  0
 42 66  1  0  0  0
 42113  1  0  0  0
 42114  1  0  0  0
 43 44  1  0  0  0
 44115  1  0  0  0
 45 46  2  0  0  0
 45116  1  0  0  0
 46117  1  0  0  0
 47118  1  0  0  0
 47119  1  0  0  0
 48 56  1  0  0  0
 48 65  1  0  0  0
 48120  1  0  0  0
 49 50  1  0  0  0
 49 53  1  0  0  0
 49 64  1  0  0  0
 49121  1  0  0  0
 50 51  1  0  0  0
 50122  1  0  0  0
 50123  1  0  0  0
 51 52  1  0  0  0
 51124  1  0  0  0
 51125  1  0  0  0
 52126  1  0  0  0
 52127  1  0  0  0
 53 54  1  0  0  0
 54 55  2  0  0  0
 54128  1  0  0  0
 55 57  1  0  0  0
 55129  1  0  0  0
 56 69  2  0  0  0
 57 58  2  0  0  0
 57130  1  0  0  0
 58131  1  0  0  0
 59 60  1  0  0  0
 59 61  1  0  0  0
 59 62  1  0  0  0
 60132  1  0  0  0
 60133  1  0  0  0
 60134  1  0  0  0
 61135  1  0  0  0
 61136  1  0  0  0
 61137  1  0  0  0
 62138  1  0  0  0
 62139  1  0  0  0
 62140  1  0  0  0
 63 65  1  0  0  0
 63141  1  0  0  0
 63142  1  0  0  0
 63143  1  0  0  0
 64144  1  0  0  0
 65145  1  0  0  0
 68 82  1  0  0  0
 71 72  2  0  0  0
 71 75  1  0  0  0
 71146  1  0  0  0
 72 76  1  0  0  0
 72147  1  0  0  0
 73 74  1  0  0  0
 73 76  2  0  0  0
 73148  1  0  0  0
 74 75  2  0  0  0
 74 80  1  0  0  0
 75 83  1  0  0  0
 76 86  1  0  0  0
 77 78  1  0  0  0
 77 83  2  0  0  0
 77149  1  0  0  0
 78 81  1  0  0  0
 78 85  2  0  0  0
 79150  1  0  0  0
 79151  1  0  0  0
 79152  1  0  0  0
 79 82  1  0  0  0
 80 84  1  0  0  0
 80153  1  0  0  0
 80154  1  0  0  0
 81 82  1  0  0  0
 81155  1  0  0  0
 81156  1  0  0  0
 82157  1  0  0  0
 84158  1  0  0  0
M  ISO  4   1 100  68 101  82 101  84 100
M  END
> <chiral flag>
0

> <version>
0

> <s_m_source_file>
/data/baiqing/PycharmProjects/Reinvent-master-3.2/result/LINK_invent/BTK/process_docking_weight1_custom_product_contain_oxygen_bond_distance_aromatic_linkinvent_7_9_3/rearranged_h_0168.sdf

> <i_m_source_file_index>
14

> <r_mmod_Potential_Energy-OPLS-2005>
-9.62693786621094

> <r_mmod_Stretch_Energy-OPLS-2005>
71.8466262817383

> <r_mmod_Bend_Energy-OPLS-2005>
133.47705078125

> <r_mmod_Torsional_Energy-OPLS-2005>
230.624694824219

> <r_mmod_Improper_Torsional_Energy-OPLS-2005>
5.04740190505981

> <r_mmod_Van_der_Waal_Energy-OPLS-2005>
153.458160400391

> <r_mmod_Electrostatic_Energy-OPLS-2005>
-405.286224365234

> <r_mmod_Solvation_Energy-OPLS-2005>
-231.334503173828

> <b_mmod_Minimization_Converged-OPLS-2005>
0

> <r_mmod_RMS_Derivative-OPLS-2005>
7.2264461517334

$$$$
14
                    3D
 Structure written by MMmdl.
156164  0  0  1  0            999 V2000
  -30.7197  -14.4459   20.4950 C   0  0  0  0  0  0
  -30.4131  -12.2694   19.4321 C   0  0  0  0  0  0
  -29.4947  -12.4771   18.2099 C   0  0  0  0  0  0
  -28.0146  -12.3540   18.6213 C   0  0  0  0  0  0
  -27.6597  -13.2088   19.8680 C   0  0  2  0  0  0
  -28.7029  -13.0194   20.9949 C   0  0  0  0  0  0
  -25.2584  -13.8171   20.5675 C   0  0  0  0  0  0
  -24.1840  -13.0442   20.9168 C   0  0  0  0  0  0
  -24.6398  -11.6911   20.8730 C   0  0  0  0  0  0
  -23.9066  -10.4296   21.0406 C   0  0  0  0  0  0
  -24.3619   -9.4209   21.9181 C   0  0  0  0  0  0
  -23.6295   -8.2247   22.0756 C   0  0  0  0  0  0
  -22.4274   -8.0282   21.3549 C   0  0  0  0  0  0
  -21.9911   -9.0254   20.4644 C   0  0  0  0  0  0
  -22.7241  -10.2131   20.3055 C   0  0  0  0  0  0
  -21.6850   -6.0733   22.5282 C   0  0  0  0  0  0
  -21.4012   -6.5637   23.8211 C   0  0  0  0  0  0
  -21.3657   -5.6792   24.9172 C   0  0  0  0  0  0
  -21.6046   -4.3056   24.7223 C   0  0  0  0  0  0
  -21.8819   -3.8147   23.4343 C   0  0  0  0  0  0
  -21.9190   -4.6964   22.3404 C   0  0  0  0  0  0
  -22.7859  -13.5237   21.1842 C   0  0  0  0  0  0
  -22.1660   -4.2152   21.0981 F   0  0  0  0  0  0
  -21.5627   -3.4541   25.7736 F   0  0  0  0  0  0
  -30.0377  -13.2758   20.4340 N   0  0  0  0  0  0
  -26.3020  -12.9346   20.3339 N   0  0  0  0  0  0
  -25.9328  -11.6503   20.5775 N   0  0  0  0  0  0
  -22.0503  -12.8233   22.0399 N   0  0  0  0  0  0
  -25.4289  -15.1886   20.4090 N   0  0  0  0  0  0
  -31.8988  -14.5542   20.1553 O   0  0  0  0  0  0
  -21.6639   -6.8875   21.4245 O   0  0  0  0  0  0
  -22.3544  -14.5545   20.6692 O   0  0  0  0  0  0
  -24.6114  -31.8706   23.2112 C   0  0  0  0  0  0
  -25.9026  -32.4840   23.8384 C   0  0  1  0  0  0
  -27.2319  -27.4636   20.0937 C   0  0  0  0  0  0
  -25.5902  -33.8638   24.2326 N   0  0  0  0  0  0
  -23.3970  -30.4919   21.5525 C   0  0  2  0  0  0
  -24.8440  -28.9616   20.1146 C   0  0  0  0  0  0
  -22.7399  -29.4654   22.5020 C   0  0  0  0  0  0
  -18.0258  -28.1371   22.8480 C   0  0  0  0  0  0
  -24.1496  -36.7307   23.2643 C   0  0  0  0  0  0
  -25.9220  -30.8472   21.3573 C   0  0  0  0  0  0
  -26.0028  -29.4832   20.7047 C   0  0  0  0  0  0
  -27.2034  -28.7425   20.6865 C   0  0  0  0  0  0
  -26.0609  -26.9485   19.4990 C   0  0  0  0  0  0
  -24.8664  -27.6929   19.5077 C   0  0  0  0  0  0
  -23.6035  -29.8236   20.1664 C   0  0  0  0  0  0
  -25.4124  -36.3115   24.0340 C   0  0  1  0  0  0
  -20.5850  -28.3646   23.1333 C   0  0  2  0  0  0
  -20.6754  -26.9392   22.5426 C   0  0  0  0  0  0
  -19.5737  -26.6380   21.5219 C   0  0  0  0  0  0
  -18.1907  -26.7916   22.1617 C   0  0  0  0  0  0
  -19.1506  -28.8828   23.2900 C   0  0  0  0  0  0
  -18.9443  -30.1432   23.8914 C   0  0  0  0  0  0
  -17.6453  -30.6583   24.0554 C   0  0  0  0  0  0
  -25.9046  -34.9484   23.5125 C   0  0  0  0  0  0
  -16.5341  -29.9084   23.6328 C   0  0  0  0  0  0
  -16.7252  -28.6504   23.0342 C   0  0  0  0  0  0
  -26.4465  -31.6616   25.0704 C   0  0  0  0  0  0
  -25.3731  -31.3734   26.1454 C   0  0  0  0  0  0
  -27.0288  -30.3065   24.6049 C   0  0  0  0  0  0
  -27.6033  -32.4343   25.7466 C   0  0  0  0  0  0
  -27.5582  -37.1817   24.8474 C   0  0  0  0  0  0
  -21.4134  -29.3021   22.3761 N   0  0  0  0  0  0
  -26.4315  -37.3788   23.9389 N   0  0  0  0  0  0
  -24.6611  -31.0832   22.0998 N   0  0  0  0  0  0
  -23.4189  -28.8195   23.3042 O   0  0  0  0  0  0
  -28.3910  -26.7318   20.0917 O   0  0  0  0  0  0
  -26.5591  -34.8926   22.4676 O   0  0  0  0  0  0
  -23.5313  -32.1440   23.7530 O   0  0  0  0  0  0
  -30.8188  -16.9488   18.8826 C   0  0  0  0  0  0
  -30.6801  -19.3619   18.9615 C   0  0  0  0  0  0
  -29.7208  -18.0320   20.7974 C   0  0  0  0  0  0
  -30.1826  -16.8428   20.1459 C   0  0  0  0  0  0
  -29.9927  -19.3120   20.1987 C   0  0  0  0  0  0
  -31.0741  -18.1931   18.3011 C   0  0  0  0  0  0
  -28.9480  -22.9647   20.7759 C   0  0  0  0  0  0
  -28.9495  -24.3469   20.0724 C   0  0  0  0  0  0
  -29.6127  -21.7912   20.0404 C   0  0  0  0  0  0
  -28.2938  -25.5066   20.8286 C   0  0  0  0  0  0
  -28.9733  -17.8981   22.1405 C   0  0  0  0  0  0
  -29.9683  -15.5391   20.7181 N   0  0  0  0  0  0
  -29.6127  -20.5327   20.8020 N   0  0  0  0  0  0
  -28.4254  -22.7989   21.8860 O   0  0  0  0  0  0
  -29.4548  -24.5032   18.9514 O   0  0  0  0  0  0
  -31.7030  -18.2678   17.1045 F   0  0  0  0  0  0
  -28.0861  -16.9003   22.0921 F   0  0  0  0  0  0
  -29.8543  -17.6231   23.1027 F   0  0  0  0  0  0
  -28.2917  -18.9852   22.5084 F   0  0  0  0  0  0
  -31.4616  -12.3382   19.1349 H   0  0  0  0  0  0
  -30.2865  -11.2670   19.8446 H   0  0  0  0  0  0
  -29.7290  -11.7439   17.4363 H   0  0  0  0  0  0
  -29.6760  -13.4576   17.7667 H   0  0  0  0  0  0
  -27.8198  -11.3012   18.8283 H   0  0  0  0  0  0
  -27.3685  -12.6213   17.7845 H   0  0  0  0  0  0
  -27.6946  -14.2504   19.5488 H   0  0  0  0  0  0
  -28.6634  -12.0027   21.3881 H   0  0  0  0  0  0
  -28.4870  -13.6749   21.8403 H   0  0  0  0  0  0
  -25.2761   -9.5680   22.4753 H   0  0  0  0  0  0
  -23.9997   -7.4637   22.7481 H   0  0  0  0  0  0
  -21.0837   -8.8770   19.8953 H   0  0  0  0  0  0
  -22.3699  -10.9668   19.6159 H   0  0  0  0  0  0
  -21.2008   -7.6143   23.9714 H   0  0  0  0  0  0
  -21.1479   -6.0520   25.9070 H   0  0  0  0  0  0
  -22.0602   -2.7611   23.2845 H   0  0  0  0  0  0
  -22.4108  -11.9880   22.4770 H   0  0  0  0  0  0
  -21.1132  -13.1271   22.2627 H   0  0  0  0  0  0
  -24.6664  -15.8436   20.5389 H   0  0  0  0  0  0
  -26.2886  -15.6357   20.1205 H   0  0  0  0  0  0
  -26.7102  -32.5556   23.1155 H   0  0  0  0  0  0
  -25.0063  -33.9799   25.0471 H   0  0  0  0  0  0
  -22.6836  -31.3066   21.4138 H   0  0  0  0  0  0
  -23.3746  -35.9654   23.3369 H   0  0  0  0  0  0
  -24.3575  -36.8857   22.2041 H   0  0  0  0  0  0
  -23.7271  -37.6545   23.6614 H   0  0  0  0  0  0
  -26.0262  -31.6159   20.5901 H   0  0  0  0  0  0
  -26.8128  -30.9029   21.9708 H   0  0  0  0  0  0
  -28.1016  -29.1412   21.1385 H   0  0  0  0  0  0
  -26.0728  -25.9772   19.0262 H   0  0  0  0  0  0
  -23.9750  -27.2862   19.0503 H   0  0  0  0  0  0
  -23.7044  -30.5965   19.4045 H   0  0  0  0  0  0
  -22.7301  -29.2381   19.8745 H   0  0  0  0  0  0
  -25.1312  -36.1997   25.0839 H   0  0  0  0  0  0
  -20.9913  -28.3203   24.1466 H   0  0  0  0  0  0
  -20.5659  -26.2254   23.3600 H   0  0  0  0  0  0
  -21.6623  -26.7438   22.1211 H   0  0  0  0  0  0
  -19.6900  -25.6290   21.1229 H   0  0  0  0  0  0
  -19.6690  -27.3199   20.6750 H   0  0  0  0  0  0
  -17.4183  -26.6662   21.4014 H   0  0  0  0  0  0
  -18.0299  -26.0058   22.9008 H   0  0  0  0  0  0
  -19.7921  -30.7221   24.2309 H   0  0  0  0  0  0
  -17.5009  -31.6266   24.5138 H   0  0  0  0  0  0
  -15.5340  -30.2980   23.7655 H   0  0  0  0  0  0
  -15.8648  -28.0830   22.7054 H   0  0  0  0  0  0
  -24.5884  -30.7118   25.7783 H   0  0  0  0  0  0
  -24.8946  -32.2901   26.4909 H   0  0  0  0  0  0
  -25.8060  -30.8883   27.0206 H   0  0  0  0  0  0
  -26.2813  -29.6846   24.1109 H   0  0  0  0  0  0
  -27.4093  -29.7298   25.4486 H   0  0  0  0  0  0
  -27.8630  -30.4407   23.9159 H   0  0  0  0  0  0
  -27.2643  -33.3624   26.2078 H   0  0  0  0  0  0
  -28.3816  -32.6943   25.0286 H   0  0  0  0  0  0
  -28.0725  -31.8458   26.5364 H   0  0  0  0  0  0
  -28.2641  -38.0070   24.7474 H   0  0  0  0  0  0
  -28.1040  -36.2601   24.6375 H   0  0  0  0  0  0
  -27.2283  -37.1563   25.8875 H   0  0  0  0  0  0
  -20.9303  -29.8764   21.6998 H   0  0  0  0  0  0
  -26.0223  -38.2882   24.1352 H   0  0  0  0  0  0
  -31.1329  -16.0758   18.3309 H   0  0  0  0  0  0
  -30.9184  -20.2958   18.4779 H   0  0  0  0  0  0
  -30.6377  -22.0851   19.8081 H   0  0  0  0  0  0
  -29.0913  -21.6557   19.0912 H   0  0  0  0  0  0
  -28.7964  -25.6304   21.7875 H   0  0  0  0  0  0
  -27.2602  -25.2390   21.0500 H   0  0  0  0  0  0
  -29.0863  -15.3942   21.1902 H   0  0  0  0  0  0
  -28.9906  -20.5080   21.6111 H   0  0  0  0  0  0
  1 25  1  0  0  0
  1 30  2  0  0  0
  1 82  1  0  0  0
  2  3  1  0  0  0
  2 25  1  0  0  0
  2 90  1  0  0  0
  2 91  1  0  0  0
  3  4  1  0  0  0
  3 92  1  0  0  0
  3 93  1  0  0  0
  4  5  1  0  0  0
  4 94  1  0  0  0
  4 95  1  0  0  0
  5  6  1  0  0  0
  5 26  1  0  0  0
  5 96  1  0  0  0
  6 25  1  0  0  0
  6 97  1  0  0  0
  6 98  1  0  0  0
  7  8  2  0  0  0
  7 26  1  0  0  0
  7 29  1  0  0  0
  8  9  1  0  0  0
  8 22  1  0  0  0
  9 10  1  0  0  0
  9 27  2  0  0  0
 10 11  2  0  0  0
 10 15  1  0  0  0
 11 12  1  0  0  0
 11 99  1  0  0  0
 12 13  2  0  0  0
 12100  1  0  0  0
 13 14  1  0  0  0
 13 31  1  0  0  0
 14 15  2  0  0  0
 14101  1  0  0  0
 15102  1  0  0  0
 16 17  2  0  0  0
 16 21  1  0  0  0
 16 31  1  0  0  0
 17 18  1  0  0  0
 17103  1  0  0  0
 18 19  2  0  0  0
 18104  1  0  0  0
 19 20  1  0  0  0
 19 24  1  0  0  0
 20 21  2  0  0  0
 20105  1  0  0  0
 21 23  1  0  0  0
 22 28  1  0  0  0
 22 32  2  0  0  0
 26 27  1  0  0  0
 28106  1  0  0  0
 28107  1  0  0  0
 29108  1  0  0  0
 29109  1  0  0  0
 33 34  1  0  0  0
 33 66  1  0  0  0
 33 70  2  0  0  0
 34 36  1  0  0  0
 34 59  1  0  0  0
 34110  1  0  0  0
 35 44  2  0  0  0
 35 45  1  0  0  0
 35 68  1  0  0  0
 36 56  1  0  0  0
 36111  1  0  0  0
 37 39  1  0  0  0
 37 47  1  0  0  0
 37 66  1  0  0  0
 37112  1  0  0  0
 38 43  2  0  0  0
 38 46  1  0  0  0
 38 47  1  0  0  0
 39 64  1  0  0  0
 39 67  2  0  0  0
 40 52  1  0  0  0
 40 53  2  0  0  0
 40 58  1  0  0  0
 41113  1  0  0  0
 41114  1  0  0  0
 41115  1  0  0  0
 41 48  1  0  0  0
 42 43  1  0  0  0
 42 66  1  0  0  0
 42116  1  0  0  0
 42117  1  0  0  0
 43 44  1  0  0  0
 44118  1  0  0  0
 45 46  2  0  0  0
 45119  1  0  0  0
 46120  1  0  0  0
 47121  1  0  0  0
 47122  1  0  0  0
 48 56  1  0  0  0
 48 65  1  0  0  0
 48123  1  0  0  0
 49 50  1  0  0  0
 49 53  1  0  0  0
 49 64  1  0  0  0
 49124  1  0  0  0
 50 51  1  0  0  0
 50125  1  0  0  0
 50126  1  0  0  0
 51 52  1  0  0  0
 51127  1  0  0  0
 51128  1  0  0  0
 52129  1  0  0  0
 52130  1  0  0  0
 53 54  1  0  0  0
 54 55  2  0  0  0
 54131  1  0  0  0
 55 57  1  0  0  0
 55132  1  0  0  0
 56 69  2  0  0  0
 57 58  2  0  0  0
 57133  1  0  0  0
 58134  1  0  0  0
 59 60  1  0  0  0
 59 61  1  0  0  0
 59 62  1  0  0  0
 60135  1  0  0  0
 60136  1  0  0  0
 60137  1  0  0  0
 61138  1  0  0  0
 61139  1  0  0  0
 61140  1  0  0  0
 62141  1  0  0  0
 62142  1  0  0  0
 62143  1  0  0  0
 63 65  1  0  0  0
 63144  1  0  0  0
 63145  1  0  0  0
 63146  1  0  0  0
 64147  1  0  0  0
 65148  1  0  0  0
 68 80  1  0  0  0
 71 74  2  0  0  0
 71 76  1  0  0  0
 71149  1  0  0  0
 72 75  1  0  0  0
 72 76  2  0  0  0
 72150  1  0  0  0
 73 74  1  0  0  0
 73 75  2  0  0  0
 73 81  1  0  0  0
 74 82  1  0  0  0
 75 83  1  0  0  0
 76 86  1  0  0  0
 77 78  1  0  0  0
 77 79  1  0  0  0
 77 84  2  0  0  0
 78 80  1  0  0  0
 78 85  2  0  0  0
 79 83  1  0  0  0
 79151  1  0  0  0
 79152  1  0  0  0
 80153  1  0  0  0
 80154  1  0  0  0
 81 87  1  0  0  0
 81 88  1  0  0  0
 81 89  1  0  0  0
 82155  1  0  0  0
 83156  1  0  0  0
M  ISO  4   1 100  68 101  80 101  82 100
M  END
> <chiral flag>
0

> <version>
0

> <s_m_source_file>
/data/baiqing/PycharmProjects/Reinvent-master-3.2/result/LINK_invent/BTK/process_docking_weight1_custom_product_contain_oxygen_bond_distance_aromatic_linkinvent_7_9_3/rearranged_h_0168.sdf

> <i_m_source_file_index>
15

> <r_mmod_Potential_Energy-OPLS-2005>
266.733856201172

> <r_mmod_Stretch_Energy-OPLS-2005>
42.0271492004395

> <r_mmod_Bend_Energy-OPLS-2005>
98.4019622802734

> <r_mmod_Torsional_Energy-OPLS-2005>
242.393173217773

> <r_mmod_Improper_Torsional_Energy-OPLS-2005>
7.32343626022339

> <r_mmod_Van_der_Waal_Energy-OPLS-2005>
169.919281005859

> <r_mmod_Electrostatic_Energy-OPLS-2005>
-84.5473098754883

> <r_mmod_Solvation_Energy-OPLS-2005>
-224.755676269531

> <b_mmod_Minimization_Converged-OPLS-2005>
0

> <r_mmod_RMS_Derivative-OPLS-2005>
1.88346517086029

$$$$
15
                    3D
 Structure written by MMmdl.
159167  0  0  1  0            999 V2000
  -30.7191  -14.4633   20.6019 C   0  0  0  0  0  0
  -30.4234  -12.3038   19.4355 C   0  0  0  0  0  0
  -29.4960  -12.4940   18.2171 C   0  0  0  0  0  0
  -28.0148  -12.3637   18.6261 C   0  0  0  0  0  0
  -27.6610  -13.1920   19.8899 C   0  0  2  0  0  0
  -28.7062  -12.9824   21.0104 C   0  0  0  0  0  0
  -25.2541  -13.8066   20.5674 C   0  0  0  0  0  0
  -24.1803  -13.0373   20.9203 C   0  0  0  0  0  0
  -24.6349  -11.6846   20.8768 C   0  0  0  0  0  0
  -23.9016  -10.4249   21.0430 C   0  0  0  0  0  0
  -24.3579   -9.4167   21.9201 C   0  0  0  0  0  0
  -23.6267   -8.2200   22.0754 C   0  0  0  0  0  0
  -22.4256   -8.0241   21.3535 C   0  0  0  0  0  0
  -21.9884   -9.0208   20.4638 C   0  0  0  0  0  0
  -22.7201  -10.2093   20.3059 C   0  0  0  0  0  0
  -21.6838   -6.0713   22.5274 C   0  0  0  0  0  0
  -21.4002   -6.5633   23.8206 C   0  0  0  0  0  0
  -21.3663   -5.6789   24.9179 C   0  0  0  0  0  0
  -21.6045   -4.3048   24.7235 C   0  0  0  0  0  0
  -21.8821   -3.8131   23.4360 C   0  0  0  0  0  0
  -21.9188   -4.6940   22.3407 C   0  0  0  0  0  0
  -22.7836  -13.5197   21.1860 C   0  0  0  0  0  0
  -22.1655   -4.2122   21.0985 F   0  0  0  0  0  0
  -21.5634   -3.4536   25.7756 F   0  0  0  0  0  0
  -30.0393  -13.2902   20.4593 N   0  0  0  0  0  0
  -26.3001  -12.9228   20.3451 N   0  0  0  0  0  0
  -25.9277  -11.6406   20.5843 N   0  0  0  0  0  0
  -22.0461  -12.8185   22.0408 N   0  0  0  0  0  0
  -25.4155  -15.1766   20.3955 N   0  0  0  0  0  0
  -31.8258  -14.6558   20.0899 O   0  0  0  0  0  0
  -21.6619   -6.8841   21.4232 O   0  0  0  0  0  0
  -22.3537  -14.5505   20.6701 O   0  0  0  0  0  0
  -24.6162  -31.8691   23.2078 C   0  0  0  0  0  0
  -25.9029  -32.4841   23.8401 C   0  0  1  0  0  0
  -27.2441  -27.4341   20.1002 C   0  0  0  0  0  0
  -25.5860  -33.8637   24.2341 N   0  0  0  0  0  0
  -23.4055  -30.4894   21.5514 C   0  0  2  0  0  0
  -24.8513  -28.9564   20.1132 C   0  0  0  0  0  0
  -22.7413  -29.4652   22.5002 C   0  0  0  0  0  0
  -18.0281  -28.1408   22.8518 C   0  0  0  0  0  0
  -24.1479  -36.7310   23.2643 C   0  0  0  0  0  0
  -25.9329  -30.8367   21.3559 C   0  0  0  0  0  0
  -26.0108  -29.4679   20.7084 C   0  0  0  0  0  0
  -27.2104  -28.7165   20.6943 C   0  0  0  0  0  0
  -26.0654  -26.9383   19.4948 C   0  0  0  0  0  0
  -24.8736  -27.6900   19.5009 C   0  0  0  0  0  0
  -23.6134  -29.8261   20.1633 C   0  0  0  0  0  0
  -25.4091  -36.3118   24.0359 C   0  0  1  0  0  0
  -20.5874  -28.3671   23.1346 C   0  0  2  0  0  0
  -20.6796  -26.9414   22.5426 C   0  0  0  0  0  0
  -19.5764  -26.6426   21.5225 C   0  0  0  0  0  0
  -18.1929  -26.7969   22.1626 C   0  0  0  0  0  0
  -19.1534  -28.8858   23.2937 C   0  0  0  0  0  0
  -18.9468  -30.1481   23.8927 C   0  0  0  0  0  0
  -17.6468  -30.6619   24.0587 C   0  0  0  0  0  0
  -25.9030  -34.9493   23.5157 C   0  0  0  0  0  0
  -16.5359  -29.9123   23.6340 C   0  0  0  0  0  0
  -16.7264  -28.6547   23.0332 C   0  0  0  0  0  0
  -26.4439  -31.6599   25.0723 C   0  0  0  0  0  0
  -25.3691  -31.3730   26.1475 C   0  0  0  0  0  0
  -27.0237  -30.3045   24.6037 C   0  0  0  0  0  0
  -27.6050  -32.4272   25.7459 C   0  0  0  0  0  0
  -27.5578  -37.1807   24.8465 C   0  0  0  0  0  0
  -21.4144  -29.3049   22.3756 N   0  0  0  0  0  0
  -26.4277  -37.3793   23.9433 N   0  0  0  0  0  0
  -24.6715  -31.0779   22.0980 N   0  0  0  0  0  0
  -23.4176  -28.8221   23.3065 O   0  0  0  0  0  0
  -28.4155  -26.7023   20.0698 O   0  0  0  0  0  0
  -26.5611  -34.8935   22.4720 O   0  0  0  0  0  0
  -23.5335  -32.1455   23.7445 O   0  0  0  0  0  0
  -29.7995  -19.0740   20.2243 C   0  0  0  0  0  0
  -31.7515  -18.7822   21.6302 C   0  0  0  0  0  0
  -29.4890  -17.6989   20.3617 C   0  0  0  0  0  0
  -30.9306  -19.6369   20.8592 C   0  0  0  0  0  0
  -30.3457  -16.8424   21.1018 C   0  0  0  0  0  0
  -31.4705  -17.4029   21.7511 C   0  0  0  0  0  0
  -29.8269  -23.1302   20.6835 C   0  0  0  0  0  0
  -29.3084  -24.3856   19.8924 C   0  0  0  0  0  0
  -28.4377  -16.4673   18.3886 C   0  0  0  0  0  0
  -28.2088  -17.1801   19.7273 C   0  0  0  0  0  0
  -30.5873  -22.0107   19.9195 C   0  0  0  0  0  0
  -28.3402  -25.3613   20.6056 C   0  0  0  0  0  0
  -30.0546  -15.4491   21.2349 N   0  0  0  0  0  0
  -31.2575  -21.0085   20.7809 N   0  0  0  0  0  0
  -29.6734  -23.0500   21.9117 O   0  0  0  0  0  0
  -29.6704  -24.5918   18.7255 O   0  0  0  0  0  0
  -32.2657  -16.6236   22.5237 F   0  0  0  0  0  0
  -31.4682  -12.4021   19.1349 H   0  0  0  0  0  0
  -30.3259  -11.2936   19.8360 H   0  0  0  0  0  0
  -29.7326  -11.7551   17.4504 H   0  0  0  0  0  0
  -29.6741  -13.4687   17.7625 H   0  0  0  0  0  0
  -27.8150  -11.3074   18.8109 H   0  0  0  0  0  0
  -27.3691  -12.6530   17.7956 H   0  0  0  0  0  0
  -27.6955  -14.2356   19.6013 H   0  0  0  0  0  0
  -28.6859  -11.9474   21.3570 H   0  0  0  0  0  0
  -28.4630  -13.5819   21.8884 H   0  0  0  0  0  0
  -25.2715   -9.5645   22.4787 H   0  0  0  0  0  0
  -23.9969   -7.4594   22.7477 H   0  0  0  0  0  0
  -21.0813   -8.8714   19.8947 H   0  0  0  0  0  0
  -22.3652  -10.9629   19.6169 H   0  0  0  0  0  0
  -21.1977   -7.6139   23.9701 H   0  0  0  0  0  0
  -21.1493   -6.0526   25.9083 H   0  0  0  0  0  0
  -22.0597   -2.7593   23.2868 H   0  0  0  0  0  0
  -22.4053  -11.9818   22.4758 H   0  0  0  0  0  0
  -21.1081  -13.1223   22.2613 H   0  0  0  0  0  0
  -24.6323  -15.8179   20.4649 H   0  0  0  0  0  0
  -26.2377  -15.5959   19.9844 H   0  0  0  0  0  0
  -26.7101  -32.5520   23.1165 H   0  0  0  0  0  0
  -25.0000  -33.9809   25.0486 H   0  0  0  0  0  0
  -22.6994  -31.3096   21.4157 H   0  0  0  0  0  0
  -23.3761  -35.9614   23.3283 H   0  0  0  0  0  0
  -24.3616  -36.8936   22.2062 H   0  0  0  0  0  0
  -23.7205  -37.6501   23.6658 H   0  0  0  0  0  0
  -26.0394  -31.6013   20.5826 H   0  0  0  0  0  0
  -26.8232  -30.8948   21.9700 H   0  0  0  0  0  0
  -28.1073  -29.1216   21.1436 H   0  0  0  0  0  0
  -26.0703  -25.9794   18.9977 H   0  0  0  0  0  0
  -23.9822  -27.3034   19.0238 H   0  0  0  0  0  0
  -23.7244  -30.6101   19.4118 H   0  0  0  0  0  0
  -22.7354  -29.2522   19.8624 H   0  0  0  0  0  0
  -25.1265  -36.1987   25.0852 H   0  0  0  0  0  0
  -20.9970  -28.3216   24.1464 H   0  0  0  0  0  0
  -20.5738  -26.2261   23.3607 H   0  0  0  0  0  0
  -21.6657  -26.7508   22.1168 H   0  0  0  0  0  0
  -19.6922  -25.6343   21.1216 H   0  0  0  0  0  0
  -19.6702  -27.3298   20.6799 H   0  0  0  0  0  0
  -17.4216  -26.6742   21.3995 H   0  0  0  0  0  0
  -18.0316  -26.0115   22.9030 H   0  0  0  0  0  0
  -19.7944  -30.7314   24.2263 H   0  0  0  0  0  0
  -17.5025  -31.6271   24.5238 H   0  0  0  0  0  0
  -15.5357  -30.3044   23.7650 H   0  0  0  0  0  0
  -15.8675  -28.0904   22.6967 H   0  0  0  0  0  0
  -24.5836  -30.7109   25.7819 H   0  0  0  0  0  0
  -24.8909  -32.2901   26.4918 H   0  0  0  0  0  0
  -25.8028  -30.8888   27.0238 H   0  0  0  0  0  0
  -26.2782  -29.6849   24.1045 H   0  0  0  0  0  0
  -27.4015  -29.7208   25.4441 H   0  0  0  0  0  0
  -27.8589  -30.4418   23.9176 H   0  0  0  0  0  0
  -27.2757  -33.3629   26.1986 H   0  0  0  0  0  0
  -28.3866  -32.6723   25.0257 H   0  0  0  0  0  0
  -28.0683  -31.8399   26.5397 H   0  0  0  0  0  0
  -28.2583  -38.0124   24.7555 H   0  0  0  0  0  0
  -28.1098  -36.2663   24.6224 H   0  0  0  0  0  0
  -27.2336  -37.1380   25.8881 H   0  0  0  0  0  0
  -20.9311  -29.8766   21.6974 H   0  0  0  0  0  0
  -26.0173  -38.2864   24.1451 H   0  0  0  0  0  0
  -29.1307  -19.6898   19.6445 H   0  0  0  0  0  0
  -32.6156  -19.1745   22.1490 H   0  0  0  0  0  0
  -27.4956  -16.0854   17.9915 H   0  0  0  0  0  0
  -29.1171  -15.6224   18.4908 H   0  0  0  0  0  0
  -28.8666  -17.1395   17.6461 H   0  0  0  0  0  0
  -27.5174  -18.0095   19.5791 H   0  0  0  0  0  0
  -27.7206  -16.5213   20.4428 H   0  0  0  0  0  0
  -31.3687  -22.5005   19.3353 H   0  0  0  0  0  0
  -29.9238  -21.5510   19.1872 H   0  0  0  0  0  0
  -28.5744  -25.4085   21.6704 H   0  0  0  0  0  0
  -27.3338  -24.9503   20.5257 H   0  0  0  0  0  0
  -29.1427  -15.2042   21.5863 H   0  0  0  0  0  0
  -31.9760  -21.3736   21.4006 H   0  0  0  0  0  0
  1 25  1  0  0  0
  1 30  2  0  0  0
  1 83  1  0  0  0
  2  3  1  0  0  0
  2 25  1  0  0  0
  2 88  1  0  0  0
  2 89  1  0  0  0
  3  4  1  0  0  0
  3 90  1  0  0  0
  3 91  1  0  0  0
  4  5  1  0  0  0
  4 92  1  0  0  0
  4 93  1  0  0  0
  5  6  1  0  0  0
  5 26  1  0  0  0
  5 94  1  0  0  0
  6 25  1  0  0  0
  6 95  1  0  0  0
  6 96  1  0  0  0
  7  8  2  0  0  0
  7 26  1  0  0  0
  7 29  1  0  0  0
  8  9  1  0  0  0
  8 22  1  0  0  0
  9 10  1  0  0  0
  9 27  2  0  0  0
 10 11  2  0  0  0
 10 15  1  0  0  0
 11 12  1  0  0  0
 11 97  1  0  0  0
 12 13  2  0  0  0
 12 98  1  0  0  0
 13 14  1  0  0  0
 13 31  1  0  0  0
 14 15  2  0  0  0
 14 99  1  0  0  0
 15100  1  0  0  0
 16 17  2  0  0  0
 16 21  1  0  0  0
 16 31  1  0  0  0
 17 18  1  0  0  0
 17101  1  0  0  0
 18 19  2  0  0  0
 18102  1  0  0  0
 19 20  1  0  0  0
 19 24  1  0  0  0
 20 21  2  0  0  0
 20103  1  0  0  0
 21 23  1  0  0  0
 22 28  1  0  0  0
 22 32  2  0  0  0
 26 27  1  0  0  0
 28104  1  0  0  0
 28105  1  0  0  0
 29106  1  0  0  0
 29107  1  0  0  0
 33 34  1  0  0  0
 33 66  1  0  0  0
 33 70  2  0  0  0
 34 36  1  0  0  0
 34 59  1  0  0  0
 34108  1  0  0  0
 35 44  2  0  0  0
 35 45  1  0  0  0
 35 68  1  0  0  0
 36 56  1  0  0  0
 36109  1  0  0  0
 37 39  1  0  0  0
 37 47  1  0  0  0
 37 66  1  0  0  0
 37110  1  0  0  0
 38 43  2  0  0  0
 38 46  1  0  0  0
 38 47  1  0  0  0
 39 64  1  0  0  0
 39 67  2  0  0  0
 40 52  1  0  0  0
 40 53  2  0  0  0
 40 58  1  0  0  0
 41111  1  0  0  0
 41112  1  0  0  0
 41113  1  0  0  0
 41 48  1  0  0  0
 42 43  1  0  0  0
 42 66  1  0  0  0
 42114  1  0  0  0
 42115  1  0  0  0
 43 44  1  0  0  0
 44116  1  0  0  0
 45 46  2  0  0  0
 45117  1  0  0  0
 46118  1  0  0  0
 47119  1  0  0  0
 47120  1  0  0  0
 48 56  1  0  0  0
 48 65  1  0  0  0
 48121  1  0  0  0
 49 50  1  0  0  0
 49 53  1  0  0  0
 49 64  1  0  0  0
 49122  1  0  0  0
 50 51  1  0  0  0
 50123  1  0  0  0
 50124  1  0  0  0
 51 52  1  0  0  0
 51125  1  0  0  0
 51126  1  0  0  0
 52127  1  0  0  0
 52128  1  0  0  0
 53 54  1  0  0  0
 54 55  2  0  0  0
 54129  1  0  0  0
 55 57  1  0  0  0
 55130  1  0  0  0
 56 69  2  0  0  0
 57 58  2  0  0  0
 57131  1  0  0  0
 58132  1  0  0  0
 59 60  1  0  0  0
 59 61  1  0  0  0
 59 62  1  0  0  0
 60133  1  0  0  0
 60134  1  0  0  0
 60135  1  0  0  0
 61136  1  0  0  0
 61137  1  0  0  0
 61138  1  0  0  0
 62139  1  0  0  0
 62140  1  0  0  0
 62141  1  0  0  0
 63 65  1  0  0  0
 63142  1  0  0  0
 63143  1  0  0  0
 63144  1  0  0  0
 64145  1  0  0  0
 65146  1  0  0  0
 68 82  1  0  0  0
 71 73  2  0  0  0
 71 74  1  0  0  0
 71147  1  0  0  0
 72 74  2  0  0  0
 72 76  1  0  0  0
 72148  1  0  0  0
 73 75  1  0  0  0
 73 80  1  0  0  0
 74 84  1  0  0  0
 75 76  2  0  0  0
 75 83  1  0  0  0
 76 87  1  0  0  0
 77 78  1  0  0  0
 77 81  1  0  0  0
 77 85  2  0  0  0
 78 82  1  0  0  0
 78 86  2  0  0  0
 79 80  1  0  0  0
 79149  1  0  0  0
 79150  1  0  0  0
 79151  1  0  0  0
 80152  1  0  0  0
 80153  1  0  0  0
 81 84  1  0  0  0
 81154  1  0  0  0
 81155  1  0  0  0
 82156  1  0  0  0
 82157  1  0  0  0
 83158  1  0  0  0
 84159  1  0  0  0
M  ISO  4   1 100  68 101  82 101  83 100
M  END
> <chiral flag>
0

> <version>
0

> <s_m_source_file>
/data/baiqing/PycharmProjects/Reinvent-master-3.2/result/LINK_invent/BTK/process_docking_weight1_custom_product_contain_oxygen_bond_distance_aromatic_linkinvent_7_9_3/rearranged_h_0168.sdf

> <i_m_source_file_index>
16

> <r_mmod_Potential_Energy-OPLS-2005>
20.2717952728271

> <r_mmod_Stretch_Energy-OPLS-2005>
44.5710372924805

> <r_mmod_Bend_Energy-OPLS-2005>
107.501098632812

> <r_mmod_Torsional_Energy-OPLS-2005>
238.993270874023

> <r_mmod_Improper_Torsional_Energy-OPLS-2005>
4.48601722717285

> <r_mmod_Van_der_Waal_Energy-OPLS-2005>
142.456100463867

> <r_mmod_Electrostatic_Energy-OPLS-2005>
-283.887481689453

> <r_mmod_Solvation_Energy-OPLS-2005>
-245.238006591797

> <b_mmod_Minimization_Converged-OPLS-2005>
0

> <r_mmod_RMS_Derivative-OPLS-2005>
3.88890790939331

$$$$
16
                    3D
 Structure written by MMmdl.
165173  0  0  1  0            999 V2000
  -30.7731  -14.3167   20.7239 C   0  0  0  0  0  0
  -30.4222  -12.2876   19.3590 C   0  0  0  0  0  0
  -29.4738  -12.5422   18.1733 C   0  0  0  0  0  0
  -28.0017  -12.3913   18.5986 C   0  0  0  0  0  0
  -27.6701  -13.1976   19.8795 C   0  0  2  0  0  0
  -28.7102  -12.9068   20.9820 C   0  0  0  0  0  0
  -25.2627  -13.8148   20.5665 C   0  0  0  0  0  0
  -24.1856  -13.0433   20.9147 C   0  0  0  0  0  0
  -24.6397  -11.6901   20.8717 C   0  0  0  0  0  0
  -23.9063  -10.4290   21.0399 C   0  0  0  0  0  0
  -24.3615   -9.4206   21.9180 C   0  0  0  0  0  0
  -23.6286   -8.2242   22.0753 C   0  0  0  0  0  0
  -22.4272   -8.0280   21.3542 C   0  0  0  0  0  0
  -21.9906   -9.0254   20.4649 C   0  0  0  0  0  0
  -22.7235  -10.2131   20.3052 C   0  0  0  0  0  0
  -21.6855   -6.0733   22.5277 C   0  0  0  0  0  0
  -21.4016   -6.5636   23.8209 C   0  0  0  0  0  0
  -21.3660   -5.6789   24.9169 C   0  0  0  0  0  0
  -21.6044   -4.3053   24.7223 C   0  0  0  0  0  0
  -21.8822   -3.8145   23.4346 C   0  0  0  0  0  0
  -21.9193   -4.6960   22.3402 C   0  0  0  0  0  0
  -22.7884  -13.5242   21.1824 C   0  0  0  0  0  0
  -22.1661   -4.2145   21.0980 F   0  0  0  0  0  0
  -21.5631   -3.4538   25.7737 F   0  0  0  0  0  0
  -30.0626  -13.1937   20.4558 N   0  0  0  0  0  0
  -26.3067  -12.9304   20.3382 N   0  0  0  0  0  0
  -25.9322  -11.6470   20.5749 N   0  0  0  0  0  0
  -22.0529  -12.8227   22.0390 N   0  0  0  0  0  0
  -25.4366  -15.1857   20.4072 N   0  0  0  0  0  0
  -31.7138  -14.7255   20.0338 O   0  0  0  0  0  0
  -21.6637   -6.8878   21.4241 O   0  0  0  0  0  0
  -22.3562  -14.5548   20.6688 O   0  0  0  0  0  0
  -24.6121  -31.8696   23.2108 C   0  0  0  0  0  0
  -25.9029  -32.4822   23.8395 C   0  0  1  0  0  0
  -27.2389  -27.4626   20.0810 C   0  0  0  0  0  0
  -25.5899  -33.8616   24.2328 N   0  0  0  0  0  0
  -23.3992  -30.4919   21.5528 C   0  0  2  0  0  0
  -24.8448  -28.9608   20.1149 C   0  0  0  0  0  0
  -22.7388  -29.4658   22.5009 C   0  0  0  0  0  0
  -18.0274  -28.1359   22.8480 C   0  0  0  0  0  0
  -24.1492  -36.7325   23.2635 C   0  0  0  0  0  0
  -25.9247  -30.8420   21.3585 C   0  0  0  0  0  0
  -26.0050  -29.4787   20.7058 C   0  0  0  0  0  0
  -27.2072  -28.7380   20.6841 C   0  0  0  0  0  0
  -26.0617  -26.9542   19.4861 C   0  0  0  0  0  0
  -24.8662  -27.6949   19.5051 C   0  0  0  0  0  0
  -23.6070  -29.8265   20.1655 C   0  0  0  0  0  0
  -25.4105  -36.3107   24.0343 C   0  0  1  0  0  0
  -20.5857  -28.3649   23.1308 C   0  0  2  0  0  0
  -20.6770  -26.9386   22.5411 C   0  0  0  0  0  0
  -19.5755  -26.6371   21.5196 C   0  0  0  0  0  0
  -18.1930  -26.7902   22.1605 C   0  0  0  0  0  0
  -19.1523  -28.8818   23.2891 C   0  0  0  0  0  0
  -18.9460  -30.1426   23.8898 C   0  0  0  0  0  0
  -17.6466  -30.6573   24.0562 C   0  0  0  0  0  0
  -25.9035  -34.9473   23.5124 C   0  0  0  0  0  0
  -16.5356  -29.9085   23.6317 C   0  0  0  0  0  0
  -16.7266  -28.6499   23.0339 C   0  0  0  0  0  0
  -26.4469  -31.6593   25.0719 C   0  0  0  0  0  0
  -25.3750  -31.3710   26.1475 C   0  0  0  0  0  0
  -27.0297  -30.3044   24.6066 C   0  0  0  0  0  0
  -27.6036  -32.4319   25.7487 C   0  0  0  0  0  0
  -27.5576  -37.1806   24.8464 C   0  0  0  0  0  0
  -21.4125  -29.3027   22.3735 N   0  0  0  0  0  0
  -26.4289  -37.3787   23.9411 N   0  0  0  0  0  0
  -24.6641  -31.0800   22.1011 N   0  0  0  0  0  0
  -23.4151  -28.8195   23.3056 O   0  0  0  0  0  0
  -28.4130  -26.7466   20.0453 O   0  0  0  0  0  0
  -26.5592  -34.8925   22.4687 O   0  0  0  0  0  0
  -23.5324  -32.1486   23.7497 O   0  0  0  0  0  0
  -30.3686  -18.7099   23.5535 C   0  0  0  0  0  0
  -30.8455  -17.2925   21.6282 C   0  0  0  0  0  0
  -30.0293  -17.5792   24.3342 C   0  0  0  0  0  0
  -30.7541  -18.5823   22.1984 C   0  0  0  0  0  0
  -30.5106  -16.1530   22.4003 C   0  0  0  0  0  0
  -30.0920  -16.3019   23.7340 C   0  0  0  0  0  0
  -29.5891  -17.7329   25.7526 C   0  0  0  0  0  0
  -30.2999  -22.0150   20.6698 C   0  0  0  0  0  0
  -29.7115  -19.1154   26.3833 C   0  0  0  0  0  0
  -30.8682  -25.1535   20.4311 C   0  0  0  0  0  0
  -29.3134  -23.1600   20.9420 C   0  0  0  0  0  0
  -30.4418  -20.9981   21.8085 C   0  0  0  0  0  0
  -28.3457  -25.4489   20.6446 C   0  0  0  0  0  0
  -29.4880  -24.5091   20.1959 C   0  0  1  0  0  0
  -30.4901  -14.8196   21.9257 N   0  0  0  0  0  0
  -31.0296  -19.7144   21.4113 N   0  0  0  0  0  0
  -29.1380  -16.8179   26.4472 O   0  0  0  0  0  0
  -30.9121  -21.8765   19.6052 O   0  0  0  0  0  0
  -29.7461  -15.1804   24.4175 F   0  0  0  0  0  0
  -29.3474  -24.2978   18.8852 F   0  0  0  0  0  0
  -31.4602  -12.4134   19.0447 H   0  0  0  0  0  0
  -30.3392  -11.2539   19.6977 H   0  0  0  0  0  0
  -29.6981  -11.8551   17.3559 H   0  0  0  0  0  0
  -29.6393  -13.5476   17.7830 H   0  0  0  0  0  0
  -27.8059  -11.3312   18.7648 H   0  0  0  0  0  0
  -27.3440  -12.6970   17.7848 H   0  0  0  0  0  0
  -27.7374  -14.2562   19.6273 H   0  0  0  0  0  0
  -28.6628  -11.8566   21.2733 H   0  0  0  0  0  0
  -28.4487  -13.4665   21.8799 H   0  0  0  0  0  0
  -25.2762   -9.5676   22.4743 H   0  0  0  0  0  0
  -24.0000   -7.4633   22.7461 H   0  0  0  0  0  0
  -21.0842   -8.8775   19.8946 H   0  0  0  0  0  0
  -22.3702  -10.9670   19.6154 H   0  0  0  0  0  0
  -21.2011   -7.6143   23.9714 H   0  0  0  0  0  0
  -21.1478   -6.0518   25.9074 H   0  0  0  0  0  0
  -22.0602   -2.7607   23.2847 H   0  0  0  0  0  0
  -22.4152  -11.9884   22.4768 H   0  0  0  0  0  0
  -21.1146  -13.1245   22.2615 H   0  0  0  0  0  0
  -24.6763  -15.8482   20.5180 H   0  0  0  0  0  0
  -26.3024  -15.6215   20.1137 H   0  0  0  0  0  0
  -26.7097  -32.5574   23.1161 H   0  0  0  0  0  0
  -25.0044  -33.9788   25.0466 H   0  0  0  0  0  0
  -22.6878  -31.3093   21.4145 H   0  0  0  0  0  0
  -23.3743  -35.9663   23.3324 H   0  0  0  0  0  0
  -24.3586  -36.8934   22.2041 H   0  0  0  0  0  0
  -23.7265  -37.6546   23.6647 H   0  0  0  0  0  0
  -26.0310  -31.6058   20.5870 H   0  0  0  0  0  0
  -26.8131  -30.8992   21.9746 H   0  0  0  0  0  0
  -28.1067  -29.1379   21.1325 H   0  0  0  0  0  0
  -26.0697  -25.9931   18.9916 H   0  0  0  0  0  0
  -23.9766  -27.2915   19.0411 H   0  0  0  0  0  0
  -23.7146  -30.6043   19.4066 H   0  0  0  0  0  0
  -22.7303  -29.2466   19.8713 H   0  0  0  0  0  0
  -25.1278  -36.1965   25.0835 H   0  0  0  0  0  0
  -20.9964  -28.3215   24.1421 H   0  0  0  0  0  0
  -20.5671  -26.2258   23.3603 H   0  0  0  0  0  0
  -21.6647  -26.7423   22.1206 H   0  0  0  0  0  0
  -19.6925  -25.6282   21.1223 H   0  0  0  0  0  0
  -19.6700  -27.3180   20.6720 H   0  0  0  0  0  0
  -17.4201  -26.6642   21.4008 H   0  0  0  0  0  0
  -18.0340  -26.0029   22.8989 H   0  0  0  0  0  0
  -19.7952  -30.7223   24.2279 H   0  0  0  0  0  0
  -17.5039  -31.6258   24.5156 H   0  0  0  0  0  0
  -15.5369  -30.2992   23.7631 H   0  0  0  0  0  0
  -15.8663  -28.0828   22.7034 H   0  0  0  0  0  0
  -24.5911  -30.7060   25.7838 H   0  0  0  0  0  0
  -24.8960  -32.2885   26.4901 H   0  0  0  0  0  0
  -25.8110  -30.8897   27.0238 H   0  0  0  0  0  0
  -26.2824  -29.6808   24.1136 H   0  0  0  0  0  0
  -27.4127  -29.7254   25.4484 H   0  0  0  0  0  0
  -27.8633  -30.4415   23.9172 H   0  0  0  0  0  0
  -27.2648  -33.3601   26.2089 H   0  0  0  0  0  0
  -28.3833  -32.6907   25.0324 H   0  0  0  0  0  0
  -28.0714  -31.8442   26.5399 H   0  0  0  0  0  0
  -28.2581  -38.0105   24.7499 H   0  0  0  0  0  0
  -28.1078  -36.2635   24.6294 H   0  0  0  0  0  0
  -27.2305  -37.1480   25.8870 H   0  0  0  0  0  0
  -20.9270  -29.8768   21.6993 H   0  0  0  0  0  0
  -26.0180  -38.2863   24.1406 H   0  0  0  0  0  0
  -30.3190  -19.6917   23.9975 H   0  0  0  0  0  0
  -31.1429  -17.1817   20.5957 H   0  0  0  0  0  0
  -30.7337  -19.4815   26.2897 H   0  0  0  0  0  0
  -29.4569  -19.0801   27.4416 H   0  0  0  0  0  0
  -29.0375  -19.8157   25.8909 H   0  0  0  0  0  0
  -30.9528  -26.0989   19.8963 H   0  0  0  0  0  0
  -31.6786  -24.5128   20.0829 H   0  0  0  0  0  0
  -31.0436  -25.3580   21.4876 H   0  0  0  0  0  0
  -29.3252  -23.3484   22.0147 H   0  0  0  0  0  0
  -28.3219  -22.7668   20.7199 H   0  0  0  0  0  0
  -29.4437  -20.8404   22.2205 H   0  0  0  0  0  0
  -31.0495  -21.4507   22.5926 H   0  0  0  0  0  0
  -27.3916  -24.9585   20.4507 H   0  0  0  0  0  0
  -28.3973  -25.5861   21.7252 H   0  0  0  0  0  0
  -29.9573  -14.1933   22.5136 H   0  0  0  0  0  0
  -31.1647  -19.6000   20.4086 H   0  0  0  0  0  0
  1 25  1  0  0  0
  1 30  2  0  0  0
  1 85  1  0  0  0
  2  3  1  0  0  0
  2 25  1  0  0  0
  2 91  1  0  0  0
  2 92  1  0  0  0
  3  4  1  0  0  0
  3 93  1  0  0  0
  3 94  1  0  0  0
  4  5  1  0  0  0
  4 95  1  0  0  0
  4 96  1  0  0  0
  5  6  1  0  0  0
  5 26  1  0  0  0
  5 97  1  0  0  0
  6 25  1  0  0  0
  6 98  1  0  0  0
  6 99  1  0  0  0
  7  8  2  0  0  0
  7 26  1  0  0  0
  7 29  1  0  0  0
  8  9  1  0  0  0
  8 22  1  0  0  0
  9 10  1  0  0  0
  9 27  2  0  0  0
 10 11  2  0  0  0
 10 15  1  0  0  0
 11 12  1  0  0  0
 11100  1  0  0  0
 12 13  2  0  0  0
 12101  1  0  0  0
 13 14  1  0  0  0
 13 31  1  0  0  0
 14 15  2  0  0  0
 14102  1  0  0  0
 15103  1  0  0  0
 16 17  2  0  0  0
 16 21  1  0  0  0
 16 31  1  0  0  0
 17 18  1  0  0  0
 17104  1  0  0  0
 18 19  2  0  0  0
 18105  1  0  0  0
 19 20  1  0  0  0
 19 24  1  0  0  0
 20 21  2  0  0  0
 20106  1  0  0  0
 21 23  1  0  0  0
 22 28  1  0  0  0
 22 32  2  0  0  0
 26 27  1  0  0  0
 28107  1  0  0  0
 28108  1  0  0  0
 29109  1  0  0  0
 29110  1  0  0  0
 33 34  1  0  0  0
 33 66  1  0  0  0
 33 70  2  0  0  0
 34 36  1  0  0  0
 34 59  1  0  0  0
 34111  1  0  0  0
 35 44  2  0  0  0
 35 45  1  0  0  0
 35 68  1  0  0  0
 36 56  1  0  0  0
 36112  1  0  0  0
 37 39  1  0  0  0
 37 47  1  0  0  0
 37 66  1  0  0  0
 37113  1  0  0  0
 38 43  2  0  0  0
 38 46  1  0  0  0
 38 47  1  0  0  0
 39 64  1  0  0  0
 39 67  2  0  0  0
 40 52  1  0  0  0
 40 53  2  0  0  0
 40 58  1  0  0  0
 41114  1  0  0  0
 41115  1  0  0  0
 41116  1  0  0  0
 41 48  1  0  0  0
 42 43  1  0  0  0
 42 66  1  0  0  0
 42117  1  0  0  0
 42118  1  0  0  0
 43 44  1  0  0  0
 44119  1  0  0  0
 45 46  2  0  0  0
 45120  1  0  0  0
 46121  1  0  0  0
 47122  1  0  0  0
 47123  1  0  0  0
 48 56  1  0  0  0
 48 65  1  0  0  0
 48124  1  0  0  0
 49 50  1  0  0  0
 49 53  1  0  0  0
 49 64  1  0  0  0
 49125  1  0  0  0
 50 51  1  0  0  0
 50126  1  0  0  0
 50127  1  0  0  0
 51 52  1  0  0  0
 51128  1  0  0  0
 51129  1  0  0  0
 52130  1  0  0  0
 52131  1  0  0  0
 53 54  1  0  0  0
 54 55  2  0  0  0
 54132  1  0  0  0
 55 57  1  0  0  0
 55133  1  0  0  0
 56 69  2  0  0  0
 57 58  2  0  0  0
 57134  1  0  0  0
 58135  1  0  0  0
 59 60  1  0  0  0
 59 61  1  0  0  0
 59 62  1  0  0  0
 60136  1  0  0  0
 60137  1  0  0  0
 60138  1  0  0  0
 61139  1  0  0  0
 61140  1  0  0  0
 61141  1  0  0  0
 62142  1  0  0  0
 62143  1  0  0  0
 62144  1  0  0  0
 63 65  1  0  0  0
 63145  1  0  0  0
 63146  1  0  0  0
 63147  1  0  0  0
 64148  1  0  0  0
 65149  1  0  0  0
 68 83  1  0  0  0
 71 73  2  0  0  0
 71 74  1  0  0  0
 71150  1  0  0  0
 72 74  2  0  0  0
 72 75  1  0  0  0
 72151  1  0  0  0
 73 76  1  0  0  0
 73 77  1  0  0  0
 74 86  1  0  0  0
 75 76  2  0  0  0
 75 85  1  0  0  0
 76 89  1  0  0  0
 77 79  1  0  0  0
 77 87  2  0  0  0
 78 81  1  0  0  0
 78 82  1  0  0  0
 78 88  2  0  0  0
 79152  1  0  0  0
 79153  1  0  0  0
 79154  1  0  0  0
 80155  1  0  0  0
 80156  1  0  0  0
 80157  1  0  0  0
 80 84  1  0  0  0
 81 84  1  0  0  0
 81158  1  0  0  0
 81159  1  0  0  0
 82 86  1  0  0  0
 82160  1  0  0  0
 82161  1  0  0  0
 83 84  1  0  0  0
 83162  1  0  0  0
 83163  1  0  0  0
 84 90  1  0  0  0
 85164  1  0  0  0
 86165  1  0  0  0
M  ISO  4   1 100  68 101  83 101  85 100
M  END
> <chiral flag>
0

> <version>
0

> <s_m_source_file>
/data/baiqing/PycharmProjects/Reinvent-master-3.2/result/LINK_invent/BTK/process_docking_weight1_custom_product_contain_oxygen_bond_distance_aromatic_linkinvent_7_9_3/rearranged_h_0168.sdf

> <i_m_source_file_index>
17

> <r_mmod_Potential_Energy-OPLS-2005>
-135.61882019043

> <r_mmod_Stretch_Energy-OPLS-2005>
34.8308258056641

> <r_mmod_Bend_Energy-OPLS-2005>
111.873489379883

> <r_mmod_Torsional_Energy-OPLS-2005>
229.948272705078

> <r_mmod_Improper_Torsional_Energy-OPLS-2005>
7.71968841552734

> <r_mmod_Van_der_Waal_Energy-OPLS-2005>
168.33039855957

> <r_mmod_Electrostatic_Energy-OPLS-2005>
-451.410217285156

> <r_mmod_Solvation_Energy-OPLS-2005>
-245.420349121094

> <b_mmod_Minimization_Converged-OPLS-2005>
0

> <r_mmod_RMS_Derivative-OPLS-2005>
2.33219337463379

$$$$
17
                    3D
 Structure written by MMmdl.
160168  0  0  1  0            999 V2000
  -30.7191  -14.5151   20.5672 C   0  0  0  0  0  0
  -30.4139  -12.3323   19.4446 C   0  0  0  0  0  0
  -29.4935  -12.5055   18.2193 C   0  0  0  0  0  0
  -28.0175  -12.3607   18.6316 C   0  0  0  0  0  0
  -27.6558  -13.2189   19.8736 C   0  0  2  0  0  0
  -28.6982  -13.0487   21.0039 C   0  0  0  0  0  0
  -25.2510  -13.8163   20.5610 C   0  0  0  0  0  0
  -24.1818  -13.0427   20.9211 C   0  0  0  0  0  0
  -24.6411  -11.6912   20.8788 C   0  0  0  0  0  0
  -23.9088  -10.4286   21.0439 C   0  0  0  0  0  0
  -24.3627   -9.4196   21.9212 C   0  0  0  0  0  0
  -23.6294   -8.2238   22.0772 C   0  0  0  0  0  0
  -22.4280   -8.0286   21.3552 C   0  0  0  0  0  0
  -21.9923   -9.0268   20.4660 C   0  0  0  0  0  0
  -22.7265  -10.2142   20.3079 C   0  0  0  0  0  0
  -21.6848   -6.0739   22.5280 C   0  0  0  0  0  0
  -21.4010   -6.5643   23.8215 C   0  0  0  0  0  0
  -21.3657   -5.6797   24.9178 C   0  0  0  0  0  0
  -21.6046   -4.3058   24.7224 C   0  0  0  0  0  0
  -21.8819   -3.8153   23.4346 C   0  0  0  0  0  0
  -21.9190   -4.6968   22.3402 C   0  0  0  0  0  0
  -22.7840  -13.5221   21.1856 C   0  0  0  0  0  0
  -22.1661   -4.2158   21.0981 F   0  0  0  0  0  0
  -21.5628   -3.4542   25.7739 F   0  0  0  0  0  0
  -30.0255  -13.3458   20.4442 N   0  0  0  0  0  0
  -26.2987  -12.9382   20.3363 N   0  0  0  0  0  0
  -25.9343  -11.6533   20.5830 N   0  0  0  0  0  0
  -22.0476  -12.8217   22.0412 N   0  0  0  0  0  0
  -25.4094  -15.1852   20.3780 N   0  0  0  0  0  0
  -31.8433  -14.6431   20.0771 O   0  0  0  0  0  0
  -21.6637   -6.8887   21.4245 O   0  0  0  0  0  0
  -22.3534  -14.5533   20.6713 O   0  0  0  0  0  0
  -24.6161  -31.8669   23.2089 C   0  0  0  0  0  0
  -25.9047  -32.4814   23.8394 C   0  0  1  0  0  0
  -27.2278  -27.4135   20.1054 C   0  0  0  0  0  0
  -25.5899  -33.8615   24.2319 N   0  0  0  0  0  0
  -23.4048  -30.4913   21.5497 C   0  0  2  0  0  0
  -24.8530  -28.9566   20.1109 C   0  0  0  0  0  0
  -22.7411  -29.4667   22.4983 C   0  0  0  0  0  0
  -18.0273  -28.1380   22.8497 C   0  0  0  0  0  0
  -24.1483  -36.7312   23.2639 C   0  0  0  0  0  0
  -25.9359  -30.8272   21.3642 C   0  0  0  0  0  0
  -26.0153  -29.4608   20.7097 C   0  0  0  0  0  0
  -27.2097  -28.6980   20.7019 C   0  0  0  0  0  0
  -26.0524  -26.9328   19.4908 C   0  0  0  0  0  0
  -24.8679  -27.6929   19.4955 C   0  0  0  0  0  0
  -23.6137  -29.8242   20.1643 C   0  0  0  0  0  0
  -25.4106  -36.3105   24.0338 C   0  0  1  0  0  0
  -20.5865  -28.3680   23.1308 C   0  0  2  0  0  0
  -20.6767  -26.9416   22.5414 C   0  0  0  0  0  0
  -19.5750  -26.6390   21.5211 C   0  0  0  0  0  0
  -18.1923  -26.7929   22.1615 C   0  0  0  0  0  0
  -19.1522  -28.8843   23.2898 C   0  0  0  0  0  0
  -18.9456  -30.1445   23.8916 C   0  0  0  0  0  0
  -17.6462  -30.6591   24.0569 C   0  0  0  0  0  0
  -25.9043  -34.9471   23.5126 C   0  0  0  0  0  0
  -16.5353  -29.9095   23.6329 C   0  0  0  0  0  0
  -16.7262  -28.6505   23.0361 C   0  0  0  0  0  0
  -26.4477  -31.6598   25.0722 C   0  0  0  0  0  0
  -25.3741  -31.3689   26.1461 C   0  0  0  0  0  0
  -27.0328  -30.3044   24.6108 C   0  0  0  0  0  0
  -27.6048  -32.4322   25.7489 C   0  0  0  0  0  0
  -27.5585  -37.1796   24.8457 C   0  0  0  0  0  0
  -21.4138  -29.3039   22.3705 N   0  0  0  0  0  0
  -26.4286  -37.3798   23.9422 N   0  0  0  0  0  0
  -24.6705  -31.0762   22.0992 N   0  0  0  0  0  0
  -23.4168  -28.8218   23.3045 O   0  0  0  0  0  0
  -28.3455  -26.6009   20.1343 O   0  0  0  0  0  0
  -26.5616  -34.8919   22.4694 O   0  0  0  0  0  0
  -23.5351  -32.1434   23.7468 O   0  0  0  0  0  0
  -31.6007  -19.5977   21.2922 C   0  0  0  0  0  0
  -31.8980  -17.1934   21.4618 C   0  0  0  0  0  0
  -29.6567  -18.1119   21.0957 C   0  0  0  0  0  0
  -30.2089  -19.4488   21.0817 C   0  0  0  0  0  0
  -30.5230  -16.9582   21.2142 C   0  0  0  0  0  0
  -32.4308  -18.4885   21.4963 C   0  0  0  0  0  0
  -29.0515  -24.2371   20.7065 C   0  0  0  0  0  0
  -28.1792  -17.9351   20.9557 C   0  0  0  0  0  0
  -28.6862  -22.9194   20.7490 C   0  0  0  0  0  0
  -29.7203  -21.8890   20.5092 C   0  0  0  0  0  0
  -27.4953  -17.0966   22.0296 C   0  0  0  0  0  0
  -27.2635  -22.4552   21.0596 C   0  0  0  0  0  0
  -28.1967  -25.4767   21.0337 C   0  0  0  0  0  0
  -29.3926  -20.6482   20.9655 N   0  0  0  0  0  0
  -30.0634  -15.5750   21.1177 N   0  0  0  0  0  0
  -27.4942  -18.4833   20.0883 O   0  0  0  0  0  0
  -30.7838  -22.1153   19.9256 O   0  0  0  0  0  0
  -33.7534  -18.6685   21.7284 F   0  0  0  0  0  0
  -31.4601  -12.4121   19.1440 H   0  0  0  0  0  0
  -30.3070  -11.3320   19.8666 H   0  0  0  0  0  0
  -29.7398  -11.7689   17.4535 H   0  0  0  0  0  0
  -29.6567  -13.4849   17.7672 H   0  0  0  0  0  0
  -27.8372  -11.3066   18.8461 H   0  0  0  0  0  0
  -27.3654  -12.6153   17.7955 H   0  0  0  0  0  0
  -27.6861  -14.2605   19.5527 H   0  0  0  0  0  0
  -28.6816  -12.0281   21.3887 H   0  0  0  0  0  0
  -28.4578  -13.6869   21.8551 H   0  0  0  0  0  0
  -25.2763   -9.5662   22.4797 H   0  0  0  0  0  0
  -23.9994   -7.4625   22.7491 H   0  0  0  0  0  0
  -21.0856   -8.8803   19.8956 H   0  0  0  0  0  0
  -22.3739  -10.9693   19.6193 H   0  0  0  0  0  0
  -21.2005   -7.6153   23.9722 H   0  0  0  0  0  0
  -21.1477   -6.0525   25.9079 H   0  0  0  0  0  0
  -22.0597   -2.7615   23.2848 H   0  0  0  0  0  0
  -22.4081  -11.9854   22.4764 H   0  0  0  0  0  0
  -21.1105  -13.1268   22.2634 H   0  0  0  0  0  0
  -24.6161  -15.8132   20.4393 H   0  0  0  0  0  0
  -26.2051  -15.6009   19.9141 H   0  0  0  0  0  0
  -26.7122  -32.5520   23.1161 H   0  0  0  0  0  0
  -25.0036  -33.9791   25.0454 H   0  0  0  0  0  0
  -22.6933  -31.3081   21.4114 H   0  0  0  0  0  0
  -23.3749  -35.9638   23.3282 H   0  0  0  0  0  0
  -24.3582  -36.8956   22.2059 H   0  0  0  0  0  0
  -23.7221  -37.6500   23.6676 H   0  0  0  0  0  0
  -26.0474  -31.5917   20.5938 H   0  0  0  0  0  0
  -26.8230  -30.8824   21.9833 H   0  0  0  0  0  0
  -28.1031  -29.0803   21.1753 H   0  0  0  0  0  0
  -26.0497  -25.9572   19.0247 H   0  0  0  0  0  0
  -23.9744  -27.2994   19.0308 H   0  0  0  0  0  0
  -23.7166  -30.6000   19.4047 H   0  0  0  0  0  0
  -22.7372  -29.2440   19.8709 H   0  0  0  0  0  0
  -25.1278  -36.1964   25.0827 H   0  0  0  0  0  0
  -20.9961  -28.3259   24.1424 H   0  0  0  0  0  0
  -20.5673  -26.2301   23.3611 H   0  0  0  0  0  0
  -21.6642  -26.7455   22.1216 H   0  0  0  0  0  0
  -19.6924  -25.6300   21.1241 H   0  0  0  0  0  0
  -19.6696  -27.3199   20.6737 H   0  0  0  0  0  0
  -17.4202  -26.6689   21.4004 H   0  0  0  0  0  0
  -18.0318  -26.0056   22.8995 H   0  0  0  0  0  0
  -19.7933  -30.7247   24.2307 H   0  0  0  0  0  0
  -17.5022  -31.6275   24.5166 H   0  0  0  0  0  0
  -15.5357  -30.3010   23.7645 H   0  0  0  0  0  0
  -15.8660  -28.0828   22.7088 H   0  0  0  0  0  0
  -24.5938  -30.7014   25.7789 H   0  0  0  0  0  0
  -24.8903  -32.2834   26.4901 H   0  0  0  0  0  0
  -25.8096  -30.8868   27.0223 H   0  0  0  0  0  0
  -26.2881  -29.6782   24.1178 H   0  0  0  0  0  0
  -27.4126  -29.7301   25.4566 H   0  0  0  0  0  0
  -27.8696  -30.4377   23.9246 H   0  0  0  0  0  0
  -27.2674  -33.3627   26.2071 H   0  0  0  0  0  0
  -28.3855  -32.6876   25.0311 H   0  0  0  0  0  0
  -28.0717  -31.8441   26.5401 H   0  0  0  0  0  0
  -28.2566  -38.0130   24.7562 H   0  0  0  0  0  0
  -28.1120  -36.2664   24.6207 H   0  0  0  0  0  0
  -27.2316  -37.1353   25.8861 H   0  0  0  0  0  0
  -20.9302  -29.8752   21.6916 H   0  0  0  0  0  0
  -26.0167  -38.2866   24.1454 H   0  0  0  0  0  0
  -32.0614  -20.5722   21.3419 H   0  0  0  0  0  0
  -32.5842  -16.3771   21.6302 H   0  0  0  0  0  0
  -30.0761  -24.4824   20.4630 H   0  0  0  0  0  0
  -27.9739  -17.2514   22.9960 H   0  0  0  0  0  0
  -27.5386  -16.0376   21.7858 H   0  0  0  0  0  0
  -26.4473  -17.3803   22.1196 H   0  0  0  0  0  0
  -26.9781  -21.6256   20.4104 H   0  0  0  0  0  0
  -26.5167  -23.2269   20.8932 H   0  0  0  0  0  0
  -27.1827  -22.1262   22.0966 H   0  0  0  0  0  0
  -28.5189  -25.8257   22.0154 H   0  0  0  0  0  0
  -27.1520  -25.2021   21.1615 H   0  0  0  0  0  0
  -28.4336  -20.5773   21.2757 H   0  0  0  0  0  0
  -29.1133  -15.3790   21.3901 H   0  0  0  0  0  0
  1 25  1  0  0  0
  1 30  2  0  0  0
  1 85  1  0  0  0
  2  3  1  0  0  0
  2 25  1  0  0  0
  2 89  1  0  0  0
  2 90  1  0  0  0
  3  4  1  0  0  0
  3 91  1  0  0  0
  3 92  1  0  0  0
  4  5  1  0  0  0
  4 93  1  0  0  0
  4 94  1  0  0  0
  5  6  1  0  0  0
  5 26  1  0  0  0
  5 95  1  0  0  0
  6 25  1  0  0  0
  6 96  1  0  0  0
  6 97  1  0  0  0
  7  8  2  0  0  0
  7 26  1  0  0  0
  7 29  1  0  0  0
  8  9  1  0  0  0
  8 22  1  0  0  0
  9 10  1  0  0  0
  9 27  2  0  0  0
 10 11  2  0  0  0
 10 15  1  0  0  0
 11 12  1  0  0  0
 11 98  1  0  0  0
 12 13  2  0  0  0
 12 99  1  0  0  0
 13 14  1  0  0  0
 13 31  1  0  0  0
 14 15  2  0  0  0
 14100  1  0  0  0
 15101  1  0  0  0
 16 17  2  0  0  0
 16 21  1  0  0  0
 16 31  1  0  0  0
 17 18  1  0  0  0
 17102  1  0  0  0
 18 19  2  0  0  0
 18103  1  0  0  0
 19 20  1  0  0  0
 19 24  1  0  0  0
 20 21  2  0  0  0
 20104  1  0  0  0
 21 23  1  0  0  0
 22 28  1  0  0  0
 22 32  2  0  0  0
 26 27  1  0  0  0
 28105  1  0  0  0
 28106  1  0  0  0
 29107  1  0  0  0
 29108  1  0  0  0
 33 34  1  0  0  0
 33 66  1  0  0  0
 33 70  2  0  0  0
 34 36  1  0  0  0
 34 59  1  0  0  0
 34109  1  0  0  0
 35 44  2  0  0  0
 35 45  1  0  0  0
 35 68  1  0  0  0
 36 56  1  0  0  0
 36110  1  0  0  0
 37 39  1  0  0  0
 37 47  1  0  0  0
 37 66  1  0  0  0
 37111  1  0  0  0
 38 43  2  0  0  0
 38 46  1  0  0  0
 38 47  1  0  0  0
 39 64  1  0  0  0
 39 67  2  0  0  0
 40 52  1  0  0  0
 40 53  2  0  0  0
 40 58  1  0  0  0
 41112  1  0  0  0
 41113  1  0  0  0
 41114  1  0  0  0
 41 48  1  0  0  0
 42 43  1  0  0  0
 42 66  1  0  0  0
 42115  1  0  0  0
 42116  1  0  0  0
 43 44  1  0  0  0
 44117  1  0  0  0
 45 46  2  0  0  0
 45118  1  0  0  0
 46119  1  0  0  0
 47120  1  0  0  0
 47121  1  0  0  0
 48 56  1  0  0  0
 48 65  1  0  0  0
 48122  1  0  0  0
 49 50  1  0  0  0
 49 53  1  0  0  0
 49 64  1  0  0  0
 49123  1  0  0  0
 50 51  1  0  0  0
 50124  1  0  0  0
 50125  1  0  0  0
 51 52  1  0  0  0
 51126  1  0  0  0
 51127  1  0  0  0
 52128  1  0  0  0
 52129  1  0  0  0
 53 54  1  0  0  0
 54 55  2  0  0  0
 54130  1  0  0  0
 55 57  1  0  0  0
 55131  1  0  0  0
 56 69  2  0  0  0
 57 58  2  0  0  0
 57132  1  0  0  0
 58133  1  0  0  0
 59 60  1  0  0  0
 59 61  1  0  0  0
 59 62  1  0  0  0
 60134  1  0  0  0
 60135  1  0  0  0
 60136  1  0  0  0
 61137  1  0  0  0
 61138  1  0  0  0
 61139  1  0  0  0
 62140  1  0  0  0
 62141  1  0  0  0
 62142  1  0  0  0
 63 65  1  0  0  0
 63143  1  0  0  0
 63144  1  0  0  0
 63145  1  0  0  0
 64146  1  0  0  0
 65147  1  0  0  0
 68 83  1  0  0  0
 71 74  2  0  0  0
 71 76  1  0  0  0
 71148  1  0  0  0
 72 75  1  0  0  0
 72 76  2  0  0  0
 72149  1  0  0  0
 73 74  1  0  0  0
 73 75  2  0  0  0
 73 78  1  0  0  0
 74 84  1  0  0  0
 75 85  1  0  0  0
 76 88  1  0  0  0
 77 79  2  0  0  0
 77 83  1  0  0  0
 77150  1  0  0  0
 78 81  1  0  0  0
 78 86  2  0  0  0
 79 80  1  0  0  0
 79 82  1  0  0  0
 80 84  1  0  0  0
 80 87  2  0  0  0
 81151  1  0  0  0
 81152  1  0  0  0
 81153  1  0  0  0
 82154  1  0  0  0
 82155  1  0  0  0
 82156  1  0  0  0
 83157  1  0  0  0
 83158  1  0  0  0
 84159  1  0  0  0
 85160  1  0  0  0
M  ISO  4   1 100  68 101  83 101  85 100
M  END
> <chiral flag>
0

> <version>
0

> <s_m_source_file>
/data/baiqing/PycharmProjects/Reinvent-master-3.2/result/LINK_invent/BTK/process_docking_weight1_custom_product_contain_oxygen_bond_distance_aromatic_linkinvent_7_9_3/rearranged_h_0168.sdf

> <i_m_source_file_index>
18

> <r_mmod_Potential_Energy-OPLS-2005>
117.778442382812

> <r_mmod_Stretch_Energy-OPLS-2005>
60.7921562194824

> <r_mmod_Bend_Energy-OPLS-2005>
105.545417785645

> <r_mmod_Torsional_Energy-OPLS-2005>
303.006774902344

> <r_mmod_Improper_Torsional_Energy-OPLS-2005>
5.3699803352356

> <r_mmod_Van_der_Waal_Energy-OPLS-2005>
168.584625244141

> <r_mmod_Electrostatic_Energy-OPLS-2005>
-314.957641601562

> <r_mmod_Solvation_Energy-OPLS-2005>
-230.4404296875

> <b_mmod_Minimization_Converged-OPLS-2005>
0

> <r_mmod_RMS_Derivative-OPLS-2005>
1.1309494972229

$$$$
18
                    3D
 Structure written by MMmdl.
158166  0  0  1  0            999 V2000
  -30.6511  -14.5847   20.5414 C   0  0  0  0  0  0
  -30.4346  -12.3737   19.4403 C   0  0  0  0  0  0
  -29.5057  -12.4999   18.2158 C   0  0  0  0  0  0
  -28.0311  -12.3314   18.6344 C   0  0  0  0  0  0
  -27.6496  -13.2080   19.8542 C   0  0  2  0  0  0
  -28.6910  -13.0696   20.9844 C   0  0  0  0  0  0
  -25.2552  -13.8137   20.5693 C   0  0  0  0  0  0
  -24.1800  -13.0414   20.9169 C   0  0  0  0  0  0
  -24.6348  -11.6892   20.8680 C   0  0  0  0  0  0
  -23.9013  -10.4297   21.0356 C   0  0  0  0  0  0
  -24.3566   -9.4225   21.9137 C   0  0  0  0  0  0
  -23.6259   -8.2251   22.0740 C   0  0  0  0  0  0
  -22.4231   -8.0289   21.3561 C   0  0  0  0  0  0
  -21.9836   -9.0251   20.4643 C   0  0  0  0  0  0
  -22.7165  -10.2128   20.3025 C   0  0  0  0  0  0
  -21.6865   -6.0697   22.5247 C   0  0  0  0  0  0
  -21.4032   -6.5581   23.8174 C   0  0  0  0  0  0
  -21.3674   -5.6740   24.9138 C   0  0  0  0  0  0
  -21.6040   -4.3012   24.7192 C   0  0  0  0  0  0
  -21.8828   -3.8119   23.4312 C   0  0  0  0  0  0
  -21.9206   -4.6929   22.3361 C   0  0  0  0  0  0
  -22.7827  -13.5259   21.1824 C   0  0  0  0  0  0
  -22.1668   -4.2112   21.0937 F   0  0  0  0  0  0
  -21.5634   -3.4505   25.7711 F   0  0  0  0  0  0
  -30.0072  -13.3911   20.4144 N   0  0  0  0  0  0
  -26.2958  -12.9295   20.3271 N   0  0  0  0  0  0
  -25.9276  -11.6464   20.5677 N   0  0  0  0  0  0
  -22.0421  -12.8342   22.0397 N   0  0  0  0  0  0
  -25.4280  -15.1869   20.4231 N   0  0  0  0  0  0
  -31.8309  -14.7356   20.2153 O   0  0  0  0  0  0
  -21.6642   -6.8858   21.4217 O   0  0  0  0  0  0
  -22.3554  -14.5578   20.6663 O   0  0  0  0  0  0
  -24.6169  -31.8641   23.2119 C   0  0  0  0  0  0
  -25.9052  -32.4815   23.8405 C   0  0  1  0  0  0
  -27.2245  -27.3957   20.1096 C   0  0  0  0  0  0
  -25.5901  -33.8613   24.2357 N   0  0  0  0  0  0
  -23.4084  -30.4875   21.5517 C   0  0  2  0  0  0
  -24.8570  -28.9543   20.1174 C   0  0  0  0  0  0
  -22.7424  -29.4609   22.4967 C   0  0  0  0  0  0
  -18.0262  -28.1375   22.8492 C   0  0  0  0  0  0
  -24.1470  -36.7281   23.2636 C   0  0  0  0  0  0
  -25.9409  -30.8236   21.3657 C   0  0  0  0  0  0
  -26.0219  -29.4550   20.7133 C   0  0  0  0  0  0
  -27.2140  -28.6854   20.7032 C   0  0  0  0  0  0
  -26.0470  -26.9219   19.4967 C   0  0  0  0  0  0
  -24.8660  -27.6908   19.5018 C   0  0  0  0  0  0
  -23.6218  -29.8277   20.1648 C   0  0  0  0  0  0
  -25.4090  -36.3108   24.0355 C   0  0  1  0  0  0
  -20.5871  -28.3638   23.1312 C   0  0  2  0  0  0
  -20.6766  -26.9363   22.5441 C   0  0  0  0  0  0
  -19.5757  -26.6378   21.5199 C   0  0  0  0  0  0
  -18.1919  -26.7929   22.1591 C   0  0  0  0  0  0
  -19.1532  -28.8818   23.2906 C   0  0  0  0  0  0
  -18.9456  -30.1417   23.8913 C   0  0  0  0  0  0
  -17.6468  -30.6576   24.0556 C   0  0  0  0  0  0
  -25.9014  -34.9470   23.5156 C   0  0  0  0  0  0
  -16.5353  -29.9081   23.6325 C   0  0  0  0  0  0
  -16.7252  -28.6500   23.0356 C   0  0  0  0  0  0
  -26.4500  -31.6596   25.0711 C   0  0  0  0  0  0
  -25.3846  -31.3825   26.1549 C   0  0  0  0  0  0
  -27.0188  -30.2989   24.6087 C   0  0  0  0  0  0
  -27.6154  -32.4262   25.7396 C   0  0  0  0  0  0
  -27.5592  -37.1771   24.8459 C   0  0  0  0  0  0
  -21.4160  -29.2991   22.3695 N   0  0  0  0  0  0
  -26.4278  -37.3806   23.9449 N   0  0  0  0  0  0
  -24.6743  -31.0716   22.1024 N   0  0  0  0  0  0
  -23.4181  -28.8112   23.2996 O   0  0  0  0  0  0
  -28.3515  -26.5908   20.1175 O   0  0  0  0  0  0
  -26.5563  -34.8920   22.4702 O   0  0  0  0  0  0
  -23.5365  -32.1376   23.7495 O   0  0  0  0  0  0
  -30.9303  -18.0499   23.4197 C   0  0  0  0  0  0
  -29.9186  -18.1817   20.8042 C   0  0  0  0  0  0
  -30.7113  -19.3202   22.8376 C   0  0  0  0  0  0
  -30.1887  -19.4014   21.5041 C   0  0  0  0  0  0
  -30.1697  -16.9027   21.3993 C   0  0  0  0  0  0
  -30.6663  -16.8620   22.7179 C   0  0  0  0  0  0
  -31.1275  -20.5085   23.6480 C   0  0  0  0  0  0
  -28.8801  -24.1199   20.1895 C   0  0  0  0  0  0
  -29.1716  -21.6704   21.1854 C   0  0  0  0  0  0
  -30.7645  -20.5031   25.1301 C   0  0  0  0  0  0
  -29.6651  -23.1462   21.1126 C   0  0  0  0  0  0
  -28.1861  -25.3444   20.8511 C   0  0  0  0  0  0
  -30.0426  -20.6823   20.8461 N   0  0  0  0  0  0
  -29.8393  -15.6589   20.7500 N   0  0  0  0  0  0
  -31.7086  -21.4923   23.1802 O   0  0  0  0  0  0
  -28.8419  -23.9493   18.9668 O   0  0  0  0  0  0
  -28.0379  -21.4202   21.6104 O   0  0  0  0  0  0
  -30.8750  -15.6723   23.3324 F   0  0  0  0  0  0
  -31.4770  -12.4977   19.1440 H   0  0  0  0  0  0
  -30.3672  -11.3792   19.8828 H   0  0  0  0  0  0
  -29.7674  -11.7516   17.4672 H   0  0  0  0  0  0
  -29.6520  -13.4711   17.7400 H   0  0  0  0  0  0
  -27.8820  -11.2820   18.8905 H   0  0  0  0  0  0
  -27.3722  -12.5368   17.7918 H   0  0  0  0  0  0
  -27.6656  -14.2379   19.4975 H   0  0  0  0  0  0
  -28.6941  -12.0573   21.3894 H   0  0  0  0  0  0
  -28.4409  -13.7285   21.8205 H   0  0  0  0  0  0
  -25.2693   -9.5707   22.4743 H   0  0  0  0  0  0
  -23.9949   -7.4635   22.7473 H   0  0  0  0  0  0
  -21.0748   -8.8770   19.8974 H   0  0  0  0  0  0
  -22.3583  -10.9664   19.6159 H   0  0  0  0  0  0
  -21.2025   -7.6088   23.9684 H   0  0  0  0  0  0
  -21.1476   -6.0452   25.9041 H   0  0  0  0  0  0
  -22.0597   -2.7575   23.2833 H   0  0  0  0  0  0
  -22.3974  -12.0002   22.4827 H   0  0  0  0  0  0
  -21.1089  -13.1496   22.2601 H   0  0  0  0  0  0
  -24.6652  -15.8435   20.5536 H   0  0  0  0  0  0
  -26.2791  -15.6355   20.1178 H   0  0  0  0  0  0
  -26.7087  -32.5530   23.1127 H   0  0  0  0  0  0
  -25.0171  -33.9794   25.0589 H   0  0  0  0  0  0
  -22.6980  -31.3052   21.4174 H   0  0  0  0  0  0
  -23.3791  -35.9550   23.3251 H   0  0  0  0  0  0
  -24.3595  -36.8945   22.2066 H   0  0  0  0  0  0
  -23.7134  -37.6431   23.6675 H   0  0  0  0  0  0
  -26.0538  -31.5885   20.5962 H   0  0  0  0  0  0
  -26.8273  -30.8797   21.9860 H   0  0  0  0  0  0
  -28.1138  -29.0638   21.1681 H   0  0  0  0  0  0
  -26.0360  -25.9511   19.0224 H   0  0  0  0  0  0
  -23.9716  -27.3050   19.0345 H   0  0  0  0  0  0
  -23.7455  -30.6058   19.4097 H   0  0  0  0  0  0
  -22.7423  -29.2580   19.8586 H   0  0  0  0  0  0
  -25.1250  -36.1977   25.0844 H   0  0  0  0  0  0
  -20.9986  -28.3223   24.1429 H   0  0  0  0  0  0
  -20.5644  -26.2215   23.3617 H   0  0  0  0  0  0
  -21.6647  -26.7386   22.1245 H   0  0  0  0  0  0
  -19.6899  -25.6292   21.1229 H   0  0  0  0  0  0
  -19.6723  -27.3211   20.6756 H   0  0  0  0  0  0
  -17.4200  -26.6676   21.3976 H   0  0  0  0  0  0
  -18.0290  -26.0057   22.8959 H   0  0  0  0  0  0
  -19.7936  -30.7215   24.2309 H   0  0  0  0  0  0
  -17.5027  -31.6262   24.5152 H   0  0  0  0  0  0
  -15.5356  -30.2990   23.7650 H   0  0  0  0  0  0
  -15.8644  -28.0802   22.7113 H   0  0  0  0  0  0
  -24.5764  -30.7449   25.7952 H   0  0  0  0  0  0
  -24.9369  -32.3067   26.5222 H   0  0  0  0  0  0
  -25.8208  -30.8760   27.0168 H   0  0  0  0  0  0
  -26.2595  -29.6804   24.1274 H   0  0  0  0  0  0
  -27.4030  -29.7210   25.4507 H   0  0  0  0  0  0
  -27.8480  -30.4214   23.9112 H   0  0  0  0  0  0
  -27.2860  -33.3610   26.1956 H   0  0  0  0  0  0
  -28.3940  -32.6728   25.0157 H   0  0  0  0  0  0
  -28.0824  -31.8372   26.5306 H   0  0  0  0  0  0
  -28.2627  -38.0055   24.7534 H   0  0  0  0  0  0
  -28.1062  -36.2599   24.6220 H   0  0  0  0  0  0
  -27.2326  -37.1385   25.8865 H   0  0  0  0  0  0
  -20.9295  -29.8708   21.6940 H   0  0  0  0  0  0
  -26.0173  -38.2867   24.1556 H   0  0  0  0  0  0
  -31.3299  -17.9668   24.4194 H   0  0  0  0  0  0
  -29.5369  -18.2239   19.7935 H   0  0  0  0  0  0
  -29.8699  -19.9082   25.3058 H   0  0  0  0  0  0
  -30.5549  -21.5206   25.4608 H   0  0  0  0  0  0
  -31.5790  -20.1036   25.7352 H   0  0  0  0  0  0
  -29.6163  -23.5426   22.1287 H   0  0  0  0  0  0
  -30.7218  -23.1727   20.8388 H   0  0  0  0  0  0
  -28.5787  -25.4889   21.8567 H   0  0  0  0  0  0
  -27.1334  -25.0948   20.9761 H   0  0  0  0  0  0
  -30.8809  -21.0033   20.3726 H   0  0  0  0  0  0
  -28.8548  -15.4606   20.6773 H   0  0  0  0  0  0
  1 25  1  0  0  0
  1 30  2  0  0  0
  1 84  1  0  0  0
  2  3  1  0  0  0
  2 25  1  0  0  0
  2 89  1  0  0  0
  2 90  1  0  0  0
  3  4  1  0  0  0
  3 91  1  0  0  0
  3 92  1  0  0  0
  4  5  1  0  0  0
  4 93  1  0  0  0
  4 94  1  0  0  0
  5  6  1  0  0  0
  5 26  1  0  0  0
  5 95  1  0  0  0
  6 25  1  0  0  0
  6 96  1  0  0  0
  6 97  1  0  0  0
  7  8  2  0  0  0
  7 26  1  0  0  0
  7 29  1  0  0  0
  8  9  1  0  0  0
  8 22  1  0  0  0
  9 10  1  0  0  0
  9 27  2  0  0  0
 10 11  2  0  0  0
 10 15  1  0  0  0
 11 12  1  0  0  0
 11 98  1  0  0  0
 12 13  2  0  0  0
 12 99  1  0  0  0
 13 14  1  0  0  0
 13 31  1  0  0  0
 14 15  2  0  0  0
 14100  1  0  0  0
 15101  1  0  0  0
 16 17  2  0  0  0
 16 21  1  0  0  0
 16 31  1  0  0  0
 17 18  1  0  0  0
 17102  1  0  0  0
 18 19  2  0  0  0
 18103  1  0  0  0
 19 20  1  0  0  0
 19 24  1  0  0  0
 20 21  2  0  0  0
 20104  1  0  0  0
 21 23  1  0  0  0
 22 28  1  0  0  0
 22 32  2  0  0  0
 26 27  1  0  0  0
 28105  1  0  0  0
 28106  1  0  0  0
 29107  1  0  0  0
 29108  1  0  0  0
 33 34  1  0  0  0
 33 66  1  0  0  0
 33 70  2  0  0  0
 34 36  1  0  0  0
 34 59  1  0  0  0
 34109  1  0  0  0
 35 44  2  0  0  0
 35 45  1  0  0  0
 35 68  1  0  0  0
 36 56  1  0  0  0
 36110  1  0  0  0
 37 39  1  0  0  0
 37 47  1  0  0  0
 37 66  1  0  0  0
 37111  1  0  0  0
 38 43  2  0  0  0
 38 46  1  0  0  0
 38 47  1  0  0  0
 39 64  1  0  0  0
 39 67  2  0  0  0
 40 52  1  0  0  0
 40 53  2  0  0  0
 40 58  1  0  0  0
 41112  1  0  0  0
 41113  1  0  0  0
 41114  1  0  0  0
 41 48  1  0  0  0
 42 43  1  0  0  0
 42 66  1  0  0  0
 42115  1  0  0  0
 42116  1  0  0  0
 43 44  1  0  0  0
 44117  1  0  0  0
 45 46  2  0  0  0
 45118  1  0  0  0
 46119  1  0  0  0
 47120  1  0  0  0
 47121  1  0  0  0
 48 56  1  0  0  0
 48 65  1  0  0  0
 48122  1  0  0  0
 49 50  1  0  0  0
 49 53  1  0  0  0
 49 64  1  0  0  0
 49123  1  0  0  0
 50 51  1  0  0  0
 50124  1  0  0  0
 50125  1  0  0  0
 51 52  1  0  0  0
 51126  1  0  0  0
 51127  1  0  0  0
 52128  1  0  0  0
 52129  1  0  0  0
 53 54  1  0  0  0
 54 55  2  0  0  0
 54130  1  0  0  0
 55 57  1  0  0  0
 55131  1  0  0  0
 56 69  2  0  0  0
 57 58  2  0  0  0
 57132  1  0  0  0
 58133  1  0  0  0
 59 60  1  0  0  0
 59 61  1  0  0  0
 59 62  1  0  0  0
 60134  1  0  0  0
 60135  1  0  0  0
 60136  1  0  0  0
 61137  1  0  0  0
 61138  1  0  0  0
 61139  1  0  0  0
 62140  1  0  0  0
 62141  1  0  0  0
 62142  1  0  0  0
 63 65  1  0  0  0
 63143  1  0  0  0
 63144  1  0  0  0
 63145  1  0  0  0
 64146  1  0  0  0
 65147  1  0  0  0
 68 82  1  0  0  0
 71 73  2  0  0  0
 71 76  1  0  0  0
 71148  1  0  0  0
 72 74  2  0  0  0
 72 75  1  0  0  0
 72149  1  0  0  0
 73 74  1  0  0  0
 73 77  1  0  0  0
 74 83  1  0  0  0
 75 76  2  0  0  0
 75 84  1  0  0  0
 76 88  1  0  0  0
 77 80  1  0  0  0
 77 85  2  0  0  0
 78 81  1  0  0  0
 78 82  1  0  0  0
 78 86  2  0  0  0
 79 81  1  0  0  0
 79 83  1  0  0  0
 79 87  2  0  0  0
 80150  1  0  0  0
 80151  1  0  0  0
 80152  1  0  0  0
 81153  1  0  0  0
 81154  1  0  0  0
 82155  1  0  0  0
 82156  1  0  0  0
 83157  1  0  0  0
 84158  1  0  0  0
M  ISO  4   1 100  68 101  82 101  84 100
M  END
> <chiral flag>
0

> <version>
0

> <s_m_source_file>
/data/baiqing/PycharmProjects/Reinvent-master-3.2/result/LINK_invent/BTK/process_docking_weight1_custom_product_contain_oxygen_bond_distance_aromatic_linkinvent_7_9_3/rearranged_h_0168.sdf

> <i_m_source_file_index>
19

> <r_mmod_Potential_Energy-OPLS-2005>
11.5687465667725

> <r_mmod_Stretch_Energy-OPLS-2005>
54.2138023376465

> <r_mmod_Bend_Energy-OPLS-2005>
105.63858795166

> <r_mmod_Torsional_Energy-OPLS-2005>
355.586090087891

> <r_mmod_Improper_Torsional_Energy-OPLS-2005>
10.903076171875

> <r_mmod_Van_der_Waal_Energy-OPLS-2005>
145.287170410156

> <r_mmod_Electrostatic_Energy-OPLS-2005>
-442.761322021484

> <r_mmod_Solvation_Energy-OPLS-2005>
-249.095855712891

> <b_mmod_Minimization_Converged-OPLS-2005>
0

> <r_mmod_RMS_Derivative-OPLS-2005>
5.00341367721558

$$$$
19
                    3D
 Structure written by MMmdl.
155163  0  0  1  0            999 V2000
  -30.7066  -14.4941   20.5731 C   0  0  0  0  0  0
  -30.4200  -12.3249   19.4279 C   0  0  0  0  0  0
  -29.4919  -12.5019   18.2093 C   0  0  0  0  0  0
  -28.0145  -12.3585   18.6225 C   0  0  0  0  0  0
  -27.6565  -13.2104   19.8693 C   0  0  2  0  0  0
  -28.6984  -13.0201   20.9943 C   0  0  0  0  0  0
  -25.2570  -13.8174   20.5674 C   0  0  0  0  0  0
  -24.1829  -13.0450   20.9184 C   0  0  0  0  0  0
  -24.6391  -11.6915   20.8747 C   0  0  0  0  0  0
  -23.9062  -10.4301   21.0413 C   0  0  0  0  0  0
  -24.3617   -9.4215   21.9192 C   0  0  0  0  0  0
  -23.6292   -8.2248   22.0756 C   0  0  0  0  0  0
  -22.4274   -8.0287   21.3544 C   0  0  0  0  0  0
  -21.9912   -9.0262   20.4647 C   0  0  0  0  0  0
  -22.7237  -10.2143   20.3060 C   0  0  0  0  0  0
  -21.6854   -6.0741   22.5279 C   0  0  0  0  0  0
  -21.4011   -6.5646   23.8211 C   0  0  0  0  0  0
  -21.3655   -5.6797   24.9175 C   0  0  0  0  0  0
  -21.6042   -4.3057   24.7223 C   0  0  0  0  0  0
  -21.8820   -3.8152   23.4343 C   0  0  0  0  0  0
  -21.9193   -4.6970   22.3402 C   0  0  0  0  0  0
  -22.7852  -13.5243   21.1845 C   0  0  0  0  0  0
  -22.1662   -4.2158   21.0980 F   0  0  0  0  0  0
  -21.5628   -3.4542   25.7739 F   0  0  0  0  0  0
  -30.0254  -13.3232   20.4360 N   0  0  0  0  0  0
  -26.2997  -12.9345   20.3342 N   0  0  0  0  0  0
  -25.9315  -11.6504   20.5769 N   0  0  0  0  0  0
  -22.0491  -12.8241   22.0400 N   0  0  0  0  0  0
  -25.4300  -15.1892   20.4059 N   0  0  0  0  0  0
  -31.8431  -14.6454   20.1150 O   0  0  0  0  0  0
  -21.6635   -6.8885   21.4241 O   0  0  0  0  0  0
  -22.3540  -14.5553   20.6695 O   0  0  0  0  0  0
  -24.6153  -31.8677   23.2085 C   0  0  0  0  0  0
  -25.9047  -32.4825   23.8381 C   0  0  1  0  0  0
  -27.2281  -27.4205   20.1028 C   0  0  0  0  0  0
  -25.5894  -33.8622   24.2313 N   0  0  0  0  0  0
  -23.4035  -30.4906   21.5500 C   0  0  2  0  0  0
  -24.8510  -28.9585   20.1109 C   0  0  0  0  0  0
  -22.7419  -29.4647   22.4987 C   0  0  0  0  0  0
  -18.0270  -28.1368   22.8494 C   0  0  0  0  0  0
  -24.1494  -36.7314   23.2640 C   0  0  0  0  0  0
  -25.9339  -30.8299   21.3635 C   0  0  0  0  0  0
  -26.0125  -29.4644   20.7095 C   0  0  0  0  0  0
  -27.2079  -28.7046   20.6986 C   0  0  0  0  0  0
  -26.0534  -26.9410   19.4832 C   0  0  0  0  0  0
  -24.8676  -27.6974   19.4907 C   0  0  0  0  0  0
  -23.6123  -29.8252   20.1638 C   0  0  0  0  0  0
  -25.4116  -36.3113   24.0335 C   0  0  1  0  0  0
  -20.5858  -28.3657   23.1319 C   0  0  2  0  0  0
  -20.6761  -26.9394   22.5419 C   0  0  0  0  0  0
  -19.5741  -26.6376   21.5212 C   0  0  0  0  0  0
  -18.1919  -26.7917   22.1623 C   0  0  0  0  0  0
  -19.1517  -28.8830   23.2905 C   0  0  0  0  0  0
  -18.9451  -30.1438   23.8916 C   0  0  0  0  0  0
  -17.6456  -30.6584   24.0563 C   0  0  0  0  0  0
  -25.9038  -34.9481   23.5123 C   0  0  0  0  0  0
  -16.5345  -29.9086   23.6322 C   0  0  0  0  0  0
  -16.7263  -28.6497   23.0350 C   0  0  0  0  0  0
  -26.4461  -31.6613   25.0718 C   0  0  0  0  0  0
  -25.3725  -31.3726   26.1465 C   0  0  0  0  0  0
  -27.0292  -30.3060   24.6094 C   0  0  0  0  0  0
  -27.6035  -32.4333   25.7481 C   0  0  0  0  0  0
  -27.5587  -37.1812   24.8468 C   0  0  0  0  0  0
  -21.4140  -29.3033   22.3740 N   0  0  0  0  0  0
  -26.4306  -37.3790   23.9403 N   0  0  0  0  0  0
  -24.6693  -31.0762   22.0995 N   0  0  0  0  0  0
  -23.4200  -28.8184   23.3018 O   0  0  0  0  0  0
  -28.3661  -26.6383   20.1235 O   0  0  0  0  0  0
  -26.5608  -34.8941   22.4685 O   0  0  0  0  0  0
  -23.5342  -32.1439   23.7471 O   0  0  0  0  0  0
  -29.6353  -18.0033   20.9890 C   0  0  0  0  0  0
  -31.7769  -17.1401   21.7596 C   0  0  0  0  0  0
  -30.0804  -19.3489   21.1534 C   0  0  0  0  0  0
  -30.4781  -16.8886   21.2639 C   0  0  0  0  0  0
  -31.4006  -19.5548   21.6405 C   0  0  0  0  0  0
  -32.2302  -18.4561   21.9450 C   0  0  0  0  0  0
  -29.1623  -20.4772   20.7993 C   0  0  0  0  0  0
  -29.4816  -21.6815   20.2614 C   0  0  0  0  0  0
  -29.0571  -24.2377   20.0684 C   0  0  0  0  0  0
  -28.4784  -22.8057   19.9708 C   0  0  0  0  0  0
  -28.1610  -25.3256   20.6983 C   0  0  0  0  0  0
  -31.9091  -20.8301   21.8951 N   0  0  0  0  0  0
  -30.0107  -15.5384   21.0848 N   0  0  0  0  0  0
  -30.1848  -24.5044   19.6386 O   0  0  0  0  0  0
  -33.4746  -18.6728   22.4410 F   0  0  0  0  0  0
  -31.4636  -12.4218   19.1224 H   0  0  0  0  0  0
  -30.3258  -11.3205   19.8423 H   0  0  0  0  0  0
  -29.7359  -11.7682   17.4398 H   0  0  0  0  0  0
  -29.6528  -13.4831   17.7606 H   0  0  0  0  0  0
  -27.8291  -11.3034   18.8282 H   0  0  0  0  0  0
  -27.3630  -12.6208   17.7881 H   0  0  0  0  0  0
  -27.6923  -14.2533   19.5544 H   0  0  0  0  0  0
  -28.6810  -11.9929   21.3611 H   0  0  0  0  0  0
  -28.4583  -13.6437   21.8562 H   0  0  0  0  0  0
  -25.2764   -9.5692   22.4766 H   0  0  0  0  0  0
  -24.0007   -7.4639   22.7476 H   0  0  0  0  0  0
  -21.0846   -8.8779   19.8953 H   0  0  0  0  0  0
  -22.3696  -10.9684   19.6172 H   0  0  0  0  0  0
  -21.2002   -7.6154   23.9717 H   0  0  0  0  0  0
  -21.1473   -6.0528   25.9078 H   0  0  0  0  0  0
  -22.0602   -2.7615   23.2841 H   0  0  0  0  0  0
  -22.4092  -11.9892   22.4779 H   0  0  0  0  0  0
  -21.1119  -13.1279   22.2622 H   0  0  0  0  0  0
  -24.6629  -15.8456   20.5049 H   0  0  0  0  0  0
  -26.2779  -15.6224   20.0627 H   0  0  0  0  0  0
  -26.7125  -32.5539   23.1152 H   0  0  0  0  0  0
  -25.0067  -33.9786   25.0471 H   0  0  0  0  0  0
  -22.6920  -31.3074   21.4122 H   0  0  0  0  0  0
  -23.3758  -35.9645   23.3324 H   0  0  0  0  0  0
  -24.3581  -36.8905   22.2051 H   0  0  0  0  0  0
  -23.7250  -37.6524   23.6643 H   0  0  0  0  0  0
  -26.0450  -31.5967   20.5955 H   0  0  0  0  0  0
  -26.8207  -30.8834   21.9829 H   0  0  0  0  0  0
  -28.1034  -29.0873   21.1682 H   0  0  0  0  0  0
  -26.0479  -25.9784   18.9912 H   0  0  0  0  0  0
  -23.9787  -27.3067   19.0145 H   0  0  0  0  0  0
  -23.7172  -30.6014   19.4044 H   0  0  0  0  0  0
  -22.7358  -29.2437   19.8710 H   0  0  0  0  0  0
  -25.1294  -36.1985   25.0828 H   0  0  0  0  0  0
  -20.9944  -28.3224   24.1438 H   0  0  0  0  0  0
  -20.5659  -26.2266   23.3610 H   0  0  0  0  0  0
  -21.6637  -26.7442   22.1212 H   0  0  0  0  0  0
  -19.6911  -25.6287   21.1246 H   0  0  0  0  0  0
  -19.6680  -27.3191   20.6745 H   0  0  0  0  0  0
  -17.4186  -26.6662   21.4034 H   0  0  0  0  0  0
  -18.0320  -26.0053   22.9011 H   0  0  0  0  0  0
  -19.7929  -30.7235   24.2307 H   0  0  0  0  0  0
  -17.5015  -31.6271   24.5157 H   0  0  0  0  0  0
  -15.5348  -30.2998   23.7632 H   0  0  0  0  0  0
  -15.8659  -28.0828   22.7050 H   0  0  0  0  0  0
  -24.5886  -30.7085   25.7802 H   0  0  0  0  0  0
  -24.8930  -32.2888   26.4923 H   0  0  0  0  0  0
  -25.8066  -30.8887   27.0223 H   0  0  0  0  0  0
  -26.2835  -29.6829   24.1140 H   0  0  0  0  0  0
  -27.4062  -29.7284   25.4543 H   0  0  0  0  0  0
  -27.8671  -30.4381   23.9240 H   0  0  0  0  0  0
  -27.2655  -33.3635   26.2063 H   0  0  0  0  0  0
  -28.3844  -32.6891   25.0307 H   0  0  0  0  0  0
  -28.0705  -31.8457   26.5396 H   0  0  0  0  0  0
  -28.2614  -38.0101   24.7509 H   0  0  0  0  0  0
  -28.1071  -36.2631   24.6306 H   0  0  0  0  0  0
  -27.2299  -37.1482   25.8870 H   0  0  0  0  0  0
  -20.9293  -29.8789   21.6997 H   0  0  0  0  0  0
  -26.0208  -38.2875   24.1383 H   0  0  0  0  0  0
  -28.6328  -17.8292   20.6240 H   0  0  0  0  0  0
  -32.4406  -16.3277   22.0148 H   0  0  0  0  0  0
  -28.1215  -20.3019   21.0319 H   0  0  0  0  0  0
  -30.5071  -21.8867   19.9859 H   0  0  0  0  0  0
  -27.6207  -22.7125   20.6365 H   0  0  0  0  0  0
  -28.1073  -22.6747   18.9543 H   0  0  0  0  0  0
  -28.3954  -25.3825   21.7614 H   0  0  0  0  0  0
  -27.1252  -24.9946   20.6361 H   0  0  0  0  0  0
  -31.2300  -21.5628   22.0602 H   0  0  0  0  0  0
  -32.6973  -20.8669   22.5325 H   0  0  0  0  0  0
  -29.0375  -15.3591   21.2831 H   0  0  0  0  0  0
  1 25  1  0  0  0
  1 30  2  0  0  0
  1 83  1  0  0  0
  2  3  1  0  0  0
  2 25  1  0  0  0
  2 86  1  0  0  0
  2 87  1  0  0  0
  3  4  1  0  0  0
  3 88  1  0  0  0
  3 89  1  0  0  0
  4  5  1  0  0  0
  4 90  1  0  0  0
  4 91  1  0  0  0
  5  6  1  0  0  0
  5 26  1  0  0  0
  5 92  1  0  0  0
  6 25  1  0  0  0
  6 93  1  0  0  0
  6 94  1  0  0  0
  7  8  2  0  0  0
  7 26  1  0  0  0
  7 29  1  0  0  0
  8  9  1  0  0  0
  8 22  1  0  0  0
  9 10  1  0  0  0
  9 27  2  0  0  0
 10 11  2  0  0  0
 10 15  1  0  0  0
 11 12  1  0  0  0
 11 95  1  0  0  0
 12 13  2  0  0  0
 12 96  1  0  0  0
 13 14  1  0  0  0
 13 31  1  0  0  0
 14 15  2  0  0  0
 14 97  1  0  0  0
 15 98  1  0  0  0
 16 17  2  0  0  0
 16 21  1  0  0  0
 16 31  1  0  0  0
 17 18  1  0  0  0
 17 99  1  0  0  0
 18 19  2  0  0  0
 18100  1  0  0  0
 19 20  1  0  0  0
 19 24  1  0  0  0
 20 21  2  0  0  0
 20101  1  0  0  0
 21 23  1  0  0  0
 22 28  1  0  0  0
 22 32  2  0  0  0
 26 27  1  0  0  0
 28102  1  0  0  0
 28103  1  0  0  0
 29104  1  0  0  0
 29105  1  0  0  0
 33 34  1  0  0  0
 33 66  1  0  0  0
 33 70  2  0  0  0
 34 36  1  0  0  0
 34 59  1  0  0  0
 34106  1  0  0  0
 35 44  2  0  0  0
 35 45  1  0  0  0
 35 68  1  0  0  0
 36 56  1  0  0  0
 36107  1  0  0  0
 37 39  1  0  0  0
 37 47  1  0  0  0
 37 66  1  0  0  0
 37108  1  0  0  0
 38 43  2  0  0  0
 38 46  1  0  0  0
 38 47  1  0  0  0
 39 64  1  0  0  0
 39 67  2  0  0  0
 40 52  1  0  0  0
 40 53  2  0  0  0
 40 58  1  0  0  0
 41109  1  0  0  0
 41110  1  0  0  0
 41111  1  0  0  0
 41 48  1  0  0  0
 42 43  1  0  0  0
 42 66  1  0  0  0
 42112  1  0  0  0
 42113  1  0  0  0
 43 44  1  0  0  0
 44114  1  0  0  0
 45 46  2  0  0  0
 45115  1  0  0  0
 46116  1  0  0  0
 47117  1  0  0  0
 47118  1  0  0  0
 48 56  1  0  0  0
 48 65  1  0  0  0
 48119  1  0  0  0
 49 50  1  0  0  0
 49 53  1  0  0  0
 49 64  1  0  0  0
 49120  1  0  0  0
 50 51  1  0  0  0
 50121  1  0  0  0
 50122  1  0  0  0
 51 52  1  0  0  0
 51123  1  0  0  0
 51124  1  0  0  0
 52125  1  0  0  0
 52126  1  0  0  0
 53 54  1  0  0  0
 54 55  2  0  0  0
 54127  1  0  0  0
 55 57  1  0  0  0
 55128  1  0  0  0
 56 69  2  0  0  0
 57 58  2  0  0  0
 57129  1  0  0  0
 58130  1  0  0  0
 59 60  1  0  0  0
 59 61  1  0  0  0
 59 62  1  0  0  0
 60131  1  0  0  0
 60132  1  0  0  0
 60133  1  0  0  0
 61134  1  0  0  0
 61135  1  0  0  0
 61136  1  0  0  0
 62137  1  0  0  0
 62138  1  0  0  0
 62139  1  0  0  0
 63 65  1  0  0  0
 63140  1  0  0  0
 63141  1  0  0  0
 63142  1  0  0  0
 64143  1  0  0  0
 65144  1  0  0  0
 68 81  1  0  0  0
 71 73  2  0  0  0
 71 74  1  0  0  0
 71145  1  0  0  0
 72 74  2  0  0  0
 72 76  1  0  0  0
 72146  1  0  0  0
 73 75  1  0  0  0
 73 77  1  0  0  0
 74 83  1  0  0  0
 75 76  2  0  0  0
 75 82  1  0  0  0
 76 85  1  0  0  0
 77 78  2  0  0  0
 77147  1  0  0  0
 78 80  1  0  0  0
 78148  1  0  0  0
 79 80  1  0  0  0
 79 81  1  0  0  0
 79 84  2  0  0  0
 80149  1  0  0  0
 80150  1  0  0  0
 81151  1  0  0  0
 81152  1  0  0  0
 82153  1  0  0  0
 82154  1  0  0  0
 83155  1  0  0  0
M  ISO  4   1 100  68 101  81 101  83 100
M  END
> <chiral flag>
0

> <version>
0

> <s_m_source_file>
/data/baiqing/PycharmProjects/Reinvent-master-3.2/result/LINK_invent/BTK/process_docking_weight1_custom_product_contain_oxygen_bond_distance_aromatic_linkinvent_7_9_3/rearranged_h_0168.sdf

> <i_m_source_file_index>
20

> <r_mmod_Potential_Energy-OPLS-2005>
4.53606176376343

> <r_mmod_Stretch_Energy-OPLS-2005>
43.7341575622559

> <r_mmod_Bend_Energy-OPLS-2005>
95.317008972168

> <r_mmod_Torsional_Energy-OPLS-2005>
253.557540893555

> <r_mmod_Improper_Torsional_Energy-OPLS-2005>
8.00368976593018

> <r_mmod_Van_der_Waal_Energy-OPLS-2005>
158.817367553711

> <r_mmod_Electrostatic_Energy-OPLS-2005>
-336.203460693359

> <r_mmod_Solvation_Energy-OPLS-2005>
-235.262008666992

> <b_mmod_Minimization_Converged-OPLS-2005>
0

> <r_mmod_RMS_Derivative-OPLS-2005>
1.18942713737488

$$$$
20
                    3D
 Structure written by MMmdl.
154162  0  0  1  0            999 V2000
  -30.6726  -14.5832   20.5061 C   0  0  0  0  0  0
  -30.4214  -12.3598   19.4455 C   0  0  0  0  0  0
  -29.4980  -12.4935   18.2162 C   0  0  0  0  0  0
  -28.0222  -12.3396   18.6322 C   0  0  0  0  0  0
  -27.6500  -13.2169   19.8575 C   0  0  2  0  0  0
  -28.6942  -13.0841   20.9891 C   0  0  0  0  0  0
  -25.2560  -13.8179   20.5677 C   0  0  0  0  0  0
  -24.1825  -13.0445   20.9186 C   0  0  0  0  0  0
  -24.6399  -11.6915   20.8740 C   0  0  0  0  0  0
  -23.9064  -10.4299   21.0413 C   0  0  0  0  0  0
  -24.3616   -9.4213   21.9187 C   0  0  0  0  0  0
  -23.6297   -8.2246   22.0758 C   0  0  0  0  0  0
  -22.4281   -8.0282   21.3542 C   0  0  0  0  0  0
  -21.9914   -9.0256   20.4642 C   0  0  0  0  0  0
  -22.7243  -10.2137   20.3057 C   0  0  0  0  0  0
  -21.6847   -6.0740   22.5278 C   0  0  0  0  0  0
  -21.4009   -6.5642   23.8211 C   0  0  0  0  0  0
  -21.3652   -5.6797   24.9175 C   0  0  0  0  0  0
  -21.6041   -4.3063   24.7227 C   0  0  0  0  0  0
  -21.8820   -3.8151   23.4352 C   0  0  0  0  0  0
  -21.9195   -4.6967   22.3407 C   0  0  0  0  0  0
  -22.7845  -13.5235   21.1849 C   0  0  0  0  0  0
  -22.1666   -4.2155   21.0981 F   0  0  0  0  0  0
  -21.5625   -3.4546   25.7745 F   0  0  0  0  0  0
  -30.0117  -13.3912   20.4167 N   0  0  0  0  0  0
  -26.2978  -12.9354   20.3301 N   0  0  0  0  0  0
  -25.9322  -11.6511   20.5753 N   0  0  0  0  0  0
  -22.0497  -12.8221   22.0406 N   0  0  0  0  0  0
  -25.4291  -15.1897   20.4072 N   0  0  0  0  0  0
  -31.8482  -14.6860   20.1453 O   0  0  0  0  0  0
  -21.6635   -6.8884   21.4242 O   0  0  0  0  0  0
  -22.3537  -14.5549   20.6715 O   0  0  0  0  0  0
  -24.6199  -31.8622   23.2050 C   0  0  0  0  0  0
  -25.9068  -32.4792   23.8365 C   0  0  1  0  0  0
  -27.2285  -27.3770   20.1197 C   0  0  0  0  0  0
  -25.5896  -33.8589   24.2295 N   0  0  0  0  0  0
  -23.4115  -30.4843   21.5465 C   0  0  2  0  0  0
  -24.8601  -28.9417   20.1160 C   0  0  0  0  0  0
  -22.7435  -29.4632   22.4964 C   0  0  0  0  0  0
  -18.0267  -28.1381   22.8489 C   0  0  0  0  0  0
  -24.1469  -36.7285   23.2635 C   0  0  0  0  0  0
  -25.9453  -30.8129   21.3651 C   0  0  0  0  0  0
  -26.0247  -29.4416   20.7155 C   0  0  0  0  0  0
  -27.2158  -28.6684   20.7099 C   0  0  0  0  0  0
  -26.0499  -26.9042   19.5099 C   0  0  0  0  0  0
  -24.8705  -27.6737   19.5081 C   0  0  0  0  0  0
  -23.6239  -29.8139   20.1626 C   0  0  0  0  0  0
  -25.4090  -36.3085   24.0335 C   0  0  1  0  0  0
  -20.5863  -28.3679   23.1287 C   0  0  2  0  0  0
  -20.6763  -26.9405   22.5409 C   0  0  0  0  0  0
  -19.5740  -26.6379   21.5211 C   0  0  0  0  0  0
  -18.1907  -26.7926   22.1610 C   0  0  0  0  0  0
  -19.1522  -28.8845   23.2877 C   0  0  0  0  0  0
  -18.9463  -30.1447   23.8898 C   0  0  0  0  0  0
  -17.6470  -30.6587   24.0575 C   0  0  0  0  0  0
  -25.9040  -34.9460   23.5118 C   0  0  0  0  0  0
  -16.5352  -29.9093   23.6349 C   0  0  0  0  0  0
  -16.7260  -28.6510   23.0369 C   0  0  0  0  0  0
  -26.4483  -31.6590   25.0714 C   0  0  0  0  0  0
  -25.3745  -31.3697   26.1463 C   0  0  0  0  0  0
  -27.0338  -30.3030   24.6117 C   0  0  0  0  0  0
  -27.6051  -32.4330   25.7476 C   0  0  0  0  0  0
  -27.5582  -37.1758   24.8446 C   0  0  0  0  0  0
  -21.4159  -29.3033   22.3690 N   0  0  0  0  0  0
  -26.4255  -37.3797   23.9455 N   0  0  0  0  0  0
  -24.6774  -31.0681   22.0970 N   0  0  0  0  0  0
  -23.4174  -28.8172   23.3029 O   0  0  0  0  0  0
  -28.3484  -26.5610   20.1197 O   0  0  0  0  0  0
  -26.5626  -34.8932   22.4694 O   0  0  0  0  0  0
  -23.5382  -32.1395   23.7419 O   0  0  0  0  0  0
  -29.5010  -18.2479   20.6177 C   0  0  0  0  0  0
  -31.5953  -17.5180   21.0479 C   0  0  0  0  0  0
  -30.3261  -17.0797   20.8095 C   0  0  0  0  0  0
  -30.3042  -19.3769   20.7001 C   0  0  0  0  0  0
  -30.0651  -20.8732   20.5080 C   0  0  0  0  0  0
  -28.5422  -24.0117   20.4192 C   0  0  0  0  0  0
  -32.8102  -19.6862   21.2037 C   0  0  0  0  0  0
  -28.7994  -22.8506   21.4349 C   0  0  0  0  0  0
  -28.2741  -25.4273   21.0371 C   0  0  0  0  0  0
  -31.5994  -18.9042   20.9843 N   0  0  0  0  0  0
  -29.9153  -15.6869   20.7876 N   0  0  0  0  0  0
  -28.9209  -21.4421   20.9371 N   0  0  0  0  0  0
  -30.9686  -21.5929   20.0784 O   0  0  0  0  0  0
  -28.5303  -23.8168   19.1985 O   0  0  0  0  0  0
  -31.4660  -12.4577   19.1449 H   0  0  0  0  0  0
  -30.3307  -11.3683   19.8914 H   0  0  0  0  0  0
  -29.7567  -11.7438   17.4671 H   0  0  0  0  0  0
  -29.6484  -13.4645   17.7416 H   0  0  0  0  0  0
  -27.8575  -11.2879   18.8695 H   0  0  0  0  0  0
  -27.3658  -12.5670   17.7913 H   0  0  0  0  0  0
  -27.6662  -14.2492   19.5084 H   0  0  0  0  0  0
  -28.6936  -12.0742   21.4011 H   0  0  0  0  0  0
  -28.4528  -13.7474   21.8217 H   0  0  0  0  0  0
  -25.2763   -9.5680   22.4771 H   0  0  0  0  0  0
  -24.0005   -7.4636   22.7481 H   0  0  0  0  0  0
  -21.0848   -8.8774   19.8950 H   0  0  0  0  0  0
  -22.3706  -10.9678   19.6169 H   0  0  0  0  0  0
  -21.1999   -7.6151   23.9717 H   0  0  0  0  0  0
  -21.1463   -6.0525   25.9074 H   0  0  0  0  0  0
  -22.0607   -2.7617   23.2852 H   0  0  0  0  0  0
  -22.4104  -11.9870   22.4768 H   0  0  0  0  0  0
  -21.1120  -13.1246   22.2634 H   0  0  0  0  0  0
  -24.6607  -15.8441   20.5037 H   0  0  0  0  0  0
  -26.2767  -15.6258   20.0670 H   0  0  0  0  0  0
  -26.7137  -32.5507   23.1128 H   0  0  0  0  0  0
  -25.0045  -33.9737   25.0440 H   0  0  0  0  0  0
  -22.7026  -31.3019   21.4013 H   0  0  0  0  0  0
  -23.3766  -35.9576   23.3224 H   0  0  0  0  0  0
  -24.3577  -36.8991   22.2065 H   0  0  0  0  0  0
  -23.7170  -37.6434   23.6725 H   0  0  0  0  0  0
  -26.0604  -31.5728   20.5914 H   0  0  0  0  0  0
  -26.8321  -30.8718   21.9848 H   0  0  0  0  0  0
  -28.1145  -29.0473   21.1769 H   0  0  0  0  0  0
  -26.0450  -25.9289   19.0437 H   0  0  0  0  0  0
  -23.9766  -27.2801   19.0439 H   0  0  0  0  0  0
  -23.7368  -30.5872   19.4016 H   0  0  0  0  0  0
  -22.7464  -29.2372   19.8656 H   0  0  0  0  0  0
  -25.1248  -36.1928   25.0820 H   0  0  0  0  0  0
  -20.9947  -28.3263   24.1410 H   0  0  0  0  0  0
  -20.5668  -26.2284   23.3603 H   0  0  0  0  0  0
  -21.6634  -26.7436   22.1206 H   0  0  0  0  0  0
  -19.6907  -25.6295   21.1226 H   0  0  0  0  0  0
  -19.6681  -27.3199   20.6744 H   0  0  0  0  0  0
  -17.4179  -26.6688   21.4001 H   0  0  0  0  0  0
  -18.0288  -26.0047   22.8983 H   0  0  0  0  0  0
  -19.7944  -30.7256   24.2266 H   0  0  0  0  0  0
  -17.5033  -31.6274   24.5166 H   0  0  0  0  0  0
  -15.5363  -30.3007   23.7681 H   0  0  0  0  0  0
  -15.8646  -28.0843   22.7106 H   0  0  0  0  0  0
  -24.5913  -30.7044   25.7805 H   0  0  0  0  0  0
  -24.8942  -32.2855   26.4923 H   0  0  0  0  0  0
  -25.8087  -30.8857   27.0220 H   0  0  0  0  0  0
  -26.2891  -29.6741   24.1219 H   0  0  0  0  0  0
  -27.4163  -29.7309   25.4580 H   0  0  0  0  0  0
  -27.8692  -30.4350   23.9238 H   0  0  0  0  0  0
  -27.2679  -33.3646   26.2033 H   0  0  0  0  0  0
  -28.3861  -32.6862   25.0296 H   0  0  0  0  0  0
  -28.0714  -31.8468   26.5405 H   0  0  0  0  0  0
  -28.2502  -38.0152   24.7665 H   0  0  0  0  0  0
  -28.1174  -36.2700   24.6051 H   0  0  0  0  0  0
  -27.2336  -37.1142   25.8847 H   0  0  0  0  0  0
  -20.9338  -29.8747   21.6895 H   0  0  0  0  0  0
  -26.0123  -38.2833   24.1599 H   0  0  0  0  0  0
  -28.4410  -18.2673   20.4053 H   0  0  0  0  0  0
  -32.5077  -16.9722   21.2548 H   0  0  0  0  0  0
  -33.5977  -19.0614   21.6259 H   0  0  0  0  0  0
  -32.6142  -20.5002   21.9017 H   0  0  0  0  0  0
  -33.1670  -20.0960   20.2585 H   0  0  0  0  0  0
  -27.9843  -22.8704   22.1591 H   0  0  0  0  0  0
  -29.6955  -23.1045   22.0032 H   0  0  0  0  0  0
  -29.0089  -25.5893   21.8258 H   0  0  0  0  0  0
  -27.3036  -25.3997   21.5345 H   0  0  0  0  0  0
  -28.9321  -15.5060   20.9217 H   0  0  0  0  0  0
  -28.1950  -20.8042   21.2319 H   0  0  0  0  0  0
  1 25  1  0  0  0
  1 30  2  0  0  0
  1 81  1  0  0  0
  2  3  1  0  0  0
  2 25  1  0  0  0
  2 85  1  0  0  0
  2 86  1  0  0  0
  3  4  1  0  0  0
  3 87  1  0  0  0
  3 88  1  0  0  0
  4  5  1  0  0  0
  4 89  1  0  0  0
  4 90  1  0  0  0
  5  6  1  0  0  0
  5 26  1  0  0  0
  5 91  1  0  0  0
  6 25  1  0  0  0
  6 92  1  0  0  0
  6 93  1  0  0  0
  7  8  2  0  0  0
  7 26  1  0  0  0
  7 29  1  0  0  0
  8  9  1  0  0  0
  8 22  1  0  0  0
  9 10  1  0  0  0
  9 27  2  0  0  0
 10 11  2  0  0  0
 10 15  1  0  0  0
 11 12  1  0  0  0
 11 94  1  0  0  0
 12 13  2  0  0  0
 12 95  1  0  0  0
 13 14  1  0  0  0
 13 31  1  0  0  0
 14 15  2  0  0  0
 14 96  1  0  0  0
 15 97  1  0  0  0
 16 17  2  0  0  0
 16 21  1  0  0  0
 16 31  1  0  0  0
 17 18  1  0  0  0
 17 98  1  0  0  0
 18 19  2  0  0  0
 18 99  1  0  0  0
 19 20  1  0  0  0
 19 24  1  0  0  0
 20 21  2  0  0  0
 20100  1  0  0  0
 21 23  1  0  0  0
 22 28  1  0  0  0
 22 32  2  0  0  0
 26 27  1  0  0  0
 28101  1  0  0  0
 28102  1  0  0  0
 29103  1  0  0  0
 29104  1  0  0  0
 33 34  1  0  0  0
 33 66  1  0  0  0
 33 70  2  0  0  0
 34 36  1  0  0  0
 34 59  1  0  0  0
 34105  1  0  0  0
 35 44  2  0  0  0
 35 45  1  0  0  0
 35 68  1  0  0  0
 36 56  1  0  0  0
 36106  1  0  0  0
 37 39  1  0  0  0
 37 47  1  0  0  0
 37 66  1  0  0  0
 37107  1  0  0  0
 38 43  2  0  0  0
 38 46  1  0  0  0
 38 47  1  0  0  0
 39 64  1  0  0  0
 39 67  2  0  0  0
 40 52  1  0  0  0
 40 53  2  0  0  0
 40 58  1  0  0  0
 41108  1  0  0  0
 41109  1  0  0  0
 41110  1  0  0  0
 41 48  1  0  0  0
 42 43  1  0  0  0
 42 66  1  0  0  0
 42111  1  0  0  0
 42112  1  0  0  0
 43 44  1  0  0  0
 44113  1  0  0  0
 45 46  2  0  0  0
 45114  1  0  0  0
 46115  1  0  0  0
 47116  1  0  0  0
 47117  1  0  0  0
 48 56  1  0  0  0
 48 65  1  0  0  0
 48118  1  0  0  0
 49 50  1  0  0  0
 49 53  1  0  0  0
 49 64  1  0  0  0
 49119  1  0  0  0
 50 51  1  0  0  0
 50120  1  0  0  0
 50121  1  0  0  0
 51 52  1  0  0  0
 51122  1  0  0  0
 51123  1  0  0  0
 52124  1  0  0  0
 52125  1  0  0  0
 53 54  1  0  0  0
 54 55  2  0  0  0
 54126  1  0  0  0
 55 57  1  0  0  0
 55127  1  0  0  0
 56 69  2  0  0  0
 57 58  2  0  0  0
 57128  1  0  0  0
 58129  1  0  0  0
 59 60  1  0  0  0
 59 61  1  0  0  0
 59 62  1  0  0  0
 60130  1  0  0  0
 60131  1  0  0  0
 60132  1  0  0  0
 61133  1  0  0  0
 61134  1  0  0  0
 61135  1  0  0  0
 62136  1  0  0  0
 62137  1  0  0  0
 62138  1  0  0  0
 63 65  1  0  0  0
 63139  1  0  0  0
 63140  1  0  0  0
 63141  1  0  0  0
 64142  1  0  0  0
 65143  1  0  0  0
 68 79  1  0  0  0
 71 73  1  0  0  0
 71 74  2  0  0  0
 71144  1  0  0  0
 72 73  2  0  0  0
 72 80  1  0  0  0
 72145  1  0  0  0
 73 81  1  0  0  0
 74 75  1  0  0  0
 74 80  1  0  0  0
 75 82  1  0  0  0
 75 83  2  0  0  0
 76 78  1  0  0  0
 76 79  1  0  0  0
 76 84  2  0  0  0
 77 80  1  0  0  0
 77146  1  0  0  0
 77147  1  0  0  0
 77148  1  0  0  0
 78 82  1  0  0  0
 78149  1  0  0  0
 78150  1  0  0  0
 79151  1  0  0  0
 79152  1  0  0  0
 81153  1  0  0  0
 82154  1  0  0  0
M  ISO  4   1 100  68 101  79 101  81 100
M  END
> <chiral flag>
0

> <version>
0

> <s_m_source_file>
/data/baiqing/PycharmProjects/Reinvent-master-3.2/result/LINK_invent/BTK/process_docking_weight1_custom_product_contain_oxygen_bond_distance_aromatic_linkinvent_7_9_3/rearranged_h_0168.sdf

> <i_m_source_file_index>
21

> <r_mmod_Potential_Energy-OPLS-2005>
-77.1259384155273

> <r_mmod_Stretch_Energy-OPLS-2005>
58.6393547058105

> <r_mmod_Bend_Energy-OPLS-2005>
125.062194824219

> <r_mmod_Torsional_Energy-OPLS-2005>
255.514373779297

> <r_mmod_Improper_Torsional_Energy-OPLS-2005>
7.69106149673462

> <r_mmod_Van_der_Waal_Energy-OPLS-2005>
128.108734130859

> <r_mmod_Electrostatic_Energy-OPLS-2005>
-412.890289306641

> <r_mmod_Solvation_Energy-OPLS-2005>
-271.169158935547

> <b_mmod_Minimization_Converged-OPLS-2005>
0

> <r_mmod_RMS_Derivative-OPLS-2005>
1.44139158725739

$$$$
21
                    3D
 Structure written by MMmdl.
157165  0  0  1  0            999 V2000
  -30.6937  -14.4571   20.5727 C   0  0  0  0  0  0
  -30.4232  -12.2959   19.4212 C   0  0  0  0  0  0
  -29.4946  -12.5061   18.2068 C   0  0  0  0  0  0
  -28.0149  -12.3692   18.6176 C   0  0  0  0  0  0
  -27.6635  -13.2035   19.8786 C   0  0  2  0  0  0
  -28.7029  -12.9674   20.9979 C   0  0  0  0  0  0
  -25.2594  -13.8155   20.5676 C   0  0  0  0  0  0
  -24.1839  -13.0436   20.9167 C   0  0  0  0  0  0
  -24.6388  -11.6901   20.8730 C   0  0  0  0  0  0
  -23.9054  -10.4291   21.0402 C   0  0  0  0  0  0
  -24.3609   -9.4207   21.9180 C   0  0  0  0  0  0
  -23.6287   -8.2242   22.0752 C   0  0  0  0  0  0
  -22.4269   -8.0279   21.3543 C   0  0  0  0  0  0
  -21.9901   -9.0252   20.4646 C   0  0  0  0  0  0
  -22.7226  -10.2133   20.3054 C   0  0  0  0  0  0
  -21.6852   -6.0734   22.5279 C   0  0  0  0  0  0
  -21.4014   -6.5638   23.8212 C   0  0  0  0  0  0
  -21.3659   -5.6791   24.9174 C   0  0  0  0  0  0
  -21.6044   -4.3054   24.7226 C   0  0  0  0  0  0
  -21.8819   -3.8145   23.4347 C   0  0  0  0  0  0
  -21.9192   -4.6962   22.3403 C   0  0  0  0  0  0
  -22.7863  -13.5240   21.1837 C   0  0  0  0  0  0
  -22.1661   -4.2147   21.0981 F   0  0  0  0  0  0
  -21.5629   -3.4538   25.7739 F   0  0  0  0  0  0
  -30.0380  -13.2715   20.4527 N   0  0  0  0  0  0
  -26.3030  -12.9319   20.3377 N   0  0  0  0  0  0
  -25.9315  -11.6480   20.5766 N   0  0  0  0  0  0
  -22.0505  -12.8236   22.0400 N   0  0  0  0  0  0
  -25.4323  -15.1870   20.4085 N   0  0  0  0  0  0
  -31.8154  -14.6464   20.0938 O   0  0  0  0  0  0
  -21.6636   -6.8876   21.4240 O   0  0  0  0  0  0
  -22.3546  -14.5546   20.6690 O   0  0  0  0  0  0
  -24.6134  -31.8681   23.2101 C   0  0  0  0  0  0
  -25.9032  -32.4821   23.8390 C   0  0  1  0  0  0
  -27.2380  -27.4377   20.0856 C   0  0  0  0  0  0
  -25.5892  -33.8621   24.2322 N   0  0  0  0  0  0
  -23.4003  -30.4911   21.5510 C   0  0  2  0  0  0
  -24.8449  -28.9548   20.1152 C   0  0  0  0  0  0
  -22.7397  -29.4660   22.5002 C   0  0  0  0  0  0
  -18.0267  -28.1377   22.8495 C   0  0  0  0  0  0
  -24.1487  -36.7317   23.2636 C   0  0  0  0  0  0
  -25.9280  -30.8323   21.3629 C   0  0  0  0  0  0
  -26.0030  -29.4661   20.7113 C   0  0  0  0  0  0
  -27.1969  -28.7119   20.6978 C   0  0  0  0  0  0
  -26.0541  -26.9319   19.4988 C   0  0  0  0  0  0
  -24.8645  -27.6857   19.5109 C   0  0  0  0  0  0
  -23.6071  -29.8217   20.1656 C   0  0  0  0  0  0
  -25.4106  -36.3111   24.0338 C   0  0  1  0  0  0
  -20.5855  -28.3659   23.1328 C   0  0  2  0  0  0
  -20.6757  -26.9398   22.5426 C   0  0  0  0  0  0
  -19.5740  -26.6386   21.5217 C   0  0  0  0  0  0
  -18.1915  -26.7926   22.1621 C   0  0  0  0  0  0
  -19.1515  -28.8835   23.2910 C   0  0  0  0  0  0
  -18.9445  -30.1443   23.8919 C   0  0  0  0  0  0
  -17.6448  -30.6584   24.0569 C   0  0  0  0  0  0
  -25.9034  -34.9477   23.5129 C   0  0  0  0  0  0
  -16.5339  -29.9089   23.6326 C   0  0  0  0  0  0
  -16.7256  -28.6506   23.0346 C   0  0  0  0  0  0
  -26.4465  -31.6601   25.0718 C   0  0  0  0  0  0
  -25.3740  -31.3709   26.1475 C   0  0  0  0  0  0
  -27.0289  -30.3042   24.6093 C   0  0  0  0  0  0
  -27.6051  -32.4317   25.7468 C   0  0  0  0  0  0
  -27.5589  -37.1799   24.8456 C   0  0  0  0  0  0
  -21.4127  -29.3029   22.3738 N   0  0  0  0  0  0
  -26.4290  -37.3798   23.9418 N   0  0  0  0  0  0
  -24.6655  -31.0784   22.0999 N   0  0  0  0  0  0
  -23.4173  -28.8207   23.3044 O   0  0  0  0  0  0
  -28.4385  -26.7547   20.1016 O   0  0  0  0  0  0
  -26.5602  -34.8930   22.4694 O   0  0  0  0  0  0
  -23.5331  -32.1435   23.7502 O   0  0  0  0  0  0
  -30.9923  -18.9216   20.0778 C   0  0  0  0  0  0
  -30.9540  -17.5138   20.1322 C   0  0  0  0  0  0
  -30.2023  -19.7254   20.9335 C   0  0  0  0  0  0
  -30.1096  -16.8567   21.0571 C   0  0  0  0  0  0
  -29.3319  -19.0656   21.8480 C   0  0  0  0  0  0
  -29.2916  -17.6484   21.8931 C   0  0  0  0  0  0
  -30.3818  -21.2112   20.8471 C   0  0  0  0  0  0
  -28.4849  -24.2906   20.2315 C   0  0  0  0  0  0
  -31.8144  -21.6674   21.1172 C   0  0  0  0  0  0
  -29.7706  -23.4631   20.4487 C   0  0  0  0  0  0
  -28.6163  -25.5458   19.3462 C   0  0  0  0  0  0
  -29.4358  -22.0360   20.5725 N   0  0  0  0  0  0
  -28.5062  -19.7705   22.7334 N   0  0  0  0  0  0
  -29.9888  -15.4346   21.1725 N   0  0  0  0  0  0
  -27.4062  -23.9796   20.7518 O   0  0  0  0  0  0
  -28.4492  -17.0329   22.7613 F   0  0  0  0  0  0
  -31.4681  -12.3940   19.1208 H   0  0  0  0  0  0
  -30.3217  -11.2815   19.8103 H   0  0  0  0  0  0
  -29.7317  -11.7862   17.4224 H   0  0  0  0  0  0
  -29.6662  -13.4942   17.7767 H   0  0  0  0  0  0
  -27.8213  -11.3129   18.8081 H   0  0  0  0  0  0
  -27.3657  -12.6507   17.7876 H   0  0  0  0  0  0
  -27.7131  -14.2537   19.5900 H   0  0  0  0  0  0
  -28.6739  -11.9274   21.3261 H   0  0  0  0  0  0
  -28.4618  -13.5540   21.8854 H   0  0  0  0  0  0
  -25.2757   -9.5686   22.4750 H   0  0  0  0  0  0
  -24.0001   -7.4634   22.7468 H   0  0  0  0  0  0
  -21.0832   -8.8769   19.8953 H   0  0  0  0  0  0
  -22.3684  -10.9671   19.6163 H   0  0  0  0  0  0
  -21.2005   -7.6146   23.9716 H   0  0  0  0  0  0
  -21.1481   -6.0520   25.9077 H   0  0  0  0  0  0
  -22.0598   -2.7607   23.2848 H   0  0  0  0  0  0
  -22.4119  -11.9898   22.4791 H   0  0  0  0  0  0
  -21.1127  -13.1268   22.2612 H   0  0  0  0  0  0
  -24.6703  -15.8460   20.5256 H   0  0  0  0  0  0
  -26.2943  -15.6275   20.1125 H   0  0  0  0  0  0
  -26.7100  -32.5532   23.1152 H   0  0  0  0  0  0
  -25.0040  -33.9784   25.0464 H   0  0  0  0  0  0
  -22.6890  -31.3079   21.4122 H   0  0  0  0  0  0
  -23.3750  -35.9648   23.3291 H   0  0  0  0  0  0
  -24.3586  -36.8939   22.2053 H   0  0  0  0  0  0
  -23.7234  -37.6518   23.6655 H   0  0  0  0  0  0
  -26.0404  -31.5980   20.5939 H   0  0  0  0  0  0
  -26.8162  -30.8856   21.9807 H   0  0  0  0  0  0
  -28.0931  -29.1073   21.1555 H   0  0  0  0  0  0
  -26.0192  -25.9554   19.0398 H   0  0  0  0  0  0
  -23.9699  -27.2815   19.0574 H   0  0  0  0  0  0
  -23.7141  -30.5960   19.4051 H   0  0  0  0  0  0
  -22.7310  -29.2411   19.8713 H   0  0  0  0  0  0
  -25.1279  -36.1974   25.0829 H   0  0  0  0  0  0
  -20.9944  -28.3223   24.1450 H   0  0  0  0  0  0
  -20.5655  -26.2267   23.3610 H   0  0  0  0  0  0
  -21.6630  -26.7441   22.1222 H   0  0  0  0  0  0
  -19.6901  -25.6301   21.1236 H   0  0  0  0  0  0
  -19.6685  -27.3208   20.6757 H   0  0  0  0  0  0
  -17.4189  -26.6682   21.4018 H   0  0  0  0  0  0
  -18.0308  -26.0061   22.9008 H   0  0  0  0  0  0
  -19.7921  -30.7253   24.2297 H   0  0  0  0  0  0
  -17.5003  -31.6267   24.5165 H   0  0  0  0  0  0
  -15.5341  -30.2998   23.7640 H   0  0  0  0  0  0
  -15.8654  -28.0835   22.7047 H   0  0  0  0  0  0
  -24.5909  -30.7056   25.7819 H   0  0  0  0  0  0
  -24.8934  -32.2866   26.4934 H   0  0  0  0  0  0
  -25.8099  -30.8875   27.0226 H   0  0  0  0  0  0
  -26.2824  -29.6806   24.1159 H   0  0  0  0  0  0
  -27.4068  -29.7278   25.4547 H   0  0  0  0  0  0
  -27.8657  -30.4356   23.9228 H   0  0  0  0  0  0
  -27.2676  -33.3601   26.2087 H   0  0  0  0  0  0
  -28.3831  -32.6902   25.0272 H   0  0  0  0  0  0
  -28.0754  -31.8418   26.5346 H   0  0  0  0  0  0
  -28.2586  -38.0118   24.7543 H   0  0  0  0  0  0
  -28.1105  -36.2654   24.6223 H   0  0  0  0  0  0
  -27.2320  -37.1378   25.8861 H   0  0  0  0  0  0
  -20.9284  -29.8748   21.6960 H   0  0  0  0  0  0
  -26.0180  -38.2872   24.1444 H   0  0  0  0  0  0
  -31.6566  -19.3923   19.3662 H   0  0  0  0  0  0
  -31.5813  -16.9656   19.4459 H   0  0  0  0  0  0
  -32.4476  -20.8311   21.4149 H   0  0  0  0  0  0
  -31.8467  -22.3910   21.9313 H   0  0  0  0  0  0
  -32.2518  -22.1144   20.2245 H   0  0  0  0  0  0
  -30.2546  -23.8407   21.3501 H   0  0  0  0  0  0
  -30.4498  -23.6301   19.6113 H   0  0  0  0  0  0
  -27.9532  -25.4792   18.4855 H   0  0  0  0  0  0
  -29.6247  -25.5684   18.9339 H   0  0  0  0  0  0
  -28.2317  -20.7018   22.4350 H   0  0  0  0  0  0
  -27.7363  -19.2399   23.1274 H   0  0  0  0  0  0
  -29.1654  -15.1255   21.6673 H   0  0  0  0  0  0
  1 25  1  0  0  0
  1 30  2  0  0  0
  1 84  1  0  0  0
  2  3  1  0  0  0
  2 25  1  0  0  0
  2 87  1  0  0  0
  2 88  1  0  0  0
  3  4  1  0  0  0
  3 89  1  0  0  0
  3 90  1  0  0  0
  4  5  1  0  0  0
  4 91  1  0  0  0
  4 92  1  0  0  0
  5  6  1  0  0  0
  5 26  1  0  0  0
  5 93  1  0  0  0
  6 25  1  0  0  0
  6 94  1  0  0  0
  6 95  1  0  0  0
  7  8  2  0  0  0
  7 26  1  0  0  0
  7 29  1  0  0  0
  8  9  1  0  0  0
  8 22  1  0  0  0
  9 10  1  0  0  0
  9 27  2  0  0  0
 10 11  2  0  0  0
 10 15  1  0  0  0
 11 12  1  0  0  0
 11 96  1  0  0  0
 12 13  2  0  0  0
 12 97  1  0  0  0
 13 14  1  0  0  0
 13 31  1  0  0  0
 14 15  2  0  0  0
 14 98  1  0  0  0
 15 99  1  0  0  0
 16 17  2  0  0  0
 16 21  1  0  0  0
 16 31  1  0  0  0
 17 18  1  0  0  0
 17100  1  0  0  0
 18 19  2  0  0  0
 18101  1  0  0  0
 19 20  1  0  0  0
 19 24  1  0  0  0
 20 21  2  0  0  0
 20102  1  0  0  0
 21 23  1  0  0  0
 22 28  1  0  0  0
 22 32  2  0  0  0
 26 27  1  0  0  0
 28103  1  0  0  0
 28104  1  0  0  0
 29105  1  0  0  0
 29106  1  0  0  0
 33 34  1  0  0  0
 33 66  1  0  0  0
 33 70  2  0  0  0
 34 36  1  0  0  0
 34 59  1  0  0  0
 34107  1  0  0  0
 35 44  2  0  0  0
 35 45  1  0  0  0
 35 68  1  0  0  0
 36 56  1  0  0  0
 36108  1  0  0  0
 37 39  1  0  0  0
 37 47  1  0  0  0
 37 66  1  0  0  0
 37109  1  0  0  0
 38 43  2  0  0  0
 38 46  1  0  0  0
 38 47  1  0  0  0
 39 64  1  0  0  0
 39 67  2  0  0  0
 40 52  1  0  0  0
 40 53  2  0  0  0
 40 58  1  0  0  0
 41110  1  0  0  0
 41111  1  0  0  0
 41112  1  0  0  0
 41 48  1  0  0  0
 42 43  1  0  0  0
 42 66  1  0  0  0
 42113  1  0  0  0
 42114  1  0  0  0
 43 44  1  0  0  0
 44115  1  0  0  0
 45 46  2  0  0  0
 45116  1  0  0  0
 46117  1  0  0  0
 47118  1  0  0  0
 47119  1  0  0  0
 48 56  1  0  0  0
 48 65  1  0  0  0
 48120  1  0  0  0
 49 50  1  0  0  0
 49 53  1  0  0  0
 49 64  1  0  0  0
 49121  1  0  0  0
 50 51  1  0  0  0
 50122  1  0  0  0
 50123  1  0  0  0
 51 52  1  0  0  0
 51124  1  0  0  0
 51125  1  0  0  0
 52126  1  0  0  0
 52127  1  0  0  0
 53 54  1  0  0  0
 54 55  2  0  0  0
 54128  1  0  0  0
 55 57  1  0  0  0
 55129  1  0  0  0
 56 69  2  0  0  0
 57 58  2  0  0  0
 57130  1  0  0  0
 58131  1  0  0  0
 59 60  1  0  0  0
 59 61  1  0  0  0
 59 62  1  0  0  0
 60132  1  0  0  0
 60133  1  0  0  0
 60134  1  0  0  0
 61135  1  0  0  0
 61136  1  0  0  0
 61137  1  0  0  0
 62138  1  0  0  0
 62139  1  0  0  0
 62140  1  0  0  0
 63 65  1  0  0  0
 63141  1  0  0  0
 63142  1  0  0  0
 63143  1  0  0  0
 64144  1  0  0  0
 65145  1  0  0  0
 68 81  1  0  0  0
 71 72  2  0  0  0
 71 73  1  0  0  0
 71146  1  0  0  0
 72 74  1  0  0  0
 72147  1  0  0  0
 73 75  2  0  0  0
 73 77  1  0  0  0
 74 76  2  0  0  0
 74 84  1  0  0  0
 75 76  1  0  0  0
 75 83  1  0  0  0
 76 86  1  0  0  0
 77 79  1  0  0  0
 77 82  2  0  0  0
 78 80  1  0  0  0
 78 81  1  0  0  0
 78 85  2  0  0  0
 79148  1  0  0  0
 79149  1  0  0  0
 79150  1  0  0  0
 80 82  1  0  0  0
 80151  1  0  0  0
 80152  1  0  0  0
 81153  1  0  0  0
 81154  1  0  0  0
 83155  1  0  0  0
 83156  1  0  0  0
 84157  1  0  0  0
M  ISO  4   1 100  68 101  81 101  84 100
M  END
> <chiral flag>
0

> <version>
0

> <s_m_source_file>
/data/baiqing/PycharmProjects/Reinvent-master-3.2/result/LINK_invent/BTK/process_docking_weight1_custom_product_contain_oxygen_bond_distance_aromatic_linkinvent_7_9_3/rearranged_h_0168.sdf

> <i_m_source_file_index>
22

> <r_mmod_Potential_Energy-OPLS-2005>
76.4050598144531

> <r_mmod_Stretch_Energy-OPLS-2005>
41.5807609558105

> <r_mmod_Bend_Energy-OPLS-2005>
114.061988830566

> <r_mmod_Torsional_Energy-OPLS-2005>
235.986892700195

> <r_mmod_Improper_Torsional_Energy-OPLS-2005>
7.07746696472168

> <r_mmod_Van_der_Waal_Energy-OPLS-2005>
166.818084716797

> <r_mmod_Electrostatic_Energy-OPLS-2005>
-265.785980224609

> <r_mmod_Solvation_Energy-OPLS-2005>
-234.951446533203

> <b_mmod_Minimization_Converged-OPLS-2005>
0

> <r_mmod_RMS_Derivative-OPLS-2005>
0.231261104345322

$$$$
22
                    3D
 Structure written by MMmdl.
159167  0  0  1  0            999 V2000
  -30.6882  -14.4607   20.6000 C   0  0  0  0  0  0
  -30.4307  -12.3085   19.4130 C   0  0  0  0  0  0
  -29.4953  -12.5131   18.2024 C   0  0  0  0  0  0
  -28.0158  -12.3708   18.6142 C   0  0  0  0  0  0
  -27.6647  -13.1996   19.8783 C   0  0  2  0  0  0
  -28.7052  -12.9513   20.9939 C   0  0  0  0  0  0
  -25.2607  -13.8144   20.5671 C   0  0  0  0  0  0
  -24.1850  -13.0436   20.9179 C   0  0  0  0  0  0
  -24.6389  -11.6897   20.8734 C   0  0  0  0  0  0
  -23.9051  -10.4289   21.0406 C   0  0  0  0  0  0
  -24.3607   -9.4207   21.9183 C   0  0  0  0  0  0
  -23.6286   -8.2241   22.0754 C   0  0  0  0  0  0
  -22.4268   -8.0278   21.3545 C   0  0  0  0  0  0
  -21.9901   -9.0250   20.4647 C   0  0  0  0  0  0
  -22.7226  -10.2131   20.3056 C   0  0  0  0  0  0
  -21.6851   -6.0733   22.5279 C   0  0  0  0  0  0
  -21.4012   -6.5638   23.8212 C   0  0  0  0  0  0
  -21.3659   -5.6792   24.9174 C   0  0  0  0  0  0
  -21.6045   -4.3055   24.7226 C   0  0  0  0  0  0
  -21.8819   -3.8146   23.4347 C   0  0  0  0  0  0
  -21.9193   -4.6961   22.3404 C   0  0  0  0  0  0
  -22.7874  -13.5244   21.1844 C   0  0  0  0  0  0
  -22.1661   -4.2147   21.0981 F   0  0  0  0  0  0
  -21.5631   -3.4540   25.7740 F   0  0  0  0  0  0
  -30.0391  -13.2733   20.4518 N   0  0  0  0  0  0
  -26.3034  -12.9295   20.3362 N   0  0  0  0  0  0
  -25.9312  -11.6465   20.5758 N   0  0  0  0  0  0
  -22.0506  -12.8238   22.0395 N   0  0  0  0  0  0
  -25.4353  -15.1858   20.4054 N   0  0  0  0  0  0
  -31.7961  -14.6813   20.1006 O   0  0  0  0  0  0
  -21.6635   -6.8875   21.4239 O   0  0  0  0  0  0
  -22.3568  -14.5556   20.6697 O   0  0  0  0  0  0
  -24.6134  -31.8683   23.2099 C   0  0  0  0  0  0
  -25.9028  -32.4825   23.8398 C   0  0  1  0  0  0
  -27.2385  -27.4439   20.0991 C   0  0  0  0  0  0
  -25.5890  -33.8624   24.2333 N   0  0  0  0  0  0
  -23.4026  -30.4894   21.5493 C   0  0  2  0  0  0
  -24.8529  -28.9534   20.1166 C   0  0  0  0  0  0
  -22.7410  -29.4649   22.4991 C   0  0  0  0  0  0
  -18.0268  -28.1377   22.8485 C   0  0  0  0  0  0
  -24.1486  -36.7319   23.2640 C   0  0  0  0  0  0
  -25.9296  -30.8365   21.3623 C   0  0  0  0  0  0
  -26.0104  -29.4683   20.7160 C   0  0  0  0  0  0
  -27.2087  -28.7184   20.7094 C   0  0  0  0  0  0
  -26.0707  -26.9399   19.4946 C   0  0  0  0  0  0
  -24.8766  -27.6868   19.5050 C   0  0  0  0  0  0
  -23.6131  -29.8187   20.1647 C   0  0  0  0  0  0
  -25.4105  -36.3115   24.0345 C   0  0  1  0  0  0
  -20.5860  -28.3655   23.1321 C   0  0  2  0  0  0
  -20.6757  -26.9393   22.5419 C   0  0  0  0  0  0
  -19.5737  -26.6384   21.5213 C   0  0  0  0  0  0
  -18.1913  -26.7921   22.1623 C   0  0  0  0  0  0
  -19.1518  -28.8833   23.2899 C   0  0  0  0  0  0
  -18.9450  -30.1439   23.8905 C   0  0  0  0  0  0
  -17.6453  -30.6579   24.0563 C   0  0  0  0  0  0
  -25.9031  -34.9478   23.5136 C   0  0  0  0  0  0
  -16.5343  -29.9081   23.6327 C   0  0  0  0  0  0
  -16.7259  -28.6503   23.0341 C   0  0  0  0  0  0
  -26.4464  -31.6600   25.0716 C   0  0  0  0  0  0
  -25.3739  -31.3700   26.1470 C   0  0  0  0  0  0
  -27.0287  -30.3049   24.6069 C   0  0  0  0  0  0
  -27.6040  -32.4317   25.7480 C   0  0  0  0  0  0
  -27.5579  -37.1812   24.8466 C   0  0  0  0  0  0
  -21.4139  -29.3022   22.3733 N   0  0  0  0  0  0
  -26.4294  -37.3795   23.9408 N   0  0  0  0  0  0
  -24.6663  -31.0792   22.0994 N   0  0  0  0  0  0
  -23.4184  -28.8193   23.3033 O   0  0  0  0  0  0
  -28.3853  -26.6877   20.0605 O   0  0  0  0  0  0
  -26.5593  -34.8927   22.4697 O   0  0  0  0  0  0
  -23.5328  -32.1424   23.7504 O   0  0  0  0  0  0
  -31.4352  -18.9011   21.2613 C   0  0  0  0  0  0
  -31.3568  -17.4955   21.1225 C   0  0  0  0  0  0
  -28.9782  -17.5980   21.5986 C   0  0  0  0  0  0
  -30.2913  -19.6715   21.5838 C   0  0  0  0  0  0
  -30.1238  -16.8220   21.3016 C   0  0  0  0  0  0
  -29.0535  -19.0034   21.7342 C   0  0  0  0  0  0
  -30.4321  -21.1188   21.8589 C   0  0  0  0  0  0
  -28.8999  -24.3804   20.8099 C   0  0  0  0  0  0
  -29.3777  -23.3388   21.8519 C   0  0  0  0  0  0
  -29.5843  -22.9942   24.3800 C   0  0  0  0  0  0
  -28.5674  -25.8420   21.2064 C   0  0  0  0  0  0
  -31.4710  -21.5083   22.6034 N   0  3  0  0  0  0
  -29.9695  -15.3998   21.2473 N   0  0  0  0  0  0
  -29.5924  -22.0674   21.3831 N   0  0  0  0  0  0
  -29.4640  -23.7697   23.1388 N   0  3  0  0  0  0
  -28.7781  -23.9988   19.6387 O   0  0  0  0  0  0
  -27.9339  -19.6968   22.0554 F   0  0  0  0  0  0
  -31.4732  -12.4218   19.1098 H   0  0  0  0  0  0
  -30.3437  -11.2908   19.7969 H   0  0  0  0  0  0
  -29.7340  -11.7944   17.4173 H   0  0  0  0  0  0
  -29.6613  -13.5019   17.7717 H   0  0  0  0  0  0
  -27.8236  -11.3133   18.8005 H   0  0  0  0  0  0
  -27.3657  -12.6549   17.7858 H   0  0  0  0  0  0
  -27.7170  -14.2511   19.5958 H   0  0  0  0  0  0
  -28.6830  -11.9043   21.3005 H   0  0  0  0  0  0
  -28.4571  -13.5133   21.8953 H   0  0  0  0  0  0
  -25.2755   -9.5684   22.4754 H   0  0  0  0  0  0
  -24.0000   -7.4631   22.7471 H   0  0  0  0  0  0
  -21.0835   -8.8766   19.8951 H   0  0  0  0  0  0
  -22.3686  -10.9669   19.6163 H   0  0  0  0  0  0
  -21.1999   -7.6146   23.9715 H   0  0  0  0  0  0
  -21.1483   -6.0522   25.9077 H   0  0  0  0  0  0
  -22.0599   -2.7609   23.2849 H   0  0  0  0  0  0
  -22.4111  -11.9891   22.4775 H   0  0  0  0  0  0
  -21.1127  -13.1269   22.2597 H   0  0  0  0  0  0
  -24.6631  -15.8377   20.4919 H   0  0  0  0  0  0
  -26.2720  -15.6128   20.0291 H   0  0  0  0  0  0
  -26.7104  -32.5550   23.1172 H   0  0  0  0  0  0
  -25.0043  -33.9786   25.0478 H   0  0  0  0  0  0
  -22.6902  -31.3048   21.4079 H   0  0  0  0  0  0
  -23.3741  -35.9663   23.3317 H   0  0  0  0  0  0
  -24.3584  -36.8918   22.2053 H   0  0  0  0  0  0
  -23.7246  -37.6536   23.6642 H   0  0  0  0  0  0
  -26.0364  -31.6003   20.5904 H   0  0  0  0  0  0
  -26.8194  -30.8962   21.9768 H   0  0  0  0  0  0
  -28.1049  -29.1141   21.1665 H   0  0  0  0  0  0
  -26.0880  -25.9701   19.0171 H   0  0  0  0  0  0
  -23.9881  -27.2847   19.0377 H   0  0  0  0  0  0
  -23.7208  -30.5920   19.4033 H   0  0  0  0  0  0
  -22.7383  -29.2367   19.8695 H   0  0  0  0  0  0
  -25.1279  -36.1989   25.0838 H   0  0  0  0  0  0
  -20.9946  -28.3215   24.1445 H   0  0  0  0  0  0
  -20.5663  -26.2258   23.3602 H   0  0  0  0  0  0
  -21.6626  -26.7435   22.1208 H   0  0  0  0  0  0
  -19.6900  -25.6303   21.1223 H   0  0  0  0  0  0
  -19.6682  -27.3208   20.6755 H   0  0  0  0  0  0
  -17.4187  -26.6671   21.4023 H   0  0  0  0  0  0
  -18.0307  -26.0060   22.9019 H   0  0  0  0  0  0
  -19.7929  -30.7247   24.2280 H   0  0  0  0  0  0
  -17.5012  -31.6261   24.5157 H   0  0  0  0  0  0
  -15.5343  -30.2985   23.7652 H   0  0  0  0  0  0
  -15.8659  -28.0832   22.7042 H   0  0  0  0  0  0
  -24.5910  -30.7047   25.7812 H   0  0  0  0  0  0
  -24.8929  -32.2852   26.4934 H   0  0  0  0  0  0
  -25.8100  -30.8862   27.0218 H   0  0  0  0  0  0
  -26.2815  -29.6819   24.1140 H   0  0  0  0  0  0
  -27.4085  -29.7279   25.4512 H   0  0  0  0  0  0
  -27.8642  -30.4380   23.9191 H   0  0  0  0  0  0
  -27.2658  -33.3608   26.2085 H   0  0  0  0  0  0
  -28.3838  -32.6897   25.0298 H   0  0  0  0  0  0
  -28.0723  -31.8423   26.5375 H   0  0  0  0  0  0
  -28.2602  -38.0102   24.7502 H   0  0  0  0  0  0
  -28.1066  -36.2633   24.6306 H   0  0  0  0  0  0
  -27.2296  -37.1481   25.8870 H   0  0  0  0  0  0
  -20.9300  -29.8756   21.6966 H   0  0  0  0  0  0
  -26.0189  -38.2879   24.1399 H   0  0  0  0  0  0
  -32.3968  -19.3812   21.1416 H   0  0  0  0  0  0
  -32.2655  -16.9515   20.9075 H   0  0  0  0  0  0
  -28.0209  -17.1205   21.7462 H   0  0  0  0  0  0
  -29.1222  -23.5388   25.2029 H   0  0  0  0  0  0
  -30.6275  -22.8239   24.6408 H   0  0  0  0  0  0
  -29.0757  -22.0352   24.2926 H   0  0  0  0  0  0
  -29.3822  -26.2524   21.8030 H   0  0  0  0  0  0
  -27.6735  -25.8395   21.8326 H   0  0  0  0  0  0
  -32.0267  -20.7888   23.0439 H   0  0  0  0  0  0
  -31.9381  -22.3818   22.4192 H   0  0  0  0  0  0
  -29.0927  -15.0473   21.5969 H   0  0  0  0  0  0
  -29.1532  -21.8741   20.4909 H   0  0  0  0  0  0
  -29.3446  -24.7558   23.3021 H   0  0  0  0  0  0
  1 25  1  0  0  0
  1 30  2  0  0  0
  1 83  1  0  0  0
  2  3  1  0  0  0
  2 25  1  0  0  0
  2 88  1  0  0  0
  2 89  1  0  0  0
  3  4  1  0  0  0
  3 90  1  0  0  0
  3 91  1  0  0  0
  4  5  1  0  0  0
  4 92  1  0  0  0
  4 93  1  0  0  0
  5  6  1  0  0  0
  5 26  1  0  0  0
  5 94  1  0  0  0
  6 25  1  0  0  0
  6 95  1  0  0  0
  6 96  1  0  0  0
  7  8  2  0  0  0
  7 26  1  0  0  0
  7 29  1  0  0  0
  8  9  1  0  0  0
  8 22  1  0  0  0
  9 10  1  0  0  0
  9 27  2  0  0  0
 10 11  2  0  0  0
 10 15  1  0  0  0
 11 12  1  0  0  0
 11 97  1  0  0  0
 12 13  2  0  0  0
 12 98  1  0  0  0
 13 14  1  0  0  0
 13 31  1  0  0  0
 14 15  2  0  0  0
 14 99  1  0  0  0
 15100  1  0  0  0
 16 17  2  0  0  0
 16 21  1  0  0  0
 16 31  1  0  0  0
 17 18  1  0  0  0
 17101  1  0  0  0
 18 19  2  0  0  0
 18102  1  0  0  0
 19 20  1  0  0  0
 19 24  1  0  0  0
 20 21  2  0  0  0
 20103  1  0  0  0
 21 23  1  0  0  0
 22 28  1  0  0  0
 22 32  2  0  0  0
 26 27  1  0  0  0
 28104  1  0  0  0
 28105  1  0  0  0
 29106  1  0  0  0
 29107  1  0  0  0
 33 34  1  0  0  0
 33 66  1  0  0  0
 33 70  2  0  0  0
 34 36  1  0  0  0
 34 59  1  0  0  0
 34108  1  0  0  0
 35 44  2  0  0  0
 35 45  1  0  0  0
 35 68  1  0  0  0
 36 56  1  0  0  0
 36109  1  0  0  0
 37 39  1  0  0  0
 37 47  1  0  0  0
 37 66  1  0  0  0
 37110  1  0  0  0
 38 43  2  0  0  0
 38 46  1  0  0  0
 38 47  1  0  0  0
 39 64  1  0  0  0
 39 67  2  0  0  0
 40 52  1  0  0  0
 40 53  2  0  0  0
 40 58  1  0  0  0
 41111  1  0  0  0
 41112  1  0  0  0
 41113  1  0  0  0
 41 48  1  0  0  0
 42 43  1  0  0  0
 42 66  1  0  0  0
 42114  1  0  0  0
 42115  1  0  0  0
 43 44  1  0  0  0
 44116  1  0  0  0
 45 46  2  0  0  0
 45117  1  0  0  0
 46118  1  0  0  0
 47119  1  0  0  0
 47120  1  0  0  0
 48 56  1  0  0  0
 48 65  1  0  0  0
 48121  1  0  0  0
 49 50  1  0  0  0
 49 53  1  0  0  0
 49 64  1  0  0  0
 49122  1  0  0  0
 50 51  1  0  0  0
 50123  1  0  0  0
 50124  1  0  0  0
 51 52  1  0  0  0
 51125  1  0  0  0
 51126  1  0  0  0
 52127  1  0  0  0
 52128  1  0  0  0
 53 54  1  0  0  0
 54 55  2  0  0  0
 54129  1  0  0  0
 55 57  1  0  0  0
 55130  1  0  0  0
 56 69  2  0  0  0
 57 58  2  0  0  0
 57131  1  0  0  0
 58132  1  0  0  0
 59 60  1  0  0  0
 59 61  1  0  0  0
 59 62  1  0  0  0
 60133  1  0  0  0
 60134  1  0  0  0
 60135  1  0  0  0
 61136  1  0  0  0
 61137  1  0  0  0
 61138  1  0  0  0
 62139  1  0  0  0
 62140  1  0  0  0
 62141  1  0  0  0
 63 65  1  0  0  0
 63142  1  0  0  0
 63143  1  0  0  0
 63144  1  0  0  0
 64145  1  0  0  0
 65146  1  0  0  0
 68 81  1  0  0  0
 71 72  2  0  0  0
 71 74  1  0  0  0
 71147  1  0  0  0
 72 75  1  0  0  0
 72148  1  0  0  0
 73 75  2  0  0  0
 73 76  1  0  0  0
 73149  1  0  0  0
 74 76  2  0  0  0
 74 77  1  0  0  0
 75 83  1  0  0  0
 76 87  1  0  0  0
 77 82  2  0  0  0
 77 84  1  0  0  0
 78 79  1  0  0  0
 78 81  1  0  0  0
 78 86  2  0  0  0
 79 84  1  0  0  0
 79 85  2  0  0  0
 80 85  1  0  0  0
 80150  1  0  0  0
 80151  1  0  0  0
 80152  1  0  0  0
 81153  1  0  0  0
 81154  1  0  0  0
 82155  1  0  0  0
 82156  1  0  0  0
 83157  1  0  0  0
 84158  1  0  0  0
 85159  1  0  0  0
M  CHG  2  82   1  85   1
M  ISO  4   1 100  68 101  81 101  83 100
M  END
> <chiral flag>
0

> <version>
0

> <s_m_source_file>
/data/baiqing/PycharmProjects/Reinvent-master-3.2/result/LINK_invent/BTK/process_docking_weight1_custom_product_contain_oxygen_bond_distance_aromatic_linkinvent_7_9_3/rearranged_h_0168.sdf

> <i_m_source_file_index>
23

> <r_mmod_Potential_Energy-OPLS-2005>
-517.750793457031

> <r_mmod_Stretch_Energy-OPLS-2005>
41.645809173584

> <r_mmod_Bend_Energy-OPLS-2005>
113.546897888184

> <r_mmod_Torsional_Energy-OPLS-2005>
279.826385498047

> <r_mmod_Improper_Torsional_Energy-OPLS-2005>
6.05458974838257

> <r_mmod_Van_der_Waal_Energy-OPLS-2005>
161.847229003906

> <r_mmod_Electrostatic_Energy-OPLS-2005>
-92.9888687133789

> <r_mmod_Solvation_Energy-OPLS-2005>
-1037.89782714844

> <b_mmod_Minimization_Converged-OPLS-2005>
0

> <r_mmod_RMS_Derivative-OPLS-2005>
0.680851101875305

$$$$
23
                    3D
 Structure written by MMmdl.
152160  0  0  1  0            999 V2000
  -30.6753  -14.5845   20.6579 C   0  0  0  0  0  0
  -30.4466  -12.4097   19.4411 C   0  0  0  0  0  0
  -29.5199  -12.5509   18.2176 C   0  0  0  0  0  0
  -28.0427  -12.3766   18.6199 C   0  0  0  0  0  0
  -27.6692  -13.2157   19.8704 C   0  0  2  0  0  0
  -28.7051  -13.0234   20.9996 C   0  0  0  0  0  0
  -25.2693  -13.8169   20.5583 C   0  0  0  0  0  0
  -24.1943  -13.0454   20.9108 C   0  0  0  0  0  0
  -24.6463  -11.6922   20.8695 C   0  0  0  0  0  0
  -23.9103  -10.4337   21.0318 C   0  0  0  0  0  0
  -24.3665   -9.4282   21.9076 C   0  0  0  0  0  0
  -23.6295   -8.2358   22.0729 C   0  0  0  0  0  0
  -22.4248   -8.0390   21.3557 C   0  0  0  0  0  0
  -21.9916   -9.0330   20.4603 C   0  0  0  0  0  0
  -22.7270  -10.2193   20.2957 C   0  0  0  0  0  0
  -21.6830   -6.0830   22.5315 C   0  0  0  0  0  0
  -21.4014   -6.5699   23.8279 C   0  0  0  0  0  0
  -21.3616   -5.6795   24.9190 C   0  0  0  0  0  0
  -21.6026   -4.3078   24.7221 C   0  0  0  0  0  0
  -21.8805   -3.8209   23.4316 C   0  0  0  0  0  0
  -21.9174   -4.7070   22.3401 C   0  0  0  0  0  0
  -22.7944  -13.5253   21.1818 C   0  0  0  0  0  0
  -22.1662   -4.2238   21.0962 F   0  0  0  0  0  0
  -21.5554   -3.4558   25.7713 F   0  0  0  0  0  0
  -30.0263  -13.3896   20.4580 N   0  0  0  0  0  0
  -26.3099  -12.9311   20.3253 N   0  0  0  0  0  0
  -25.9374  -11.6488   20.5653 N   0  0  0  0  0  0
  -22.0584  -12.8188   22.0314 N   0  0  0  0  0  0
  -25.4494  -15.1853   20.3938 N   0  0  0  0  0  0
  -31.6928  -14.8570   20.0234 O   0  0  0  0  0  0
  -21.6618   -6.8978   21.4279 O   0  0  0  0  0  0
  -22.3576  -14.5575   20.6716 O   0  0  0  0  0  0
  -24.6204  -31.8612   23.2075 C   0  0  0  0  0  0
  -25.9069  -32.4790   23.8374 C   0  0  1  0  0  0
  -27.2306  -27.3446   20.1207 C   0  0  0  0  0  0
  -25.5902  -33.8584   24.2280 N   0  0  0  0  0  0
  -23.4130  -30.4865   21.5505 C   0  0  2  0  0  0
  -24.8604  -28.9490   20.1129 C   0  0  0  0  0  0
  -22.7448  -29.4620   22.4979 C   0  0  0  0  0  0
  -18.0280  -28.1370   22.8478 C   0  0  0  0  0  0
  -24.1500  -36.7325   23.2639 C   0  0  0  0  0  0
  -25.9522  -30.8045   21.3739 C   0  0  0  0  0  0
  -26.0303  -29.4358   20.7138 C   0  0  0  0  0  0
  -27.2190  -28.6462   20.7050 C   0  0  0  0  0  0
  -26.0405  -26.9155   19.4870 C   0  0  0  0  0  0
  -24.8653  -27.6902   19.4973 C   0  0  0  0  0  0
  -23.6241  -29.8254   20.1642 C   0  0  0  0  0  0
  -25.4122  -36.3095   24.0323 C   0  0  1  0  0  0
  -20.5870  -28.3644   23.1318 C   0  0  2  0  0  0
  -20.6772  -26.9373   22.5432 C   0  0  0  0  0  0
  -19.5749  -26.6355   21.5236 C   0  0  0  0  0  0
  -18.1920  -26.7905   22.1631 C   0  0  0  0  0  0
  -19.1527  -28.8835   23.2885 C   0  0  0  0  0  0
  -18.9455  -30.1458   23.8873 C   0  0  0  0  0  0
  -17.6462  -30.6579   24.0559 C   0  0  0  0  0  0
  -25.9060  -34.9468   23.5134 C   0  0  0  0  0  0
  -16.5356  -29.9073   23.6340 C   0  0  0  0  0  0
  -16.7267  -28.6501   23.0321 C   0  0  0  0  0  0
  -26.4461  -31.6584   25.0744 C   0  0  0  0  0  0
  -25.3730  -31.3711   26.1506 C   0  0  0  0  0  0
  -27.0310  -30.3009   24.6187 C   0  0  0  0  0  0
  -27.6009  -32.4354   25.7527 C   0  0  0  0  0  0
  -27.5598  -37.1812   24.8456 C   0  0  0  0  0  0
  -21.4176  -29.3023   22.3727 N   0  0  0  0  0  0
  -26.4304  -37.3793   23.9401 N   0  0  0  0  0  0
  -24.6805  -31.0664   22.1021 N   0  0  0  0  0  0
  -23.4190  -28.8165   23.3036 O   0  0  0  0  0  0
  -28.3397  -26.4904   20.1737 O   0  0  0  0  0  0
  -26.5644  -34.8928   22.4714 O   0  0  0  0  0  0
  -23.5386  -32.1387   23.7433 O   0  0  0  0  0  0
  -29.3149  -19.8760   18.9706 C   0  0  0  0  0  0
  -29.2586  -18.5348   18.5820 C   0  0  0  0  0  0
  -29.7179  -20.1419   20.2828 C   0  0  0  0  0  0
  -29.9162  -17.8216   20.6460 C   0  0  0  0  0  0
  -29.9742  -16.6860   21.6628 C   0  0  0  0  0  0
  -29.1814  -24.0215   20.4671 C   0  0  0  0  0  0
  -28.7692  -22.5010   20.4566 C   0  0  0  0  0  0
  -28.0136  -25.0807   20.4776 C   0  0  0  0  0  0
  -29.5669  -17.5192   19.3939 N   0  0  0  0  0  0
  -30.0184  -19.1025   21.1027 N   0  0  0  0  0  0
  -30.1457  -15.3904   21.6772 N   0  0  0  0  0  0
  -28.8515  -18.1782   17.3116 N   0  0  0  0  0  0
  -29.8120  -21.4725   20.7775 N   0  0  0  0  0  0
  -30.3771  -24.3470   20.4598 O   0  0  0  0  0  0
  -31.4856  -12.5478   19.1444 H   0  0  0  0  0  0
  -30.3972  -11.3991   19.8505 H   0  0  0  0  0  0
  -29.7921  -11.8210   17.4533 H   0  0  0  0  0  0
  -29.6595  -13.5375   17.7700 H   0  0  0  0  0  0
  -27.8772  -11.3190   18.8352 H   0  0  0  0  0  0
  -27.3955  -12.6223   17.7764 H   0  0  0  0  0  0
  -27.7094  -14.2623   19.5725 H   0  0  0  0  0  0
  -28.7040  -11.9891   21.3390 H   0  0  0  0  0  0
  -28.4250  -13.6077   21.8733 H   0  0  0  0  0  0
  -25.2863   -9.5764   22.4604 H   0  0  0  0  0  0
  -23.9954   -7.4742   22.7458 H   0  0  0  0  0  0
  -21.0806   -8.8879   19.8938 H   0  0  0  0  0  0
  -22.3764  -10.9737   19.6073 H   0  0  0  0  0  0
  -21.2055   -7.6214   23.9834 H   0  0  0  0  0  0
  -21.1376   -6.0495   25.9086 H   0  0  0  0  0  0
  -22.0590   -2.7693   23.2751 H   0  0  0  0  0  0
  -22.4115  -11.9779   22.4614 H   0  0  0  0  0  0
  -21.1292  -13.1295   22.2730 H   0  0  0  0  0  0
  -24.6932  -15.8556   20.4808 H   0  0  0  0  0  0
  -26.3078  -15.6054   20.0565 H   0  0  0  0  0  0
  -26.7153  -32.5453   23.1136 H   0  0  0  0  0  0
  -24.9972  -33.9710   25.0364 H   0  0  0  0  0  0
  -22.7025  -31.3032   21.4095 H   0  0  0  0  0  0
  -23.3761  -35.9680   23.3319 H   0  0  0  0  0  0
  -24.3589  -36.8923   22.2058 H   0  0  0  0  0  0
  -23.7259  -37.6521   23.6665 H   0  0  0  0  0  0
  -26.0861  -31.5674   20.6071 H   0  0  0  0  0  0
  -26.8334  -30.8444   22.0033 H   0  0  0  0  0  0
  -28.1138  -29.0196   21.1851 H   0  0  0  0  0  0
  -25.9845  -25.9652   18.9828 H   0  0  0  0  0  0
  -23.9744  -27.3090   19.0165 H   0  0  0  0  0  0
  -23.7380  -30.6001   19.4020 H   0  0  0  0  0  0
  -22.7456  -29.2485   19.8656 H   0  0  0  0  0  0
  -25.1327  -36.1968   25.0818 H   0  0  0  0  0  0
  -20.9953  -28.3225   24.1441 H   0  0  0  0  0  0
  -20.5678  -26.2279   23.3602 H   0  0  0  0  0  0
  -21.6644  -26.7419   22.1234 H   0  0  0  0  0  0
  -19.6914  -25.6277   21.1227 H   0  0  0  0  0  0
  -19.6686  -27.3198   20.6769 H   0  0  0  0  0  0
  -17.4195  -26.6637   21.4020 H   0  0  0  0  0  0
  -18.0339  -26.0049   22.9031 H   0  0  0  0  0  0
  -19.7940  -30.7282   24.2193 H   0  0  0  0  0  0
  -17.5013  -31.6235   24.5193 H   0  0  0  0  0  0
  -15.5353  -30.2964   23.7675 H   0  0  0  0  0  0
  -15.8651  -28.0830   22.7013 H   0  0  0  0  0  0
  -24.5851  -30.7122   25.7849 H   0  0  0  0  0  0
  -24.9009  -32.2890   26.5022 H   0  0  0  0  0  0
  -25.8097  -30.8791   27.0206 H   0  0  0  0  0  0
  -26.2893  -29.6776   24.1188 H   0  0  0  0  0  0
  -27.3968  -29.7260   25.4696 H   0  0  0  0  0  0
  -27.8786  -30.4287   23.9463 H   0  0  0  0  0  0
  -27.2538  -33.3596   26.2169 H   0  0  0  0  0  0
  -28.3789  -32.7004   25.0367 H   0  0  0  0  0  0
  -28.0728  -31.8452   26.5369 H   0  0  0  0  0  0
  -28.2615  -38.0103   24.7539 H   0  0  0  0  0  0
  -28.1086  -36.2640   24.6283 H   0  0  0  0  0  0
  -27.2317  -37.1516   25.8850 H   0  0  0  0  0  0
  -20.9352  -29.8739   21.6932 H   0  0  0  0  0  0
  -26.0193  -38.2891   24.1359 H   0  0  0  0  0  0
  -29.0736  -20.6665   18.2752 H   0  0  0  0  0  0
  -29.7080  -17.0820   22.6474 H   0  0  0  0  0  0
  -28.3224  -22.2895   19.4794 H   0  0  0  0  0  0
  -27.9545  -22.3937   21.1811 H   0  0  0  0  0  0
  -27.5557  -25.0480   21.4685 H   0  0  0  0  0  0
  -27.2799  -24.6810   19.7825 H   0  0  0  0  0  0
  -28.2953  -18.8550   16.8076 H   0  0  0  0  0  0
  -28.5099  -17.2311   17.2014 H   0  0  0  0  0  0
  -30.7591  -21.8421   20.8355 H   0  0  0  0  0  0
  1 25  1  0  0  0
  1 30  2  0  0  0
  1 81  1  0  0  0
  2  3  1  0  0  0
  2 25  1  0  0  0
  2 85  1  0  0  0
  2 86  1  0  0  0
  3  4  1  0  0  0
  3 87  1  0  0  0
  3 88  1  0  0  0
  4  5  1  0  0  0
  4 89  1  0  0  0
  4 90  1  0  0  0
  5  6  1  0  0  0
  5 26  1  0  0  0
  5 91  1  0  0  0
  6 25  1  0  0  0
  6 92  1  0  0  0
  6 93  1  0  0  0
  7  8  2  0  0  0
  7 26  1  0  0  0
  7 29  1  0  0  0
  8  9  1  0  0  0
  8 22  1  0  0  0
  9 10  1  0  0  0
  9 27  2  0  0  0
 10 11  2  0  0  0
 10 15  1  0  0  0
 11 12  1  0  0  0
 11 94  1  0  0  0
 12 13  2  0  0  0
 12 95  1  0  0  0
 13 14  1  0  0  0
 13 31  1  0  0  0
 14 15  2  0  0  0
 14 96  1  0  0  0
 15 97  1  0  0  0
 16 17  2  0  0  0
 16 21  1  0  0  0
 16 31  1  0  0  0
 17 18  1  0  0  0
 17 98  1  0  0  0
 18 19  2  0  0  0
 18 99  1  0  0  0
 19 20  1  0  0  0
 19 24  1  0  0  0
 20 21  2  0  0  0
 20100  1  0  0  0
 21 23  1  0  0  0
 22 28  1  0  0  0
 22 32  2  0  0  0
 26 27  1  0  0  0
 28101  1  0  0  0
 28102  1  0  0  0
 29103  1  0  0  0
 29104  1  0  0  0
 33 34  1  0  0  0
 33 66  1  0  0  0
 33 70  2  0  0  0
 34 36  1  0  0  0
 34 59  1  0  0  0
 34105  1  0  0  0
 35 44  2  0  0  0
 35 45  1  0  0  0
 35 68  1  0  0  0
 36 56  1  0  0  0
 36106  1  0  0  0
 37 39  1  0  0  0
 37 47  1  0  0  0
 37 66  1  0  0  0
 37107  1  0  0  0
 38 43  2  0  0  0
 38 46  1  0  0  0
 38 47  1  0  0  0
 39 64  1  0  0  0
 39 67  2  0  0  0
 40 52  1  0  0  0
 40 53  2  0  0  0
 40 58  1  0  0  0
 41108  1  0  0  0
 41109  1  0  0  0
 41110  1  0  0  0
 41 48  1  0  0  0
 42 43  1  0  0  0
 42 66  1  0  0  0
 42111  1  0  0  0
 42112  1  0  0  0
 43 44  1  0  0  0
 44113  1  0  0  0
 45 46  2  0  0  0
 45114  1  0  0  0
 46115  1  0  0  0
 47116  1  0  0  0
 47117  1  0  0  0
 48 56  1  0  0  0
 48 65  1  0  0  0
 48118  1  0  0  0
 49 50  1  0  0  0
 49 53  1  0  0  0
 49 64  1  0  0  0
 49119  1  0  0  0
 50 51  1  0  0  0
 50120  1  0  0  0
 50121  1  0  0  0
 51 52  1  0  0  0
 51122  1  0  0  0
 51123  1  0  0  0
 52124  1  0  0  0
 52125  1  0  0  0
 53 54  1  0  0  0
 54 55  2  0  0  0
 54126  1  0  0  0
 55 57  1  0  0  0
 55127  1  0  0  0
 56 69  2  0  0  0
 57 58  2  0  0  0
 57128  1  0  0  0
 58129  1  0  0  0
 59 60  1  0  0  0
 59 61  1  0  0  0
 59 62  1  0  0  0
 60130  1  0  0  0
 60131  1  0  0  0
 60132  1  0  0  0
 61133  1  0  0  0
 61134  1  0  0  0
 61135  1  0  0  0
 62136  1  0  0  0
 62137  1  0  0  0
 62138  1  0  0  0
 63 65  1  0  0  0
 63139  1  0  0  0
 63140  1  0  0  0
 63141  1  0  0  0
 64142  1  0  0  0
 65143  1  0  0  0
 68 78  1  0  0  0
 71 72  2  0  0  0
 71 73  1  0  0  0
 71144  1  0  0  0
 72 79  1  0  0  0
 72 82  1  0  0  0
 73 80  2  0  0  0
 73 83  1  0  0  0
 74 75  1  0  0  0
 74 79  2  0  0  0
 74 80  1  0  0  0
 75 81  2  0  0  0
 75145  1  0  0  0
 76 77  1  0  0  0
 76 78  1  0  0  0
 76 84  2  0  0  0
 77 83  1  0  0  0
 77146  1  0  0  0
 77147  1  0  0  0
 78148  1  0  0  0
 78149  1  0  0  0
 82150  1  0  0  0
 82151  1  0  0  0
 83152  1  0  0  0
M  ISO  4   1 100  68 101  78 101  81 100
M  END
> <chiral flag>
0

> <version>
0

> <s_m_source_file>
/data/baiqing/PycharmProjects/Reinvent-master-3.2/result/LINK_invent/BTK/process_docking_weight1_custom_product_contain_oxygen_bond_distance_aromatic_linkinvent_7_9_3/rearranged_h_0168.sdf

> <i_m_source_file_index>
24

> <r_mmod_Potential_Energy-OPLS-2005>
-574.119689941406

> <r_mmod_Stretch_Energy-OPLS-2005>
72.9888153076172

> <r_mmod_Bend_Energy-OPLS-2005>
171.637832641602

> <r_mmod_Torsional_Energy-OPLS-2005>
214.145004272461

> <r_mmod_Improper_Torsional_Energy-OPLS-2005>
10.722635269165

> <r_mmod_Van_der_Waal_Energy-OPLS-2005>
153.730880737305

> <r_mmod_Electrostatic_Energy-OPLS-2005>
-989.807067871094

> <r_mmod_Solvation_Energy-OPLS-2005>
-246.411437988281

> <b_mmod_Minimization_Converged-OPLS-2005>
0

> <r_mmod_RMS_Derivative-OPLS-2005>
7.51900577545166

$$$$
24
                    3D
 Structure written by MMmdl.
160168  0  0  1  0            999 V2000
  -30.7393  -14.4885   20.5167 C   0  0  0  0  0  0
  -30.4039  -12.3025   19.4430 C   0  0  0  0  0  0
  -29.4909  -12.4851   18.2148 C   0  0  0  0  0  0
  -28.0135  -12.3523   18.6272 C   0  0  0  0  0  0
  -27.6536  -13.2193   19.8644 C   0  0  2  0  0  0
  -28.6974  -13.0656   20.9947 C   0  0  0  0  0  0
  -25.2555  -13.8193   20.5695 C   0  0  0  0  0  0
  -24.1823  -13.0450   20.9195 C   0  0  0  0  0  0
  -24.6394  -11.6922   20.8748 C   0  0  0  0  0  0
  -23.9067  -10.4298   21.0408 C   0  0  0  0  0  0
  -24.3618   -9.4212   21.9185 C   0  0  0  0  0  0
  -23.6294   -8.2246   22.0753 C   0  0  0  0  0  0
  -22.4278   -8.0284   21.3545 C   0  0  0  0  0  0
  -21.9914   -9.0256   20.4646 C   0  0  0  0  0  0
  -22.7239  -10.2137   20.3057 C   0  0  0  0  0  0
  -21.6856   -6.0739   22.5278 C   0  0  0  0  0  0
  -21.4013   -6.5642   23.8211 C   0  0  0  0  0  0
  -21.3659   -5.6795   24.9174 C   0  0  0  0  0  0
  -21.6046   -4.3058   24.7225 C   0  0  0  0  0  0
  -21.8819   -3.8150   23.4345 C   0  0  0  0  0  0
  -21.9191   -4.6966   22.3401 C   0  0  0  0  0  0
  -22.7844  -13.5237   21.1853 C   0  0  0  0  0  0
  -22.1662   -4.2151   21.0979 F   0  0  0  0  0  0
  -21.5628   -3.4541   25.7736 F   0  0  0  0  0  0
  -30.0257  -13.3326   20.4262 N   0  0  0  0  0  0
  -26.2990  -12.9386   20.3345 N   0  0  0  0  0  0
  -25.9324  -11.6535   20.5778 N   0  0  0  0  0  0
  -22.0488  -12.8222   22.0408 N   0  0  0  0  0  0
  -25.4273  -15.1912   20.4101 N   0  0  0  0  0  0
  -31.9128  -14.5345   20.1518 O   0  0  0  0  0  0
  -21.6643   -6.8882   21.4241 O   0  0  0  0  0  0
  -22.3529  -14.5545   20.6707 O   0  0  0  0  0  0
  -24.6172  -31.8685   23.2131 C   0  0  0  0  0  0
  -25.9062  -32.4824   23.8419 C   0  0  1  0  0  0
  -27.2170  -27.4076   20.0936 C   0  0  0  0  0  0
  -25.5913  -33.8624   24.2342 N   0  0  0  0  0  0
  -23.4045  -30.4974   21.5547 C   0  0  2  0  0  0
  -24.8466  -28.9723   20.1102 C   0  0  0  0  0  0
  -22.7423  -29.4669   22.4985 C   0  0  0  0  0  0
  -18.0275  -28.1375   22.8493 C   0  0  0  0  0  0
  -24.1490  -36.7319   23.2637 C   0  0  0  0  0  0
  -25.9388  -30.8246   21.3740 C   0  0  0  0  0  0
  -26.0107  -29.4606   20.7158 C   0  0  0  0  0  0
  -27.1972  -28.6849   20.7094 C   0  0  0  0  0  0
  -26.0347  -26.9657   19.4470 C   0  0  0  0  0  0
  -24.8553  -27.7250   19.4726 C   0  0  0  0  0  0
  -23.6119  -29.8414   20.1657 C   0  0  0  0  0  0
  -25.4109  -36.3112   24.0337 C   0  0  1  0  0  0
  -20.5869  -28.3669   23.1310 C   0  0  2  0  0  0
  -20.6769  -26.9403   22.5412 C   0  0  0  0  0  0
  -19.5744  -26.6384   21.5212 C   0  0  0  0  0  0
  -18.1924  -26.7922   22.1625 C   0  0  0  0  0  0
  -19.1526  -28.8837   23.2901 C   0  0  0  0  0  0
  -18.9452  -30.1443   23.8911 C   0  0  0  0  0  0
  -17.6455  -30.6584   24.0564 C   0  0  0  0  0  0
  -25.9037  -34.9477   23.5135 C   0  0  0  0  0  0
  -16.5346  -29.9084   23.6329 C   0  0  0  0  0  0
  -16.7265  -28.6501   23.0350 C   0  0  0  0  0  0
  -26.4482  -31.6602   25.0748 C   0  0  0  0  0  0
  -25.3741  -31.3704   26.1491 C   0  0  0  0  0  0
  -27.0315  -30.3040   24.6137 C   0  0  0  0  0  0
  -27.6057  -32.4322   25.7504 C   0  0  0  0  0  0
  -27.5584  -37.1815   24.8465 C   0  0  0  0  0  0
  -21.4150  -29.3041   22.3718 N   0  0  0  0  0  0
  -26.4298  -37.3793   23.9407 N   0  0  0  0  0  0
  -24.6720  -31.0774   22.1047 N   0  0  0  0  0  0
  -23.4193  -28.8194   23.3015 O   0  0  0  0  0  0
  -28.3597  -26.6200   20.1502 O   0  0  0  0  0  0
  -26.5594  -34.8925   22.4694 O   0  0  0  0  0  0
  -23.5359  -32.1451   23.7508 O   0  0  0  0  0  0
  -29.6543  -18.0364   21.2202 C   0  0  0  0  0  0
  -31.5907  -17.3855   19.9086 C   0  0  0  0  0  0
  -29.9871  -19.4170   21.0652 C   0  0  0  0  0  0
  -30.4520  -16.9965   20.6657 C   0  0  0  0  0  0
  -31.9406  -18.7374   19.7509 C   0  0  0  0  0  0
  -31.1488  -19.7461   20.3245 C   0  0  0  0  0  0
  -29.0537  -24.2517   20.6643 C   0  0  0  0  0  0
  -28.8764  -20.2979   23.1890 C   0  0  0  0  0  0
  -28.5811  -22.7810   20.6806 C   0  0  0  0  0  0
  -28.1837  -25.2157   19.8344 C   0  0  0  0  0  0
  -29.0785  -20.5118   21.6772 C   0  0  1  0  0  0
  -33.0738  -19.0930   19.0171 N   0  0  0  0  0  0
  -30.0601  -15.6129   20.8577 N   0  0  0  0  0  0
  -29.5255  -21.9154   21.4331 N   0  3  0  0  0  0
  -30.0517  -24.6273   21.2915 O   0  0  0  0  0  0
  -31.5236  -21.0365   20.1319 F   0  0  0  0  0  0
  -31.4519  -12.3589   19.1436 H   0  0  0  0  0  0
  -30.2744  -11.3084   19.8735 H   0  0  0  0  0  0
  -29.7323  -11.7442   17.4516 H   0  0  0  0  0  0
  -29.6643  -13.4623   17.7609 H   0  0  0  0  0  0
  -27.8293  -11.3000   18.8468 H   0  0  0  0  0  0
  -27.3627  -12.6040   17.7890 H   0  0  0  0  0  0
  -27.6796  -14.2571   19.5316 H   0  0  0  0  0  0
  -28.6703  -12.0560   21.4077 H   0  0  0  0  0  0
  -28.4710  -13.7354   21.8256 H   0  0  0  0  0  0
  -25.2763   -9.5689   22.4761 H   0  0  0  0  0  0
  -24.0005   -7.4639   22.7471 H   0  0  0  0  0  0
  -21.0847   -8.8776   19.8950 H   0  0  0  0  0  0
  -22.3699  -10.9678   19.6167 H   0  0  0  0  0  0
  -21.2007   -7.6150   23.9716 H   0  0  0  0  0  0
  -21.1482   -6.0525   25.9077 H   0  0  0  0  0  0
  -22.0598   -2.7611   23.2844 H   0  0  0  0  0  0
  -22.4104  -11.9877   22.4785 H   0  0  0  0  0  0
  -21.1104  -13.1243   22.2617 H   0  0  0  0  0  0
  -24.6602  -15.8465   20.5137 H   0  0  0  0  0  0
  -26.2774  -15.6273   20.0760 H   0  0  0  0  0  0
  -26.7130  -32.5527   23.1179 H   0  0  0  0  0  0
  -25.0065  -33.9785   25.0488 H   0  0  0  0  0  0
  -22.6940  -31.3160   21.4217 H   0  0  0  0  0  0
  -23.3746  -35.9660   23.3308 H   0  0  0  0  0  0
  -24.3581  -36.8922   22.2049 H   0  0  0  0  0  0
  -23.7250  -37.6531   23.6644 H   0  0  0  0  0  0
  -26.0604  -31.5922   20.6085 H   0  0  0  0  0  0
  -26.8239  -30.8708   21.9965 H   0  0  0  0  0  0
  -28.0900  -29.0525   21.1964 H   0  0  0  0  0  0
  -25.9828  -26.0342   18.9041 H   0  0  0  0  0  0
  -23.9649  -27.3517   18.9856 H   0  0  0  0  0  0
  -23.7226  -30.6222   19.4123 H   0  0  0  0  0  0
  -22.7337  -29.2665   19.8665 H   0  0  0  0  0  0
  -25.1285  -36.1980   25.0829 H   0  0  0  0  0  0
  -20.9962  -28.3230   24.1429 H   0  0  0  0  0  0
  -20.5676  -26.2274   23.3598 H   0  0  0  0  0  0
  -21.6638  -26.7449   22.1199 H   0  0  0  0  0  0
  -19.6905  -25.6298   21.1230 H   0  0  0  0  0  0
  -19.6679  -27.3205   20.6748 H   0  0  0  0  0  0
  -17.4195  -26.6673   21.4027 H   0  0  0  0  0  0
  -18.0323  -26.0058   22.9014 H   0  0  0  0  0  0
  -19.7928  -30.7254   24.2285 H   0  0  0  0  0  0
  -17.5012  -31.6265   24.5163 H   0  0  0  0  0  0
  -15.5347  -30.2992   23.7643 H   0  0  0  0  0  0
  -15.8663  -28.0825   22.7057 H   0  0  0  0  0  0
  -24.5919  -30.7043   25.7828 H   0  0  0  0  0  0
  -24.8924  -32.2854   26.4948 H   0  0  0  0  0  0
  -25.8092  -30.8870   27.0246 H   0  0  0  0  0  0
  -26.2867  -29.6797   24.1183 H   0  0  0  0  0  0
  -27.4070  -29.7279   25.4606 H   0  0  0  0  0  0
  -27.8715  -30.4355   23.9311 H   0  0  0  0  0  0
  -27.2682  -33.3615   26.2104 H   0  0  0  0  0  0
  -28.3852  -32.6889   25.0318 H   0  0  0  0  0  0
  -28.0744  -31.8433   26.5396 H   0  0  0  0  0  0
  -28.2605  -38.0109   24.7508 H   0  0  0  0  0  0
  -28.1076  -36.2639   24.6297 H   0  0  0  0  0  0
  -27.2299  -37.1472   25.8868 H   0  0  0  0  0  0
  -20.9303  -29.8784   21.6962 H   0  0  0  0  0  0
  -26.0189  -38.2876   24.1394 H   0  0  0  0  0  0
  -28.7657  -17.7700   21.7749 H   0  0  0  0  0  0
  -32.2285  -16.6700   19.4188 H   0  0  0  0  0  0
  -28.4231  -19.3308   23.4044 H   0  0  0  0  0  0
  -28.2129  -21.0534   23.6109 H   0  0  0  0  0  0
  -29.8229  -20.3437   23.7287 H   0  0  0  0  0  0
  -28.4759  -22.4206   19.6568 H   0  0  0  0  0  0
  -27.5955  -22.7427   21.1457 H   0  0  0  0  0  0
  -27.1700  -24.8809   20.0465 H   0  0  0  0  0  0
  -28.3732  -25.0532   18.7733 H   0  0  0  0  0  0
  -28.1061  -20.3821   21.1986 H   0  0  0  0  0  0
  -33.4271  -18.4459   18.3208 H   0  0  0  0  0  0
  -33.1442  -20.0653   18.7329 H   0  0  0  0  0  0
  -29.1274  -15.4553   21.2076 H   0  0  0  0  0  0
  -29.7272  -22.3677   22.3103 H   0  0  0  0  0  0
  -30.3956  -21.8740   20.9147 H   0  0  0  0  0  0
  1 25  1  0  0  0
  1 30  2  0  0  0
  1 83  1  0  0  0
  2  3  1  0  0  0
  2 25  1  0  0  0
  2 87  1  0  0  0
  2 88  1  0  0  0
  3  4  1  0  0  0
  3 89  1  0  0  0
  3 90  1  0  0  0
  4  5  1  0  0  0
  4 91  1  0  0  0
  4 92  1  0  0  0
  5  6  1  0  0  0
  5 26  1  0  0  0
  5 93  1  0  0  0
  6 25  1  0  0  0
  6 94  1  0  0  0
  6 95  1  0  0  0
  7  8  2  0  0  0
  7 26  1  0  0  0
  7 29  1  0  0  0
  8  9  1  0  0  0
  8 22  1  0  0  0
  9 10  1  0  0  0
  9 27  2  0  0  0
 10 11  2  0  0  0
 10 15  1  0  0  0
 11 12  1  0  0  0
 11 96  1  0  0  0
 12 13  2  0  0  0
 12 97  1  0  0  0
 13 14  1  0  0  0
 13 31  1  0  0  0
 14 15  2  0  0  0
 14 98  1  0  0  0
 15 99  1  0  0  0
 16 17  2  0  0  0
 16 21  1  0  0  0
 16 31  1  0  0  0
 17 18  1  0  0  0
 17100  1  0  0  0
 18 19  2  0  0  0
 18101  1  0  0  0
 19 20  1  0  0  0
 19 24  1  0  0  0
 20 21  2  0  0  0
 20102  1  0  0  0
 21 23  1  0  0  0
 22 28  1  0  0  0
 22 32  2  0  0  0
 26 27  1  0  0  0
 28103  1  0  0  0
 28104  1  0  0  0
 29105  1  0  0  0
 29106  1  0  0  0
 33 34  1  0  0  0
 33 66  1  0  0  0
 33 70  2  0  0  0
 34 36  1  0  0  0
 34 59  1  0  0  0
 34107  1  0  0  0
 35 44  2  0  0  0
 35 45  1  0  0  0
 35 68  1  0  0  0
 36 56  1  0  0  0
 36108  1  0  0  0
 37 39  1  0  0  0
 37 47  1  0  0  0
 37 66  1  0  0  0
 37109  1  0  0  0
 38 43  2  0  0  0
 38 46  1  0  0  0
 38 47  1  0  0  0
 39 64  1  0  0  0
 39 67  2  0  0  0
 40 52  1  0  0  0
 40 53  2  0  0  0
 40 58  1  0  0  0
 41110  1  0  0  0
 41111  1  0  0  0
 41112  1  0  0  0
 41 48  1  0  0  0
 42 43  1  0  0  0
 42 66  1  0  0  0
 42113  1  0  0  0
 42114  1  0  0  0
 43 44  1  0  0  0
 44115  1  0  0  0
 45 46  2  0  0  0
 45116  1  0  0  0
 46117  1  0  0  0
 47118  1  0  0  0
 47119  1  0  0  0
 48 56  1  0  0  0
 48 65  1  0  0  0
 48120  1  0  0  0
 49 50  1  0  0  0
 49 53  1  0  0  0
 49 64  1  0  0  0
 49121  1  0  0  0
 50 51  1  0  0  0
 50122  1  0  0  0
 50123  1  0  0  0
 51 52  1  0  0  0
 51124  1  0  0  0
 51125  1  0  0  0
 52126  1  0  0  0
 52127  1  0  0  0
 53 54  1  0  0  0
 54 55  2  0  0  0
 54128  1  0  0  0
 55 57  1  0  0  0
 55129  1  0  0  0
 56 69  2  0  0  0
 57 58  2  0  0  0
 57130  1  0  0  0
 58131  1  0  0  0
 59 60  1  0  0  0
 59 61  1  0  0  0
 59 62  1  0  0  0
 60132  1  0  0  0
 60133  1  0  0  0
 60134  1  0  0  0
 61135  1  0  0  0
 61136  1  0  0  0
 61137  1  0  0  0
 62138  1  0  0  0
 62139  1  0  0  0
 62140  1  0  0  0
 63 65  1  0  0  0
 63141  1  0  0  0
 63142  1  0  0  0
 63143  1  0  0  0
 64144  1  0  0  0
 65145  1  0  0  0
 68 80  1  0  0  0
 71 73  2  0  0  0
 71 74  1  0  0  0
 71146  1  0  0  0
 72 74  2  0  0  0
 72 75  1  0  0  0
 72147  1  0  0  0
 73 76  1  0  0  0
 73 81  1  0  0  0
 74 83  1  0  0  0
 75 76  2  0  0  0
 75 82  1  0  0  0
 76 86  1  0  0  0
 77 79  1  0  0  0
 77 80  1  0  0  0
 77 85  2  0  0  0
 78148  1  0  0  0
 78149  1  0  0  0
 78150  1  0  0  0
 78 81  1  0  0  0
 79 84  1  0  0  0
 79151  1  0  0  0
 79152  1  0  0  0
 80153  1  0  0  0
 80154  1  0  0  0
 81 84  1  0  0  0
 81155  1  0  0  0
 82156  1  0  0  0
 82157  1  0  0  0
 83158  1  0  0  0
 84159  1  0  0  0
 84160  1  0  0  0
M  CHG  1  84   1
M  ISO  4   1 100  68 101  80 101  83 100
M  END
> <chiral flag>
0

> <version>
0

> <s_m_source_file>
/data/baiqing/PycharmProjects/Reinvent-master-3.2/result/LINK_invent/BTK/process_docking_weight1_custom_product_contain_oxygen_bond_distance_aromatic_linkinvent_7_9_3/rearranged_h_0168.sdf

> <i_m_source_file_index>
25

> <r_mmod_Potential_Energy-OPLS-2005>
-298.752685546875

> <r_mmod_Stretch_Energy-OPLS-2005>
46.1412391662598

> <r_mmod_Bend_Energy-OPLS-2005>
109.341186523438

> <r_mmod_Torsional_Energy-OPLS-2005>
223.135528564453

> <r_mmod_Improper_Torsional_Energy-OPLS-2005>
7.14626359939575

> <r_mmod_Van_der_Waal_Energy-OPLS-2005>
178.734329223633

> <r_mmod_Electrostatic_Energy-OPLS-2005>
-395.697906494141

> <r_mmod_Solvation_Energy-OPLS-2005>
-492.714660644531

> <b_mmod_Minimization_Converged-OPLS-2005>
0

> <r_mmod_RMS_Derivative-OPLS-2005>
0.512376725673676

$$$$
25
                    3D
 Structure written by MMmdl.
165174  0  0  1  0            999 V2000
  -30.6541  -14.5287   20.5615 C   0  0  0  0  0  0
  -30.4292  -12.3323   19.4442 C   0  0  0  0  0  0
  -29.5062  -12.5159   18.2195 C   0  0  0  0  0  0
  -28.0245  -12.3673   18.6200 C   0  0  0  0  0  0
  -27.6611  -13.2082   19.8741 C   0  0  2  0  0  0
  -28.6972  -12.9950   21.0010 C   0  0  0  0  0  0
  -25.2590  -13.8157   20.5662 C   0  0  0  0  0  0
  -24.1837  -13.0439   20.9145 C   0  0  0  0  0  0
  -24.6387  -11.6904   20.8700 C   0  0  0  0  0  0
  -23.9044  -10.4292   21.0390 C   0  0  0  0  0  0
  -24.3603   -9.4220   21.9180 C   0  0  0  0  0  0
  -23.6276   -8.2258   22.0753 C   0  0  0  0  0  0
  -22.4261   -8.0281   21.3545 C   0  0  0  0  0  0
  -21.9890   -9.0255   20.4654 C   0  0  0  0  0  0
  -22.7211  -10.2137   20.3052 C   0  0  0  0  0  0
  -21.6854   -6.0724   22.5272 C   0  0  0  0  0  0
  -21.4015   -6.5631   23.8206 C   0  0  0  0  0  0
  -21.3654   -5.6785   24.9167 C   0  0  0  0  0  0
  -21.6047   -4.3048   24.7225 C   0  0  0  0  0  0
  -21.8823   -3.8132   23.4345 C   0  0  0  0  0  0
  -21.9191   -4.6946   22.3395 C   0  0  0  0  0  0
  -22.7863  -13.5259   21.1817 C   0  0  0  0  0  0
  -22.1670   -4.2134   21.0976 F   0  0  0  0  0  0
  -21.5618   -3.4532   25.7733 F   0  0  0  0  0  0
  -30.0294  -13.3195   20.4625 N   0  0  0  0  0  0
  -26.3012  -12.9329   20.3317 N   0  0  0  0  0  0
  -25.9309  -11.6483   20.5715 N   0  0  0  0  0  0
  -22.0489  -12.8271   22.0378 N   0  0  0  0  0  0
  -25.4345  -15.1877   20.4138 N   0  0  0  0  0  0
  -31.7658  -14.7437   20.0689 O   0  0  0  0  0  0
  -21.6642   -6.8868   21.4239 O   0  0  0  0  0  0
  -22.3564  -14.5569   20.6660 O   0  0  0  0  0  0
  -24.6192  -31.8627   23.2065 C   0  0  0  0  0  0
  -25.9064  -32.4790   23.8369 C   0  0  1  0  0  0
  -27.2345  -27.3816   20.0877 C   0  0  0  0  0  0
  -25.5910  -33.8589   24.2312 N   0  0  0  0  0  0
  -23.4101  -30.4850   21.5489 C   0  0  2  0  0  0
  -24.8548  -28.9467   20.1112 C   0  0  0  0  0  0
  -22.7437  -29.4615   22.4969 C   0  0  0  0  0  0
  -18.0286  -28.1351   22.8482 C   0  0  0  0  0  0
  -24.1488  -36.7295   23.2632 C   0  0  0  0  0  0
  -25.9445  -30.8103   21.3681 C   0  0  0  0  0  0
  -26.0188  -29.4415   20.7122 C   0  0  0  0  0  0
  -27.2064  -28.6635   20.7022 C   0  0  0  0  0  0
  -26.0392  -26.9084   19.5001 C   0  0  0  0  0  0
  -24.8627  -27.6806   19.5042 C   0  0  0  0  0  0
  -23.6182  -29.8184   20.1631 C   0  0  0  0  0  0
  -25.4106  -36.3092   24.0334 C   0  0  1  0  0  0
  -20.5877  -28.3642   23.1301 C   0  0  2  0  0  0
  -20.6766  -26.9372   22.5412 C   0  0  0  0  0  0
  -19.5751  -26.6361   21.5201 C   0  0  0  0  0  0
  -18.1928  -26.7904   22.1606 C   0  0  0  0  0  0
  -19.1532  -28.8820   23.2891 C   0  0  0  0  0  0
  -18.9456  -30.1421   23.8895 C   0  0  0  0  0  0
  -17.6456  -30.6554   24.0554 C   0  0  0  0  0  0
  -25.9043  -34.9457   23.5125 C   0  0  0  0  0  0
  -16.5351  -29.9050   23.6317 C   0  0  0  0  0  0
  -16.7274  -28.6472   23.0340 C   0  0  0  0  0  0
  -26.4476  -31.6572   25.0707 C   0  0  0  0  0  0
  -25.3742  -31.3694   26.1457 C   0  0  0  0  0  0
  -27.0288  -30.3006   24.6094 C   0  0  0  0  0  0
  -27.6065  -32.4275   25.7456 C   0  0  0  0  0  0
  -27.5592  -37.1788   24.8445 C   0  0  0  0  0  0
  -21.4164  -29.3005   22.3708 N   0  0  0  0  0  0
  -26.4286  -37.3785   23.9416 N   0  0  0  0  0  0
  -24.6767  -31.0675   22.0992 N   0  0  0  0  0  0
  -23.4188  -28.8160   23.3033 O   0  0  0  0  0  0
  -28.3951  -26.6141   20.1255 O   0  0  0  0  0  0
  -26.5609  -34.8917   22.4693 O   0  0  0  0  0  0
  -23.5372  -32.1398   23.7428 O   0  0  0  0  0  0
  -29.6933  -19.2623   21.5031 C   0  0  0  0  0  0
  -29.8877  -17.8946   21.8272 C   0  0  0  0  0  0
  -29.4286  -19.6832   20.1751 C   0  0  0  0  0  0
  -29.8551  -16.8914   20.8303 C   0  0  0  0  0  0
  -29.3559  -18.6684   19.1721 C   0  0  0  0  0  0
  -29.5777  -17.2954   19.5023 C   0  0  0  0  0  0
  -30.0883  -23.6075   19.7729 C   0  0  0  0  0  0
  -28.8396  -24.1259   19.6442 C   0  0  0  0  0  0
  -30.3480  -22.1697   20.0501 C   0  0  0  0  0  0
  -27.9243  -21.8398   20.4714 C   0  0  0  0  0  0
  -29.1760  -21.1909   19.8360 C   0  0  2  0  0  0
  -27.5936  -23.2344   19.8367 C   0  0  2  0  0  0
  -26.8323  -23.0290   18.5113 C   0  0  0  0  0  0
  -27.7972  -18.3786   17.3586 C   0  0  0  0  0  0
  -28.6363  -25.5823   19.1333 C   0  0  0  0  0  0
  -29.9534  -15.4990   21.1942 N   0  0  0  0  0  0
  -29.0188  -19.0090   17.8498 N   0  0  0  0  0  0
  -31.4568  -21.7570   20.4025 O   0  0  0  0  0  0
  -29.4728  -16.3465   18.5363 F   0  0  0  0  0  0
  -31.4752  -12.4392   19.1513 H   0  0  0  0  0  0
  -30.3372  -11.3223   19.8464 H   0  0  0  0  0  0
  -29.7578  -11.7893   17.4456 H   0  0  0  0  0  0
  -29.6703  -13.5000   17.7786 H   0  0  0  0  0  0
  -27.8378  -11.3108   18.8140 H   0  0  0  0  0  0
  -27.3814  -12.6409   17.7826 H   0  0  0  0  0  0
  -27.7028  -14.2559   19.5758 H   0  0  0  0  0  0
  -28.6807  -11.9582   21.3387 H   0  0  0  0  0  0
  -28.4416  -13.5866   21.8810 H   0  0  0  0  0  0
  -25.2753   -9.5688   22.4752 H   0  0  0  0  0  0
  -23.9978   -7.4656   22.7478 H   0  0  0  0  0  0
  -21.0811   -8.8771   19.8976 H   0  0  0  0  0  0
  -22.3668  -10.9671   19.6154 H   0  0  0  0  0  0
  -21.2031   -7.6143   23.9711 H   0  0  0  0  0  0
  -21.1467   -6.0514   25.9070 H   0  0  0  0  0  0
  -22.0610   -2.7591   23.2862 H   0  0  0  0  0  0
  -22.4072  -11.9919   22.4760 H   0  0  0  0  0  0
  -21.1118  -13.1340   22.2575 H   0  0  0  0  0  0
  -24.6733  -15.8481   20.5231 H   0  0  0  0  0  0
  -26.2961  -15.6225   20.1077 H   0  0  0  0  0  0
  -26.7128  -32.5470   23.1119 H   0  0  0  0  0  0
  -25.0079  -33.9739   25.0469 H   0  0  0  0  0  0
  -22.7017  -31.3036   21.4096 H   0  0  0  0  0  0
  -23.3759  -35.9616   23.3258 H   0  0  0  0  0  0
  -24.3609  -36.8942   22.2056 H   0  0  0  0  0  0
  -23.7213  -37.6475   23.6674 H   0  0  0  0  0  0
  -26.0657  -31.5757   20.5998 H   0  0  0  0  0  0
  -26.8296  -30.8597   21.9909 H   0  0  0  0  0  0
  -28.1042  -29.0396   21.1729 H   0  0  0  0  0  0
  -25.9798  -25.9258   19.0608 H   0  0  0  0  0  0
  -23.9636  -27.2867   19.0499 H   0  0  0  0  0  0
  -23.7247  -30.5931   19.4029 H   0  0  0  0  0  0
  -22.7395  -29.2405   19.8702 H   0  0  0  0  0  0
  -25.1270  -36.1961   25.0823 H   0  0  0  0  0  0
  -20.9974  -28.3209   24.1416 H   0  0  0  0  0  0
  -20.5637  -26.2247   23.3596 H   0  0  0  0  0  0
  -21.6640  -26.7378   22.1231 H   0  0  0  0  0  0
  -19.6912  -25.6279   21.1207 H   0  0  0  0  0  0
  -19.6696  -27.3185   20.6746 H   0  0  0  0  0  0
  -17.4200  -26.6657   21.4006 H   0  0  0  0  0  0
  -18.0318  -26.0033   22.8983 H   0  0  0  0  0  0
  -19.7931  -30.7247   24.2256 H   0  0  0  0  0  0
  -17.4999  -31.6231   24.5156 H   0  0  0  0  0  0
  -15.5348  -30.2944   23.7637 H   0  0  0  0  0  0
  -15.8680  -28.0788   22.7049 H   0  0  0  0  0  0
  -24.5933  -30.7010   25.7811 H   0  0  0  0  0  0
  -24.8917  -32.2849   26.4888 H   0  0  0  0  0  0
  -25.8100  -30.8888   27.0225 H   0  0  0  0  0  0
  -26.2827  -29.6768   24.1156 H   0  0  0  0  0  0
  -27.4054  -29.7237   25.4550 H   0  0  0  0  0  0
  -27.8672  -30.4311   23.9248 H   0  0  0  0  0  0
  -27.2717  -33.3578   26.2055 H   0  0  0  0  0  0
  -28.3868  -32.6807   25.0268 H   0  0  0  0  0  0
  -28.0735  -31.8368   26.5346 H   0  0  0  0  0  0
  -28.2569  -38.0127   24.7552 H   0  0  0  0  0  0
  -28.1128  -36.2661   24.6188 H   0  0  0  0  0  0
  -27.2324  -37.1334   25.8848 H   0  0  0  0  0  0
  -20.9324  -29.8752   21.6949 H   0  0  0  0  0  0
  -26.0166  -38.2851   24.1454 H   0  0  0  0  0  0
  -29.7356  -19.9953   22.2968 H   0  0  0  0  0  0
  -30.0540  -17.6188   22.8592 H   0  0  0  0  0  0
  -30.9516  -24.2314   19.5976 H   0  0  0  0  0  0
  -28.0767  -21.9461   21.5472 H   0  0  0  0  0  0
  -27.0682  -21.1723   20.3641 H   0  0  0  0  0  0
  -29.0132  -21.2413   18.7639 H   0  0  0  0  0  0
  -26.9266  -23.7604   20.5211 H   0  0  0  0  0  0
  -27.4741  -22.6016   17.7408 H   0  0  0  0  0  0
  -26.4238  -23.9552   18.1142 H   0  0  0  0  0  0
  -25.9867  -22.3534   18.6444 H   0  0  0  0  0  0
  -27.2785  -19.0522   16.6769 H   0  0  0  0  0  0
  -27.1057  -18.1418   18.1709 H   0  0  0  0  0  0
  -28.0165  -17.4588   16.8141 H   0  0  0  0  0  0
  -27.9433  -25.6035   18.2951 H   0  0  0  0  0  0
  -29.5765  -25.8800   18.6677 H   0  0  0  0  0  0
  -29.1904  -15.1545   21.7554 H   0  0  0  0  0  0
  -29.0661  -19.9996   17.6377 H   0  0  0  0  0  0
  1 25  1  0  0  0
  1 30  2  0  0  0
  1 86  1  0  0  0
  2  3  1  0  0  0
  2 25  1  0  0  0
  2 90  1  0  0  0
  2 91  1  0  0  0
  3  4  1  0  0  0
  3 92  1  0  0  0
  3 93  1  0  0  0
  4  5  1  0  0  0
  4 94  1  0  0  0
  4 95  1  0  0  0
  5  6  1  0  0  0
  5 26  1  0  0  0
  5 96  1  0  0  0
  6 25  1  0  0  0
  6 97  1  0  0  0
  6 98  1  0  0  0
  7  8  2  0  0  0
  7 26  1  0  0  0
  7 29  1  0  0  0
  8  9  1  0  0  0
  8 22  1  0  0  0
  9 10  1  0  0  0
  9 27  2  0  0  0
 10 11  2  0  0  0
 10 15  1  0  0  0
 11 12  1  0  0  0
 11 99  1  0  0  0
 12 13  2  0  0  0
 12100  1  0  0  0
 13 14  1  0  0  0
 13 31  1  0  0  0
 14 15  2  0  0  0
 14101  1  0  0  0
 15102  1  0  0  0
 16 17  2  0  0  0
 16 21  1  0  0  0
 16 31  1  0  0  0
 17 18  1  0  0  0
 17103  1  0  0  0
 18 19  2  0  0  0
 18104  1  0  0  0
 19 20  1  0  0  0
 19 24  1  0  0  0
 20 21  2  0  0  0
 20105  1  0  0  0
 21 23  1  0  0  0
 22 28  1  0  0  0
 22 32  2  0  0  0
 26 27  1  0  0  0
 28106  1  0  0  0
 28107  1  0  0  0
 29108  1  0  0  0
 29109  1  0  0  0
 33 34  1  0  0  0
 33 66  1  0  0  0
 33 70  2  0  0  0
 34 36  1  0  0  0
 34 59  1  0  0  0
 34110  1  0  0  0
 35 44  2  0  0  0
 35 45  1  0  0  0
 35 68  1  0  0  0
 36 56  1  0  0  0
 36111  1  0  0  0
 37 39  1  0  0  0
 37 47  1  0  0  0
 37 66  1  0  0  0
 37112  1  0  0  0
 38 43  2  0  0  0
 38 46  1  0  0  0
 38 47  1  0  0  0
 39 64  1  0  0  0
 39 67  2  0  0  0
 40 52  1  0  0  0
 40 53  2  0  0  0
 40 58  1  0  0  0
 41113  1  0  0  0
 41114  1  0  0  0
 41115  1  0  0  0
 41 48  1  0  0  0
 42 43  1  0  0  0
 42 66  1  0  0  0
 42116  1  0  0  0
 42117  1  0  0  0
 43 44  1  0  0  0
 44118  1  0  0  0
 45 46  2  0  0  0
 45119  1  0  0  0
 46120  1  0  0  0
 47121  1  0  0  0
 47122  1  0  0  0
 48 56  1  0  0  0
 48 65  1  0  0  0
 48123  1  0  0  0
 49 50  1  0  0  0
 49 53  1  0  0  0
 49 64  1  0  0  0
 49124  1  0  0  0
 50 51  1  0  0  0
 50125  1  0  0  0
 50126  1  0  0  0
 51 52  1  0  0  0
 51127  1  0  0  0
 51128  1  0  0  0
 52129  1  0  0  0
 52130  1  0  0  0
 53 54  1  0  0  0
 54 55  2  0  0  0
 54131  1  0  0  0
 55 57  1  0  0  0
 55132  1  0  0  0
 56 69  2  0  0  0
 57 58  2  0  0  0
 57133  1  0  0  0
 58134  1  0  0  0
 59 60  1  0  0  0
 59 61  1  0  0  0
 59 62  1  0  0  0
 60135  1  0  0  0
 60136  1  0  0  0
 60137  1  0  0  0
 61138  1  0  0  0
 61139  1  0  0  0
 61140  1  0  0  0
 62141  1  0  0  0
 62142  1  0  0  0
 62143  1  0  0  0
 63 65  1  0  0  0
 63144  1  0  0  0
 63145  1  0  0  0
 63146  1  0  0  0
 64147  1  0  0  0
 65148  1  0  0  0
 68 85  1  0  0  0
 71 72  2  0  0  0
 71 73  1  0  0  0
 71149  1  0  0  0
 72 74  1  0  0  0
 72150  1  0  0  0
 73 75  2  0  0  0
 73 81  1  0  0  0
 74 76  2  0  0  0
 74 86  1  0  0  0
 75 76  1  0  0  0
 75 87  1  0  0  0
 76 89  1  0  0  0
 77 78  2  0  0  0
 77 79  1  0  0  0
 77151  1  0  0  0
 78 82  1  0  0  0
 78 85  1  0  0  0
 79 81  1  0  0  0
 79 88  2  0  0  0
 80 81  1  0  0  0
 80 82  1  0  0  0
 80152  1  0  0  0
 80153  1  0  0  0
 81154  1  0  0  0
 82 83  1  0  0  0
 82155  1  0  0  0
 83156  1  0  0  0
 83157  1  0  0  0
 83158  1  0  0  0
 84 87  1  0  0  0
 84159  1  0  0  0
 84160  1  0  0  0
 84161  1  0  0  0
 85162  1  0  0  0
 85163  1  0  0  0
 86164  1  0  0  0
 87165  1  0  0  0
M  ISO  4   1 100  68 101  85 101  86 100
M  END
> <chiral flag>
0

> <version>
0

> <s_m_source_file>
/data/baiqing/PycharmProjects/Reinvent-master-3.2/result/LINK_invent/BTK/process_docking_weight1_custom_product_contain_oxygen_bond_distance_aromatic_linkinvent_7_9_3/rearranged_h_0168.sdf

> <i_m_source_file_index>
26

> <r_mmod_Potential_Energy-OPLS-2005>
54.0153198242188

> <r_mmod_Stretch_Energy-OPLS-2005>
57.3578567504883

> <r_mmod_Bend_Energy-OPLS-2005>
122.523300170898

> <r_mmod_Torsional_Energy-OPLS-2005>
245.527206420898

> <r_mmod_Improper_Torsional_Energy-OPLS-2005>
9.00859260559082

> <r_mmod_Van_der_Waal_Energy-OPLS-2005>
156.595611572266

> <r_mmod_Electrostatic_Energy-OPLS-2005>
-317.639587402344

> <r_mmod_Solvation_Energy-OPLS-2005>
-240.931976318359

> <b_mmod_Minimization_Converged-OPLS-2005>
0

> <r_mmod_RMS_Derivative-OPLS-2005>
2.0222373008728

$$$$
26
                    3D
 Structure written by MMmdl.
158166  0  0  1  0            999 V2000
  -30.7189  -14.4862   20.5670 C   0  0  0  0  0  0
  -30.4154  -12.3144   19.4307 C   0  0  0  0  0  0
  -29.4920  -12.5040   18.2101 C   0  0  0  0  0  0
  -28.0151  -12.3611   18.6227 C   0  0  0  0  0  0
  -27.6587  -13.2115   19.8721 C   0  0  2  0  0  0
  -28.7017  -13.0183   20.9977 C   0  0  0  0  0  0
  -25.2549  -13.8155   20.5649 C   0  0  0  0  0  0
  -24.1826  -13.0428   20.9193 C   0  0  0  0  0  0
  -24.6395  -11.6901   20.8747 C   0  0  0  0  0  0
  -23.9067  -10.4284   21.0414 C   0  0  0  0  0  0
  -24.3617   -9.4192   21.9188 C   0  0  0  0  0  0
  -23.6285   -8.2235   22.0758 C   0  0  0  0  0  0
  -22.4270   -8.0277   21.3546 C   0  0  0  0  0  0
  -21.9910   -9.0252   20.4646 C   0  0  0  0  0  0
  -22.7246  -10.2127   20.3054 C   0  0  0  0  0  0
  -21.6848   -6.0729   22.5278 C   0  0  0  0  0  0
  -21.4015   -6.5635   23.8209 C   0  0  0  0  0  0
  -21.3657   -5.6789   24.9172 C   0  0  0  0  0  0
  -21.6048   -4.3053   24.7226 C   0  0  0  0  0  0
  -21.8817   -3.8142   23.4347 C   0  0  0  0  0  0
  -21.9193   -4.6956   22.3402 C   0  0  0  0  0  0
  -22.7847  -13.5222   21.1848 C   0  0  0  0  0  0
  -22.1659   -4.2141   21.0982 F   0  0  0  0  0  0
  -21.5630   -3.4539   25.7741 F   0  0  0  0  0  0
  -30.0321  -13.3152   20.4415 N   0  0  0  0  0  0
  -26.3006  -12.9348   20.3354 N   0  0  0  0  0  0
  -25.9328  -11.6506   20.5785 N   0  0  0  0  0  0
  -22.0490  -12.8207   22.0403 N   0  0  0  0  0  0
  -25.4202  -15.1864   20.3951 N   0  0  0  0  0  0
  -31.8415  -14.6352   20.0778 O   0  0  0  0  0  0
  -21.6636   -6.8873   21.4242 O   0  0  0  0  0  0
  -22.3531  -14.5532   20.6702 O   0  0  0  0  0  0
  -24.6161  -31.8671   23.2088 C   0  0  0  0  0  0
  -25.9049  -32.4822   23.8390 C   0  0  1  0  0  0
  -27.2279  -27.4238   20.1016 C   0  0  0  0  0  0
  -25.5898  -33.8620   24.2325 N   0  0  0  0  0  0
  -23.4055  -30.4903   21.5498 C   0  0  2  0  0  0
  -24.8522  -28.9576   20.1107 C   0  0  0  0  0  0
  -22.7425  -29.4655   22.4987 C   0  0  0  0  0  0
  -18.0275  -28.1380   22.8494 C   0  0  0  0  0  0
  -24.1488  -36.7306   23.2638 C   0  0  0  0  0  0
  -25.9348  -30.8319   21.3615 C   0  0  0  0  0  0
  -26.0140  -29.4660   20.7074 C   0  0  0  0  0  0
  -27.2091  -28.7070   20.6984 C   0  0  0  0  0  0
  -26.0547  -26.9359   19.4902 C   0  0  0  0  0  0
  -24.8687  -27.6931   19.4962 C   0  0  0  0  0  0
  -23.6132  -29.8229   20.1641 C   0  0  0  0  0  0
  -25.4112  -36.3109   24.0339 C   0  0  1  0  0  0
  -20.5867  -28.3667   23.1316 C   0  0  2  0  0  0
  -20.6771  -26.9403   22.5414 C   0  0  0  0  0  0
  -19.5746  -26.6385   21.5218 C   0  0  0  0  0  0
  -18.1920  -26.7929   22.1624 C   0  0  0  0  0  0
  -19.1525  -28.8838   23.2902 C   0  0  0  0  0  0
  -18.9454  -30.1442   23.8914 C   0  0  0  0  0  0
  -17.6462  -30.6587   24.0567 C   0  0  0  0  0  0
  -25.9041  -34.9475   23.5131 C   0  0  0  0  0  0
  -16.5348  -29.9089   23.6332 C   0  0  0  0  0  0
  -16.7266  -28.6505   23.0355 C   0  0  0  0  0  0
  -26.4479  -31.6598   25.0715 C   0  0  0  0  0  0
  -25.3736  -31.3690   26.1450 C   0  0  0  0  0  0
  -27.0317  -30.3051   24.6070 C   0  0  0  0  0  0
  -27.6054  -32.4310   25.7477 C   0  0  0  0  0  0
  -27.5584  -37.1804   24.8466 C   0  0  0  0  0  0
  -21.4150  -29.3034   22.3725 N   0  0  0  0  0  0
  -26.4296  -37.3793   23.9415 N   0  0  0  0  0  0
  -24.6706  -31.0768   22.0990 N   0  0  0  0  0  0
  -23.4190  -28.8203   23.3039 O   0  0  0  0  0  0
  -28.3473  -26.6213   20.1354 O   0  0  0  0  0  0
  -26.5601  -34.8926   22.4691 O   0  0  0  0  0  0
  -23.5350  -32.1408   23.7483 O   0  0  0  0  0  0
  -32.1608  -18.6297   21.4494 C   0  0  0  0  0  0
  -31.1810  -19.6357   21.4717 C   0  0  0  0  0  0
  -31.7880  -17.2801   21.3399 C   0  0  0  0  0  0
  -29.8103  -19.3116   21.3776 C   0  0  0  0  0  0
  -29.4306  -17.9340   21.2154 C   0  0  0  0  0  0
  -30.4278  -16.9062   21.2094 C   0  0  0  0  0  0
  -28.8557  -20.4374   21.5494 C   0  0  0  0  0  0
  -28.7161  -24.1525   20.4820 C   0  0  0  0  0  0
  -27.9693  -17.5277   21.0327 C   0  0  0  0  0  0
  -28.2083  -22.8729   21.1833 C   0  0  0  0  0  0
  -28.1823  -25.4980   21.0318 C   0  0  0  0  0  0
  -30.0442  -15.5170   21.1283 N   0  0  0  0  0  0
  -29.0235  -21.6419   20.9606 N   0  0  0  0  0  0
  -27.8212  -20.2811   22.3744 N   0  3  0  0  0  0
  -29.5226  -24.0872   19.5458 O   0  0  0  0  0  0
  -31.4615  -12.3953   19.1304 H   0  0  0  0  0  0
  -30.3041  -11.3087   19.8397 H   0  0  0  0  0  0
  -29.7353  -11.7745   17.4366 H   0  0  0  0  0  0
  -29.6582  -13.4876   17.7680 H   0  0  0  0  0  0
  -27.8307  -11.3058   18.8277 H   0  0  0  0  0  0
  -27.3636  -12.6249   17.7888 H   0  0  0  0  0  0
  -27.6955  -14.2551   19.5607 H   0  0  0  0  0  0
  -28.6799  -11.9902   21.3622 H   0  0  0  0  0  0
  -28.4620  -13.6386   21.8622 H   0  0  0  0  0  0
  -25.2764   -9.5663   22.4761 H   0  0  0  0  0  0
  -23.9987   -7.4626   22.7479 H   0  0  0  0  0  0
  -21.0840   -8.8772   19.8952 H   0  0  0  0  0  0
  -22.3711  -10.9664   19.6155 H   0  0  0  0  0  0
  -21.2005   -7.6143   23.9709 H   0  0  0  0  0  0
  -21.1483   -6.0523   25.9075 H   0  0  0  0  0  0
  -22.0599   -2.7604   23.2853 H   0  0  0  0  0  0
  -22.4099  -11.9852   22.4766 H   0  0  0  0  0  0
  -21.1110  -13.1229   22.2622 H   0  0  0  0  0  0
  -24.6360  -15.8255   20.4649 H   0  0  0  0  0  0
  -26.2372  -15.6088   19.9770 H   0  0  0  0  0  0
  -26.7118  -32.5544   23.1152 H   0  0  0  0  0  0
  -25.0073  -33.9790   25.0485 H   0  0  0  0  0  0
  -22.6945  -31.3069   21.4106 H   0  0  0  0  0  0
  -23.3756  -35.9632   23.3302 H   0  0  0  0  0  0
  -24.3583  -36.8920   22.2052 H   0  0  0  0  0  0
  -23.7229  -37.6507   23.6652 H   0  0  0  0  0  0
  -26.0440  -31.5979   20.5924 H   0  0  0  0  0  0
  -26.8240  -30.8875   21.9780 H   0  0  0  0  0  0
  -28.1045  -29.0887   21.1679 H   0  0  0  0  0  0
  -26.0548  -25.9620   19.0209 H   0  0  0  0  0  0
  -23.9764  -27.2970   19.0310 H   0  0  0  0  0  0
  -23.7166  -30.5979   19.4037 H   0  0  0  0  0  0
  -22.7373  -29.2408   19.8718 H   0  0  0  0  0  0
  -25.1288  -36.1969   25.0831 H   0  0  0  0  0  0
  -20.9962  -28.3230   24.1437 H   0  0  0  0  0  0
  -20.5697  -26.2276   23.3605 H   0  0  0  0  0  0
  -21.6637  -26.7458   22.1187 H   0  0  0  0  0  0
  -19.6915  -25.6305   21.1226 H   0  0  0  0  0  0
  -19.6685  -27.3218   20.6767 H   0  0  0  0  0  0
  -17.4197  -26.6691   21.4016 H   0  0  0  0  0  0
  -18.0299  -26.0065   22.9009 H   0  0  0  0  0  0
  -19.7932  -30.7247   24.2288 H   0  0  0  0  0  0
  -17.5017  -31.6273   24.5157 H   0  0  0  0  0  0
  -15.5351  -30.2999   23.7651 H   0  0  0  0  0  0
  -15.8663  -28.0831   22.7070 H   0  0  0  0  0  0
  -24.5920  -30.7033   25.7771 H   0  0  0  0  0  0
  -24.8910  -32.2838   26.4902 H   0  0  0  0  0  0
  -25.8070  -30.8849   27.0206 H   0  0  0  0  0  0
  -26.2855  -29.6804   24.1146 H   0  0  0  0  0  0
  -27.4140  -29.7296   25.4510 H   0  0  0  0  0  0
  -27.8664  -30.4405   23.9185 H   0  0  0  0  0  0
  -27.2688  -33.3621   26.2051 H   0  0  0  0  0  0
  -28.3866  -32.6846   25.0296 H   0  0  0  0  0  0
  -28.0712  -31.8425   26.5392 H   0  0  0  0  0  0
  -28.2589  -38.0111   24.7528 H   0  0  0  0  0  0
  -28.1088  -36.2640   24.6274 H   0  0  0  0  0  0
  -27.2294  -37.1425   25.8866 H   0  0  0  0  0  0
  -20.9306  -29.8760   21.6952 H   0  0  0  0  0  0
  -26.0186  -38.2872   24.1418 H   0  0  0  0  0  0
  -33.2055  -18.8906   21.5468 H   0  0  0  0  0  0
  -31.4929  -20.6628   21.6056 H   0  0  0  0  0  0
  -32.5761  -16.5429   21.3711 H   0  0  0  0  0  0
  -27.3676  -18.3184   20.5860 H   0  0  0  0  0  0
  -27.5236  -17.2483   21.9876 H   0  0  0  0  0  0
  -27.8791  -16.6798   20.3557 H   0  0  0  0  0  0
  -27.1853  -22.6931   20.8508 H   0  0  0  0  0  0
  -28.1587  -23.0816   22.2530 H   0  0  0  0  0  0
  -28.7136  -25.7202   21.9567 H   0  0  0  0  0  0
  -27.1359  -25.3567   21.3080 H   0  0  0  0  0  0
  -29.1027  -15.2989   21.4125 H   0  0  0  0  0  0
  -29.7758  -21.7467   20.2885 H   0  0  0  0  0  0
  -27.7403  -19.4126   22.8821 H   0  0  0  0  0  0
  -27.1335  -20.9952   22.5367 H   0  0  0  0  0  0
  1 25  1  0  0  0
  1 30  2  0  0  0
  1 82  1  0  0  0
  2  3  1  0  0  0
  2 25  1  0  0  0
  2 86  1  0  0  0
  2 87  1  0  0  0
  3  4  1  0  0  0
  3 88  1  0  0  0
  3 89  1  0  0  0
  4  5  1  0  0  0
  4 90  1  0  0  0
  4 91  1  0  0  0
  5  6  1  0  0  0
  5 26  1  0  0  0
  5 92  1  0  0  0
  6 25  1  0  0  0
  6 93  1  0  0  0
  6 94  1  0  0  0
  7  8  2  0  0  0
  7 26  1  0  0  0
  7 29  1  0  0  0
  8  9  1  0  0  0
  8 22  1  0  0  0
  9 10  1  0  0  0
  9 27  2  0  0  0
 10 11  2  0  0  0
 10 15  1  0  0  0
 11 12  1  0  0  0
 11 95  1  0  0  0
 12 13  2  0  0  0
 12 96  1  0  0  0
 13 14  1  0  0  0
 13 31  1  0  0  0
 14 15  2  0  0  0
 14 97  1  0  0  0
 15 98  1  0  0  0
 16 17  2  0  0  0
 16 21  1  0  0  0
 16 31  1  0  0  0
 17 18  1  0  0  0
 17 99  1  0  0  0
 18 19  2  0  0  0
 18100  1  0  0  0
 19 20  1  0  0  0
 19 24  1  0  0  0
 20 21  2  0  0  0
 20101  1  0  0  0
 21 23  1  0  0  0
 22 28  1  0  0  0
 22 32  2  0  0  0
 26 27  1  0  0  0
 28102  1  0  0  0
 28103  1  0  0  0
 29104  1  0  0  0
 29105  1  0  0  0
 33 34  1  0  0  0
 33 66  1  0  0  0
 33 70  2  0  0  0
 34 36  1  0  0  0
 34 59  1  0  0  0
 34106  1  0  0  0
 35 44  2  0  0  0
 35 45  1  0  0  0
 35 68  1  0  0  0
 36 56  1  0  0  0
 36107  1  0  0  0
 37 39  1  0  0  0
 37 47  1  0  0  0
 37 66  1  0  0  0
 37108  1  0  0  0
 38 43  2  0  0  0
 38 46  1  0  0  0
 38 47  1  0  0  0
 39 64  1  0  0  0
 39 67  2  0  0  0
 40 52  1  0  0  0
 40 53  2  0  0  0
 40 58  1  0  0  0
 41109  1  0  0  0
 41110  1  0  0  0
 41111  1  0  0  0
 41 48  1  0  0  0
 42 43  1  0  0  0
 42 66  1  0  0  0
 42112  1  0  0  0
 42113  1  0  0  0
 43 44  1  0  0  0
 44114  1  0  0  0
 45 46  2  0  0  0
 45115  1  0  0  0
 46116  1  0  0  0
 47117  1  0  0  0
 47118  1  0  0  0
 48 56  1  0  0  0
 48 65  1  0  0  0
 48119  1  0  0  0
 49 50  1  0  0  0
 49 53  1  0  0  0
 49 64  1  0  0  0
 49120  1  0  0  0
 50 51  1  0  0  0
 50121  1  0  0  0
 50122  1  0  0  0
 51 52  1  0  0  0
 51123  1  0  0  0
 51124  1  0  0  0
 52125  1  0  0  0
 52126  1  0  0  0
 53 54  1  0  0  0
 54 55  2  0  0  0
 54127  1  0  0  0
 55 57  1  0  0  0
 55128  1  0  0  0
 56 69  2  0  0  0
 57 58  2  0  0  0
 57129  1  0  0  0
 58130  1  0  0  0
 59 60  1  0  0  0
 59 61  1  0  0  0
 59 62  1  0  0  0
 60131  1  0  0  0
 60132  1  0  0  0
 60133  1  0  0  0
 61134  1  0  0  0
 61135  1  0  0  0
 61136  1  0  0  0
 62137  1  0  0  0
 62138  1  0  0  0
 62139  1  0  0  0
 63 65  1  0  0  0
 63140  1  0  0  0
 63141  1  0  0  0
 63142  1  0  0  0
 64143  1  0  0  0
 65144  1  0  0  0
 68 81  1  0  0  0
 71 72  2  0  0  0
 71 73  1  0  0  0
 71145  1  0  0  0
 72 74  1  0  0  0
 72146  1  0  0  0
 73 76  2  0  0  0
 73147  1  0  0  0
 74 75  2  0  0  0
 74 77  1  0  0  0
 75 76  1  0  0  0
 75 79  1  0  0  0
 76 82  1  0  0  0
 77 83  1  0  0  0
 77 84  2  0  0  0
 78 80  1  0  0  0
 78 81  1  0  0  0
 78 85  2  0  0  0
 79148  1  0  0  0
 79149  1  0  0  0
 79150  1  0  0  0
 80 83  1  0  0  0
 80151  1  0  0  0
 80152  1  0  0  0
 81153  1  0  0  0
 81154  1  0  0  0
 82155  1  0  0  0
 83156  1  0  0  0
 84157  1  0  0  0
 84158  1  0  0  0
M  CHG  1  84   1
M  ISO  4   1 100  68 101  81 101  82 100
M  END
> <chiral flag>
0

> <version>
0

> <s_m_source_file>
/data/baiqing/PycharmProjects/Reinvent-master-3.2/result/LINK_invent/BTK/process_docking_weight1_custom_product_contain_oxygen_bond_distance_aromatic_linkinvent_7_9_3/rearranged_h_0168.sdf

> <i_m_source_file_index>
27

> <r_mmod_Potential_Energy-OPLS-2005>
-286.091644287109

> <r_mmod_Stretch_Energy-OPLS-2005>
46.1815567016602

> <r_mmod_Bend_Energy-OPLS-2005>
98.5132675170898

> <r_mmod_Torsional_Energy-OPLS-2005>
237.349044799805

> <r_mmod_Improper_Torsional_Energy-OPLS-2005>
4.55370140075684

> <r_mmod_Van_der_Waal_Energy-OPLS-2005>
160.39826965332

> <r_mmod_Electrostatic_Energy-OPLS-2005>
-412.317169189453

> <r_mmod_Solvation_Energy-OPLS-2005>
-437.053009033203

> <b_mmod_Minimization_Converged-OPLS-2005>
0

> <r_mmod_RMS_Derivative-OPLS-2005>
1.08328342437744

$$$$
27
                    3D
 Structure written by MMmdl.
151159  0  0  1  0            999 V2000
  -30.6394  -14.6350   20.4763 C   0  0  0  0  0  0
  -30.4342  -12.3833   19.4547 C   0  0  0  0  0  0
  -29.5051  -12.4914   18.2258 C   0  0  0  0  0  0
  -28.0307  -12.3289   18.6426 C   0  0  0  0  0  0
  -27.6513  -13.2149   19.8575 C   0  0  2  0  0  0
  -28.6976  -13.1010   20.9890 C   0  0  0  0  0  0
  -25.2567  -13.8173   20.5676 C   0  0  0  0  0  0
  -24.1837  -13.0434   20.9202 C   0  0  0  0  0  0
  -24.6411  -11.6907   20.8757 C   0  0  0  0  0  0
  -23.9077  -10.4288   21.0423 C   0  0  0  0  0  0
  -24.3622   -9.4200   21.9202 C   0  0  0  0  0  0
  -23.6294   -8.2236   22.0755 C   0  0  0  0  0  0
  -22.4279   -8.0278   21.3538 C   0  0  0  0  0  0
  -21.9917   -9.0259   20.4645 C   0  0  0  0  0  0
  -22.7249  -10.2141   20.3069 C   0  0  0  0  0  0
  -21.6854   -6.0740   22.5282 C   0  0  0  0  0  0
  -21.4008   -6.5648   23.8214 C   0  0  0  0  0  0
  -21.3656   -5.6807   24.9177 C   0  0  0  0  0  0
  -21.6045   -4.3067   24.7233 C   0  0  0  0  0  0
  -21.8819   -3.8154   23.4354 C   0  0  0  0  0  0
  -21.9187   -4.6965   22.3408 C   0  0  0  0  0  0
  -22.7861  -13.5213   21.1878 C   0  0  0  0  0  0
  -22.1664   -4.2147   21.0987 F   0  0  0  0  0  0
  -21.5621   -3.4553   25.7742 F   0  0  0  0  0  0
  -30.0122  -13.4211   20.4146 N   0  0  0  0  0  0
  -26.2990  -12.9354   20.3304 N   0  0  0  0  0  0
  -25.9335  -11.6510   20.5771 N   0  0  0  0  0  0
  -22.0521  -12.8190   22.0437 N   0  0  0  0  0  0
  -25.4299  -15.1893   20.4066 N   0  0  0  0  0  0
  -31.8215  -14.7664   20.1486 O   0  0  0  0  0  0
  -21.6639   -6.8875   21.4239 O   0  0  0  0  0  0
  -22.3544  -14.5528   20.6734 O   0  0  0  0  0  0
  -24.6254  -31.8617   23.2061 C   0  0  0  0  0  0
  -25.9101  -32.4790   23.8389 C   0  0  1  0  0  0
  -27.2301  -27.3382   20.0962 C   0  0  0  0  0  0
  -25.5920  -33.8594   24.2303 N   0  0  0  0  0  0
  -23.4185  -30.4882   21.5485 C   0  0  2  0  0  0
  -24.8645  -28.9467   20.1150 C   0  0  0  0  0  0
  -22.7473  -29.4645   22.4955 C   0  0  0  0  0  0
  -18.0296  -28.1367   22.8465 C   0  0  0  0  0  0
  -24.1484  -36.7300   23.2636 C   0  0  0  0  0  0
  -25.9600  -30.7974   21.3745 C   0  0  0  0  0  0
  -26.0363  -29.4273   20.7133 C   0  0  0  0  0  0
  -27.2221  -28.6334   20.6972 C   0  0  0  0  0  0
  -26.0176  -26.8932   19.5135 C   0  0  0  0  0  0
  -24.8538  -27.6817   19.5128 C   0  0  0  0  0  0
  -23.6333  -29.8271   20.1627 C   0  0  0  0  0  0
  -25.4110  -36.3094   24.0332 C   0  0  1  0  0  0
  -20.5885  -28.3698   23.1295 C   0  0  2  0  0  0
  -20.6812  -26.9421   22.5420 C   0  0  0  0  0  0
  -19.5799  -26.6353   21.5210 C   0  0  0  0  0  0
  -18.1967  -26.7900   22.1618 C   0  0  0  0  0  0
  -19.1538  -28.8852   23.2870 C   0  0  0  0  0  0
  -18.9447  -30.1458   23.8867 C   0  0  0  0  0  0
  -17.6450  -30.6587   24.0525 C   0  0  0  0  0  0
  -25.9045  -34.9459   23.5118 C   0  0  0  0  0  0
  -16.5349  -29.9065   23.6307 C   0  0  0  0  0  0
  -16.7277  -28.6482   23.0334 C   0  0  0  0  0  0
  -26.4504  -31.6598   25.0751 C   0  0  0  0  0  0
  -25.3752  -31.3719   26.1482 C   0  0  0  0  0  0
  -27.0342  -30.3029   24.6184 C   0  0  0  0  0  0
  -27.6063  -32.4332   25.7521 C   0  0  0  0  0  0
  -27.5582  -37.1806   24.8470 C   0  0  0  0  0  0
  -21.4190  -29.3054   22.3691 N   0  0  0  0  0  0
  -26.4285  -37.3793   23.9415 N   0  0  0  0  0  0
  -24.6873  -31.0645   22.1004 N   0  0  0  0  0  0
  -23.4199  -28.8171   23.3025 O   0  0  0  0  0  0
  -28.3479  -26.4863   20.1300 O   0  0  0  0  0  0
  -26.5606  -34.8923   22.4673 O   0  0  0  0  0  0
  -23.5419  -32.1405   23.7398 O   0  0  0  0  0  0
  -31.4125  -17.7723   20.6867 C   0  0  0  0  0  0
  -29.2807  -18.1973   20.2867 C   0  0  0  0  0  0
  -30.1423  -17.1445   20.5549 C   0  0  0  0  0  0
  -28.3973  -25.4179   19.2266 C   0  0  0  0  0  0
  -28.7718  -24.0989   19.3575 C   0  0  0  0  0  0
  -29.3348  -23.3788   20.5575 C   0  0  0  0  0  0
  -29.1523  -21.8223   20.7996 C   0  0  0  0  0  0
  -29.6868  -20.7691   19.7504 C   0  0  0  0  0  0
  -31.3348  -19.0942   20.4984 N   0  0  0  0  0  0
  -30.0335  -19.3834   20.2216 N   0  0  0  0  0  0
  -29.8313  -15.7219   20.6766 N   0  0  0  0  0  0
  -29.9393  -24.0042   21.4309 O   0  0  0  0  0  0
  -28.6572  -23.3292   18.2671 O   0  0  0  0  0  0
  -31.4770  -12.4970   19.1521 H   0  0  0  0  0  0
  -30.3576  -11.3965   19.9133 H   0  0  0  0  0  0
  -29.7680  -11.7328   17.4879 H   0  0  0  0  0  0
  -29.6467  -13.4568   17.7377 H   0  0  0  0  0  0
  -27.8770  -11.2788   18.8930 H   0  0  0  0  0  0
  -27.3705  -12.5404   17.8011 H   0  0  0  0  0  0
  -27.6616  -14.2419   19.4952 H   0  0  0  0  0  0
  -28.7074  -12.0955   21.4108 H   0  0  0  0  0  0
  -28.4499  -13.7686   21.8158 H   0  0  0  0  0  0
  -25.2768   -9.5680   22.4780 H   0  0  0  0  0  0
  -24.0011   -7.4622   22.7472 H   0  0  0  0  0  0
  -21.0846   -8.8786   19.8952 H   0  0  0  0  0  0
  -22.3712  -10.9686   19.6184 H   0  0  0  0  0  0
  -21.2012   -7.6159   23.9713 H   0  0  0  0  0  0
  -21.1474   -6.0542   25.9078 H   0  0  0  0  0  0
  -22.0599   -2.7615   23.2864 H   0  0  0  0  0  0
  -22.4139  -11.9821   22.4767 H   0  0  0  0  0  0
  -21.1147  -13.1216   22.2686 H   0  0  0  0  0  0
  -24.6655  -15.8469   20.5116 H   0  0  0  0  0  0
  -26.2715  -15.6191   20.0450 H   0  0  0  0  0  0
  -26.7179  -32.5475   23.1148 H   0  0  0  0  0  0
  -25.0084  -33.9748   25.0465 H   0  0  0  0  0  0
  -22.7116  -31.3087   21.4082 H   0  0  0  0  0  0
  -23.3746  -35.9633   23.3308 H   0  0  0  0  0  0
  -24.3577  -36.8900   22.2047 H   0  0  0  0  0  0
  -23.7238  -37.6507   23.6655 H   0  0  0  0  0  0
  -26.0873  -31.5625   20.6069 H   0  0  0  0  0  0
  -26.8399  -30.8455   22.0044 H   0  0  0  0  0  0
  -28.1217  -29.0011   21.1708 H   0  0  0  0  0  0
  -25.9335  -25.9100   19.0723 H   0  0  0  0  0  0
  -23.9487  -27.2972   19.0626 H   0  0  0  0  0  0
  -23.7599  -30.6062   19.4102 H   0  0  0  0  0  0
  -22.7542  -29.2596   19.8535 H   0  0  0  0  0  0
  -25.1298  -36.1951   25.0828 H   0  0  0  0  0  0
  -20.9955  -28.3262   24.1426 H   0  0  0  0  0  0
  -20.5698  -26.2308   23.3619 H   0  0  0  0  0  0
  -21.6709  -26.7478   22.1266 H   0  0  0  0  0  0
  -19.6981  -25.6235   21.1285 H   0  0  0  0  0  0
  -19.6721  -27.3107   20.6700 H   0  0  0  0  0  0
  -17.4239  -26.6625   21.4010 H   0  0  0  0  0  0
  -18.0374  -26.0065   22.9032 H   0  0  0  0  0  0
  -19.7912  -30.7300   24.2241 H   0  0  0  0  0  0
  -17.4985  -31.6277   24.5095 H   0  0  0  0  0  0
  -15.5349  -30.2958   23.7628 H   0  0  0  0  0  0
  -15.8681  -28.0776   22.7064 H   0  0  0  0  0  0
  -24.5941  -30.7045   25.7828 H   0  0  0  0  0  0
  -24.8929  -32.2870   26.4928 H   0  0  0  0  0  0
  -25.8088  -30.8912   27.0254 H   0  0  0  0  0  0
  -26.2906  -29.6777   24.1218 H   0  0  0  0  0  0
  -27.4062  -29.7292   25.4681 H   0  0  0  0  0  0
  -27.8784  -30.4337   23.9403 H   0  0  0  0  0  0
  -27.2683  -33.3630   26.2112 H   0  0  0  0  0  0
  -28.3874  -32.6869   25.0346 H   0  0  0  0  0  0
  -28.0736  -31.8445   26.5425 H   0  0  0  0  0  0
  -28.2609  -38.0094   24.7518 H   0  0  0  0  0  0
  -28.1060  -36.2622   24.6300 H   0  0  0  0  0  0
  -27.2302  -37.1479   25.8874 H   0  0  0  0  0  0
  -20.9387  -29.8772   21.6881 H   0  0  0  0  0  0
  -26.0164  -38.2868   24.1410 H   0  0  0  0  0  0
  -32.3737  -17.3259   20.8993 H   0  0  0  0  0  0
  -28.2182  -18.2041   20.0806 H   0  0  0  0  0  0
  -28.0567  -25.7545   18.2566 H   0  0  0  0  0  0
  -28.0960  -21.6339   20.9932 H   0  0  0  0  0  0
  -29.6596  -21.6112   21.7409 H   0  0  0  0  0  0
  -30.5738  -21.1807   19.2658 H   0  0  0  0  0  0
  -28.9480  -20.6606   18.9552 H   0  0  0  0  0  0
  -28.8615  -15.4917   20.8252 H   0  0  0  0  0  0
  -29.0253  -22.4820   18.4825 H   0  0  0  0  0  0
  1 25  1  0  0  0
  1 30  2  0  0  0
  1 81  1  0  0  0
  2  3  1  0  0  0
  2 25  1  0  0  0
  2 84  1  0  0  0
  2 85  1  0  0  0
  3  4  1  0  0  0
  3 86  1  0  0  0
  3 87  1  0  0  0
  4  5  1  0  0  0
  4 88  1  0  0  0
  4 89  1  0  0  0
  5  6  1  0  0  0
  5 26  1  0  0  0
  5 90  1  0  0  0
  6 25  1  0  0  0
  6 91  1  0  0  0
  6 92  1  0  0  0
  7  8  2  0  0  0
  7 26  1  0  0  0
  7 29  1  0  0  0
  8  9  1  0  0  0
  8 22  1  0  0  0
  9 10  1  0  0  0
  9 27  2  0  0  0
 10 11  2  0  0  0
 10 15  1  0  0  0
 11 12  1  0  0  0
 11 93  1  0  0  0
 12 13  2  0  0  0
 12 94  1  0  0  0
 13 14  1  0  0  0
 13 31  1  0  0  0
 14 15  2  0  0  0
 14 95  1  0  0  0
 15 96  1  0  0  0
 16 17  2  0  0  0
 16 21  1  0  0  0
 16 31  1  0  0  0
 17 18  1  0  0  0
 17 97  1  0  0  0
 18 19  2  0  0  0
 18 98  1  0  0  0
 19 20  1  0  0  0
 19 24  1  0  0  0
 20 21  2  0  0  0
 20 99  1  0  0  0
 21 23  1  0  0  0
 22 28  1  0  0  0
 22 32  2  0  0  0
 26 27  1  0  0  0
 28100  1  0  0  0
 28101  1  0  0  0
 29102  1  0  0  0
 29103  1  0  0  0
 33 34  1  0  0  0
 33 66  1  0  0  0
 33 70  2  0  0  0
 34 36  1  0  0  0
 34 59  1  0  0  0
 34104  1  0  0  0
 35 44  2  0  0  0
 35 45  1  0  0  0
 35 68  1  0  0  0
 36 56  1  0  0  0
 36105  1  0  0  0
 37 39  1  0  0  0
 37 47  1  0  0  0
 37 66  1  0  0  0
 37106  1  0  0  0
 38 43  2  0  0  0
 38 46  1  0  0  0
 38 47  1  0  0  0
 39 64  1  0  0  0
 39 67  2  0  0  0
 40 52  1  0  0  0
 40 53  2  0  0  0
 40 58  1  0  0  0
 41107  1  0  0  0
 41108  1  0  0  0
 41109  1  0  0  0
 41 48  1  0  0  0
 42 43  1  0  0  0
 42 66  1  0  0  0
 42110  1  0  0  0
 42111  1  0  0  0
 43 44  1  0  0  0
 44112  1  0  0  0
 45 46  2  0  0  0
 45113  1  0  0  0
 46114  1  0  0  0
 47115  1  0  0  0
 47116  1  0  0  0
 48 56  1  0  0  0
 48 65  1  0  0  0
 48117  1  0  0  0
 49 50  1  0  0  0
 49 53  1  0  0  0
 49 64  1  0  0  0
 49118  1  0  0  0
 50 51  1  0  0  0
 50119  1  0  0  0
 50120  1  0  0  0
 51 52  1  0  0  0
 51121  1  0  0  0
 51122  1  0  0  0
 52123  1  0  0  0
 52124  1  0  0  0
 53 54  1  0  0  0
 54 55  2  0  0  0
 54125  1  0  0  0
 55 57  1  0  0  0
 55126  1  0  0  0
 56 69  2  0  0  0
 57 58  2  0  0  0
 57127  1  0  0  0
 58128  1  0  0  0
 59 60  1  0  0  0
 59 61  1  0  0  0
 59 62  1  0  0  0
 60129  1  0  0  0
 60130  1  0  0  0
 60131  1  0  0  0
 61132  1  0  0  0
 61133  1  0  0  0
 61134  1  0  0  0
 62135  1  0  0  0
 62136  1  0  0  0
 62137  1  0  0  0
 63 65  1  0  0  0
 63138  1  0  0  0
 63139  1  0  0  0
 63140  1  0  0  0
 64141  1  0  0  0
 65142  1  0  0  0
 68 74  1  0  0  0
 71 73  1  0  0  0
 71 79  2  0  0  0
 71143  1  0  0  0
 72 73  2  0  0  0
 72 80  1  0  0  0
 72144  1  0  0  0
 73 81  1  0  0  0
 74 75  2  0  0  0
 74145  1  0  0  0
 75 76  1  0  0  0
 75 83  1  0  0  0
 76 77  1  0  0  0
 76 82  2  0  0  0
 77 78  1  0  0  0
 77146  1  0  0  0
 77147  1  0  0  0
 78 80  1  0  0  0
 78148  1  0  0  0
 78149  1  0  0  0
 79 80  1  0  0  0
 81150  1  0  0  0
 83151  1  0  0  0
M  ISO  4   1 100  68 101  74 101  81 100
M  END
> <chiral flag>
0

> <version>
0

> <s_m_source_file>
/data/baiqing/PycharmProjects/Reinvent-master-3.2/result/LINK_invent/BTK/process_docking_weight1_custom_product_contain_oxygen_bond_distance_aromatic_linkinvent_7_9_3/rearranged_h_0168.sdf

> <i_m_source_file_index>
28

> <r_mmod_Potential_Energy-OPLS-2005>
12.1713933944702

> <r_mmod_Stretch_Energy-OPLS-2005>
69.40478515625

> <r_mmod_Bend_Energy-OPLS-2005>
155.813735961914

> <r_mmod_Torsional_Energy-OPLS-2005>
238.823974609375

> <r_mmod_Improper_Torsional_Energy-OPLS-2005>
6.74940156936646

> <r_mmod_Van_der_Waal_Energy-OPLS-2005>
126.377296447754

> <r_mmod_Electrostatic_Energy-OPLS-2005>
-370.856140136719

> <r_mmod_Solvation_Energy-OPLS-2005>
-261.023101806641

> <b_mmod_Minimization_Converged-OPLS-2005>
0

> <r_mmod_RMS_Derivative-OPLS-2005>
2.43620371818542

$$$$
28
                    3D
 Structure written by MMmdl.
158166  0  0  1  0            999 V2000
  -30.7146  -14.4245   20.5360 C   0  0  0  0  0  0
  -30.4147  -12.2616   19.4274 C   0  0  0  0  0  0
  -29.5008  -12.5001   18.2070 C   0  0  0  0  0  0
  -28.0148  -12.3845   18.6070 C   0  0  0  0  0  0
  -27.6648  -13.2109   19.8754 C   0  0  2  0  0  0
  -28.7042  -12.9783   20.9982 C   0  0  0  0  0  0
  -25.2589  -13.8171   20.5676 C   0  0  0  0  0  0
  -24.1838  -13.0441   20.9150 C   0  0  0  0  0  0
  -24.6401  -11.6912   20.8713 C   0  0  0  0  0  0
  -23.9061  -10.4297   21.0398 C   0  0  0  0  0  0
  -24.3612   -9.4215   21.9181 C   0  0  0  0  0  0
  -23.6289   -8.2249   22.0745 C   0  0  0  0  0  0
  -22.4279   -8.0281   21.3533 C   0  0  0  0  0  0
  -21.9909   -9.0256   20.4645 C   0  0  0  0  0  0
  -22.7229  -10.2136   20.3055 C   0  0  0  0  0  0
  -21.6858   -6.0739   22.5276 C   0  0  0  0  0  0
  -21.4021   -6.5641   23.8209 C   0  0  0  0  0  0
  -21.3659   -5.6786   24.9169 C   0  0  0  0  0  0
  -21.6038   -4.3048   24.7220 C   0  0  0  0  0  0
  -21.8817   -3.8144   23.4340 C   0  0  0  0  0  0
  -21.9187   -4.6965   22.3396 C   0  0  0  0  0  0
  -22.7853  -13.5248   21.1809 C   0  0  0  0  0  0
  -22.1660   -4.2148   21.0970 F   0  0  0  0  0  0
  -21.5627   -3.4529   25.7733 F   0  0  0  0  0  0
  -30.0447  -13.2476   20.4516 N   0  0  0  0  0  0
  -26.3037  -12.9352   20.3348 N   0  0  0  0  0  0
  -25.9324  -11.6502   20.5724 N   0  0  0  0  0  0
  -22.0492  -12.8271   22.0385 N   0  0  0  0  0  0
  -25.4308  -15.1894   20.4130 N   0  0  0  0  0  0
  -31.8711  -14.5772   20.1307 O   0  0  0  0  0  0
  -21.6639   -6.8884   21.4238 O   0  0  0  0  0  0
  -22.3538  -14.5551   20.6641 O   0  0  0  0  0  0
  -24.6096  -31.8712   23.2144 C   0  0  0  0  0  0
  -25.8998  -32.4849   23.8435 C   0  0  1  0  0  0
  -27.2545  -27.4739   20.0911 C   0  0  0  0  0  0
  -25.5862  -33.8642   24.2360 N   0  0  0  0  0  0
  -23.3987  -30.4948   21.5520 C   0  0  2  0  0  0
  -24.8514  -28.9636   20.1219 C   0  0  0  0  0  0
  -22.7398  -29.4670   22.4984 C   0  0  0  0  0  0
  -18.0271  -28.1392   22.8490 C   0  0  0  0  0  0
  -24.1479  -36.7324   23.2645 C   0  0  0  0  0  0
  -25.9250  -30.8459   21.3681 C   0  0  0  0  0  0
  -26.0063  -29.4815   20.7212 C   0  0  0  0  0  0
  -27.2096  -28.7448   20.7133 C   0  0  0  0  0  0
  -26.0818  -26.9634   19.4987 C   0  0  0  0  0  0
  -24.8799  -27.6975   19.5131 C   0  0  0  0  0  0
  -23.6114  -29.8276   20.1670 C   0  0  0  0  0  0
  -25.4098  -36.3128   24.0348 C   0  0  1  0  0  0
  -20.5859  -28.3673   23.1317 C   0  0  2  0  0  0
  -20.6756  -26.9405   22.5426 C   0  0  0  0  0  0
  -19.5741  -26.6391   21.5214 C   0  0  0  0  0  0
  -18.1917  -26.7937   22.1621 C   0  0  0  0  0  0
  -19.1519  -28.8842   23.2910 C   0  0  0  0  0  0
  -18.9451  -30.1447   23.8926 C   0  0  0  0  0  0
  -17.6455  -30.6599   24.0566 C   0  0  0  0  0  0
  -25.9017  -34.9489   23.5158 C   0  0  0  0  0  0
  -16.5349  -29.9108   23.6325 C   0  0  0  0  0  0
  -16.7257  -28.6526   23.0342 C   0  0  0  0  0  0
  -26.4450  -31.6621   25.0749 C   0  0  0  0  0  0
  -25.3729  -31.3714   26.1512 C   0  0  0  0  0  0
  -27.0300  -30.3075   24.6108 C   0  0  0  0  0  0
  -27.6040  -32.4348   25.7477 C   0  0  0  0  0  0
  -27.5577  -37.1817   24.8465 C   0  0  0  0  0  0
  -21.4122  -29.3042   22.3725 N   0  0  0  0  0  0
  -26.4291  -37.3803   23.9405 N   0  0  0  0  0  0
  -24.6619  -31.0840   22.1040 N   0  0  0  0  0  0
  -23.4169  -28.8208   23.3018 O   0  0  0  0  0  0
  -28.3761  -26.6813   20.0019 O   0  0  0  0  0  0
  -26.5587  -34.8933   22.4725 O   0  0  0  0  0  0
  -23.5292  -32.1439   23.7548 O   0  0  0  0  0  0
  -30.4513  -16.9279   18.9502 C   0  0  0  0  0  0
  -30.3163  -18.1644   18.3006 C   0  0  0  0  0  0
  -29.3312  -17.8385   20.9107 C   0  0  0  0  0  0
  -29.2050  -19.0976   20.2727 C   0  0  0  0  0  0
  -29.9479  -16.7464   20.2617 C   0  0  0  0  0  0
  -29.6839  -19.2408   18.9419 C   0  0  0  0  0  0
  -28.6572  -21.6414   20.5171 C   0  0  0  0  0  0
  -29.5963  -23.6997   20.2759 C   0  0  0  0  0  0
  -28.5199  -20.2260   21.0557 C   0  0  0  0  0  0
  -30.5736  -24.6682   20.9587 C   0  0  0  0  0  0
  -30.6988  -26.0761   20.3214 C   0  0  0  0  0  0
  -29.5733  -27.0765   20.6539 C   0  0  0  0  0  0
  -29.5111  -22.4873   20.9488 N   0  0  0  0  0  0
  -29.9724  -15.4769   20.9138 N   0  0  0  0  0  0
  -29.0246  -24.0298   19.2321 O   0  0  0  0  0  0
  -29.5385  -20.3910   18.2423 F   0  0  0  0  0  0
  -31.4640  -12.3298   19.1377 H   0  0  0  0  0  0
  -30.2815  -11.2505   19.8139 H   0  0  0  0  0  0
  -29.7337  -11.7829   17.4183 H   0  0  0  0  0  0
  -29.6918  -13.4882   17.7846 H   0  0  0  0  0  0
  -27.7997  -11.3307   18.7811 H   0  0  0  0  0  0
  -27.3789  -12.6901   17.7743 H   0  0  0  0  0  0
  -27.7133  -14.2620   19.5878 H   0  0  0  0  0  0
  -28.6560  -11.9480   21.3524 H   0  0  0  0  0  0
  -28.4829  -13.5958   21.8697 H   0  0  0  0  0  0
  -25.2771   -9.5698   22.4733 H   0  0  0  0  0  0
  -24.0002   -7.4657   22.7474 H   0  0  0  0  0  0
  -21.0828   -8.8776   19.8972 H   0  0  0  0  0  0
  -22.3691  -10.9662   19.6152 H   0  0  0  0  0  0
  -21.2030   -7.6152   23.9718 H   0  0  0  0  0  0
  -21.1481   -6.0516   25.9071 H   0  0  0  0  0  0
  -22.0602   -2.7609   23.2831 H   0  0  0  0  0  0
  -22.4104  -11.9951   22.4814 H   0  0  0  0  0  0
  -21.1104  -13.1302   22.2547 H   0  0  0  0  0  0
  -24.6667  -15.8458   20.5279 H   0  0  0  0  0  0
  -26.2891  -15.6314   20.1066 H   0  0  0  0  0  0
  -26.7072  -32.5595   23.1208 H   0  0  0  0  0  0
  -24.9976  -33.9812   25.0479 H   0  0  0  0  0  0
  -22.6849  -31.3099   21.4132 H   0  0  0  0  0  0
  -23.3733  -35.9670   23.3341 H   0  0  0  0  0  0
  -24.3561  -36.8902   22.2052 H   0  0  0  0  0  0
  -23.7247  -37.6545   23.6639 H   0  0  0  0  0  0
  -26.0372  -31.6089   20.5967 H   0  0  0  0  0  0
  -26.8122  -30.9007   21.9866 H   0  0  0  0  0  0
  -28.0903  -29.1680   21.1747 H   0  0  0  0  0  0
  -26.1060  -25.9961   19.0167 H   0  0  0  0  0  0
  -23.9918  -27.2891   19.0508 H   0  0  0  0  0  0
  -23.7229  -30.6041   19.4095 H   0  0  0  0  0  0
  -22.7368  -29.2480   19.8680 H   0  0  0  0  0  0
  -25.1273  -36.2000   25.0842 H   0  0  0  0  0  0
  -20.9963  -28.3256   24.1431 H   0  0  0  0  0  0
  -20.5653  -26.2284   23.3622 H   0  0  0  0  0  0
  -21.6632  -26.7445   22.1227 H   0  0  0  0  0  0
  -19.6901  -25.6302   21.1247 H   0  0  0  0  0  0
  -19.6689  -27.3200   20.6744 H   0  0  0  0  0  0
  -17.4187  -26.6683   21.4025 H   0  0  0  0  0  0
  -18.0320  -26.0080   22.9020 H   0  0  0  0  0  0
  -19.7928  -30.7248   24.2324 H   0  0  0  0  0  0
  -17.5015  -31.6273   24.5178 H   0  0  0  0  0  0
  -15.5356  -30.3021   23.7627 H   0  0  0  0  0  0
  -15.8654  -28.0854   22.7041 H   0  0  0  0  0  0
  -24.5877  -30.7093   25.7840 H   0  0  0  0  0  0
  -24.8948  -32.2876   26.4995 H   0  0  0  0  0  0
  -25.8084  -30.8845   27.0249 H   0  0  0  0  0  0
  -26.2853  -29.6819   24.1174 H   0  0  0  0  0  0
  -27.4104  -29.7313   25.4553 H   0  0  0  0  0  0
  -27.8669  -30.4409   23.9247 H   0  0  0  0  0  0
  -27.2667  -33.3628   26.2096 H   0  0  0  0  0  0
  -28.3798  -32.6944   25.0266 H   0  0  0  0  0  0
  -28.0777  -31.8468   26.5342 H   0  0  0  0  0  0
  -28.2619  -38.0089   24.7485 H   0  0  0  0  0  0
  -28.1051  -36.2626   24.6322 H   0  0  0  0  0  0
  -27.2302  -37.1506   25.8870 H   0  0  0  0  0  0
  -20.9278  -29.8772   21.6960 H   0  0  0  0  0  0
  -26.0192  -38.2891   24.1391 H   0  0  0  0  0  0
  -30.9220  -16.1251   18.4022 H   0  0  0  0  0  0
  -30.6859  -18.2817   17.2917 H   0  0  0  0  0  0
  -28.9376  -17.7115   21.9106 H   0  0  0  0  0  0
  -27.9491  -21.8544   19.7094 H   0  0  0  0  0  0
  -28.8923  -20.2124   22.0807 H   0  0  0  0  0  0
  -27.4579  -19.9903   21.1180 H   0  0  0  0  0  0
  -31.5550  -24.1916   20.9248 H   0  0  0  0  0  0
  -30.3177  -24.7566   22.0153 H   0  0  0  0  0  0
  -30.8108  -25.9957   19.2395 H   0  0  0  0  0  0
  -31.6362  -26.5101   20.6698 H   0  0  0  0  0  0
  -29.8742  -28.0633   20.2990 H   0  0  0  0  0  0
  -29.4226  -27.1427   21.7328 H   0  0  0  0  0  0
  -29.1582  -15.2537   21.4668 H   0  0  0  0  0  0
  1 25  1  0  0  0
  1 30  2  0  0  0
  1 84  1  0  0  0
  2  3  1  0  0  0
  2 25  1  0  0  0
  2 87  1  0  0  0
  2 88  1  0  0  0
  3  4  1  0  0  0
  3 89  1  0  0  0
  3 90  1  0  0  0
  4  5  1  0  0  0
  4 91  1  0  0  0
  4 92  1  0  0  0
  5  6  1  0  0  0
  5 26  1  0  0  0
  5 93  1  0  0  0
  6 25  1  0  0  0
  6 94  1  0  0  0
  6 95  1  0  0  0
  7  8  2  0  0  0
  7 26  1  0  0  0
  7 29  1  0  0  0
  8  9  1  0  0  0
  8 22  1  0  0  0
  9 10  1  0  0  0
  9 27  2  0  0  0
 10 11  2  0  0  0
 10 15  1  0  0  0
 11 12  1  0  0  0
 11 96  1  0  0  0
 12 13  2  0  0  0
 12 97  1  0  0  0
 13 14  1  0  0  0
 13 31  1  0  0  0
 14 15  2  0  0  0
 14 98  1  0  0  0
 15 99  1  0  0  0
 16 17  2  0  0  0
 16 21  1  0  0  0
 16 31  1  0  0  0
 17 18  1  0  0  0
 17100  1  0  0  0
 18 19  2  0  0  0
 18101  1  0  0  0
 19 20  1  0  0  0
 19 24  1  0  0  0
 20 21  2  0  0  0
 20102  1  0  0  0
 21 23  1  0  0  0
 22 28  1  0  0  0
 22 32  2  0  0  0
 26 27  1  0  0  0
 28103  1  0  0  0
 28104  1  0  0  0
 29105  1  0  0  0
 29106  1  0  0  0
 33 34  1  0  0  0
 33 66  1  0  0  0
 33 70  2  0  0  0
 34 36  1  0  0  0
 34 59  1  0  0  0
 34107  1  0  0  0
 35 44  2  0  0  0
 35 45  1  0  0  0
 35 68  1  0  0  0
 36 56  1  0  0  0
 36108  1  0  0  0
 37 39  1  0  0  0
 37 47  1  0  0  0
 37 66  1  0  0  0
 37109  1  0  0  0
 38 43  2  0  0  0
 38 46  1  0  0  0
 38 47  1  0  0  0
 39 64  1  0  0  0
 39 67  2  0  0  0
 40 52  1  0  0  0
 40 53  2  0  0  0
 40 58  1  0  0  0
 41110  1  0  0  0
 41111  1  0  0  0
 41112  1  0  0  0
 41 48  1  0  0  0
 42 43  1  0  0  0
 42 66  1  0  0  0
 42113  1  0  0  0
 42114  1  0  0  0
 43 44  1  0  0  0
 44115  1  0  0  0
 45 46  2  0  0  0
 45116  1  0  0  0
 46117  1  0  0  0
 47118  1  0  0  0
 47119  1  0  0  0
 48 56  1  0  0  0
 48 65  1  0  0  0
 48120  1  0  0  0
 49 50  1  0  0  0
 49 53  1  0  0  0
 49 64  1  0  0  0
 49121  1  0  0  0
 50 51  1  0  0  0
 50122  1  0  0  0
 50123  1  0  0  0
 51 52  1  0  0  0
 51124  1  0  0  0
 51125  1  0  0  0
 52126  1  0  0  0
 52127  1  0  0  0
 53 54  1  0  0  0
 54 55  2  0  0  0
 54128  1  0  0  0
 55 57  1  0  0  0
 55129  1  0  0  0
 56 69  2  0  0  0
 57 58  2  0  0  0
 57130  1  0  0  0
 58131  1  0  0  0
 59 60  1  0  0  0
 59 61  1  0  0  0
 59 62  1  0  0  0
 60132  1  0  0  0
 60133  1  0  0  0
 60134  1  0  0  0
 61135  1  0  0  0
 61136  1  0  0  0
 61137  1  0  0  0
 62138  1  0  0  0
 62139  1  0  0  0
 62140  1  0  0  0
 63 65  1  0  0  0
 63141  1  0  0  0
 63142  1  0  0  0
 63143  1  0  0  0
 64144  1  0  0  0
 65145  1  0  0  0
 68 82  1  0  0  0
 71 72  2  0  0  0
 71 75  1  0  0  0
 71146  1  0  0  0
 72 76  1  0  0  0
 72147  1  0  0  0
 73 74  1  0  0  0
 73 75  2  0  0  0
 73148  1  0  0  0
 74 76  2  0  0  0
 74 79  1  0  0  0
 75 84  1  0  0  0
 76 86  1  0  0  0
 77 79  1  0  0  0
 77 83  2  0  0  0
 77149  1  0  0  0
 78 80  1  0  0  0
 78 83  1  0  0  0
 78 85  2  0  0  0
 79150  1  0  0  0
 79151  1  0  0  0
 80 81  1  0  0  0
 80152  1  0  0  0
 80153  1  0  0  0
 81 82  1  0  0  0
 81154  1  0  0  0
 81155  1  0  0  0
 82156  1  0  0  0
 82157  1  0  0  0
 84158  1  0  0  0
M  ISO  4   1 100  68 101  82 101  84 100
M  END
> <chiral flag>
0

> <version>
0

> <s_m_source_file>
/data/baiqing/PycharmProjects/Reinvent-master-3.2/result/LINK_invent/BTK/process_docking_weight1_custom_product_contain_oxygen_bond_distance_aromatic_linkinvent_7_9_3/rearranged_h_0168.sdf

> <i_m_source_file_index>
29

> <r_mmod_Potential_Energy-OPLS-2005>
-97.8379821777344

> <r_mmod_Stretch_Energy-OPLS-2005>
35.467716217041

> <r_mmod_Bend_Energy-OPLS-2005>
107.409156799316

> <r_mmod_Torsional_Energy-OPLS-2005>
218.164764404297

> <r_mmod_Improper_Torsional_Energy-OPLS-2005>
5.91226291656494

> <r_mmod_Van_der_Waal_Energy-OPLS-2005>
172.751083374023

> <r_mmod_Electrostatic_Energy-OPLS-2005>
-431.256072998047

> <r_mmod_Solvation_Energy-OPLS-2005>
-217.323501586914

> <b_mmod_Minimization_Converged-OPLS-2005>
0

> <r_mmod_RMS_Derivative-OPLS-2005>
2.19642400741577

$$$$
29
                    3D
 Structure written by MMmdl.
154162  0  0  1  0            999 V2000
  -30.5986  -14.7605   20.4607 C   0  0  0  0  0  0
  -30.4436  -12.4697   19.4559 C   0  0  0  0  0  0
  -29.5093  -12.4985   18.2260 C   0  0  0  0  0  0
  -28.0367  -12.3209   18.6470 C   0  0  0  0  0  0
  -27.6395  -13.2261   19.8435 C   0  0  2  0  0  0
  -28.6910  -13.1680   20.9725 C   0  0  0  0  0  0
  -25.2513  -13.8186   20.5701 C   0  0  0  0  0  0
  -24.1805  -13.0435   20.9220 C   0  0  0  0  0  0
  -24.6388  -11.6908   20.8757 C   0  0  0  0  0  0
  -23.9061  -10.4293   21.0413 C   0  0  0  0  0  0
  -24.3612   -9.4202   21.9186 C   0  0  0  0  0  0
  -23.6287   -8.2237   22.0754 C   0  0  0  0  0  0
  -22.4271   -8.0277   21.3538 C   0  0  0  0  0  0
  -21.9906   -9.0256   20.4644 C   0  0  0  0  0  0
  -22.7237  -10.2133   20.3058 C   0  0  0  0  0  0
  -21.6850   -6.0728   22.5277 C   0  0  0  0  0  0
  -21.4011   -6.5632   23.8212 C   0  0  0  0  0  0
  -21.3661   -5.6784   24.9175 C   0  0  0  0  0  0
  -21.6045   -4.3047   24.7224 C   0  0  0  0  0  0
  -21.8822   -3.8140   23.4346 C   0  0  0  0  0  0
  -21.9193   -4.6957   22.3401 C   0  0  0  0  0  0
  -22.7822  -13.5213   21.1883 C   0  0  0  0  0  0
  -22.1659   -4.2142   21.0980 F   0  0  0  0  0  0
  -21.5634   -3.4535   25.7740 F   0  0  0  0  0  0
  -29.9822  -13.5315   20.3765 N   0  0  0  0  0  0
  -26.2928  -12.9374   20.3261 N   0  0  0  0  0  0
  -25.9313  -11.6525   20.5751 N   0  0  0  0  0  0
  -22.0456  -12.8206   22.0436 N   0  0  0  0  0  0
  -25.4172  -15.1913   20.4107 N   0  0  0  0  0  0
  -31.8070  -14.8531   20.2158 O   0  0  0  0  0  0
  -21.6631   -6.8871   21.4240 O   0  0  0  0  0  0
  -22.3511  -14.5525   20.6740 O   0  0  0  0  0  0
  -24.6326  -31.8559   23.1972 C   0  0  0  0  0  0
  -25.9149  -32.4758   23.8326 C   0  0  1  0  0  0
  -27.2117  -27.2500   20.1392 C   0  0  0  0  0  0
  -25.5945  -33.8564   24.2244 N   0  0  0  0  0  0
  -23.4299  -30.4806   21.5397 C   0  0  2  0  0  0
  -24.8763  -28.9259   20.1092 C   0  0  0  0  0  0
  -22.7512  -29.4603   22.4862 C   0  0  0  0  0  0
  -18.0307  -28.1402   22.8472 C   0  0  0  0  0  0
  -24.1493  -36.7296   23.2638 C   0  0  0  0  0  0
  -25.9764  -30.7676   21.3762 C   0  0  0  0  0  0
  -26.0489  -29.3874   20.7201 C   0  0  0  0  0  0
  -27.2235  -28.5648   20.7187 C   0  0  0  0  0  0
  -26.0199  -26.8641   19.4869 C   0  0  0  0  0  0
  -24.8682  -27.6733   19.4786 C   0  0  0  0  0  0
  -23.6506  -29.8195   20.1534 C   0  0  0  0  0  0
  -25.4119  -36.3067   24.0317 C   0  0  1  0  0  0
  -20.5911  -28.3717   23.1252 C   0  0  2  0  0  0
  -20.6796  -26.9431   22.5403 C   0  0  0  0  0  0
  -19.5771  -26.6385   21.5207 C   0  0  0  0  0  0
  -18.1943  -26.7940   22.1614 C   0  0  0  0  0  0
  -19.1556  -28.8872   23.2860 C   0  0  0  0  0  0
  -18.9489  -30.1456   23.8896 C   0  0  0  0  0  0
  -17.6485  -30.6600   24.0562 C   0  0  0  0  0  0
  -25.9058  -34.9440   23.5072 C   0  0  0  0  0  0
  -16.5375  -29.9099   23.6321 C   0  0  0  0  0  0
  -16.7288  -28.6520   23.0340 C   0  0  0  0  0  0
  -26.4513  -31.6594   25.0715 C   0  0  0  0  0  0
  -25.3723  -31.3776   26.1428 C   0  0  0  0  0  0
  -27.0360  -30.3009   24.6205 C   0  0  0  0  0  0
  -27.6045  -32.4358   25.7511 C   0  0  0  0  0  0
  -27.5575  -37.1809   24.8461 C   0  0  0  0  0  0
  -21.4221  -29.3076   22.3640 N   0  0  0  0  0  0
  -26.4291  -37.3771   23.9402 N   0  0  0  0  0  0
  -24.6991  -31.0531   22.0942 N   0  0  0  0  0  0
  -23.4218  -28.8127   23.2947 O   0  0  0  0  0  0
  -28.2944  -26.3383   20.1770 O   0  0  0  0  0  0
  -26.5623  -34.8910   22.4636 O   0  0  0  0  0  0
  -23.5473  -32.1373   23.7268 O   0  0  0  0  0  0
  -30.8213  -18.7110   22.7176 C   0  0  0  0  0  0
  -30.6546  -17.4299   22.1616 C   0  0  0  0  0  0
  -30.3513  -19.8644   22.0605 C   0  0  0  0  0  0
  -30.0100  -17.2822   20.9136 C   0  0  0  0  0  0
  -29.6720  -19.7234   20.8244 C   0  0  0  0  0  0
  -29.0834  -23.6511   18.5830 C   0  0  0  0  0  0
  -28.5231  -22.1372   20.6144 C   0  0  0  0  0  0
  -28.0277  -24.8984   20.5698 C   0  0  0  0  0  0
  -28.9510  -23.6337   20.1106 C   0  0  2  0  0  0
  -29.5189  -18.4412   20.2850 N   0  0  0  0  0  0
  -29.7774  -15.8841   20.4802 N   0  0  0  0  0  0
  -29.2231  -20.8866   20.0819 N   0  0  0  0  0  0
  -31.0800  -16.3478   22.8606 F   0  0  0  0  0  0
  -30.1692  -23.8515   20.6085 F   0  0  0  0  0  0
  -30.6966  -21.3958   22.7911 Cl  0  0  0  0  0  0
  -31.4777  -12.6199   19.1401 H   0  0  0  0  0  0
  -30.4159  -11.4957   19.9465 H   0  0  0  0  0  0
  -29.7920  -11.7162   17.5202 H   0  0  0  0  0  0
  -29.6285  -13.4443   17.6958 H   0  0  0  0  0  0
  -27.8994  -11.2740   18.9189 H   0  0  0  0  0  0
  -27.3762  -12.5035   17.7997 H   0  0  0  0  0  0
  -27.6272  -14.2431   19.4531 H   0  0  0  0  0  0
  -28.7368  -12.1709   21.4146 H   0  0  0  0  0  0
  -28.4295  -13.8525   21.7815 H   0  0  0  0  0  0
  -25.2755   -9.5677   22.4765 H   0  0  0  0  0  0
  -23.9994   -7.4626   22.7471 H   0  0  0  0  0  0
  -21.0836   -8.8771   19.8952 H   0  0  0  0  0  0
  -22.3690  -10.9672   19.6171 H   0  0  0  0  0  0
  -21.1996   -7.6139   23.9712 H   0  0  0  0  0  0
  -21.1482   -6.0513   25.9075 H   0  0  0  0  0  0
  -22.0602   -2.7603   23.2849 H   0  0  0  0  0  0
  -22.4060  -11.9853   22.4813 H   0  0  0  0  0  0
  -21.1083  -13.1251   22.2655 H   0  0  0  0  0  0
  -24.6435  -15.8379   20.5241 H   0  0  0  0  0  0
  -26.2478  -15.6378   20.0459 H   0  0  0  0  0  0
  -26.7209  -32.5422   23.1069 H   0  0  0  0  0  0
  -25.0123  -33.9703   25.0408 H   0  0  0  0  0  0
  -22.7270  -31.3037   21.3952 H   0  0  0  0  0  0
  -23.3740  -35.9637   23.3301 H   0  0  0  0  0  0
  -24.3583  -36.8920   22.2048 H   0  0  0  0  0  0
  -23.7255  -37.6500   23.6674 H   0  0  0  0  0  0
  -26.1140  -31.5286   20.6068 H   0  0  0  0  0  0
  -26.8542  -30.8211   22.0072 H   0  0  0  0  0  0
  -28.1244  -28.9173   21.2006 H   0  0  0  0  0  0
  -25.9606  -25.9134   18.9776 H   0  0  0  0  0  0
  -23.9738  -27.3237   18.9813 H   0  0  0  0  0  0
  -23.7868  -30.6019   19.4056 H   0  0  0  0  0  0
  -22.7661  -29.2632   19.8371 H   0  0  0  0  0  0
  -25.1303  -36.1911   25.0808 H   0  0  0  0  0  0
  -21.0009  -28.3308   24.1364 H   0  0  0  0  0  0
  -20.5704  -26.2329   23.3620 H   0  0  0  0  0  0
  -21.6666  -26.7461   22.1194 H   0  0  0  0  0  0
  -19.6942  -25.6285   21.1262 H   0  0  0  0  0  0
  -19.6716  -27.3168   20.6712 H   0  0  0  0  0  0
  -17.4218  -26.6675   21.4007 H   0  0  0  0  0  0
  -18.0349  -26.0083   22.9015 H   0  0  0  0  0  0
  -19.7963  -30.7262   24.2274 H   0  0  0  0  0  0
  -17.5053  -31.6274   24.5176 H   0  0  0  0  0  0
  -15.5380  -30.3016   23.7651 H   0  0  0  0  0  0
  -15.8683  -28.0850   22.7054 H   0  0  0  0  0  0
  -24.5899  -30.7121   25.7777 H   0  0  0  0  0  0
  -24.8912  -32.2955   26.4813 H   0  0  0  0  0  0
  -25.8019  -30.8997   27.0234 H   0  0  0  0  0  0
  -26.2943  -29.6763   24.1215 H   0  0  0  0  0  0
  -27.4026  -29.7279   25.4731 H   0  0  0  0  0  0
  -27.8824  -30.4293   23.9456 H   0  0  0  0  0  0
  -27.2633  -33.3680   26.2038 H   0  0  0  0  0  0
  -28.3894  -32.6898   25.0370 H   0  0  0  0  0  0
  -28.0667  -31.8519   26.5481 H   0  0  0  0  0  0
  -28.2588  -38.0111   24.7499 H   0  0  0  0  0  0
  -28.1079  -36.2639   24.6307 H   0  0  0  0  0  0
  -27.2299  -37.1476   25.8868 H   0  0  0  0  0  0
  -20.9392  -29.8849   21.6904 H   0  0  0  0  0  0
  -26.0163  -38.2835   24.1415 H   0  0  0  0  0  0
  -31.3229  -18.8089   23.6679 H   0  0  0  0  0  0
  -28.1184  -23.4830   18.1054 H   0  0  0  0  0  0
  -29.7763  -22.8837   18.2382 H   0  0  0  0  0  0
  -29.4614  -24.6140   18.2387 H   0  0  0  0  0  0
  -27.4788  -22.0086   20.3293 H   0  0  0  0  0  0
  -28.4906  -22.1166   21.7025 H   0  0  0  0  0  0
  -28.0199  -24.8978   21.6599 H   0  0  0  0  0  0
  -27.0094  -24.6219   20.3073 H   0  0  0  0  0  0
  -28.8114  -15.6777   20.3001 H   0  0  0  0  0  0
  -28.9529  -20.6656   19.1320 H   0  0  0  0  0  0
  1 25  1  0  0  0
  1 30  2  0  0  0
  1 81  1  0  0  0
  2  3  1  0  0  0
  2 25  1  0  0  0
  2 86  1  0  0  0
  2 87  1  0  0  0
  3  4  1  0  0  0
  3 88  1  0  0  0
  3 89  1  0  0  0
  4  5  1  0  0  0
  4 90  1  0  0  0
  4 91  1  0  0  0
  5  6  1  0  0  0
  5 26  1  0  0  0
  5 92  1  0  0  0
  6 25  1  0  0  0
  6 93  1  0  0  0
  6 94  1  0  0  0
  7  8  2  0  0  0
  7 26  1  0  0  0
  7 29  1  0  0  0
  8  9  1  0  0  0
  8 22  1  0  0  0
  9 10  1  0  0  0
  9 27  2  0  0  0
 10 11  2  0  0  0
 10 15  1  0  0  0
 11 12  1  0  0  0
 11 95  1  0  0  0
 12 13  2  0  0  0
 12 96  1  0  0  0
 13 14  1  0  0  0
 13 31  1  0  0  0
 14 15  2  0  0  0
 14 97  1  0  0  0
 15 98  1  0  0  0
 16 17  2  0  0  0
 16 21  1  0  0  0
 16 31  1  0  0  0
 17 18  1  0  0  0
 17 99  1  0  0  0
 18 19  2  0  0  0
 18100  1  0  0  0
 19 20  1  0  0  0
 19 24  1  0  0  0
 20 21  2  0  0  0
 20101  1  0  0  0
 21 23  1  0  0  0
 22 28  1  0  0  0
 22 32  2  0  0  0
 26 27  1  0  0  0
 28102  1  0  0  0
 28103  1  0  0  0
 29104  1  0  0  0
 29105  1  0  0  0
 33 34  1  0  0  0
 33 66  1  0  0  0
 33 70  2  0  0  0
 34 36  1  0  0  0
 34 59  1  0  0  0
 34106  1  0  0  0
 35 44  2  0  0  0
 35 45  1  0  0  0
 35 68  1  0  0  0
 36 56  1  0  0  0
 36107  1  0  0  0
 37 39  1  0  0  0
 37 47  1  0  0  0
 37 66  1  0  0  0
 37108  1  0  0  0
 38 43  2  0  0  0
 38 46  1  0  0  0
 38 47  1  0  0  0
 39 64  1  0  0  0
 39 67  2  0  0  0
 40 52  1  0  0  0
 40 53  2  0  0  0
 40 58  1  0  0  0
 41109  1  0  0  0
 41110  1  0  0  0
 41111  1  0  0  0
 41 48  1  0  0  0
 42 43  1  0  0  0
 42 66  1  0  0  0
 42112  1  0  0  0
 42113  1  0  0  0
 43 44  1  0  0  0
 44114  1  0  0  0
 45 46  2  0  0  0
 45115  1  0  0  0
 46116  1  0  0  0
 47117  1  0  0  0
 47118  1  0  0  0
 48 56  1  0  0  0
 48 65  1  0  0  0
 48119  1  0  0  0
 49 50  1  0  0  0
 49 53  1  0  0  0
 49 64  1  0  0  0
 49120  1  0  0  0
 50 51  1  0  0  0
 50121  1  0  0  0
 50122  1  0  0  0
 51 52  1  0  0  0
 51123  1  0  0  0
 51124  1  0  0  0
 52125  1  0  0  0
 52126  1  0  0  0
 53 54  1  0  0  0
 54 55  2  0  0  0
 54127  1  0  0  0
 55 57  1  0  0  0
 55128  1  0  0  0
 56 69  2  0  0  0
 57 58  2  0  0  0
 57129  1  0  0  0
 58130  1  0  0  0
 59 60  1  0  0  0
 59 61  1  0  0  0
 59 62  1  0  0  0
 60131  1  0  0  0
 60132  1  0  0  0
 60133  1  0  0  0
 61134  1  0  0  0
 61135  1  0  0  0
 61136  1  0  0  0
 62137  1  0  0  0
 62138  1  0  0  0
 62139  1  0  0  0
 63 65  1  0  0  0
 63140  1  0  0  0
 63141  1  0  0  0
 63142  1  0  0  0
 64143  1  0  0  0
 65144  1  0  0  0
 68 78  1  0  0  0
 71 72  2  0  0  0
 71 73  1  0  0  0
 71145  1  0  0  0
 72 74  1  0  0  0
 72 83  1  0  0  0
 73 75  2  0  0  0
 73 85  1  0  0  0
 74 80  2  0  0  0
 74 81  1  0  0  0
 75 80  1  0  0  0
 75 82  1  0  0  0
 76146  1  0  0  0
 76147  1  0  0  0
 76148  1  0  0  0
 76 79  1  0  0  0
 77 79  1  0  0  0
 77 82  1  0  0  0
 77149  1  0  0  0
 77150  1  0  0  0
 78 79  1  0  0  0
 78151  1  0  0  0
 78152  1  0  0  0
 79 84  1  0  0  0
 81153  1  0  0  0
 82154  1  0  0  0
M  ISO  4   1 100  68 101  78 101  81 100
M  END
> <chiral flag>
0

> <version>
0

> <s_m_source_file>
/data/baiqing/PycharmProjects/Reinvent-master-3.2/result/LINK_invent/BTK/process_docking_weight1_custom_product_contain_oxygen_bond_distance_aromatic_linkinvent_7_9_3/rearranged_h_0168.sdf

> <i_m_source_file_index>
30

> <r_mmod_Potential_Energy-OPLS-2005>
70.5851821899414

> <r_mmod_Stretch_Energy-OPLS-2005>
134.099731445312

> <r_mmod_Bend_Energy-OPLS-2005>
175.662963867188

> <r_mmod_Torsional_Energy-OPLS-2005>
261.772338867188

> <r_mmod_Improper_Torsional_Energy-OPLS-2005>
12.0567312240601

> <r_mmod_Van_der_Waal_Energy-OPLS-2005>
141.572708129883

> <r_mmod_Electrostatic_Energy-OPLS-2005>
-522.671203613281

> <r_mmod_Solvation_Energy-OPLS-2005>
-226.945358276367

> <b_mmod_Minimization_Converged-OPLS-2005>
0

> <r_mmod_RMS_Derivative-OPLS-2005>
2.48263740539551

$$$$
30
                    3D
 Structure written by MMmdl.
161169  0  0  1  0            999 V2000
  -30.7610  -14.4116   20.6254 C   0  0  0  0  0  0
  -30.4087  -12.2916   19.4119 C   0  0  0  0  0  0
  -29.4832  -12.5137   18.1999 C   0  0  0  0  0  0
  -28.0068  -12.3771   18.6145 C   0  0  0  0  0  0
  -27.6624  -13.2091   19.8790 C   0  0  2  0  0  0
  -28.7042  -12.9863   20.9997 C   0  0  0  0  0  0
  -25.2585  -13.8164   20.5702 C   0  0  0  0  0  0
  -24.1834  -13.0432   20.9179 C   0  0  0  0  0  0
  -24.6393  -11.6894   20.8742 C   0  0  0  0  0  0
  -23.9053  -10.4278   21.0409 C   0  0  0  0  0  0
  -24.3592   -9.4186   21.9182 C   0  0  0  0  0  0
  -23.6275   -8.2217   22.0745 C   0  0  0  0  0  0
  -22.4261   -8.0269   21.3537 C   0  0  0  0  0  0
  -21.9905   -9.0242   20.4639 C   0  0  0  0  0  0
  -22.7237  -10.2120   20.3044 C   0  0  0  0  0  0
  -21.6840   -6.0741   22.5284 C   0  0  0  0  0  0
  -21.4015   -6.5648   23.8224 C   0  0  0  0  0  0
  -21.3654   -5.6800   24.9189 C   0  0  0  0  0  0
  -21.6037   -4.3058   24.7243 C   0  0  0  0  0  0
  -21.8817   -3.8157   23.4356 C   0  0  0  0  0  0
  -21.9179   -4.6969   22.3408 C   0  0  0  0  0  0
  -22.7863  -13.5223   21.1876 C   0  0  0  0  0  0
  -22.1649   -4.2154   21.0996 F   0  0  0  0  0  0
  -21.5622   -3.4529   25.7745 F   0  0  0  0  0  0
  -30.0408  -13.2702   20.4483 N   0  0  0  0  0  0
  -26.3025  -12.9338   20.3406 N   0  0  0  0  0  0
  -25.9322  -11.6485   20.5780 N   0  0  0  0  0  0
  -22.0504  -12.8184   22.0409 N   0  0  0  0  0  0
  -25.4357  -15.1883   20.4118 N   0  0  0  0  0  0
  -31.8347  -14.6160   20.0518 O   0  0  0  0  0  0
  -21.6624   -6.8873   21.4243 O   0  0  0  0  0  0
  -22.3536  -14.5544   20.6759 O   0  0  0  0  0  0
  -24.6135  -31.8676   23.2107 C   0  0  0  0  0  0
  -25.9046  -32.4809   23.8390 C   0  0  1  0  0  0
  -27.2285  -27.4373   20.1010 C   0  0  0  0  0  0
  -25.5914  -33.8604   24.2336 N   0  0  0  0  0  0
  -23.3995  -30.4932   21.5497 C   0  0  2  0  0  0
  -24.8448  -28.9615   20.1136 C   0  0  0  0  0  0
  -22.7396  -29.4667   22.4984 C   0  0  0  0  0  0
  -18.0260  -28.1366   22.8492 C   0  0  0  0  0  0
  -24.1489  -36.7300   23.2635 C   0  0  0  0  0  0
  -25.9279  -30.8382   21.3605 C   0  0  0  0  0  0
  -26.0055  -29.4735   20.7063 C   0  0  0  0  0  0
  -27.2012  -28.7206   20.6924 C   0  0  0  0  0  0
  -26.0512  -26.9442   19.4901 C   0  0  0  0  0  0
  -24.8624  -27.6965   19.5024 C   0  0  0  0  0  0
  -23.6066  -29.8262   20.1639 C   0  0  0  0  0  0
  -25.4110  -36.3101   24.0341 C   0  0  1  0  0  0
  -20.5845  -28.3656   23.1305 C   0  0  2  0  0  0
  -20.6745  -26.9396   22.5399 C   0  0  0  0  0  0
  -19.5736  -26.6380   21.5187 C   0  0  0  0  0  0
  -18.1914  -26.7918   22.1606 C   0  0  0  0  0  0
  -19.1510  -28.8826   23.2898 C   0  0  0  0  0  0
  -18.9444  -30.1430   23.8908 C   0  0  0  0  0  0
  -17.6451  -30.6582   24.0541 C   0  0  0  0  0  0
  -25.9045  -34.9464   23.5135 C   0  0  0  0  0  0
  -16.5333  -29.9081   23.6322 C   0  0  0  0  0  0
  -16.7251  -28.6486   23.0365 C   0  0  0  0  0  0
  -26.4487  -31.6572   25.0702 C   0  0  0  0  0  0
  -25.3781  -31.3642   26.1471 C   0  0  0  0  0  0
  -27.0297  -30.3020   24.6037 C   0  0  0  0  0  0
  -27.6062  -32.4275   25.7466 C   0  0  0  0  0  0
  -27.5588  -37.1791   24.8456 C   0  0  0  0  0  0
  -21.4123  -29.3038   22.3735 N   0  0  0  0  0  0
  -26.4282  -37.3792   23.9430 N   0  0  0  0  0  0
  -24.6650  -31.0807   22.0984 N   0  0  0  0  0  0
  -23.4189  -28.8208   23.3009 O   0  0  0  0  0  0
  -28.3968  -26.7047   20.1352 O   0  0  0  0  0  0
  -26.5589  -34.8912   22.4684 O   0  0  0  0  0  0
  -23.5337  -32.1403   23.7530 O   0  0  0  0  0  0
  -31.8638  -16.5697   22.7500 C   0  0  0  0  0  0
  -30.5610  -17.7741   21.0669 C   0  0  0  0  0  0
  -32.6022  -17.7385   23.0308 C   0  0  0  0  0  0
  -30.8691  -16.5711   21.7493 C   0  0  0  0  0  0
  -31.3129  -18.9456   21.3269 C   0  0  0  0  0  0
  -32.3490  -18.9147   22.2891 C   0  0  0  0  0  0
  -29.7664  -22.2329   20.4024 C   0  0  0  0  0  0
  -29.2450  -24.6334   21.1437 C   0  0  0  0  0  0
  -33.6854  -17.6976   24.0977 C   0  0  0  0  0  0
  -29.0818  -23.1352   21.4417 C   0  0  0  0  0  0
  -29.7606  -20.7192   20.6836 C   0  0  0  0  0  0
  -28.2566  -25.2727   20.1574 C   0  0  0  0  0  0
  -33.1315  -20.0576   22.4786 N   0  0  0  0  0  0
  -30.2182  -15.3510   21.4187 N   0  0  0  0  0  0
  -31.1112  -20.1585   20.6525 N   0  0  0  0  0  0
  -30.3336  -22.6769   19.3973 O   0  0  0  0  0  0
  -30.1076  -25.3037   21.7242 O   0  0  0  0  0  0
  -31.4556  -12.3672   19.1125 H   0  0  0  0  0  0
  -30.2890  -11.2783   19.7988 H   0  0  0  0  0  0
  -29.7165  -11.7975   17.4118 H   0  0  0  0  0  0
  -29.6553  -13.5040   17.7758 H   0  0  0  0  0  0
  -27.8116  -11.3201   18.8019 H   0  0  0  0  0  0
  -27.3541  -12.6624   17.7894 H   0  0  0  0  0  0
  -27.7097  -14.2592   19.5886 H   0  0  0  0  0  0
  -28.6685  -11.9534   21.3490 H   0  0  0  0  0  0
  -28.4630  -13.5918   21.8733 H   0  0  0  0  0  0
  -25.2732   -9.5656   22.4760 H   0  0  0  0  0  0
  -23.9986   -7.4590   22.7442 H   0  0  0  0  0  0
  -21.0843   -8.8753   19.8936 H   0  0  0  0  0  0
  -22.3701  -10.9645   19.6130 H   0  0  0  0  0  0
  -21.2025   -7.6161   23.9731 H   0  0  0  0  0  0
  -21.1476   -6.0537   25.9093 H   0  0  0  0  0  0
  -22.0602   -2.7615   23.2855 H   0  0  0  0  0  0
  -22.4096  -11.9787   22.4720 H   0  0  0  0  0  0
  -21.1136  -13.1214   22.2670 H   0  0  0  0  0  0
  -24.6810  -15.8576   20.5183 H   0  0  0  0  0  0
  -26.3024  -15.6153   20.1073 H   0  0  0  0  0  0
  -26.7112  -32.5530   23.1150 H   0  0  0  0  0  0
  -25.0100  -33.9753   25.0510 H   0  0  0  0  0  0
  -22.6868  -31.3088   21.4117 H   0  0  0  0  0  0
  -23.3756  -35.9625   23.3263 H   0  0  0  0  0  0
  -24.3617  -36.8944   22.2060 H   0  0  0  0  0  0
  -23.7221  -37.6489   23.6663 H   0  0  0  0  0  0
  -26.0419  -31.6084   20.5967 H   0  0  0  0  0  0
  -26.8145  -30.8870   21.9798 H   0  0  0  0  0  0
  -28.0967  -29.1129   21.1534 H   0  0  0  0  0  0
  -26.0353  -25.9807   18.9994 H   0  0  0  0  0  0
  -23.9703  -27.2976   19.0394 H   0  0  0  0  0  0
  -23.7135  -30.5991   19.4018 H   0  0  0  0  0  0
  -22.7317  -29.2431   19.8708 H   0  0  0  0  0  0
  -25.1281  -36.1950   25.0827 H   0  0  0  0  0  0
  -20.9930  -28.3207   24.1424 H   0  0  0  0  0  0
  -20.5628  -26.2263   23.3587 H   0  0  0  0  0  0
  -21.6621  -26.7436   22.1211 H   0  0  0  0  0  0
  -19.6903  -25.6293   21.1219 H   0  0  0  0  0  0
  -19.6690  -27.3177   20.6709 H   0  0  0  0  0  0
  -17.4189  -26.6659   21.3996 H   0  0  0  0  0  0
  -18.0332  -26.0047   22.8990 H   0  0  0  0  0  0
  -19.7926  -30.7226   24.2296 H   0  0  0  0  0  0
  -17.5016  -31.6274   24.5126 H   0  0  0  0  0  0
  -15.5335  -30.2992   23.7655 H   0  0  0  0  0  0
  -15.8646  -28.0802   22.7106 H   0  0  0  0  0  0
  -24.5975  -30.6958   25.7820 H   0  0  0  0  0  0
  -24.8949  -32.2775   26.4953 H   0  0  0  0  0  0
  -25.8190  -30.8809   27.0203 H   0  0  0  0  0  0
  -26.2799  -29.6788   24.1152 H   0  0  0  0  0  0
  -27.4141  -29.7258   25.4460 H   0  0  0  0  0  0
  -27.8613  -30.4339   23.9113 H   0  0  0  0  0  0
  -27.2693  -33.3584   26.2041 H   0  0  0  0  0  0
  -28.3891  -32.6812   25.0304 H   0  0  0  0  0  0
  -28.0707  -31.8389   26.5390 H   0  0  0  0  0  0
  -28.2555  -38.0138   24.7586 H   0  0  0  0  0  0
  -28.1128  -36.2671   24.6171 H   0  0  0  0  0  0
  -27.2325  -37.1312   25.8858 H   0  0  0  0  0  0
  -20.9273  -29.8794   21.6994 H   0  0  0  0  0  0
  -26.0161  -38.2857   24.1466 H   0  0  0  0  0  0
  -32.0868  -15.6555   23.2836 H   0  0  0  0  0  0
  -29.7939  -17.7804   20.3067 H   0  0  0  0  0  0
  -33.5942  -16.8095   24.7231 H   0  0  0  0  0  0
  -33.6245  -18.5689   24.7512 H   0  0  0  0  0  0
  -34.6728  -17.6854   23.6343 H   0  0  0  0  0  0
  -29.5029  -22.9187   22.4230 H   0  0  0  0  0  0
  -28.0211  -22.8895   21.4875 H   0  0  0  0  0  0
  -29.1446  -20.2332   19.9270 H   0  0  0  0  0  0
  -29.2915  -20.5354   21.6519 H   0  0  0  0  0  0
  -27.2628  -24.9719   20.4888 H   0  0  0  0  0  0
  -28.4142  -24.8653   19.1592 H   0  0  0  0  0  0
  -33.9391  -19.9146   23.0729 H   0  0  0  0  0  0
  -33.4211  -20.5136   21.6207 H   0  0  0  0  0  0
  -29.3133  -15.1659   21.8244 H   0  0  0  0  0  0
  -31.7743  -20.8240   21.0407 H   0  0  0  0  0  0
  1 25  1  0  0  0
  1 30  2  0  0  0
  1 84  1  0  0  0
  2  3  1  0  0  0
  2 25  1  0  0  0
  2 88  1  0  0  0
  2 89  1  0  0  0
  3  4  1  0  0  0
  3 90  1  0  0  0
  3 91  1  0  0  0
  4  5  1  0  0  0
  4 92  1  0  0  0
  4 93  1  0  0  0
  5  6  1  0  0  0
  5 26  1  0  0  0
  5 94  1  0  0  0
  6 25  1  0  0  0
  6 95  1  0  0  0
  6 96  1  0  0  0
  7  8  2  0  0  0
  7 26  1  0  0  0
  7 29  1  0  0  0
  8  9  1  0  0  0
  8 22  1  0  0  0
  9 10  1  0  0  0
  9 27  2  0  0  0
 10 11  2  0  0  0
 10 15  1  0  0  0
 11 12  1  0  0  0
 11 97  1  0  0  0
 12 13  2  0  0  0
 12 98  1  0  0  0
 13 14  1  0  0  0
 13 31  1  0  0  0
 14 15  2  0  0  0
 14 99  1  0  0  0
 15100  1  0  0  0
 16 17  2  0  0  0
 16 21  1  0  0  0
 16 31  1  0  0  0
 17 18  1  0  0  0
 17101  1  0  0  0
 18 19  2  0  0  0
 18102  1  0  0  0
 19 20  1  0  0  0
 19 24  1  0  0  0
 20 21  2  0  0  0
 20103  1  0  0  0
 21 23  1  0  0  0
 22 28  1  0  0  0
 22 32  2  0  0  0
 26 27  1  0  0  0
 28104  1  0  0  0
 28105  1  0  0  0
 29106  1  0  0  0
 29107  1  0  0  0
 33 34  1  0  0  0
 33 66  1  0  0  0
 33 70  2  0  0  0
 34 36  1  0  0  0
 34 59  1  0  0  0
 34108  1  0  0  0
 35 44  2  0  0  0
 35 45  1  0  0  0
 35 68  1  0  0  0
 36 56  1  0  0  0
 36109  1  0  0  0
 37 39  1  0  0  0
 37 47  1  0  0  0
 37 66  1  0  0  0
 37110  1  0  0  0
 38 43  2  0  0  0
 38 46  1  0  0  0
 38 47  1  0  0  0
 39 64  1  0  0  0
 39 67  2  0  0  0
 40 52  1  0  0  0
 40 53  2  0  0  0
 40 58  1  0  0  0
 41111  1  0  0  0
 41112  1  0  0  0
 41113  1  0  0  0
 41 48  1  0  0  0
 42 43  1  0  0  0
 42 66  1  0  0  0
 42114  1  0  0  0
 42115  1  0  0  0
 43 44  1  0  0  0
 44116  1  0  0  0
 45 46  2  0  0  0
 45117  1  0  0  0
 46118  1  0  0  0
 47119  1  0  0  0
 47120  1  0  0  0
 48 56  1  0  0  0
 48 65  1  0  0  0
 48121  1  0  0  0
 49 50  1  0  0  0
 49 53  1  0  0  0
 49 64  1  0  0  0
 49122  1  0  0  0
 50 51  1  0  0  0
 50123  1  0  0  0
 50124  1  0  0  0
 51 52  1  0  0  0
 51125  1  0  0  0
 51126  1  0  0  0
 52127  1  0  0  0
 52128  1  0  0  0
 53 54  1  0  0  0
 54 55  2  0  0  0
 54129  1  0  0  0
 55 57  1  0  0  0
 55130  1  0  0  0
 56 69  2  0  0  0
 57 58  2  0  0  0
 57131  1  0  0  0
 58132  1  0  0  0
 59 60  1  0  0  0
 59 61  1  0  0  0
 59 62  1  0  0  0
 60133  1  0  0  0
 60134  1  0  0  0
 60135  1  0  0  0
 61136  1  0  0  0
 61137  1  0  0  0
 61138  1  0  0  0
 62139  1  0  0  0
 62140  1  0  0  0
 62141  1  0  0  0
 63 65  1  0  0  0
 63142  1  0  0  0
 63143  1  0  0  0
 63144  1  0  0  0
 64145  1  0  0  0
 65146  1  0  0  0
 68 82  1  0  0  0
 71 73  2  0  0  0
 71 74  1  0  0  0
 71147  1  0  0  0
 72 74  2  0  0  0
 72 75  1  0  0  0
 72148  1  0  0  0
 73 76  1  0  0  0
 73 79  1  0  0  0
 74 84  1  0  0  0
 75 76  2  0  0  0
 75 85  1  0  0  0
 76 83  1  0  0  0
 77 80  1  0  0  0
 77 81  1  0  0  0
 77 86  2  0  0  0
 78 80  1  0  0  0
 78 82  1  0  0  0
 78 87  2  0  0  0
 79149  1  0  0  0
 79150  1  0  0  0
 79151  1  0  0  0
 80152  1  0  0  0
 80153  1  0  0  0
 81 85  1  0  0  0
 81154  1  0  0  0
 81155  1  0  0  0
 82156  1  0  0  0
 82157  1  0  0  0
 83158  1  0  0  0
 83159  1  0  0  0
 84160  1  0  0  0
 85161  1  0  0  0
M  ISO  4   1 100  68 101  82 101  84 100
M  END
> <chiral flag>
0

> <version>
0

> <s_m_source_file>
/data/baiqing/PycharmProjects/Reinvent-master-3.2/result/LINK_invent/BTK/process_docking_weight1_custom_product_contain_oxygen_bond_distance_aromatic_linkinvent_7_9_3/rearranged_h_0168.sdf

> <i_m_source_file_index>
31

> <r_mmod_Potential_Energy-OPLS-2005>
-187.755905151367

> <r_mmod_Stretch_Energy-OPLS-2005>
36.1787796020508

> <r_mmod_Bend_Energy-OPLS-2005>
95.2368850708008

> <r_mmod_Torsional_Energy-OPLS-2005>
257.238220214844

> <r_mmod_Improper_Torsional_Energy-OPLS-2005>
13.3904695510864

> <r_mmod_Van_der_Waal_Energy-OPLS-2005>
164.810684204102

> <r_mmod_Electrostatic_Energy-OPLS-2005>
-493.418518066406

> <r_mmod_Solvation_Energy-OPLS-2005>
-271.408325195312

> <b_mmod_Minimization_Converged-OPLS-2005>
0

> <r_mmod_RMS_Derivative-OPLS-2005>
2.44782614707947

$$$$
31
                    3D
 Structure written by MMmdl.
153161  0  0  1  0            999 V2000
  -30.7251  -14.4616   20.5803 C   0  0  0  0  0  0
  -30.4220  -12.2969   19.4321 C   0  0  0  0  0  0
  -29.4927  -12.4809   18.2138 C   0  0  0  0  0  0
  -28.0152  -12.3509   18.6302 C   0  0  0  0  0  0
  -27.6635  -13.2070   19.8773 C   0  0  2  0  0  0
  -28.7071  -12.9967   20.9984 C   0  0  0  0  0  0
  -25.2597  -13.8162   20.5693 C   0  0  0  0  0  0
  -24.1847  -13.0449   20.9183 C   0  0  0  0  0  0
  -24.6400  -11.6906   20.8756 C   0  0  0  0  0  0
  -23.9063  -10.4295   21.0429 C   0  0  0  0  0  0
  -24.3622   -9.4201   21.9192 C   0  0  0  0  0  0
  -23.6298   -8.2234   22.0751 C   0  0  0  0  0  0
  -22.4273   -8.0274   21.3553 C   0  0  0  0  0  0
  -21.9922   -9.0248   20.4641 C   0  0  0  0  0  0
  -22.7249  -10.2119   20.3060 C   0  0  0  0  0  0
  -21.6848   -6.0730   22.5278 C   0  0  0  0  0  0
  -21.4004   -6.5631   23.8218 C   0  0  0  0  0  0
  -21.3660   -5.6786   24.9173 C   0  0  0  0  0  0
  -21.6051   -4.3055   24.7231 C   0  0  0  0  0  0
  -21.8820   -3.8136   23.4351 C   0  0  0  0  0  0
  -21.9185   -4.6955   22.3406 C   0  0  0  0  0  0
  -22.7862  -13.5227   21.1861 C   0  0  0  0  0  0
  -22.1653   -4.2138   21.0988 F   0  0  0  0  0  0
  -21.5638   -3.4538   25.7744 F   0  0  0  0  0  0
  -30.0399  -13.2927   20.4437 N   0  0  0  0  0  0
  -26.3046  -12.9345   20.3409 N   0  0  0  0  0  0
  -25.9333  -11.6510   20.5821 N   0  0  0  0  0  0
  -22.0520  -12.8203   22.0405 N   0  0  0  0  0  0
  -25.4366  -15.1894   20.4074 N   0  0  0  0  0  0
  -31.8459  -14.6324   20.0872 O   0  0  0  0  0  0
  -21.6643   -6.8874   21.4245 O   0  0  0  0  0  0
  -22.3529  -14.5539   20.6711 O   0  0  0  0  0  0
  -24.6169  -31.8700   23.2108 C   0  0  0  0  0  0
  -25.9061  -32.4836   23.8417 C   0  0  1  0  0  0
  -27.2294  -27.4299   20.1091 C   0  0  0  0  0  0
  -25.5903  -33.8638   24.2354 N   0  0  0  0  0  0
  -23.4062  -30.4912   21.5525 C   0  0  2  0  0  0
  -24.8522  -28.9590   20.1143 C   0  0  0  0  0  0
  -22.7430  -29.4661   22.5022 C   0  0  0  0  0  0
  -18.0259  -28.1390   22.8516 C   0  0  0  0  0  0
  -24.1473  -36.7274   23.2647 C   0  0  0  0  0  0
  -25.9354  -30.8339   21.3663 C   0  0  0  0  0  0
  -26.0123  -29.4683   20.7132 C   0  0  0  0  0  0
  -27.2040  -28.7103   20.7067 C   0  0  0  0  0  0
  -26.0613  -26.9415   19.4877 C   0  0  0  0  0  0
  -24.8720  -27.6954   19.4985 C   0  0  0  0  0  0
  -23.6150  -29.8266   20.1659 C   0  0  0  0  0  0
  -25.4097  -36.3130   24.0367 C   0  0  1  0  0  0
  -20.5866  -28.3656   23.1334 C   0  0  2  0  0  0
  -20.6766  -26.9398   22.5439 C   0  0  0  0  0  0
  -19.5741  -26.6390   21.5247 C   0  0  0  0  0  0
  -18.1910  -26.7942   22.1633 C   0  0  0  0  0  0
  -19.1528  -28.8839   23.2915 C   0  0  0  0  0  0
  -18.9470  -30.1448   23.8921 C   0  0  0  0  0  0
  -17.6480  -30.6601   24.0564 C   0  0  0  0  0  0
  -25.9041  -34.9496   23.5154 C   0  0  0  0  0  0
  -16.5354  -29.9102   23.6353 C   0  0  0  0  0  0
  -16.7254  -28.6514   23.0379 C   0  0  0  0  0  0
  -26.4481  -31.6606   25.0733 C   0  0  0  0  0  0
  -25.3736  -31.3713   26.1479 C   0  0  0  0  0  0
  -27.0326  -30.3075   24.6085 C   0  0  0  0  0  0
  -27.6084  -32.4318   25.7455 C   0  0  0  0  0  0
  -27.5586  -37.1765   24.8469 C   0  0  0  0  0  0
  -21.4157  -29.3015   22.3730 N   0  0  0  0  0  0
  -26.4272  -37.3827   23.9465 N   0  0  0  0  0  0
  -24.6710  -31.0809   22.1019 N   0  0  0  0  0  0
  -23.4186  -28.8229   23.3080 O   0  0  0  0  0  0
  -28.3585  -26.6445   20.1376 O   0  0  0  0  0  0
  -26.5614  -34.8936   22.4721 O   0  0  0  0  0  0
  -23.5351  -32.1434   23.7500 O   0  0  0  0  0  0
  -31.5236  -17.4635   20.9717 C   0  0  0  0  0  0
  -31.4477  -18.8860   21.1386 C   0  0  0  0  0  0
  -30.1958  -19.3073   21.5309 C   0  0  0  0  0  0
  -30.3488  -16.7901   21.2479 C   0  0  0  0  0  0
  -29.6307  -20.6287   21.8439 C   0  0  0  0  0  0
  -29.0118  -24.2657   20.4793 C   0  0  0  0  0  0
  -29.6281  -21.7319   20.7611 C   0  0  0  0  0  0
  -28.6243  -22.8939   21.0706 C   0  0  0  0  0  0
  -28.1989  -25.4804   20.9750 C   0  0  0  0  0  0
  -32.5930  -19.6704   20.9056 N   0  0  0  0  0  0
  -30.0475  -15.4578   21.1832 N   0  0  0  0  0  0
  -29.1018  -20.8414   22.9416 O   0  0  0  0  0  0
  -29.9280  -24.3850   19.6529 O   0  0  0  0  0  0
  -29.1305  -17.9385   21.7608 S   0  0  0  0  0  0
  -31.4680  -12.3768   19.1314 H   0  0  0  0  0  0
  -30.3148  -11.2922   19.8456 H   0  0  0  0  0  0
  -29.7317  -11.7372   17.4519 H   0  0  0  0  0  0
  -29.6641  -13.4552   17.7546 H   0  0  0  0  0  0
  -27.8281  -11.2984   18.8429 H   0  0  0  0  0  0
  -27.3598  -12.6127   17.7980 H   0  0  0  0  0  0
  -27.7067  -14.2512   19.5681 H   0  0  0  0  0  0
  -28.6801  -11.9644   21.3491 H   0  0  0  0  0  0
  -28.4685  -13.6043   21.8725 H   0  0  0  0  0  0
  -25.2782   -9.5650   22.4768 H   0  0  0  0  0  0
  -23.9997   -7.4613   22.7467 H   0  0  0  0  0  0
  -21.0859   -8.8766   19.8942 H   0  0  0  0  0  0
  -22.3738  -10.9657   19.6150 H   0  0  0  0  0  0
  -21.1991   -7.6133   23.9709 H   0  0  0  0  0  0
  -21.1486   -6.0524   25.9081 H   0  0  0  0  0  0
  -22.0604   -2.7600   23.2863 H   0  0  0  0  0  0
  -22.4144  -11.9821   22.4737 H   0  0  0  0  0  0
  -21.1143  -13.1213   22.2667 H   0  0  0  0  0  0
  -24.6783  -15.8547   20.5049 H   0  0  0  0  0  0
  -26.2947  -15.6150   20.0825 H   0  0  0  0  0  0
  -26.7128  -32.5566   23.1169 H   0  0  0  0  0  0
  -25.0063  -33.9794   25.0512 H   0  0  0  0  0  0
  -22.6956  -31.3077   21.4094 H   0  0  0  0  0  0
  -23.3795  -35.9549   23.3316 H   0  0  0  0  0  0
  -24.3567  -36.8903   22.2068 H   0  0  0  0  0  0
  -23.7130  -37.6429   23.6642 H   0  0  0  0  0  0
  -26.0525  -31.6019   20.6008 H   0  0  0  0  0  0
  -26.8226  -30.8838   21.9865 H   0  0  0  0  0  0
  -28.0959  -29.0897   21.1833 H   0  0  0  0  0  0
  -26.0702  -25.9721   19.0104 H   0  0  0  0  0  0
  -23.9814  -27.2969   19.0346 H   0  0  0  0  0  0
  -23.7197  -30.6007   19.4045 H   0  0  0  0  0  0
  -22.7387  -29.2478   19.8681 H   0  0  0  0  0  0
  -25.1265  -36.1993   25.0853 H   0  0  0  0  0  0
  -20.9921  -28.3209   24.1469 H   0  0  0  0  0  0
  -20.5710  -26.2273   23.3628 H   0  0  0  0  0  0
  -21.6624  -26.7459   22.1204 H   0  0  0  0  0  0
  -19.6915  -25.6321   21.1241 H   0  0  0  0  0  0
  -19.6690  -27.3217   20.6804 H   0  0  0  0  0  0
  -17.4197  -26.6740   21.3997 H   0  0  0  0  0  0
  -18.0242  -26.0067   22.8997 H   0  0  0  0  0  0
  -19.7962  -30.7246   24.2298 H   0  0  0  0  0  0
  -17.5042  -31.6287   24.5144 H   0  0  0  0  0  0
  -15.5358  -30.3003   23.7705 H   0  0  0  0  0  0
  -15.8642  -28.0814   22.7126 H   0  0  0  0  0  0
  -24.5891  -30.7088   25.7801 H   0  0  0  0  0  0
  -24.8920  -32.2866   26.4949 H   0  0  0  0  0  0
  -25.8063  -30.8841   27.0228 H   0  0  0  0  0  0
  -26.2836  -29.6818   24.1220 H   0  0  0  0  0  0
  -27.4234  -29.7349   25.4509 H   0  0  0  0  0  0
  -27.8609  -30.4496   23.9145 H   0  0  0  0  0  0
  -27.2742  -33.3648   26.2031 H   0  0  0  0  0  0
  -28.3835  -32.6870   25.0199 H   0  0  0  0  0  0
  -28.0800  -31.8440   26.5351 H   0  0  0  0  0  0
  -28.2580  -38.0101   24.7599 H   0  0  0  0  0  0
  -28.1100  -36.2625   24.6163 H   0  0  0  0  0  0
  -27.2306  -37.1255   25.8874 H   0  0  0  0  0  0
  -20.9333  -29.8674   21.6899 H   0  0  0  0  0  0
  -26.0184  -38.2903   24.1529 H   0  0  0  0  0  0
  -32.4430  -16.9881   20.6599 H   0  0  0  0  0  0
  -29.4058  -21.2909   19.7850 H   0  0  0  0  0  0
  -30.6494  -22.1161   20.6841 H   0  0  0  0  0  0
  -27.6227  -22.6210   20.7248 H   0  0  0  0  0  0
  -28.5187  -23.0384   22.1505 H   0  0  0  0  0  0
  -28.5192  -25.7354   21.9881 H   0  0  0  0  0  0
  -27.1526  -25.1750   21.0447 H   0  0  0  0  0  0
  -33.4885  -19.1945   20.8289 H   0  0  0  0  0  0
  -32.6846  -20.5761   21.3550 H   0  0  0  0  0  0
  -29.1272  -15.1930   21.5018 H   0  0  0  0  0  0
  1 25  1  0  0  0
  1 30  2  0  0  0
  1 81  1  0  0  0
  2  3  1  0  0  0
  2 25  1  0  0  0
  2 85  1  0  0  0
  2 86  1  0  0  0
  3  4  1  0  0  0
  3 87  1  0  0  0
  3 88  1  0  0  0
  4  5  1  0  0  0
  4 89  1  0  0  0
  4 90  1  0  0  0
  5  6  1  0  0  0
  5 26  1  0  0  0
  5 91  1  0  0  0
  6 25  1  0  0  0
  6 92  1  0  0  0
  6 93  1  0  0  0
  7  8  2  0  0  0
  7 26  1  0  0  0
  7 29  1  0  0  0
  8  9  1  0  0  0
  8 22  1  0  0  0
  9 10  1  0  0  0
  9 27  2  0  0  0
 10 11  2  0  0  0
 10 15  1  0  0  0
 11 12  1  0  0  0
 11 94  1  0  0  0
 12 13  2  0  0  0
 12 95  1  0  0  0
 13 14  1  0  0  0
 13 31  1  0  0  0
 14 15  2  0  0  0
 14 96  1  0  0  0
 15 97  1  0  0  0
 16 17  2  0  0  0
 16 21  1  0  0  0
 16 31  1  0  0  0
 17 18  1  0  0  0
 17 98  1  0  0  0
 18 19  2  0  0  0
 18 99  1  0  0  0
 19 20  1  0  0  0
 19 24  1  0  0  0
 20 21  2  0  0  0
 20100  1  0  0  0
 21 23  1  0  0  0
 22 28  1  0  0  0
 22 32  2  0  0  0
 26 27  1  0  0  0
 28101  1  0  0  0
 28102  1  0  0  0
 29103  1  0  0  0
 29104  1  0  0  0
 33 34  1  0  0  0
 33 66  1  0  0  0
 33 70  2  0  0  0
 34 36  1  0  0  0
 34 59  1  0  0  0
 34105  1  0  0  0
 35 44  2  0  0  0
 35 45  1  0  0  0
 35 68  1  0  0  0
 36 56  1  0  0  0
 36106  1  0  0  0
 37 39  1  0  0  0
 37 47  1  0  0  0
 37 66  1  0  0  0
 37107  1  0  0  0
 38 43  2  0  0  0
 38 46  1  0  0  0
 38 47  1  0  0  0
 39 64  1  0  0  0
 39 67  2  0  0  0
 40 52  1  0  0  0
 40 53  2  0  0  0
 40 58  1  0  0  0
 41108  1  0  0  0
 41109  1  0  0  0
 41110  1  0  0  0
 41 48  1  0  0  0
 42 43  1  0  0  0
 42 66  1  0  0  0
 42111  1  0  0  0
 42112  1  0  0  0
 43 44  1  0  0  0
 44113  1  0  0  0
 45 46  2  0  0  0
 45114  1  0  0  0
 46115  1  0  0  0
 47116  1  0  0  0
 47117  1  0  0  0
 48 56  1  0  0  0
 48 65  1  0  0  0
 48118  1  0  0  0
 49 50  1  0  0  0
 49 53  1  0  0  0
 49 64  1  0  0  0
 49119  1  0  0  0
 50 51  1  0  0  0
 50120  1  0  0  0
 50121  1  0  0  0
 51 52  1  0  0  0
 51122  1  0  0  0
 51123  1  0  0  0
 52124  1  0  0  0
 52125  1  0  0  0
 53 54  1  0  0  0
 54 55  2  0  0  0
 54126  1  0  0  0
 55 57  1  0  0  0
 55127  1  0  0  0
 56 69  2  0  0  0
 57 58  2  0  0  0
 57128  1  0  0  0
 58129  1  0  0  0
 59 60  1  0  0  0
 59 61  1  0  0  0
 59 62  1  0  0  0
 60130  1  0  0  0
 60131  1  0  0  0
 60132  1  0  0  0
 61133  1  0  0  0
 61134  1  0  0  0
 61135  1  0  0  0
 62136  1  0  0  0
 62137  1  0  0  0
 62138  1  0  0  0
 63 65  1  0  0  0
 63139  1  0  0  0
 63140  1  0  0  0
 63141  1  0  0  0
 64142  1  0  0  0
 65143  1  0  0  0
 68 79  1  0  0  0
 71 72  1  0  0  0
 71 74  2  0  0  0
 71144  1  0  0  0
 72 73  2  0  0  0
 72 80  1  0  0  0
 73 75  1  0  0  0
 73 84  1  0  0  0
 74 81  1  0  0  0
 74 84  1  0  0  0
 75 77  1  0  0  0
 75 82  2  0  0  0
 76 78  1  0  0  0
 76 79  1  0  0  0
 76 83  2  0  0  0
 77 78  1  0  0  0
 77145  1  0  0  0
 77146  1  0  0  0
 78147  1  0  0  0
 78148  1  0  0  0
 79149  1  0  0  0
 79150  1  0  0  0
 80151  1  0  0  0
 80152  1  0  0  0
 81153  1  0  0  0
M  ISO  4   1 100  68 101  79 101  81 100
M  END
> <chiral flag>
0

> <version>
0

> <s_m_source_file>
/data/baiqing/PycharmProjects/Reinvent-master-3.2/result/LINK_invent/BTK/process_docking_weight1_custom_product_contain_oxygen_bond_distance_aromatic_linkinvent_7_9_3/rearranged_h_0168.sdf

> <i_m_source_file_index>
32

> <r_mmod_Potential_Energy-OPLS-2005>
-43.0735130310059

> <r_mmod_Stretch_Energy-OPLS-2005>
37.8743782043457

> <r_mmod_Bend_Energy-OPLS-2005>
99.186393737793

> <r_mmod_Torsional_Energy-OPLS-2005>
261.259368896484

> <r_mmod_Improper_Torsional_Energy-OPLS-2005>
6.54736852645874

> <r_mmod_Van_der_Waal_Energy-OPLS-2005>
131.554534912109

> <r_mmod_Electrostatic_Energy-OPLS-2005>
-353.223175048828

> <r_mmod_Solvation_Energy-OPLS-2005>
-240.600830078125

> <b_mmod_Minimization_Converged-OPLS-2005>
0

> <r_mmod_RMS_Derivative-OPLS-2005>
5.541579246521

$$$$
32
                    3D
 Structure written by MMmdl.
156164  0  0  1  0            999 V2000
  -30.5941  -14.7734   20.4312 C   0  0  0  0  0  0
  -30.4192  -12.4713   19.4674 C   0  0  0  0  0  0
  -29.5034  -12.4948   18.2262 C   0  0  0  0  0  0
  -28.0254  -12.3422   18.6357 C   0  0  0  0  0  0
  -27.6304  -13.2413   19.8386 C   0  0  2  0  0  0
  -28.6739  -13.2010   20.9711 C   0  0  0  0  0  0
  -25.2470  -13.8227   20.5698 C   0  0  0  0  0  0
  -24.1786  -13.0448   20.9211 C   0  0  0  0  0  0
  -24.6389  -11.6932   20.8743 C   0  0  0  0  0  0
  -23.9085  -10.4295   21.0403 C   0  0  0  0  0  0
  -24.3641   -9.4213   21.9176 C   0  0  0  0  0  0
  -23.6308   -8.2255   22.0752 C   0  0  0  0  0  0
  -22.4288   -8.0290   21.3546 C   0  0  0  0  0  0
  -21.9923   -9.0263   20.4644 C   0  0  0  0  0  0
  -22.7257  -10.2142   20.3047 C   0  0  0  0  0  0
  -21.6858   -6.0751   22.5283 C   0  0  0  0  0  0
  -21.4024   -6.5652   23.8217 C   0  0  0  0  0  0
  -21.3656   -5.6798   24.9174 C   0  0  0  0  0  0
  -21.6035   -4.3058   24.7226 C   0  0  0  0  0  0
  -21.8817   -3.8156   23.4345 C   0  0  0  0  0  0
  -21.9193   -4.6977   22.3403 C   0  0  0  0  0  0
  -22.7804  -13.5226   21.1856 C   0  0  0  0  0  0
  -22.1657   -4.2166   21.0978 F   0  0  0  0  0  0
  -21.5616   -3.4529   25.7738 F   0  0  0  0  0  0
  -29.9573  -13.5562   20.3637 N   0  0  0  0  0  0
  -26.2884  -12.9447   20.3238 N   0  0  0  0  0  0
  -25.9323  -11.6583   20.5760 N   0  0  0  0  0  0
  -22.0446  -12.8216   22.0399 N   0  0  0  0  0  0
  -25.4107  -15.1957   20.4126 N   0  0  0  0  0  0
  -31.8189  -14.8070   20.2809 O   0  0  0  0  0  0
  -21.6644   -6.8895   21.4248 O   0  0  0  0  0  0
  -22.3503  -14.5531   20.6699 O   0  0  0  0  0  0
  -24.6332  -31.8541   23.1936 C   0  0  0  0  0  0
  -25.9152  -32.4731   23.8297 C   0  0  1  0  0  0
  -27.2166  -27.2399   20.1264 C   0  0  0  0  0  0
  -25.5960  -33.8531   24.2236 N   0  0  0  0  0  0
  -23.4282  -30.4776   21.5378 C   0  0  2  0  0  0
  -24.8751  -28.9166   20.1045 C   0  0  0  0  0  0
  -22.7522  -29.4595   22.4889 C   0  0  0  0  0  0
  -18.0325  -28.1343   22.8563 C   0  0  0  0  0  0
  -24.1496  -36.7251   23.2642 C   0  0  0  0  0  0
  -25.9751  -30.7576   21.3786 C   0  0  0  0  0  0
  -26.0448  -29.3794   20.7177 C   0  0  0  0  0  0
  -27.2134  -28.5517   20.7208 C   0  0  0  0  0  0
  -26.0231  -26.8416   19.4874 C   0  0  0  0  0  0
  -24.8694  -27.6563   19.4805 C   0  0  0  0  0  0
  -23.6467  -29.8078   20.1535 C   0  0  0  0  0  0
  -25.4125  -36.3045   24.0322 C   0  0  1  0  0  0
  -20.5920  -28.3660   23.1195 C   0  0  2  0  0  0
  -20.6795  -26.9417   22.5195 C   0  0  0  0  0  0
  -19.5658  -26.6321   21.5147 C   0  0  0  0  0  0
  -18.1935  -26.7853   22.1765 C   0  0  0  0  0  0
  -19.1590  -28.8839   23.2878 C   0  0  0  0  0  0
  -18.9513  -30.1454   23.8887 C   0  0  0  0  0  0
  -17.6510  -30.6603   24.0536 C   0  0  0  0  0  0
  -25.9070  -34.9420   23.5072 C   0  0  0  0  0  0
  -16.5402  -29.9053   23.6392 C   0  0  0  0  0  0
  -16.7319  -28.6439   23.0479 C   0  0  0  0  0  0
  -26.4515  -31.6561   25.0697 C   0  0  0  0  0  0
  -25.3709  -31.3729   26.1395 C   0  0  0  0  0  0
  -27.0401  -30.2979   24.6223 C   0  0  0  0  0  0
  -27.6056  -32.4309   25.7478 C   0  0  0  0  0  0
  -27.5576  -37.1787   24.8472 C   0  0  0  0  0  0
  -21.4233  -29.3055   22.3632 N   0  0  0  0  0  0
  -26.4296  -37.3751   23.9409 N   0  0  0  0  0  0
  -24.6972  -31.0501   22.0911 N   0  0  0  0  0  0
  -23.4238  -28.8121   23.2967 O   0  0  0  0  0  0
  -28.3193  -26.3594   20.2324 O   0  0  0  0  0  0
  -26.5641  -34.8901   22.4640 O   0  0  0  0  0  0
  -23.5470  -32.1347   23.7248 O   0  0  0  0  0  0
  -29.3694  -18.4700   20.0649 C   0  0  0  0  0  0
  -27.7996  -19.3388   21.7151 C   0  0  0  0  0  0
  -28.6379  -19.6239   20.5879 C   0  0  0  0  0  0
  -29.3083  -17.1206   20.6220 C   0  0  0  0  0  0
  -27.7650  -18.0004   22.2403 C   0  0  0  0  0  0
  -28.0994  -23.6421   20.3585 C   0  0  0  0  0  0
  -29.0514  -22.3217   20.3542 C   0  0  0  0  0  0
  -28.4412  -25.0050   19.5642 C   0  0  0  0  0  0
  -26.8733  -20.4379   22.2718 C   0  0  0  0  0  0
  -28.5021  -16.9961   21.6920 N   0  3  0  0  0  0
  -26.9444  -17.5917   23.2955 N   0  0  0  0  0  0
  -28.5974  -20.9232   19.9024 N   0  0  0  0  0  0
  -29.8951  -15.9016   19.9980 N   0  0  0  0  0  0
  -27.0490  -23.5999   21.0030 O   0  0  0  0  0  0
  -26.0814  -20.0471   23.2727 F   0  0  0  0  0  0
  -27.6020  -21.4446   22.7498 F   0  0  0  0  0  0
  -26.0607  -20.8793   21.3076 F   0  0  0  0  0  0
  -31.4593  -12.5925   19.1626 H   0  0  0  0  0  0
  -30.3623  -11.5063   19.9716 H   0  0  0  0  0  0
  -29.7826  -11.6998   17.5335 H   0  0  0  0  0  0
  -29.6402  -13.4322   17.6836 H   0  0  0  0  0  0
  -27.8545  -11.2943   18.8825 H   0  0  0  0  0  0
  -27.3825  -12.5611   17.7834 H   0  0  0  0  0  0
  -27.6154  -14.2609   19.4530 H   0  0  0  0  0  0
  -28.7147  -12.2178   21.4419 H   0  0  0  0  0  0
  -28.4163  -13.9123   21.7552 H   0  0  0  0  0  0
  -25.2786   -9.5702   22.4745 H   0  0  0  0  0  0
  -24.0001   -7.4663   22.7496 H   0  0  0  0  0  0
  -21.0838   -8.8809   19.8963 H   0  0  0  0  0  0
  -22.3708  -10.9693   19.6160 H   0  0  0  0  0  0
  -21.2023   -7.6157   23.9736 H   0  0  0  0  0  0
  -21.1470   -6.0515   25.9080 H   0  0  0  0  0  0
  -22.0594   -2.7617   23.2842 H   0  0  0  0  0  0
  -22.4062  -11.9891   22.4825 H   0  0  0  0  0  0
  -21.1068  -13.1252   22.2610 H   0  0  0  0  0  0
  -24.6090  -15.8156   20.4450 H   0  0  0  0  0  0
  -26.2264  -15.6251   19.9957 H   0  0  0  0  0  0
  -26.7212  -32.5378   23.1021 H   0  0  0  0  0  0
  -25.0152  -33.9664   25.0418 H   0  0  0  0  0  0
  -22.7242  -31.2989   21.3909 H   0  0  0  0  0  0
  -23.3766  -35.9579   23.3304 H   0  0  0  0  0  0
  -24.3586  -36.8873   22.2058 H   0  0  0  0  0  0
  -23.7238  -37.6443   23.6672 H   0  0  0  0  0  0
  -26.1264  -31.5194   20.6121 H   0  0  0  0  0  0
  -26.8476  -30.8003   22.0209 H   0  0  0  0  0  0
  -28.1071  -28.9017   21.2194 H   0  0  0  0  0  0
  -25.9475  -25.8686   19.0266 H   0  0  0  0  0  0
  -23.9708  -27.2907   19.0043 H   0  0  0  0  0  0
  -23.7669  -30.5827   19.3945 H   0  0  0  0  0  0
  -22.7639  -29.2431   19.8493 H   0  0  0  0  0  0
  -25.1315  -36.1879   25.0818 H   0  0  0  0  0  0
  -21.0070  -28.3167   24.1290 H   0  0  0  0  0  0
  -20.5901  -26.2231   23.3335 H   0  0  0  0  0  0
  -21.6563  -26.7560   22.0737 H   0  0  0  0  0  0
  -19.6778  -25.6208   21.1211 H   0  0  0  0  0  0
  -19.6452  -27.3063   20.6617 H   0  0  0  0  0  0
  -17.4073  -26.6391   21.4343 H   0  0  0  0  0  0
  -18.0570  -26.0123   22.9326 H   0  0  0  0  0  0
  -19.7994  -30.7292   24.2214 H   0  0  0  0  0  0
  -17.5044  -31.6310   24.5082 H   0  0  0  0  0  0
  -15.5389  -30.2916   23.7765 H   0  0  0  0  0  0
  -15.8724  -28.0657   22.7347 H   0  0  0  0  0  0
  -24.5890  -30.7079   25.7698 H   0  0  0  0  0  0
  -24.8898  -32.2921   26.4758 H   0  0  0  0  0  0
  -25.7998  -30.8926   27.0201 H   0  0  0  0  0  0
  -26.3022  -29.6670   24.1255 H   0  0  0  0  0  0
  -27.4090  -29.7286   25.4764 H   0  0  0  0  0  0
  -27.8886  -30.4241   23.9490 H   0  0  0  0  0  0
  -27.2661  -33.3622   26.2018 H   0  0  0  0  0  0
  -28.3900  -32.6832   25.0329 H   0  0  0  0  0  0
  -28.0685  -31.8445   26.5427 H   0  0  0  0  0  0
  -28.2601  -38.0077   24.7522 H   0  0  0  0  0  0
  -28.1067  -36.2607   24.6314 H   0  0  0  0  0  0
  -27.2291  -37.1453   25.8875 H   0  0  0  0  0  0
  -20.9401  -29.8755   21.6837 H   0  0  0  0  0  0
  -26.0165  -38.2826   24.1389 H   0  0  0  0  0  0
  -29.9757  -18.6159   19.1822 H   0  0  0  0  0  0
  -29.8861  -22.5836   19.7026 H   0  0  0  0  0  0
  -29.5027  -22.2399   21.3423 H   0  0  0  0  0  0
  -27.8672  -25.0051   18.6378 H   0  0  0  0  0  0
  -29.4783  -24.9183   19.2458 H   0  0  0  0  0  0
  -28.3963  -16.0645   22.0973 H   0  0  0  0  0  0
  -26.7189  -16.6245   23.4695 H   0  0  0  0  0  0
  -26.2902  -18.2427   23.7078 H   0  0  0  0  0  0
  -28.6650  -20.8276   18.8929 H   0  0  0  0  0  0
  -30.3394  -16.1556   19.1288 H   0  0  0  0  0  0
  1 25  1  0  0  0
  1 30  2  0  0  0
  1 83  1  0  0  0
  2  3  1  0  0  0
  2 25  1  0  0  0
  2 88  1  0  0  0
  2 89  1  0  0  0
  3  4  1  0  0  0
  3 90  1  0  0  0
  3 91  1  0  0  0
  4  5  1  0  0  0
  4 92  1  0  0  0
  4 93  1  0  0  0
  5  6  1  0  0  0
  5 26  1  0  0  0
  5 94  1  0  0  0
  6 25  1  0  0  0
  6 95  1  0  0  0
  6 96  1  0  0  0
  7  8  2  0  0  0
  7 26  1  0  0  0
  7 29  1  0  0  0
  8  9  1  0  0  0
  8 22  1  0  0  0
  9 10  1  0  0  0
  9 27  2  0  0  0
 10 11  2  0  0  0
 10 15  1  0  0  0
 11 12  1  0  0  0
 11 97  1  0  0  0
 12 13  2  0  0  0
 12 98  1  0  0  0
 13 14  1  0  0  0
 13 31  1  0  0  0
 14 15  2  0  0  0
 14 99  1  0  0  0
 15100  1  0  0  0
 16 17  2  0  0  0
 16 21  1  0  0  0
 16 31  1  0  0  0
 17 18  1  0  0  0
 17101  1  0  0  0
 18 19  2  0  0  0
 18102  1  0  0  0
 19 20  1  0  0  0
 19 24  1  0  0  0
 20 21  2  0  0  0
 20103  1  0  0  0
 21 23  1  0  0  0
 22 28  1  0  0  0
 22 32  2  0  0  0
 26 27  1  0  0  0
 28104  1  0  0  0
 28105  1  0  0  0
 29106  1  0  0  0
 29107  1  0  0  0
 33 34  1  0  0  0
 33 66  1  0  0  0
 33 70  2  0  0  0
 34 36  1  0  0  0
 34 59  1  0  0  0
 34108  1  0  0  0
 35 44  2  0  0  0
 35 45  1  0  0  0
 35 68  1  0  0  0
 36 56  1  0  0  0
 36109  1  0  0  0
 37 39  1  0  0  0
 37 47  1  0  0  0
 37 66  1  0  0  0
 37110  1  0  0  0
 38 43  2  0  0  0
 38 46  1  0  0  0
 38 47  1  0  0  0
 39 64  1  0  0  0
 39 67  2  0  0  0
 40 52  1  0  0  0
 40 53  2  0  0  0
 40 58  1  0  0  0
 41111  1  0  0  0
 41112  1  0  0  0
 41113  1  0  0  0
 41 48  1  0  0  0
 42 43  1  0  0  0
 42 66  1  0  0  0
 42114  1  0  0  0
 42115  1  0  0  0
 43 44  1  0  0  0
 44116  1  0  0  0
 45 46  2  0  0  0
 45117  1  0  0  0
 46118  1  0  0  0
 47119  1  0  0  0
 47120  1  0  0  0
 48 56  1  0  0  0
 48 65  1  0  0  0
 48121  1  0  0  0
 49 50  1  0  0  0
 49 53  1  0  0  0
 49 64  1  0  0  0
 49122  1  0  0  0
 50 51  1  0  0  0
 50123  1  0  0  0
 50124  1  0  0  0
 51 52  1  0  0  0
 51125  1  0  0  0
 51126  1  0  0  0
 52127  1  0  0  0
 52128  1  0  0  0
 53 54  1  0  0  0
 54 55  2  0  0  0
 54129  1  0  0  0
 55 57  1  0  0  0
 55130  1  0  0  0
 56 69  2  0  0  0
 57 58  2  0  0  0
 57131  1  0  0  0
 58132  1  0  0  0
 59 60  1  0  0  0
 59 61  1  0  0  0
 59 62  1  0  0  0
 60133  1  0  0  0
 60134  1  0  0  0
 60135  1  0  0  0
 61136  1  0  0  0
 61137  1  0  0  0
 61138  1  0  0  0
 62139  1  0  0  0
 62140  1  0  0  0
 62141  1  0  0  0
 63 65  1  0  0  0
 63142  1  0  0  0
 63143  1  0  0  0
 63144  1  0  0  0
 64145  1  0  0  0
 65146  1  0  0  0
 68 78  1  0  0  0
 71 73  2  0  0  0
 71 74  1  0  0  0
 71147  1  0  0  0
 72 73  1  0  0  0
 72 75  2  0  0  0
 72 79  1  0  0  0
 73 82  1  0  0  0
 74 80  2  0  0  0
 74 83  1  0  0  0
 75 80  1  0  0  0
 75 81  1  0  0  0
 76 77  1  0  0  0
 76 78  1  0  0  0
 76 84  2  0  0  0
 77 82  1  0  0  0
 77148  1  0  0  0
 77149  1  0  0  0
 78150  1  0  0  0
 78151  1  0  0  0
 79 85  1  0  0  0
 79 86  1  0  0  0
 79 87  1  0  0  0
 80152  1  0  0  0
 81153  1  0  0  0
 81154  1  0  0  0
 82155  1  0  0  0
 83156  1  0  0  0
M  CHG  1  80   1
M  ISO  4   1 100  68 101  78 101  83 100
M  END
> <chiral flag>
0

> <version>
0

> <s_m_source_file>
/data/baiqing/PycharmProjects/Reinvent-master-3.2/result/LINK_invent/BTK/process_docking_weight1_custom_product_contain_oxygen_bond_distance_aromatic_linkinvent_7_9_3/rearranged_h_0168.sdf

> <i_m_source_file_index>
33

> <r_mmod_Potential_Energy-OPLS-2005>
408.207489013672

> <r_mmod_Stretch_Energy-OPLS-2005>
149.914291381836

> <r_mmod_Bend_Energy-OPLS-2005>
245.142929077148

> <r_mmod_Torsional_Energy-OPLS-2005>
287.250885009766

> <r_mmod_Improper_Torsional_Energy-OPLS-2005>
34.3456802368164

> <r_mmod_Van_der_Waal_Energy-OPLS-2005>
131.260025024414

> <r_mmod_Electrostatic_Energy-OPLS-2005>
-84.9391784667969

> <r_mmod_Solvation_Energy-OPLS-2005>
-459.191253662109

> <b_mmod_Minimization_Converged-OPLS-2005>
0

> <r_mmod_RMS_Derivative-OPLS-2005>
4.00299453735352

$$$$
33
                    3D
 Structure written by MMmdl.
167175  0  0  1  0            999 V2000
  -30.7117  -14.4332   20.5826 C   0  0  0  0  0  0
  -30.4247  -12.2796   19.4221 C   0  0  0  0  0  0
  -29.5039  -12.5074   18.2062 C   0  0  0  0  0  0
  -28.0215  -12.3751   18.6088 C   0  0  0  0  0  0
  -27.6692  -13.1996   19.8769 C   0  0  2  0  0  0
  -28.7069  -12.9602   20.9982 C   0  0  0  0  0  0
  -25.2676  -13.8133   20.5718 C   0  0  0  0  0  0
  -24.1887  -13.0428   20.9118 C   0  0  0  0  0  0
  -24.6424  -11.6886   20.8689 C   0  0  0  0  0  0
  -23.9077  -10.4286   21.0374 C   0  0  0  0  0  0
  -24.3639   -9.4204   21.9153 C   0  0  0  0  0  0
  -23.6298   -8.2255   22.0749 C   0  0  0  0  0  0
  -22.4265   -8.0304   21.3557 C   0  0  0  0  0  0
  -21.9907   -9.0261   20.4644 C   0  0  0  0  0  0
  -22.7246  -10.2130   20.3027 C   0  0  0  0  0  0
  -21.6861   -6.0743   22.5278 C   0  0  0  0  0  0
  -21.4019   -6.5640   23.8215 C   0  0  0  0  0  0
  -21.3662   -5.6789   24.9174 C   0  0  0  0  0  0
  -21.6051   -4.3050   24.7216 C   0  0  0  0  0  0
  -21.8820   -3.8149   23.4338 C   0  0  0  0  0  0
  -21.9200   -4.6976   22.3397 C   0  0  0  0  0  0
  -22.7917  -13.5237   21.1789 C   0  0  0  0  0  0
  -22.1657   -4.2176   21.0969 F   0  0  0  0  0  0
  -21.5638   -3.4520   25.7721 F   0  0  0  0  0  0
  -30.0485  -13.2511   20.4592 N   0  0  0  0  0  0
  -26.3083  -12.9286   20.3355 N   0  0  0  0  0  0
  -25.9356  -11.6452   20.5730 N   0  0  0  0  0  0
  -22.0569  -12.8226   22.0355 N   0  0  0  0  0  0
  -25.4525  -15.1850   20.4332 N   0  0  0  0  0  0
  -31.8181  -14.6433   20.0712 O   0  0  0  0  0  0
  -21.6643   -6.8890   21.4246 O   0  0  0  0  0  0
  -22.3593  -14.5532   20.6627 O   0  0  0  0  0  0
  -24.6100  -31.8705   23.2146 C   0  0  0  0  0  0
  -25.9018  -32.4823   23.8414 C   0  0  1  0  0  0
  -27.2354  -27.4606   20.0729 C   0  0  0  0  0  0
  -25.5905  -33.8625   24.2336 N   0  0  0  0  0  0
  -23.3946  -30.4966   21.5540 C   0  0  2  0  0  0
  -24.8380  -28.9643   20.1181 C   0  0  0  0  0  0
  -22.7374  -29.4661   22.4999 C   0  0  0  0  0  0
  -18.0263  -28.1362   22.8469 C   0  0  0  0  0  0
  -24.1491  -36.7304   23.2638 C   0  0  0  0  0  0
  -25.9234  -30.8390   21.3697 C   0  0  0  0  0  0
  -25.9976  -29.4779   20.7105 C   0  0  0  0  0  0
  -27.1951  -28.7324   20.6855 C   0  0  0  0  0  0
  -26.0481  -26.9473   19.4969 C   0  0  0  0  0  0
  -24.8561  -27.6957   19.5153 C   0  0  0  0  0  0
  -23.6018  -29.8320   20.1682 C   0  0  0  0  0  0
  -25.4113  -36.3104   24.0336 C   0  0  1  0  0  0
  -20.5845  -28.3648   23.1323 C   0  0  2  0  0  0
  -20.6762  -26.9390   22.5416 C   0  0  0  0  0  0
  -19.5762  -26.6373   21.5196 C   0  0  0  0  0  0
  -18.1933  -26.7903   22.1595 C   0  0  0  0  0  0
  -19.1512  -28.8818   23.2891 C   0  0  0  0  0  0
  -18.9445  -30.1426   23.8899 C   0  0  0  0  0  0
  -17.6455  -30.6571   24.0554 C   0  0  0  0  0  0
  -25.9043  -34.9469   23.5126 C   0  0  0  0  0  0
  -16.5343  -29.9077   23.6321 C   0  0  0  0  0  0
  -16.7256  -28.6490   23.0331 C   0  0  0  0  0  0
  -26.4465  -31.6602   25.0736 C   0  0  0  0  0  0
  -25.3728  -31.3729   26.1487 C   0  0  0  0  0  0
  -27.0304  -30.3038   24.6132 C   0  0  0  0  0  0
  -27.6046  -32.4324   25.7486 C   0  0  0  0  0  0
  -27.5583  -37.1802   24.8457 C   0  0  0  0  0  0
  -21.4106  -29.3029   22.3739 N   0  0  0  0  0  0
  -26.4294  -37.3787   23.9403 N   0  0  0  0  0  0
  -24.6593  -31.0827   22.1038 N   0  0  0  0  0  0
  -23.4160  -28.8195   23.3021 O   0  0  0  0  0  0
  -28.4398  -26.7892   20.0562 O   0  0  0  0  0  0
  -26.5591  -34.8909   22.4683 O   0  0  0  0  0  0
  -23.5307  -32.1455   23.7574 O   0  0  0  0  0  0
  -30.6236  -17.6438   20.4769 C   0  0  0  0  0  0
  -29.6728  -16.6211   20.6791 C   0  0  0  0  0  0
  -30.1784  -18.8358   19.8960 C   0  0  0  0  0  0
  -28.0530  -18.0219   19.8464 C   0  0  0  0  0  0
  -31.5238  -23.0024   19.0977 C   0  0  0  0  0  0
  -26.5938  -18.2346   19.5136 C   0  0  0  0  0  0
  -33.3211  -21.3376   18.3798 C   0  0  0  0  0  0
  -31.7549  -22.2874   16.6991 C   0  0  0  0  0  0
  -30.0703  -23.4924   19.1641 C   0  0  0  0  0  0
  -29.9309  -24.9721   19.5777 C   0  0  0  0  0  0
  -30.8825  -20.6105   18.3709 C   0  0  0  0  0  0
  -28.4746  -25.4485   19.5778 C   0  0  0  0  0  0
  -31.8593  -21.8055   18.1631 C   0  0  0  0  0  0
  -28.3772  -16.8474   20.3789 N   0  0  0  0  0  0
  -28.8886  -19.0179   19.5815 N   0  0  0  0  0  0
  -30.0397  -15.3811   21.2507 N   0  0  0  0  0  0
  -31.0622  -19.8871   19.6345 N   0  0  0  0  0  0
  -32.4042  -23.5680   19.7560 O   0  0  0  0  0  0
  -31.4732  -12.3663   19.1286 H   0  0  0  0  0  0
  -30.3098  -11.2646   19.8072 H   0  0  0  0  0  0
  -29.7407  -11.7904   17.4191 H   0  0  0  0  0  0
  -29.6888  -13.4971   17.7852 H   0  0  0  0  0  0
  -27.8143  -11.3183   18.7816 H   0  0  0  0  0  0
  -27.3845  -12.6780   17.7767 H   0  0  0  0  0  0
  -27.7169  -14.2502   19.5909 H   0  0  0  0  0  0
  -28.6721  -11.9229   21.3350 H   0  0  0  0  0  0
  -28.4595  -13.5524   21.8804 H   0  0  0  0  0  0
  -25.2814   -9.5681   22.4678 H   0  0  0  0  0  0
  -24.0036   -7.4641   22.7443 H   0  0  0  0  0  0
  -21.0859   -8.8757   19.8919 H   0  0  0  0  0  0
  -22.3724  -10.9653   19.6101 H   0  0  0  0  0  0
  -21.2000   -7.6142   23.9727 H   0  0  0  0  0  0
  -21.1481   -6.0512   25.9085 H   0  0  0  0  0  0
  -22.0603   -2.7617   23.2819 H   0  0  0  0  0  0
  -22.4203  -11.9896   22.4728 H   0  0  0  0  0  0
  -21.1175  -13.1231   22.2520 H   0  0  0  0  0  0
  -24.7147  -15.8499   20.6310 H   0  0  0  0  0  0
  -26.3637  -15.6186   20.3101 H   0  0  0  0  0  0
  -26.7075  -32.5520   23.1160 H   0  0  0  0  0  0
  -25.0074  -33.9812   25.0494 H   0  0  0  0  0  0
  -22.6804  -31.3117   21.4184 H   0  0  0  0  0  0
  -23.3754  -35.9635   23.3304 H   0  0  0  0  0  0
  -24.3583  -36.8919   22.2051 H   0  0  0  0  0  0
  -23.7250  -37.6513   23.6653 H   0  0  0  0  0  0
  -26.0467  -31.6143   20.6125 H   0  0  0  0  0  0
  -26.8061  -30.8770   21.9966 H   0  0  0  0  0  0
  -28.0933  -29.1323   21.1342 H   0  0  0  0  0  0
  -26.0158  -25.9781   19.0207 H   0  0  0  0  0  0
  -23.9594  -27.2925   19.0641 H   0  0  0  0  0  0
  -23.7121  -30.6096   19.4118 H   0  0  0  0  0  0
  -22.7244  -29.2567   19.8679 H   0  0  0  0  0  0
  -25.1292  -36.1959   25.0830 H   0  0  0  0  0  0
  -20.9931  -28.3211   24.1442 H   0  0  0  0  0  0
  -20.5660  -26.2252   23.3593 H   0  0  0  0  0  0
  -21.6642  -26.7437   22.1221 H   0  0  0  0  0  0
  -19.6944  -25.6287   21.1223 H   0  0  0  0  0  0
  -19.6725  -27.3181   20.6725 H   0  0  0  0  0  0
  -17.4208  -26.6636   21.3992 H   0  0  0  0  0  0
  -18.0348  -26.0039   22.8986 H   0  0  0  0  0  0
  -19.7936  -30.7236   24.2266 H   0  0  0  0  0  0
  -17.5022  -31.6256   24.5155 H   0  0  0  0  0  0
  -15.5351  -30.2987   23.7656 H   0  0  0  0  0  0
  -15.8643  -28.0830   22.7039 H   0  0  0  0  0  0
  -24.5896  -30.7074   25.7837 H   0  0  0  0  0  0
  -24.8922  -32.2897   26.4910 H   0  0  0  0  0  0
  -25.8074  -30.8917   27.0255 H   0  0  0  0  0  0
  -26.2868  -29.6794   24.1160 H   0  0  0  0  0  0
  -27.4045  -29.7280   25.4609 H   0  0  0  0  0  0
  -27.8711  -30.4353   23.9312 H   0  0  0  0  0  0
  -27.2675  -33.3626   26.2067 H   0  0  0  0  0  0
  -28.3846  -32.6873   25.0301 H   0  0  0  0  0  0
  -28.0710  -31.8435   26.5394 H   0  0  0  0  0  0
  -28.2588  -38.0110   24.7513 H   0  0  0  0  0  0
  -28.1088  -36.2639   24.6264 H   0  0  0  0  0  0
  -27.2297  -37.1428   25.8859 H   0  0  0  0  0  0
  -20.9254  -29.8742   21.6961 H   0  0  0  0  0  0
  -26.0177  -38.2859   24.1420 H   0  0  0  0  0  0
  -31.6615  -17.4976   20.7405 H   0  0  0  0  0  0
  -25.9705  -18.0260   20.3833 H   0  0  0  0  0  0
  -26.2928  -17.5660   18.7075 H   0  0  0  0  0  0
  -26.3971  -19.2593   19.2001 H   0  0  0  0  0  0
  -34.0325  -22.1109   18.0852 H   0  0  0  0  0  0
  -33.5484  -20.4506   17.7866 H   0  0  0  0  0  0
  -33.5267  -21.0990   19.4237 H   0  0  0  0  0  0
  -32.3649  -23.1755   16.5251 H   0  0  0  0  0  0
  -30.7308  -22.5316   16.4120 H   0  0  0  0  0  0
  -32.1077  -21.5230   16.0058 H   0  0  0  0  0  0
  -29.5435  -22.8616   19.8807 H   0  0  0  0  0  0
  -29.5919  -23.3375   18.1972 H   0  0  0  0  0  0
  -30.5102  -25.5979   18.8963 H   0  0  0  0  0  0
  -30.3561  -25.1245   20.5711 H   0  0  0  0  0  0
  -31.0087  -19.8948   17.5570 H   0  0  0  0  0  0
  -29.8528  -20.9615   18.2891 H   0  0  0  0  0  0
  -27.8689  -24.8095   20.2233 H   0  0  0  0  0  0
  -28.0815  -25.3807   18.5622 H   0  0  0  0  0  0
  -29.2831  -14.9667   21.7672 H   0  0  0  0  0  0
  -32.0268  -19.6889   19.8756 H   0  0  0  0  0  0
  1 25  1  0  0  0
  1 30  2  0  0  0
  1 86  1  0  0  0
  2  3  1  0  0  0
  2 25  1  0  0  0
  2 89  1  0  0  0
  2 90  1  0  0  0
  3  4  1  0  0  0
  3 91  1  0  0  0
  3 92  1  0  0  0
  4  5  1  0  0  0
  4 93  1  0  0  0
  4 94  1  0  0  0
  5  6  1  0  0  0
  5 26  1  0  0  0
  5 95  1  0  0  0
  6 25  1  0  0  0
  6 96  1  0  0  0
  6 97  1  0  0  0
  7  8  2  0  0  0
  7 26  1  0  0  0
  7 29  1  0  0  0
  8  9  1  0  0  0
  8 22  1  0  0  0
  9 10  1  0  0  0
  9 27  2  0  0  0
 10 11  2  0  0  0
 10 15  1  0  0  0
 11 12  1  0  0  0
 11 98  1  0  0  0
 12 13  2  0  0  0
 12 99  1  0  0  0
 13 14  1  0  0  0
 13 31  1  0  0  0
 14 15  2  0  0  0
 14100  1  0  0  0
 15101  1  0  0  0
 16 17  2  0  0  0
 16 21  1  0  0  0
 16 31  1  0  0  0
 17 18  1  0  0  0
 17102  1  0  0  0
 18 19  2  0  0  0
 18103  1  0  0  0
 19 20  1  0  0  0
 19 24  1  0  0  0
 20 21  2  0  0  0
 20104  1  0  0  0
 21 23  1  0  0  0
 22 28  1  0  0  0
 22 32  2  0  0  0
 26 27  1  0  0  0
 28105  1  0  0  0
 28106  1  0  0  0
 29107  1  0  0  0
 29108  1  0  0  0
 33 34  1  0  0  0
 33 66  1  0  0  0
 33 70  2  0  0  0
 34 36  1  0  0  0
 34 59  1  0  0  0
 34109  1  0  0  0
 35 44  2  0  0  0
 35 45  1  0  0  0
 35 68  1  0  0  0
 36 56  1  0  0  0
 36110  1  0  0  0
 37 39  1  0  0  0
 37 47  1  0  0  0
 37 66  1  0  0  0
 37111  1  0  0  0
 38 43  2  0  0  0
 38 46  1  0  0  0
 38 47  1  0  0  0
 39 64  1  0  0  0
 39 67  2  0  0  0
 40 52  1  0  0  0
 40 53  2  0  0  0
 40 58  1  0  0  0
 41112  1  0  0  0
 41113  1  0  0  0
 41114  1  0  0  0
 41 48  1  0  0  0
 42 43  1  0  0  0
 42 66  1  0  0  0
 42115  1  0  0  0
 42116  1  0  0  0
 43 44  1  0  0  0
 44117  1  0  0  0
 45 46  2  0  0  0
 45118  1  0  0  0
 46119  1  0  0  0
 47120  1  0  0  0
 47121  1  0  0  0
 48 56  1  0  0  0
 48 65  1  0  0  0
 48122  1  0  0  0
 49 50  1  0  0  0
 49 53  1  0  0  0
 49 64  1  0  0  0
 49123  1  0  0  0
 50 51  1  0  0  0
 50124  1  0  0  0
 50125  1  0  0  0
 51 52  1  0  0  0
 51126  1  0  0  0
 51127  1  0  0  0
 52128  1  0  0  0
 52129  1  0  0  0
 53 54  1  0  0  0
 54 55  2  0  0  0
 54130  1  0  0  0
 55 57  1  0  0  0
 55131  1  0  0  0
 56 69  2  0  0  0
 57 58  2  0  0  0
 57132  1  0  0  0
 58133  1  0  0  0
 59 60  1  0  0  0
 59 61  1  0  0  0
 59 62  1  0  0  0
 60134  1  0  0  0
 60135  1  0  0  0
 60136  1  0  0  0
 61137  1  0  0  0
 61138  1  0  0  0
 61139  1  0  0  0
 62140  1  0  0  0
 62141  1  0  0  0
 62142  1  0  0  0
 63 65  1  0  0  0
 63143  1  0  0  0
 63144  1  0  0  0
 63145  1  0  0  0
 64146  1  0  0  0
 65147  1  0  0  0
 68 82  1  0  0  0
 71 72  2  0  0  0
 71 73  1  0  0  0
 71148  1  0  0  0
 72 84  1  0  0  0
 72 86  1  0  0  0
 73 85  2  0  0  0
 73 87  1  0  0  0
 74 76  1  0  0  0
 74 84  2  0  0  0
 74 85  1  0  0  0
 75 79  1  0  0  0
 75 83  1  0  0  0
 75 88  2  0  0  0
 76149  1  0  0  0
 76150  1  0  0  0
 76151  1  0  0  0
 77152  1  0  0  0
 77153  1  0  0  0
 77154  1  0  0  0
 77 83  1  0  0  0
 78 83  1  0  0  0
 78155  1  0  0  0
 78156  1  0  0  0
 78157  1  0  0  0
 79 80  1  0  0  0
 79158  1  0  0  0
 79159  1  0  0  0
 80 82  1  0  0  0
 80160  1  0  0  0
 80161  1  0  0  0
 81 83  1  0  0  0
 81 87  1  0  0  0
 81162  1  0  0  0
 81163  1  0  0  0
 82164  1  0  0  0
 82165  1  0  0  0
 86166  1  0  0  0
 87167  1  0  0  0
M  ISO  4   1 100  68 101  82 101  86 100
M  END
> <chiral flag>
0

> <version>
0

> <s_m_source_file>
/data/baiqing/PycharmProjects/Reinvent-master-3.2/result/LINK_invent/BTK/process_docking_weight1_custom_product_contain_oxygen_bond_distance_aromatic_linkinvent_7_9_3/rearranged_h_0168.sdf

> <i_m_source_file_index>
34

> <r_mmod_Potential_Energy-OPLS-2005>
-550.599304199219

> <r_mmod_Stretch_Energy-OPLS-2005>
34.757698059082

> <r_mmod_Bend_Energy-OPLS-2005>
107.884056091309

> <r_mmod_Torsional_Energy-OPLS-2005>
233.826568603516

> <r_mmod_Improper_Torsional_Energy-OPLS-2005>
10.5430221557617

> <r_mmod_Van_der_Waal_Energy-OPLS-2005>
168.139205932617

> <r_mmod_Electrostatic_Energy-OPLS-2005>
-886.791625976562

> <r_mmod_Solvation_Energy-OPLS-2005>
-228.803161621094

> <b_mmod_Minimization_Converged-OPLS-2005>
0

> <r_mmod_RMS_Derivative-OPLS-2005>
2.49003005027771

$$$$
34
                    3D
 Structure written by MMmdl.
155163  0  0  1  0            999 V2000
  -30.7125  -14.4514   20.5953 C   0  0  0  0  0  0
  -30.4218  -12.3013   19.4338 C   0  0  0  0  0  0
  -29.5019  -12.5220   18.2147 C   0  0  0  0  0  0
  -28.0210  -12.3823   18.6173 C   0  0  0  0  0  0
  -27.6655  -13.2119   19.8807 C   0  0  2  0  0  0
  -28.7007  -12.9825   21.0063 C   0  0  0  0  0  0
  -25.2599  -13.8190   20.5691 C   0  0  0  0  0  0
  -24.1841  -13.0456   20.9142 C   0  0  0  0  0  0
  -24.6398  -11.6928   20.8686 C   0  0  0  0  0  0
  -23.9071  -10.4314   21.0376 C   0  0  0  0  0  0
  -24.3626   -9.4242   21.9168 C   0  0  0  0  0  0
  -23.6308   -8.2276   22.0744 C   0  0  0  0  0  0
  -22.4279   -8.0310   21.3544 C   0  0  0  0  0  0
  -21.9916   -9.0277   20.4633 C   0  0  0  0  0  0
  -22.7243  -10.2157   20.3037 C   0  0  0  0  0  0
  -21.6865   -6.0751   22.5279 C   0  0  0  0  0  0
  -21.4022   -6.5650   23.8213 C   0  0  0  0  0  0
  -21.3656   -5.6792   24.9167 C   0  0  0  0  0  0
  -21.6048   -4.3057   24.7208 C   0  0  0  0  0  0
  -21.8820   -3.8157   23.4323 C   0  0  0  0  0  0
  -21.9194   -4.6978   22.3388 C   0  0  0  0  0  0
  -22.7873  -13.5258   21.1824 C   0  0  0  0  0  0
  -22.1664   -4.2170   21.0960 F   0  0  0  0  0  0
  -21.5634   -3.4533   25.7717 F   0  0  0  0  0  0
  -30.0429  -13.2733   20.4713 N   0  0  0  0  0  0
  -26.3037  -12.9363   20.3357 N   0  0  0  0  0  0
  -25.9321  -11.6515   20.5716 N   0  0  0  0  0  0
  -22.0518  -12.8236   22.0380 N   0  0  0  0  0  0
  -25.4336  -15.1915   20.4174 N   0  0  0  0  0  0
  -31.7918  -14.6757   20.0413 O   0  0  0  0  0  0
  -21.6647   -6.8898   21.4247 O   0  0  0  0  0  0
  -22.3559  -14.5569   20.6682 O   0  0  0  0  0  0
  -24.6118  -31.8698   23.2089 C   0  0  0  0  0  0
  -25.9025  -32.4830   23.8362 C   0  0  1  0  0  0
  -27.2342  -27.4405   20.0919 C   0  0  0  0  0  0
  -25.5881  -33.8617   24.2319 N   0  0  0  0  0  0
  -23.3970  -30.4938   21.5532 C   0  0  2  0  0  0
  -24.8414  -28.9611   20.1139 C   0  0  0  0  0  0
  -22.7385  -29.4670   22.5011 C   0  0  0  0  0  0
  -18.0277  -28.1353   22.8492 C   0  0  0  0  0  0
  -24.1484  -36.7305   23.2645 C   0  0  0  0  0  0
  -25.9223  -30.8417   21.3538 C   0  0  0  0  0  0
  -26.0016  -29.4740   20.7059 C   0  0  0  0  0  0
  -27.1981  -28.7214   20.6928 C   0  0  0  0  0  0
  -26.0547  -26.9483   19.4853 C   0  0  0  0  0  0
  -24.8643  -27.6974   19.5001 C   0  0  0  0  0  0
  -23.6000  -29.8229   20.1680 C   0  0  0  0  0  0
  -25.4105  -36.3109   24.0348 C   0  0  1  0  0  0
  -20.5862  -28.3641   23.1345 C   0  0  2  0  0  0
  -20.6774  -26.9398   22.5397 C   0  0  0  0  0  0
  -19.5764  -26.6414   21.5183 C   0  0  0  0  0  0
  -18.1941  -26.7903   22.1616 C   0  0  0  0  0  0
  -19.1521  -28.8813   23.2915 C   0  0  0  0  0  0
  -18.9427  -30.1422   23.8918 C   0  0  0  0  0  0
  -17.6423  -30.6558   24.0559 C   0  0  0  0  0  0
  -25.9029  -34.9481   23.5135 C   0  0  0  0  0  0
  -16.5323  -29.9050   23.6312 C   0  0  0  0  0  0
  -16.7255  -28.6472   23.0336 C   0  0  0  0  0  0
  -26.4470  -31.6577   25.0662 C   0  0  0  0  0  0
  -25.3749  -31.3649   26.1413 C   0  0  0  0  0  0
  -27.0296  -30.3033   24.5979 C   0  0  0  0  0  0
  -27.6069  -32.4268   25.7412 C   0  0  0  0  0  0
  -27.5581  -37.1803   24.8472 C   0  0  0  0  0  0
  -21.4114  -29.3042   22.3771 N   0  0  0  0  0  0
  -26.4290  -37.3792   23.9425 N   0  0  0  0  0  0
  -24.6632  -31.0812   22.0980 N   0  0  0  0  0  0
  -23.4179  -28.8210   23.3031 O   0  0  0  0  0  0
  -28.4157  -26.7226   20.1255 O   0  0  0  0  0  0
  -26.5597  -34.8931   22.4701 O   0  0  0  0  0  0
  -23.5320  -32.1437   23.7511 O   0  0  0  0  0  0
  -30.2942  -17.7210   22.1484 C   0  0  0  0  0  0
  -30.1968  -17.3431   19.7753 C   0  0  0  0  0  0
  -30.3754  -19.1050   21.8767 C   0  0  0  0  0  0
  -30.2118  -16.8102   21.0810 C   0  0  0  0  0  0
  -30.2866  -19.5582   20.5324 C   0  0  0  0  0  0
  -29.9120  -23.2428   19.7486 C   0  0  0  0  0  0
  -29.5515  -21.9499   20.5346 C   0  0  0  0  0  0
  -30.6062  -20.0599   23.0387 C   0  0  0  0  0  0
  -29.6204  -24.6089   20.3951 C   0  0  0  0  0  0
  -28.3809  -25.3210   19.8133 C   0  0  0  0  0  0
  -30.2251  -18.6690   19.5157 N   0  0  0  0  0  0
  -30.1049  -15.4056   21.3221 N   0  0  0  0  0  0
  -30.3753  -20.9362   20.2026 N   0  0  0  0  0  0
  -30.4499  -23.1881   18.6357 O   0  0  0  0  0  0
  -28.6273  -21.8999   21.3537 O   0  0  0  0  0  0
  -31.4705  -12.3906   19.1416 H   0  0  0  0  0  0
  -30.3107  -11.2875   19.8192 H   0  0  0  0  0  0
  -29.7441  -11.8100   17.4235 H   0  0  0  0  0  0
  -29.6757  -13.5148   17.7955 H   0  0  0  0  0  0
  -27.8264  -11.3240   18.7988 H   0  0  0  0  0  0
  -27.3796  -12.6723   17.7846 H   0  0  0  0  0  0
  -27.7130  -14.2629   19.5951 H   0  0  0  0  0  0
  -28.6620  -11.9476   21.3476 H   0  0  0  0  0  0
  -28.4500  -13.5836   21.8809 H   0  0  0  0  0  0
  -25.2783   -9.5731   22.4721 H   0  0  0  0  0  0
  -24.0035   -7.4669   22.7454 H   0  0  0  0  0  0
  -21.0859   -8.8803   19.8925 H   0  0  0  0  0  0
  -22.3729  -10.9694   19.6130 H   0  0  0  0  0  0
  -21.2028   -7.6159   23.9732 H   0  0  0  0  0  0
  -21.1468   -6.0505   25.9071 H   0  0  0  0  0  0
  -22.0596   -2.7621   23.2808 H   0  0  0  0  0  0
  -22.4145  -11.9899   22.4769 H   0  0  0  0  0  0
  -21.1128  -13.1246   22.2574 H   0  0  0  0  0  0
  -24.6783  -15.8531   20.5535 H   0  0  0  0  0  0
  -26.2955  -15.6335   20.1259 H   0  0  0  0  0  0
  -26.7094  -32.5555   23.1121 H   0  0  0  0  0  0
  -25.0007  -33.9755   25.0447 H   0  0  0  0  0  0
  -22.6837  -31.3099   21.4154 H   0  0  0  0  0  0
  -23.3747  -35.9634   23.3319 H   0  0  0  0  0  0
  -24.3573  -36.8896   22.2051 H   0  0  0  0  0  0
  -23.7222  -37.6515   23.6640 H   0  0  0  0  0  0
  -26.0153  -31.6067   20.5820 H   0  0  0  0  0  0
  -26.8172  -30.9065   21.9604 H   0  0  0  0  0  0
  -28.0918  -29.1199   21.1518 H   0  0  0  0  0  0
  -26.0329  -25.9896   18.9891 H   0  0  0  0  0  0
  -23.9725  -27.2997   19.0354 H   0  0  0  0  0  0
  -23.6928  -30.5949   19.4022 H   0  0  0  0  0  0
  -22.7263  -29.2334   19.8820 H   0  0  0  0  0  0
  -25.1280  -36.1984   25.0839 H   0  0  0  0  0  0
  -20.9938  -28.3172   24.1472 H   0  0  0  0  0  0
  -20.5669  -26.2251   23.3558 H   0  0  0  0  0  0
  -21.6652  -26.7454   22.1183 H   0  0  0  0  0  0
  -19.6951  -25.6355   21.1142 H   0  0  0  0  0  0
  -19.6685  -27.3299   20.6765 H   0  0  0  0  0  0
  -17.4213  -26.6651   21.4015 H   0  0  0  0  0  0
  -18.0357  -26.0019   22.8991 H   0  0  0  0  0  0
  -19.7904  -30.7241   24.2300 H   0  0  0  0  0  0
  -17.4962  -31.6243   24.5143 H   0  0  0  0  0  0
  -15.5320  -30.2950   23.7611 H   0  0  0  0  0  0
  -15.8663  -28.0798   22.7031 H   0  0  0  0  0  0
  -24.5944  -30.6987   25.7734 H   0  0  0  0  0  0
  -24.8914  -32.2780   26.4884 H   0  0  0  0  0  0
  -25.8102  -30.8797   27.0153 H   0  0  0  0  0  0
  -26.2810  -29.6779   24.1096 H   0  0  0  0  0  0
  -27.4184  -29.7271   25.4390 H   0  0  0  0  0  0
  -27.8588  -30.4387   23.9023 H   0  0  0  0  0  0
  -27.2735  -33.3574   26.2018 H   0  0  0  0  0  0
  -28.3855  -32.6808   25.0205 H   0  0  0  0  0  0
  -28.0764  -31.8357   26.5289 H   0  0  0  0  0  0
  -28.2620  -38.0083   24.7515 H   0  0  0  0  0  0
  -28.1052  -36.2614   24.6309 H   0  0  0  0  0  0
  -27.2292  -37.1467   25.8873 H   0  0  0  0  0  0
  -20.9254  -29.8770   21.7015 H   0  0  0  0  0  0
  -26.0190  -38.2875   24.1431 H   0  0  0  0  0  0
  -30.3298  -17.3601   23.1663 H   0  0  0  0  0  0
  -30.1245  -16.6988   18.9116 H   0  0  0  0  0  0
  -31.0707  -19.5443   23.8798 H   0  0  0  0  0  0
  -29.6671  -20.4935   23.3803 H   0  0  0  0  0  0
  -31.2806  -20.8676   22.7536 H   0  0  0  0  0  0
  -30.4979  -25.2339   20.2283 H   0  0  0  0  0  0
  -29.5220  -24.4939   21.4745 H   0  0  0  0  0  0
  -27.4922  -24.8439   20.2317 H   0  0  0  0  0  0
  -28.3410  -25.2087   18.7292 H   0  0  0  0  0  0
  -29.3624  -15.1014   21.9348 H   0  0  0  0  0  0
  -30.9823  -21.1716   19.4307 H   0  0  0  0  0  0
  1 25  1  0  0  0
  1 30  2  0  0  0
  1 82  1  0  0  0
  2  3  1  0  0  0
  2 25  1  0  0  0
  2 86  1  0  0  0
  2 87  1  0  0  0
  3  4  1  0  0  0
  3 88  1  0  0  0
  3 89  1  0  0  0
  4  5  1  0  0  0
  4 90  1  0  0  0
  4 91  1  0  0  0
  5  6  1  0  0  0
  5 26  1  0  0  0
  5 92  1  0  0  0
  6 25  1  0  0  0
  6 93  1  0  0  0
  6 94  1  0  0  0
  7  8  2  0  0  0
  7 26  1  0  0  0
  7 29  1  0  0  0
  8  9  1  0  0  0
  8 22  1  0  0  0
  9 10  1  0  0  0
  9 27  2  0  0  0
 10 11  2  0  0  0
 10 15  1  0  0  0
 11 12  1  0  0  0
 11 95  1  0  0  0
 12 13  2  0  0  0
 12 96  1  0  0  0
 13 14  1  0  0  0
 13 31  1  0  0  0
 14 15  2  0  0  0
 14 97  1  0  0  0
 15 98  1  0  0  0
 16 17  2  0  0  0
 16 21  1  0  0  0
 16 31  1  0  0  0
 17 18  1  0  0  0
 17 99  1  0  0  0
 18 19  2  0  0  0
 18100  1  0  0  0
 19 20  1  0  0  0
 19 24  1  0  0  0
 20 21  2  0  0  0
 20101  1  0  0  0
 21 23  1  0  0  0
 22 28  1  0  0  0
 22 32  2  0  0  0
 26 27  1  0  0  0
 28102  1  0  0  0
 28103  1  0  0  0
 29104  1  0  0  0
 29105  1  0  0  0
 33 34  1  0  0  0
 33 66  1  0  0  0
 33 70  2  0  0  0
 34 36  1  0  0  0
 34 59  1  0  0  0
 34106  1  0  0  0
 35 44  2  0  0  0
 35 45  1  0  0  0
 35 68  1  0  0  0
 36 56  1  0  0  0
 36107  1  0  0  0
 37 39  1  0  0  0
 37 47  1  0  0  0
 37 66  1  0  0  0
 37108  1  0  0  0
 38 43  2  0  0  0
 38 46  1  0  0  0
 38 47  1  0  0  0
 39 64  1  0  0  0
 39 67  2  0  0  0
 40 52  1  0  0  0
 40 53  2  0  0  0
 40 58  1  0  0  0
 41109  1  0  0  0
 41110  1  0  0  0
 41111  1  0  0  0
 41 48  1  0  0  0
 42 43  1  0  0  0
 42 66  1  0  0  0
 42112  1  0  0  0
 42113  1  0  0  0
 43 44  1  0  0  0
 44114  1  0  0  0
 45 46  2  0  0  0
 45115  1  0  0  0
 46116  1  0  0  0
 47117  1  0  0  0
 47118  1  0  0  0
 48 56  1  0  0  0
 48 65  1  0  0  0
 48119  1  0  0  0
 49 50  1  0  0  0
 49 53  1  0  0  0
 49 64  1  0  0  0
 49120  1  0  0  0
 50 51  1  0  0  0
 50121  1  0  0  0
 50122  1  0  0  0
 51 52  1  0  0  0
 51123  1  0  0  0
 51124  1  0  0  0
 52125  1  0  0  0
 52126  1  0  0  0
 53 54  1  0  0  0
 54 55  2  0  0  0
 54127  1  0  0  0
 55 57  1  0  0  0
 55128  1  0  0  0
 56 69  2  0  0  0
 57 58  2  0  0  0
 57129  1  0  0  0
 58130  1  0  0  0
 59 60  1  0  0  0
 59 61  1  0  0  0
 59 62  1  0  0  0
 60131  1  0  0  0
 60132  1  0  0  0
 60133  1  0  0  0
 61134  1  0  0  0
 61135  1  0  0  0
 61136  1  0  0  0
 62137  1  0  0  0
 62138  1  0  0  0
 62139  1  0  0  0
 63 65  1  0  0  0
 63140  1  0  0  0
 63141  1  0  0  0
 63142  1  0  0  0
 64143  1  0  0  0
 65144  1  0  0  0
 68 80  1  0  0  0
 71 73  2  0  0  0
 71 74  1  0  0  0
 71145  1  0  0  0
 72 74  2  0  0  0
 72 81  1  0  0  0
 72146  1  0  0  0
 73 75  1  0  0  0
 73 78  1  0  0  0
 74 82  1  0  0  0
 75 81  2  0  0  0
 75 83  1  0  0  0
 76 77  1  0  0  0
 76 79  1  0  0  0
 76 84  2  0  0  0
 77 83  1  0  0  0
 77 85  2  0  0  0
 78147  1  0  0  0
 78148  1  0  0  0
 78149  1  0  0  0
 79 80  1  0  0  0
 79150  1  0  0  0
 79151  1  0  0  0
 80152  1  0  0  0
 80153  1  0  0  0
 82154  1  0  0  0
 83155  1  0  0  0
M  ISO  4   1 100  68 101  80 101  82 100
M  END
> <chiral flag>
0

> <version>
0

> <s_m_source_file>
/data/baiqing/PycharmProjects/Reinvent-master-3.2/result/LINK_invent/BTK/process_docking_weight1_custom_product_contain_oxygen_bond_distance_aromatic_linkinvent_7_9_3/rearranged_h_0168.sdf

> <i_m_source_file_index>
35

> <r_mmod_Potential_Energy-OPLS-2005>
-308.706695556641

> <r_mmod_Stretch_Energy-OPLS-2005>
36.8581275939941

> <r_mmod_Bend_Energy-OPLS-2005>
105.44701385498

> <r_mmod_Torsional_Energy-OPLS-2005>
257.851898193359

> <r_mmod_Improper_Torsional_Energy-OPLS-2005>
3.9000346660614

> <r_mmod_Van_der_Waal_Energy-OPLS-2005>
160.19026184082

> <r_mmod_Electrostatic_Energy-OPLS-2005>
-642.125793457031

> <r_mmod_Solvation_Energy-OPLS-2005>
-241.539611816406

> <b_mmod_Minimization_Converged-OPLS-2005>
0

> <r_mmod_RMS_Derivative-OPLS-2005>
2.28643250465393

$$$$
35
                    3D
 Structure written by MMmdl.
158166  0  0  1  0            999 V2000
  -30.6474  -14.5423   20.5288 C   0  0  0  0  0  0
  -30.4296  -12.3328   19.4507 C   0  0  0  0  0  0
  -29.5083  -12.4755   18.2187 C   0  0  0  0  0  0
  -28.0225  -12.3598   18.6151 C   0  0  0  0  0  0
  -27.6542  -13.2084   19.8643 C   0  0  2  0  0  0
  -28.6899  -13.0212   20.9967 C   0  0  0  0  0  0
  -25.2578  -13.8152   20.5677 C   0  0  0  0  0  0
  -24.1848  -13.0426   20.9180 C   0  0  0  0  0  0
  -24.6386  -11.6901   20.8712 C   0  0  0  0  0  0
  -23.9055  -10.4288   21.0415 C   0  0  0  0  0  0
  -24.3613   -9.4205   21.9188 C   0  0  0  0  0  0
  -23.6297   -8.2230   22.0762 C   0  0  0  0  0  0
  -22.4265   -8.0271   21.3581 C   0  0  0  0  0  0
  -21.9914   -9.0232   20.4666 C   0  0  0  0  0  0
  -22.7233  -10.2115   20.3081 C   0  0  0  0  0  0
  -21.6835   -6.0722   22.5296 C   0  0  0  0  0  0
  -21.3981   -6.5611   23.8227 C   0  0  0  0  0  0
  -21.3690   -5.6775   24.9194 C   0  0  0  0  0  0
  -21.6067   -4.3041   24.7234 C   0  0  0  0  0  0
  -21.8827   -3.8136   23.4346 C   0  0  0  0  0  0
  -21.9183   -4.6953   22.3397 C   0  0  0  0  0  0
  -22.7878  -13.5237   21.1867 C   0  0  0  0  0  0
  -22.1660   -4.2135   21.0988 F   0  0  0  0  0  0
  -21.5631   -3.4547   25.7755 F   0  0  0  0  0  0
  -30.0214  -13.3330   20.4525 N   0  0  0  0  0  0
  -26.2976  -12.9309   20.3264 N   0  0  0  0  0  0
  -25.9295  -11.6463   20.5678 N   0  0  0  0  0  0
  -22.0473  -12.8240   22.0399 N   0  0  0  0  0  0
  -25.4387  -15.1869   20.4117 N   0  0  0  0  0  0
  -31.7768  -14.7349   20.0712 O   0  0  0  0  0  0
  -21.6652   -6.8857   21.4262 O   0  0  0  0  0  0
  -22.3575  -14.5543   20.6706 O   0  0  0  0  0  0
  -24.6185  -31.8656   23.2086 C   0  0  0  0  0  0
  -25.9061  -32.4809   23.8404 C   0  0  1  0  0  0
  -27.2276  -27.4029   20.1112 C   0  0  0  0  0  0
  -25.5893  -33.8607   24.2316 N   0  0  0  0  0  0
  -23.4062  -30.4899   21.5489 C   0  0  2  0  0  0
  -24.8515  -28.9536   20.1125 C   0  0  0  0  0  0
  -22.7422  -29.4660   22.4981 C   0  0  0  0  0  0
  -18.0262  -28.1377   22.8475 C   0  0  0  0  0  0
  -24.1468  -36.7315   23.2630 C   0  0  0  0  0  0
  -25.9386  -30.8234   21.3651 C   0  0  0  0  0  0
  -26.0138  -29.4570   20.7104 C   0  0  0  0  0  0
  -27.2067  -28.6920   20.7009 C   0  0  0  0  0  0
  -26.0468  -26.9285   19.4932 C   0  0  0  0  0  0
  -24.8654  -27.6902   19.4989 C   0  0  0  0  0  0
  -23.6150  -29.8223   20.1641 C   0  0  0  0  0  0
  -25.4082  -36.3098   24.0331 C   0  0  1  0  0  0
  -20.5859  -28.3673   23.1296 C   0  0  2  0  0  0
  -20.6766  -26.9406   22.5400 C   0  0  0  0  0  0
  -19.5743  -26.6380   21.5196 C   0  0  0  0  0  0
  -18.1917  -26.7916   22.1602 C   0  0  0  0  0  0
  -19.1517  -28.8838   23.2879 C   0  0  0  0  0  0
  -18.9455  -30.1437   23.8905 C   0  0  0  0  0  0
  -17.6467  -30.6581   24.0565 C   0  0  0  0  0  0
  -25.9024  -34.9467   23.5114 C   0  0  0  0  0  0
  -16.5349  -29.9092   23.6333 C   0  0  0  0  0  0
  -16.7254  -28.6501   23.0357 C   0  0  0  0  0  0
  -26.4474  -31.6602   25.0748 C   0  0  0  0  0  0
  -25.3742  -31.3722   26.1505 C   0  0  0  0  0  0
  -27.0306  -30.3037   24.6140 C   0  0  0  0  0  0
  -27.6030  -32.4338   25.7519 C   0  0  0  0  0  0
  -27.5568  -37.1788   24.8435 C   0  0  0  0  0  0
  -21.4145  -29.3040   22.3714 N   0  0  0  0  0  0
  -26.4252  -37.3803   23.9425 N   0  0  0  0  0  0
  -24.6724  -31.0752   22.0983 N   0  0  0  0  0  0
  -23.4174  -28.8207   23.3041 O   0  0  0  0  0  0
  -28.3737  -26.6267   20.1611 O   0  0  0  0  0  0
  -26.5607  -34.8928   22.4690 O   0  0  0  0  0  0
  -23.5373  -32.1422   23.7473 O   0  0  0  0  0  0
  -28.8603  -19.2624   19.1759 C   0  0  0  0  0  0
  -29.5869  -18.0380   21.1508 C   0  0  0  0  0  0
  -28.8860  -18.0731   18.4220 C   0  0  0  0  0  0
  -29.2152  -19.2715   20.5406 C   0  0  0  0  0  0
  -29.6508  -16.8252   20.4010 C   0  0  0  0  0  0
  -29.3040  -16.8659   19.0268 C   0  0  0  0  0  0
  -28.4780  -18.1167   16.9962 C   0  0  0  0  0  0
  -29.0884  -23.0268   21.5520 C   0  0  0  0  0  0
  -29.3171  -24.4675   20.9655 C   0  0  0  0  0  0
  -27.2865  -19.0117   16.6610 C   0  0  0  0  0  0
  -28.9513  -21.7992   20.6158 C   0  0  0  0  0  0
  -28.1789  -25.1841   20.2035 C   0  0  0  0  0  0
  -29.9087  -15.5573   21.0422 N   0  0  0  0  0  0
  -29.1791  -20.4843   21.2699 N   0  0  0  0  0  0
  -29.0219  -17.4746   16.0947 O   0  0  0  0  0  0
  -29.0532  -22.8618   22.7802 O   0  0  0  0  0  0
  -30.4030  -25.0350   21.1532 O   0  0  0  0  0  0
  -29.2919  -15.7218   18.3017 F   0  0  0  0  0  0
  -31.4740  -12.4464   19.1541 H   0  0  0  0  0  0
  -30.3485  -11.3332   19.8788 H   0  0  0  0  0  0
  -29.7504  -11.7105   17.4793 H   0  0  0  0  0  0
  -29.6904  -13.4284   17.7238 H   0  0  0  0  0  0
  -27.8134  -11.3063   18.8056 H   0  0  0  0  0  0
  -27.3970  -12.6470   17.7688 H   0  0  0  0  0  0
  -27.6847  -14.2513   19.5517 H   0  0  0  0  0  0
  -28.6699  -11.9942   21.3614 H   0  0  0  0  0  0
  -28.4364  -13.6391   21.8593 H   0  0  0  0  0  0
  -25.2750   -9.5671   22.4758 H   0  0  0  0  0  0
  -24.0007   -7.4621   22.7462 H   0  0  0  0  0  0
  -21.0847   -8.8758   19.8944 H   0  0  0  0  0  0
  -22.3698  -10.9654   19.6198 H   0  0  0  0  0  0
  -21.1927   -7.6117   23.9712 H   0  0  0  0  0  0
  -21.1543   -6.0510   25.9102 H   0  0  0  0  0  0
  -22.0586   -2.7599   23.2857 H   0  0  0  0  0  0
  -22.4056  -11.9908   22.4824 H   0  0  0  0  0  0
  -21.1139  -13.1378   22.2619 H   0  0  0  0  0  0
  -24.6859  -15.8570   20.5175 H   0  0  0  0  0  0
  -26.3041  -15.6072   20.1030 H   0  0  0  0  0  0
  -26.7137  -32.5513   23.1177 H   0  0  0  0  0  0
  -25.0021  -33.9771   25.0442 H   0  0  0  0  0  0
  -22.6962  -31.3073   21.4081 H   0  0  0  0  0  0
  -23.3739  -35.9634   23.3258 H   0  0  0  0  0  0
  -24.3578  -36.8984   22.2053 H   0  0  0  0  0  0
  -23.7211  -37.6497   23.6688 H   0  0  0  0  0  0
  -26.0579  -31.5886   20.5974 H   0  0  0  0  0  0
  -26.8251  -30.8755   21.9858 H   0  0  0  0  0  0
  -28.1022  -29.0728   21.1737 H   0  0  0  0  0  0
  -26.0235  -25.9635   19.0072 H   0  0  0  0  0  0
  -23.9733  -27.2969   19.0306 H   0  0  0  0  0  0
  -23.7251  -30.5956   19.4031 H   0  0  0  0  0  0
  -22.7388  -29.2414   19.8695 H   0  0  0  0  0  0
  -25.1247  -36.1948   25.0824 H   0  0  0  0  0  0
  -20.9926  -28.3237   24.1423 H   0  0  0  0  0  0
  -20.5659  -26.2280   23.3589 H   0  0  0  0  0  0
  -21.6650  -26.7441   22.1215 H   0  0  0  0  0  0
  -19.6926  -25.6290   21.1239 H   0  0  0  0  0  0
  -19.6689  -27.3179   20.6717 H   0  0  0  0  0  0
  -17.4185  -26.6636   21.4012 H   0  0  0  0  0  0
  -18.0335  -26.0055   22.8997 H   0  0  0  0  0  0
  -19.7944  -30.7238   24.2285 H   0  0  0  0  0  0
  -17.5034  -31.6277   24.5154 H   0  0  0  0  0  0
  -15.5357  -30.3015   23.7647 H   0  0  0  0  0  0
  -15.8639  -28.0825   22.7095 H   0  0  0  0  0  0
  -24.5879  -30.7099   25.7866 H   0  0  0  0  0  0
  -24.8987  -32.2890   26.4995 H   0  0  0  0  0  0
  -25.8113  -30.8868   27.0240 H   0  0  0  0  0  0
  -26.2864  -29.6812   24.1154 H   0  0  0  0  0  0
  -27.4023  -29.7257   25.4613 H   0  0  0  0  0  0
  -27.8727  -30.4346   23.9336 H   0  0  0  0  0  0
  -27.2613  -33.3618   26.2115 H   0  0  0  0  0  0
  -28.3832  -32.6934   25.0350 H   0  0  0  0  0  0
  -28.0704  -31.8463   26.5432 H   0  0  0  0  0  0
  -28.2518  -38.0150   24.7590 H   0  0  0  0  0  0
  -28.1132  -36.2699   24.6106 H   0  0  0  0  0  0
  -27.2324  -37.1257   25.8842 H   0  0  0  0  0  0
  -20.9310  -29.8758   21.6932 H   0  0  0  0  0  0
  -26.0130  -38.2857   24.1513 H   0  0  0  0  0  0
  -28.5491  -20.1724   18.6844 H   0  0  0  0  0  0
  -29.8200  -18.0169   22.2053 H   0  0  0  0  0  0
  -26.5586  -18.9997   17.4741 H   0  0  0  0  0  0
  -26.7938  -18.6635   15.7540 H   0  0  0  0  0  0
  -27.6084  -20.0394   16.4985 H   0  0  0  0  0  0
  -29.6536  -21.9223   19.7911 H   0  0  0  0  0  0
  -27.9470  -21.8210   20.1908 H   0  0  0  0  0  0
  -27.2420  -24.9357   20.7039 H   0  0  0  0  0  0
  -28.1307  -24.7922   19.1875 H   0  0  0  0  0  0
  -29.1462  -15.2408   21.6202 H   0  0  0  0  0  0
  -29.3968  -20.5031   22.2655 H   0  0  0  0  0  0
  1 25  1  0  0  0
  1 30  2  0  0  0
  1 83  1  0  0  0
  2  3  1  0  0  0
  2 25  1  0  0  0
  2 89  1  0  0  0
  2 90  1  0  0  0
  3  4  1  0  0  0
  3 91  1  0  0  0
  3 92  1  0  0  0
  4  5  1  0  0  0
  4 93  1  0  0  0
  4 94  1  0  0  0
  5  6  1  0  0  0
  5 26  1  0  0  0
  5 95  1  0  0  0
  6 25  1  0  0  0
  6 96  1  0  0  0
  6 97  1  0  0  0
  7  8  2  0  0  0
  7 26  1  0  0  0
  7 29  1  0  0  0
  8  9  1  0  0  0
  8 22  1  0  0  0
  9 10  1  0  0  0
  9 27  2  0  0  0
 10 11  2  0  0  0
 10 15  1  0  0  0
 11 12  1  0  0  0
 11 98  1  0  0  0
 12 13  2  0  0  0
 12 99  1  0  0  0
 13 14  1  0  0  0
 13 31  1  0  0  0
 14 15  2  0  0  0
 14100  1  0  0  0
 15101  1  0  0  0
 16 17  2  0  0  0
 16 21  1  0  0  0
 16 31  1  0  0  0
 17 18  1  0  0  0
 17102  1  0  0  0
 18 19  2  0  0  0
 18103  1  0  0  0
 19 20  1  0  0  0
 19 24  1  0  0  0
 20 21  2  0  0  0
 20104  1  0  0  0
 21 23  1  0  0  0
 22 28  1  0  0  0
 22 32  2  0  0  0
 26 27  1  0  0  0
 28105  1  0  0  0
 28106  1  0  0  0
 29107  1  0  0  0
 29108  1  0  0  0
 33 34  1  0  0  0
 33 66  1  0  0  0
 33 70  2  0  0  0
 34 36  1  0  0  0
 34 59  1  0  0  0
 34109  1  0  0  0
 35 44  2  0  0  0
 35 45  1  0  0  0
 35 68  1  0  0  0
 36 56  1  0  0  0
 36110  1  0  0  0
 37 39  1  0  0  0
 37 47  1  0  0  0
 37 66  1  0  0  0
 37111  1  0  0  0
 38 43  2  0  0  0
 38 46  1  0  0  0
 38 47  1  0  0  0
 39 64  1  0  0  0
 39 67  2  0  0  0
 40 52  1  0  0  0
 40 53  2  0  0  0
 40 58  1  0  0  0
 41112  1  0  0  0
 41113  1  0  0  0
 41114  1  0  0  0
 41 48  1  0  0  0
 42 43  1  0  0  0
 42 66  1  0  0  0
 42115  1  0  0  0
 42116  1  0  0  0
 43 44  1  0  0  0
 44117  1  0  0  0
 45 46  2  0  0  0
 45118  1  0  0  0
 46119  1  0  0  0
 47120  1  0  0  0
 47121  1  0  0  0
 48 56  1  0  0  0
 48 65  1  0  0  0
 48122  1  0  0  0
 49 50  1  0  0  0
 49 53  1  0  0  0
 49 64  1  0  0  0
 49123  1  0  0  0
 50 51  1  0  0  0
 50124  1  0  0  0
 50125  1  0  0  0
 51 52  1  0  0  0
 51126  1  0  0  0
 51127  1  0  0  0
 52128  1  0  0  0
 52129  1  0  0  0
 53 54  1  0  0  0
 54 55  2  0  0  0
 54130  1  0  0  0
 55 57  1  0  0  0
 55131  1  0  0  0
 56 69  2  0  0  0
 57 58  2  0  0  0
 57132  1  0  0  0
 58133  1  0  0  0
 59 60  1  0  0  0
 59 61  1  0  0  0
 59 62  1  0  0  0
 60134  1  0  0  0
 60135  1  0  0  0
 60136  1  0  0  0
 61137  1  0  0  0
 61138  1  0  0  0
 61139  1  0  0  0
 62140  1  0  0  0
 62141  1  0  0  0
 62142  1  0  0  0
 63 65  1  0  0  0
 63143  1  0  0  0
 63144  1  0  0  0
 63145  1  0  0  0
 64146  1  0  0  0
 65147  1  0  0  0
 68 82  1  0  0  0
 71 73  2  0  0  0
 71 74  1  0  0  0
 71148  1  0  0  0
 72 74  2  0  0  0
 72 75  1  0  0  0
 72149  1  0  0  0
 73 76  1  0  0  0
 73 77  1  0  0  0
 74 84  1  0  0  0
 75 76  2  0  0  0
 75 83  1  0  0  0
 76 88  1  0  0  0
 77 80  1  0  0  0
 77 85  2  0  0  0
 78 79  1  0  0  0
 78 81  1  0  0  0
 78 86  2  0  0  0
 79 82  1  0  0  0
 79 87  2  0  0  0
 80150  1  0  0  0
 80151  1  0  0  0
 80152  1  0  0  0
 81 84  1  0  0  0
 81153  1  0  0  0
 81154  1  0  0  0
 82155  1  0  0  0
 82156  1  0  0  0
 83157  1  0  0  0
 84158  1  0  0  0
M  ISO  4   1 100  68 101  82 101  83 100
M  END
> <chiral flag>
0

> <version>
0

> <s_m_source_file>
/data/baiqing/PycharmProjects/Reinvent-master-3.2/result/LINK_invent/BTK/process_docking_weight1_custom_product_contain_oxygen_bond_distance_aromatic_linkinvent_7_9_3/rearranged_h_0168.sdf

> <i_m_source_file_index>
36

> <r_mmod_Potential_Energy-OPLS-2005>
34.2432174682617

> <r_mmod_Stretch_Energy-OPLS-2005>
50.2157440185547

> <r_mmod_Bend_Energy-OPLS-2005>
106.850082397461

> <r_mmod_Torsional_Energy-OPLS-2005>
299.91552734375

> <r_mmod_Improper_Torsional_Energy-OPLS-2005>
6.30726766586304

> <r_mmod_Van_der_Waal_Energy-OPLS-2005>
152.350814819336

> <r_mmod_Electrostatic_Energy-OPLS-2005>
-317.930023193359

> <r_mmod_Solvation_Energy-OPLS-2005>
-286.338317871094

> <b_mmod_Minimization_Converged-OPLS-2005>
0

> <r_mmod_RMS_Derivative-OPLS-2005>
3.69872808456421

$$$$
36
                    3D
 Structure written by MMmdl.
157165  0  0  1  0            999 V2000
  -30.6735  -14.4939   20.5683 C   0  0  0  0  0  0
  -30.4284  -12.3154   19.4323 C   0  0  0  0  0  0
  -29.5012  -12.5136   18.2145 C   0  0  0  0  0  0
  -28.0212  -12.3706   18.6206 C   0  0  0  0  0  0
  -27.6635  -13.2063   19.8793 C   0  0  2  0  0  0
  -28.7009  -12.9795   21.0020 C   0  0  0  0  0  0
  -25.2586  -13.8161   20.5681 C   0  0  0  0  0  0
  -24.1836  -13.0438   20.9172 C   0  0  0  0  0  0
  -24.6386  -11.6903   20.8723 C   0  0  0  0  0  0
  -23.9054  -10.4288   21.0399 C   0  0  0  0  0  0
  -24.3606   -9.4207   21.9184 C   0  0  0  0  0  0
  -23.6282   -8.2242   22.0761 C   0  0  0  0  0  0
  -22.4268   -8.0278   21.3547 C   0  0  0  0  0  0
  -21.9910   -9.0244   20.4641 C   0  0  0  0  0  0
  -22.7228  -10.2126   20.3046 C   0  0  0  0  0  0
  -21.6846   -6.0731   22.5275 C   0  0  0  0  0  0
  -21.4002   -6.5637   23.8207 C   0  0  0  0  0  0
  -21.3665   -5.6791   24.9174 C   0  0  0  0  0  0
  -21.6050   -4.3051   24.7221 C   0  0  0  0  0  0
  -21.8821   -3.8143   23.4341 C   0  0  0  0  0  0
  -21.9193   -4.6959   22.3395 C   0  0  0  0  0  0
  -22.7858  -13.5238   21.1848 C   0  0  0  0  0  0
  -22.1661   -4.2146   21.0970 F   0  0  0  0  0  0
  -21.5645   -3.4532   25.7738 F   0  0  0  0  0  0
  -30.0342  -13.2955   20.4586 N   0  0  0  0  0  0
  -26.3024  -12.9331   20.3354 N   0  0  0  0  0  0
  -25.9312  -11.6493   20.5748 N   0  0  0  0  0  0
  -22.0498  -12.8215   22.0390 N   0  0  0  0  0  0
  -25.4327  -15.1878   20.4106 N   0  0  0  0  0  0
  -31.7915  -14.6967   20.0821 O   0  0  0  0  0  0
  -21.6634   -6.8874   21.4234 O   0  0  0  0  0  0
  -22.3549  -14.5553   20.6714 O   0  0  0  0  0  0
  -24.6159  -31.8673   23.2105 C   0  0  0  0  0  0
  -25.9043  -32.4822   23.8417 C   0  0  1  0  0  0
  -27.2311  -27.4238   20.1057 C   0  0  0  0  0  0
  -25.5908  -33.8621   24.2345 N   0  0  0  0  0  0
  -23.4060  -30.4896   21.5493 C   0  0  2  0  0  0
  -24.8542  -28.9543   20.1151 C   0  0  0  0  0  0
  -22.7414  -29.4658   22.4975 C   0  0  0  0  0  0
  -18.0271  -28.1381   22.8502 C   0  0  0  0  0  0
  -24.1477  -36.7295   23.2643 C   0  0  0  0  0  0
  -25.9354  -30.8285   21.3672 C   0  0  0  0  0  0
  -26.0148  -29.4629   20.7131 C   0  0  0  0  0  0
  -27.2113  -28.7057   20.7043 C   0  0  0  0  0  0
  -26.0584  -26.9320   19.4977 C   0  0  0  0  0  0
  -24.8712  -27.6887   19.5030 C   0  0  0  0  0  0
  -23.6160  -29.8224   20.1644 C   0  0  0  0  0  0
  -25.4105  -36.3110   24.0343 C   0  0  1  0  0  0
  -20.5861  -28.3677   23.1300 C   0  0  2  0  0  0
  -20.6758  -26.9412   22.5414 C   0  0  0  0  0  0
  -19.5736  -26.6385   21.5218 C   0  0  0  0  0  0
  -18.1911  -26.7934   22.1625 C   0  0  0  0  0  0
  -19.1520  -28.8847   23.2898 C   0  0  0  0  0  0
  -18.9456  -30.1452   23.8914 C   0  0  0  0  0  0
  -17.6461  -30.6592   24.0571 C   0  0  0  0  0  0
  -25.9044  -34.9472   23.5138 C   0  0  0  0  0  0
  -16.5349  -29.9093   23.6342 C   0  0  0  0  0  0
  -16.7264  -28.6505   23.0376 C   0  0  0  0  0  0
  -26.4490  -31.6601   25.0743 C   0  0  0  0  0  0
  -25.3757  -31.3655   26.1475 C   0  0  0  0  0  0
  -27.0355  -30.3059   24.6121 C   0  0  0  0  0  0
  -27.6069  -32.4327   25.7507 C   0  0  0  0  0  0
  -27.5594  -37.1780   24.8462 C   0  0  0  0  0  0
  -21.4136  -29.3041   22.3698 N   0  0  0  0  0  0
  -26.4285  -37.3808   23.9438 N   0  0  0  0  0  0
  -24.6700  -31.0768   22.1008 N   0  0  0  0  0  0
  -23.4174  -28.8204   23.3032 O   0  0  0  0  0  0
  -28.3584  -26.6324   20.1195 O   0  0  0  0  0  0
  -26.5600  -34.8919   22.4696 O   0  0  0  0  0  0
  -23.5346  -32.1437   23.7478 O   0  0  0  0  0  0
  -30.7732  -17.5766   20.0851 C   0  0  0  0  0  0
  -30.6666  -19.0001   20.2471 C   0  0  0  0  0  0
  -29.8706  -19.3749   21.3063 C   0  0  0  0  0  0
  -30.0816  -16.8357   21.0204 C   0  0  0  0  0  0
  -29.5600  -20.7035   21.8448 C   0  0  0  0  0  0
  -28.8800  -24.2113   20.4998 C   0  0  0  0  0  0
  -28.2495  -25.5219   21.0357 C   0  0  0  0  0  0
  -29.4711  -23.2292   21.5495 C   0  0  2  0  0  0
  -30.8872  -23.6896   21.9672 C   0  0  0  0  0  0
  -31.3492  -19.8596   19.3678 N   0  0  0  0  0  0
  -29.9586  -15.4769   21.1611 N   0  0  0  0  0  0
  -29.5283  -21.8185   21.0667 N   0  0  0  0  0  0
  -29.3191  -20.8119   23.1644 N   0  3  0  0  0  0
  -28.8673  -23.9660   19.2876 O   0  0  0  0  0  0
  -31.3819  -22.8784   22.9037 F   0  0  0  0  0  0
  -30.8649  -24.9247   22.4687 F   0  0  0  0  0  0
  -31.7133  -23.6804   20.9197 F   0  0  0  0  0  0
  -29.2262  -17.9357   22.0885 S   0  0  0  0  0  0
  -31.4738  -12.4205   19.1347 H   0  0  0  0  0  0
  -30.3325  -11.3028   19.8281 H   0  0  0  0  0  0
  -29.7456  -11.7927   17.4343 H   0  0  0  0  0  0
  -29.6685  -13.5017   17.7819 H   0  0  0  0  0  0
  -27.8337  -11.3131   18.8125 H   0  0  0  0  0  0
  -27.3745  -12.6479   17.7873 H   0  0  0  0  0  0
  -27.7101  -14.2559   19.5892 H   0  0  0  0  0  0
  -28.6781  -11.9395   21.3310 H   0  0  0  0  0  0
  -28.4533  -13.5681   21.8863 H   0  0  0  0  0  0
  -25.2754   -9.5685   22.4754 H   0  0  0  0  0  0
  -23.9994   -7.4638   22.7493 H   0  0  0  0  0  0
  -21.0849   -8.8745   19.8943 H   0  0  0  0  0  0
  -22.3684  -10.9661   19.6144 H   0  0  0  0  0  0
  -21.1972   -7.6142   23.9705 H   0  0  0  0  0  0
  -21.1500   -6.0524   25.9077 H   0  0  0  0  0  0
  -22.0596   -2.7605   23.2843 H   0  0  0  0  0  0
  -22.4116  -11.9861   22.4748 H   0  0  0  0  0  0
  -21.1115  -13.1240   22.2606 H   0  0  0  0  0  0
  -24.6693  -15.8467   20.5197 H   0  0  0  0  0  0
  -26.2903  -15.6254   20.0976 H   0  0  0  0  0  0
  -26.7120  -32.5539   23.1189 H   0  0  0  0  0  0
  -25.0105  -33.9802   25.0522 H   0  0  0  0  0  0
  -22.6968  -31.3071   21.4073 H   0  0  0  0  0  0
  -23.3775  -35.9587   23.3262 H   0  0  0  0  0  0
  -24.3585  -36.8963   22.2068 H   0  0  0  0  0  0
  -23.7166  -37.6455   23.6693 H   0  0  0  0  0  0
  -26.0539  -31.5950   20.6003 H   0  0  0  0  0  0
  -26.8207  -30.8799   21.9898 H   0  0  0  0  0  0
  -28.1054  -29.0913   21.1738 H   0  0  0  0  0  0
  -26.0637  -25.9580   19.0285 H   0  0  0  0  0  0
  -23.9791  -27.2900   19.0399 H   0  0  0  0  0  0
  -23.7271  -30.5975   19.4053 H   0  0  0  0  0  0
  -22.7412  -29.2423   19.8676 H   0  0  0  0  0  0
  -25.1266  -36.1980   25.0834 H   0  0  0  0  0  0
  -20.9962  -28.3256   24.1420 H   0  0  0  0  0  0
  -20.5681  -26.2292   23.3608 H   0  0  0  0  0  0
  -21.6626  -26.7458   22.1204 H   0  0  0  0  0  0
  -19.6903  -25.6300   21.1246 H   0  0  0  0  0  0
  -19.6670  -27.3200   20.6748 H   0  0  0  0  0  0
  -17.4186  -26.6713   21.4012 H   0  0  0  0  0  0
  -18.0288  -26.0058   22.9002 H   0  0  0  0  0  0
  -19.7930  -30.7258   24.2300 H   0  0  0  0  0  0
  -17.5019  -31.6276   24.5163 H   0  0  0  0  0  0
  -15.5359  -30.3008   23.7652 H   0  0  0  0  0  0
  -15.8659  -28.0821   22.7110 H   0  0  0  0  0  0
  -24.5956  -30.6990   25.7778 H   0  0  0  0  0  0
  -24.8914  -32.2778   26.4966 H   0  0  0  0  0  0
  -25.8120  -30.8793   27.0207 H   0  0  0  0  0  0
  -26.2899  -29.6768   24.1244 H   0  0  0  0  0  0
  -27.4212  -29.7351   25.4578 H   0  0  0  0  0  0
  -27.8693  -30.4413   23.9226 H   0  0  0  0  0  0
  -27.2715  -33.3643   26.2079 H   0  0  0  0  0  0
  -28.3883  -32.6855   25.0327 H   0  0  0  0  0  0
  -28.0726  -31.8443   26.5424 H   0  0  0  0  0  0
  -28.2545  -38.0146   24.7644 H   0  0  0  0  0  0
  -28.1157  -36.2683   24.6138 H   0  0  0  0  0  0
  -27.2324  -37.1251   25.8862 H   0  0  0  0  0  0
  -20.9301  -29.8759   21.6912 H   0  0  0  0  0  0
  -26.0168  -38.2865   24.1520 H   0  0  0  0  0  0
  -31.3614  -17.1444   19.2878 H   0  0  0  0  0  0
  -28.7126  -25.8081   21.9789 H   0  0  0  0  0  0
  -27.2053  -25.3058   21.2667 H   0  0  0  0  0  0
  -28.8246  -23.2558   22.4251 H   0  0  0  0  0  0
  -31.9600  -19.3974   18.7007 H   0  0  0  0  0  0
  -31.8385  -20.6474   19.7790 H   0  0  0  0  0  0
  -29.1450  -15.1565   21.6651 H   0  0  0  0  0  0
  -29.6802  -21.7030   20.0720 H   0  0  0  0  0  0
  -29.3712  -19.9849   23.7400 H   0  0  0  0  0  0
  -29.0393  -21.6650   23.6179 H   0  0  0  0  0  0
  1 25  1  0  0  0
  1 30  2  0  0  0
  1 81  1  0  0  0
  2  3  1  0  0  0
  2 25  1  0  0  0
  2 89  1  0  0  0
  2 90  1  0  0  0
  3  4  1  0  0  0
  3 91  1  0  0  0
  3 92  1  0  0  0
  4  5  1  0  0  0
  4 93  1  0  0  0
  4 94  1  0  0  0
  5  6  1  0  0  0
  5 26  1  0  0  0
  5 95  1  0  0  0
  6 25  1  0  0  0
  6 96  1  0  0  0
  6 97  1  0  0  0
  7  8  2  0  0  0
  7 26  1  0  0  0
  7 29  1  0  0  0
  8  9  1  0  0  0
  8 22  1  0  0  0
  9 10  1  0  0  0
  9 27  2  0  0  0
 10 11  2  0  0  0
 10 15  1  0  0  0
 11 12  1  0  0  0
 11 98  1  0  0  0
 12 13  2  0  0  0
 12 99  1  0  0  0
 13 14  1  0  0  0
 13 31  1  0  0  0
 14 15  2  0  0  0
 14100  1  0  0  0
 15101  1  0  0  0
 16 17  2  0  0  0
 16 21  1  0  0  0
 16 31  1  0  0  0
 17 18  1  0  0  0
 17102  1  0  0  0
 18 19  2  0  0  0
 18103  1  0  0  0
 19 20  1  0  0  0
 19 24  1  0  0  0
 20 21  2  0  0  0
 20104  1  0  0  0
 21 23  1  0  0  0
 22 28  1  0  0  0
 22 32  2  0  0  0
 26 27  1  0  0  0
 28105  1  0  0  0
 28106  1  0  0  0
 29107  1  0  0  0
 29108  1  0  0  0
 33 34  1  0  0  0
 33 66  1  0  0  0
 33 70  2  0  0  0
 34 36  1  0  0  0
 34 59  1  0  0  0
 34109  1  0  0  0
 35 44  2  0  0  0
 35 45  1  0  0  0
 35 68  1  0  0  0
 36 56  1  0  0  0
 36110  1  0  0  0
 37 39  1  0  0  0
 37 47  1  0  0  0
 37 66  1  0  0  0
 37111  1  0  0  0
 38 43  2  0  0  0
 38 46  1  0  0  0
 38 47  1  0  0  0
 39 64  1  0  0  0
 39 67  2  0  0  0
 40 52  1  0  0  0
 40 53  2  0  0  0
 40 58  1  0  0  0
 41112  1  0  0  0
 41113  1  0  0  0
 41114  1  0  0  0
 41 48  1  0  0  0
 42 43  1  0  0  0
 42 66  1  0  0  0
 42115  1  0  0  0
 42116  1  0  0  0
 43 44  1  0  0  0
 44117  1  0  0  0
 45 46  2  0  0  0
 45118  1  0  0  0
 46119  1  0  0  0
 47120  1  0  0  0
 47121  1  0  0  0
 48 56  1  0  0  0
 48 65  1  0  0  0
 48122  1  0  0  0
 49 50  1  0  0  0
 49 53  1  0  0  0
 49 64  1  0  0  0
 49123  1  0  0  0
 50 51  1  0  0  0
 50124  1  0  0  0
 50125  1  0  0  0
 51 52  1  0  0  0
 51126  1  0  0  0
 51127  1  0  0  0
 52128  1  0  0  0
 52129  1  0  0  0
 53 54  1  0  0  0
 54 55  2  0  0  0
 54130  1  0  0  0
 55 57  1  0  0  0
 55131  1  0  0  0
 56 69  2  0  0  0
 57 58  2  0  0  0
 57132  1  0  0  0
 58133  1  0  0  0
 59 60  1  0  0  0
 59 61  1  0  0  0
 59 62  1  0  0  0
 60134  1  0  0  0
 60135  1  0  0  0
 60136  1  0  0  0
 61137  1  0  0  0
 61138  1  0  0  0
 61139  1  0  0  0
 62140  1  0  0  0
 62141  1  0  0  0
 62142  1  0  0  0
 63 65  1  0  0  0
 63143  1  0  0  0
 63144  1  0  0  0
 63145  1  0  0  0
 64146  1  0  0  0
 65147  1  0  0  0
 68 77  1  0  0  0
 71 72  1  0  0  0
 71 74  2  0  0  0
 71148  1  0  0  0
 72 73  2  0  0  0
 72 80  1  0  0  0
 73 75  1  0  0  0
 73 88  1  0  0  0
 74 81  1  0  0  0
 74 88  1  0  0  0
 75 82  1  0  0  0
 75 83  2  0  0  0
 76 77  1  0  0  0
 76 78  1  0  0  0
 76 84  2  0  0  0
 77149  1  0  0  0
 77150  1  0  0  0
 78 79  1  0  0  0
 78 82  1  0  0  0
 78151  1  0  0  0
 79 85  1  0  0  0
 79 86  1  0  0  0
 79 87  1  0  0  0
 80152  1  0  0  0
 80153  1  0  0  0
 81154  1  0  0  0
 82155  1  0  0  0
 83156  1  0  0  0
 83157  1  0  0  0
M  CHG  1  83   1
M  ISO  4   1 100  68 101  77 101  81 100
M  END
> <chiral flag>
0

> <version>
0

> <s_m_source_file>
/data/baiqing/PycharmProjects/Reinvent-master-3.2/result/LINK_invent/BTK/process_docking_weight1_custom_product_contain_oxygen_bond_distance_aromatic_linkinvent_7_9_3/rearranged_h_0168.sdf

> <i_m_source_file_index>
37

> <r_mmod_Potential_Energy-OPLS-2005>
-316.181121826172

> <r_mmod_Stretch_Energy-OPLS-2005>
41.1200866699219

> <r_mmod_Bend_Energy-OPLS-2005>
99.1571578979492

> <r_mmod_Torsional_Energy-OPLS-2005>
237.222351074219

> <r_mmod_Improper_Torsional_Energy-OPLS-2005>
8.17745590209961

> <r_mmod_Van_der_Waal_Energy-OPLS-2005>
132.514404296875

> <r_mmod_Electrostatic_Energy-OPLS-2005>
-365.313568115234

> <r_mmod_Solvation_Energy-OPLS-2005>
-484.238403320312

> <b_mmod_Minimization_Converged-OPLS-2005>
0

> <r_mmod_RMS_Derivative-OPLS-2005>
1.72231698036194

$$$$
37
                    3D
 Structure written by MMmdl.
157165  0  0  1  0            999 V2000
  -29.3890  -14.3337   21.1946 C   0  0  0  0  0  0
  -30.4291  -12.5505   19.5933 C   0  0  0  0  0  0
  -29.6556  -12.5709   18.2286 C   0  0  0  0  0  0
  -28.1733  -12.1628   18.3518 C   0  0  0  0  0  0
  -27.6457  -12.8072   19.5992 C   0  0  2  0  0  0
  -28.4337  -12.2860   20.8117 C   0  0  0  0  0  0
  -25.3662  -13.6236   19.7558 C   0  0  0  0  0  0
  -24.4167  -13.1589   20.5389 C   0  0  0  0  0  0
  -24.6034  -11.7226   20.6870 C   0  0  0  0  0  0
  -23.8234  -10.5235   21.0531 C   0  0  0  0  0  0
  -24.3230   -9.5059   21.9085 C   0  0  0  0  0  0
  -23.6243   -8.2847   22.0729 C   0  0  0  0  0  0
  -22.4160   -8.0618   21.3694 C   0  0  0  0  0  0
  -21.9428   -9.0602   20.4968 C   0  0  0  0  0  0
  -22.6341  -10.2764   20.3443 C   0  0  0  0  0  0
  -21.6972   -6.0813   22.5271 C   0  0  0  0  0  0
  -21.4123   -6.5705   23.8209 C   0  0  0  0  0  0
  -21.3697   -5.6835   24.9163 C   0  0  0  0  0  0
  -21.6043   -4.3089   24.7211 C   0  0  0  0  0  0
  -21.8813   -3.8191   23.4323 C   0  0  0  0  0  0
  -21.9249   -4.7027   22.3396 C   0  0  0  0  0  0
  -23.9040  -14.2712   21.3868 C   0  0  0  0  0  0
  -22.1689   -4.2195   21.0978 F   0  0  0  0  0  0
  -21.5606   -3.4567   25.7728 F   0  0  0  0  0  0
  -29.5772  -13.0759   20.7156 N   0  0  0  0  0  0
  -26.2871  -12.6390   19.8273 N   0  0  0  0  0  0
  -25.8393  -11.4715   20.3154 N   0  0  0  0  0  0
  -24.5564  -15.0146   23.3364 N   0  0  0  0  0  0
  -25.6490  -14.9139   19.3115 N   0  0  0  0  0  0
  -30.4294  -15.0263   20.8907 O   0  0  0  0  0  0
  -21.6897   -6.8949   21.4216 O   0  0  0  0  0  0
  -22.8978  -14.6080   20.6799 O   0  0  0  0  0  0
  -24.6426  -31.8520   23.2055 C   0  0  0  0  0  0
  -25.9228  -32.4726   23.8377 C   0  0  1  0  0  0
  -26.9596  -27.0606   20.1805 C   0  0  0  0  0  0
  -25.6002  -33.8552   24.2248 N   0  0  0  0  0  0
  -23.4298  -30.5013   21.5542 C   0  0  2  0  0  0
  -24.8429  -28.9744   20.0746 C   0  0  0  0  0  0
  -22.7542  -29.4599   22.4816 C   0  0  0  0  0  0
  -18.0302  -28.1394   22.8475 C   0  0  0  0  0  0
  -24.1485  -36.7266   23.2634 C   0  0  0  0  0  0
  -26.0005  -30.6980   21.4293 C   0  0  0  0  0  0
  -26.0256  -29.3228   20.7459 C   0  0  0  0  0  0
  -27.1035  -28.3629   20.8071 C   0  0  0  0  0  0
  -25.8682  -26.9296   19.3098 C   0  0  0  0  0  0
  -24.7891  -27.8055   19.3246 C   0  0  0  0  0  0
  -23.6436  -29.8894   20.1516 C   0  0  0  0  0  0
  -25.4126  -36.3060   24.0302 C   0  0  1  0  0  0
  -20.5920  -28.3718   23.1211 C   0  0  2  0  0  0
  -20.6789  -26.9418   22.5396 C   0  0  0  0  0  0
  -19.5757  -26.6359   21.5216 C   0  0  0  0  0  0
  -18.1941  -26.7937   22.1619 C   0  0  0  0  0  0
  -19.1562  -28.8875   23.2838 C   0  0  0  0  0  0
  -18.9462  -30.1471   23.8866 C   0  0  0  0  0  0
  -17.6450  -30.6585   24.0560 C   0  0  0  0  0  0
  -25.9098  -34.9430   23.5068 C   0  0  0  0  0  0
  -16.5351  -29.9064   23.6341 C   0  0  0  0  0  0
  -16.7279  -28.6489   23.0359 C   0  0  0  0  0  0
  -26.4537  -31.6610   25.0815 C   0  0  0  0  0  0
  -25.3685  -31.3824   26.1474 C   0  0  0  0  0  0
  -27.0409  -30.2988   24.6473 C   0  0  0  0  0  0
  -27.6074  -32.4389   25.7563 C   0  0  0  0  0  0
  -27.5586  -37.1791   24.8453 C   0  0  0  0  0  0
  -21.4241  -29.3034   22.3571 N   0  0  0  0  0  0
  -26.4288  -37.3773   23.9411 N   0  0  0  0  0  0
  -24.7123  -31.0384   22.1132 N   0  0  0  0  0  0
  -23.4253  -28.8092   23.2867 O   0  0  0  0  0  0
  -27.6284  -25.8210   20.4487 O   0  0  0  0  0  0
  -26.5659  -34.8890   22.4631 O   0  0  0  0  0  0
  -23.5560  -32.1408   23.7289 O   0  0  0  0  0  0
  -25.4684  -16.1631   21.6776 C   0  0  0  0  0  0
  -22.4017  -15.1237   23.0459 C   0  0  0  0  0  0
  -23.6033  -16.5951   22.1246 C   0  0  0  0  0  0
  -26.3564  -14.4569   22.1155 C   0  0  0  0  0  0
  -23.3010  -13.2445   23.4416 C   0  0  0  0  0  0
  -25.2397  -20.2249   21.1067 C   0  0  0  0  0  0
  -25.3538  -21.8937   21.0624 C   0  0  0  0  0  0
  -24.3071  -19.2901   22.1279 C   0  0  0  0  0  0
  -26.7216  -22.9250   20.9971 C   0  0  0  0  0  0
  -26.6841  -24.5271   20.4226 C   0  0  0  0  0  0
  -25.2640  -13.0073   22.9710 N   0  3  0  0  0  0
  -23.3840  -18.0365   21.8255 N   0  0  0  0  0  0
  -28.0384  -14.6914   21.8806 N   0  0  0  0  0  0
  -25.9289  -19.6087   20.2901 O   0  0  0  0  0  0
  -22.6040  -12.2421   24.0260 F   0  0  0  0  0  0
  -31.3619  -13.1103   19.5114 H   0  0  0  0  0  0
  -30.7308  -11.5266   19.8288 H   0  0  0  0  0  0
  -30.1594  -11.9384   17.4948 H   0  0  0  0  0  0
  -29.6973  -13.5832   17.8249 H   0  0  0  0  0  0
  -28.0846  -11.0759   18.4109 H   0  0  0  0  0  0
  -27.6114  -12.4811   17.4723 H   0  0  0  0  0  0
  -27.7881  -13.8606   19.3702 H   0  0  0  0  0  0
  -28.6629  -11.2244   20.6813 H   0  0  0  0  0  0
  -27.9264  -12.2956   21.7805 H   0  0  0  0  0  0
  -25.2694   -9.6546   22.4135 H   0  0  0  0  0  0
  -24.0360   -7.5223   22.7191 H   0  0  0  0  0  0
  -21.0391   -8.8923   19.9281 H   0  0  0  0  0  0
  -22.2633  -11.0166   19.6479 H   0  0  0  0  0  0
  -21.2137   -7.6215   23.9743 H   0  0  0  0  0  0
  -21.1500   -6.0558   25.9079 H   0  0  0  0  0  0
  -22.0529   -2.7651   23.2821 H   0  0  0  0  0  0
  -25.1824  -14.2962   23.7165 H   0  0  0  0  0  0
  -24.0155  -15.6262   23.9291 H   0  0  0  0  0  0
  -24.9070  -15.5985   19.2263 H   0  0  0  0  0  0
  -26.3806  -15.0825   18.6302 H   0  0  0  0  0  0
  -26.7274  -32.5273   23.1077 H   0  0  0  0  0  0
  -25.0138  -33.9743   25.0381 H   0  0  0  0  0  0
  -22.7250  -31.3277   21.4370 H   0  0  0  0  0  0
  -23.3771  -35.9579   23.3276 H   0  0  0  0  0  0
  -24.3582  -36.8923   22.2060 H   0  0  0  0  0  0
  -23.7191  -37.6430   23.6690 H   0  0  0  0  0  0
  -26.1947  -31.4639   20.6772 H   0  0  0  0  0  0
  -26.8641  -30.7116   22.0823 H   0  0  0  0  0  0
  -27.9583  -28.5567   21.4374 H   0  0  0  0  0  0
  -25.7339  -26.0651   18.6846 H   0  0  0  0  0  0
  -23.9118  -27.5755   18.7348 H   0  0  0  0  0  0
  -23.7973  -30.6917   19.4306 H   0  0  0  0  0  0
  -22.7452  -29.3649   19.8200 H   0  0  0  0  0  0
  -25.1296  -36.1912   25.0792 H   0  0  0  0  0  0
  -21.0027  -28.3343   24.1322 H   0  0  0  0  0  0
  -20.5705  -26.2319   23.3622 H   0  0  0  0  0  0
  -21.6642  -26.7420   22.1169 H   0  0  0  0  0  0
  -19.6901  -25.6259   21.1262 H   0  0  0  0  0  0
  -19.6705  -27.3155   20.6747 H   0  0  0  0  0  0
  -17.4201  -26.6679   21.4042 H   0  0  0  0  0  0
  -18.0332  -26.0105   22.9034 H   0  0  0  0  0  0
  -19.7937  -30.7309   24.2215 H   0  0  0  0  0  0
  -17.4997  -31.6268   24.5162 H   0  0  0  0  0  0
  -15.5356  -30.2943   23.7681 H   0  0  0  0  0  0
  -15.8682  -28.0798   22.7070 H   0  0  0  0  0  0
  -24.5871  -30.7168   25.7768 H   0  0  0  0  0  0
  -24.8857  -32.3020   26.4821 H   0  0  0  0  0  0
  -25.7919  -30.9036   27.0313 H   0  0  0  0  0  0
  -26.3046  -29.6675   24.1471 H   0  0  0  0  0  0
  -27.3953  -29.7340   25.5109 H   0  0  0  0  0  0
  -27.9006  -30.4188   23.9864 H   0  0  0  0  0  0
  -27.2693  -33.3737   26.2070 H   0  0  0  0  0  0
  -28.3912  -32.6890   25.0387 H   0  0  0  0  0  0
  -28.0718  -31.8555   26.5534 H   0  0  0  0  0  0
  -28.2548  -38.0136   24.7557 H   0  0  0  0  0  0
  -28.1126  -36.2670   24.6209 H   0  0  0  0  0  0
  -27.2318  -37.1335   25.8852 H   0  0  0  0  0  0
  -20.9421  -29.8852   21.6877 H   0  0  0  0  0  0
  -26.0157  -38.2832   24.1454 H   0  0  0  0  0  0
  -26.0742  -16.9410   21.2455 H   0  0  0  0  0  0
  -21.3735  -15.3134   23.3113 H   0  0  0  0  0  0
  -24.6707  -22.2781   21.8194 H   0  0  0  0  0  0
  -24.8486  -22.1080   20.1206 H   0  0  0  0  0  0
  -23.6532  -20.0168   22.6115 H   0  0  0  0  0  0
  -24.9957  -18.9684   22.9098 H   0  0  0  0  0  0
  -27.4892  -22.4008   20.4277 H   0  0  0  0  0  0
  -27.1205  -22.9653   22.0106 H   0  0  0  0  0  0
  -25.7239  -24.8712   20.8095 H   0  0  0  0  0  0
  -26.5310  -24.3369   19.3615 H   0  0  0  0  0  0
  -25.7196  -12.1271   23.2289 H   0  0  0  0  0  0
  -22.4001  -18.2761   21.9064 H   0  0  0  0  0  0
  -28.2295  -15.6329   22.1750 H   0  0  0  0  0  0
  1 25  1  0  0  0
  1 30  2  0  0  0
  1 83  1  0  0  0
  2  3  1  0  0  0
  2 25  1  0  0  0
  2 86  1  0  0  0
  2 87  1  0  0  0
  3  4  1  0  0  0
  3 88  1  0  0  0
  3 89  1  0  0  0
  4  5  1  0  0  0
  4 90  1  0  0  0
  4 91  1  0  0  0
  5  6  1  0  0  0
  5 26  1  0  0  0
  5 92  1  0  0  0
  6 25  1  0  0  0
  6 93  1  0  0  0
  6 94  1  0  0  0
  7  8  2  0  0  0
  7 26  1  0  0  0
  7 29  1  0  0  0
  8  9  1  0  0  0
  8 22  1  0  0  0
  9 10  1  0  0  0
  9 27  2  0  0  0
 10 11  2  0  0  0
 10 15  1  0  0  0
 11 12  1  0  0  0
 11 95  1  0  0  0
 12 13  2  0  0  0
 12 96  1  0  0  0
 13 14  1  0  0  0
 13 31  1  0  0  0
 14 15  2  0  0  0
 14 97  1  0  0  0
 15 98  1  0  0  0
 16 17  2  0  0  0
 16 21  1  0  0  0
 16 31  1  0  0  0
 17 18  1  0  0  0
 17 99  1  0  0  0
 18 19  2  0  0  0
 18100  1  0  0  0
 19 20  1  0  0  0
 19 24  1  0  0  0
 20 21  2  0  0  0
 20101  1  0  0  0
 21 23  1  0  0  0
 22 28  1  0  0  0
 22 32  2  0  0  0
 26 27  1  0  0  0
 28102  1  0  0  0
 28103  1  0  0  0
 29104  1  0  0  0
 29105  1  0  0  0
 33 34  1  0  0  0
 33 66  1  0  0  0
 33 70  2  0  0  0
 34 36  1  0  0  0
 34 59  1  0  0  0
 34106  1  0  0  0
 35 44  2  0  0  0
 35 45  1  0  0  0
 35 68  1  0  0  0
 36 56  1  0  0  0
 36107  1  0  0  0
 37 39  1  0  0  0
 37 47  1  0  0  0
 37 66  1  0  0  0
 37108  1  0  0  0
 38 43  2  0  0  0
 38 46  1  0  0  0
 38 47  1  0  0  0
 39 64  1  0  0  0
 39 67  2  0  0  0
 40 52  1  0  0  0
 40 53  2  0  0  0
 40 58  1  0  0  0
 41109  1  0  0  0
 41110  1  0  0  0
 41111  1  0  0  0
 41 48  1  0  0  0
 42 43  1  0  0  0
 42 66  1  0  0  0
 42112  1  0  0  0
 42113  1  0  0  0
 43 44  1  0  0  0
 44114  1  0  0  0
 45 46  2  0  0  0
 45115  1  0  0  0
 46116  1  0  0  0
 47117  1  0  0  0
 47118  1  0  0  0
 48 56  1  0  0  0
 48 65  1  0  0  0
 48119  1  0  0  0
 49 50  1  0  0  0
 49 53  1  0  0  0
 49 64  1  0  0  0
 49120  1  0  0  0
 50 51  1  0  0  0
 50121  1  0  0  0
 50122  1  0  0  0
 51 52  1  0  0  0
 51123  1  0  0  0
 51124  1  0  0  0
 52125  1  0  0  0
 52126  1  0  0  0
 53 54  1  0  0  0
 54 55  2  0  0  0
 54127  1  0  0  0
 55 57  1  0  0  0
 55128  1  0  0  0
 56 69  2  0  0  0
 57 58  2  0  0  0
 57129  1  0  0  0
 58130  1  0  0  0
 59 60  1  0  0  0
 59 61  1  0  0  0
 59 62  1  0  0  0
 60131  1  0  0  0
 60132  1  0  0  0
 60133  1  0  0  0
 61134  1  0  0  0
 61135  1  0  0  0
 61136  1  0  0  0
 62137  1  0  0  0
 62138  1  0  0  0
 62139  1  0  0  0
 63 65  1  0  0  0
 63140  1  0  0  0
 63141  1  0  0  0
 63142  1  0  0  0
 64143  1  0  0  0
 65144  1  0  0  0
 68 80  1  0  0  0
 71 73  2  0  0  0
 71 74  1  0  0  0
 71145  1  0  0  0
 72 73  1  0  0  0
 72 75  2  0  0  0
 72146  1  0  0  0
 73 82  1  0  0  0
 74 81  2  0  0  0
 74 83  1  0  0  0
 75 81  1  0  0  0
 75 85  1  0  0  0
 76 77  1  0  0  0
 76 78  1  0  0  0
 76 84  2  0  0  0
 77 79  1  0  0  0
 77147  1  0  0  0
 77148  1  0  0  0
 78 82  1  0  0  0
 78149  1  0  0  0
 78150  1  0  0  0
 79 80  1  0  0  0
 79151  1  0  0  0
 79152  1  0  0  0
 80153  1  0  0  0
 80154  1  0  0  0
 81155  1  0  0  0
 82156  1  0  0  0
 83157  1  0  0  0
M  CHG  1  81   1
M  ISO  4   1 100  68 101  80 101  83 100
M  END
> <chiral flag>
0

> <version>
0

> <s_m_source_file>
/data/baiqing/PycharmProjects/Reinvent-master-3.2/result/LINK_invent/BTK/process_docking_weight1_custom_product_contain_oxygen_bond_distance_aromatic_linkinvent_7_9_3/rearranged_h_0168.sdf

> <i_m_source_file_index>
38

> <r_mmod_Potential_Energy-OPLS-2005>
13450.7412109375

> <r_mmod_Stretch_Energy-OPLS-2005>
7194.470703125

> <r_mmod_Bend_Energy-OPLS-2005>
677.267944335938

> <r_mmod_Torsional_Energy-OPLS-2005>
393.166595458984

> <r_mmod_Improper_Torsional_Energy-OPLS-2005>
33.4504432678223

> <r_mmod_Van_der_Waal_Energy-OPLS-2005>
3242.52661132812

> <r_mmod_Electrostatic_Energy-OPLS-2005>
-287.715179443359

> <r_mmod_Solvation_Energy-OPLS-2005>
-447.408081054688

> <b_mmod_Minimization_Converged-OPLS-2005>
0

> <r_mmod_RMS_Derivative-OPLS-2005>
10.5541610717773

$$$$
38
                    3D
 Structure written by MMmdl.
159167  0  0  1  0            999 V2000
  -30.6684  -14.5433   20.4734 C   0  0  0  0  0  0
  -30.4257  -12.3244   19.4465 C   0  0  0  0  0  0
  -29.5064  -12.4885   18.2180 C   0  0  0  0  0  0
  -28.0254  -12.3509   18.6240 C   0  0  0  0  0  0
  -27.6568  -13.2156   19.8610 C   0  0  2  0  0  0
  -28.6987  -13.0498   20.9917 C   0  0  0  0  0  0
  -25.2575  -13.8177   20.5658 C   0  0  0  0  0  0
  -24.1841  -13.0446   20.9171 C   0  0  0  0  0  0
  -24.6411  -11.6919   20.8728 C   0  0  0  0  0  0
  -23.9083  -10.4290   21.0396 C   0  0  0  0  0  0
  -24.3627   -9.4198   21.9179 C   0  0  0  0  0  0
  -23.6289   -8.2237   22.0756 C   0  0  0  0  0  0
  -22.4269   -8.0288   21.3546 C   0  0  0  0  0  0
  -21.9906   -9.0266   20.4653 C   0  0  0  0  0  0
  -22.7250  -10.2137   20.3049 C   0  0  0  0  0  0
  -21.6847   -6.0740   22.5276 C   0  0  0  0  0  0
  -21.4019   -6.5642   23.8216 C   0  0  0  0  0  0
  -21.3658   -5.6791   24.9172 C   0  0  0  0  0  0
  -21.6033   -4.3052   24.7217 C   0  0  0  0  0  0
  -21.8823   -3.8154   23.4335 C   0  0  0  0  0  0
  -21.9188   -4.6970   22.3396 C   0  0  0  0  0  0
  -22.7856  -13.5241   21.1825 C   0  0  0  0  0  0
  -22.1654   -4.2168   21.0966 F   0  0  0  0  0  0
  -21.5619   -3.4531   25.7719 F   0  0  0  0  0  0
  -30.0249  -13.3438   20.4299 N   0  0  0  0  0  0
  -26.3009  -12.9363   20.3290 N   0  0  0  0  0  0
  -25.9340  -11.6522   20.5745 N   0  0  0  0  0  0
  -22.0476  -12.8262   22.0383 N   0  0  0  0  0  0
  -25.4288  -15.1892   20.4049 N   0  0  0  0  0  0
  -31.8513  -14.6672   20.1474 O   0  0  0  0  0  0
  -21.6635   -6.8882   21.4242 O   0  0  0  0  0  0
  -22.3548  -14.5545   20.6667 O   0  0  0  0  0  0
  -24.6166  -31.8651   23.2083 C   0  0  0  0  0  0
  -25.9040  -32.4815   23.8386 C   0  0  1  0  0  0
  -27.2367  -27.4010   20.0866 C   0  0  0  0  0  0
  -25.5873  -33.8613   24.2308 N   0  0  0  0  0  0
  -23.4072  -30.4872   21.5492 C   0  0  2  0  0  0
  -24.8529  -28.9509   20.1132 C   0  0  0  0  0  0
  -22.7426  -29.4631   22.4982 C   0  0  0  0  0  0
  -18.0267  -28.1390   22.8491 C   0  0  0  0  0  0
  -24.1479  -36.7326   23.2644 C   0  0  0  0  0  0
  -25.9419  -30.8151   21.3722 C   0  0  0  0  0  0
  -26.0154  -29.4484   20.7150 C   0  0  0  0  0  0
  -27.2054  -28.6798   20.7005 C   0  0  0  0  0  0
  -26.0471  -26.9244   19.4884 C   0  0  0  0  0  0
  -24.8654  -27.6883   19.4977 C   0  0  0  0  0  0
  -23.6186  -29.8234   20.1635 C   0  0  0  0  0  0
  -25.4106  -36.3117   24.0336 C   0  0  1  0  0  0
  -20.5858  -28.3671   23.1316 C   0  0  2  0  0  0
  -20.6755  -26.9398   22.5428 C   0  0  0  0  0  0
  -19.5735  -26.6386   21.5224 C   0  0  0  0  0  0
  -18.1909  -26.7934   22.1625 C   0  0  0  0  0  0
  -19.1515  -28.8844   23.2898 C   0  0  0  0  0  0
  -18.9450  -30.1455   23.8907 C   0  0  0  0  0  0
  -17.6452  -30.6589   24.0575 C   0  0  0  0  0  0
  -25.9038  -34.9478   23.5128 C   0  0  0  0  0  0
  -16.5343  -29.9100   23.6330 C   0  0  0  0  0  0
  -16.7255  -28.6520   23.0341 C   0  0  0  0  0  0
  -26.4459  -31.6615   25.0733 C   0  0  0  0  0  0
  -25.3722  -31.3733   26.1485 C   0  0  0  0  0  0
  -27.0304  -30.3041   24.6166 C   0  0  0  0  0  0
  -27.6028  -32.4359   25.7485 C   0  0  0  0  0  0
  -27.5581  -37.1817   24.8462 C   0  0  0  0  0  0
  -21.4148  -29.3031   22.3720 N   0  0  0  0  0  0
  -26.4291  -37.3802   23.9412 N   0  0  0  0  0  0
  -24.6732  -31.0718   22.1003 N   0  0  0  0  0  0
  -23.4181  -28.8162   23.3033 O   0  0  0  0  0  0
  -28.4147  -26.6639   20.1100 O   0  0  0  0  0  0
  -26.5620  -34.8928   22.4703 O   0  0  0  0  0  0
  -23.5340  -32.1434   23.7429 O   0  0  0  0  0  0
  -29.6920  -18.1267   20.7877 C   0  0  0  0  0  0
  -30.5867  -18.3159   18.1454 C   0  0  0  0  0  0
  -29.8113  -19.4212   20.1919 C   0  0  0  0  0  0
  -30.0304  -16.9296   20.0888 C   0  0  0  0  0  0
  -30.2973  -19.4951   18.8594 C   0  0  0  0  0  0
  -30.4393  -17.0484   18.7364 C   0  0  0  0  0  0
  -28.8763  -23.1270   20.6769 C   0  0  0  0  0  0
  -30.0373  -25.3763   18.9053 C   0  0  0  0  0  0
  -29.4934  -20.6876   21.0337 C   0  0  0  0  0  0
  -27.9604  -24.1309   19.9175 C   0  0  0  0  0  0
  -28.5578  -25.4612   19.3141 C   0  0  1  0  0  0
  -30.5088  -20.7155   18.2163 N   0  0  0  0  0  0
  -29.8911  -15.6318   20.7107 N   0  0  0  0  0  0
  -28.7867  -21.8105   20.3678 N   0  0  0  0  0  0
  -29.6263  -23.5327   21.5673 O   0  0  0  0  0  0
  -30.6650  -15.9529   17.9701 F   0  0  0  0  0  0
  -31.4721  -12.4181   19.1496 H   0  0  0  0  0  0
  -30.3265  -11.3270   19.8788 H   0  0  0  0  0  0
  -29.7582  -11.7456   17.4599 H   0  0  0  0  0  0
  -29.6766  -13.4632   17.7573 H   0  0  0  0  0  0
  -27.8431  -11.2990   18.8439 H   0  0  0  0  0  0
  -27.3794  -12.5991   17.7814 H   0  0  0  0  0  0
  -27.6834  -14.2543   19.5297 H   0  0  0  0  0  0
  -28.6774  -12.0327   21.3872 H   0  0  0  0  0  0
  -28.4678  -13.7021   21.8354 H   0  0  0  0  0  0
  -25.2770   -9.5672   22.4766 H   0  0  0  0  0  0
  -23.9993   -7.4630   22.7480 H   0  0  0  0  0  0
  -21.0831   -8.8807   19.8960 H   0  0  0  0  0  0
  -22.3723  -10.9683   19.6165 H   0  0  0  0  0  0
  -21.2035   -7.6157   23.9728 H   0  0  0  0  0  0
  -21.1464   -6.0512   25.9076 H   0  0  0  0  0  0
  -22.0606   -2.7619   23.2820 H   0  0  0  0  0  0
  -22.4063  -11.9956   22.4845 H   0  0  0  0  0  0
  -21.1096  -13.1329   22.2538 H   0  0  0  0  0  0
  -24.6642  -15.8457   20.5183 H   0  0  0  0  0  0
  -26.2757  -15.6244   20.0641 H   0  0  0  0  0  0
  -26.7096  -32.5512   23.1132 H   0  0  0  0  0  0
  -24.9960  -33.9780   25.0404 H   0  0  0  0  0  0
  -22.6966  -31.3038   21.4089 H   0  0  0  0  0  0
  -23.3735  -35.9668   23.3325 H   0  0  0  0  0  0
  -24.3559  -36.8934   22.2055 H   0  0  0  0  0  0
  -23.7235  -37.6529   23.6661 H   0  0  0  0  0  0
  -26.0695  -31.5827   20.6072 H   0  0  0  0  0  0
  -26.8229  -30.8595   22.0005 H   0  0  0  0  0  0
  -28.1043  -29.0619   21.1639 H   0  0  0  0  0  0
  -25.9985  -25.9549   19.0169 H   0  0  0  0  0  0
  -23.9723  -27.2962   19.0310 H   0  0  0  0  0  0
  -23.7337  -30.6008   19.4073 H   0  0  0  0  0  0
  -22.7406  -29.2480   19.8635 H   0  0  0  0  0  0
  -25.1279  -36.1987   25.0826 H   0  0  0  0  0  0
  -20.9946  -28.3242   24.1440 H   0  0  0  0  0  0
  -20.5670  -26.2272   23.3619 H   0  0  0  0  0  0
  -21.6627  -26.7453   22.1216 H   0  0  0  0  0  0
  -19.6902  -25.6301   21.1246 H   0  0  0  0  0  0
  -19.6672  -27.3207   20.6762 H   0  0  0  0  0  0
  -17.4180  -26.6676   21.4028 H   0  0  0  0  0  0
  -18.0306  -26.0080   22.9021 H   0  0  0  0  0  0
  -19.7922  -30.7272   24.2271 H   0  0  0  0  0  0
  -17.5006  -31.6271   24.5183 H   0  0  0  0  0  0
  -15.5346  -30.3012   23.7651 H   0  0  0  0  0  0
  -15.8650  -28.0865   22.7038 H   0  0  0  0  0  0
  -24.5852  -30.7138   25.7810 H   0  0  0  0  0  0
  -24.8963  -32.2892   26.4993 H   0  0  0  0  0  0
  -25.8056  -30.8832   27.0213 H   0  0  0  0  0  0
  -26.2872  -29.6793   24.1192 H   0  0  0  0  0  0
  -27.4000  -29.7293   25.4668 H   0  0  0  0  0  0
  -27.8745  -30.4328   23.9389 H   0  0  0  0  0  0
  -27.2626  -33.3633   26.2108 H   0  0  0  0  0  0
  -28.3792  -32.6978   25.0288 H   0  0  0  0  0  0
  -28.0759  -31.8481   26.5356 H   0  0  0  0  0  0
  -28.2606  -38.0107   24.7502 H   0  0  0  0  0  0
  -28.1063  -36.2635   24.6291 H   0  0  0  0  0  0
  -27.2300  -37.1486   25.8864 H   0  0  0  0  0  0
  -20.9307  -29.8766   21.6954 H   0  0  0  0  0  0
  -26.0182  -38.2884   24.1400 H   0  0  0  0  0  0
  -29.3521  -18.0583   21.8106 H   0  0  0  0  0  0
  -30.9250  -18.3697   17.1210 H   0  0  0  0  0  0
  -30.3268  -26.2438   18.3097 H   0  0  0  0  0  0
  -30.2378  -24.4899   18.3021 H   0  0  0  0  0  0
  -30.6934  -25.3526   19.7747 H   0  0  0  0  0  0
  -30.4463  -21.0444   21.4272 H   0  0  0  0  0  0
  -28.9008  -20.3935   21.9007 H   0  0  0  0  0  0
  -27.1327  -24.3803   20.5811 H   0  0  0  0  0  0
  -27.5016  -23.5836   19.0933 H   0  0  0  0  0  0
  -28.0472  -25.6325   18.3658 H   0  0  0  0  0  0
  -31.0795  -20.7532   17.3781 H   0  0  0  0  0  0
  -30.5583  -21.5588   18.7782 H   0  0  0  0  0  0
  -29.0066  -15.4518   21.1578 H   0  0  0  0  0  0
  -28.1581  -21.5478   19.6199 H   0  0  0  0  0  0
  1 25  1  0  0  0
  1 30  2  0  0  0
  1 83  1  0  0  0
  2  3  1  0  0  0
  2 25  1  0  0  0
  2 87  1  0  0  0
  2 88  1  0  0  0
  3  4  1  0  0  0
  3 89  1  0  0  0
  3 90  1  0  0  0
  4  5  1  0  0  0
  4 91  1  0  0  0
  4 92  1  0  0  0
  5  6  1  0  0  0
  5 26  1  0  0  0
  5 93  1  0  0  0
  6 25  1  0  0  0
  6 94  1  0  0  0
  6 95  1  0  0  0
  7  8  2  0  0  0
  7 26  1  0  0  0
  7 29  1  0  0  0
  8  9  1  0  0  0
  8 22  1  0  0  0
  9 10  1  0  0  0
  9 27  2  0  0  0
 10 11  2  0  0  0
 10 15  1  0  0  0
 11 12  1  0  0  0
 11 96  1  0  0  0
 12 13  2  0  0  0
 12 97  1  0  0  0
 13 14  1  0  0  0
 13 31  1  0  0  0
 14 15  2  0  0  0
 14 98  1  0  0  0
 15 99  1  0  0  0
 16 17  2  0  0  0
 16 21  1  0  0  0
 16 31  1  0  0  0
 17 18  1  0  0  0
 17100  1  0  0  0
 18 19  2  0  0  0
 18101  1  0  0  0
 19 20  1  0  0  0
 19 24  1  0  0  0
 20 21  2  0  0  0
 20102  1  0  0  0
 21 23  1  0  0  0
 22 28  1  0  0  0
 22 32  2  0  0  0
 26 27  1  0  0  0
 28103  1  0  0  0
 28104  1  0  0  0
 29105  1  0  0  0
 29106  1  0  0  0
 33 34  1  0  0  0
 33 66  1  0  0  0
 33 70  2  0  0  0
 34 36  1  0  0  0
 34 59  1  0  0  0
 34107  1  0  0  0
 35 44  2  0  0  0
 35 45  1  0  0  0
 35 68  1  0  0  0
 36 56  1  0  0  0
 36108  1  0  0  0
 37 39  1  0  0  0
 37 47  1  0  0  0
 37 66  1  0  0  0
 37109  1  0  0  0
 38 43  2  0  0  0
 38 46  1  0  0  0
 38 47  1  0  0  0
 39 64  1  0  0  0
 39 67  2  0  0  0
 40 52  1  0  0  0
 40 53  2  0  0  0
 40 58  1  0  0  0
 41110  1  0  0  0
 41111  1  0  0  0
 41112  1  0  0  0
 41 48  1  0  0  0
 42 43  1  0  0  0
 42 66  1  0  0  0
 42113  1  0  0  0
 42114  1  0  0  0
 43 44  1  0  0  0
 44115  1  0  0  0
 45 46  2  0  0  0
 45116  1  0  0  0
 46117  1  0  0  0
 47118  1  0  0  0
 47119  1  0  0  0
 48 56  1  0  0  0
 48 65  1  0  0  0
 48120  1  0  0  0
 49 50  1  0  0  0
 49 53  1  0  0  0
 49 64  1  0  0  0
 49121  1  0  0  0
 50 51  1  0  0  0
 50122  1  0  0  0
 50123  1  0  0  0
 51 52  1  0  0  0
 51124  1  0  0  0
 51125  1  0  0  0
 52126  1  0  0  0
 52127  1  0  0  0
 53 54  1  0  0  0
 54 55  2  0  0  0
 54128  1  0  0  0
 55 57  1  0  0  0
 55129  1  0  0  0
 56 69  2  0  0  0
 57 58  2  0  0  0
 57130  1  0  0  0
 58131  1  0  0  0
 59 60  1  0  0  0
 59 61  1  0  0  0
 59 62  1  0  0  0
 60132  1  0  0  0
 60133  1  0  0  0
 60134  1  0  0  0
 61135  1  0  0  0
 61136  1  0  0  0
 61137  1  0  0  0
 62138  1  0  0  0
 62139  1  0  0  0
 62140  1  0  0  0
 63 65  1  0  0  0
 63141  1  0  0  0
 63142  1  0  0  0
 63143  1  0  0  0
 64144  1  0  0  0
 65145  1  0  0  0
 68 81  1  0  0  0
 71 73  2  0  0  0
 71 74  1  0  0  0
 71146  1  0  0  0
 72 75  2  0  0  0
 72 76  1  0  0  0
 72147  1  0  0  0
 73 75  1  0  0  0
 73 79  1  0  0  0
 74 76  2  0  0  0
 74 83  1  0  0  0
 75 82  1  0  0  0
 76 86  1  0  0  0
 77 80  1  0  0  0
 77 84  1  0  0  0
 77 85  2  0  0  0
 78148  1  0  0  0
 78149  1  0  0  0
 78150  1  0  0  0
 78 81  1  0  0  0
 79 84  1  0  0  0
 79151  1  0  0  0
 79152  1  0  0  0
 80 81  1  0  0  0
 80153  1  0  0  0
 80154  1  0  0  0
 81155  1  0  0  0
 82156  1  0  0  0
 82157  1  0  0  0
 83158  1  0  0  0
 84159  1  0  0  0
M  ISO  4   1 100  68 101  81 101  83 100
M  END
> <chiral flag>
0

> <version>
0

> <s_m_source_file>
/data/baiqing/PycharmProjects/Reinvent-master-3.2/result/LINK_invent/BTK/process_docking_weight1_custom_product_contain_oxygen_bond_distance_aromatic_linkinvent_7_9_3/rearranged_h_0168.sdf

> <i_m_source_file_index>
39

> <r_mmod_Potential_Energy-OPLS-2005>
-103.169815063477

> <r_mmod_Stretch_Energy-OPLS-2005>
51.9427299499512

> <r_mmod_Bend_Energy-OPLS-2005>
122.351127624512

> <r_mmod_Torsional_Energy-OPLS-2005>
221.749526977539

> <r_mmod_Improper_Torsional_Energy-OPLS-2005>
8.0400276184082

> <r_mmod_Van_der_Waal_Energy-OPLS-2005>
154.595230102539

> <r_mmod_Electrostatic_Energy-OPLS-2005>
-438.897338867188

> <r_mmod_Solvation_Energy-OPLS-2005>
-247.334976196289

> <b_mmod_Minimization_Converged-OPLS-2005>
0

> <r_mmod_RMS_Derivative-OPLS-2005>
2.12325739860535

$$$$
39
                    3D
 Structure written by MMmdl.
158166  0  0  1  0            999 V2000
  -30.6766  -14.4801   20.5391 C   0  0  0  0  0  0
  -30.4479  -12.3075   19.3982 C   0  0  0  0  0  0
  -29.5019  -12.4898   18.1922 C   0  0  0  0  0  0
  -28.0208  -12.3547   18.5986 C   0  0  0  0  0  0
  -27.6653  -13.1972   19.8542 C   0  0  2  0  0  0
  -28.7128  -12.9821   20.9738 C   0  0  0  0  0  0
  -25.2641  -13.8108   20.5544 C   0  0  0  0  0  0
  -24.1913  -13.0422   20.9098 C   0  0  0  0  0  0
  -24.6424  -11.6889   20.8634 C   0  0  0  0  0  0
  -23.9081  -10.4302   21.0337 C   0  0  0  0  0  0
  -24.3646   -9.4233   21.9145 C   0  0  0  0  0  0
  -23.6302   -8.2278   22.0742 C   0  0  0  0  0  0
  -22.4291   -8.0320   21.3541 C   0  0  0  0  0  0
  -21.9920   -9.0266   20.4652 C   0  0  0  0  0  0
  -22.7230  -10.2133   20.3031 C   0  0  0  0  0  0
  -21.6857   -6.0760   22.5267 C   0  0  0  0  0  0
  -21.4018   -6.5663   23.8202 C   0  0  0  0  0  0
  -21.3666   -5.6804   24.9166 C   0  0  0  0  0  0
  -21.6030   -4.3059   24.7198 C   0  0  0  0  0  0
  -21.8829   -3.8160   23.4324 C   0  0  0  0  0  0
  -21.9199   -4.6985   22.3385 C   0  0  0  0  0  0
  -22.7949  -13.5237   21.1740 C   0  0  0  0  0  0
  -22.1661   -4.2197   21.0943 F   0  0  0  0  0  0
  -21.5632   -3.4541   25.7687 F   0  0  0  0  0  0
  -30.0431  -13.2873   20.4126 N   0  0  0  0  0  0
  -26.3065  -12.9293   20.3213 N   0  0  0  0  0  0
  -25.9362  -11.6472   20.5664 N   0  0  0  0  0  0
  -22.0585  -12.8285   22.0342 N   0  0  0  0  0  0
  -25.4317  -15.1834   20.3951 N   0  0  0  0  0  0
  -31.8460  -14.6768   20.2000 O   0  0  0  0  0  0
  -21.6643   -6.8937   21.4253 O   0  0  0  0  0  0
  -22.3666  -14.5574   20.6604 O   0  0  0  0  0  0
  -24.6154  -31.8701   23.2149 C   0  0  0  0  0  0
  -25.9102  -32.4807   23.8368 C   0  0  1  0  0  0
  -27.2189  -27.4202   20.0641 C   0  0  0  0  0  0
  -25.5988  -33.8586   24.2294 N   0  0  0  0  0  0
  -23.3924  -30.4998   21.5687 C   0  0  2  0  0  0
  -24.8362  -28.9792   20.1110 C   0  0  0  0  0  0
  -22.7393  -29.4694   22.5174 C   0  0  0  0  0  0
  -18.0298  -28.1320   22.8529 C   0  0  0  0  0  0
  -24.1551  -36.7244   23.2632 C   0  0  0  0  0  0
  -25.9309  -30.8223   21.3813 C   0  0  0  0  0  0
  -26.0042  -29.4635   20.7108 C   0  0  0  0  0  0
  -27.1962  -28.6920   20.6921 C   0  0  0  0  0  0
  -26.0208  -26.9798   19.4405 C   0  0  0  0  0  0
  -24.8418  -27.7359   19.4712 C   0  0  0  0  0  0
  -23.5943  -29.8370   20.1861 C   0  0  0  0  0  0
  -25.4172  -36.3065   24.0328 C   0  0  1  0  0  0
  -20.5851  -28.3574   23.1430 C   0  0  2  0  0  0
  -20.6823  -26.9343   22.5432 C   0  0  0  0  0  0
  -19.5810  -26.6401   21.5225 C   0  0  0  0  0  0
  -18.1976  -26.7895   22.1639 C   0  0  0  0  0  0
  -19.1537  -28.8789   23.2930 C   0  0  0  0  0  0
  -18.9470  -30.1469   23.8803 C   0  0  0  0  0  0
  -17.6460  -30.6547   24.0585 C   0  0  0  0  0  0
  -25.9082  -34.9448   23.5107 C   0  0  0  0  0  0
  -16.5329  -29.9024   23.6419 C   0  0  0  0  0  0
  -16.7279  -28.6480   23.0326 C   0  0  0  0  0  0
  -26.4491  -31.6587   25.0673 C   0  0  0  0  0  0
  -25.3665  -31.3781   26.1355 C   0  0  0  0  0  0
  -27.0384  -30.3023   24.6124 C   0  0  0  0  0  0
  -27.6056  -32.4319   25.7405 C   0  0  0  0  0  0
  -27.5610  -37.1787   24.8457 C   0  0  0  0  0  0
  -21.4095  -29.3023   22.3907 N   0  0  0  0  0  0
  -26.4353  -37.3735   23.9372 N   0  0  0  0  0  0
  -24.6647  -31.0755   22.1123 N   0  0  0  0  0  0
  -23.4199  -28.8236   23.3155 O   0  0  0  0  0  0
  -28.3659  -26.6291   20.0733 O   0  0  0  0  0  0
  -26.5577  -34.8908   22.4623 O   0  0  0  0  0  0
  -23.5383  -32.1537   23.7576 O   0  0  0  0  0  0
  -29.6654  -17.9067   20.4406 C   0  0  0  0  0  0
  -30.5263  -17.0354   22.5470 C   0  0  0  0  0  0
  -29.9866  -19.4201   22.3239 C   0  0  0  0  0  0
  -30.0770  -16.8106   21.2349 C   0  0  0  0  0  0
  -29.6456  -19.2294   20.9493 C   0  0  0  0  0  0
  -30.4644  -18.3300   23.0942 C   0  0  0  0  0  0
  -29.7524  -20.6946   23.0402 C   0  0  0  0  0  0
  -28.7854  -22.7353   19.8737 C   0  0  0  0  0  0
  -29.2392  -24.2326   19.9932 C   0  0  0  0  0  0
  -28.3116  -20.9382   23.4853 C   0  0  0  0  0  0
  -29.8134  -21.5858   19.9710 C   0  0  0  0  0  0
  -28.1465  -25.2602   19.6461 C   0  0  0  0  0  0
  -29.8244  -15.4891   20.7845 N   0  0  0  0  0  0
  -29.1924  -20.2458   20.0728 N   0  0  0  0  0  0
  -30.6252  -21.5401   23.2704 O   0  0  0  0  0  0
  -27.5910  -22.4571   19.7016 O   0  0  0  0  0  0
  -30.3819  -24.5541   20.3366 O   0  0  0  0  0  0
  -30.8037  -18.4954   24.3921 F   0  0  0  0  0  0
  -31.4839  -12.4460   19.0813 H   0  0  0  0  0  0
  -30.3913  -11.2970   19.8088 H   0  0  0  0  0  0
  -29.7372  -11.7633   17.4160 H   0  0  0  0  0  0
  -29.6696  -13.4776   17.7572 H   0  0  0  0  0  0
  -27.8128  -11.3004   18.7798 H   0  0  0  0  0  0
  -27.3806  -12.6434   17.7622 H   0  0  0  0  0  0
  -27.7114  -14.2392   19.5318 H   0  0  0  0  0  0
  -28.6913  -11.9504   21.3296 H   0  0  0  0  0  0
  -28.4848  -13.6041   21.8435 H   0  0  0  0  0  0
  -25.2814   -9.5721   22.4721 H   0  0  0  0  0  0
  -23.9997   -7.4705   22.7493 H   0  0  0  0  0  0
  -21.0843   -8.8761   19.9006 H   0  0  0  0  0  0
  -22.3652  -10.9660   19.6143 H   0  0  0  0  0  0
  -21.2014   -7.6176   23.9713 H   0  0  0  0  0  0
  -21.1462   -6.0527   25.9050 H   0  0  0  0  0  0
  -22.0598   -2.7638   23.2760 H   0  0  0  0  0  0
  -22.4150  -11.9943   22.4780 H   0  0  0  0  0  0
  -21.1215  -13.1374   22.2515 H   0  0  0  0  0  0
  -24.6519  -15.8229   20.5135 H   0  0  0  0  0  0
  -26.2620  -15.6296   20.0244 H   0  0  0  0  0  0
  -26.7135  -32.5430   23.1109 H   0  0  0  0  0  0
  -25.0296  -33.9748   25.0555 H   0  0  0  0  0  0
  -22.6765  -31.3146   21.4393 H   0  0  0  0  0  0
  -23.3834  -35.9557   23.3319 H   0  0  0  0  0  0
  -24.3652  -36.8805   22.2032 H   0  0  0  0  0  0
  -23.7281  -37.6444   23.6625 H   0  0  0  0  0  0
  -26.0491  -31.5995   20.6263 H   0  0  0  0  0  0
  -26.8179  -30.8544   22.0086 H   0  0  0  0  0  0
  -28.0862  -29.0741   21.1740 H   0  0  0  0  0  0
  -25.9509  -26.0482   18.9030 H   0  0  0  0  0  0
  -23.9490  -27.3614   18.9900 H   0  0  0  0  0  0
  -23.6718  -30.6110   19.4208 H   0  0  0  0  0  0
  -22.7195  -29.2440   19.9120 H   0  0  0  0  0  0
  -25.1363  -36.1916   25.0812 H   0  0  0  0  0  0
  -20.9917  -28.3005   24.1559 H   0  0  0  0  0  0
  -20.5832  -26.2074   23.3495 H   0  0  0  0  0  0
  -21.6665  -26.7514   22.1136 H   0  0  0  0  0  0
  -19.6882  -25.6349   21.1204 H   0  0  0  0  0  0
  -19.6772  -27.3247   20.6760 H   0  0  0  0  0  0
  -17.4274  -26.6786   21.4022 H   0  0  0  0  0  0
  -18.0280  -25.9955   22.8932 H   0  0  0  0  0  0
  -19.7920  -30.7393   24.1991 H   0  0  0  0  0  0
  -17.5006  -31.6196   24.5188 H   0  0  0  0  0  0
  -15.5352  -30.2876   23.7845 H   0  0  0  0  0  0
  -15.8674  -28.0888   22.6928 H   0  0  0  0  0  0
  -24.5777  -30.7243   25.7613 H   0  0  0  0  0  0
  -24.8924  -32.2998   26.4736 H   0  0  0  0  0  0
  -25.7836  -30.8876   27.0141 H   0  0  0  0  0  0
  -26.3027  -29.6712   24.1117 H   0  0  0  0  0  0
  -27.4095  -29.7297   25.4631 H   0  0  0  0  0  0
  -27.8846  -30.4367   23.9364 H   0  0  0  0  0  0
  -27.2686  -33.3630   26.2003 H   0  0  0  0  0  0
  -28.3810  -32.6867   25.0157 H   0  0  0  0  0  0
  -28.0799  -31.8396   26.5247 H   0  0  0  0  0  0
  -28.2627  -38.0082   24.7537 H   0  0  0  0  0  0
  -28.1132  -36.2610   24.6338 H   0  0  0  0  0  0
  -27.2300  -37.1467   25.8848 H   0  0  0  0  0  0
  -20.9168  -29.8795   21.7220 H   0  0  0  0  0  0
  -26.0257  -38.2831   24.1289 H   0  0  0  0  0  0
  -29.3233  -17.7148   19.4334 H   0  0  0  0  0  0
  -30.8319  -16.2187   23.1856 H   0  0  0  0  0  0
  -27.9856  -21.9439   23.2229 H   0  0  0  0  0  0
  -28.2141  -20.8056   24.5650 H   0  0  0  0  0  0
  -27.6441  -20.2212   23.0103 H   0  0  0  0  0  0
  -30.3966  -21.6068   19.0527 H   0  0  0  0  0  0
  -30.5338  -21.7876   20.7601 H   0  0  0  0  0  0
  -27.2357  -24.8895   20.1165 H   0  0  0  0  0  0
  -28.0002  -25.2418   18.5647 H   0  0  0  0  0  0
  -28.8561  -15.2080   20.7871 H   0  0  0  0  0  0
  -28.6631  -19.9741   19.2491 H   0  0  0  0  0  0
  1 25  1  0  0  0
  1 30  2  0  0  0
  1 83  1  0  0  0
  2  3  1  0  0  0
  2 25  1  0  0  0
  2 89  1  0  0  0
  2 90  1  0  0  0
  3  4  1  0  0  0
  3 91  1  0  0  0
  3 92  1  0  0  0
  4  5  1  0  0  0
  4 93  1  0  0  0
  4 94  1  0  0  0
  5  6  1  0  0  0
  5 26  1  0  0  0
  5 95  1  0  0  0
  6 25  1  0  0  0
  6 96  1  0  0  0
  6 97  1  0  0  0
  7  8  2  0  0  0
  7 26  1  0  0  0
  7 29  1  0  0  0
  8  9  1  0  0  0
  8 22  1  0  0  0
  9 10  1  0  0  0
  9 27  2  0  0  0
 10 11  2  0  0  0
 10 15  1  0  0  0
 11 12  1  0  0  0
 11 98  1  0  0  0
 12 13  2  0  0  0
 12 99  1  0  0  0
 13 14  1  0  0  0
 13 31  1  0  0  0
 14 15  2  0  0  0
 14100  1  0  0  0
 15101  1  0  0  0
 16 17  2  0  0  0
 16 21  1  0  0  0
 16 31  1  0  0  0
 17 18  1  0  0  0
 17102  1  0  0  0
 18 19  2  0  0  0
 18103  1  0  0  0
 19 20  1  0  0  0
 19 24  1  0  0  0
 20 21  2  0  0  0
 20104  1  0  0  0
 21 23  1  0  0  0
 22 28  1  0  0  0
 22 32  2  0  0  0
 26 27  1  0  0  0
 28105  1  0  0  0
 28106  1  0  0  0
 29107  1  0  0  0
 29108  1  0  0  0
 33 34  1  0  0  0
 33 66  1  0  0  0
 33 70  2  0  0  0
 34 36  1  0  0  0
 34 59  1  0  0  0
 34109  1  0  0  0
 35 44  2  0  0  0
 35 45  1  0  0  0
 35 68  1  0  0  0
 36 56  1  0  0  0
 36110  1  0  0  0
 37 39  1  0  0  0
 37 47  1  0  0  0
 37 66  1  0  0  0
 37111  1  0  0  0
 38 43  2  0  0  0
 38 46  1  0  0  0
 38 47  1  0  0  0
 39 64  1  0  0  0
 39 67  2  0  0  0
 40 52  1  0  0  0
 40 53  2  0  0  0
 40 58  1  0  0  0
 41112  1  0  0  0
 41113  1  0  0  0
 41114  1  0  0  0
 41 48  1  0  0  0
 42 43  1  0  0  0
 42 66  1  0  0  0
 42115  1  0  0  0
 42116  1  0  0  0
 43 44  1  0  0  0
 44117  1  0  0  0
 45 46  2  0  0  0
 45118  1  0  0  0
 46119  1  0  0  0
 47120  1  0  0  0
 47121  1  0  0  0
 48 56  1  0  0  0
 48 65  1  0  0  0
 48122  1  0  0  0
 49 50  1  0  0  0
 49 53  1  0  0  0
 49 64  1  0  0  0
 49123  1  0  0  0
 50 51  1  0  0  0
 50124  1  0  0  0
 50125  1  0  0  0
 51 52  1  0  0  0
 51126  1  0  0  0
 51127  1  0  0  0
 52128  1  0  0  0
 52129  1  0  0  0
 53 54  1  0  0  0
 54 55  2  0  0  0
 54130  1  0  0  0
 55 57  1  0  0  0
 55131  1  0  0  0
 56 69  2  0  0  0
 57 58  2  0  0  0
 57132  1  0  0  0
 58133  1  0  0  0
 59 60  1  0  0  0
 59 61  1  0  0  0
 59 62  1  0  0  0
 60134  1  0  0  0
 60135  1  0  0  0
 60136  1  0  0  0
 61137  1  0  0  0
 61138  1  0  0  0
 61139  1  0  0  0
 62140  1  0  0  0
 62141  1  0  0  0
 62142  1  0  0  0
 63 65  1  0  0  0
 63143  1  0  0  0
 63144  1  0  0  0
 63145  1  0  0  0
 64146  1  0  0  0
 65147  1  0  0  0
 68 82  1  0  0  0
 71 74  2  0  0  0
 71 75  1  0  0  0
 71148  1  0  0  0
 72 74  1  0  0  0
 72 76  2  0  0  0
 72149  1  0  0  0
 73 75  2  0  0  0
 73 76  1  0  0  0
 73 77  1  0  0  0
 74 83  1  0  0  0
 75 84  1  0  0  0
 76 88  1  0  0  0
 77 80  1  0  0  0
 77 85  2  0  0  0
 78 79  1  0  0  0
 78 81  1  0  0  0
 78 86  2  0  0  0
 79 82  1  0  0  0
 79 87  2  0  0  0
 80150  1  0  0  0
 80151  1  0  0  0
 80152  1  0  0  0
 81 84  1  0  0  0
 81153  1  0  0  0
 81154  1  0  0  0
 82155  1  0  0  0
 82156  1  0  0  0
 83157  1  0  0  0
 84158  1  0  0  0
M  ISO  4   1 100  68 101  82 101  83 100
M  END
> <chiral flag>
0

> <version>
0

> <s_m_source_file>
/data/baiqing/PycharmProjects/Reinvent-master-3.2/result/LINK_invent/BTK/process_docking_weight1_custom_product_contain_oxygen_bond_distance_aromatic_linkinvent_7_9_3/rearranged_h_0168.sdf

> <i_m_source_file_index>
40

> <r_mmod_Potential_Energy-OPLS-2005>
251.498138427734

> <r_mmod_Stretch_Energy-OPLS-2005>
43.314811706543

> <r_mmod_Bend_Energy-OPLS-2005>
119.179039001465

> <r_mmod_Torsional_Energy-OPLS-2005>
296.1474609375

> <r_mmod_Improper_Torsional_Energy-OPLS-2005>
10.7044095993042

> <r_mmod_Van_der_Waal_Energy-OPLS-2005>
162.911422729492

> <r_mmod_Electrostatic_Energy-OPLS-2005>
-146.151794433594

> <r_mmod_Solvation_Energy-OPLS-2005>
-254.670745849609

> <b_mmod_Minimization_Converged-OPLS-2005>
0

> <r_mmod_RMS_Derivative-OPLS-2005>
7.77273416519165

$$$$
40
                    3D
 Structure written by MMmdl.
155163  0  0  1  0            999 V2000
  -30.6887  -14.4928   20.4929 C   0  0  0  0  0  0
  -30.4222  -12.2970   19.4399 C   0  0  0  0  0  0
  -29.5001  -12.4788   18.2152 C   0  0  0  0  0  0
  -28.0196  -12.3507   18.6232 C   0  0  0  0  0  0
  -27.6586  -13.2082   19.8662 C   0  0  2  0  0  0
  -28.7008  -13.0283   20.9950 C   0  0  0  0  0  0
  -25.2588  -13.8162   20.5674 C   0  0  0  0  0  0
  -24.1841  -13.0443   20.9180 C   0  0  0  0  0  0
  -24.6387  -11.6908   20.8731 C   0  0  0  0  0  0
  -23.9051  -10.4297   21.0392 C   0  0  0  0  0  0
  -24.3608   -9.4215   21.9171 C   0  0  0  0  0  0
  -23.6293   -8.2246   22.0749 C   0  0  0  0  0  0
  -22.4277   -8.0277   21.3539 C   0  0  0  0  0  0
  -21.9903   -9.0245   20.4642 C   0  0  0  0  0  0
  -22.7222  -10.2131   20.3046 C   0  0  0  0  0  0
  -21.6857   -6.0727   22.5276 C   0  0  0  0  0  0
  -21.4015   -6.5632   23.8207 C   0  0  0  0  0  0
  -21.3661   -5.6787   24.9168 C   0  0  0  0  0  0
  -21.6047   -4.3050   24.7220 C   0  0  0  0  0  0
  -21.8819   -3.8140   23.4342 C   0  0  0  0  0  0
  -21.9195   -4.6955   22.3398 C   0  0  0  0  0  0
  -22.7864  -13.5240   21.1842 C   0  0  0  0  0  0
  -22.1665   -4.2142   21.0975 F   0  0  0  0  0  0
  -21.5629   -3.4536   25.7733 F   0  0  0  0  0  0
  -30.0325  -13.3053   20.4361 N   0  0  0  0  0  0
  -26.3011  -12.9329   20.3324 N   0  0  0  0  0  0
  -25.9317  -11.6490   20.5760 N   0  0  0  0  0  0
  -22.0503  -12.8237   22.0400 N   0  0  0  0  0  0
  -25.4324  -15.1877   20.4093 N   0  0  0  0  0  0
  -31.8670  -14.6311   20.1587 O   0  0  0  0  0  0
  -21.6646   -6.8872   21.4238 O   0  0  0  0  0  0
  -22.3556  -14.5546   20.6688 O   0  0  0  0  0  0
  -24.6131  -31.8679   23.2086 C   0  0  0  0  0  0
  -25.9023  -32.4819   23.8383 C   0  0  1  0  0  0
  -27.2361  -27.4376   20.1142 C   0  0  0  0  0  0
  -25.5867  -33.8617   24.2316 N   0  0  0  0  0  0
  -23.4018  -30.4895   21.5485 C   0  0  2  0  0  0
  -24.8518  -28.9548   20.1166 C   0  0  0  0  0  0
  -22.7406  -29.4649   22.4985 C   0  0  0  0  0  0
  -18.0265  -28.1379   22.8488 C   0  0  0  0  0  0
  -24.1481  -36.7327   23.2640 C   0  0  0  0  0  0
  -25.9293  -30.8383   21.3587 C   0  0  0  0  0  0
  -26.0108  -29.4713   20.7106 C   0  0  0  0  0  0
  -27.2097  -28.7216   20.7028 C   0  0  0  0  0  0
  -26.0646  -26.9354   19.5089 C   0  0  0  0  0  0
  -24.8735  -27.6860   19.5109 C   0  0  0  0  0  0
  -23.6119  -29.8190   20.1642 C   0  0  0  0  0  0
  -25.4101  -36.3114   24.0334 C   0  0  1  0  0  0
  -20.5855  -28.3658   23.1324 C   0  0  2  0  0  0
  -20.6758  -26.9393   22.5427 C   0  0  0  0  0  0
  -19.5740  -26.6382   21.5218 C   0  0  0  0  0  0
  -18.1916  -26.7924   22.1624 C   0  0  0  0  0  0
  -19.1516  -28.8836   23.2902 C   0  0  0  0  0  0
  -18.9448  -30.1441   23.8911 C   0  0  0  0  0  0
  -17.6455  -30.6588   24.0564 C   0  0  0  0  0  0
  -25.9024  -34.9474   23.5130 C   0  0  0  0  0  0
  -16.5342  -29.9094   23.6321 C   0  0  0  0  0  0
  -16.7256  -28.6509   23.0342 C   0  0  0  0  0  0
  -26.4459  -31.6592   25.0704 C   0  0  0  0  0  0
  -25.3729  -31.3712   26.1462 C   0  0  0  0  0  0
  -27.0281  -30.3031   24.6066 C   0  0  0  0  0  0
  -27.6032  -32.4309   25.7469 C   0  0  0  0  0  0
  -27.5579  -37.1815   24.8461 C   0  0  0  0  0  0
  -21.4134  -29.3024   22.3733 N   0  0  0  0  0  0
  -26.4294  -37.3795   23.9402 N   0  0  0  0  0  0
  -24.6662  -31.0789   22.0977 N   0  0  0  0  0  0
  -23.4183  -28.8197   23.3028 O   0  0  0  0  0  0
  -28.3878  -26.6805   20.1168 O   0  0  0  0  0  0
  -26.5606  -34.8930   22.4703 O   0  0  0  0  0  0
  -23.5322  -32.1422   23.7487 O   0  0  0  0  0  0
  -29.6475  -18.0479   20.5674 C   0  0  0  0  0  0
  -30.2116  -19.1415   18.4880 C   0  0  0  0  0  0
  -29.7462  -19.2488   19.8175 C   0  0  0  0  0  0
  -30.0285  -16.8146   19.9793 C   0  0  0  0  0  0
  -30.4568  -16.8485   18.6262 C   0  0  0  0  0  0
  -28.8735  -22.8874   20.6811 C   0  0  0  0  0  0
  -29.6818  -21.7517   19.9788 C   0  0  0  0  0  0
  -28.8679  -25.7609   22.2769 C   0  0  0  0  0  0
  -29.0886  -24.3235   20.1439 C   0  0  0  0  0  0
  -28.3142  -25.4549   20.8732 C   0  0  2  0  0  0
  -30.5521  -17.9794   17.9067 N   0  0  0  0  0  0
  -29.3281  -20.5065   20.3748 N   0  0  0  0  0  0
  -29.9138  -15.5766   20.7062 N   0  0  0  0  0  0
  -28.0830  -22.6450   21.6026 O   0  0  0  0  0  0
  -30.5744  -21.9960   19.1610 O   0  0  0  0  0  0
  -30.7256  -15.7096   17.9475 F   0  0  0  0  0  0
  -31.4686  -12.3855   19.1424 H   0  0  0  0  0  0
  -30.3139  -11.2946   19.8572 H   0  0  0  0  0  0
  -29.7439  -11.7386   17.4515 H   0  0  0  0  0  0
  -29.6720  -13.4536   17.7587 H   0  0  0  0  0  0
  -27.8278  -11.2982   18.8330 H   0  0  0  0  0  0
  -27.3744  -12.6147   17.7848 H   0  0  0  0  0  0
  -27.6905  -14.2482   19.5431 H   0  0  0  0  0  0
  -28.6706  -12.0107   21.3860 H   0  0  0  0  0  0
  -28.4754  -13.6806   21.8402 H   0  0  0  0  0  0
  -25.2751   -9.5701   22.4745 H   0  0  0  0  0  0
  -24.0006   -7.4638   22.7470 H   0  0  0  0  0  0
  -21.0832   -8.8753   19.8953 H   0  0  0  0  0  0
  -22.3668  -10.9662   19.6156 H   0  0  0  0  0  0
  -21.2010   -7.6143   23.9708 H   0  0  0  0  0  0
  -21.1487   -6.0517   25.9069 H   0  0  0  0  0  0
  -22.0602   -2.7606   23.2843 H   0  0  0  0  0  0
  -22.4117  -11.9903   22.4802 H   0  0  0  0  0  0
  -21.1116  -13.1262   22.2582 H   0  0  0  0  0  0
  -24.6674  -15.8447   20.5204 H   0  0  0  0  0  0
  -26.2824  -15.6247   20.0765 H   0  0  0  0  0  0
  -26.7097  -32.5552   23.1154 H   0  0  0  0  0  0
  -24.9980  -33.9770   25.0437 H   0  0  0  0  0  0
  -22.6893  -31.3053   21.4081 H   0  0  0  0  0  0
  -23.3731  -35.9673   23.3316 H   0  0  0  0  0  0
  -24.3581  -36.8932   22.2054 H   0  0  0  0  0  0
  -23.7245  -37.6538   23.6651 H   0  0  0  0  0  0
  -26.0344  -31.6017   20.5861 H   0  0  0  0  0  0
  -26.8191  -30.8985   21.9735 H   0  0  0  0  0  0
  -28.1058  -29.1158   21.1630 H   0  0  0  0  0  0
  -26.0733  -25.9604   19.0422 H   0  0  0  0  0  0
  -23.9832  -27.2824   19.0483 H   0  0  0  0  0  0
  -23.7190  -30.5915   19.4021 H   0  0  0  0  0  0
  -22.7374  -29.2355   19.8701 H   0  0  0  0  0  0
  -25.1284  -36.1984   25.0829 H   0  0  0  0  0  0
  -20.9942  -28.3229   24.1444 H   0  0  0  0  0  0
  -20.5662  -26.2263   23.3611 H   0  0  0  0  0  0
  -21.6632  -26.7443   22.1221 H   0  0  0  0  0  0
  -19.6898  -25.6297   21.1237 H   0  0  0  0  0  0
  -19.6688  -27.3204   20.6758 H   0  0  0  0  0  0
  -17.4189  -26.6663   21.4024 H   0  0  0  0  0  0
  -18.0316  -26.0072   22.9024 H   0  0  0  0  0  0
  -19.7931  -30.7244   24.2294 H   0  0  0  0  0  0
  -17.5016  -31.6270   24.5164 H   0  0  0  0  0  0
  -15.5345  -30.3006   23.7639 H   0  0  0  0  0  0
  -15.8653  -28.0841   22.7046 H   0  0  0  0  0  0
  -24.5868  -30.7097   25.7803 H   0  0  0  0  0  0
  -24.8966  -32.2885   26.4935 H   0  0  0  0  0  0
  -25.8075  -30.8854   27.0207 H   0  0  0  0  0  0
  -26.2825  -29.6807   24.1105 H   0  0  0  0  0  0
  -27.4046  -29.7247   25.4514 H   0  0  0  0  0  0
  -27.8656  -30.4352   23.9212 H   0  0  0  0  0  0
  -27.2632  -33.3580   26.2099 H   0  0  0  0  0  0
  -28.3811  -32.6921   25.0283 H   0  0  0  0  0  0
  -28.0730  -31.8409   26.5347 H   0  0  0  0  0  0
  -28.2603  -38.0105   24.7501 H   0  0  0  0  0  0
  -28.1067  -36.2637   24.6295 H   0  0  0  0  0  0
  -27.2302  -37.1479   25.8866 H   0  0  0  0  0  0
  -20.9290  -29.8749   21.6966 H   0  0  0  0  0  0
  -26.0185  -38.2873   24.1410 H   0  0  0  0  0  0
  -29.2827  -18.0723   21.5841 H   0  0  0  0  0  0
  -30.2766  -19.9938   17.8296 H   0  0  0  0  0  0
  -28.2884  -26.5444   22.7659 H   0  0  0  0  0  0
  -29.9031  -26.0988   22.2282 H   0  0  0  0  0  0
  -28.8352  -24.8853   22.9260 H   0  0  0  0  0  0
  -28.7935  -24.3135   19.0955 H   0  0  0  0  0  0
  -30.1568  -24.5391   20.1552 H   0  0  0  0  0  0
  -27.2774  -25.1321   20.9861 H   0  0  0  0  0  0
  -28.6709  -20.4917   21.1461 H   0  0  0  0  0  0
  -29.0386  -15.4114   21.1804 H   0  0  0  0  0  0
  1 25  1  0  0  0
  1 30  2  0  0  0
  1 83  1  0  0  0
  2  3  1  0  0  0
  2 25  1  0  0  0
  2 87  1  0  0  0
  2 88  1  0  0  0
  3  4  1  0  0  0
  3 89  1  0  0  0
  3 90  1  0  0  0
  4  5  1  0  0  0
  4 91  1  0  0  0
  4 92  1  0  0  0
  5  6  1  0  0  0
  5 26  1  0  0  0
  5 93  1  0  0  0
  6 25  1  0  0  0
  6 94  1  0  0  0
  6 95  1  0  0  0
  7  8  2  0  0  0
  7 26  1  0  0  0
  7 29  1  0  0  0
  8  9  1  0  0  0
  8 22  1  0  0  0
  9 10  1  0  0  0
  9 27  2  0  0  0
 10 11  2  0  0  0
 10 15  1  0  0  0
 11 12  1  0  0  0
 11 96  1  0  0  0
 12 13  2  0  0  0
 12 97  1  0  0  0
 13 14  1  0  0  0
 13 31  1  0  0  0
 14 15  2  0  0  0
 14 98  1  0  0  0
 15 99  1  0  0  0
 16 17  2  0  0  0
 16 21  1  0  0  0
 16 31  1  0  0  0
 17 18  1  0  0  0
 17100  1  0  0  0
 18 19  2  0  0  0
 18101  1  0  0  0
 19 20  1  0  0  0
 19 24  1  0  0  0
 20 21  2  0  0  0
 20102  1  0  0  0
 21 23  1  0  0  0
 22 28  1  0  0  0
 22 32  2  0  0  0
 26 27  1  0  0  0
 28103  1  0  0  0
 28104  1  0  0  0
 29105  1  0  0  0
 29106  1  0  0  0
 33 34  1  0  0  0
 33 66  1  0  0  0
 33 70  2  0  0  0
 34 36  1  0  0  0
 34 59  1  0  0  0
 34107  1  0  0  0
 35 44  2  0  0  0
 35 45  1  0  0  0
 35 68  1  0  0  0
 36 56  1  0  0  0
 36108  1  0  0  0
 37 39  1  0  0  0
 37 47  1  0  0  0
 37 66  1  0  0  0
 37109  1  0  0  0
 38 43  2  0  0  0
 38 46  1  0  0  0
 38 47  1  0  0  0
 39 64  1  0  0  0
 39 67  2  0  0  0
 40 52  1  0  0  0
 40 53  2  0  0  0
 40 58  1  0  0  0
 41110  1  0  0  0
 41111  1  0  0  0
 41112  1  0  0  0
 41 48  1  0  0  0
 42 43  1  0  0  0
 42 66  1  0  0  0
 42113  1  0  0  0
 42114  1  0  0  0
 43 44  1  0  0  0
 44115  1  0  0  0
 45 46  2  0  0  0
 45116  1  0  0  0
 46117  1  0  0  0
 47118  1  0  0  0
 47119  1  0  0  0
 48 56  1  0  0  0
 48 65  1  0  0  0
 48120  1  0  0  0
 49 50  1  0  0  0
 49 53  1  0  0  0
 49 64  1  0  0  0
 49121  1  0  0  0
 50 51  1  0  0  0
 50122  1  0  0  0
 50123  1  0  0  0
 51 52  1  0  0  0
 51124  1  0  0  0
 51125  1  0  0  0
 52126  1  0  0  0
 52127  1  0  0  0
 53 54  1  0  0  0
 54 55  2  0  0  0
 54128  1  0  0  0
 55 57  1  0  0  0
 55129  1  0  0  0
 56 69  2  0  0  0
 57 58  2  0  0  0
 57130  1  0  0  0
 58131  1  0  0  0
 59 60  1  0  0  0
 59 61  1  0  0  0
 59 62  1  0  0  0
 60132  1  0  0  0
 60133  1  0  0  0
 60134  1  0  0  0
 61135  1  0  0  0
 61136  1  0  0  0
 61137  1  0  0  0
 62138  1  0  0  0
 62139  1  0  0  0
 62140  1  0  0  0
 63 65  1  0  0  0
 63141  1  0  0  0
 63142  1  0  0  0
 63143  1  0  0  0
 64144  1  0  0  0
 65145  1  0  0  0
 68 80  1  0  0  0
 71 73  2  0  0  0
 71 74  1  0  0  0
 71146  1  0  0  0
 72 73  1  0  0  0
 72 81  2  0  0  0
 72147  1  0  0  0
 73 82  1  0  0  0
 74 75  2  0  0  0
 74 83  1  0  0  0
 75 81  1  0  0  0
 75 86  1  0  0  0
 76 77  1  0  0  0
 76 79  1  0  0  0
 76 84  2  0  0  0
 77 82  1  0  0  0
 77 85  2  0  0  0
 78148  1  0  0  0
 78149  1  0  0  0
 78150  1  0  0  0
 78 80  1  0  0  0
 79 80  1  0  0  0
 79151  1  0  0  0
 79152  1  0  0  0
 80153  1  0  0  0
 82154  1  0  0  0
 83155  1  0  0  0
M  ISO  4   1 100  68 101  80 101  83 100
M  END
> <chiral flag>
0

> <version>
0

> <s_m_source_file>
/data/baiqing/PycharmProjects/Reinvent-master-3.2/result/LINK_invent/BTK/process_docking_weight1_custom_product_contain_oxygen_bond_distance_aromatic_linkinvent_7_9_3/rearranged_h_0168.sdf

> <i_m_source_file_index>
41

> <r_mmod_Potential_Energy-OPLS-2005>
-238.611526489258

> <r_mmod_Stretch_Energy-OPLS-2005>
41.2504730224609

> <r_mmod_Bend_Energy-OPLS-2005>
96.2419891357422

> <r_mmod_Torsional_Energy-OPLS-2005>
262.748962402344

> <r_mmod_Improper_Torsional_Energy-OPLS-2005>
6.95946788787842

> <r_mmod_Van_der_Waal_Energy-OPLS-2005>
164.718780517578

> <r_mmod_Electrostatic_Energy-OPLS-2005>
-583.408569335938

> <r_mmod_Solvation_Energy-OPLS-2005>
-245.015686035156

> <b_mmod_Minimization_Converged-OPLS-2005>
0

> <r_mmod_RMS_Derivative-OPLS-2005>
1.15666425228119

$$$$
41
                    3D
 Structure written by MMmdl.
157165  0  0  1  0            999 V2000
  -30.6906  -14.4399   20.6086 C   0  0  0  0  0  0
  -30.4332  -12.3011   19.4024 C   0  0  0  0  0  0
  -29.4938  -12.5201   18.1974 C   0  0  0  0  0  0
  -28.0153  -12.3693   18.6107 C   0  0  0  0  0  0
  -27.6663  -13.1894   19.8797 C   0  0  2  0  0  0
  -28.7087  -12.9289   20.9920 C   0  0  0  0  0  0
  -25.2601  -13.8093   20.5632 C   0  0  0  0  0  0
  -24.1848  -13.0406   20.9173 C   0  0  0  0  0  0
  -24.6383  -11.6871   20.8734 C   0  0  0  0  0  0
  -23.9043  -10.4274   21.0410 C   0  0  0  0  0  0
  -24.3606   -9.4194   21.9184 C   0  0  0  0  0  0
  -23.6277   -8.2235   22.0762 C   0  0  0  0  0  0
  -22.4259   -8.0278   21.3557 C   0  0  0  0  0  0
  -21.9890   -9.0248   20.4655 C   0  0  0  0  0  0
  -22.7221  -10.2121   20.3058 C   0  0  0  0  0  0
  -21.6845   -6.0720   22.5277 C   0  0  0  0  0  0
  -21.4009   -6.5627   23.8206 C   0  0  0  0  0  0
  -21.3664   -5.6783   24.9170 C   0  0  0  0  0  0
  -21.6050   -4.3045   24.7226 C   0  0  0  0  0  0
  -21.8820   -3.8134   23.4347 C   0  0  0  0  0  0
  -21.9190   -4.6949   22.3401 C   0  0  0  0  0  0
  -22.7876  -13.5230   21.1825 C   0  0  0  0  0  0
  -22.1663   -4.2130   21.0982 F   0  0  0  0  0  0
  -21.5641   -3.4539   25.7748 F   0  0  0  0  0  0
  -30.0467  -13.2516   20.4552 N   0  0  0  0  0  0
  -26.3038  -12.9242   20.3364 N   0  0  0  0  0  0
  -25.9297  -11.6424   20.5753 N   0  0  0  0  0  0
  -22.0496  -12.8247   22.0386 N   0  0  0  0  0  0
  -25.4282  -15.1794   20.3947 N   0  0  0  0  0  0
  -31.7741  -14.7099   20.0821 O   0  0  0  0  0  0
  -21.6636   -6.8866   21.4242 O   0  0  0  0  0  0
  -22.3584  -14.5546   20.6666 O   0  0  0  0  0  0
  -24.6124  -31.8685   23.2117 C   0  0  0  0  0  0
  -25.9027  -32.4825   23.8410 C   0  0  1  0  0  0
  -27.2443  -27.4547   20.0980 C   0  0  0  0  0  0
  -25.5898  -33.8629   24.2339 N   0  0  0  0  0  0
  -23.4013  -30.4899   21.5512 C   0  0  2  0  0  0
  -24.8519  -28.9545   20.1194 C   0  0  0  0  0  0
  -22.7390  -29.4661   22.5001 C   0  0  0  0  0  0
  -18.0268  -28.1380   22.8491 C   0  0  0  0  0  0
  -24.1486  -36.7308   23.2642 C   0  0  0  0  0  0
  -25.9278  -30.8387   21.3640 C   0  0  0  0  0  0
  -26.0096  -29.4734   20.7143 C   0  0  0  0  0  0
  -27.2109  -28.7301   20.7026 C   0  0  0  0  0  0
  -26.0748  -26.9414   19.5021 C   0  0  0  0  0  0
  -24.8778  -27.6850   19.5128 C   0  0  0  0  0  0
  -23.6109  -29.8182   20.1674 C   0  0  0  0  0  0
  -25.4112  -36.3113   24.0339 C   0  0  1  0  0  0
  -20.5855  -28.3668   23.1323 C   0  0  2  0  0  0
  -20.6763  -26.9405   22.5431 C   0  0  0  0  0  0
  -19.5755  -26.6390   21.5217 C   0  0  0  0  0  0
  -18.1916  -26.7933   22.1600 C   0  0  0  0  0  0
  -19.1518  -28.8840   23.2903 C   0  0  0  0  0  0
  -18.9450  -30.1444   23.8915 C   0  0  0  0  0  0
  -17.6457  -30.6586   24.0575 C   0  0  0  0  0  0
  -25.9035  -34.9480   23.5133 C   0  0  0  0  0  0
  -16.5346  -29.9091   23.6335 C   0  0  0  0  0  0
  -16.7260  -28.6508   23.0354 C   0  0  0  0  0  0
  -26.4472  -31.6603   25.0725 C   0  0  0  0  0  0
  -25.3746  -31.3694   26.1473 C   0  0  0  0  0  0
  -27.0314  -30.3051   24.6101 C   0  0  0  0  0  0
  -27.6054  -32.4323   25.7474 C   0  0  0  0  0  0
  -27.5588  -37.1805   24.8463 C   0  0  0  0  0  0
  -21.4124  -29.3028   22.3721 N   0  0  0  0  0  0
  -26.4300  -37.3793   23.9409 N   0  0  0  0  0  0
  -24.6649  -31.0798   22.1012 N   0  0  0  0  0  0
  -23.4159  -28.8212   23.3058 O   0  0  0  0  0  0
  -28.3997  -26.7135   20.0728 O   0  0  0  0  0  0
  -26.5589  -34.8920   22.4689 O   0  0  0  0  0  0
  -23.5324  -32.1438   23.7519 O   0  0  0  0  0  0
  -28.7993  -17.1571   20.2450 C   0  0  0  0  0  0
  -30.7445  -17.6917   21.5527 C   0  0  0  0  0  0
  -28.5573  -18.5374   20.0717 C   0  0  0  0  0  0
  -29.8880  -16.7177   21.0170 C   0  0  0  0  0  0
  -29.4234  -19.4603   20.7318 C   0  0  0  0  0  0
  -27.3559  -18.9476   19.2723 C   0  0  0  0  0  0
  -28.9979  -24.3748   20.5714 C   0  0  0  0  0  0
  -29.6320  -21.9334   21.2442 C   0  0  0  0  0  0
  -26.8720  -18.0043   18.1740 C   0  0  0  0  0  0
  -28.7088  -23.1492   21.4588 C   0  0  0  0  0  0
  -28.4501  -25.7144   21.0976 C   0  0  0  0  0  0
  -30.5106  -19.0176   21.4202 N   0  0  0  0  0  0
  -30.0129  -15.3388   21.3357 N   0  0  0  0  0  0
  -29.0513  -20.8405   20.7093 N   0  0  0  0  0  0
  -26.7587  -20.0163   19.4303 O   0  0  0  0  0  0
  -29.5901  -24.2966   19.4873 O   0  0  0  0  0  0
  -30.8200  -21.9983   21.5776 O   0  0  0  0  0  0
  -31.4742  -12.4210   19.0972 H   0  0  0  0  0  0
  -30.3482  -11.2773   19.7706 H   0  0  0  0  0  0
  -29.7317  -11.8145   17.4003 H   0  0  0  0  0  0
  -29.6573  -13.5158   17.7818 H   0  0  0  0  0  0
  -27.8258  -11.3106   18.7910 H   0  0  0  0  0  0
  -27.3634  -12.6582   17.7857 H   0  0  0  0  0  0
  -27.7199  -14.2387   19.5994 H   0  0  0  0  0  0
  -28.6852  -11.8779   21.2850 H   0  0  0  0  0  0
  -28.4581  -13.4776   21.9008 H   0  0  0  0  0  0
  -25.2753   -9.5676   22.4748 H   0  0  0  0  0  0
  -23.9985   -7.4627   22.7487 H   0  0  0  0  0  0
  -21.0819   -8.8780   19.8960 H   0  0  0  0  0  0
  -22.3693  -10.9668   19.6168 H   0  0  0  0  0  0
  -21.2000   -7.6132   23.9711 H   0  0  0  0  0  0
  -21.1487   -6.0512   25.9075 H   0  0  0  0  0  0
  -22.0592   -2.7593   23.2856 H   0  0  0  0  0  0
  -22.4082  -11.9902   22.4782 H   0  0  0  0  0  0
  -21.1125  -13.1308   22.2584 H   0  0  0  0  0  0
  -24.6416  -15.8163   20.4585 H   0  0  0  0  0  0
  -26.2513  -15.5957   19.9876 H   0  0  0  0  0  0
  -26.7100  -32.5551   23.1181 H   0  0  0  0  0  0
  -25.0091  -33.9808   25.0512 H   0  0  0  0  0  0
  -22.6899  -31.3061   21.4095 H   0  0  0  0  0  0
  -23.3752  -35.9638   23.3308 H   0  0  0  0  0  0
  -24.3578  -36.8921   22.2057 H   0  0  0  0  0  0
  -23.7229  -37.6511   23.6653 H   0  0  0  0  0  0
  -26.0378  -31.6056   20.5960 H   0  0  0  0  0  0
  -26.8154  -30.8929   21.9826 H   0  0  0  0  0  0
  -28.1068  -29.1287   21.1586 H   0  0  0  0  0  0
  -26.0939  -25.9687   19.0303 H   0  0  0  0  0  0
  -23.9864  -27.2776   19.0555 H   0  0  0  0  0  0
  -23.7152  -30.5918   19.4054 H   0  0  0  0  0  0
  -22.7358  -29.2346   19.8746 H   0  0  0  0  0  0
  -25.1284  -36.1991   25.0832 H   0  0  0  0  0  0
  -20.9950  -28.3259   24.1443 H   0  0  0  0  0  0
  -20.5666  -26.2283   23.3622 H   0  0  0  0  0  0
  -21.6641  -26.7445   22.1243 H   0  0  0  0  0  0
  -19.6925  -25.6304   21.1247 H   0  0  0  0  0  0
  -19.6716  -27.3205   20.6754 H   0  0  0  0  0  0
  -17.4207  -26.6714   21.3970 H   0  0  0  0  0  0
  -18.0275  -26.0052   22.8963 H   0  0  0  0  0  0
  -19.7929  -30.7253   24.2291 H   0  0  0  0  0  0
  -17.5012  -31.6268   24.5173 H   0  0  0  0  0  0
  -15.5350  -30.3006   23.7645 H   0  0  0  0  0  0
  -15.8656  -28.0839   22.7063 H   0  0  0  0  0  0
  -24.6005  -30.6919   25.7843 H   0  0  0  0  0  0
  -24.8821  -32.2827   26.4827 H   0  0  0  0  0  0
  -25.8126  -30.8992   27.0287 H   0  0  0  0  0  0
  -26.2862  -29.6790   24.1178 H   0  0  0  0  0  0
  -27.4118  -29.7300   25.4554 H   0  0  0  0  0  0
  -27.8673  -30.4377   23.9224 H   0  0  0  0  0  0
  -27.2690  -33.3623   26.2072 H   0  0  0  0  0  0
  -28.3848  -32.6890   25.0282 H   0  0  0  0  0  0
  -28.0743  -31.8436   26.5371 H   0  0  0  0  0  0
  -28.2621  -38.0089   24.7511 H   0  0  0  0  0  0
  -28.1067  -36.2622   24.6291 H   0  0  0  0  0  0
  -27.2297  -37.1469   25.8863 H   0  0  0  0  0  0
  -20.9285  -29.8727   21.6923 H   0  0  0  0  0  0
  -26.0192  -38.2871   24.1419 H   0  0  0  0  0  0
  -28.1281  -16.4262   19.8237 H   0  0  0  0  0  0
  -31.5912  -17.4114   22.1629 H   0  0  0  0  0  0
  -27.7036  -17.4610   17.7266 H   0  0  0  0  0  0
  -26.3826  -18.5722   17.3839 H   0  0  0  0  0  0
  -26.1531  -17.2907   18.5735 H   0  0  0  0  0  0
  -27.6680  -22.8625   21.3084 H   0  0  0  0  0  0
  -28.7910  -23.4507   22.5034 H   0  0  0  0  0  0
  -29.0962  -26.0659   21.9019 H   0  0  0  0  0  0
  -27.4651  -25.5414   21.5349 H   0  0  0  0  0  0
  -29.1986  -14.9283   21.7678 H   0  0  0  0  0  0
  -28.1166  -20.9885   20.3449 H   0  0  0  0  0  0
  1 25  1  0  0  0
  1 30  2  0  0  0
  1 83  1  0  0  0
  2  3  1  0  0  0
  2 25  1  0  0  0
  2 88  1  0  0  0
  2 89  1  0  0  0
  3  4  1  0  0  0
  3 90  1  0  0  0
  3 91  1  0  0  0
  4  5  1  0  0  0
  4 92  1  0  0  0
  4 93  1  0  0  0
  5  6  1  0  0  0
  5 26  1  0  0  0
  5 94  1  0  0  0
  6 25  1  0  0  0
  6 95  1  0  0  0
  6 96  1  0  0  0
  7  8  2  0  0  0
  7 26  1  0  0  0
  7 29  1  0  0  0
  8  9  1  0  0  0
  8 22  1  0  0  0
  9 10  1  0  0  0
  9 27  2  0  0  0
 10 11  2  0  0  0
 10 15  1  0  0  0
 11 12  1  0  0  0
 11 97  1  0  0  0
 12 13  2  0  0  0
 12 98  1  0  0  0
 13 14  1  0  0  0
 13 31  1  0  0  0
 14 15  2  0  0  0
 14 99  1  0  0  0
 15100  1  0  0  0
 16 17  2  0  0  0
 16 21  1  0  0  0
 16 31  1  0  0  0
 17 18  1  0  0  0
 17101  1  0  0  0
 18 19  2  0  0  0
 18102  1  0  0  0
 19 20  1  0  0  0
 19 24  1  0  0  0
 20 21  2  0  0  0
 20103  1  0  0  0
 21 23  1  0  0  0
 22 28  1  0  0  0
 22 32  2  0  0  0
 26 27  1  0  0  0
 28104  1  0  0  0
 28105  1  0  0  0
 29106  1  0  0  0
 29107  1  0  0  0
 33 34  1  0  0  0
 33 66  1  0  0  0
 33 70  2  0  0  0
 34 36  1  0  0  0
 34 59  1  0  0  0
 34108  1  0  0  0
 35 44  2  0  0  0
 35 45  1  0  0  0
 35 68  1  0  0  0
 36 56  1  0  0  0
 36109  1  0  0  0
 37 39  1  0  0  0
 37 47  1  0  0  0
 37 66  1  0  0  0
 37110  1  0  0  0
 38 43  2  0  0  0
 38 46  1  0  0  0
 38 47  1  0  0  0
 39 64  1  0  0  0
 39 67  2  0  0  0
 40 52  1  0  0  0
 40 53  2  0  0  0
 40 58  1  0  0  0
 41111  1  0  0  0
 41112  1  0  0  0
 41113  1  0  0  0
 41 48  1  0  0  0
 42 43  1  0  0  0
 42 66  1  0  0  0
 42114  1  0  0  0
 42115  1  0  0  0
 43 44  1  0  0  0
 44116  1  0  0  0
 45 46  2  0  0  0
 45117  1  0  0  0
 46118  1  0  0  0
 47119  1  0  0  0
 47120  1  0  0  0
 48 56  1  0  0  0
 48 65  1  0  0  0
 48121  1  0  0  0
 49 50  1  0  0  0
 49 53  1  0  0  0
 49 64  1  0  0  0
 49122  1  0  0  0
 50 51  1  0  0  0
 50123  1  0  0  0
 50124  1  0  0  0
 51 52  1  0  0  0
 51125  1  0  0  0
 51126  1  0  0  0
 52127  1  0  0  0
 52128  1  0  0  0
 53 54  1  0  0  0
 54 55  2  0  0  0
 54129  1  0  0  0
 55 57  1  0  0  0
 55130  1  0  0  0
 56 69  2  0  0  0
 57 58  2  0  0  0
 57131  1  0  0  0
 58132  1  0  0  0
 59 60  1  0  0  0
 59 61  1  0  0  0
 59 62  1  0  0  0
 60133  1  0  0  0
 60134  1  0  0  0
 60135  1  0  0  0
 61136  1  0  0  0
 61137  1  0  0  0
 61138  1  0  0  0
 62139  1  0  0  0
 62140  1  0  0  0
 62141  1  0  0  0
 63 65  1  0  0  0
 63142  1  0  0  0
 63143  1  0  0  0
 63144  1  0  0  0
 64145  1  0  0  0
 65146  1  0  0  0
 68 81  1  0  0  0
 71 73  2  0  0  0
 71 74  1  0  0  0
 71147  1  0  0  0
 72 74  2  0  0  0
 72 82  1  0  0  0
 72148  1  0  0  0
 73 75  1  0  0  0
 73 76  1  0  0  0
 74 83  1  0  0  0
 75 82  2  0  0  0
 75 84  1  0  0  0
 76 79  1  0  0  0
 76 85  2  0  0  0
 77 80  1  0  0  0
 77 81  1  0  0  0
 77 86  2  0  0  0
 78 80  1  0  0  0
 78 84  1  0  0  0
 78 87  2  0  0  0
 79149  1  0  0  0
 79150  1  0  0  0
 79151  1  0  0  0
 80152  1  0  0  0
 80153  1  0  0  0
 81154  1  0  0  0
 81155  1  0  0  0
 83156  1  0  0  0
 84157  1  0  0  0
M  ISO  4   1 100  68 101  81 101  83 100
M  END
> <chiral flag>
0

> <version>
0

> <s_m_source_file>
/data/baiqing/PycharmProjects/Reinvent-master-3.2/result/LINK_invent/BTK/process_docking_weight1_custom_product_contain_oxygen_bond_distance_aromatic_linkinvent_7_9_3/rearranged_h_0168.sdf

> <i_m_source_file_index>
42

> <r_mmod_Potential_Energy-OPLS-2005>
-221.371505737305

> <r_mmod_Stretch_Energy-OPLS-2005>
37.5833015441895

> <r_mmod_Bend_Energy-OPLS-2005>
105.797187805176

> <r_mmod_Torsional_Energy-OPLS-2005>
301.404479980469

> <r_mmod_Improper_Torsional_Energy-OPLS-2005>
6.82761478424072

> <r_mmod_Van_der_Waal_Energy-OPLS-2005>
156.598190307617

> <r_mmod_Electrostatic_Energy-OPLS-2005>
-550.137145996094

> <r_mmod_Solvation_Energy-OPLS-2005>
-288.508087158203

> <b_mmod_Minimization_Converged-OPLS-2005>
0

> <r_mmod_RMS_Derivative-OPLS-2005>
1.28291165828705

$$$$
42
                    3D
 Structure written by MMmdl.
155163  0  0  1  0            999 V2000
  -30.5474  -14.6999   20.4512 C   0  0  0  0  0  0
  -30.4423  -12.4241   19.4518 C   0  0  0  0  0  0
  -29.5033  -12.4940   18.2247 C   0  0  0  0  0  0
  -28.0294  -12.3172   18.6427 C   0  0  0  0  0  0
  -27.6427  -13.2069   19.8511 C   0  0  2  0  0  0
  -28.6859  -13.0895   20.9848 C   0  0  0  0  0  0
  -25.2544  -13.8130   20.5679 C   0  0  0  0  0  0
  -24.1841  -13.0452   20.9324 C   0  0  0  0  0  0
  -24.6370  -11.6904   20.8826 C   0  0  0  0  0  0
  -23.9059  -10.4292   21.0474 C   0  0  0  0  0  0
  -24.3615   -9.4200   21.9229 C   0  0  0  0  0  0
  -23.6300   -8.2228   22.0765 C   0  0  0  0  0  0
  -22.4276   -8.0273   21.3552 C   0  0  0  0  0  0
  -21.9935   -9.0261   20.4655 C   0  0  0  0  0  0
  -22.7251  -10.2144   20.3099 C   0  0  0  0  0  0
  -21.6847   -6.0743   22.5271 C   0  0  0  0  0  0
  -21.3992   -6.5649   23.8206 C   0  0  0  0  0  0
  -21.3663   -5.6802   24.9168 C   0  0  0  0  0  0
  -21.6053   -4.3064   24.7216 C   0  0  0  0  0  0
  -21.8818   -3.8158   23.4333 C   0  0  0  0  0  0
  -21.9187   -4.6980   22.3398 C   0  0  0  0  0  0
  -22.7864  -13.5249   21.1924 C   0  0  0  0  0  0
  -22.1657   -4.2173   21.0974 F   0  0  0  0  0  0
  -21.5654   -3.4547   25.7727 F   0  0  0  0  0  0
  -29.9944  -13.4465   20.4140 N   0  0  0  0  0  0
  -26.2915  -12.9275   20.3238 N   0  0  0  0  0  0
  -25.9270  -11.6455   20.5768 N   0  0  0  0  0  0
  -22.0472  -12.8224   22.0420 N   0  0  0  0  0  0
  -25.4280  -15.1816   20.3804 N   0  0  0  0  0  0
  -31.7356  -14.8838   20.1589 O   0  0  0  0  0  0
  -21.6638   -6.8876   21.4227 O   0  0  0  0  0  0
  -22.3610  -14.5585   20.6764 O   0  0  0  0  0  0
  -24.6287  -31.8576   23.2059 C   0  0  0  0  0  0
  -25.9147  -32.4768   23.8334 C   0  0  1  0  0  0
  -27.1978  -27.3057   20.0630 C   0  0  0  0  0  0
  -25.5980  -33.8560   24.2271 N   0  0  0  0  0  0
  -23.4153  -30.4892   21.5534 C   0  0  2  0  0  0
  -24.8513  -28.9434   20.1131 C   0  0  0  0  0  0
  -22.7466  -29.4614   22.4959 C   0  0  0  0  0  0
  -18.0278  -28.1363   22.8427 C   0  0  0  0  0  0
  -24.1513  -36.7239   23.2637 C   0  0  0  0  0  0
  -25.9639  -30.7715   21.3854 C   0  0  0  0  0  0
  -26.0266  -29.4028   20.7180 C   0  0  0  0  0  0
  -27.2013  -28.5898   20.6941 C   0  0  0  0  0  0
  -26.0011  -26.9126   19.4255 C   0  0  0  0  0  0
  -24.8395  -27.6996   19.4671 C   0  0  0  0  0  0
  -23.6269  -29.8321   20.1670 C   0  0  0  0  0  0
  -25.4117  -36.3030   24.0336 C   0  0  1  0  0  0
  -20.5882  -28.3636   23.1294 C   0  0  2  0  0  0
  -20.6789  -26.9367   22.5390 C   0  0  0  0  0  0
  -19.5784  -26.6339   21.5198 C   0  0  0  0  0  0
  -18.1939  -26.7898   22.1579 C   0  0  0  0  0  0
  -19.1535  -28.8816   23.2853 C   0  0  0  0  0  0
  -18.9464  -30.1416   23.8854 C   0  0  0  0  0  0
  -17.6479  -30.6559   24.0522 C   0  0  0  0  0  0
  -25.9059  -34.9443   23.5083 C   0  0  0  0  0  0
  -16.5368  -29.9047   23.6356 C   0  0  0  0  0  0
  -16.7268  -28.6483   23.0320 C   0  0  0  0  0  0
  -26.4536  -31.6571   25.0704 C   0  0  0  0  0  0
  -25.3767  -31.3750   26.1439 C   0  0  0  0  0  0
  -27.0348  -30.2994   24.6125 C   0  0  0  0  0  0
  -27.6059  -32.4330   25.7496 C   0  0  0  0  0  0
  -27.5572  -37.1767   24.8469 C   0  0  0  0  0  0
  -21.4192  -29.3020   22.3714 N   0  0  0  0  0  0
  -26.4275  -37.3739   23.9426 N   0  0  0  0  0  0
  -24.6892  -31.0543   22.1056 N   0  0  0  0  0  0
  -23.4228  -28.8109   23.2983 O   0  0  0  0  0  0
  -28.3197  -26.4603   20.0218 O   0  0  0  0  0  0
  -26.5589  -34.8910   22.4634 O   0  0  0  0  0  0
  -23.5456  -32.1453   23.7376 O   0  0  0  0  0  0
  -28.5599  -19.2533   19.5908 C   0  0  0  0  0  0
  -30.5228  -19.4243   20.9695 C   0  0  0  0  0  0
  -29.4788  -20.0976   20.2708 C   0  0  0  0  0  0
  -28.6511  -17.8251   19.6777 C   0  0  0  0  0  0
  -29.6841  -17.1621   20.4137 C   0  0  0  0  0  0
  -30.6232  -18.0035   21.0591 C   0  0  0  0  0  0
  -29.3777  -21.6131   20.3770 C   0  0  0  0  0  0
  -29.1978  -24.0355   19.4092 C   0  0  0  0  0  0
  -28.1239  -24.9846   20.0962 C   0  0  0  0  0  0
  -27.6623  -17.0579   19.0536 N   0  0  0  0  0  0
  -29.7529  -22.1699   21.5249 N   0  0  0  0  0  0
  -29.6325  -15.7098   20.5978 N   0  0  0  0  0  0
  -28.9672  -22.5192   19.4372 N   0  3  0  0  0  0
  -31.5847  -17.4638   21.8450 F   0  0  0  0  0  0
  -31.4769  -12.5836   19.1459 H   0  0  0  0  0  0
  -30.4116  -11.4370   19.9122 H   0  0  0  0  0  0
  -29.7739  -11.7227   17.5033 H   0  0  0  0  0  0
  -29.6278  -13.4487   17.7123 H   0  0  0  0  0  0
  -27.8857  -11.2684   18.9020 H   0  0  0  0  0  0
  -27.3658  -12.5159   17.8004 H   0  0  0  0  0  0
  -27.6464  -14.2327   19.4830 H   0  0  0  0  0  0
  -28.7107  -12.0748   21.3816 H   0  0  0  0  0  0
  -28.4207  -13.7354   21.8263 H   0  0  0  0  0  0
  -25.2749   -9.5688   22.4833 H   0  0  0  0  0  0
  -24.0023   -7.4602   22.7465 H   0  0  0  0  0  0
  -21.0891   -8.8780   19.8928 H   0  0  0  0  0  0
  -22.3712  -10.9713   19.6236 H   0  0  0  0  0  0
  -21.1942   -7.6144   23.9712 H   0  0  0  0  0  0
  -21.1505   -6.0529   25.9079 H   0  0  0  0  0  0
  -22.0589   -2.7623   23.2821 H   0  0  0  0  0  0
  -22.4089  -11.9853   22.4747 H   0  0  0  0  0  0
  -21.1092  -13.1251   22.2650 H   0  0  0  0  0  0
  -24.5647  -15.7000   20.5009 H   0  0  0  0  0  0
  -25.7955  -15.3619   19.4545 H   0  0  0  0  0  0
  -26.7170  -32.5384   23.1016 H   0  0  0  0  0  0
  -25.0281  -33.9731   25.0508 H   0  0  0  0  0  0
  -22.7053  -31.3074   21.4136 H   0  0  0  0  0  0
  -23.3791  -35.9560   23.3287 H   0  0  0  0  0  0
  -24.3603  -36.8863   22.2057 H   0  0  0  0  0  0
  -23.7292  -37.6448   23.6661 H   0  0  0  0  0  0
  -26.1063  -31.5321   20.6173 H   0  0  0  0  0  0
  -26.8451  -30.8075   22.0114 H   0  0  0  0  0  0
  -28.1080  -28.9308   21.1729 H   0  0  0  0  0  0
  -25.9340  -26.0002   18.8544 H   0  0  0  0  0  0
  -23.9388  -27.3471   18.9828 H   0  0  0  0  0  0
  -23.7535  -30.6136   19.4184 H   0  0  0  0  0  0
  -22.7399  -29.2741   19.8638 H   0  0  0  0  0  0
  -25.1316  -36.1860   25.0834 H   0  0  0  0  0  0
  -20.9933  -28.3168   24.1429 H   0  0  0  0  0  0
  -20.5692  -26.2229   23.3563 H   0  0  0  0  0  0
  -21.6654  -26.7398   22.1179 H   0  0  0  0  0  0
  -19.6973  -25.6260   21.1200 H   0  0  0  0  0  0
  -19.6762  -27.3158   20.6747 H   0  0  0  0  0  0
  -17.4214  -26.6615   21.3977 H   0  0  0  0  0  0
  -18.0322  -26.0053   22.8996 H   0  0  0  0  0  0
  -19.7964  -30.7209   24.2207 H   0  0  0  0  0  0
  -17.5063  -31.6269   24.5091 H   0  0  0  0  0  0
  -15.5377  -30.2931   23.7748 H   0  0  0  0  0  0
  -15.8650  -28.0820   22.7045 H   0  0  0  0  0  0
  -24.5941  -30.7073   25.7791 H   0  0  0  0  0  0
  -24.8955  -32.2944   26.4783 H   0  0  0  0  0  0
  -25.8101  -30.8993   27.0242 H   0  0  0  0  0  0
  -26.2895  -29.6757   24.1156 H   0  0  0  0  0  0
  -27.4114  -29.7220   25.4578 H   0  0  0  0  0  0
  -27.8752  -30.4300   23.9294 H   0  0  0  0  0  0
  -27.2637  -33.3651   26.2003 H   0  0  0  0  0  0
  -28.3929  -32.6857   25.0367 H   0  0  0  0  0  0
  -28.0651  -31.8498   26.5491 H   0  0  0  0  0  0
  -28.2544  -38.0094   24.7497 H   0  0  0  0  0  0
  -28.1124  -36.2623   24.6310 H   0  0  0  0  0  0
  -27.2291  -37.1410   25.8871 H   0  0  0  0  0  0
  -20.9348  -29.8749   21.6943 H   0  0  0  0  0  0
  -26.0149  -38.2804   24.1440 H   0  0  0  0  0  0
  -27.7414  -19.7063   19.0498 H   0  0  0  0  0  0
  -31.2561  -20.0084   21.5042 H   0  0  0  0  0  0
  -30.1868  -24.2442   19.8273 H   0  0  0  0  0  0
  -29.2783  -24.3292   18.3581 H   0  0  0  0  0  0
  -28.1286  -24.7435   21.1597 H   0  0  0  0  0  0
  -27.1474  -24.6509   19.7510 H   0  0  0  0  0  0
  -26.9784  -17.5912   18.5269 H   0  0  0  0  0  0
  -27.1792  -16.4226   19.6801 H   0  0  0  0  0  0
  -29.9654  -21.5874   22.3183 H   0  0  0  0  0  0
  -29.7133  -23.1660   21.6617 H   0  0  0  0  0  0
  -28.6917  -15.3614   20.6695 H   0  0  0  0  0  0
  -28.5267  -22.1384   18.6060 H   0  0  0  0  0  0
  1 25  1  0  0  0
  1 30  2  0  0  0
  1 82  1  0  0  0
  2  3  1  0  0  0
  2 25  1  0  0  0
  2 85  1  0  0  0
  2 86  1  0  0  0
  3  4  1  0  0  0
  3 87  1  0  0  0
  3 88  1  0  0  0
  4  5  1  0  0  0
  4 89  1  0  0  0
  4 90  1  0  0  0
  5  6  1  0  0  0
  5 26  1  0  0  0
  5 91  1  0  0  0
  6 25  1  0  0  0
  6 92  1  0  0  0
  6 93  1  0  0  0
  7  8  2  0  0  0
  7 26  1  0  0  0
  7 29  1  0  0  0
  8  9  1  0  0  0
  8 22  1  0  0  0
  9 10  1  0  0  0
  9 27  2  0  0  0
 10 11  2  0  0  0
 10 15  1  0  0  0
 11 12  1  0  0  0
 11 94  1  0  0  0
 12 13  2  0  0  0
 12 95  1  0  0  0
 13 14  1  0  0  0
 13 31  1  0  0  0
 14 15  2  0  0  0
 14 96  1  0  0  0
 15 97  1  0  0  0
 16 17  2  0  0  0
 16 21  1  0  0  0
 16 31  1  0  0  0
 17 18  1  0  0  0
 17 98  1  0  0  0
 18 19  2  0  0  0
 18 99  1  0  0  0
 19 20  1  0  0  0
 19 24  1  0  0  0
 20 21  2  0  0  0
 20100  1  0  0  0
 21 23  1  0  0  0
 22 28  1  0  0  0
 22 32  2  0  0  0
 26 27  1  0  0  0
 28101  1  0  0  0
 28102  1  0  0  0
 29103  1  0  0  0
 29104  1  0  0  0
 33 34  1  0  0  0
 33 66  1  0  0  0
 33 70  2  0  0  0
 34 36  1  0  0  0
 34 59  1  0  0  0
 34105  1  0  0  0
 35 44  2  0  0  0
 35 45  1  0  0  0
 35 68  1  0  0  0
 36 56  1  0  0  0
 36106  1  0  0  0
 37 39  1  0  0  0
 37 47  1  0  0  0
 37 66  1  0  0  0
 37107  1  0  0  0
 38 43  2  0  0  0
 38 46  1  0  0  0
 38 47  1  0  0  0
 39 64  1  0  0  0
 39 67  2  0  0  0
 40 52  1  0  0  0
 40 53  2  0  0  0
 40 58  1  0  0  0
 41108  1  0  0  0
 41109  1  0  0  0
 41110  1  0  0  0
 41 48  1  0  0  0
 42 43  1  0  0  0
 42 66  1  0  0  0
 42111  1  0  0  0
 42112  1  0  0  0
 43 44  1  0  0  0
 44113  1  0  0  0
 45 46  2  0  0  0
 45114  1  0  0  0
 46115  1  0  0  0
 47116  1  0  0  0
 47117  1  0  0  0
 48 56  1  0  0  0
 48 65  1  0  0  0
 48118  1  0  0  0
 49 50  1  0  0  0
 49 53  1  0  0  0
 49 64  1  0  0  0
 49119  1  0  0  0
 50 51  1  0  0  0
 50120  1  0  0  0
 50121  1  0  0  0
 51 52  1  0  0  0
 51122  1  0  0  0
 51123  1  0  0  0
 52124  1  0  0  0
 52125  1  0  0  0
 53 54  1  0  0  0
 54 55  2  0  0  0
 54126  1  0  0  0
 55 57  1  0  0  0
 55127  1  0  0  0
 56 69  2  0  0  0
 57 58  2  0  0  0
 57128  1  0  0  0
 58129  1  0  0  0
 59 60  1  0  0  0
 59 61  1  0  0  0
 59 62  1  0  0  0
 60130  1  0  0  0
 60131  1  0  0  0
 60132  1  0  0  0
 61133  1  0  0  0
 61134  1  0  0  0
 61135  1  0  0  0
 62136  1  0  0  0
 62137  1  0  0  0
 62138  1  0  0  0
 63 65  1  0  0  0
 63139  1  0  0  0
 63140  1  0  0  0
 63141  1  0  0  0
 64142  1  0  0  0
 65143  1  0  0  0
 68 79  1  0  0  0
 71 73  2  0  0  0
 71 74  1  0  0  0
 71144  1  0  0  0
 72 73  1  0  0  0
 72 76  2  0  0  0
 72145  1  0  0  0
 73 77  1  0  0  0
 74 75  2  0  0  0
 74 80  1  0  0  0
 75 76  1  0  0  0
 75 82  1  0  0  0
 76 84  1  0  0  0
 77 81  1  0  0  0
 77 83  2  0  0  0
 78 79  1  0  0  0
 78 83  1  0  0  0
 78146  1  0  0  0
 78147  1  0  0  0
 79148  1  0  0  0
 79149  1  0  0  0
 80150  1  0  0  0
 80151  1  0  0  0
 81152  1  0  0  0
 81153  1  0  0  0
 82154  1  0  0  0
 83155  1  0  0  0
M  CHG  1  83   1
M  ISO  4   1 100  68 101  79 101  82 100
M  END
> <chiral flag>
0

> <version>
0

> <s_m_source_file>
/data/baiqing/PycharmProjects/Reinvent-master-3.2/result/LINK_invent/BTK/process_docking_weight1_custom_product_contain_oxygen_bond_distance_aromatic_linkinvent_7_9_3/rearranged_h_0168.sdf

> <i_m_source_file_index>
43

> <r_mmod_Potential_Energy-OPLS-2005>
-292.502899169922

> <r_mmod_Stretch_Energy-OPLS-2005>
82.4935150146484

> <r_mmod_Bend_Energy-OPLS-2005>
136.14143371582

> <r_mmod_Torsional_Energy-OPLS-2005>
267.093780517578

> <r_mmod_Improper_Torsional_Energy-OPLS-2005>
18.9417839050293

> <r_mmod_Van_der_Waal_Energy-OPLS-2005>
151.26335144043

> <r_mmod_Electrostatic_Energy-OPLS-2005>
-576.941772460938

> <r_mmod_Solvation_Energy-OPLS-2005>
-438.697845458984

> <b_mmod_Minimization_Converged-OPLS-2005>
0

> <r_mmod_RMS_Derivative-OPLS-2005>
4.88125848770142

$$$$
43
                    3D
 Structure written by MMmdl.
160168  0  0  1  0            999 V2000
  -30.7055  -14.5363   20.5379 C   0  0  0  0  0  0
  -30.4132  -12.3349   19.4518 C   0  0  0  0  0  0
  -29.5021  -12.5057   18.2203 C   0  0  0  0  0  0
  -28.0210  -12.3678   18.6238 C   0  0  0  0  0  0
  -27.6544  -13.2225   19.8678 C   0  0  2  0  0  0
  -28.6946  -13.0616   20.9996 C   0  0  0  0  0  0
  -25.2547  -13.8196   20.5680 C   0  0  0  0  0  0
  -24.1816  -13.0449   20.9182 C   0  0  0  0  0  0
  -24.6396  -11.6919   20.8737 C   0  0  0  0  0  0
  -23.9068  -10.4297   21.0402 C   0  0  0  0  0  0
  -24.3617   -9.4215   21.9186 C   0  0  0  0  0  0
  -23.6289   -8.2253   22.0757 C   0  0  0  0  0  0
  -22.4273   -8.0286   21.3549 C   0  0  0  0  0  0
  -21.9908   -9.0261   20.4653 C   0  0  0  0  0  0
  -22.7237  -10.2141   20.3058 C   0  0  0  0  0  0
  -21.6856   -6.0738   22.5283 C   0  0  0  0  0  0
  -21.4018   -6.5639   23.8216 C   0  0  0  0  0  0
  -21.3659   -5.6792   24.9178 C   0  0  0  0  0  0
  -21.6039   -4.3055   24.7227 C   0  0  0  0  0  0
  -21.8818   -3.8145   23.4350 C   0  0  0  0  0  0
  -21.9190   -4.6965   22.3404 C   0  0  0  0  0  0
  -22.7839  -13.5240   21.1834 C   0  0  0  0  0  0
  -22.1659   -4.2151   21.0983 F   0  0  0  0  0  0
  -21.5626   -3.4535   25.7739 F   0  0  0  0  0  0
  -30.0205  -13.3590   20.4389 N   0  0  0  0  0  0
  -26.2988  -12.9391   20.3331 N   0  0  0  0  0  0
  -25.9332  -11.6539   20.5763 N   0  0  0  0  0  0
  -22.0465  -12.8250   22.0391 N   0  0  0  0  0  0
  -25.4230  -15.1922   20.4106 N   0  0  0  0  0  0
  -31.8506  -14.6292   20.0913 O   0  0  0  0  0  0
  -21.6638   -6.8885   21.4246 O   0  0  0  0  0  0
  -22.3527  -14.5543   20.6678 O   0  0  0  0  0  0
  -24.6193  -31.8667   23.2098 C   0  0  0  0  0  0
  -25.9075  -32.4814   23.8377 C   0  0  1  0  0  0
  -27.2068  -27.3752   20.0948 C   0  0  0  0  0  0
  -25.5934  -33.8611   24.2315 N   0  0  0  0  0  0
  -23.4075  -30.4963   21.5504 C   0  0  2  0  0  0
  -24.8488  -28.9643   20.1062 C   0  0  0  0  0  0
  -22.7437  -29.4673   22.4943 C   0  0  0  0  0  0
  -18.0283  -28.1371   22.8471 C   0  0  0  0  0  0
  -24.1488  -36.7300   23.2637 C   0  0  0  0  0  0
  -25.9449  -30.8092   21.3784 C   0  0  0  0  0  0
  -26.0133  -29.4429   20.7187 C   0  0  0  0  0  0
  -27.1916  -28.6519   20.7189 C   0  0  0  0  0  0
  -26.0321  -26.9542   19.4329 C   0  0  0  0  0  0
  -24.8558  -27.7193   19.4612 C   0  0  0  0  0  0
  -23.6165  -29.8387   20.1618 C   0  0  0  0  0  0
  -25.4116  -36.3104   24.0332 C   0  0  1  0  0  0
  -20.5874  -28.3702   23.1276 C   0  0  2  0  0  0
  -20.6795  -26.9411   22.5446 C   0  0  0  0  0  0
  -19.5780  -26.6327   21.5245 C   0  0  0  0  0  0
  -18.1953  -26.7898   22.1644 C   0  0  0  0  0  0
  -19.1530  -28.8854   23.2859 C   0  0  0  0  0  0
  -18.9460  -30.1462   23.8865 C   0  0  0  0  0  0
  -17.6462  -30.6598   24.0541 C   0  0  0  0  0  0
  -25.9048  -34.9472   23.5117 C   0  0  0  0  0  0
  -16.5357  -29.9087   23.6316 C   0  0  0  0  0  0
  -16.7274  -28.6496   23.0335 C   0  0  0  0  0  0
  -26.4490  -31.6595   25.0718 C   0  0  0  0  0  0
  -25.3729  -31.3716   26.1447 C   0  0  0  0  0  0
  -27.0343  -30.3031   24.6146 C   0  0  0  0  0  0
  -27.6064  -32.4308   25.7485 C   0  0  0  0  0  0
  -27.5584  -37.1812   24.8468 C   0  0  0  0  0  0
  -21.4162  -29.3058   22.3665 N   0  0  0  0  0  0
  -26.4302  -37.3796   23.9406 N   0  0  0  0  0  0
  -24.6751  -31.0725   22.1032 N   0  0  0  0  0  0
  -23.4188  -28.8212   23.2997 O   0  0  0  0  0  0
  -28.3348  -26.5660   20.1774 O   0  0  0  0  0  0
  -26.5598  -34.8927   22.4673 O   0  0  0  0  0  0
  -23.5380  -32.1459   23.7466 O   0  0  0  0  0  0
  -31.7097  -17.4723   20.7104 C   0  0  0  0  0  0
  -32.0348  -18.8401   20.6777 C   0  0  0  0  0  0
  -29.4079  -18.0418   21.2266 C   0  0  0  0  0  0
  -29.7333  -19.4362   21.2100 C   0  0  0  0  0  0
  -30.3855  -17.0307   20.9688 C   0  0  0  0  0  0
  -31.0599  -19.8174   20.9260 C   0  0  0  0  0  0
  -28.5840  -22.9628   20.9439 C   0  0  0  0  0  0
  -26.5978  -24.4074   21.3031 C   0  0  0  0  0  0
  -26.8404  -23.2368   19.1076 C   0  0  0  0  0  0
  -28.7136  -20.5161   21.6259 C   0  0  0  0  0  0
  -28.3597  -25.2369   19.5696 C   0  0  0  0  0  0
  -27.6236  -23.9809   20.2257 C   0  0  0  0  0  0
  -30.0205  -15.6221   20.9998 N   0  0  0  0  0  0
  -28.4390  -21.6359   20.6949 N   0  0  0  0  0  0
  -29.3617  -23.3743   21.8072 O   0  0  0  0  0  0
  -31.4217  -21.1219   20.9310 F   0  0  0  0  0  0
  -31.4618  -12.4057   19.1589 H   0  0  0  0  0  0
  -30.2946  -11.3385   19.8807 H   0  0  0  0  0  0
  -29.7552  -11.7658   17.4600 H   0  0  0  0  0  0
  -29.6740  -13.4820   17.7649 H   0  0  0  0  0  0
  -27.8313  -11.3141   18.8286 H   0  0  0  0  0  0
  -27.3790  -12.6332   17.7831 H   0  0  0  0  0  0
  -27.6813  -14.2634   19.5450 H   0  0  0  0  0  0
  -28.6795  -12.0437   21.3911 H   0  0  0  0  0  0
  -28.4554  -13.7089   21.8441 H   0  0  0  0  0  0
  -25.2761   -9.5692   22.4767 H   0  0  0  0  0  0
  -23.9992   -7.4647   22.7486 H   0  0  0  0  0  0
  -21.0831   -8.8789   19.8968 H   0  0  0  0  0  0
  -22.3690  -10.9685   19.6173 H   0  0  0  0  0  0
  -21.2020   -7.6150   23.9721 H   0  0  0  0  0  0
  -21.1476   -6.0523   25.9082 H   0  0  0  0  0  0
  -22.0594   -2.7607   23.2853 H   0  0  0  0  0  0
  -22.4056  -11.9926   22.4830 H   0  0  0  0  0  0
  -21.1091  -13.1318   22.2569 H   0  0  0  0  0  0
  -24.6513  -15.8419   20.5145 H   0  0  0  0  0  0
  -26.2681  -15.6356   20.0732 H   0  0  0  0  0  0
  -26.7126  -32.5508   23.1106 H   0  0  0  0  0  0
  -25.0114  -33.9768   25.0481 H   0  0  0  0  0  0
  -22.6968  -31.3147   21.4155 H   0  0  0  0  0  0
  -23.3760  -35.9626   23.3319 H   0  0  0  0  0  0
  -24.3578  -36.8903   22.2050 H   0  0  0  0  0  0
  -23.7232  -37.6507   23.6636 H   0  0  0  0  0  0
  -26.0757  -31.5759   20.6142 H   0  0  0  0  0  0
  -26.8269  -30.8496   22.0060 H   0  0  0  0  0  0
  -28.0819  -29.0048   21.2205 H   0  0  0  0  0  0
  -25.9838  -26.0153   18.9094 H   0  0  0  0  0  0
  -23.9625  -27.3491   18.9763 H   0  0  0  0  0  0
  -23.7327  -30.6181   19.4075 H   0  0  0  0  0  0
  -22.7354  -29.2684   19.8626 H   0  0  0  0  0  0
  -25.1290  -36.1971   25.0828 H   0  0  0  0  0  0
  -20.9943  -28.3324   24.1399 H   0  0  0  0  0  0
  -20.5697  -26.2333   23.3675 H   0  0  0  0  0  0
  -21.6678  -26.7451   22.1265 H   0  0  0  0  0  0
  -19.6954  -25.6206   21.1344 H   0  0  0  0  0  0
  -19.6714  -27.3081   20.6725 H   0  0  0  0  0  0
  -17.4225  -26.6588   21.4050 H   0  0  0  0  0  0
  -18.0369  -26.0062   22.9068 H   0  0  0  0  0  0
  -19.7944  -30.7278   24.2211 H   0  0  0  0  0  0
  -17.5028  -31.6281   24.5140 H   0  0  0  0  0  0
  -15.5361  -30.2998   23.7640 H   0  0  0  0  0  0
  -15.8666  -28.0822   22.7051 H   0  0  0  0  0  0
  -24.5899  -30.7077   25.7764 H   0  0  0  0  0  0
  -24.8925  -32.2884   26.4880 H   0  0  0  0  0  0
  -25.8058  -30.8881   27.0216 H   0  0  0  0  0  0
  -26.2927  -29.6774   24.1173 H   0  0  0  0  0  0
  -27.4077  -29.7291   25.4640 H   0  0  0  0  0  0
  -27.8772  -30.4350   23.9356 H   0  0  0  0  0  0
  -27.2693  -33.3596   26.2102 H   0  0  0  0  0  0
  -28.3860  -32.6892   25.0300 H   0  0  0  0  0  0
  -28.0745  -31.8399   26.5375 H   0  0  0  0  0  0
  -28.2612  -38.0100   24.7508 H   0  0  0  0  0  0
  -28.1070  -36.2635   24.6300 H   0  0  0  0  0  0
  -27.2296  -37.1463   25.8869 H   0  0  0  0  0  0
  -20.9335  -29.8795   21.6887 H   0  0  0  0  0  0
  -26.0193  -38.2880   24.1400 H   0  0  0  0  0  0
  -32.5253  -16.7886   20.5416 H   0  0  0  0  0  0
  -33.0521  -19.1441   20.4817 H   0  0  0  0  0  0
  -28.3951  -17.7483   21.4646 H   0  0  0  0  0  0
  -26.2921  -23.5650   21.9262 H   0  0  0  0  0  0
  -25.6777  -24.7970   20.8713 H   0  0  0  0  0  0
  -27.0093  -25.1660   21.9693 H   0  0  0  0  0  0
  -26.2387  -22.4156   19.5031 H   0  0  0  0  0  0
  -27.5136  -22.8347   18.3499 H   0  0  0  0  0  0
  -26.1431  -23.8888   18.5865 H   0  0  0  0  0  0
  -29.0422  -20.9130   22.5873 H   0  0  0  0  0  0
  -27.7595  -20.0295   21.8300 H   0  0  0  0  0  0
  -29.4198  -24.9948   19.4931 H   0  0  0  0  0  0
  -28.0631  -25.3456   18.5250 H   0  0  0  0  0  0
  -29.0817  -15.4175   21.3065 H   0  0  0  0  0  0
  -27.8139  -21.4109   19.9335 H   0  0  0  0  0  0
  1 25  1  0  0  0
  1 30  2  0  0  0
  1 83  1  0  0  0
  2  3  1  0  0  0
  2 25  1  0  0  0
  2 87  1  0  0  0
  2 88  1  0  0  0
  3  4  1  0  0  0
  3 89  1  0  0  0
  3 90  1  0  0  0
  4  5  1  0  0  0
  4 91  1  0  0  0
  4 92  1  0  0  0
  5  6  1  0  0  0
  5 26  1  0  0  0
  5 93  1  0  0  0
  6 25  1  0  0  0
  6 94  1  0  0  0
  6 95  1  0  0  0
  7  8  2  0  0  0
  7 26  1  0  0  0
  7 29  1  0  0  0
  8  9  1  0  0  0
  8 22  1  0  0  0
  9 10  1  0  0  0
  9 27  2  0  0  0
 10 11  2  0  0  0
 10 15  1  0  0  0
 11 12  1  0  0  0
 11 96  1  0  0  0
 12 13  2  0  0  0
 12 97  1  0  0  0
 13 14  1  0  0  0
 13 31  1  0  0  0
 14 15  2  0  0  0
 14 98  1  0  0  0
 15 99  1  0  0  0
 16 17  2  0  0  0
 16 21  1  0  0  0
 16 31  1  0  0  0
 17 18  1  0  0  0
 17100  1  0  0  0
 18 19  2  0  0  0
 18101  1  0  0  0
 19 20  1  0  0  0
 19 24  1  0  0  0
 20 21  2  0  0  0
 20102  1  0  0  0
 21 23  1  0  0  0
 22 28  1  0  0  0
 22 32  2  0  0  0
 26 27  1  0  0  0
 28103  1  0  0  0
 28104  1  0  0  0
 29105  1  0  0  0
 29106  1  0  0  0
 33 34  1  0  0  0
 33 66  1  0  0  0
 33 70  2  0  0  0
 34 36  1  0  0  0
 34 59  1  0  0  0
 34107  1  0  0  0
 35 44  2  0  0  0
 35 45  1  0  0  0
 35 68  1  0  0  0
 36 56  1  0  0  0
 36108  1  0  0  0
 37 39  1  0  0  0
 37 47  1  0  0  0
 37 66  1  0  0  0
 37109  1  0  0  0
 38 43  2  0  0  0
 38 46  1  0  0  0
 38 47  1  0  0  0
 39 64  1  0  0  0
 39 67  2  0  0  0
 40 52  1  0  0  0
 40 53  2  0  0  0
 40 58  1  0  0  0
 41110  1  0  0  0
 41111  1  0  0  0
 41112  1  0  0  0
 41 48  1  0  0  0
 42 43  1  0  0  0
 42 66  1  0  0  0
 42113  1  0  0  0
 42114  1  0  0  0
 43 44  1  0  0  0
 44115  1  0  0  0
 45 46  2  0  0  0
 45116  1  0  0  0
 46117  1  0  0  0
 47118  1  0  0  0
 47119  1  0  0  0
 48 56  1  0  0  0
 48 65  1  0  0  0
 48120  1  0  0  0
 49 50  1  0  0  0
 49 53  1  0  0  0
 49 64  1  0  0  0
 49121  1  0  0  0
 50 51  1  0  0  0
 50122  1  0  0  0
 50123  1  0  0  0
 51 52  1  0  0  0
 51124  1  0  0  0
 51125  1  0  0  0
 52126  1  0  0  0
 52127  1  0  0  0
 53 54  1  0  0  0
 54 55  2  0  0  0
 54128  1  0  0  0
 55 57  1  0  0  0
 55129  1  0  0  0
 56 69  2  0  0  0
 57 58  2  0  0  0
 57130  1  0  0  0
 58131  1  0  0  0
 59 60  1  0  0  0
 59 61  1  0  0  0
 59 62  1  0  0  0
 60132  1  0  0  0
 60133  1  0  0  0
 60134  1  0  0  0
 61135  1  0  0  0
 61136  1  0  0  0
 61137  1  0  0  0
 62138  1  0  0  0
 62139  1  0  0  0
 62140  1  0  0  0
 63 65  1  0  0  0
 63141  1  0  0  0
 63142  1  0  0  0
 63143  1  0  0  0
 64144  1  0  0  0
 65145  1  0  0  0
 68 81  1  0  0  0
 71 72  2  0  0  0
 71 75  1  0  0  0
 71146  1  0  0  0
 72 76  1  0  0  0
 72147  1  0  0  0
 73 74  1  0  0  0
 73 75  2  0  0  0
 73148  1  0  0  0
 74 76  2  0  0  0
 74 80  1  0  0  0
 75 83  1  0  0  0
 76 86  1  0  0  0
 77 82  1  0  0  0
 77 84  1  0  0  0
 77 85  2  0  0  0
 78149  1  0  0  0
 78150  1  0  0  0
 78151  1  0  0  0
 78 82  1  0  0  0
 79 82  1  0  0  0
 79152  1  0  0  0
 79153  1  0  0  0
 79154  1  0  0  0
 80 84  1  0  0  0
 80155  1  0  0  0
 80156  1  0  0  0
 81 82  1  0  0  0
 81157  1  0  0  0
 81158  1  0  0  0
 83159  1  0  0  0
 84160  1  0  0  0
M  ISO  4   1 100  68 101  81 101  83 100
M  END
> <chiral flag>
0

> <version>
0

> <s_m_source_file>
/data/baiqing/PycharmProjects/Reinvent-master-3.2/result/LINK_invent/BTK/process_docking_weight1_custom_product_contain_oxygen_bond_distance_aromatic_linkinvent_7_9_3/rearranged_h_0168.sdf

> <i_m_source_file_index>
44

> <r_mmod_Potential_Energy-OPLS-2005>
-38.921443939209

> <r_mmod_Stretch_Energy-OPLS-2005>
59.9464530944824

> <r_mmod_Bend_Energy-OPLS-2005>
133.3623046875

> <r_mmod_Torsional_Energy-OPLS-2005>
228.974639892578

> <r_mmod_Improper_Torsional_Energy-OPLS-2005>
6.36115407943726

> <r_mmod_Van_der_Waal_Energy-OPLS-2005>
168.899566650391

> <r_mmod_Electrostatic_Energy-OPLS-2005>
-427.339080810547

> <r_mmod_Solvation_Energy-OPLS-2005>
-237.714782714844

> <b_mmod_Minimization_Converged-OPLS-2005>
0

> <r_mmod_RMS_Derivative-OPLS-2005>
1.80620467662811

$$$$
44
                    3D
 Structure written by MMmdl.
170178  0  0  1  0            999 V2000
  -30.6776  -14.4853   20.5800 C   0  0  0  0  0  0
  -30.4336  -12.3123   19.4393 C   0  0  0  0  0  0
  -29.5087  -12.5020   18.2168 C   0  0  0  0  0  0
  -28.0263  -12.3633   18.6184 C   0  0  0  0  0  0
  -27.6644  -13.2043   19.8721 C   0  0  2  0  0  0
  -28.6979  -12.9796   20.9990 C   0  0  0  0  0  0
  -25.2607  -13.8159   20.5601 C   0  0  0  0  0  0
  -24.1864  -13.0446   20.9141 C   0  0  0  0  0  0
  -24.6417  -11.6912   20.8731 C   0  0  0  0  0  0
  -23.9077  -10.4299   21.0399 C   0  0  0  0  0  0
  -24.3631   -9.4215   21.9177 C   0  0  0  0  0  0
  -23.6293   -8.2254   22.0763 C   0  0  0  0  0  0
  -22.4274   -8.0291   21.3551 C   0  0  0  0  0  0
  -21.9909   -9.0265   20.4652 C   0  0  0  0  0  0
  -22.7240  -10.2145   20.3056 C   0  0  0  0  0  0
  -21.6854   -6.0727   22.5269 C   0  0  0  0  0  0
  -21.4010   -6.5637   23.8204 C   0  0  0  0  0  0
  -21.3659   -5.6799   24.9168 C   0  0  0  0  0  0
  -21.6048   -4.3058   24.7222 C   0  0  0  0  0  0
  -21.8828   -3.8130   23.4348 C   0  0  0  0  0  0
  -21.9198   -4.6944   22.3397 C   0  0  0  0  0  0
  -22.7884  -13.5259   21.1772 C   0  0  0  0  0  0
  -22.1666   -4.2130   21.0975 F   0  0  0  0  0  0
  -21.5629   -3.4556   25.7740 F   0  0  0  0  0  0
  -30.0365  -13.2899   20.4679 N   0  0  0  0  0  0
  -26.3048  -12.9325   20.3301 N   0  0  0  0  0  0
  -25.9346  -11.6497   20.5750 N   0  0  0  0  0  0
  -22.0522  -12.8284   22.0353 N   0  0  0  0  0  0
  -25.4338  -15.1864   20.3955 N   0  0  0  0  0  0
  -31.7754  -14.7079   20.0607 O   0  0  0  0  0  0
  -21.6638   -6.8878   21.4244 O   0  0  0  0  0  0
  -22.3573  -14.5538   20.6562 O   0  0  0  0  0  0
  -24.6149  -31.8712   23.2127 C   0  0  0  0  0  0
  -25.9055  -32.4829   23.8405 C   0  0  1  0  0  0
  -27.2389  -27.4467   20.0722 C   0  0  0  0  0  0
  -25.5905  -33.8622   24.2355 N   0  0  0  0  0  0
  -23.4003  -30.4964   21.5542 C   0  0  2  0  0  0
  -24.8421  -28.9604   20.1180 C   0  0  0  0  0  0
  -22.7399  -29.4703   22.5031 C   0  0  0  0  0  0
  -18.0273  -28.1356   22.8477 C   0  0  0  0  0  0
  -24.1487  -36.7322   23.2634 C   0  0  0  0  0  0
  -25.9309  -30.8315   21.3699 C   0  0  0  0  0  0
  -26.0024  -29.4676   20.7161 C   0  0  0  0  0  0
  -27.1953  -28.7121   20.7009 C   0  0  0  0  0  0
  -26.0554  -26.9577   19.4665 C   0  0  0  0  0  0
  -24.8616  -27.7007   19.4970 C   0  0  0  0  0  0
  -23.6070  -29.8300   20.1688 C   0  0  0  0  0  0
  -25.4096  -36.3133   24.0356 C   0  0  1  0  0  0
  -20.5844  -28.3677   23.1308 C   0  0  2  0  0  0
  -20.6762  -26.9420   22.5404 C   0  0  0  0  0  0
  -19.5757  -26.6370   21.5185 C   0  0  0  0  0  0
  -18.1931  -26.7896   22.1600 C   0  0  0  0  0  0
  -19.1512  -28.8827   23.2890 C   0  0  0  0  0  0
  -18.9459  -30.1421   23.8926 C   0  0  0  0  0  0
  -17.6464  -30.6574   24.0554 C   0  0  0  0  0  0
  -25.9023  -34.9488   23.5152 C   0  0  0  0  0  0
  -16.5353  -29.9085   23.6303 C   0  0  0  0  0  0
  -16.7265  -28.6485   23.0351 C   0  0  0  0  0  0
  -26.4466  -31.6592   25.0724 C   0  0  0  0  0  0
  -25.3731  -31.3747   26.1492 C   0  0  0  0  0  0
  -27.0280  -30.3017   24.6103 C   0  0  0  0  0  0
  -27.6060  -32.4308   25.7468 C   0  0  0  0  0  0
  -27.5594  -37.1807   24.8459 C   0  0  0  0  0  0
  -21.4142  -29.3051   22.3735 N   0  0  0  0  0  0
  -26.4302  -37.3795   23.9412 N   0  0  0  0  0  0
  -24.6673  -31.0798   22.1038 N   0  0  0  0  0  0
  -23.4172  -28.8242   23.3068 O   0  0  0  0  0  0
  -28.4417  -26.7662   20.0807 O   0  0  0  0  0  0
  -26.5592  -34.8940   22.4720 O   0  0  0  0  0  0
  -23.5342  -32.1505   23.7500 O   0  0  0  0  0  0
  -29.4631  -19.1878   21.4364 C   0  0  0  0  0  0
  -29.6521  -17.8325   21.8127 C   0  0  0  0  0  0
  -29.9329  -17.2225   19.4832 C   0  0  0  0  0  0
  -29.4829  -19.5732   20.0730 C   0  0  0  0  0  0
  -29.8940  -16.8313   20.8413 C   0  0  0  0  0  0
  -29.7241  -18.5634   19.1038 C   0  0  0  0  0  0
  -29.2265  -20.9733   19.6440 C   0  0  0  0  0  0
  -28.5509  -24.3047   20.2841 C   0  0  0  0  0  0
  -25.2460  -20.9789   19.4140 C   0  0  0  0  0  0
  -25.4670  -22.8467   17.7398 C   0  0  0  0  0  0
  -23.8409  -23.0341   19.6215 C   0  0  0  0  0  0
  -28.5871  -25.5376   19.3530 C   0  0  0  0  0  0
  -26.2739  -23.2029   20.1512 C   0  0  0  0  0  0
  -27.7768  -23.0668   19.7741 C   0  0  2  0  0  0
  -25.2341  -22.5095   19.2263 C   0  0  0  0  0  0
  -29.9990  -15.4559   21.2309 N   0  0  0  0  0  0
  -28.3387  -21.7757   20.2716 N   0  0  0  0  0  0
  -29.8425  -21.4656   18.5661 N   0  3  0  0  0  0
  -29.1220  -24.3217   21.3783 O   0  0  0  0  0  0
  -29.7483  -18.8661   17.7818 F   0  0  0  0  0  0
  -31.4786  -12.4248   19.1442 H   0  0  0  0  0  0
  -30.3522  -11.2998   19.8369 H   0  0  0  0  0  0
  -29.7567  -11.7774   17.4393 H   0  0  0  0  0  0
  -29.6820  -13.4854   17.7781 H   0  0  0  0  0  0
  -27.8326  -11.3086   18.8128 H   0  0  0  0  0  0
  -27.3830  -12.6341   17.7801 H   0  0  0  0  0  0
  -27.7096  -14.2512   19.5731 H   0  0  0  0  0  0
  -28.6700  -11.9411   21.3324 H   0  0  0  0  0  0
  -28.4418  -13.5721   21.8783 H   0  0  0  0  0  0
  -25.2803   -9.5679   22.4729 H   0  0  0  0  0  0
  -23.9984   -7.4661   22.7505 H   0  0  0  0  0  0
  -21.0834   -8.8800   19.8976 H   0  0  0  0  0  0
  -22.3711  -10.9676   19.6148 H   0  0  0  0  0  0
  -21.2002   -7.6153   23.9699 H   0  0  0  0  0  0
  -21.1461   -6.0527   25.9069 H   0  0  0  0  0  0
  -22.0600   -2.7588   23.2860 H   0  0  0  0  0  0
  -22.4124  -11.9984   22.4826 H   0  0  0  0  0  0
  -21.1123  -13.1302   22.2484 H   0  0  0  0  0  0
  -24.6659  -15.8435   20.4793 H   0  0  0  0  0  0
  -26.2848  -15.6117   20.0533 H   0  0  0  0  0  0
  -26.7119  -32.5535   23.1158 H   0  0  0  0  0  0
  -25.0087  -33.9772   25.0523 H   0  0  0  0  0  0
  -22.6928  -31.3162   21.4129 H   0  0  0  0  0  0
  -23.3759  -35.9643   23.3293 H   0  0  0  0  0  0
  -24.3618  -36.8925   22.2050 H   0  0  0  0  0  0
  -23.7203  -37.6517   23.6635 H   0  0  0  0  0  0
  -26.0531  -31.6037   20.6078 H   0  0  0  0  0  0
  -26.8165  -30.8780   21.9924 H   0  0  0  0  0  0
  -28.0908  -29.1014   21.1655 H   0  0  0  0  0  0
  -26.0207  -26.0171   18.9442 H   0  0  0  0  0  0
  -23.9687  -27.3070   19.0277 H   0  0  0  0  0  0
  -23.7224  -30.6082   19.4132 H   0  0  0  0  0  0
  -22.7281  -29.2566   19.8683 H   0  0  0  0  0  0
  -25.1251  -36.2023   25.0845 H   0  0  0  0  0  0
  -20.9928  -28.3233   24.1426 H   0  0  0  0  0  0
  -20.5630  -26.2303   23.3601 H   0  0  0  0  0  0
  -21.6651  -26.7445   22.1223 H   0  0  0  0  0  0
  -19.6957  -25.6283   21.1224 H   0  0  0  0  0  0
  -19.6682  -27.3181   20.6711 H   0  0  0  0  0  0
  -17.4188  -26.6651   21.4012 H   0  0  0  0  0  0
  -18.0358  -26.0025   22.8990 H   0  0  0  0  0  0
  -19.7952  -30.7196   24.2348 H   0  0  0  0  0  0
  -17.5039  -31.6263   24.5152 H   0  0  0  0  0  0
  -15.5365  -30.3007   23.7594 H   0  0  0  0  0  0
  -15.8664  -28.0796   22.7078 H   0  0  0  0  0  0
  -24.5822  -30.7174   25.7859 H   0  0  0  0  0  0
  -24.9017  -32.2936   26.4998 H   0  0  0  0  0  0
  -25.8066  -30.8865   27.0223 H   0  0  0  0  0  0
  -26.2843  -29.6779   24.1121 H   0  0  0  0  0  0
  -27.4023  -29.7228   25.4553 H   0  0  0  0  0  0
  -27.8687  -30.4333   23.9284 H   0  0  0  0  0  0
  -27.2673  -33.3567   26.2138 H   0  0  0  0  0  0
  -28.3799  -32.6944   25.0245 H   0  0  0  0  0  0
  -28.0799  -31.8374   26.5299 H   0  0  0  0  0  0
  -28.2607  -38.0112   24.7521 H   0  0  0  0  0  0
  -28.1104  -36.2646   24.6258 H   0  0  0  0  0  0
  -27.2338  -37.1417   25.8871 H   0  0  0  0  0  0
  -20.9330  -29.8803   21.6971 H   0  0  0  0  0  0
  -26.0218  -38.2894   24.1375 H   0  0  0  0  0  0
  -29.2921  -19.9214   22.2115 H   0  0  0  0  0  0
  -29.6096  -17.5673   22.8611 H   0  0  0  0  0  0
  -30.0933  -16.4938   18.7027 H   0  0  0  0  0  0
  -24.4490  -20.5044   18.8391 H   0  0  0  0  0  0
  -25.0992  -20.7010   20.4584 H   0  0  0  0  0  0
  -26.1837  -20.5343   19.0831 H   0  0  0  0  0  0
  -24.6663  -22.4459   17.1162 H   0  0  0  0  0  0
  -26.3928  -22.4161   17.3583 H   0  0  0  0  0  0
  -25.5048  -23.9249   17.5739 H   0  0  0  0  0  0
  -23.0538  -22.5669   19.0296 H   0  0  0  0  0  0
  -23.7608  -24.1106   19.4644 H   0  0  0  0  0  0
  -23.6233  -22.8417   20.6730 H   0  0  0  0  0  0
  -27.8885  -25.4359   18.5251 H   0  0  0  0  0  0
  -29.5719  -25.5649   18.8884 H   0  0  0  0  0  0
  -26.0136  -24.2586   20.2160 H   0  0  0  0  0  0
  -26.1317  -22.8423   21.1712 H   0  0  0  0  0  0
  -27.8679  -23.0841   18.6904 H   0  0  0  0  0  0
  -29.2877  -15.1332   21.8669 H   0  0  0  0  0  0
  -28.0714  -21.5081   21.2082 H   0  0  0  0  0  0
  -30.3874  -20.8287   17.9998 H   0  0  0  0  0  0
  -29.6737  -22.3927   18.2226 H   0  0  0  0  0  0
  1 25  1  0  0  0
  1 30  2  0  0  0
  1 86  1  0  0  0
  2  3  1  0  0  0
  2 25  1  0  0  0
  2 91  1  0  0  0
  2 92  1  0  0  0
  3  4  1  0  0  0
  3 93  1  0  0  0
  3 94  1  0  0  0
  4  5  1  0  0  0
  4 95  1  0  0  0
  4 96  1  0  0  0
  5  6  1  0  0  0
  5 26  1  0  0  0
  5 97  1  0  0  0
  6 25  1  0  0  0
  6 98  1  0  0  0
  6 99  1  0  0  0
  7  8  2  0  0  0
  7 26  1  0  0  0
  7 29  1  0  0  0
  8  9  1  0  0  0
  8 22  1  0  0  0
  9 10  1  0  0  0
  9 27  2  0  0  0
 10 11  2  0  0  0
 10 15  1  0  0  0
 11 12  1  0  0  0
 11100  1  0  0  0
 12 13  2  0  0  0
 12101  1  0  0  0
 13 14  1  0  0  0
 13 31  1  0  0  0
 14 15  2  0  0  0
 14102  1  0  0  0
 15103  1  0  0  0
 16 17  2  0  0  0
 16 21  1  0  0  0
 16 31  1  0  0  0
 17 18  1  0  0  0
 17104  1  0  0  0
 18 19  2  0  0  0
 18105  1  0  0  0
 19 20  1  0  0  0
 19 24  1  0  0  0
 20 21  2  0  0  0
 20106  1  0  0  0
 21 23  1  0  0  0
 22 28  1  0  0  0
 22 32  2  0  0  0
 26 27  1  0  0  0
 28107  1  0  0  0
 28108  1  0  0  0
 29109  1  0  0  0
 29110  1  0  0  0
 33 34  1  0  0  0
 33 66  1  0  0  0
 33 70  2  0  0  0
 34 36  1  0  0  0
 34 59  1  0  0  0
 34111  1  0  0  0
 35 44  2  0  0  0
 35 45  1  0  0  0
 35 68  1  0  0  0
 36 56  1  0  0  0
 36112  1  0  0  0
 37 39  1  0  0  0
 37 47  1  0  0  0
 37 66  1  0  0  0
 37113  1  0  0  0
 38 43  2  0  0  0
 38 46  1  0  0  0
 38 47  1  0  0  0
 39 64  1  0  0  0
 39 67  2  0  0  0
 40 52  1  0  0  0
 40 53  2  0  0  0
 40 58  1  0  0  0
 41114  1  0  0  0
 41115  1  0  0  0
 41116  1  0  0  0
 41 48  1  0  0  0
 42 43  1  0  0  0
 42 66  1  0  0  0
 42117  1  0  0  0
 42118  1  0  0  0
 43 44  1  0  0  0
 44119  1  0  0  0
 45 46  2  0  0  0
 45120  1  0  0  0
 46121  1  0  0  0
 47122  1  0  0  0
 47123  1  0  0  0
 48 56  1  0  0  0
 48 65  1  0  0  0
 48124  1  0  0  0
 49 50  1  0  0  0
 49 53  1  0  0  0
 49 64  1  0  0  0
 49125  1  0  0  0
 50 51  1  0  0  0
 50126  1  0  0  0
 50127  1  0  0  0
 51 52  1  0  0  0
 51128  1  0  0  0
 51129  1  0  0  0
 52130  1  0  0  0
 52131  1  0  0  0
 53 54  1  0  0  0
 54 55  2  0  0  0
 54132  1  0  0  0
 55 57  1  0  0  0
 55133  1  0  0  0
 56 69  2  0  0  0
 57 58  2  0  0  0
 57134  1  0  0  0
 58135  1  0  0  0
 59 60  1  0  0  0
 59 61  1  0  0  0
 59 62  1  0  0  0
 60136  1  0  0  0
 60137  1  0  0  0
 60138  1  0  0  0
 61139  1  0  0  0
 61140  1  0  0  0
 61141  1  0  0  0
 62142  1  0  0  0
 62143  1  0  0  0
 62144  1  0  0  0
 63 65  1  0  0  0
 63145  1  0  0  0
 63146  1  0  0  0
 63147  1  0  0  0
 64148  1  0  0  0
 65149  1  0  0  0
 68 82  1  0  0  0
 71 72  2  0  0  0
 71 74  1  0  0  0
 71150  1  0  0  0
 72 75  1  0  0  0
 72151  1  0  0  0
 73 75  2  0  0  0
 73 76  1  0  0  0
 73152  1  0  0  0
 74 76  2  0  0  0
 74 77  1  0  0  0
 75 86  1  0  0  0
 76 90  1  0  0  0
 77 87  1  0  0  0
 77 88  2  0  0  0
 78 82  1  0  0  0
 78 84  1  0  0  0
 78 89  2  0  0  0
 79153  1  0  0  0
 79154  1  0  0  0
 79155  1  0  0  0
 79 85  1  0  0  0
 80 85  1  0  0  0
 80156  1  0  0  0
 80157  1  0  0  0
 80158  1  0  0  0
 81 85  1  0  0  0
 81159  1  0  0  0
 81160  1  0  0  0
 81161  1  0  0  0
 82162  1  0  0  0
 82163  1  0  0  0
 83 85  1  0  0  0
 83164  1  0  0  0
 83165  1  0  0  0
 83 84  1  0  0  0
 84 87  1  0  0  0
 84166  1  0  0  0
 86167  1  0  0  0
 87168  1  0  0  0
 88169  1  0  0  0
 88170  1  0  0  0
M  CHG  1  88   1
M  ISO  4   1 100  68 101  82 101  86 100
M  END
> <chiral flag>
0

> <version>
0

> <s_m_source_file>
/data/baiqing/PycharmProjects/Reinvent-master-3.2/result/LINK_invent/BTK/process_docking_weight1_custom_product_contain_oxygen_bond_distance_aromatic_linkinvent_7_9_3/rearranged_h_0168.sdf

> <i_m_source_file_index>
45

> <r_mmod_Potential_Energy-OPLS-2005>
-196.627075195312

> <r_mmod_Stretch_Energy-OPLS-2005>
42.8064727783203

> <r_mmod_Bend_Energy-OPLS-2005>
112.486862182617

> <r_mmod_Torsional_Energy-OPLS-2005>
246.537170410156

> <r_mmod_Improper_Torsional_Energy-OPLS-2005>
4.45145845413208

> <r_mmod_Van_der_Waal_Energy-OPLS-2005>
153.887008666992

> <r_mmod_Electrostatic_Energy-OPLS-2005>
-327.542358398438

> <r_mmod_Solvation_Energy-OPLS-2005>
-442.408264160156

> <b_mmod_Minimization_Converged-OPLS-2005>
0

> <r_mmod_RMS_Derivative-OPLS-2005>
3.5156512260437

$$$$
45
                    3D
 Structure written by MMmdl.
155163  0  0  1  0            999 V2000
  -30.7072  -14.4795   20.5082 C   0  0  0  0  0  0
  -30.4097  -12.2918   19.4302 C   0  0  0  0  0  0
  -29.4928  -12.4942   18.2066 C   0  0  0  0  0  0
  -28.0120  -12.3659   18.6147 C   0  0  0  0  0  0
  -27.6555  -13.2146   19.8660 C   0  0  2  0  0  0
  -28.6982  -13.0233   20.9913 C   0  0  0  0  0  0
  -25.2560  -13.8180   20.5671 C   0  0  0  0  0  0
  -24.1824  -13.0441   20.9181 C   0  0  0  0  0  0
  -24.6391  -11.6914   20.8730 C   0  0  0  0  0  0
  -23.9057  -10.4297   21.0402 C   0  0  0  0  0  0
  -24.3614   -9.4215   21.9175 C   0  0  0  0  0  0
  -23.6296   -8.2247   22.0742 C   0  0  0  0  0  0
  -22.4277   -8.0280   21.3537 C   0  0  0  0  0  0
  -21.9907   -9.0250   20.4638 C   0  0  0  0  0  0
  -22.7229  -10.2134   20.3053 C   0  0  0  0  0  0
  -21.6856   -6.0735   22.5282 C   0  0  0  0  0  0
  -21.4011   -6.5640   23.8215 C   0  0  0  0  0  0
  -21.3663   -5.6794   24.9177 C   0  0  0  0  0  0
  -21.6047   -4.3057   24.7228 C   0  0  0  0  0  0
  -21.8820   -3.8148   23.4348 C   0  0  0  0  0  0
  -21.9190   -4.6962   22.3404 C   0  0  0  0  0  0
  -22.7849  -13.5236   21.1850 C   0  0  0  0  0  0
  -22.1660   -4.2153   21.0981 F   0  0  0  0  0  0
  -21.5634   -3.4537   25.7740 F   0  0  0  0  0  0
  -30.0286  -13.3021   20.4304 N   0  0  0  0  0  0
  -26.2990  -12.9359   20.3328 N   0  0  0  0  0  0
  -25.9314  -11.6509   20.5741 N   0  0  0  0  0  0
  -22.0492  -12.8226   22.0412 N   0  0  0  0  0  0
  -25.4263  -15.1892   20.4069 N   0  0  0  0  0  0
  -31.8771  -14.5711   20.1306 O   0  0  0  0  0  0
  -21.6636   -6.8879   21.4245 O   0  0  0  0  0  0
  -22.3527  -14.5538   20.6706 O   0  0  0  0  0  0
  -24.6150  -31.8702   23.2105 C   0  0  0  0  0  0
  -25.9047  -32.4830   23.8399 C   0  0  1  0  0  0
  -27.2234  -27.4354   20.0961 C   0  0  0  0  0  0
  -25.5913  -33.8624   24.2342 N   0  0  0  0  0  0
  -23.4025  -30.4967   21.5518 C   0  0  2  0  0  0
  -24.8475  -28.9708   20.1081 C   0  0  0  0  0  0
  -22.7426  -29.4682   22.4986 C   0  0  0  0  0  0
  -18.0289  -28.1382   22.8495 C   0  0  0  0  0  0
  -24.1494  -36.7316   23.2639 C   0  0  0  0  0  0
  -25.9337  -30.8367   21.3647 C   0  0  0  0  0  0
  -26.0107  -29.4754   20.7039 C   0  0  0  0  0  0
  -27.2061  -28.7174   20.6914 C   0  0  0  0  0  0
  -26.0439  -26.9548   19.4803 C   0  0  0  0  0  0
  -24.8600  -27.7108   19.4896 C   0  0  0  0  0  0
  -23.6080  -29.8351   20.1644 C   0  0  0  0  0  0
  -25.4110  -36.3118   24.0346 C   0  0  1  0  0  0
  -20.5885  -28.3672   23.1318 C   0  0  2  0  0  0
  -20.6783  -26.9404   22.5423 C   0  0  0  0  0  0
  -19.5752  -26.6385   21.5224 C   0  0  0  0  0  0
  -18.1935  -26.7936   22.1628 C   0  0  0  0  0  0
  -19.1541  -28.8841   23.2907 C   0  0  0  0  0  0
  -18.9457  -30.1451   23.8903 C   0  0  0  0  0  0
  -17.6457  -30.6584   24.0560 C   0  0  0  0  0  0
  -25.9039  -34.9482   23.5142 C   0  0  0  0  0  0
  -16.5351  -29.9077   23.6329 C   0  0  0  0  0  0
  -16.7277  -28.6502   23.0341 C   0  0  0  0  0  0
  -26.4463  -31.6599   25.0726 C   0  0  0  0  0  0
  -25.3720  -31.3692   26.1468 C   0  0  0  0  0  0
  -27.0295  -30.3051   24.6082 C   0  0  0  0  0  0
  -27.6054  -32.4304   25.7472 C   0  0  0  0  0  0
  -27.5581  -37.1817   24.8469 C   0  0  0  0  0  0
  -21.4160  -29.3034   22.3715 N   0  0  0  0  0  0
  -26.4301  -37.3795   23.9403 N   0  0  0  0  0  0
  -24.6690  -31.0816   22.1001 N   0  0  0  0  0  0
  -23.4210  -28.8232   23.3025 O   0  0  0  0  0  0
  -28.3452  -26.6341   20.1548 O   0  0  0  0  0  0
  -26.5592  -34.8927   22.4699 O   0  0  0  0  0  0
  -23.5347  -32.1451   23.7507 O   0  0  0  0  0  0
  -29.2183  -17.9131   20.8907 C   0  0  0  0  0  0
  -31.3348  -17.4463   19.8553 C   0  0  0  0  0  0
  -30.1978  -16.9532   20.5395 C   0  0  0  0  0  0
  -29.4044  -19.2719   20.5365 C   0  0  0  0  0  0
  -31.4359  -18.8088   19.5375 C   0  0  0  0  0  0
  -28.9698  -24.1300   20.6148 C   0  0  0  0  0  0
  -28.3710  -22.8119   21.1950 C   0  0  0  0  0  0
  -27.0983  -20.0999   19.9461 C   0  0  0  0  0  0
  -27.9858  -25.3165   20.6134 C   0  0  0  0  0  0
  -28.3359  -20.3281   20.8314 C   0  0  2  0  0  0
  -30.4864  -19.7054   19.8547 N   0  0  0  0  0  0
  -29.9738  -15.5633   20.8555 N   0  0  0  0  0  0
  -28.8348  -21.6933   20.6165 N   0  0  0  0  0  0
  -30.1262  -24.2070   20.1731 O   0  0  0  0  0  0
  -27.5070  -22.8101   22.0779 O   0  0  0  0  0  0
  -32.5278  -19.2505   18.8720 F   0  0  0  0  0  0
  -31.4576  -12.3614   19.1319 H   0  0  0  0  0  0
  -30.2837  -11.2887   19.8419 H   0  0  0  0  0  0
  -29.7312  -11.7667   17.4293 H   0  0  0  0  0  0
  -29.6716  -13.4777   17.7698 H   0  0  0  0  0  0
  -27.8152  -11.3112   18.8110 H   0  0  0  0  0  0
  -27.3686  -12.6416   17.7786 H   0  0  0  0  0  0
  -27.6895  -14.2581   19.5530 H   0  0  0  0  0  0
  -28.6666  -12.0000   21.3689 H   0  0  0  0  0  0
  -28.4721  -13.6633   21.8458 H   0  0  0  0  0  0
  -25.2764   -9.5694   22.4736 H   0  0  0  0  0  0
  -24.0013   -7.4640   22.7457 H   0  0  0  0  0  0
  -21.0838   -8.8762   19.8945 H   0  0  0  0  0  0
  -22.3683  -10.9665   19.6159 H   0  0  0  0  0  0
  -21.1998   -7.6148   23.9724 H   0  0  0  0  0  0
  -21.1487   -6.0518   25.9082 H   0  0  0  0  0  0
  -22.0593   -2.7608   23.2846 H   0  0  0  0  0  0
  -22.4113  -11.9899   22.4822 H   0  0  0  0  0  0
  -21.1103  -13.1237   22.2608 H   0  0  0  0  0  0
  -24.6549  -15.8405   20.5069 H   0  0  0  0  0  0
  -26.2717  -15.6295   20.0680 H   0  0  0  0  0  0
  -26.7115  -32.5539   23.1159 H   0  0  0  0  0  0
  -25.0078  -33.9781   25.0498 H   0  0  0  0  0  0
  -22.6909  -31.3144   21.4176 H   0  0  0  0  0  0
  -23.3750  -35.9661   23.3339 H   0  0  0  0  0  0
  -24.3582  -36.8889   22.2044 H   0  0  0  0  0  0
  -23.7261  -37.6540   23.6624 H   0  0  0  0  0  0
  -26.0522  -31.6065   20.6014 H   0  0  0  0  0  0
  -26.8178  -30.8822   21.9884 H   0  0  0  0  0  0
  -28.1009  -29.0946   21.1670 H   0  0  0  0  0  0
  -26.0242  -25.9875   18.9981 H   0  0  0  0  0  0
  -23.9671  -27.3190   19.0216 H   0  0  0  0  0  0
  -23.7108  -30.6122   19.4057 H   0  0  0  0  0  0
  -22.7315  -29.2553   19.8686 H   0  0  0  0  0  0
  -25.1290  -36.1989   25.0840 H   0  0  0  0  0  0
  -20.9979  -28.3237   24.1441 H   0  0  0  0  0  0
  -20.5720  -26.2263   23.3606 H   0  0  0  0  0  0
  -21.6646  -26.7469   22.1187 H   0  0  0  0  0  0
  -19.6913  -25.6303   21.1235 H   0  0  0  0  0  0
  -19.6696  -27.3211   20.6772 H   0  0  0  0  0  0
  -17.4214  -26.6706   21.4018 H   0  0  0  0  0  0
  -18.0309  -26.0075   22.9012 H   0  0  0  0  0  0
  -19.7929  -30.7273   24.2266 H   0  0  0  0  0  0
  -17.5007  -31.6260   24.5161 H   0  0  0  0  0  0
  -15.5349  -30.2966   23.7653 H   0  0  0  0  0  0
  -15.8689  -28.0820   22.7036 H   0  0  0  0  0  0
  -24.5913  -30.7025   25.7786 H   0  0  0  0  0  0
  -24.8876  -32.2833   26.4908 H   0  0  0  0  0  0
  -25.8061  -30.8860   27.0230 H   0  0  0  0  0  0
  -26.2834  -29.6813   24.1145 H   0  0  0  0  0  0
  -27.4094  -29.7281   25.4523 H   0  0  0  0  0  0
  -27.8659  -30.4389   23.9217 H   0  0  0  0  0  0
  -27.2707  -33.3608   26.2069 H   0  0  0  0  0  0
  -28.3842  -32.6854   25.0271 H   0  0  0  0  0  0
  -28.0747  -31.8411   26.5355 H   0  0  0  0  0  0
  -28.2626  -38.0088   24.7498 H   0  0  0  0  0  0
  -28.1059  -36.2627   24.6333 H   0  0  0  0  0  0
  -27.2305  -37.1516   25.8875 H   0  0  0  0  0  0
  -20.9325  -29.8744   21.6921 H   0  0  0  0  0  0
  -26.0209  -38.2889   24.1373 H   0  0  0  0  0  0
  -28.3146  -17.6196   21.4083 H   0  0  0  0  0  0
  -32.1491  -16.8152   19.5400 H   0  0  0  0  0  0
  -26.3053  -20.8096   20.1805 H   0  0  0  0  0  0
  -26.6885  -19.1003   20.0919 H   0  0  0  0  0  0
  -27.3409  -20.2078   18.8886 H   0  0  0  0  0  0
  -28.0764  -25.1185   19.5442 H   0  0  0  0  0  0
  -28.6415  -25.6185   21.4314 H   0  0  0  0  0  0
  -28.0496  -20.2114   21.8781 H   0  0  0  0  0  0
  -29.0619  -15.3421   21.2225 H   0  0  0  0  0  0
  -29.6041  -21.7731   19.9627 H   0  0  0  0  0  0
  1 25  1  0  0  0
  1 30  2  0  0  0
  1 82  1  0  0  0
  2  3  1  0  0  0
  2 25  1  0  0  0
  2 87  1  0  0  0
  2 88  1  0  0  0
  3  4  1  0  0  0
  3 89  1  0  0  0
  3 90  1  0  0  0
  4  5  1  0  0  0
  4 91  1  0  0  0
  4 92  1  0  0  0
  5  6  1  0  0  0
  5 26  1  0  0  0
  5 93  1  0  0  0
  6 25  1  0  0  0
  6 94  1  0  0  0
  6 95  1  0  0  0
  7  8  2  0  0  0
  7 26  1  0  0  0
  7 29  1  0  0  0
  8  9  1  0  0  0
  8 22  1  0  0  0
  9 10  1  0  0  0
  9 27  2  0  0  0
 10 11  2  0  0  0
 10 15  1  0  0  0
 11 12  1  0  0  0
 11 96  1  0  0  0
 12 13  2  0  0  0
 12 97  1  0  0  0
 13 14  1  0  0  0
 13 31  1  0  0  0
 14 15  2  0  0  0
 14 98  1  0  0  0
 15 99  1  0  0  0
 16 17  2  0  0  0
 16 21  1  0  0  0
 16 31  1  0  0  0
 17 18  1  0  0  0
 17100  1  0  0  0
 18 19  2  0  0  0
 18101  1  0  0  0
 19 20  1  0  0  0
 19 24  1  0  0  0
 20 21  2  0  0  0
 20102  1  0  0  0
 21 23  1  0  0  0
 22 28  1  0  0  0
 22 32  2  0  0  0
 26 27  1  0  0  0
 28103  1  0  0  0
 28104  1  0  0  0
 29105  1  0  0  0
 29106  1  0  0  0
 33 34  1  0  0  0
 33 66  1  0  0  0
 33 70  2  0  0  0
 34 36  1  0  0  0
 34 59  1  0  0  0
 34107  1  0  0  0
 35 44  2  0  0  0
 35 45  1  0  0  0
 35 68  1  0  0  0
 36 56  1  0  0  0
 36108  1  0  0  0
 37 39  1  0  0  0
 37 47  1  0  0  0
 37 66  1  0  0  0
 37109  1  0  0  0
 38 43  2  0  0  0
 38 46  1  0  0  0
 38 47  1  0  0  0
 39 64  1  0  0  0
 39 67  2  0  0  0
 40 52  1  0  0  0
 40 53  2  0  0  0
 40 58  1  0  0  0
 41110  1  0  0  0
 41111  1  0  0  0
 41112  1  0  0  0
 41 48  1  0  0  0
 42 43  1  0  0  0
 42 66  1  0  0  0
 42113  1  0  0  0
 42114  1  0  0  0
 43 44  1  0  0  0
 44115  1  0  0  0
 45 46  2  0  0  0
 45116  1  0  0  0
 46117  1  0  0  0
 47118  1  0  0  0
 47119  1  0  0  0
 48 56  1  0  0  0
 48 65  1  0  0  0
 48120  1  0  0  0
 49 50  1  0  0  0
 49 53  1  0  0  0
 49 64  1  0  0  0
 49121  1  0  0  0
 50 51  1  0  0  0
 50122  1  0  0  0
 50123  1  0  0  0
 51 52  1  0  0  0
 51124  1  0  0  0
 51125  1  0  0  0
 52126  1  0  0  0
 52127  1  0  0  0
 53 54  1  0  0  0
 54 55  2  0  0  0
 54128  1  0  0  0
 55 57  1  0  0  0
 55129  1  0  0  0
 56 69  2  0  0  0
 57 58  2  0  0  0
 57130  1  0  0  0
 58131  1  0  0  0
 59 60  1  0  0  0
 59 61  1  0  0  0
 59 62  1  0  0  0
 60132  1  0  0  0
 60133  1  0  0  0
 60134  1  0  0  0
 61135  1  0  0  0
 61136  1  0  0  0
 61137  1  0  0  0
 62138  1  0  0  0
 62139  1  0  0  0
 62140  1  0  0  0
 63 65  1  0  0  0
 63141  1  0  0  0
 63142  1  0  0  0
 63143  1  0  0  0
 64144  1  0  0  0
 65145  1  0  0  0
 68 79  1  0  0  0
 71 73  2  0  0  0
 71 74  1  0  0  0
 71146  1  0  0  0
 72 73  1  0  0  0
 72 75  2  0  0  0
 72147  1  0  0  0
 73 82  1  0  0  0
 74 80  1  0  0  0
 74 81  2  0  0  0
 75 81  1  0  0  0
 75 86  1  0  0  0
 76 77  1  0  0  0
 76 79  1  0  0  0
 76 84  2  0  0  0
 77 83  1  0  0  0
 77 85  2  0  0  0
 78148  1  0  0  0
 78149  1  0  0  0
 78150  1  0  0  0
 78 80  1  0  0  0
 79151  1  0  0  0
 79152  1  0  0  0
 80 83  1  0  0  0
 80153  1  0  0  0
 82154  1  0  0  0
 83155  1  0  0  0
M  ISO  4   1 100  68 101  79 101  82 100
M  END
> <chiral flag>
0

> <version>
0

> <s_m_source_file>
/data/baiqing/PycharmProjects/Reinvent-master-3.2/result/LINK_invent/BTK/process_docking_weight1_custom_product_contain_oxygen_bond_distance_aromatic_linkinvent_7_9_3/rearranged_h_0168.sdf

> <i_m_source_file_index>
46

> <r_mmod_Potential_Energy-OPLS-2005>
-47.9930877685547

> <r_mmod_Stretch_Energy-OPLS-2005>
39.2133178710938

> <r_mmod_Bend_Energy-OPLS-2005>
310.352386474609

> <r_mmod_Torsional_Energy-OPLS-2005>
221.208602905273

> <r_mmod_Improper_Torsional_Energy-OPLS-2005>
4.84164142608643

> <r_mmod_Van_der_Waal_Energy-OPLS-2005>
169.356521606445

> <r_mmod_Electrostatic_Energy-OPLS-2005>
-573.209594726562

> <r_mmod_Solvation_Energy-OPLS-2005>
-239.365356445312

> <b_mmod_Minimization_Converged-OPLS-2005>
0

> <r_mmod_RMS_Derivative-OPLS-2005>
1.55507957935333

$$$$
46
                    3D
 Structure written by MMmdl.
164172  0  0  1  0            999 V2000
  -30.6704  -14.5809   20.4338 C   0  0  0  0  0  0
  -30.4125  -12.3385   19.4542 C   0  0  0  0  0  0
  -29.4826  -12.4275   18.2256 C   0  0  0  0  0  0
  -28.0033  -12.3200   18.6389 C   0  0  0  0  0  0
  -27.6379  -13.2186   19.8522 C   0  0  2  0  0  0
  -28.6866  -13.1091   20.9823 C   0  0  0  0  0  0
  -25.2467  -13.8221   20.5765 C   0  0  0  0  0  0
  -24.1750  -13.0474   20.9313 C   0  0  0  0  0  0
  -24.6315  -11.6955   20.8824 C   0  0  0  0  0  0
  -23.8994  -10.4335   21.0418 C   0  0  0  0  0  0
  -24.3560   -9.4260   21.9180 C   0  0  0  0  0  0
  -23.6284   -8.2266   22.0713 C   0  0  0  0  0  0
  -22.4279   -8.0281   21.3501 C   0  0  0  0  0  0
  -21.9891   -9.0245   20.4611 C   0  0  0  0  0  0
  -22.7178  -10.2158   20.3045 C   0  0  0  0  0  0
  -21.6870   -6.0753   22.5283 C   0  0  0  0  0  0
  -21.4046   -6.5644   23.8230 C   0  0  0  0  0  0
  -21.3653   -5.6784   24.9170 C   0  0  0  0  0  0
  -21.6032   -4.3041   24.7218 C   0  0  0  0  0  0
  -21.8828   -3.8159   23.4328 C   0  0  0  0  0  0
  -21.9200   -4.6980   22.3400 C   0  0  0  0  0  0
  -22.7768  -13.5249   21.1957 C   0  0  0  0  0  0
  -22.1667   -4.2172   21.0975 F   0  0  0  0  0  0
  -21.5586   -3.4521   25.7717 F   0  0  0  0  0  0
  -30.0081  -13.3903   20.4013 N   0  0  0  0  0  0
  -26.2882  -12.9393   20.3353 N   0  0  0  0  0  0
  -25.9242  -11.6565   20.5865 N   0  0  0  0  0  0
  -22.0341  -12.8243   22.0477 N   0  0  0  0  0  0
  -25.4146  -15.1946   20.4148 N   0  0  0  0  0  0
  -31.8711  -14.6718   20.1721 O   0  0  0  0  0  0
  -21.6649   -6.8874   21.4236 O   0  0  0  0  0  0
  -22.3501  -14.5559   20.6780 O   0  0  0  0  0  0
  -24.6128  -31.8620   23.2090 C   0  0  0  0  0  0
  -25.9010  -32.4826   23.8364 C   0  0  1  0  0  0
  -27.2297  -27.3914   20.1061 C   0  0  0  0  0  0
  -25.5814  -33.8631   24.2242 N   0  0  0  0  0  0
  -23.4010  -30.4869   21.5511 C   0  0  2  0  0  0
  -24.8465  -28.9509   20.1149 C   0  0  0  0  0  0
  -22.7388  -29.4618   22.5004 C   0  0  0  0  0  0
  -18.0238  -28.1367   22.8483 C   0  0  0  0  0  0
  -24.1436  -36.7316   23.2651 C   0  0  0  0  0  0
  -25.9341  -30.8168   21.3679 C   0  0  0  0  0  0
  -26.0091  -29.4498   20.7130 C   0  0  0  0  0  0
  -27.1977  -28.6794   20.7054 C   0  0  0  0  0  0
  -26.0423  -26.9221   19.4966 C   0  0  0  0  0  0
  -24.8596  -27.6869   19.5040 C   0  0  0  0  0  0
  -23.6121  -29.8244   20.1650 C   0  0  0  0  0  0
  -25.4080  -36.3121   24.0313 C   0  0  1  0  0  0
  -20.5837  -28.3642   23.1315 C   0  0  2  0  0  0
  -20.6743  -26.9389   22.5411 C   0  0  0  0  0  0
  -19.5703  -26.6365   21.5213 C   0  0  0  0  0  0
  -18.1884  -26.7890   22.1647 C   0  0  0  0  0  0
  -19.1498  -28.8834   23.2875 C   0  0  0  0  0  0
  -18.9452  -30.1466   23.8860 C   0  0  0  0  0  0
  -17.6454  -30.6596   24.0557 C   0  0  0  0  0  0
  -25.9009  -34.9496   23.5086 C   0  0  0  0  0  0
  -16.5330  -29.9104   23.6346 C   0  0  0  0  0  0
  -16.7233  -28.6526   23.0337 C   0  0  0  0  0  0
  -26.4430  -31.6647   25.0725 C   0  0  0  0  0  0
  -25.3696  -31.3796   26.1491 C   0  0  0  0  0  0
  -27.0308  -30.3063   24.6205 C   0  0  0  0  0  0
  -27.5956  -32.4420   25.7501 C   0  0  0  0  0  0
  -27.5554  -37.1816   24.8472 C   0  0  0  0  0  0
  -21.4117  -29.3000   22.3735 N   0  0  0  0  0  0
  -26.4265  -37.3813   23.9411 N   0  0  0  0  0  0
  -24.6681  -31.0673   22.1008 N   0  0  0  0  0  0
  -23.4132  -28.8169   23.3077 O   0  0  0  0  0  0
  -28.3968  -26.6372   20.1556 O   0  0  0  0  0  0
  -26.5651  -34.8949   22.4697 O   0  0  0  0  0  0
  -23.5322  -32.1419   23.7451 O   0  0  0  0  0  0
  -30.6620  -19.6271   18.8539 C   0  0  0  0  0  0
  -29.8964  -18.1905   20.6616 C   0  0  0  0  0  0
  -30.5886  -17.1971   18.5350 C   0  0  0  0  0  0
  -30.0934  -19.5075   20.1395 C   0  0  0  0  0  0
  -30.9091  -18.5009   18.0467 C   0  0  0  0  0  0
  -30.1701  -17.0118   19.8965 C   0  0  0  0  0  0
  -30.5610  -16.0789   17.5523 C   0  0  0  0  0  0
  -28.9076  -23.1218   21.0092 C   0  0  0  0  0  0
  -29.2032  -15.8723   16.8947 C   0  0  0  0  0  0
  -26.9781  -23.2246   19.3662 C   0  0  0  0  0  0
  -29.6405  -22.0073   20.2035 C   0  0  0  0  0  0
  -28.4735  -25.3200   19.5420 C   0  0  0  0  0  0
  -27.8755  -24.0680   20.3023 C   0  0  2  0  0  0
  -31.4143  -18.7376   16.7556 N   0  0  0  0  0  0
  -29.8929  -15.6994   20.4808 N   0  0  0  0  0  0
  -29.7324  -20.6746   20.8663 N   0  0  0  0  0  0
  -31.5338  -15.3971   17.2149 O   0  0  0  0  0  0
  -29.1228  -23.2197   22.2230 O   0  0  0  0  0  0
  -27.0416  -24.5293   21.2414 F   0  0  0  0  0  0
  -31.4504  -12.4445   19.1379 H   0  0  0  0  0  0
  -30.3378  -11.3603   19.9316 H   0  0  0  0  0  0
  -29.7266  -11.6306   17.5212 H   0  0  0  0  0  0
  -29.6464  -13.3560   17.6864 H   0  0  0  0  0  0
  -27.8143  -11.2750   18.8860 H   0  0  0  0  0  0
  -27.3547  -12.5465   17.7901 H   0  0  0  0  0  0
  -27.6435  -14.2440   19.4838 H   0  0  0  0  0  0
  -28.6739  -12.1155   21.4299 H   0  0  0  0  0  0
  -28.4541  -13.8102   21.7859 H   0  0  0  0  0  0
  -25.2661   -9.5799   22.4798 H   0  0  0  0  0  0
  -24.0009   -7.4670   22.7424 H   0  0  0  0  0  0
  -21.0817   -8.8759   19.8916 H   0  0  0  0  0  0
  -22.3585  -10.9701   19.6192 H   0  0  0  0  0  0
  -21.2093   -7.6163   23.9747 H   0  0  0  0  0  0
  -21.1436   -6.0496   25.9071 H   0  0  0  0  0  0
  -22.0610   -2.7626   23.2819 H   0  0  0  0  0  0
  -22.3908  -11.9929   22.4977 H   0  0  0  0  0  0
  -21.0919  -13.1292   22.2513 H   0  0  0  0  0  0
  -24.6476  -15.8453   20.5534 H   0  0  0  0  0  0
  -26.2463  -15.6406   20.0523 H   0  0  0  0  0  0
  -26.7084  -32.5506   23.1142 H   0  0  0  0  0  0
  -24.9914  -33.9821   25.0336 H   0  0  0  0  0  0
  -22.6886  -31.3043   21.4158 H   0  0  0  0  0  0
  -23.3699  -35.9648   23.3336 H   0  0  0  0  0  0
  -24.3517  -36.8922   22.2068 H   0  0  0  0  0  0
  -23.7203  -37.6514   23.6675 H   0  0  0  0  0  0
  -26.0507  -31.5854   20.6006 H   0  0  0  0  0  0
  -26.8197  -30.8686   21.9905 H   0  0  0  0  0  0
  -28.0889  -29.0764   21.1745 H   0  0  0  0  0  0
  -25.9925  -25.9589   19.0178 H   0  0  0  0  0  0
  -23.9632  -27.2897   19.0436 H   0  0  0  0  0  0
  -23.7223  -30.6047   19.4114 H   0  0  0  0  0  0
  -22.7357  -29.2484   19.8660 H   0  0  0  0  0  0
  -25.1269  -36.2003   25.0813 H   0  0  0  0  0  0
  -20.9903  -28.3191   24.1432 H   0  0  0  0  0  0
  -20.5627  -26.2269   23.3595 H   0  0  0  0  0  0
  -21.6621  -26.7403   22.1204 H   0  0  0  0  0  0
  -19.6858  -25.6267   21.1238 H   0  0  0  0  0  0
  -19.6619  -27.3193   20.6751 H   0  0  0  0  0  0
  -17.4144  -26.6605   21.4057 H   0  0  0  0  0  0
  -18.0305  -26.0039   22.9070 H   0  0  0  0  0  0
  -19.7941  -30.7312   24.2137 H   0  0  0  0  0  0
  -17.5019  -31.6274   24.5159 H   0  0  0  0  0  0
  -15.5345  -30.3021   23.7684 H   0  0  0  0  0  0
  -15.8610  -28.0884   22.7016 H   0  0  0  0  0  0
  -24.5804  -30.7200   25.7855 H   0  0  0  0  0  0
  -24.8962  -32.2991   26.4962 H   0  0  0  0  0  0
  -25.8051  -30.8954   27.0251 H   0  0  0  0  0  0
  -26.2924  -29.6808   24.1185 H   0  0  0  0  0  0
  -27.3946  -29.7334   25.4755 H   0  0  0  0  0  0
  -27.8782  -30.4303   23.9456 H   0  0  0  0  0  0
  -27.2492  -33.3698   26.2072 H   0  0  0  0  0  0
  -28.3775  -32.7065   25.0362 H   0  0  0  0  0  0
  -28.0622  -31.8589   26.5456 H   0  0  0  0  0  0
  -28.2620  -38.0072   24.7517 H   0  0  0  0  0  0
  -28.1002  -36.2629   24.6296 H   0  0  0  0  0  0
  -27.2276  -37.1467   25.8873 H   0  0  0  0  0  0
  -20.9259  -29.8697   21.6937 H   0  0  0  0  0  0
  -26.0140  -38.2866   24.1465 H   0  0  0  0  0  0
  -30.8792  -20.6039   18.4456 H   0  0  0  0  0  0
  -29.4997  -18.0705   21.6592 H   0  0  0  0  0  0
  -28.4675  -15.5675   17.6377 H   0  0  0  0  0  0
  -29.2586  -15.1173   16.1134 H   0  0  0  0  0  0
  -28.8741  -16.8086   16.4455 H   0  0  0  0  0  0
  -27.4730  -23.0207   18.4145 H   0  0  0  0  0  0
  -26.0431  -23.7355   19.1384 H   0  0  0  0  0  0
  -26.7121  -22.2647   19.8127 H   0  0  0  0  0  0
  -30.6483  -22.3703   20.0039 H   0  0  0  0  0  0
  -29.1720  -21.8957   19.2279 H   0  0  0  0  0  0
  -28.0644  -25.3785   18.5329 H   0  0  0  0  0  0
  -29.5325  -25.1426   19.3616 H   0  0  0  0  0  0
  -31.7297  -19.6587   16.4610 H   0  0  0  0  0  0
  -31.8042  -17.9903   16.1864 H   0  0  0  0  0  0
  -28.9593  -15.5602   20.8391 H   0  0  0  0  0  0
  -29.3454  -20.5931   21.8051 H   0  0  0  0  0  0
  1 25  1  0  0  0
  1 30  2  0  0  0
  1 85  1  0  0  0
  2  3  1  0  0  0
  2 25  1  0  0  0
  2 90  1  0  0  0
  2 91  1  0  0  0
  3  4  1  0  0  0
  3 92  1  0  0  0
  3 93  1  0  0  0
  4  5  1  0  0  0
  4 94  1  0  0  0
  4 95  1  0  0  0
  5  6  1  0  0  0
  5 26  1  0  0  0
  5 96  1  0  0  0
  6 25  1  0  0  0
  6 97  1  0  0  0
  6 98  1  0  0  0
  7  8  2  0  0  0
  7 26  1  0  0  0
  7 29  1  0  0  0
  8  9  1  0  0  0
  8 22  1  0  0  0
  9 10  1  0  0  0
  9 27  2  0  0  0
 10 11  2  0  0  0
 10 15  1  0  0  0
 11 12  1  0  0  0
 11 99  1  0  0  0
 12 13  2  0  0  0
 12100  1  0  0  0
 13 14  1  0  0  0
 13 31  1  0  0  0
 14 15  2  0  0  0
 14101  1  0  0  0
 15102  1  0  0  0
 16 17  2  0  0  0
 16 21  1  0  0  0
 16 31  1  0  0  0
 17 18  1  0  0  0
 17103  1  0  0  0
 18 19  2  0  0  0
 18104  1  0  0  0
 19 20  1  0  0  0
 19 24  1  0  0  0
 20 21  2  0  0  0
 20105  1  0  0  0
 21 23  1  0  0  0
 22 28  1  0  0  0
 22 32  2  0  0  0
 26 27  1  0  0  0
 28106  1  0  0  0
 28107  1  0  0  0
 29108  1  0  0  0
 29109  1  0  0  0
 33 34  1  0  0  0
 33 66  1  0  0  0
 33 70  2  0  0  0
 34 36  1  0  0  0
 34 59  1  0  0  0
 34110  1  0  0  0
 35 44  2  0  0  0
 35 45  1  0  0  0
 35 68  1  0  0  0
 36 56  1  0  0  0
 36111  1  0  0  0
 37 39  1  0  0  0
 37 47  1  0  0  0
 37 66  1  0  0  0
 37112  1  0  0  0
 38 43  2  0  0  0
 38 46  1  0  0  0
 38 47  1  0  0  0
 39 64  1  0  0  0
 39 67  2  0  0  0
 40 52  1  0  0  0
 40 53  2  0  0  0
 40 58  1  0  0  0
 41113  1  0  0  0
 41114  1  0  0  0
 41115  1  0  0  0
 41 48  1  0  0  0
 42 43  1  0  0  0
 42 66  1  0  0  0
 42116  1  0  0  0
 42117  1  0  0  0
 43 44  1  0  0  0
 44118  1  0  0  0
 45 46  2  0  0  0
 45119  1  0  0  0
 46120  1  0  0  0
 47121  1  0  0  0
 47122  1  0  0  0
 48 56  1  0  0  0
 48 65  1  0  0  0
 48123  1  0  0  0
 49 50  1  0  0  0
 49 53  1  0  0  0
 49 64  1  0  0  0
 49124  1  0  0  0
 50 51  1  0  0  0
 50125  1  0  0  0
 50126  1  0  0  0
 51 52  1  0  0  0
 51127  1  0  0  0
 51128  1  0  0  0
 52129  1  0  0  0
 52130  1  0  0  0
 53 54  1  0  0  0
 54 55  2  0  0  0
 54131  1  0  0  0
 55 57  1  0  0  0
 55132  1  0  0  0
 56 69  2  0  0  0
 57 58  2  0  0  0
 57133  1  0  0  0
 58134  1  0  0  0
 59 60  1  0  0  0
 59 61  1  0  0  0
 59 62  1  0  0  0
 60135  1  0  0  0
 60136  1  0  0  0
 60137  1  0  0  0
 61138  1  0  0  0
 61139  1  0  0  0
 61140  1  0  0  0
 62141  1  0  0  0
 62142  1  0  0  0
 62143  1  0  0  0
 63 65  1  0  0  0
 63144  1  0  0  0
 63145  1  0  0  0
 63146  1  0  0  0
 64147  1  0  0  0
 65148  1  0  0  0
 68 82  1  0  0  0
 71 74  2  0  0  0
 71 75  1  0  0  0
 71149  1  0  0  0
 72 74  1  0  0  0
 72 76  2  0  0  0
 72150  1  0  0  0
 73 75  2  0  0  0
 73 76  1  0  0  0
 73 77  1  0  0  0
 74 86  1  0  0  0
 75 84  1  0  0  0
 76 85  1  0  0  0
 77 79  1  0  0  0
 77 87  2  0  0  0
 78 81  1  0  0  0
 78 83  1  0  0  0
 78 88  2  0  0  0
 79151  1  0  0  0
 79152  1  0  0  0
 79153  1  0  0  0
 80154  1  0  0  0
 80155  1  0  0  0
 80156  1  0  0  0
 80 83  1  0  0  0
 81 86  1  0  0  0
 81157  1  0  0  0
 81158  1  0  0  0
 82 83  1  0  0  0
 82159  1  0  0  0
 82160  1  0  0  0
 83 89  1  0  0  0
 84161  1  0  0  0
 84162  1  0  0  0
 85163  1  0  0  0
 86164  1  0  0  0
M  ISO  4   1 100  68 101  82 101  85 100
M  END
> <chiral flag>
0

> <version>
0

> <s_m_source_file>
/data/baiqing/PycharmProjects/Reinvent-master-3.2/result/LINK_invent/BTK/process_docking_weight1_custom_product_contain_oxygen_bond_distance_aromatic_linkinvent_7_9_3/rearranged_h_0168.sdf

> <i_m_source_file_index>
47

> <r_mmod_Potential_Energy-OPLS-2005>
347.392639160156

> <r_mmod_Stretch_Energy-OPLS-2005>
63.7238960266113

> <r_mmod_Bend_Energy-OPLS-2005>
137.282028198242

> <r_mmod_Torsional_Energy-OPLS-2005>
306.554046630859

> <r_mmod_Improper_Torsional_Energy-OPLS-2005>
10.1325626373291

> <r_mmod_Van_der_Waal_Energy-OPLS-2005>
151.915496826172

> <r_mmod_Electrostatic_Energy-OPLS-2005>
-82.722038269043

> <r_mmod_Solvation_Energy-OPLS-2005>
-274.808532714844

> <b_mmod_Minimization_Converged-OPLS-2005>
0

> <r_mmod_RMS_Derivative-OPLS-2005>
4.54055166244507

$$$$
47
                    3D
 Structure written by MMmdl.
161169  0  0  1  0            999 V2000
  -30.7027  -14.4227   20.5213 C   0  0  0  0  0  0
  -30.4026  -12.2581   19.4120 C   0  0  0  0  0  0
  -29.4848  -12.5193   18.1983 C   0  0  0  0  0  0
  -28.0065  -12.3783   18.6081 C   0  0  0  0  0  0
  -27.6629  -13.1979   19.8808 C   0  0  2  0  0  0
  -28.7064  -12.9702   21.0010 C   0  0  0  0  0  0
  -25.2597  -13.8109   20.5671 C   0  0  0  0  0  0
  -24.1830  -13.0404   20.9149 C   0  0  0  0  0  0
  -24.6350  -11.6864   20.8719 C   0  0  0  0  0  0
  -23.8999  -10.4276   21.0390 C   0  0  0  0  0  0
  -24.3548   -9.4194   21.9175 C   0  0  0  0  0  0
  -23.6260   -8.2217   22.0734 C   0  0  0  0  0  0
  -22.4252   -8.0235   21.3516 C   0  0  0  0  0  0
  -21.9860   -9.0198   20.4618 C   0  0  0  0  0  0
  -22.7165  -10.2105   20.3034 C   0  0  0  0  0  0
  -21.6851   -6.0700   22.5263 C   0  0  0  0  0  0
  -21.4014   -6.5617   23.8184 C   0  0  0  0  0  0
  -21.3676   -5.6785   24.9164 C   0  0  0  0  0  0
  -21.6054   -4.3042   24.7229 C   0  0  0  0  0  0
  -21.8819   -3.8111   23.4359 C   0  0  0  0  0  0
  -21.9179   -4.6930   22.3408 C   0  0  0  0  0  0
  -22.7857  -13.5222   21.1830 C   0  0  0  0  0  0
  -22.1653   -4.2103   21.0998 F   0  0  0  0  0  0
  -21.5647   -3.4530   25.7753 F   0  0  0  0  0  0
  -30.0413  -13.2391   20.4448 N   0  0  0  0  0  0
  -26.3023  -12.9255   20.3379 N   0  0  0  0  0  0
  -25.9279  -11.6424   20.5745 N   0  0  0  0  0  0
  -22.0507  -12.8215   22.0401 N   0  0  0  0  0  0
  -25.4353  -15.1820   20.4115 N   0  0  0  0  0  0
  -31.8665  -14.5830   20.1454 O   0  0  0  0  0  0
  -21.6633   -6.8821   21.4210 O   0  0  0  0  0  0
  -22.3566  -14.5571   20.6720 O   0  0  0  0  0  0
  -24.6110  -31.8698   23.2124 C   0  0  0  0  0  0
  -25.9019  -32.4815   23.8408 C   0  0  1  0  0  0
  -27.2220  -27.4671   20.1161 C   0  0  0  0  0  0
  -25.5909  -33.8607   24.2355 N   0  0  0  0  0  0
  -23.3965  -30.4949   21.5507 C   0  0  2  0  0  0
  -24.8390  -28.9669   20.1086 C   0  0  0  0  0  0
  -22.7395  -29.4678   22.5006 C   0  0  0  0  0  0
  -18.0272  -28.1357   22.8503 C   0  0  0  0  0  0
  -24.1487  -36.7319   23.2646 C   0  0  0  0  0  0
  -25.9198  -30.8510   21.3560 C   0  0  0  0  0  0
  -25.9947  -29.4886   20.7036 C   0  0  0  0  0  0
  -27.1934  -28.7494   20.6964 C   0  0  0  0  0  0
  -26.0559  -26.9503   19.5112 C   0  0  0  0  0  0
  -24.8650  -27.6981   19.5021 C   0  0  0  0  0  0
  -23.5984  -29.8257   20.1642 C   0  0  0  0  0  0
  -25.4102  -36.3114   24.0361 C   0  0  1  0  0  0
  -20.5849  -28.3652   23.1322 C   0  0  2  0  0  0
  -20.6754  -26.9393   22.5410 C   0  0  0  0  0  0
  -19.5733  -26.6378   21.5212 C   0  0  0  0  0  0
  -18.1915  -26.7912   22.1621 C   0  0  0  0  0  0
  -19.1513  -28.8829   23.2905 C   0  0  0  0  0  0
  -18.9449  -30.1432   23.8901 C   0  0  0  0  0  0
  -17.6452  -30.6572   24.0561 C   0  0  0  0  0  0
  -25.9041  -34.9471   23.5155 C   0  0  0  0  0  0
  -16.5340  -29.9073   23.6322 C   0  0  0  0  0  0
  -16.7262  -28.6487   23.0353 C   0  0  0  0  0  0
  -26.4461  -31.6568   25.0718 C   0  0  0  0  0  0
  -25.3756  -31.3604   26.1481 C   0  0  0  0  0  0
  -27.0301  -30.3038   24.6040 C   0  0  0  0  0  0
  -27.6063  -32.4256   25.7469 C   0  0  0  0  0  0
  -27.5577  -37.1806   24.8473 C   0  0  0  0  0  0
  -21.4134  -29.3014   22.3729 N   0  0  0  0  0  0
  -26.4292  -37.3792   23.9425 N   0  0  0  0  0  0
  -24.6601  -31.0879   22.0970 N   0  0  0  0  0  0
  -23.4191  -28.8241   23.3054 O   0  0  0  0  0  0
  -28.3718  -26.7266   20.1683 O   0  0  0  0  0  0
  -26.5574  -34.8909   22.4703 O   0  0  0  0  0  0
  -23.5323  -32.1390   23.7595 O   0  0  0  0  0  0
  -28.7431  -17.5532   20.1840 C   0  0  0  0  0  0
  -30.1523  -16.5125   18.5161 C   0  0  0  0  0  0
  -28.8345  -18.5015   17.9009 C   0  0  0  0  0  0
  -29.6396  -16.5234   19.8325 C   0  0  0  0  0  0
  -28.3358  -18.5353   19.2474 C   0  0  0  0  0  0
  -29.7594  -17.4744   17.5710 C   0  0  0  0  0  0
  -28.3882  -19.4987   16.8483 C   0  0  0  0  0  0
  -28.2388  -23.0134   21.0264 C   0  0  0  0  0  0
  -28.4655  -21.7050   20.2309 C   0  0  0  0  0  0
  -29.0601  -19.5127   15.4738 C   0  0  0  0  0  0
  -28.2732  -24.3134   20.2152 C   0  0  0  0  0  0
  -27.8222  -20.4063   20.7520 C   0  0  0  0  0  0
  -28.2876  -25.6015   21.0495 C   0  0  0  0  0  0
  -29.9180  -15.4845   20.7780 N   0  0  0  0  0  0
  -27.4005  -19.4924   19.6799 N   0  0  0  0  0  0
  -27.4855  -20.3270   17.0234 O   0  0  0  0  0  0
  -28.0542  -23.0010   22.2509 O   0  0  0  0  0  0
  -29.1636  -21.6983   19.2093 O   0  0  0  0  0  0
  -30.2879  -17.3405   16.3305 F   0  0  0  0  0  0
  -31.4556  -12.3146   19.1270 H   0  0  0  0  0  0
  -30.2421  -11.2411   19.7745 H   0  0  0  0  0  0
  -29.7148  -11.8352   17.3805 H   0  0  0  0  0  0
  -29.6603  -13.5224   17.8058 H   0  0  0  0  0  0
  -27.8092  -11.3210   18.7843 H   0  0  0  0  0  0
  -27.3558  -12.6749   17.7842 H   0  0  0  0  0  0
  -27.7061  -14.2487   19.5955 H   0  0  0  0  0  0
  -28.6626  -11.9425   21.3630 H   0  0  0  0  0  0
  -28.4896  -13.5973   21.8681 H   0  0  0  0  0  0
  -25.2666   -9.5694   22.4777 H   0  0  0  0  0  0
  -23.9968   -7.4611   22.7478 H   0  0  0  0  0  0
  -21.0768   -8.8682   19.8953 H   0  0  0  0  0  0
  -22.3556  -10.9636   19.6161 H   0  0  0  0  0  0
  -21.2010   -7.6131   23.9668 H   0  0  0  0  0  0
  -21.1524   -6.0532   25.9076 H   0  0  0  0  0  0
  -22.0594   -2.7569   23.2869 H   0  0  0  0  0  0
  -22.4128  -11.9845   22.4740 H   0  0  0  0  0  0
  -21.1144  -13.1240   22.2679 H   0  0  0  0  0  0
  -24.6650  -15.8325   20.5143 H   0  0  0  0  0  0
  -26.2908  -15.6253   20.1043 H   0  0  0  0  0  0
  -26.7122  -32.5537   23.1206 H   0  0  0  0  0  0
  -25.0096  -33.9759   25.0537 H   0  0  0  0  0  0
  -22.6850  -31.3119   21.4158 H   0  0  0  0  0  0
  -23.3744  -35.9655   23.3304 H   0  0  0  0  0  0
  -24.3592  -36.8919   22.2059 H   0  0  0  0  0  0
  -23.7224  -37.6530   23.6633 H   0  0  0  0  0  0
  -26.0279  -31.6195   20.5903 H   0  0  0  0  0  0
  -26.8122  -30.9013   21.9697 H   0  0  0  0  0  0
  -28.0847  -29.1491   21.1605 H   0  0  0  0  0  0
  -26.0619  -25.9708   19.0583 H   0  0  0  0  0  0
  -23.9785  -27.2915   19.0339 H   0  0  0  0  0  0
  -23.6916  -30.5956   19.3970 H   0  0  0  0  0  0
  -22.7272  -29.2310   19.8805 H   0  0  0  0  0  0
  -25.1276  -36.1991   25.0855 H   0  0  0  0  0  0
  -20.9945  -28.3178   24.1440 H   0  0  0  0  0  0
  -20.5644  -26.2261   23.3587 H   0  0  0  0  0  0
  -21.6622  -26.7421   22.1195 H   0  0  0  0  0  0
  -19.6876  -25.6298   21.1213 H   0  0  0  0  0  0
  -19.6663  -27.3212   20.6760 H   0  0  0  0  0  0
  -17.4190  -26.6686   21.4014 H   0  0  0  0  0  0
  -18.0305  -26.0041   22.8996 H   0  0  0  0  0  0
  -19.7928  -30.7244   24.2271 H   0  0  0  0  0  0
  -17.5008  -31.6242   24.5154 H   0  0  0  0  0  0
  -15.5330  -30.2972   23.7639 H   0  0  0  0  0  0
  -15.8663  -28.0801   22.7054 H   0  0  0  0  0  0
  -24.6001  -30.6864   25.7815 H   0  0  0  0  0  0
  -24.8864  -32.2710   26.4935 H   0  0  0  0  0  0
  -25.8165  -30.8791   27.0225 H   0  0  0  0  0  0
  -26.2810  -29.6780   24.1168 H   0  0  0  0  0  0
  -27.4191  -29.7285   25.4454 H   0  0  0  0  0  0
  -27.8591  -30.4408   23.9093 H   0  0  0  0  0  0
  -27.2727  -33.3579   26.2031 H   0  0  0  0  0  0
  -28.3867  -32.6739   25.0264 H   0  0  0  0  0  0
  -28.0718  -31.8355   26.5379 H   0  0  0  0  0  0
  -28.2601  -38.0100   24.7525 H   0  0  0  0  0  0
  -28.1061  -36.2629   24.6292 H   0  0  0  0  0  0
  -27.2296  -37.1451   25.8875 H   0  0  0  0  0  0
  -20.9310  -29.8739   21.6942 H   0  0  0  0  0  0
  -26.0190  -38.2880   24.1394 H   0  0  0  0  0  0
  -28.3275  -17.5625   21.1832 H   0  0  0  0  0  0
  -30.8249  -15.7404   18.1736 H   0  0  0  0  0  0
  -30.1439  -19.5778   15.5594 H   0  0  0  0  0  0
  -28.7272  -20.3758   14.8983 H   0  0  0  0  0  0
  -28.8012  -18.6133   14.9136 H   0  0  0  0  0  0
  -27.4005  -24.3061   19.5632 H   0  0  0  0  0  0
  -29.1488  -24.3021   19.5691 H   0  0  0  0  0  0
  -26.9445  -20.6768   21.3418 H   0  0  0  0  0  0
  -28.5217  -19.9177   21.4336 H   0  0  0  0  0  0
  -29.1599  -25.6282   21.7056 H   0  0  0  0  0  0
  -27.4132  -25.6507   21.7074 H   0  0  0  0  0  0
  -29.1634  -15.2935   21.4183 H   0  0  0  0  0  0
  -27.0392  -20.0289   18.8872 H   0  0  0  0  0  0
  1 25  1  0  0  0
  1 30  2  0  0  0
  1 84  1  0  0  0
  2  3  1  0  0  0
  2 25  1  0  0  0
  2 90  1  0  0  0
  2 91  1  0  0  0
  3  4  1  0  0  0
  3 92  1  0  0  0
  3 93  1  0  0  0
  4  5  1  0  0  0
  4 94  1  0  0  0
  4 95  1  0  0  0
  5  6  1  0  0  0
  5 26  1  0  0  0
  5 96  1  0  0  0
  6 25  1  0  0  0
  6 97  1  0  0  0
  6 98  1  0  0  0
  7  8  2  0  0  0
  7 26  1  0  0  0
  7 29  1  0  0  0
  8  9  1  0  0  0
  8 22  1  0  0  0
  9 10  1  0  0  0
  9 27  2  0  0  0
 10 11  2  0  0  0
 10 15  1  0  0  0
 11 12  1  0  0  0
 11 99  1  0  0  0
 12 13  2  0  0  0
 12100  1  0  0  0
 13 14  1  0  0  0
 13 31  1  0  0  0
 14 15  2  0  0  0
 14101  1  0  0  0
 15102  1  0  0  0
 16 17  2  0  0  0
 16 21  1  0  0  0
 16 31  1  0  0  0
 17 18  1  0  0  0
 17103  1  0  0  0
 18 19  2  0  0  0
 18104  1  0  0  0
 19 20  1  0  0  0
 19 24  1  0  0  0
 20 21  2  0  0  0
 20105  1  0  0  0
 21 23  1  0  0  0
 22 28  1  0  0  0
 22 32  2  0  0  0
 26 27  1  0  0  0
 28106  1  0  0  0
 28107  1  0  0  0
 29108  1  0  0  0
 29109  1  0  0  0
 33 34  1  0  0  0
 33 66  1  0  0  0
 33 70  2  0  0  0
 34 36  1  0  0  0
 34 59  1  0  0  0
 34110  1  0  0  0
 35 44  2  0  0  0
 35 45  1  0  0  0
 35 68  1  0  0  0
 36 56  1  0  0  0
 36111  1  0  0  0
 37 39  1  0  0  0
 37 47  1  0  0  0
 37 66  1  0  0  0
 37112  1  0  0  0
 38 43  2  0  0  0
 38 46  1  0  0  0
 38 47  1  0  0  0
 39 64  1  0  0  0
 39 67  2  0  0  0
 40 52  1  0  0  0
 40 53  2  0  0  0
 40 58  1  0  0  0
 41113  1  0  0  0
 41114  1  0  0  0
 41115  1  0  0  0
 41 48  1  0  0  0
 42 43  1  0  0  0
 42 66  1  0  0  0
 42116  1  0  0  0
 42117  1  0  0  0
 43 44  1  0  0  0
 44118  1  0  0  0
 45 46  2  0  0  0
 45119  1  0  0  0
 46120  1  0  0  0
 47121  1  0  0  0
 47122  1  0  0  0
 48 56  1  0  0  0
 48 65  1  0  0  0
 48123  1  0  0  0
 49 50  1  0  0  0
 49 53  1  0  0  0
 49 64  1  0  0  0
 49124  1  0  0  0
 50 51  1  0  0  0
 50125  1  0  0  0
 50126  1  0  0  0
 51 52  1  0  0  0
 51127  1  0  0  0
 51128  1  0  0  0
 52129  1  0  0  0
 52130  1  0  0  0
 53 54  1  0  0  0
 54 55  2  0  0  0
 54131  1  0  0  0
 55 57  1  0  0  0
 55132  1  0  0  0
 56 69  2  0  0  0
 57 58  2  0  0  0
 57133  1  0  0  0
 58134  1  0  0  0
 59 60  1  0  0  0
 59 61  1  0  0  0
 59 62  1  0  0  0
 60135  1  0  0  0
 60136  1  0  0  0
 60137  1  0  0  0
 61138  1  0  0  0
 61139  1  0  0  0
 61140  1  0  0  0
 62141  1  0  0  0
 62142  1  0  0  0
 62143  1  0  0  0
 63 65  1  0  0  0
 63144  1  0  0  0
 63145  1  0  0  0
 63146  1  0  0  0
 64147  1  0  0  0
 65148  1  0  0  0
 68 83  1  0  0  0
 71 74  2  0  0  0
 71 75  1  0  0  0
 71149  1  0  0  0
 72 74  1  0  0  0
 72 76  2  0  0  0
 72150  1  0  0  0
 73 75  2  0  0  0
 73 76  1  0  0  0
 73 77  1  0  0  0
 74 84  1  0  0  0
 75 85  1  0  0  0
 76 89  1  0  0  0
 77 80  1  0  0  0
 77 86  2  0  0  0
 78 79  1  0  0  0
 78 81  1  0  0  0
 78 87  2  0  0  0
 79 82  1  0  0  0
 79 88  2  0  0  0
 80151  1  0  0  0
 80152  1  0  0  0
 80153  1  0  0  0
 81 83  1  0  0  0
 81154  1  0  0  0
 81155  1  0  0  0
 82 85  1  0  0  0
 82156  1  0  0  0
 82157  1  0  0  0
 83158  1  0  0  0
 83159  1  0  0  0
 84160  1  0  0  0
 85161  1  0  0  0
M  ISO  4   1 100  68 101  83 101  84 100
M  END
> <chiral flag>
0

> <version>
0

> <s_m_source_file>
/data/baiqing/PycharmProjects/Reinvent-master-3.2/result/LINK_invent/BTK/process_docking_weight1_custom_product_contain_oxygen_bond_distance_aromatic_linkinvent_7_9_3/rearranged_h_0168.sdf

> <i_m_source_file_index>
48

> <r_mmod_Potential_Energy-OPLS-2005>
200.126846313477

> <r_mmod_Stretch_Energy-OPLS-2005>
40.6812515258789

> <r_mmod_Bend_Energy-OPLS-2005>
99.3446502685547

> <r_mmod_Torsional_Energy-OPLS-2005>
299.328704833984

> <r_mmod_Improper_Torsional_Energy-OPLS-2005>
14.6862411499023

> <r_mmod_Van_der_Waal_Energy-OPLS-2005>
164.390884399414

> <r_mmod_Electrostatic_Energy-OPLS-2005>
-198.663940429688

> <r_mmod_Solvation_Energy-OPLS-2005>
-233.530868530273

> <b_mmod_Minimization_Converged-OPLS-2005>
0

> <r_mmod_RMS_Derivative-OPLS-2005>
4.03853130340576

$$$$
48
                    3D
 Structure written by MMmdl.
152160  0  0  1  0            999 V2000
  -30.6211  -14.6308   20.5134 C   0  0  0  0  0  0
  -30.4415  -12.3887   19.4533 C   0  0  0  0  0  0
  -29.5110  -12.5111   18.2252 C   0  0  0  0  0  0
  -28.0330  -12.3484   18.6340 C   0  0  0  0  0  0
  -27.6566  -13.2136   19.8657 C   0  0  2  0  0  0
  -28.6992  -13.0544   20.9959 C   0  0  0  0  0  0
  -25.2581  -13.8165   20.5666 C   0  0  0  0  0  0
  -24.1850  -13.0449   20.9228 C   0  0  0  0  0  0
  -24.6401  -11.6913   20.8758 C   0  0  0  0  0  0
  -23.9064  -10.4296   21.0414 C   0  0  0  0  0  0
  -24.3616   -9.4205   21.9187 C   0  0  0  0  0  0
  -23.6288   -8.2242   22.0755 C   0  0  0  0  0  0
  -22.4268   -8.0285   21.3549 C   0  0  0  0  0  0
  -21.9907   -9.0262   20.4653 C   0  0  0  0  0  0
  -22.7238  -10.2140   20.3062 C   0  0  0  0  0  0
  -21.6854   -6.0732   22.5276 C   0  0  0  0  0  0
  -21.4015   -6.5634   23.8211 C   0  0  0  0  0  0
  -21.3661   -5.6788   24.9173 C   0  0  0  0  0  0
  -21.6045   -4.3051   24.7225 C   0  0  0  0  0  0
  -21.8819   -3.8143   23.4346 C   0  0  0  0  0  0
  -21.9193   -4.6960   22.3402 C   0  0  0  0  0  0
  -22.7869  -13.5250   21.1872 C   0  0  0  0  0  0
  -22.1663   -4.2145   21.0980 F   0  0  0  0  0  0
  -21.5630   -3.4536   25.7739 F   0  0  0  0  0  0
  -30.0181  -13.4017   20.4407 N   0  0  0  0  0  0
  -26.2998  -12.9335   20.3293 N   0  0  0  0  0  0
  -25.9321  -11.6498   20.5742 N   0  0  0  0  0  0
  -22.0494  -12.8246   22.0417 N   0  0  0  0  0  0
  -25.4294  -15.1873   20.3952 N   0  0  0  0  0  0
  -31.7698  -14.8077   20.0960 O   0  0  0  0  0  0
  -21.6641   -6.8876   21.4238 O   0  0  0  0  0  0
  -22.3564  -14.5550   20.6700 O   0  0  0  0  0  0
  -24.6261  -31.8610   23.2046 C   0  0  0  0  0  0
  -25.9109  -32.4784   23.8374 C   0  0  1  0  0  0
  -27.2222  -27.3239   20.1097 C   0  0  0  0  0  0
  -25.5928  -33.8587   24.2297 N   0  0  0  0  0  0
  -23.4198  -30.4872   21.5469 C   0  0  2  0  0  0
  -24.8659  -28.9486   20.1095 C   0  0  0  0  0  0
  -22.7480  -29.4634   22.4932 C   0  0  0  0  0  0
  -18.0291  -28.1385   22.8483 C   0  0  0  0  0  0
  -24.1489  -36.7295   23.2639 C   0  0  0  0  0  0
  -25.9623  -30.7932   21.3771 C   0  0  0  0  0  0
  -26.0359  -29.4228   20.7159 C   0  0  0  0  0  0
  -27.2175  -28.6219   20.7081 C   0  0  0  0  0  0
  -26.0264  -26.9093   19.4735 C   0  0  0  0  0  0
  -24.8634  -27.6971   19.4797 C   0  0  0  0  0  0
  -23.6343  -29.8278   20.1604 C   0  0  0  0  0  0
  -25.4111  -36.3087   24.0333 C   0  0  1  0  0  0
  -20.5891  -28.3691   23.1278 C   0  0  2  0  0  0
  -20.6776  -26.9412   22.5408 C   0  0  0  0  0  0
  -19.5751  -26.6384   21.5208 C   0  0  0  0  0  0
  -18.1933  -26.7928   22.1623 C   0  0  0  0  0  0
  -19.1543  -28.8854   23.2878 C   0  0  0  0  0  0
  -18.9464  -30.1454   23.8896 C   0  0  0  0  0  0
  -17.6463  -30.6584   24.0564 C   0  0  0  0  0  0
  -25.9048  -34.9455   23.5113 C   0  0  0  0  0  0
  -16.5354  -29.9081   23.6330 C   0  0  0  0  0  0
  -16.7278  -28.6502   23.0347 C   0  0  0  0  0  0
  -26.4491  -31.6591   25.0742 C   0  0  0  0  0  0
  -25.3727  -31.3730   26.1472 C   0  0  0  0  0  0
  -27.0337  -30.3017   24.6195 C   0  0  0  0  0  0
  -27.6058  -32.4322   25.7504 C   0  0  0  0  0  0
  -27.5581  -37.1802   24.8465 C   0  0  0  0  0  0
  -21.4192  -29.3047   22.3674 N   0  0  0  0  0  0
  -26.4289  -37.3782   23.9412 N   0  0  0  0  0  0
  -24.6880  -31.0629   22.0996 N   0  0  0  0  0  0
  -23.4205  -28.8164   23.3003 O   0  0  0  0  0  0
  -28.3292  -26.4596   20.1663 O   0  0  0  0  0  0
  -26.5610  -34.8917   22.4676 O   0  0  0  0  0  0
  -23.5423  -32.1410   23.7373 O   0  0  0  0  0  0
  -30.8959  -17.8611   20.1740 C   0  0  0  0  0  0
  -30.8284  -19.2853   20.0794 C   0  0  0  0  0  0
  -29.8606  -17.1071   20.7885 C   0  0  0  0  0  0
  -29.7270  -20.0379   20.5761 C   0  0  0  0  0  0
  -28.7635  -17.8550   21.2999 C   0  0  0  0  0  0
  -28.6983  -19.2814   21.2057 C   0  0  0  0  0  0
  -29.1326  -23.9606   20.3675 C   0  0  0  0  0  0
  -28.7378  -22.4009   20.2832 C   0  0  0  0  0  0
  -28.0391  -25.0184   19.9598 C   0  0  0  0  0  0
  -27.7155  -17.1818   21.9386 N   0  0  0  0  0  0
  -29.7472  -21.5039   20.5099 N   0  0  0  0  0  0
  -29.8260  -15.6540   20.9487 N   0  0  0  0  0  0
  -30.2593  -24.3214   20.7332 O   0  0  0  0  0  0
  -27.5897  -22.0555   19.9861 O   0  0  0  0  0  0
  -27.6398  -19.9125   21.7726 F   0  0  0  0  0  0
  -31.4831  -12.5158   19.1526 H   0  0  0  0  0  0
  -30.3778  -11.3895   19.8867 H   0  0  0  0  0  0
  -29.7761  -11.7642   17.4758 H   0  0  0  0  0  0
  -29.6545  -13.4829   17.7498 H   0  0  0  0  0  0
  -27.8673  -11.2943   18.8598 H   0  0  0  0  0  0
  -27.3806  -12.5844   17.7924 H   0  0  0  0  0  0
  -27.6813  -14.2516   19.5337 H   0  0  0  0  0  0
  -28.7084  -12.0278   21.3647 H   0  0  0  0  0  0
  -28.4408  -13.6723   21.8571 H   0  0  0  0  0  0
  -25.2763   -9.5676   22.4762 H   0  0  0  0  0  0
  -24.0000   -7.4629   22.7467 H   0  0  0  0  0  0
  -21.0842   -8.8778   19.8958 H   0  0  0  0  0  0
  -22.3697  -10.9679   19.6171 H   0  0  0  0  0  0
  -21.2009   -7.6143   23.9713 H   0  0  0  0  0  0
  -21.1484   -6.0519   25.9076 H   0  0  0  0  0  0
  -22.0597   -2.7606   23.2847 H   0  0  0  0  0  0
  -22.4109  -11.9916   22.4825 H   0  0  0  0  0  0
  -21.1111  -13.1275   22.2609 H   0  0  0  0  0  0
  -24.6246  -15.8026   20.4427 H   0  0  0  0  0  0
  -26.1714  -15.5629   19.8195 H   0  0  0  0  0  0
  -26.7183  -32.5459   23.1129 H   0  0  0  0  0  0
  -25.0083  -33.9736   25.0446 H   0  0  0  0  0  0
  -22.7130  -31.3076   21.4067 H   0  0  0  0  0  0
  -23.3750  -35.9629   23.3301 H   0  0  0  0  0  0
  -24.3588  -36.8914   22.2055 H   0  0  0  0  0  0
  -23.7239  -37.6497   23.6657 H   0  0  0  0  0  0
  -26.0967  -31.5590   20.6119 H   0  0  0  0  0  0
  -26.8412  -30.8383   22.0084 H   0  0  0  0  0  0
  -28.1131  -28.9802   21.1961 H   0  0  0  0  0  0
  -25.9512  -25.9586   18.9678 H   0  0  0  0  0  0
  -23.9680  -27.3306   18.9963 H   0  0  0  0  0  0
  -23.7547  -30.6070   19.4068 H   0  0  0  0  0  0
  -22.7543  -29.2585   19.8556 H   0  0  0  0  0  0
  -25.1288  -36.1945   25.0825 H   0  0  0  0  0  0
  -20.9989  -28.3263   24.1395 H   0  0  0  0  0  0
  -20.5671  -26.2298   23.3608 H   0  0  0  0  0  0
  -21.6645  -26.7435   22.1204 H   0  0  0  0  0  0
  -19.6908  -25.6293   21.1238 H   0  0  0  0  0  0
  -19.6685  -27.3192   20.6734 H   0  0  0  0  0  0
  -17.4200  -26.6673   21.4029 H   0  0  0  0  0  0
  -18.0337  -26.0070   22.9021 H   0  0  0  0  0  0
  -19.7938  -30.7272   24.2265 H   0  0  0  0  0  0
  -17.5016  -31.6264   24.5166 H   0  0  0  0  0  0
  -15.5355  -30.2982   23.7653 H   0  0  0  0  0  0
  -15.8680  -28.0822   22.7056 H   0  0  0  0  0  0
  -24.5901  -30.7076   25.7808 H   0  0  0  0  0  0
  -24.8915  -32.2894   26.4899 H   0  0  0  0  0  0
  -25.8055  -30.8912   27.0249 H   0  0  0  0  0  0
  -26.2916  -29.6767   24.1214 H   0  0  0  0  0  0
  -27.4032  -29.7274   25.4701 H   0  0  0  0  0  0
  -27.8786  -30.4309   23.9428 H   0  0  0  0  0  0
  -27.2678  -33.3623   26.2085 H   0  0  0  0  0  0
  -28.3860  -32.6878   25.0323 H   0  0  0  0  0  0
  -28.0733  -31.8443   26.5414 H   0  0  0  0  0  0
  -28.2596  -38.0101   24.7517 H   0  0  0  0  0  0
  -28.1077  -36.2634   24.6279 H   0  0  0  0  0  0
  -27.2305  -37.1445   25.8869 H   0  0  0  0  0  0
  -20.9363  -29.8789   21.6906 H   0  0  0  0  0  0
  -26.0172  -38.2858   24.1410 H   0  0  0  0  0  0
  -31.7647  -17.3598   19.7730 H   0  0  0  0  0  0
  -31.6519  -19.8057   19.6116 H   0  0  0  0  0  0
  -27.1387  -24.7583   20.5177 H   0  0  0  0  0  0
  -27.8209  -24.8533   18.9045 H   0  0  0  0  0  0
  -27.3099  -16.3985   21.4415 H   0  0  0  0  0  0
  -26.9736  -17.8130   22.2230 H   0  0  0  0  0  0
  -30.6522  -21.9443   20.6118 H   0  0  0  0  0  0
  -28.9696  -15.3399   21.3779 H   0  0  0  0  0  0
  1 25  1  0  0  0
  1 30  2  0  0  0
  1 82  1  0  0  0
  2  3  1  0  0  0
  2 25  1  0  0  0
  2 86  1  0  0  0
  2 87  1  0  0  0
  3  4  1  0  0  0
  3 88  1  0  0  0
  3 89  1  0  0  0
  4  5  1  0  0  0
  4 90  1  0  0  0
  4 91  1  0  0  0
  5  6  1  0  0  0
  5 26  1  0  0  0
  5 92  1  0  0  0
  6 25  1  0  0  0
  6 93  1  0  0  0
  6 94  1  0  0  0
  7  8  2  0  0  0
  7 26  1  0  0  0
  7 29  1  0  0  0
  8  9  1  0  0  0
  8 22  1  0  0  0
  9 10  1  0  0  0
  9 27  2  0  0  0
 10 11  2  0  0  0
 10 15  1  0  0  0
 11 12  1  0  0  0
 11 95  1  0  0  0
 12 13  2  0  0  0
 12 96  1  0  0  0
 13 14  1  0  0  0
 13 31  1  0  0  0
 14 15  2  0  0  0
 14 97  1  0  0  0
 15 98  1  0  0  0
 16 17  2  0  0  0
 16 21  1  0  0  0
 16 31  1  0  0  0
 17 18  1  0  0  0
 17 99  1  0  0  0
 18 19  2  0  0  0
 18100  1  0  0  0
 19 20  1  0  0  0
 19 24  1  0  0  0
 20 21  2  0  0  0
 20101  1  0  0  0
 21 23  1  0  0  0
 22 28  1  0  0  0
 22 32  2  0  0  0
 26 27  1  0  0  0
 28102  1  0  0  0
 28103  1  0  0  0
 29104  1  0  0  0
 29105  1  0  0  0
 33 34  1  0  0  0
 33 66  1  0  0  0
 33 70  2  0  0  0
 34 36  1  0  0  0
 34 59  1  0  0  0
 34106  1  0  0  0
 35 44  2  0  0  0
 35 45  1  0  0  0
 35 68  1  0  0  0
 36 56  1  0  0  0
 36107  1  0  0  0
 37 39  1  0  0  0
 37 47  1  0  0  0
 37 66  1  0  0  0
 37108  1  0  0  0
 38 43  2  0  0  0
 38 46  1  0  0  0
 38 47  1  0  0  0
 39 64  1  0  0  0
 39 67  2  0  0  0
 40 52  1  0  0  0
 40 53  2  0  0  0
 40 58  1  0  0  0
 41109  1  0  0  0
 41110  1  0  0  0
 41111  1  0  0  0
 41 48  1  0  0  0
 42 43  1  0  0  0
 42 66  1  0  0  0
 42112  1  0  0  0
 42113  1  0  0  0
 43 44  1  0  0  0
 44114  1  0  0  0
 45 46  2  0  0  0
 45115  1  0  0  0
 46116  1  0  0  0
 47117  1  0  0  0
 47118  1  0  0  0
 48 56  1  0  0  0
 48 65  1  0  0  0
 48119  1  0  0  0
 49 50  1  0  0  0
 49 53  1  0  0  0
 49 64  1  0  0  0
 49120  1  0  0  0
 50 51  1  0  0  0
 50121  1  0  0  0
 50122  1  0  0  0
 51 52  1  0  0  0
 51123  1  0  0  0
 51124  1  0  0  0
 52125  1  0  0  0
 52126  1  0  0  0
 53 54  1  0  0  0
 54 55  2  0  0  0
 54127  1  0  0  0
 55 57  1  0  0  0
 55128  1  0  0  0
 56 69  2  0  0  0
 57 58  2  0  0  0
 57129  1  0  0  0
 58130  1  0  0  0
 59 60  1  0  0  0
 59 61  1  0  0  0
 59 62  1  0  0  0
 60131  1  0  0  0
 60132  1  0  0  0
 60133  1  0  0  0
 61134  1  0  0  0
 61135  1  0  0  0
 61136  1  0  0  0
 62137  1  0  0  0
 62138  1  0  0  0
 62139  1  0  0  0
 63 65  1  0  0  0
 63140  1  0  0  0
 63141  1  0  0  0
 63142  1  0  0  0
 64143  1  0  0  0
 65144  1  0  0  0
 68 79  1  0  0  0
 71 72  2  0  0  0
 71 73  1  0  0  0
 71145  1  0  0  0
 72 74  1  0  0  0
 72146  1  0  0  0
 73 75  2  0  0  0
 73 82  1  0  0  0
 74 76  2  0  0  0
 74 81  1  0  0  0
 75 76  1  0  0  0
 75 80  1  0  0  0
 76 85  1  0  0  0
 77 78  1  0  0  0
 77 79  1  0  0  0
 77 83  2  0  0  0
 78 81  1  0  0  0
 78 84  2  0  0  0
 79147  1  0  0  0
 79148  1  0  0  0
 80149  1  0  0  0
 80150  1  0  0  0
 81151  1  0  0  0
 82152  1  0  0  0
M  ISO  4   1 100  68 101  79 101  82 100
M  END
> <chiral flag>
0

> <version>
0

> <s_m_source_file>
/data/baiqing/PycharmProjects/Reinvent-master-3.2/result/LINK_invent/BTK/process_docking_weight1_custom_product_contain_oxygen_bond_distance_aromatic_linkinvent_7_9_3/rearranged_h_0168.sdf

> <i_m_source_file_index>
49

> <r_mmod_Potential_Energy-OPLS-2005>
17.7833156585693

> <r_mmod_Stretch_Energy-OPLS-2005>
80.5899276733398

> <r_mmod_Bend_Energy-OPLS-2005>
134.044281005859

> <r_mmod_Torsional_Energy-OPLS-2005>
240.337951660156

> <r_mmod_Improper_Torsional_Energy-OPLS-2005>
11.1753816604614

> <r_mmod_Van_der_Waal_Energy-OPLS-2005>
150.8740234375

> <r_mmod_Electrostatic_Energy-OPLS-2005>
-410.336090087891

> <r_mmod_Solvation_Energy-OPLS-2005>
-236.039581298828

> <b_mmod_Minimization_Converged-OPLS-2005>
0

> <r_mmod_RMS_Derivative-OPLS-2005>
0.629897058010101

$$$$
49
                    3D
 Structure written by MMmdl.
155163  0  0  1  0            999 V2000
  -30.6738  -14.5264   20.5276 C   0  0  0  0  0  0
  -30.4290  -12.3274   19.4398 C   0  0  0  0  0  0
  -29.5027  -12.5055   18.2178 C   0  0  0  0  0  0
  -28.0217  -12.3669   18.6240 C   0  0  0  0  0  0
  -27.6606  -13.2141   19.8738 C   0  0  2  0  0  0
  -28.7023  -13.0179   20.9991 C   0  0  0  0  0  0
  -25.2581  -13.8181   20.5684 C   0  0  0  0  0  0
  -24.1839  -13.0447   20.9190 C   0  0  0  0  0  0
  -24.6405  -11.6916   20.8742 C   0  0  0  0  0  0
  -23.9072  -10.4297   21.0405 C   0  0  0  0  0  0
  -24.3620   -9.4212   21.9183 C   0  0  0  0  0  0
  -23.6297   -8.2245   22.0749 C   0  0  0  0  0  0
  -22.4277   -8.0288   21.3543 C   0  0  0  0  0  0
  -21.9913   -9.0263   20.4643 C   0  0  0  0  0  0
  -22.7244  -10.2142   20.3053 C   0  0  0  0  0  0
  -21.6856   -6.0739   22.5283 C   0  0  0  0  0  0
  -21.4009   -6.5642   23.8216 C   0  0  0  0  0  0
  -21.3662   -5.6795   24.9178 C   0  0  0  0  0  0
  -21.6045   -4.3058   24.7227 C   0  0  0  0  0  0
  -21.8821   -3.8150   23.4349 C   0  0  0  0  0  0
  -21.9191   -4.6966   22.3404 C   0  0  0  0  0  0
  -22.7855  -13.5236   21.1853 C   0  0  0  0  0  0
  -22.1662   -4.2151   21.0981 F   0  0  0  0  0  0
  -21.5630   -3.4540   25.7739 F   0  0  0  0  0  0
  -30.0320  -13.3259   20.4477 N   0  0  0  0  0  0
  -26.3022  -12.9362   20.3359 N   0  0  0  0  0  0
  -25.9335  -11.6516   20.5763 N   0  0  0  0  0  0
  -22.0493  -12.8228   22.0411 N   0  0  0  0  0  0
  -25.4311  -15.1897   20.4089 N   0  0  0  0  0  0
  -31.8123  -14.6946   20.0831 O   0  0  0  0  0  0
  -21.6643   -6.8882   21.4244 O   0  0  0  0  0  0
  -22.3540  -14.5545   20.6706 O   0  0  0  0  0  0
  -24.6190  -31.8656   23.2075 C   0  0  0  0  0  0
  -25.9065  -32.4819   23.8380 C   0  0  1  0  0  0
  -27.2344  -27.4134   20.0987 C   0  0  0  0  0  0
  -25.5900  -33.8617   24.2316 N   0  0  0  0  0  0
  -23.4096  -30.4863   21.5485 C   0  0  2  0  0  0
  -24.8598  -28.9530   20.1068 C   0  0  0  0  0  0
  -22.7445  -29.4646   22.4992 C   0  0  0  0  0  0
  -18.0274  -28.1398   22.8496 C   0  0  0  0  0  0
  -24.1477  -36.7319   23.2632 C   0  0  0  0  0  0
  -25.9398  -30.8249   21.3645 C   0  0  0  0  0  0
  -26.0206  -29.4582   20.7087 C   0  0  0  0  0  0
  -27.2140  -28.6950   20.7033 C   0  0  0  0  0  0
  -26.0619  -26.9303   19.4851 C   0  0  0  0  0  0
  -24.8765  -27.6898   19.4892 C   0  0  0  0  0  0
  -23.6201  -29.8187   20.1624 C   0  0  0  0  0  0
  -25.4101  -36.3117   24.0330 C   0  0  1  0  0  0
  -20.5868  -28.3690   23.1316 C   0  0  2  0  0  0
  -20.6768  -26.9423   22.5431 C   0  0  0  0  0  0
  -19.5747  -26.6404   21.5226 C   0  0  0  0  0  0
  -18.1921  -26.7943   22.1637 C   0  0  0  0  0  0
  -19.1524  -28.8864   23.2901 C   0  0  0  0  0  0
  -18.9452  -30.1468   23.8917 C   0  0  0  0  0  0
  -17.6452  -30.6604   24.0566 C   0  0  0  0  0  0
  -25.9026  -34.9481   23.5127 C   0  0  0  0  0  0
  -16.5342  -29.9106   23.6331 C   0  0  0  0  0  0
  -16.7262  -28.6524   23.0352 C   0  0  0  0  0  0
  -26.4480  -31.6598   25.0715 C   0  0  0  0  0  0
  -25.3746  -31.3702   26.1468 C   0  0  0  0  0  0
  -27.0298  -30.3027   24.6110 C   0  0  0  0  0  0
  -27.6041  -32.4322   25.7484 C   0  0  0  0  0  0
  -27.5576  -37.1812   24.8465 C   0  0  0  0  0  0
  -21.4170  -29.3043   22.3724 N   0  0  0  0  0  0
  -26.4291  -37.3801   23.9408 N   0  0  0  0  0  0
  -24.6743  -31.0730   22.0987 N   0  0  0  0  0  0
  -23.4206  -28.8199   23.3053 O   0  0  0  0  0  0
  -28.3305  -26.5756   20.1635 O   0  0  0  0  0  0
  -26.5601  -34.8936   22.4693 O   0  0  0  0  0  0
  -23.5375  -32.1421   23.7453 O   0  0  0  0  0  0
  -30.6682  -18.8707   19.2958 C   0  0  0  0  0  0
  -30.6437  -17.4789   19.5455 C   0  0  0  0  0  0
  -30.1243  -19.8138   20.2021 C   0  0  0  0  0  0
  -30.0560  -16.9656   20.7264 C   0  0  0  0  0  0
  -29.5504  -19.3021   21.4016 C   0  0  0  0  0  0
  -29.4979  -17.8975   21.6355 C   0  0  0  0  0  0
  -28.2882  -25.7084   21.2388 C   0  0  0  0  0  0
  -28.7131  -24.4190   21.3447 C   0  0  0  0  0  0
  -29.3769  -23.6417   20.2826 C   0  0  0  0  0  0
  -30.2299  -21.3128   19.8008 C   0  0  0  0  0  0
  -29.0507  -20.1466   22.4003 N   0  0  0  0  0  0
  -29.9394  -15.5557   21.0092 N   0  0  0  0  0  0
  -29.4406  -22.3109   20.5424 N   0  0  0  0  0  0
  -29.8842  -24.1235   19.2681 O   0  0  0  0  0  0
  -28.5268  -23.8209   22.5327 O   0  0  0  0  0  0
  -28.9147  -17.4389   22.7714 F   0  0  0  0  0  0
  -31.4734  -12.4300   19.1394 H   0  0  0  0  0  0
  -30.3379  -11.3211   19.8513 H   0  0  0  0  0  0
  -29.7486  -11.7717   17.4490 H   0  0  0  0  0  0
  -29.6712  -13.4865   17.7703 H   0  0  0  0  0  0
  -27.8287  -11.3121   18.8216 H   0  0  0  0  0  0
  -27.3773  -12.6402   17.7875 H   0  0  0  0  0  0
  -27.6970  -14.2590   19.5647 H   0  0  0  0  0  0
  -28.6835  -11.9880   21.3584 H   0  0  0  0  0  0
  -28.4611  -13.6337   21.8670 H   0  0  0  0  0  0
  -25.2764   -9.5689   22.4760 H   0  0  0  0  0  0
  -24.0013   -7.4631   22.7460 H   0  0  0  0  0  0
  -21.0848   -8.8794   19.8941 H   0  0  0  0  0  0
  -22.3716  -10.9688   19.6163 H   0  0  0  0  0  0
  -21.2001   -7.6149   23.9724 H   0  0  0  0  0  0
  -21.1480   -6.0519   25.9082 H   0  0  0  0  0  0
  -22.0595   -2.7612   23.2853 H   0  0  0  0  0  0
  -22.4103  -11.9890   22.4810 H   0  0  0  0  0  0
  -21.1100  -13.1244   22.2590 H   0  0  0  0  0  0
  -24.6687  -15.8489   20.5192 H   0  0  0  0  0  0
  -26.2868  -15.6263   20.0899 H   0  0  0  0  0  0
  -26.7138  -32.5524   23.1143 H   0  0  0  0  0  0
  -25.0037  -33.9768   25.0458 H   0  0  0  0  0  0
  -22.6986  -31.3029   21.4091 H   0  0  0  0  0  0
  -23.3733  -35.9658   23.3321 H   0  0  0  0  0  0
  -24.3552  -36.8916   22.2037 H   0  0  0  0  0  0
  -23.7253  -37.6535   23.6642 H   0  0  0  0  0  0
  -26.0506  -31.5921   20.5967 H   0  0  0  0  0  0
  -26.8267  -30.8795   21.9838 H   0  0  0  0  0  0
  -28.1058  -29.0665   21.1890 H   0  0  0  0  0  0
  -26.0602  -25.9475   19.0341 H   0  0  0  0  0  0
  -23.9823  -27.2940   19.0270 H   0  0  0  0  0  0
  -23.7243  -30.5952   19.4037 H   0  0  0  0  0  0
  -22.7445  -29.2357   19.8692 H   0  0  0  0  0  0
  -25.1279  -36.1967   25.0821 H   0  0  0  0  0  0
  -20.9939  -28.3269   24.1445 H   0  0  0  0  0  0
  -20.5684  -26.2304   23.3631 H   0  0  0  0  0  0
  -21.6635  -26.7489   22.1199 H   0  0  0  0  0  0
  -19.6905  -25.6316   21.1250 H   0  0  0  0  0  0
  -19.6666  -27.3231   20.6759 H   0  0  0  0  0  0
  -17.4186  -26.6700   21.4038 H   0  0  0  0  0  0
  -18.0307  -26.0087   22.9033 H   0  0  0  0  0  0
  -19.7926  -30.7281   24.2296 H   0  0  0  0  0  0
  -17.5003  -31.6275   24.5181 H   0  0  0  0  0  0
  -15.5341  -30.3008   23.7653 H   0  0  0  0  0  0
  -15.8661  -28.0851   22.7054 H   0  0  0  0  0  0
  -24.5913  -30.7066   25.7799 H   0  0  0  0  0  0
  -24.8950  -32.2853   26.4937 H   0  0  0  0  0  0
  -25.8097  -30.8848   27.0215 H   0  0  0  0  0  0
  -26.2842  -29.6801   24.1152 H   0  0  0  0  0  0
  -27.4026  -29.7258   25.4581 H   0  0  0  0  0  0
  -27.8703  -30.4306   23.9289 H   0  0  0  0  0  0
  -27.2641  -33.3595   26.2110 H   0  0  0  0  0  0
  -28.3831  -32.6937   25.0311 H   0  0  0  0  0  0
  -28.0751  -31.8435   26.5365 H   0  0  0  0  0  0
  -28.2614  -38.0088   24.7491 H   0  0  0  0  0  0
  -28.1057  -36.2623   24.6322 H   0  0  0  0  0  0
  -27.2293  -37.1502   25.8868 H   0  0  0  0  0  0
  -20.9364  -29.8736   21.6897 H   0  0  0  0  0  0
  -26.0184  -38.2883   24.1399 H   0  0  0  0  0  0
  -31.1198  -19.2229   18.3781 H   0  0  0  0  0  0
  -31.0647  -16.8144   18.8042 H   0  0  0  0  0  0
  -27.8263  -26.1881   22.0931 H   0  0  0  0  0  0
  -29.9683  -21.3957   18.7449 H   0  0  0  0  0  0
  -31.2812  -21.5970   19.8712 H   0  0  0  0  0  0
  -29.7987  -20.6480   22.8660 H   0  0  0  0  0  0
  -28.5828  -19.6017   23.1194 H   0  0  0  0  0  0
  -29.1227  -15.2954   21.5400 H   0  0  0  0  0  0
  -28.9120  -21.9171   21.3131 H   0  0  0  0  0  0
  -29.0291  -23.0172   22.5201 H   0  0  0  0  0  0
  1 25  1  0  0  0
  1 30  2  0  0  0
  1 82  1  0  0  0
  2  3  1  0  0  0
  2 25  1  0  0  0
  2 87  1  0  0  0
  2 88  1  0  0  0
  3  4  1  0  0  0
  3 89  1  0  0  0
  3 90  1  0  0  0
  4  5  1  0  0  0
  4 91  1  0  0  0
  4 92  1  0  0  0
  5  6  1  0  0  0
  5 26  1  0  0  0
  5 93  1  0  0  0
  6 25  1  0  0  0
  6 94  1  0  0  0
  6 95  1  0  0  0
  7  8  2  0  0  0
  7 26  1  0  0  0
  7 29  1  0  0  0
  8  9  1  0  0  0
  8 22  1  0  0  0
  9 10  1  0  0  0
  9 27  2  0  0  0
 10 11  2  0  0  0
 10 15  1  0  0  0
 11 12  1  0  0  0
 11 96  1  0  0  0
 12 13  2  0  0  0
 12 97  1  0  0  0
 13 14  1  0  0  0
 13 31  1  0  0  0
 14 15  2  0  0  0
 14 98  1  0  0  0
 15 99  1  0  0  0
 16 17  2  0  0  0
 16 21  1  0  0  0
 16 31  1  0  0  0
 17 18  1  0  0  0
 17100  1  0  0  0
 18 19  2  0  0  0
 18101  1  0  0  0
 19 20  1  0  0  0
 19 24  1  0  0  0
 20 21  2  0  0  0
 20102  1  0  0  0
 21 23  1  0  0  0
 22 28  1  0  0  0
 22 32  2  0  0  0
 26 27  1  0  0  0
 28103  1  0  0  0
 28104  1  0  0  0
 29105  1  0  0  0
 29106  1  0  0  0
 33 34  1  0  0  0
 33 66  1  0  0  0
 33 70  2  0  0  0
 34 36  1  0  0  0
 34 59  1  0  0  0
 34107  1  0  0  0
 35 44  2  0  0  0
 35 45  1  0  0  0
 35 68  1  0  0  0
 36 56  1  0  0  0
 36108  1  0  0  0
 37 39  1  0  0  0
 37 47  1  0  0  0
 37 66  1  0  0  0
 37109  1  0  0  0
 38 43  2  0  0  0
 38 46  1  0  0  0
 38 47  1  0  0  0
 39 64  1  0  0  0
 39 67  2  0  0  0
 40 52  1  0  0  0
 40 53  2  0  0  0
 40 58  1  0  0  0
 41110  1  0  0  0
 41111  1  0  0  0
 41112  1  0  0  0
 41 48  1  0  0  0
 42 43  1  0  0  0
 42 66  1  0  0  0
 42113  1  0  0  0
 42114  1  0  0  0
 43 44  1  0  0  0
 44115  1  0  0  0
 45 46  2  0  0  0
 45116  1  0  0  0
 46117  1  0  0  0
 47118  1  0  0  0
 47119  1  0  0  0
 48 56  1  0  0  0
 48 65  1  0  0  0
 48120  1  0  0  0
 49 50  1  0  0  0
 49 53  1  0  0  0
 49 64  1  0  0  0
 49121  1  0  0  0
 50 51  1  0  0  0
 50122  1  0  0  0
 50123  1  0  0  0
 51 52  1  0  0  0
 51124  1  0  0  0
 51125  1  0  0  0
 52126  1  0  0  0
 52127  1  0  0  0
 53 54  1  0  0  0
 54 55  2  0  0  0
 54128  1  0  0  0
 55 57  1  0  0  0
 55129  1  0  0  0
 56 69  2  0  0  0
 57 58  2  0  0  0
 57130  1  0  0  0
 58131  1  0  0  0
 59 60  1  0  0  0
 59 61  1  0  0  0
 59 62  1  0  0  0
 60132  1  0  0  0
 60133  1  0  0  0
 60134  1  0  0  0
 61135  1  0  0  0
 61136  1  0  0  0
 61137  1  0  0  0
 62138  1  0  0  0
 62139  1  0  0  0
 62140  1  0  0  0
 63 65  1  0  0  0
 63141  1  0  0  0
 63142  1  0  0  0
 63143  1  0  0  0
 64144  1  0  0  0
 65145  1  0  0  0
 68 77  1  0  0  0
 71 72  2  0  0  0
 71 73  1  0  0  0
 71146  1  0  0  0
 72 74  1  0  0  0
 72147  1  0  0  0
 73 75  2  0  0  0
 73 80  1  0  0  0
 74 76  2  0  0  0
 74 82  1  0  0  0
 75 76  1  0  0  0
 75 81  1  0  0  0
 76 86  1  0  0  0
 77 78  2  0  0  0
 77148  1  0  0  0
 78 79  1  0  0  0
 78 85  1  0  0  0
 79 83  1  0  0  0
 79 84  2  0  0  0
 80 83  1  0  0  0
 80149  1  0  0  0
 80150  1  0  0  0
 81151  1  0  0  0
 81152  1  0  0  0
 82153  1  0  0  0
 83154  1  0  0  0
 85155  1  0  0  0
M  ISO  4   1 100  68 101  77 101  82 100
M  END
> <chiral flag>
0

> <version>
0

> <s_m_source_file>
/data/baiqing/PycharmProjects/Reinvent-master-3.2/result/LINK_invent/BTK/process_docking_weight1_custom_product_contain_oxygen_bond_distance_aromatic_linkinvent_7_9_3/rearranged_h_0168.sdf

> <i_m_source_file_index>
50

> <r_mmod_Potential_Energy-OPLS-2005>
-68.2647323608398

> <r_mmod_Stretch_Energy-OPLS-2005>
46.536808013916

> <r_mmod_Bend_Energy-OPLS-2005>
119.608932495117

> <r_mmod_Torsional_Energy-OPLS-2005>
248.519775390625

> <r_mmod_Improper_Torsional_Energy-OPLS-2005>
10.4851131439209

> <r_mmod_Van_der_Waal_Energy-OPLS-2005>
158.203826904297

> <r_mmod_Electrostatic_Energy-OPLS-2005>
-433.486358642578

> <r_mmod_Solvation_Energy-OPLS-2005>
-240.32682800293

> <b_mmod_Minimization_Converged-OPLS-2005>
0

> <r_mmod_RMS_Derivative-OPLS-2005>
1.79043292999268

$$$$
50
                    3D
 Structure written by MMmdl.
160168  0  0  1  0            999 V2000
  -29.8225  -16.8984   20.2432 C   0  0  0  0  0  0
  -30.2717  -14.0307   19.5419 C   0  0  0  0  0  0
  -29.5804  -13.0776   18.4587 C   0  0  0  0  0  0
  -28.2779  -12.4498   18.9535 C   0  0  0  0  0  0
  -27.5736  -13.4865   19.8339 C   0  0  2  0  0  0
  -28.4803  -14.3020   20.8546 C   0  0  0  0  0  0
  -25.2094  -13.8591   20.6011 C   0  0  0  0  0  0
  -24.1658  -13.0492   20.9364 C   0  0  0  0  0  0
  -24.6612  -11.7090   20.8750 C   0  0  0  0  0  0
  -23.9330  -10.4346   21.0321 C   0  0  0  0  0  0
  -24.3786   -9.4237   21.9122 C   0  0  0  0  0  0
  -23.6388   -8.2303   22.0732 C   0  0  0  0  0  0
  -22.4355   -8.0347   21.3547 C   0  0  0  0  0  0
  -22.0057   -9.0329   20.4624 C   0  0  0  0  0  0
  -22.7465  -10.2172   20.2996 C   0  0  0  0  0  0
  -21.6890   -6.0772   22.5271 C   0  0  0  0  0  0
  -21.4046   -6.5657   23.8210 C   0  0  0  0  0  0
  -21.3672   -5.6803   24.9168 C   0  0  0  0  0  0
  -21.6033   -4.3063   24.7211 C   0  0  0  0  0  0
  -21.8818   -3.8163   23.4332 C   0  0  0  0  0  0
  -21.9203   -4.6990   22.3391 C   0  0  0  0  0  0
  -22.7618  -13.5055   21.1968 C   0  0  0  0  0  0
  -22.1661   -4.2171   21.0969 F   0  0  0  0  0  0
  -21.5621   -3.4538   25.7721 F   0  0  0  0  0  0
  -29.4414  -15.3022   20.1490 N   0  0  0  0  0  0
  -26.2844  -13.0329   20.3607 N   0  0  0  0  0  0
  -25.9653  -11.7187   20.5674 N   0  0  0  0  0  0
  -22.0334  -12.7978   22.0514 N   0  0  0  0  0  0
  -25.3339  -15.2363   20.4433 N   0  0  0  0  0  0
  -31.0757  -16.6104   20.1681 O   0  0  0  0  0  0
  -21.6692   -6.8948   21.4249 O   0  0  0  0  0  0
  -22.3232  -14.5327   20.6804 O   0  0  0  0  0  0
  -24.7702  -31.6902   23.0820 C   0  0  0  0  0  0
  -25.9820  -32.3959   23.7716 C   0  0  1  0  0  0
  -27.2897  -25.8305   20.2708 C   0  0  0  0  0  0
  -25.6012  -33.7841   24.1480 N   0  0  0  0  0  0
  -23.6376  -30.2503   21.4578 C   0  0  2  0  0  0
  -25.1145  -28.4104   20.1474 C   0  0  0  0  0  0
  -22.8164  -29.3719   22.4496 C   0  0  0  0  0  0
  -18.0397  -28.1459   22.8412 C   0  0  0  0  0  0
  -24.1507  -36.6942   23.2674 C   0  0  0  0  0  0
  -26.2447  -30.1302   21.4870 C   0  0  0  0  0  0
  -26.3115  -28.5963   20.8508 C   0  0  0  0  0  0
  -27.3382  -27.3675   20.8701 C   0  0  0  0  0  0
  -26.0686  -26.0970   19.5010 C   0  0  0  0  0  0
  -25.0857  -27.1866   19.4454 C   0  0  0  0  0  0
  -23.9437  -29.4645   20.1352 C   0  0  0  0  0  0
  -25.4180  -36.2605   24.0234 C   0  0  1  0  0  0
  -20.6073  -28.3855   23.0988 C   0  0  2  0  0  0
  -20.6813  -26.9429   22.5427 C   0  0  0  0  0  0
  -19.5801  -26.6329   21.5229 C   0  0  0  0  0  0
  -18.1983  -26.7972   22.1605 C   0  0  0  0  0  0
  -19.1684  -28.8997   23.2661 C   0  0  0  0  0  0
  -18.9574  -30.1561   23.8738 C   0  0  0  0  0  0
  -17.6551  -30.6618   24.0522 C   0  0  0  0  0  0
  -25.9202  -34.9011   23.4765 C   0  0  0  0  0  0
  -16.5437  -29.9081   23.6361 C   0  0  0  0  0  0
  -16.7371  -28.6509   23.0379 C   0  0  0  0  0  0
  -26.4726  -31.6383   25.0691 C   0  0  0  0  0  0
  -25.3576  -31.3912   26.1146 C   0  0  0  0  0  0
  -27.0782  -30.2639   24.7205 C   0  0  0  0  0  0
  -27.6012  -32.4465   25.7523 C   0  0  0  0  0  0
  -27.5547  -37.1618   24.8467 C   0  0  0  0  0  0
  -21.4732  -29.2921   22.3210 N   0  0  0  0  0  0
  -26.4235  -37.3456   23.9414 N   0  0  0  0  0  0
  -24.9200  -30.7447   22.0604 N   0  0  0  0  0  0
  -23.4176  -28.7471   23.3249 O   0  0  0  0  0  0
  -27.9413  -24.1137   20.2174 O   0  0  0  0  0  0
  -26.5978  -34.8745   22.4468 O   0  0  0  0  0  0
  -23.6541  -32.0378   23.5193 O   0  0  0  0  0  0
  -28.3532  -21.9151   21.4898 C   0  0  0  0  0  0
  -29.7274  -23.5144   19.1675 C   0  0  0  0  0  0
  -29.8953  -24.5323   20.7017 C   0  0  0  0  0  0
  -28.9175  -23.5585   21.9971 C   0  0  0  0  0  0
  -28.8596  -20.7343   20.2810 C   0  0  0  0  0  0
  -31.1668  -25.2032   20.8763 C   0  0  0  0  0  0
  -30.9778  -21.2836   22.0229 C   0  0  0  0  0  0
  -30.8499  -21.4616   23.5398 C   0  0  0  0  0  0
  -32.0207  -22.9454   20.3935 C   0  0  0  0  0  0
  -30.5963  -22.4761   20.9908 C   0  0  2  0  0  0
  -29.2056  -21.9032   19.1716 N   0  3  0  0  0  0
  -28.7423  -24.0058   23.3083 N   0  0  0  0  0  0
  -31.2816  -26.5085   21.1508 N   0  0  0  0  0  0
  -29.0638  -18.6023   20.2880 N   0  0  0  0  0  0
  -32.2345  -24.4015   20.6807 N   0  3  0  0  0  0
  -31.4218  -20.2143   21.5962 O   0  0  0  0  0  0
  -31.1536  -14.4363   19.0436 H   0  0  0  0  0  0
  -30.7050  -13.4263   20.3423 H   0  0  0  0  0  0
  -30.2722  -12.3001   18.1336 H   0  0  0  0  0  0
  -29.3654  -13.6746   17.5719 H   0  0  0  0  0  0
  -28.5105  -11.5682   19.5523 H   0  0  0  0  0  0
  -27.6492  -12.1212   18.1249 H   0  0  0  0  0  0
  -27.2907  -14.2394   19.0964 H   0  0  0  0  0  0
  -28.9735  -13.6391   21.5687 H   0  0  0  0  0  0
  -27.8361  -14.9164   21.4840 H   0  0  0  0  0  0
  -25.2914   -9.5687   22.4732 H   0  0  0  0  0  0
  -24.0060   -7.4707   22.7486 H   0  0  0  0  0  0
  -21.0969   -8.8887   19.8942 H   0  0  0  0  0  0
  -22.3917  -10.9708   19.6100 H   0  0  0  0  0  0
  -21.2064   -7.6166   23.9727 H   0  0  0  0  0  0
  -21.1481   -6.0522   25.9072 H   0  0  0  0  0  0
  -22.0586   -2.7622   23.2821 H   0  0  0  0  0  0
  -22.4050  -11.9685   22.4910 H   0  0  0  0  0  0
  -21.0908  -13.0880   22.2709 H   0  0  0  0  0  0
  -24.5433  -15.8637   20.5423 H   0  0  0  0  0  0
  -26.1651  -15.6956   20.0979 H   0  0  0  0  0  0
  -26.8042  -32.4305   23.0554 H   0  0  0  0  0  0
  -24.9920  -33.8728   24.9480 H   0  0  0  0  0  0
  -23.0178  -31.1083   21.1909 H   0  0  0  0  0  0
  -23.3805  -35.9228   23.3195 H   0  0  0  0  0  0
  -24.3563  -36.8793   22.2119 H   0  0  0  0  0  0
  -23.7233  -37.6031   23.6915 H   0  0  0  0  0  0
  -26.5332  -30.7950   20.6714 H   0  0  0  0  0  0
  -27.0678  -30.2235   22.1798 H   0  0  0  0  0  0
  -28.1976  -27.5533   21.4972 H   0  0  0  0  0  0
  -25.7684  -25.2433   18.9077 H   0  0  0  0  0  0
  -24.2187  -27.0039   18.8235 H   0  0  0  0  0  0
  -24.1843  -30.1867   19.3561 H   0  0  0  0  0  0
  -23.0358  -28.9711   19.7858 H   0  0  0  0  0  0
  -25.1428  -36.1252   25.0725 H   0  0  0  0  0  0
  -21.0129  -28.3542   24.1128 H   0  0  0  0  0  0
  -20.5585  -26.2504   23.3772 H   0  0  0  0  0  0
  -21.6669  -26.7216   22.1299 H   0  0  0  0  0  0
  -19.6941  -25.6196   21.1355 H   0  0  0  0  0  0
  -19.6775  -27.3058   20.6699 H   0  0  0  0  0  0
  -17.4268  -26.6731   21.3996 H   0  0  0  0  0  0
  -18.0332  -26.0148   22.9026 H   0  0  0  0  0  0
  -19.8049  -30.7407   24.2060 H   0  0  0  0  0  0
  -17.5094  -31.6281   24.5163 H   0  0  0  0  0  0
  -15.5432  -30.2933   23.7766 H   0  0  0  0  0  0
  -15.8777  -28.0761   22.7198 H   0  0  0  0  0  0
  -24.5833  -30.7204   25.7405 H   0  0  0  0  0  0
  -24.8692  -32.3186   26.4141 H   0  0  0  0  0  0
  -25.7566  -30.9331   27.0206 H   0  0  0  0  0  0
  -26.3616  -29.5975   24.2395 H   0  0  0  0  0  0
  -27.4045  -29.7457   25.6234 H   0  0  0  0  0  0
  -27.9671  -30.3584   24.0968 H   0  0  0  0  0  0
  -27.2451  -33.3954   26.1545 H   0  0  0  0  0  0
  -28.4064  -32.6729   25.0525 H   0  0  0  0  0  0
  -28.0411  -31.8985   26.5862 H   0  0  0  0  0  0
  -28.2461  -38.0001   24.7522 H   0  0  0  0  0  0
  -28.1139  -36.2509   24.6282 H   0  0  0  0  0  0
  -27.2264  -37.1218   25.8864 H   0  0  0  0  0  0
  -21.0267  -29.8462   21.6029 H   0  0  0  0  0  0
  -25.9992  -38.2469   24.1417 H   0  0  0  0  0  0
  -27.8518  -21.4178   22.3071 H   0  0  0  0  0  0
  -30.1552  -23.8385   18.2289 H   0  0  0  0  0  0
  -30.9479  -22.5048   23.8425 H   0  0  0  0  0  0
  -31.6416  -20.9036   24.0389 H   0  0  0  0  0  0
  -29.8914  -21.0815   23.8899 H   0  0  0  0  0  0
  -32.1073  -22.7487   19.3253 H   0  0  0  0  0  0
  -32.8502  -22.3972   20.8426 H   0  0  0  0  0  0
  -30.9805  -22.9893   21.8827 H   0  0  0  0  0  0
  -29.3448  -21.4823   18.2449 H   0  0  0  0  0  0
  -27.9678  -23.5964   23.8175 H   0  0  0  0  0  0
  -28.7763  -25.0098   23.4398 H   0  0  0  0  0  0
  -30.4584  -27.0842   21.2371 H   0  0  0  0  0  0
  -32.1749  -26.9726   21.2322 H   0  0  0  0  0  0
  -28.1143  -18.2948   20.4100 H   0  0  0  0  0  0
  -33.1820  -24.7447   20.7443 H   0  0  0  0  0  0
  1 25  1  0  0  0
  1 30  2  0  0  0
  1 84  1  0  0  0
  2  3  1  0  0  0
  2 25  1  0  0  0
  2 87  1  0  0  0
  2 88  1  0  0  0
  3  4  1  0  0  0
  3 89  1  0  0  0
  3 90  1  0  0  0
  4  5  1  0  0  0
  4 91  1  0  0  0
  4 92  1  0  0  0
  5  6  1  0  0  0
  5 26  1  0  0  0
  5 93  1  0  0  0
  6 25  1  0  0  0
  6 94  1  0  0  0
  6 95  1  0  0  0
  7  8  2  0  0  0
  7 26  1  0  0  0
  7 29  1  0  0  0
  8  9  1  0  0  0
  8 22  1  0  0  0
  9 10  1  0  0  0
  9 27  2  0  0  0
 10 11  2  0  0  0
 10 15  1  0  0  0
 11 12  1  0  0  0
 11 96  1  0  0  0
 12 13  2  0  0  0
 12 97  1  0  0  0
 13 14  1  0  0  0
 13 31  1  0  0  0
 14 15  2  0  0  0
 14 98  1  0  0  0
 15 99  1  0  0  0
 16 17  2  0  0  0
 16 21  1  0  0  0
 16 31  1  0  0  0
 17 18  1  0  0  0
 17100  1  0  0  0
 18 19  2  0  0  0
 18101  1  0  0  0
 19 20  1  0  0  0
 19 24  1  0  0  0
 20 21  2  0  0  0
 20102  1  0  0  0
 21 23  1  0  0  0
 22 28  1  0  0  0
 22 32  2  0  0  0
 26 27  1  0  0  0
 28103  1  0  0  0
 28104  1  0  0  0
 29105  1  0  0  0
 29106  1  0  0  0
 33 34  1  0  0  0
 33 66  1  0  0  0
 33 70  2  0  0  0
 34 36  1  0  0  0
 34 59  1  0  0  0
 34107  1  0  0  0
 35 44  2  0  0  0
 35 45  1  0  0  0
 35 68  1  0  0  0
 36 56  1  0  0  0
 36108  1  0  0  0
 37 39  1  0  0  0
 37 47  1  0  0  0
 37 66  1  0  0  0
 37109  1  0  0  0
 38 43  2  0  0  0
 38 46  1  0  0  0
 38 47  1  0  0  0
 39 64  1  0  0  0
 39 67  2  0  0  0
 40 52  1  0  0  0
 40 53  2  0  0  0
 40 58  1  0  0  0
 41110  1  0  0  0
 41111  1  0  0  0
 41112  1  0  0  0
 41 48  1  0  0  0
 42 43  1  0  0  0
 42 66  1  0  0  0
 42113  1  0  0  0
 42114  1  0  0  0
 43 44  1  0  0  0
 44115  1  0  0  0
 45 46  2  0  0  0
 45116  1  0  0  0
 46117  1  0  0  0
 47118  1  0  0  0
 47119  1  0  0  0
 48 56  1  0  0  0
 48 65  1  0  0  0
 48120  1  0  0  0
 49 50  1  0  0  0
 49 53  1  0  0  0
 49 64  1  0  0  0
 49121  1  0  0  0
 50 51  1  0  0  0
 50122  1  0  0  0
 50123  1  0  0  0
 51 52  1  0  0  0
 51124  1  0  0  0
 51125  1  0  0  0
 52126  1  0  0  0
 52127  1  0  0  0
 53 54  1  0  0  0
 54 55  2  0  0  0
 54128  1  0  0  0
 55 57  1  0  0  0
 55129  1  0  0  0
 56 69  2  0  0  0
 57 58  2  0  0  0
 57130  1  0  0  0
 58131  1  0  0  0
 59 60  1  0  0  0
 59 61  1  0  0  0
 59 62  1  0  0  0
 60132  1  0  0  0
 60133  1  0  0  0
 60134  1  0  0  0
 61135  1  0  0  0
 61136  1  0  0  0
 61137  1  0  0  0
 62138  1  0  0  0
 62139  1  0  0  0
 62140  1  0  0  0
 63 65  1  0  0  0
 63141  1  0  0  0
 63142  1  0  0  0
 63143  1  0  0  0
 64144  1  0  0  0
 65145  1  0  0  0
 68 80  1  0  0  0
 71 74  2  0  0  0
 71 75  1  0  0  0
 71146  1  0  0  0
 72 73  2  0  0  0
 72 81  1  0  0  0
 72147  1  0  0  0
 73 74  1  0  0  0
 73 76  1  0  0  0
 74 82  1  0  0  0
 75 81  2  0  0  0
 75 84  1  0  0  0
 76 83  1  0  0  0
 76 85  2  0  0  0
 77 78  1  0  0  0
 77 80  1  0  0  0
 77 86  2  0  0  0
 78148  1  0  0  0
 78149  1  0  0  0
 78150  1  0  0  0
 79 85  1  0  0  0
 79151  1  0  0  0
 79152  1  0  0  0
 79 80  1  0  0  0
 80153  1  0  0  0
 81154  1  0  0  0
 82155  1  0  0  0
 82156  1  0  0  0
 83157  1  0  0  0
 83158  1  0  0  0
 84159  1  0  0  0
 85160  1  0  0  0
M  CHG  2  81   1  85   1
M  ISO  4   1 100  68 101  80 101  84 100
M  END
> <chiral flag>
0

> <version>
0

> <s_m_source_file>
/data/baiqing/PycharmProjects/Reinvent-master-3.2/result/LINK_invent/BTK/process_docking_weight1_custom_product_contain_oxygen_bond_distance_aromatic_linkinvent_7_9_3/rearranged_h_0168.sdf

> <i_m_source_file_index>
51

> <r_mmod_Potential_Energy-OPLS-2005>
15642.0615234375

> <r_mmod_Stretch_Energy-OPLS-2005>
8697.5634765625

> <r_mmod_Bend_Energy-OPLS-2005>
1294.13110351562

> <r_mmod_Torsional_Energy-OPLS-2005>
415.983947753906

> <r_mmod_Improper_Torsional_Energy-OPLS-2005>
29.0397720336914

> <r_mmod_Van_der_Waal_Energy-OPLS-2005>
2090.37622070312

> <r_mmod_Electrostatic_Energy-OPLS-2005>
239.066146850586

> <r_mmod_Solvation_Energy-OPLS-2005>
-959.046081542969

> <b_mmod_Minimization_Converged-OPLS-2005>
0

> <r_mmod_RMS_Derivative-OPLS-2005>
4.40560102462769

$$$$
51
                    3D
 Structure written by MMmdl.
154162  0  0  1  0            999 V2000
  -30.6969  -14.5201   20.5137 C   0  0  0  0  0  0
  -30.4046  -12.3096   19.4518 C   0  0  0  0  0  0
  -29.4970  -12.4869   18.2171 C   0  0  0  0  0  0
  -28.0128  -12.3608   18.6174 C   0  0  0  0  0  0
  -27.6486  -13.2186   19.8593 C   0  0  2  0  0  0
  -28.6876  -13.0507   20.9878 C   0  0  0  0  0  0
  -25.2563  -13.8194   20.5725 C   0  0  0  0  0  0
  -24.1826  -13.0449   20.9195 C   0  0  0  0  0  0
  -24.6421  -11.6916   20.8755 C   0  0  0  0  0  0
  -23.9114  -10.4278   21.0410 C   0  0  0  0  0  0
  -24.3671   -9.4184   21.9176 C   0  0  0  0  0  0
  -23.6321   -8.2237   22.0752 C   0  0  0  0  0  0
  -22.4304   -8.0278   21.3541 C   0  0  0  0  0  0
  -21.9942   -9.0255   20.4651 C   0  0  0  0  0  0
  -22.7288  -10.2133   20.3044 C   0  0  0  0  0  0
  -21.6849   -6.0750   22.5299 C   0  0  0  0  0  0
  -21.4001   -6.5658   23.8228 C   0  0  0  0  0  0
  -21.3660   -5.6811   24.9195 C   0  0  0  0  0  0
  -21.6046   -4.3065   24.7241 C   0  0  0  0  0  0
  -21.8815   -3.8164   23.4356 C   0  0  0  0  0  0
  -21.9191   -4.6983   22.3419 C   0  0  0  0  0  0
  -22.7847  -13.5219   21.1841 C   0  0  0  0  0  0
  -22.1654   -4.2167   21.0995 F   0  0  0  0  0  0
  -21.5637   -3.4553   25.7765 F   0  0  0  0  0  0
  -30.0129  -13.3416   20.4319 N   0  0  0  0  0  0
  -26.2981  -12.9376   20.3316 N   0  0  0  0  0  0
  -25.9329  -11.6535   20.5749 N   0  0  0  0  0  0
  -22.0515  -12.8189   22.0425 N   0  0  0  0  0  0
  -25.4313  -15.1905   20.4101 N   0  0  0  0  0  0
  -31.8648  -14.5822   20.1194 O   0  0  0  0  0  0
  -21.6653   -6.8889   21.4250 O   0  0  0  0  0  0
  -22.3510  -14.5519   20.6683 O   0  0  0  0  0  0
  -24.6233  -31.8628   23.2101 C   0  0  0  0  0  0
  -25.9100  -32.4790   23.8401 C   0  0  1  0  0  0
  -27.1980  -27.3280   20.1156 C   0  0  0  0  0  0
  -25.5929  -33.8598   24.2305 N   0  0  0  0  0  0
  -23.4143  -30.4903   21.5545 C   0  0  2  0  0  0
  -24.8538  -28.9573   20.1049 C   0  0  0  0  0  0
  -22.7449  -29.4657   22.5004 C   0  0  0  0  0  0
  -18.0282  -28.1386   22.8527 C   0  0  0  0  0  0
  -24.1481  -36.7304   23.2627 C   0  0  0  0  0  0
  -25.9553  -30.7848   21.3961 C   0  0  0  0  0  0
  -26.0172  -29.4190   20.7310 C   0  0  0  0  0  0
  -27.1891  -28.6126   20.7364 C   0  0  0  0  0  0
  -26.0280  -26.9431   19.4195 C   0  0  0  0  0  0
  -24.8610  -27.7247   19.4383 C   0  0  0  0  0  0
  -23.6226  -29.8332   20.1654 C   0  0  0  0  0  0
  -25.4109  -36.3101   24.0337 C   0  0  1  0  0  0
  -20.5873  -28.3700   23.1316 C   0  0  2  0  0  0
  -20.6773  -26.9427   22.5436 C   0  0  0  0  0  0
  -19.5739  -26.6396   21.5237 C   0  0  0  0  0  0
  -18.1914  -26.7938   22.1633 C   0  0  0  0  0  0
  -19.1532  -28.8866   23.2910 C   0  0  0  0  0  0
  -18.9439  -30.1467   23.8931 C   0  0  0  0  0  0
  -17.6439  -30.6597   24.0574 C   0  0  0  0  0  0
  -25.9057  -34.9461   23.5118 C   0  0  0  0  0  0
  -16.5334  -29.9090   23.6340 C   0  0  0  0  0  0
  -16.7262  -28.6492   23.0397 C   0  0  0  0  0  0
  -26.4460  -31.6607   25.0788 C   0  0  0  0  0  0
  -25.3700  -31.3775   26.1536 C   0  0  0  0  0  0
  -27.0265  -30.2987   24.6314 C   0  0  0  0  0  0
  -27.6031  -32.4351   25.7531 C   0  0  0  0  0  0
  -27.5617  -37.1785   24.8437 C   0  0  0  0  0  0
  -21.4183  -29.3047   22.3716 N   0  0  0  0  0  0
  -26.4281  -37.3809   23.9442 N   0  0  0  0  0  0
  -24.6814  -31.0649   22.1071 N   0  0  0  0  0  0
  -23.4170  -28.8215   23.3099 O   0  0  0  0  0  0
  -28.3175  -26.4922   20.1982 O   0  0  0  0  0  0
  -26.5630  -34.8919   22.4690 O   0  0  0  0  0  0
  -23.5420  -32.1445   23.7442 O   0  0  0  0  0  0
  -29.0732  -19.0689   21.0829 C   0  0  0  0  0  0
  -30.2695  -18.3136   21.3483 C   0  0  0  0  0  0
  -31.1388  -19.1702   21.9741 C   0  0  0  0  0  0
  -29.3525  -20.3433   21.5380 C   0  0  0  0  0  0
  -30.6561  -16.8987   21.0708 C   0  0  0  0  0  0
  -29.9539  -15.7464   20.8847 C   0  0  0  0  0  0
  -32.5204  -19.0031   22.5244 C   0  0  0  0  0  0
  -28.4946  -22.4882   20.5287 C   0  0  0  0  0  0
  -28.2129  -25.0492   19.8903 C   0  0  0  0  0  0
  -28.5927  -23.9964   21.0034 C   0  0  0  0  0  0
  -28.5184  -21.4756   21.6118 N   0  0  0  0  0  0
  -30.5859  -20.4124   22.1021 O   0  0  0  0  0  0
  -27.7605  -24.1598   22.0332 F   0  0  0  0  0  0
  -29.8392  -24.2161   21.4223 F   0  0  0  0  0  0
  -31.4544  -12.3687   19.1634 H   0  0  0  0  0  0
  -30.2785  -11.3111   19.8749 H   0  0  0  0  0  0
  -29.7457  -11.7488   17.4540 H   0  0  0  0  0  0
  -29.6804  -13.4639   17.7643 H   0  0  0  0  0  0
  -27.8163  -11.3076   18.8258 H   0  0  0  0  0  0
  -27.3722  -12.6295   17.7763 H   0  0  0  0  0  0
  -27.6731  -14.2589   19.5316 H   0  0  0  0  0  0
  -28.6631  -12.0324   21.3764 H   0  0  0  0  0  0
  -28.4587  -13.6942   21.8384 H   0  0  0  0  0  0
  -25.2825   -9.5665   22.4759 H   0  0  0  0  0  0
  -24.0053   -7.4628   22.7473 H   0  0  0  0  0  0
  -21.0881   -8.8781   19.8938 H   0  0  0  0  0  0
  -22.3757  -10.9691   19.6166 H   0  0  0  0  0  0
  -21.1982   -7.6166   23.9751 H   0  0  0  0  0  0
  -21.1480   -6.0538   25.9111 H   0  0  0  0  0  0
  -22.0596   -2.7630   23.2872 H   0  0  0  0  0  0
  -22.4131  -11.9861   22.4814 H   0  0  0  0  0  0
  -21.1111  -13.1169   22.2615 H   0  0  0  0  0  0
  -24.6710  -15.8533   20.5251 H   0  0  0  0  0  0
  -26.2898  -15.6278   20.0992 H   0  0  0  0  0  0
  -26.7170  -32.5421   23.1153 H   0  0  0  0  0  0
  -24.9991  -33.9747   25.0389 H   0  0  0  0  0  0
  -22.7073  -31.3123   21.4216 H   0  0  0  0  0  0
  -23.3781  -35.9593   23.3207 H   0  0  0  0  0  0
  -24.3588  -36.9005   22.2056 H   0  0  0  0  0  0
  -23.7157  -37.6453   23.6698 H   0  0  0  0  0  0
  -26.1144  -31.5512   20.6384 H   0  0  0  0  0  0
  -26.8269  -30.8099   22.0394 H   0  0  0  0  0  0
  -28.0752  -28.9566   21.2490 H   0  0  0  0  0  0
  -25.9635  -26.0473   18.8235 H   0  0  0  0  0  0
  -23.9835  -27.3896   18.9033 H   0  0  0  0  0  0
  -23.7336  -30.6123   19.4108 H   0  0  0  0  0  0
  -22.7411  -29.2626   19.8683 H   0  0  0  0  0  0
  -25.1275  -36.1944   25.0826 H   0  0  0  0  0  0
  -20.9954  -28.3250   24.1442 H   0  0  0  0  0  0
  -20.5688  -26.2307   23.3637 H   0  0  0  0  0  0
  -21.6635  -26.7486   22.1201 H   0  0  0  0  0  0
  -19.6886  -25.6312   21.1258 H   0  0  0  0  0  0
  -19.6655  -27.3227   20.6781 H   0  0  0  0  0  0
  -17.4201  -26.6765   21.4006 H   0  0  0  0  0  0
  -18.0249  -26.0060   22.8992 H   0  0  0  0  0  0
  -19.7912  -30.7285   24.2307 H   0  0  0  0  0  0
  -17.4980  -31.6288   24.5158 H   0  0  0  0  0  0
  -15.5334  -30.2988   23.7652 H   0  0  0  0  0  0
  -15.8654  -28.0789   22.7143 H   0  0  0  0  0  0
  -24.5848  -30.7151   25.7885 H   0  0  0  0  0  0
  -24.8955  -32.2960   26.4992 H   0  0  0  0  0  0
  -25.8027  -30.8919   27.0289 H   0  0  0  0  0  0
  -26.2843  -29.6793   24.1267 H   0  0  0  0  0  0
  -27.3780  -29.7203   25.4869 H   0  0  0  0  0  0
  -27.8808  -30.4205   23.9655 H   0  0  0  0  0  0
  -27.2621  -33.3608   26.2172 H   0  0  0  0  0  0
  -28.3770  -32.6994   25.0319 H   0  0  0  0  0  0
  -28.0776  -31.8463   26.5388 H   0  0  0  0  0  0
  -28.2547  -38.0181   24.7656 H   0  0  0  0  0  0
  -28.1209  -36.2735   24.6015 H   0  0  0  0  0  0
  -27.2377  -37.1108   25.8841 H   0  0  0  0  0  0
  -20.9363  -29.8717   21.6882 H   0  0  0  0  0  0
  -26.0159  -38.2864   24.1549 H   0  0  0  0  0  0
  -28.1574  -18.7301   20.6197 H   0  0  0  0  0  0
  -31.7275  -16.8093   20.9722 H   0  0  0  0  0  0
  -28.8788  -15.7521   20.9701 H   0  0  0  0  0  0
  -32.5110  -18.4146   23.4426 H   0  0  0  0  0  0
  -32.9840  -19.9648   22.7441 H   0  0  0  0  0  0
  -33.1618  -18.4878   21.8117 H   0  0  0  0  0  0
  -29.2769  -22.2721   19.7993 H   0  0  0  0  0  0
  -27.5455  -22.3498   20.0058 H   0  0  0  0  0  0
  -27.2205  -24.7298   19.5840 H   0  0  0  0  0  0
  -28.8434  -24.8719   19.0162 H   0  0  0  0  0  0
  -28.6651  -21.9495   22.4976 H   0  0  0  0  0  0
  1 25  1  0  0  0
  1 30  2  0  0  0
  1 76  1  0  0  0
  2  3  1  0  0  0
  2 25  1  0  0  0
  2 85  1  0  0  0
  2 86  1  0  0  0
  3  4  1  0  0  0
  3 87  1  0  0  0
  3 88  1  0  0  0
  4  5  1  0  0  0
  4 89  1  0  0  0
  4 90  1  0  0  0
  5  6  1  0  0  0
  5 26  1  0  0  0
  5 91  1  0  0  0
  6 25  1  0  0  0
  6 92  1  0  0  0
  6 93  1  0  0  0
  7  8  2  0  0  0
  7 26  1  0  0  0
  7 29  1  0  0  0
  8  9  1  0  0  0
  8 22  1  0  0  0
  9 10  1  0  0  0
  9 27  2  0  0  0
 10 11  2  0  0  0
 10 15  1  0  0  0
 11 12  1  0  0  0
 11 94  1  0  0  0
 12 13  2  0  0  0
 12 95  1  0  0  0
 13 14  1  0  0  0
 13 31  1  0  0  0
 14 15  2  0  0  0
 14 96  1  0  0  0
 15 97  1  0  0  0
 16 17  2  0  0  0
 16 21  1  0  0  0
 16 31  1  0  0  0
 17 18  1  0  0  0
 17 98  1  0  0  0
 18 19  2  0  0  0
 18 99  1  0  0  0
 19 20  1  0  0  0
 19 24  1  0  0  0
 20 21  2  0  0  0
 20100  1  0  0  0
 21 23  1  0  0  0
 22 28  1  0  0  0
 22 32  2  0  0  0
 26 27  1  0  0  0
 28101  1  0  0  0
 28102  1  0  0  0
 29103  1  0  0  0
 29104  1  0  0  0
 33 34  1  0  0  0
 33 66  1  0  0  0
 33 70  2  0  0  0
 34 36  1  0  0  0
 34 59  1  0  0  0
 34105  1  0  0  0
 35 44  2  0  0  0
 35 45  1  0  0  0
 35 68  1  0  0  0
 36 56  1  0  0  0
 36106  1  0  0  0
 37 39  1  0  0  0
 37 47  1  0  0  0
 37 66  1  0  0  0
 37107  1  0  0  0
 38 43  2  0  0  0
 38 46  1  0  0  0
 38 47  1  0  0  0
 39 64  1  0  0  0
 39 67  2  0  0  0
 40 52  1  0  0  0
 40 53  2  0  0  0
 40 58  1  0  0  0
 41108  1  0  0  0
 41109  1  0  0  0
 41110  1  0  0  0
 41 48  1  0  0  0
 42 43  1  0  0  0
 42 66  1  0  0  0
 42111  1  0  0  0
 42112  1  0  0  0
 43 44  1  0  0  0
 44113  1  0  0  0
 45 46  2  0  0  0
 45114  1  0  0  0
 46115  1  0  0  0
 47116  1  0  0  0
 47117  1  0  0  0
 48 56  1  0  0  0
 48 65  1  0  0  0
 48118  1  0  0  0
 49 50  1  0  0  0
 49 53  1  0  0  0
 49 64  1  0  0  0
 49119  1  0  0  0
 50 51  1  0  0  0
 50120  1  0  0  0
 50121  1  0  0  0
 51 52  1  0  0  0
 51122  1  0  0  0
 51123  1  0  0  0
 52124  1  0  0  0
 52125  1  0  0  0
 53 54  1  0  0  0
 54 55  2  0  0  0
 54126  1  0  0  0
 55 57  1  0  0  0
 55127  1  0  0  0
 56 69  2  0  0  0
 57 58  2  0  0  0
 57128  1  0  0  0
 58129  1  0  0  0
 59 60  1  0  0  0
 59 61  1  0  0  0
 59 62  1  0  0  0
 60130  1  0  0  0
 60131  1  0  0  0
 60132  1  0  0  0
 61133  1  0  0  0
 61134  1  0  0  0
 61135  1  0  0  0
 62136  1  0  0  0
 62137  1  0  0  0
 62138  1  0  0  0
 63 65  1  0  0  0
 63139  1  0  0  0
 63140  1  0  0  0
 63141  1  0  0  0
 64142  1  0  0  0
 65143  1  0  0  0
 68 79  1  0  0  0
 71 72  1  0  0  0
 71 74  2  0  0  0
 71144  1  0  0  0
 72 73  2  0  0  0
 72 75  1  0  0  0
 73 77  1  0  0  0
 73 82  1  0  0  0
 74 81  1  0  0  0
 74 82  1  0  0  0
 75 76  2  0  0  0
 75145  1  0  0  0
 76146  1  0  0  0
 77147  1  0  0  0
 77148  1  0  0  0
 77149  1  0  0  0
 78 80  1  0  0  0
 78 81  1  0  0  0
 78150  1  0  0  0
 78151  1  0  0  0
 79 80  1  0  0  0
 79152  1  0  0  0
 79153  1  0  0  0
 80 83  1  0  0  0
 80 84  1  0  0  0
 81154  1  0  0  0
M  ISO  4   1 100  68 101  76 100  79 101
M  END
> <chiral flag>
0

> <version>
0

> <s_m_source_file>
/data/baiqing/PycharmProjects/Reinvent-master-3.2/result/LINK_invent/BTK/process_docking_weight1_custom_product_contain_oxygen_bond_distance_aromatic_linkinvent_7_9_3/rearranged_h_0168.sdf

> <i_m_source_file_index>
52

> <r_mmod_Potential_Energy-OPLS-2005>
42.5332641601562

> <r_mmod_Stretch_Energy-OPLS-2005>
55.1908645629883

> <r_mmod_Bend_Energy-OPLS-2005>
146.735321044922

> <r_mmod_Torsional_Energy-OPLS-2005>
208.780410766602

> <r_mmod_Improper_Torsional_Energy-OPLS-2005>
10.0544538497925

> <r_mmod_Van_der_Waal_Energy-OPLS-2005>
137.887435913086

> <r_mmod_Electrostatic_Energy-OPLS-2005>
-352.343872070312

> <r_mmod_Solvation_Energy-OPLS-2005>
-201.569686889648

> <b_mmod_Minimization_Converged-OPLS-2005>
0

> <r_mmod_RMS_Derivative-OPLS-2005>
4.4427695274353

$$$$
52
                    3D
 Structure written by MMmdl.
154162  0  0  1  0            999 V2000
  -30.5929  -14.7534   20.4515 C   0  0  0  0  0  0
  -30.4402  -12.4601   19.4546 C   0  0  0  0  0  0
  -29.5062  -12.4839   18.2246 C   0  0  0  0  0  0
  -28.0340  -12.3101   18.6496 C   0  0  0  0  0  0
  -27.6399  -13.2214   19.8428 C   0  0  2  0  0  0
  -28.6896  -13.1617   20.9726 C   0  0  0  0  0  0
  -25.2539  -13.8168   20.5696 C   0  0  0  0  0  0
  -24.1825  -13.0428   20.9212 C   0  0  0  0  0  0
  -24.6412  -11.6900   20.8764 C   0  0  0  0  0  0
  -23.9094  -10.4288   21.0427 C   0  0  0  0  0  0
  -24.3642   -9.4202   21.9199 C   0  0  0  0  0  0
  -23.6305   -8.2246   22.0765 C   0  0  0  0  0  0
  -22.4284   -8.0296   21.3550 C   0  0  0  0  0  0
  -21.9938   -9.0279   20.4656 C   0  0  0  0  0  0
  -22.7283  -10.2145   20.3070 C   0  0  0  0  0  0
  -21.6853   -6.0755   22.5287 C   0  0  0  0  0  0
  -21.4017   -6.5649   23.8226 C   0  0  0  0  0  0
  -21.3650   -5.6790   24.9177 C   0  0  0  0  0  0
  -21.6038   -4.3057   24.7219 C   0  0  0  0  0  0
  -21.8825   -3.8161   23.4337 C   0  0  0  0  0  0
  -21.9198   -4.6983   22.3399 C   0  0  0  0  0  0
  -22.7851  -13.5216   21.1863 C   0  0  0  0  0  0
  -22.1663   -4.2182   21.0975 F   0  0  0  0  0  0
  -21.5623   -3.4528   25.7728 F   0  0  0  0  0  0
  -29.9797  -13.5235   20.3744 N   0  0  0  0  0  0
  -26.2941  -12.9352   20.3258 N   0  0  0  0  0  0
  -25.9331  -11.6500   20.5769 N   0  0  0  0  0  0
  -22.0499  -12.8203   22.0412 N   0  0  0  0  0  0
  -25.4187  -15.1899   20.4103 N   0  0  0  0  0  0
  -31.8030  -14.8460   20.2232 O   0  0  0  0  0  0
  -21.6626   -6.8903   21.4249 O   0  0  0  0  0  0
  -22.3556  -14.5544   20.6743 O   0  0  0  0  0  0
  -24.6327  -31.8568   23.1974 C   0  0  0  0  0  0
  -25.9150  -32.4768   23.8330 C   0  0  1  0  0  0
  -27.2382  -27.2536   20.1203 C   0  0  0  0  0  0
  -25.5958  -33.8573   24.2264 N   0  0  0  0  0  0
  -23.4334  -30.4785   21.5381 C   0  0  2  0  0  0
  -24.8847  -28.9250   20.1095 C   0  0  0  0  0  0
  -22.7549  -29.4620   22.4875 C   0  0  0  0  0  0
  -18.0331  -28.1383   22.8460 C   0  0  0  0  0  0
  -24.1492  -36.7289   23.2635 C   0  0  0  0  0  0
  -25.9811  -30.7666   21.3775 C   0  0  0  0  0  0
  -26.0577  -29.3871   20.7170 C   0  0  0  0  0  0
  -27.2376  -28.5689   20.7047 C   0  0  0  0  0  0
  -26.0430  -26.8679   19.4748 C   0  0  0  0  0  0
  -24.8822  -27.6710   19.4765 C   0  0  0  0  0  0
  -23.6540  -29.8135   20.1536 C   0  0  0  0  0  0
  -25.4115  -36.3071   24.0321 C   0  0  1  0  0  0
  -20.5940  -28.3729   23.1225 C   0  0  2  0  0  0
  -20.6823  -26.9434   22.5391 C   0  0  0  0  0  0
  -19.5795  -26.6369   21.5193 C   0  0  0  0  0  0
  -18.1968  -26.7914   22.1596 C   0  0  0  0  0  0
  -19.1592  -28.8854   23.2843 C   0  0  0  0  0  0
  -18.9509  -30.1442   23.8882 C   0  0  0  0  0  0
  -17.6509  -30.6572   24.0541 C   0  0  0  0  0  0
  -25.9044  -34.9439   23.5074 C   0  0  0  0  0  0
  -16.5390  -29.9086   23.6297 C   0  0  0  0  0  0
  -16.7317  -28.6494   23.0331 C   0  0  0  0  0  0
  -26.4508  -31.6615   25.0728 C   0  0  0  0  0  0
  -25.3698  -31.3811   26.1436 C   0  0  0  0  0  0
  -27.0343  -30.3020   24.6232 C   0  0  0  0  0  0
  -27.6037  -32.4395   25.7518 C   0  0  0  0  0  0
  -27.5571  -37.1816   24.8459 C   0  0  0  0  0  0
  -21.4267  -29.3082   22.3614 N   0  0  0  0  0  0
  -26.4291  -37.3759   23.9386 N   0  0  0  0  0  0
  -24.7006  -31.0537   22.0941 N   0  0  0  0  0  0
  -23.4249  -28.8141   23.2947 O   0  0  0  0  0  0
  -28.3453  -26.3604   20.1438 O   0  0  0  0  0  0
  -26.5603  -34.8912   22.4639 O   0  0  0  0  0  0
  -23.5471  -32.1405   23.7255 O   0  0  0  0  0  0
  -30.7016  -18.6500   22.7808 C   0  0  0  0  0  0
  -30.3059  -19.8127   22.0876 C   0  0  0  0  0  0
  -30.5523  -17.3786   22.1986 C   0  0  0  0  0  0
  -29.7462  -19.7032   20.8021 C   0  0  0  0  0  0
  -30.0014  -17.2594   20.9000 C   0  0  0  0  0  0
  -29.5485  -23.6802   18.6035 C   0  0  0  0  0  0
  -28.8006  -22.1829   20.6402 C   0  0  0  0  0  0
  -28.1209  -24.8830   20.4229 C   0  0  0  0  0  0
  -29.1932  -23.6838   20.1031 C   0  0  2  0  0  0
  -29.5945  -18.4335   20.2433 N   0  0  0  0  0  0
  -29.7740  -15.8755   20.4358 N   0  0  0  0  0  0
  -29.4202  -20.9089   20.0681 N   0  0  0  0  0  0
  -30.9032  -16.2794   22.9120 F   0  0  0  0  0  0
  -30.3268  -23.9945   20.7400 F   0  0  0  0  0  0
  -31.4751  -12.6079   19.1416 H   0  0  0  0  0  0
  -30.4079  -11.4882   19.9495 H   0  0  0  0  0  0
  -29.7842  -11.6931   17.5271 H   0  0  0  0  0  0
  -29.6256  -13.4244   17.6840 H   0  0  0  0  0  0
  -27.8966  -11.2639   18.9240 H   0  0  0  0  0  0
  -27.3703  -12.4854   17.8029 H   0  0  0  0  0  0
  -27.6276  -14.2374   19.4491 H   0  0  0  0  0  0
  -28.7366  -12.1646   21.4151 H   0  0  0  0  0  0
  -28.4307  -13.8465   21.7814 H   0  0  0  0  0  0
  -25.2785   -9.5655   22.4775 H   0  0  0  0  0  0
  -24.0006   -7.4628   22.7488 H   0  0  0  0  0  0
  -21.0867   -8.8818   19.8956 H   0  0  0  0  0  0
  -22.3766  -10.9693   19.6179 H   0  0  0  0  0  0
  -21.2007   -7.6153   23.9744 H   0  0  0  0  0  0
  -21.1456   -6.0506   25.9080 H   0  0  0  0  0  0
  -22.0615   -2.7633   23.2821 H   0  0  0  0  0  0
  -22.4109  -11.9818   22.4704 H   0  0  0  0  0  0
  -21.1167  -13.1296   22.2702 H   0  0  0  0  0  0
  -24.6435  -15.8319   20.5409 H   0  0  0  0  0  0
  -26.2426  -15.6444   20.0414 H   0  0  0  0  0  0
  -26.7238  -32.5450   23.1088 H   0  0  0  0  0  0
  -25.0161  -33.9731   25.0449 H   0  0  0  0  0  0
  -22.7285  -31.3007   21.3897 H   0  0  0  0  0  0
  -23.3749  -35.9627   23.3314 H   0  0  0  0  0  0
  -24.3590  -36.8903   22.2041 H   0  0  0  0  0  0
  -23.7271  -37.6506   23.6673 H   0  0  0  0  0  0
  -26.1198  -31.5334   20.6135 H   0  0  0  0  0  0
  -26.8539  -30.8218   22.0145 H   0  0  0  0  0  0
  -28.1396  -28.9339   21.1734 H   0  0  0  0  0  0
  -25.9846  -25.9302   18.9431 H   0  0  0  0  0  0
  -23.9910  -27.3221   18.9738 H   0  0  0  0  0  0
  -23.7909  -30.5944   19.4019 H   0  0  0  0  0  0
  -22.7696  -29.2554   19.8401 H   0  0  0  0  0  0
  -25.1313  -36.1903   25.0820 H   0  0  0  0  0  0
  -21.0044  -28.3298   24.1334 H   0  0  0  0  0  0
  -20.5713  -26.2340   23.3615 H   0  0  0  0  0  0
  -21.6691  -26.7442   22.1176 H   0  0  0  0  0  0
  -19.6957  -25.6274   21.1260 H   0  0  0  0  0  0
  -19.6712  -27.3130   20.6675 H   0  0  0  0  0  0
  -17.4239  -26.6663   21.3982 H   0  0  0  0  0  0
  -18.0357  -26.0051   22.8988 H   0  0  0  0  0  0
  -19.7994  -30.7240   24.2268 H   0  0  0  0  0  0
  -17.5076  -31.6246   24.5166 H   0  0  0  0  0  0
  -15.5404  -30.2973   23.7632 H   0  0  0  0  0  0
  -15.8722  -28.0813   22.7027 H   0  0  0  0  0  0
  -24.5896  -30.7126   25.7797 H   0  0  0  0  0  0
  -24.8847  -32.2988   26.4767 H   0  0  0  0  0  0
  -25.7969  -30.9088   27.0277 H   0  0  0  0  0  0
  -26.2921  -29.6793   24.1228 H   0  0  0  0  0  0
  -27.3979  -29.7284   25.4763 H   0  0  0  0  0  0
  -27.8820  -30.4306   23.9493 H   0  0  0  0  0  0
  -27.2655  -33.3777   26.1946 H   0  0  0  0  0  0
  -28.3921  -32.6857   25.0383 H   0  0  0  0  0  0
  -28.0610  -31.8623   26.5563 H   0  0  0  0  0  0
  -28.2587  -38.0110   24.7500 H   0  0  0  0  0  0
  -28.1098  -36.2653   24.6330 H   0  0  0  0  0  0
  -27.2305  -37.1483   25.8869 H   0  0  0  0  0  0
  -20.9436  -29.8879   21.6888 H   0  0  0  0  0  0
  -26.0171  -38.2830   24.1419 H   0  0  0  0  0  0
  -31.1276  -18.7227   23.7708 H   0  0  0  0  0  0
  -30.4720  -20.7735   22.5489 H   0  0  0  0  0  0
  -28.6907  -23.4016   17.9913 H   0  0  0  0  0  0
  -30.3596  -22.9845   18.3783 H   0  0  0  0  0  0
  -29.8795  -24.6659   18.2689 H   0  0  0  0  0  0
  -27.7301  -22.0640   20.4710 H   0  0  0  0  0  0
  -28.9053  -22.1768   21.7261 H   0  0  0  0  0  0
  -27.9016  -24.8262   21.4908 H   0  0  0  0  0  0
  -27.2023  -24.5521   19.9404 H   0  0  0  0  0  0
  -28.8145  -15.6741   20.2147 H   0  0  0  0  0  0
  -29.1393  -20.7357   19.1079 H   0  0  0  0  0  0
  1 25  1  0  0  0
  1 30  2  0  0  0
  1 81  1  0  0  0
  2  3  1  0  0  0
  2 25  1  0  0  0
  2 85  1  0  0  0
  2 86  1  0  0  0
  3  4  1  0  0  0
  3 87  1  0  0  0
  3 88  1  0  0  0
  4  5  1  0  0  0
  4 89  1  0  0  0
  4 90  1  0  0  0
  5  6  1  0  0  0
  5 26  1  0  0  0
  5 91  1  0  0  0
  6 25  1  0  0  0
  6 92  1  0  0  0
  6 93  1  0  0  0
  7  8  2  0  0  0
  7 26  1  0  0  0
  7 29  1  0  0  0
  8  9  1  0  0  0
  8 22  1  0  0  0
  9 10  1  0  0  0
  9 27  2  0  0  0
 10 11  2  0  0  0
 10 15  1  0  0  0
 11 12  1  0  0  0
 11 94  1  0  0  0
 12 13  2  0  0  0
 12 95  1  0  0  0
 13 14  1  0  0  0
 13 31  1  0  0  0
 14 15  2  0  0  0
 14 96  1  0  0  0
 15 97  1  0  0  0
 16 17  2  0  0  0
 16 21  1  0  0  0
 16 31  1  0  0  0
 17 18  1  0  0  0
 17 98  1  0  0  0
 18 19  2  0  0  0
 18 99  1  0  0  0
 19 20  1  0  0  0
 19 24  1  0  0  0
 20 21  2  0  0  0
 20100  1  0  0  0
 21 23  1  0  0  0
 22 28  1  0  0  0
 22 32  2  0  0  0
 26 27  1  0  0  0
 28101  1  0  0  0
 28102  1  0  0  0
 29103  1  0  0  0
 29104  1  0  0  0
 33 34  1  0  0  0
 33 66  1  0  0  0
 33 70  2  0  0  0
 34 36  1  0  0  0
 34 59  1  0  0  0
 34105  1  0  0  0
 35 44  2  0  0  0
 35 45  1  0  0  0
 35 68  1  0  0  0
 36 56  1  0  0  0
 36106  1  0  0  0
 37 39  1  0  0  0
 37 47  1  0  0  0
 37 66  1  0  0  0
 37107  1  0  0  0
 38 43  2  0  0  0
 38 46  1  0  0  0
 38 47  1  0  0  0
 39 64  1  0  0  0
 39 67  2  0  0  0
 40 52  1  0  0  0
 40 53  2  0  0  0
 40 58  1  0  0  0
 41108  1  0  0  0
 41109  1  0  0  0
 41110  1  0  0  0
 41 48  1  0  0  0
 42 43  1  0  0  0
 42 66  1  0  0  0
 42111  1  0  0  0
 42112  1  0  0  0
 43 44  1  0  0  0
 44113  1  0  0  0
 45 46  2  0  0  0
 45114  1  0  0  0
 46115  1  0  0  0
 47116  1  0  0  0
 47117  1  0  0  0
 48 56  1  0  0  0
 48 65  1  0  0  0
 48118  1  0  0  0
 49 50  1  0  0  0
 49 53  1  0  0  0
 49 64  1  0  0  0
 49119  1  0  0  0
 50 51  1  0  0  0
 50120  1  0  0  0
 50121  1  0  0  0
 51 52  1  0  0  0
 51122  1  0  0  0
 51123  1  0  0  0
 52124  1  0  0  0
 52125  1  0  0  0
 53 54  1  0  0  0
 54 55  2  0  0  0
 54126  1  0  0  0
 55 57  1  0  0  0
 55127  1  0  0  0
 56 69  2  0  0  0
 57 58  2  0  0  0
 57128  1  0  0  0
 58129  1  0  0  0
 59 60  1  0  0  0
 59 61  1  0  0  0
 59 62  1  0  0  0
 60130  1  0  0  0
 60131  1  0  0  0
 60132  1  0  0  0
 61133  1  0  0  0
 61134  1  0  0  0
 61135  1  0  0  0
 62136  1  0  0  0
 62137  1  0  0  0
 62138  1  0  0  0
 63 65  1  0  0  0
 63139  1  0  0  0
 63140  1  0  0  0
 63141  1  0  0  0
 64142  1  0  0  0
 65143  1  0  0  0
 68 78  1  0  0  0
 71 72  2  0  0  0
 71 73  1  0  0  0
 71144  1  0  0  0
 72 74  1  0  0  0
 72145  1  0  0  0
 73 75  2  0  0  0
 73 83  1  0  0  0
 74 80  2  0  0  0
 74 82  1  0  0  0
 75 80  1  0  0  0
 75 81  1  0  0  0
 76146  1  0  0  0
 76147  1  0  0  0
 76148  1  0  0  0
 76 79  1  0  0  0
 77 79  1  0  0  0
 77 82  1  0  0  0
 77149  1  0  0  0
 77150  1  0  0  0
 78 79  1  0  0  0
 78151  1  0  0  0
 78152  1  0  0  0
 79 84  1  0  0  0
 81153  1  0  0  0
 82154  1  0  0  0
M  ISO  4   1 100  68 101  78 101  81 100
M  END
> <chiral flag>
0

> <version>
0

> <s_m_source_file>
/data/baiqing/PycharmProjects/Reinvent-master-3.2/result/LINK_invent/BTK/process_docking_weight1_custom_product_contain_oxygen_bond_distance_aromatic_linkinvent_7_9_3/rearranged_h_0168.sdf

> <i_m_source_file_index>
53

> <r_mmod_Potential_Energy-OPLS-2005>
11.9352378845215

> <r_mmod_Stretch_Energy-OPLS-2005>
136.992919921875

> <r_mmod_Bend_Energy-OPLS-2005>
175.304779052734

> <r_mmod_Torsional_Energy-OPLS-2005>
263.840026855469

> <r_mmod_Improper_Torsional_Energy-OPLS-2005>
12.5292186737061

> <r_mmod_Van_der_Waal_Energy-OPLS-2005>
138.840621948242

> <r_mmod_Electrostatic_Energy-OPLS-2005>
-580.278869628906

> <r_mmod_Solvation_Energy-OPLS-2005>
-225.616088867188

> <b_mmod_Minimization_Converged-OPLS-2005>
0

> <r_mmod_RMS_Derivative-OPLS-2005>
4.87980222702026

$$$$
53
                    3D
 Structure written by MMmdl.
155163  0  0  1  0            999 V2000
  -30.6793  -14.4942   20.5518 C   0  0  0  0  0  0
  -30.4311  -12.3120   19.4220 C   0  0  0  0  0  0
  -29.5000  -12.4967   18.2053 C   0  0  0  0  0  0
  -28.0193  -12.3569   18.6157 C   0  0  0  0  0  0
  -27.6617  -13.2007   19.8686 C   0  0  2  0  0  0
  -28.7043  -12.9859   20.9897 C   0  0  0  0  0  0
  -25.2610  -13.8142   20.5664 C   0  0  0  0  0  0
  -24.1852  -13.0431   20.9167 C   0  0  0  0  0  0
  -24.6393  -11.6898   20.8724 C   0  0  0  0  0  0
  -23.9055  -10.4287   21.0397 C   0  0  0  0  0  0
  -24.3606   -9.4209   21.9177 C   0  0  0  0  0  0
  -23.6282   -8.2240   22.0748 C   0  0  0  0  0  0
  -22.4263   -8.0274   21.3545 C   0  0  0  0  0  0
  -21.9898   -9.0247   20.4650 C   0  0  0  0  0  0
  -22.7222  -10.2126   20.3052 C   0  0  0  0  0  0
  -21.6854   -6.0740   22.5275 C   0  0  0  0  0  0
  -21.4020   -6.5641   23.8211 C   0  0  0  0  0  0
  -21.3657   -5.6793   24.9175 C   0  0  0  0  0  0
  -21.6033   -4.3056   24.7228 C   0  0  0  0  0  0
  -21.8818   -3.8148   23.4350 C   0  0  0  0  0  0
  -21.9197   -4.6968   22.3407 C   0  0  0  0  0  0
  -22.7877  -13.5243   21.1826 C   0  0  0  0  0  0
  -22.1664   -4.2158   21.0986 F   0  0  0  0  0  0
  -21.5616   -3.4536   25.7738 F   0  0  0  0  0  0
  -30.0328  -13.3001   20.4364 N   0  0  0  0  0  0
  -26.3028  -12.9294   20.3325 N   0  0  0  0  0  0
  -25.9315  -11.6465   20.5739 N   0  0  0  0  0  0
  -22.0517  -12.8251   22.0391 N   0  0  0  0  0  0
  -25.4361  -15.1856   20.4068 N   0  0  0  0  0  0
  -31.8229  -14.6685   20.1192 O   0  0  0  0  0  0
  -21.6624   -6.8875   21.4232 O   0  0  0  0  0  0
  -22.3570  -14.5556   20.6680 O   0  0  0  0  0  0
  -24.6160  -31.8674   23.2094 C   0  0  0  0  0  0
  -25.9053  -32.4823   23.8385 C   0  0  1  0  0  0
  -27.2343  -27.4209   20.0974 C   0  0  0  0  0  0
  -25.5900  -33.8621   24.2318 N   0  0  0  0  0  0
  -23.4036  -30.4909   21.5509 C   0  0  2  0  0  0
  -24.8479  -28.9507   20.1207 C   0  0  0  0  0  0
  -22.7414  -29.4667   22.5002 C   0  0  0  0  0  0
  -18.0272  -28.1383   22.8491 C   0  0  0  0  0  0
  -24.1485  -36.7315   23.2639 C   0  0  0  0  0  0
  -25.9331  -30.8299   21.3621 C   0  0  0  0  0  0
  -26.0097  -29.4622   20.7102 C   0  0  0  0  0  0
  -27.2054  -28.7072   20.6887 C   0  0  0  0  0  0
  -26.0498  -26.9247   19.5061 C   0  0  0  0  0  0
  -24.8631  -27.6823   19.5169 C   0  0  0  0  0  0
  -23.6120  -29.8208   20.1670 C   0  0  0  0  0  0
  -25.4109  -36.3114   24.0338 C   0  0  1  0  0  0
  -20.5862  -28.3670   23.1318 C   0  0  2  0  0  0
  -20.6768  -26.9410   22.5417 C   0  0  0  0  0  0
  -19.5743  -26.6393   21.5216 C   0  0  0  0  0  0
  -18.1920  -26.7931   22.1625 C   0  0  0  0  0  0
  -19.1521  -28.8846   23.2900 C   0  0  0  0  0  0
  -18.9453  -30.1453   23.8908 C   0  0  0  0  0  0
  -17.6455  -30.6589   24.0571 C   0  0  0  0  0  0
  -25.9039  -34.9480   23.5131 C   0  0  0  0  0  0
  -16.5347  -29.9092   23.6326 C   0  0  0  0  0  0
  -16.7263  -28.6511   23.0342 C   0  0  0  0  0  0
  -26.4479  -31.6602   25.0715 C   0  0  0  0  0  0
  -25.3743  -31.3711   26.1463 C   0  0  0  0  0  0
  -27.0317  -30.3047   24.6095 C   0  0  0  0  0  0
  -27.6064  -32.4323   25.7459 C   0  0  0  0  0  0
  -27.5583  -37.1810   24.8470 C   0  0  0  0  0  0
  -21.4145  -29.3035   22.3729 N   0  0  0  0  0  0
  -26.4298  -37.3797   23.9411 N   0  0  0  0  0  0
  -24.6693  -31.0770   22.0996 N   0  0  0  0  0  0
  -23.4181  -28.8214   23.3055 O   0  0  0  0  0  0
  -28.4230  -26.7164   20.0825 O   0  0  0  0  0  0
  -26.5604  -34.8930   22.4692 O   0  0  0  0  0  0
  -23.5351  -32.1433   23.7480 O   0  0  0  0  0  0
  -31.3784  -17.4633   21.2815 C   0  0  0  0  0  0
  -29.2292  -19.0746   20.7782 C   0  0  0  0  0  0
  -31.5665  -18.8653   21.3281 C   0  0  0  0  0  0
  -30.4505  -19.7179   21.0812 C   0  0  0  0  0  0
  -30.1186  -16.9128   20.9860 C   0  0  0  0  0  0
  -30.3968  -23.4986   20.4403 C   0  0  0  0  0  0
  -29.7587  -24.7162   19.7010 C   0  0  0  0  0  0
  -29.6695  -22.1328   20.5706 C   0  0  0  0  0  0
  -28.3918  -25.2712   20.1349 C   0  0  0  0  0  0
  -32.9600  -19.4130   21.6472 C   0  0  0  0  0  0
  -29.0676  -17.7292   20.7460 N   0  0  0  0  0  0
  -30.5668  -21.1278   21.1765 N   0  0  0  0  0  0
  -29.9102  -15.5017   21.0243 N   0  0  0  0  0  0
  -31.5387  -23.6174   20.9121 O   0  0  0  0  0  0
  -30.3786  -25.2568   18.7729 O   0  0  0  0  0  0
  -33.8526  -18.4405   21.8501 F   0  0  0  0  0  0
  -33.3952  -20.1627   20.6332 F   0  0  0  0  0  0
  -32.9192  -20.1648   22.7487 F   0  0  0  0  0  0
  -31.4740  -12.4206   19.1180 H   0  0  0  0  0  0
  -30.3430  -11.3017   19.8254 H   0  0  0  0  0  0
  -29.7418  -11.7664   17.4314 H   0  0  0  0  0  0
  -29.6674  -13.4793   17.7613 H   0  0  0  0  0  0
  -27.8270  -11.3012   18.8127 H   0  0  0  0  0  0
  -27.3737  -12.6324   17.7806 H   0  0  0  0  0  0
  -27.7036  -14.2460   19.5614 H   0  0  0  0  0  0
  -28.6867  -11.9488   21.3297 H   0  0  0  0  0  0
  -28.4645  -13.5840   21.8706 H   0  0  0  0  0  0
  -25.2751   -9.5683   22.4757 H   0  0  0  0  0  0
  -23.9994   -7.4631   22.7465 H   0  0  0  0  0  0
  -21.0826   -8.8764   19.8963 H   0  0  0  0  0  0
  -22.3671  -10.9666   19.6163 H   0  0  0  0  0  0
  -21.2018   -7.6149   23.9719 H   0  0  0  0  0  0
  -21.1475   -6.0524   25.9078 H   0  0  0  0  0  0
  -22.0607   -2.7611   23.2846 H   0  0  0  0  0  0
  -22.4120  -11.9903   22.4776 H   0  0  0  0  0  0
  -21.1147  -13.1297   22.2607 H   0  0  0  0  0  0
  -24.6695  -15.8422   20.5060 H   0  0  0  0  0  0
  -26.2847  -15.6231   20.0671 H   0  0  0  0  0  0
  -26.7122  -32.5530   23.1143 H   0  0  0  0  0  0
  -25.0046  -33.9774   25.0460 H   0  0  0  0  0  0
  -22.6930  -31.3082   21.4110 H   0  0  0  0  0  0
  -23.3744  -35.9655   23.3331 H   0  0  0  0  0  0
  -24.3575  -36.8900   22.2050 H   0  0  0  0  0  0
  -23.7244  -37.6531   23.6635 H   0  0  0  0  0  0
  -26.0455  -31.5953   20.5927 H   0  0  0  0  0  0
  -26.8217  -30.8840   21.9794 H   0  0  0  0  0  0
  -28.1066  -29.1055   21.1334 H   0  0  0  0  0  0
  -26.0206  -25.9653   19.0136 H   0  0  0  0  0  0
  -23.9681  -27.2848   19.0578 H   0  0  0  0  0  0
  -23.7262  -30.5947   19.4072 H   0  0  0  0  0  0
  -22.7341  -29.2442   19.8696 H   0  0  0  0  0  0
  -25.1284  -36.1984   25.0833 H   0  0  0  0  0  0
  -20.9944  -28.3241   24.1442 H   0  0  0  0  0  0
  -20.5683  -26.2281   23.3603 H   0  0  0  0  0  0
  -21.6640  -26.7466   22.1203 H   0  0  0  0  0  0
  -19.6911  -25.6309   21.1232 H   0  0  0  0  0  0
  -19.6678  -27.3217   20.6757 H   0  0  0  0  0  0
  -17.4191  -26.6677   21.4026 H   0  0  0  0  0  0
  -18.0326  -26.0070   22.9020 H   0  0  0  0  0  0
  -19.7930  -30.7270   24.2273 H   0  0  0  0  0  0
  -17.5012  -31.6264   24.5182 H   0  0  0  0  0  0
  -15.5348  -30.3001   23.7650 H   0  0  0  0  0  0
  -15.8660  -28.0845   22.7037 H   0  0  0  0  0  0
  -24.5885  -30.7103   25.7783 H   0  0  0  0  0  0
  -24.8970  -32.2872   26.4954 H   0  0  0  0  0  0
  -25.8080  -30.8824   27.0195 H   0  0  0  0  0  0
  -26.2857  -29.6784   24.1186 H   0  0  0  0  0  0
  -27.4136  -29.7311   25.4549 H   0  0  0  0  0  0
  -27.8670  -30.4377   23.9215 H   0  0  0  0  0  0
  -27.2694  -33.3606   26.2083 H   0  0  0  0  0  0
  -28.3830  -32.6914   25.0251 H   0  0  0  0  0  0
  -28.0785  -31.8424   26.5322 H   0  0  0  0  0  0
  -28.2620  -38.0086   24.7508 H   0  0  0  0  0  0
  -28.1055  -36.2623   24.6307 H   0  0  0  0  0  0
  -27.2301  -37.1483   25.8871 H   0  0  0  0  0  0
  -20.9321  -29.8736   21.6923 H   0  0  0  0  0  0
  -26.0193  -38.2881   24.1396 H   0  0  0  0  0  0
  -32.2123  -16.8091   21.4894 H   0  0  0  0  0  0
  -28.3384  -19.6539   20.5827 H   0  0  0  0  0  0
  -29.3407  -21.8105   19.5820 H   0  0  0  0  0  0
  -28.7807  -22.2644   21.1891 H   0  0  0  0  0  0
  -28.1595  -24.9427   21.1483 H   0  0  0  0  0  0
  -27.6477  -24.8441   19.4662 H   0  0  0  0  0  0
  -31.4547  -21.5444   21.4577 H   0  0  0  0  0  0
  -28.9707  -15.2191   21.2490 H   0  0  0  0  0  0
  1 25  1  0  0  0
  1 30  2  0  0  0
  1 83  1  0  0  0
  2  3  1  0  0  0
  2 25  1  0  0  0
  2 89  1  0  0  0
  2 90  1  0  0  0
  3  4  1  0  0  0
  3 91  1  0  0  0
  3 92  1  0  0  0
  4  5  1  0  0  0
  4 93  1  0  0  0
  4 94  1  0  0  0
  5  6  1  0  0  0
  5 26  1  0  0  0
  5 95  1  0  0  0
  6 25  1  0  0  0
  6 96  1  0  0  0
  6 97  1  0  0  0
  7  8  2  0  0  0
  7 26  1  0  0  0
  7 29  1  0  0  0
  8  9  1  0  0  0
  8 22  1  0  0  0
  9 10  1  0  0  0
  9 27  2  0  0  0
 10 11  2  0  0  0
 10 15  1  0  0  0
 11 12  1  0  0  0
 11 98  1  0  0  0
 12 13  2  0  0  0
 12 99  1  0  0  0
 13 14  1  0  0  0
 13 31  1  0  0  0
 14 15  2  0  0  0
 14100  1  0  0  0
 15101  1  0  0  0
 16 17  2  0  0  0
 16 21  1  0  0  0
 16 31  1  0  0  0
 17 18  1  0  0  0
 17102  1  0  0  0
 18 19  2  0  0  0
 18103  1  0  0  0
 19 20  1  0  0  0
 19 24  1  0  0  0
 20 21  2  0  0  0
 20104  1  0  0  0
 21 23  1  0  0  0
 22 28  1  0  0  0
 22 32  2  0  0  0
 26 27  1  0  0  0
 28105  1  0  0  0
 28106  1  0  0  0
 29107  1  0  0  0
 29108  1  0  0  0
 33 34  1  0  0  0
 33 66  1  0  0  0
 33 70  2  0  0  0
 34 36  1  0  0  0
 34 59  1  0  0  0
 34109  1  0  0  0
 35 44  2  0  0  0
 35 45  1  0  0  0
 35 68  1  0  0  0
 36 56  1  0  0  0
 36110  1  0  0  0
 37 39  1  0  0  0
 37 47  1  0  0  0
 37 66  1  0  0  0
 37111  1  0  0  0
 38 43  2  0  0  0
 38 46  1  0  0  0
 38 47  1  0  0  0
 39 64  1  0  0  0
 39 67  2  0  0  0
 40 52  1  0  0  0
 40 53  2  0  0  0
 40 58  1  0  0  0
 41112  1  0  0  0
 41113  1  0  0  0
 41114  1  0  0  0
 41 48  1  0  0  0
 42 43  1  0  0  0
 42 66  1  0  0  0
 42115  1  0  0  0
 42116  1  0  0  0
 43 44  1  0  0  0
 44117  1  0  0  0
 45 46  2  0  0  0
 45118  1  0  0  0
 46119  1  0  0  0
 47120  1  0  0  0
 47121  1  0  0  0
 48 56  1  0  0  0
 48 65  1  0  0  0
 48122  1  0  0  0
 49 50  1  0  0  0
 49 53  1  0  0  0
 49 64  1  0  0  0
 49123  1  0  0  0
 50 51  1  0  0  0
 50124  1  0  0  0
 50125  1  0  0  0
 51 52  1  0  0  0
 51126  1  0  0  0
 51127  1  0  0  0
 52128  1  0  0  0
 52129  1  0  0  0
 53 54  1  0  0  0
 54 55  2  0  0  0
 54130  1  0  0  0
 55 57  1  0  0  0
 55131  1  0  0  0
 56 69  2  0  0  0
 57 58  2  0  0  0
 57132  1  0  0  0
 58133  1  0  0  0
 59 60  1  0  0  0
 59 61  1  0  0  0
 59 62  1  0  0  0
 60134  1  0  0  0
 60135  1  0  0  0
 60136  1  0  0  0
 61137  1  0  0  0
 61138  1  0  0  0
 61139  1  0  0  0
 62140  1  0  0  0
 62141  1  0  0  0
 62142  1  0  0  0
 63 65  1  0  0  0
 63143  1  0  0  0
 63144  1  0  0  0
 63145  1  0  0  0
 64146  1  0  0  0
 65147  1  0  0  0
 68 79  1  0  0  0
 71 73  2  0  0  0
 71 75  1  0  0  0
 71148  1  0  0  0
 72 74  2  0  0  0
 72 81  1  0  0  0
 72149  1  0  0  0
 73 74  1  0  0  0
 73 80  1  0  0  0
 74 82  1  0  0  0
 75 81  2  0  0  0
 75 83  1  0  0  0
 76 77  1  0  0  0
 76 78  1  0  0  0
 76 84  2  0  0  0
 77 79  1  0  0  0
 77 85  2  0  0  0
 78 82  1  0  0  0
 78150  1  0  0  0
 78151  1  0  0  0
 79152  1  0  0  0
 79153  1  0  0  0
 80 86  1  0  0  0
 80 87  1  0  0  0
 80 88  1  0  0  0
 82154  1  0  0  0
 83155  1  0  0  0
M  ISO  4   1 100  68 101  79 101  83 100
M  END
> <chiral flag>
0

> <version>
0

> <s_m_source_file>
/data/baiqing/PycharmProjects/Reinvent-master-3.2/result/LINK_invent/BTK/process_docking_weight1_custom_product_contain_oxygen_bond_distance_aromatic_linkinvent_7_9_3/rearranged_h_0168.sdf

> <i_m_source_file_index>
54

> <r_mmod_Potential_Energy-OPLS-2005>
72.2349624633789

> <r_mmod_Stretch_Energy-OPLS-2005>
43.8658485412598

> <r_mmod_Bend_Energy-OPLS-2005>
125.623680114746

> <r_mmod_Torsional_Energy-OPLS-2005>
238.412078857422

> <r_mmod_Improper_Torsional_Energy-OPLS-2005>
5.45533847808838

> <r_mmod_Van_der_Waal_Energy-OPLS-2005>
157.788558959961

> <r_mmod_Electrostatic_Energy-OPLS-2005>
-263.773803710938

> <r_mmod_Solvation_Energy-OPLS-2005>
-249.724899291992

> <b_mmod_Minimization_Converged-OPLS-2005>
0

> <r_mmod_RMS_Derivative-OPLS-2005>
1.44673728942871

$$$$
54
                    3D
 Structure written by MMmdl.
153161  0  0  1  0            999 V2000
  -30.6614  -14.5079   20.5349 C   0  0  0  0  0  0
  -30.4307  -12.3189   19.4207 C   0  0  0  0  0  0
  -29.4956  -12.5091   18.2053 C   0  0  0  0  0  0
  -28.0157  -12.3613   18.6145 C   0  0  0  0  0  0
  -27.6598  -13.2004   19.8704 C   0  0  2  0  0  0
  -28.7048  -12.9825   20.9911 C   0  0  0  0  0  0
  -25.2575  -13.8136   20.5643 C   0  0  0  0  0  0
  -24.1835  -13.0434   20.9189 C   0  0  0  0  0  0
  -24.6384  -11.6896   20.8739 C   0  0  0  0  0  0
  -23.9052  -10.4284   21.0394 C   0  0  0  0  0  0
  -24.3619   -9.4208   21.9174 C   0  0  0  0  0  0
  -23.6306   -8.2235   22.0742 C   0  0  0  0  0  0
  -22.4277   -8.0278   21.3543 C   0  0  0  0  0  0
  -21.9919   -9.0239   20.4637 C   0  0  0  0  0  0
  -22.7233  -10.2124   20.3039 C   0  0  0  0  0  0
  -21.6848   -6.0738   22.5278 C   0  0  0  0  0  0
  -21.4004   -6.5641   23.8210 C   0  0  0  0  0  0
  -21.3659   -5.6787   24.9178 C   0  0  0  0  0  0
  -21.6045   -4.3052   24.7223 C   0  0  0  0  0  0
  -21.8822   -3.8148   23.4344 C   0  0  0  0  0  0
  -21.9198   -4.6965   22.3404 C   0  0  0  0  0  0
  -22.7863  -13.5243   21.1852 C   0  0  0  0  0  0
  -22.1667   -4.2161   21.0974 F   0  0  0  0  0  0
  -21.5638   -3.4526   25.7732 F   0  0  0  0  0  0
  -30.0346  -13.3026   20.4391 N   0  0  0  0  0  0
  -26.3007  -12.9298   20.3335 N   0  0  0  0  0  0
  -25.9307  -11.6468   20.5772 N   0  0  0  0  0  0
  -22.0503  -12.8224   22.0398 N   0  0  0  0  0  0
  -25.4295  -15.1845   20.3980 N   0  0  0  0  0  0
  -31.8140  -14.6970   20.1289 O   0  0  0  0  0  0
  -21.6643   -6.8880   21.4239 O   0  0  0  0  0  0
  -22.3562  -14.5557   20.6710 O   0  0  0  0  0  0
  -24.6176  -31.8641   23.2079 C   0  0  0  0  0  0
  -25.9079  -32.4780   23.8379 C   0  0  1  0  0  0
  -27.2430  -27.4156   20.1030 C   0  0  0  0  0  0
  -25.5949  -33.8576   24.2317 N   0  0  0  0  0  0
  -23.4044  -30.4857   21.5473 C   0  0  2  0  0  0
  -24.8510  -28.9443   20.1158 C   0  0  0  0  0  0
  -22.7411  -29.4653   22.4996 C   0  0  0  0  0  0
  -18.0267  -28.1388   22.8485 C   0  0  0  0  0  0
  -24.1482  -36.7269   23.2631 C   0  0  0  0  0  0
  -25.9334  -30.8254   21.3584 C   0  0  0  0  0  0
  -26.0092  -29.4574   20.7093 C   0  0  0  0  0  0
  -27.2026  -28.7000   20.6996 C   0  0  0  0  0  0
  -26.0568  -26.9128   19.5168 C   0  0  0  0  0  0
  -24.8686  -27.6705   19.5209 C   0  0  0  0  0  0
  -23.6121  -29.8111   20.1639 C   0  0  0  0  0  0
  -25.4087  -36.3057   24.0350 C   0  0  1  0  0  0
  -20.5859  -28.3670   23.1315 C   0  0  2  0  0  0
  -20.6760  -26.9413   22.5399 C   0  0  0  0  0  0
  -19.5747  -26.6397   21.5195 C   0  0  0  0  0  0
  -18.1930  -26.7944   22.1612 C   0  0  0  0  0  0
  -19.1511  -28.8855   23.2895 C   0  0  0  0  0  0
  -18.9434  -30.1460   23.8909 C   0  0  0  0  0  0
  -17.6441  -30.6586   24.0565 C   0  0  0  0  0  0
  -25.9048  -34.9441   23.5120 C   0  0  0  0  0  0
  -16.5330  -29.9080   23.6343 C   0  0  0  0  0  0
  -16.7258  -28.6503   23.0345 C   0  0  0  0  0  0
  -26.4511  -31.6582   25.0728 C   0  0  0  0  0  0
  -25.3787  -31.3660   26.1476 C   0  0  0  0  0  0
  -27.0336  -30.3031   24.6101 C   0  0  0  0  0  0
  -27.6087  -32.4295   25.7487 C   0  0  0  0  0  0
  -27.5589  -37.1735   24.8441 C   0  0  0  0  0  0
  -21.4145  -29.3022   22.3720 N   0  0  0  0  0  0
  -26.4241  -37.3775   23.9472 N   0  0  0  0  0  0
  -24.6701  -31.0744   22.0960 N   0  0  0  0  0  0
  -23.4179  -28.8208   23.3047 O   0  0  0  0  0  0
  -28.4380  -26.7144   20.1349 O   0  0  0  0  0  0
  -26.5574  -34.8916   22.4660 O   0  0  0  0  0  0
  -23.5370  -32.1390   23.7481 O   0  0  0  0  0  0
  -28.9064  -17.7139   20.7231 C   0  0  0  0  0  0
  -29.4154  -19.0373   20.5043 C   0  0  0  0  0  0
  -29.9739  -16.8568   20.7390 C   0  0  0  0  0  0
  -30.7780  -18.8416   20.3891 C   0  0  0  0  0  0
  -28.5974  -20.2953   20.3653 C   0  0  0  0  0  0
  -28.4069  -24.2242   20.3960 C   0  0  0  0  0  0
  -29.2058  -21.7087   20.5540 C   0  0  0  0  0  0
  -28.4778  -22.8291   19.7421 C   0  0  0  0  0  0
  -28.5847  -25.4469   19.4617 C   0  0  0  0  0  0
  -31.7795  -19.7683   20.1236 N   0  0  0  0  0  0
  -29.8557  -15.5115   20.9406 N   0  0  0  0  0  0
  -27.3851  -20.2009   20.1438 O   0  0  0  0  0  0
  -28.1996  -24.3512   21.6080 O   0  0  0  0  0  0
  -31.1421  -17.5277   20.5317 O   0  0  0  0  0  0
  -31.4736  -12.4330   19.1200 H   0  0  0  0  0  0
  -30.3442  -11.3085   19.8234 H   0  0  0  0  0  0
  -29.7404  -11.7913   17.4221 H   0  0  0  0  0  0
  -29.6502  -13.4975   17.7698 H   0  0  0  0  0  0
  -27.8217  -11.3063   18.8097 H   0  0  0  0  0  0
  -27.3662  -12.6351   17.7823 H   0  0  0  0  0  0
  -27.6981  -14.2450   19.5621 H   0  0  0  0  0  0
  -28.6897  -11.9439   21.3255 H   0  0  0  0  0  0
  -28.4653  -13.5733   21.8763 H   0  0  0  0  0  0
  -25.2767   -9.5699   22.4753 H   0  0  0  0  0  0
  -24.0021   -7.4625   22.7450 H   0  0  0  0  0  0
  -21.0855   -8.8756   19.8934 H   0  0  0  0  0  0
  -22.3694  -10.9664   19.6148 H   0  0  0  0  0  0
  -21.1971   -7.6150   23.9723 H   0  0  0  0  0  0
  -21.1479   -6.0513   25.9086 H   0  0  0  0  0  0
  -22.0601   -2.7611   23.2823 H   0  0  0  0  0  0
  -22.4134  -11.9891   22.4786 H   0  0  0  0  0  0
  -21.1117  -13.1236   22.2591 H   0  0  0  0  0  0
  -24.6469  -15.8276   20.4579 H   0  0  0  0  0  0
  -26.2620  -15.6117   20.0124 H   0  0  0  0  0  0
  -26.7164  -32.5470   23.1154 H   0  0  0  0  0  0
  -25.0206  -33.9725   25.0546 H   0  0  0  0  0  0
  -22.6948  -31.3025   21.4044 H   0  0  0  0  0  0
  -23.3769  -35.9566   23.3183 H   0  0  0  0  0  0
  -24.3626  -36.8983   22.2069 H   0  0  0  0  0  0
  -23.7182  -37.6429   23.6701 H   0  0  0  0  0  0
  -26.0458  -31.5882   20.5865 H   0  0  0  0  0  0
  -26.8214  -30.8794   21.9773 H   0  0  0  0  0  0
  -28.0965  -29.0983   21.1570 H   0  0  0  0  0  0
  -26.0183  -25.9295   19.0733 H   0  0  0  0  0  0
  -23.9722  -27.2613   19.0754 H   0  0  0  0  0  0
  -23.7163  -30.5803   19.3976 H   0  0  0  0  0  0
  -22.7378  -29.2247   19.8761 H   0  0  0  0  0  0
  -25.1243  -36.1874   25.0831 H   0  0  0  0  0  0
  -20.9945  -28.3207   24.1438 H   0  0  0  0  0  0
  -20.5648  -26.2276   23.3575 H   0  0  0  0  0  0
  -21.6621  -26.7450   22.1189 H   0  0  0  0  0  0
  -19.6890  -25.6299   21.1239 H   0  0  0  0  0  0
  -19.6710  -27.3190   20.6715 H   0  0  0  0  0  0
  -17.4195  -26.6687   21.4020 H   0  0  0  0  0  0
  -18.0346  -26.0088   22.9022 H   0  0  0  0  0  0
  -19.7902  -30.7278   24.2294 H   0  0  0  0  0  0
  -17.4977  -31.6263   24.5160 H   0  0  0  0  0  0
  -15.5325  -30.2959   23.7689 H   0  0  0  0  0  0
  -15.8665  -28.0823   22.7057 H   0  0  0  0  0  0
  -24.5984  -30.6982   25.7805 H   0  0  0  0  0  0
  -24.8959  -32.2795   26.4950 H   0  0  0  0  0  0
  -25.8169  -30.8816   27.0216 H   0  0  0  0  0  0
  -26.2858  -29.6762   24.1226 H   0  0  0  0  0  0
  -27.4182  -29.7299   25.4550 H   0  0  0  0  0  0
  -27.8674  -30.4338   23.9197 H   0  0  0  0  0  0
  -27.2726  -33.3597   26.2070 H   0  0  0  0  0  0
  -28.3914  -32.6828   25.0333 H   0  0  0  0  0  0
  -28.0748  -31.8414   26.5404 H   0  0  0  0  0  0
  -28.2446  -38.0182   24.7696 H   0  0  0  0  0  0
  -28.1230  -36.2733   24.5961 H   0  0  0  0  0  0
  -27.2369  -37.1015   25.8843 H   0  0  0  0  0  0
  -20.9323  -29.8732   21.6927 H   0  0  0  0  0  0
  -26.0099  -38.2810   24.1600 H   0  0  0  0  0  0
  -27.8681  -17.4367   20.8435 H   0  0  0  0  0  0
  -30.2563  -21.7130   20.2788 H   0  0  0  0  0  0
  -29.1737  -21.9284   21.6220 H   0  0  0  0  0  0
  -28.9509  -22.9322   18.7661 H   0  0  0  0  0  0
  -27.4442  -22.5463   19.5463 H   0  0  0  0  0  0
  -27.9506  -25.3582   18.5817 H   0  0  0  0  0  0
  -29.6091  -25.4064   19.0895 H   0  0  0  0  0  0
  -31.6413  -20.7590   19.9587 H   0  0  0  0  0  0
  -32.7500  -19.5019   19.9923 H   0  0  0  0  0  0
  -28.9442  -15.1968   21.2364 H   0  0  0  0  0  0
  1 25  1  0  0  0
  1 30  2  0  0  0
  1 81  1  0  0  0
  2  3  1  0  0  0
  2 25  1  0  0  0
  2 85  1  0  0  0
  2 86  1  0  0  0
  3  4  1  0  0  0
  3 87  1  0  0  0
  3 88  1  0  0  0
  4  5  1  0  0  0
  4 89  1  0  0  0
  4 90  1  0  0  0
  5  6  1  0  0  0
  5 26  1  0  0  0
  5 91  1  0  0  0
  6 25  1  0  0  0
  6 92  1  0  0  0
  6 93  1  0  0  0
  7  8  2  0  0  0
  7 26  1  0  0  0
  7 29  1  0  0  0
  8  9  1  0  0  0
  8 22  1  0  0  0
  9 10  1  0  0  0
  9 27  2  0  0  0
 10 11  2  0  0  0
 10 15  1  0  0  0
 11 12  1  0  0  0
 11 94  1  0  0  0
 12 13  2  0  0  0
 12 95  1  0  0  0
 13 14  1  0  0  0
 13 31  1  0  0  0
 14 15  2  0  0  0
 14 96  1  0  0  0
 15 97  1  0  0  0
 16 17  2  0  0  0
 16 21  1  0  0  0
 16 31  1  0  0  0
 17 18  1  0  0  0
 17 98  1  0  0  0
 18 19  2  0  0  0
 18 99  1  0  0  0
 19 20  1  0  0  0
 19 24  1  0  0  0
 20 21  2  0  0  0
 20100  1  0  0  0
 21 23  1  0  0  0
 22 28  1  0  0  0
 22 32  2  0  0  0
 26 27  1  0  0  0
 28101  1  0  0  0
 28102  1  0  0  0
 29103  1  0  0  0
 29104  1  0  0  0
 33 34  1  0  0  0
 33 66  1  0  0  0
 33 70  2  0  0  0
 34 36  1  0  0  0
 34 59  1  0  0  0
 34105  1  0  0  0
 35 44  2  0  0  0
 35 45  1  0  0  0
 35 68  1  0  0  0
 36 56  1  0  0  0
 36106  1  0  0  0
 37 39  1  0  0  0
 37 47  1  0  0  0
 37 66  1  0  0  0
 37107  1  0  0  0
 38 43  2  0  0  0
 38 46  1  0  0  0
 38 47  1  0  0  0
 39 64  1  0  0  0
 39 67  2  0  0  0
 40 52  1  0  0  0
 40 53  2  0  0  0
 40 58  1  0  0  0
 41108  1  0  0  0
 41109  1  0  0  0
 41110  1  0  0  0
 41 48  1  0  0  0
 42 43  1  0  0  0
 42 66  1  0  0  0
 42111  1  0  0  0
 42112  1  0  0  0
 43 44  1  0  0  0
 44113  1  0  0  0
 45 46  2  0  0  0
 45114  1  0  0  0
 46115  1  0  0  0
 47116  1  0  0  0
 47117  1  0  0  0
 48 56  1  0  0  0
 48 65  1  0  0  0
 48118  1  0  0  0
 49 50  1  0  0  0
 49 53  1  0  0  0
 49 64  1  0  0  0
 49119  1  0  0  0
 50 51  1  0  0  0
 50120  1  0  0  0
 50121  1  0  0  0
 51 52  1  0  0  0
 51122  1  0  0  0
 51123  1  0  0  0
 52124  1  0  0  0
 52125  1  0  0  0
 53 54  1  0  0  0
 54 55  2  0  0  0
 54126  1  0  0  0
 55 57  1  0  0  0
 55127  1  0  0  0
 56 69  2  0  0  0
 57 58  2  0  0  0
 57128  1  0  0  0
 58129  1  0  0  0
 59 60  1  0  0  0
 59 61  1  0  0  0
 59 62  1  0  0  0
 60130  1  0  0  0
 60131  1  0  0  0
 60132  1  0  0  0
 61133  1  0  0  0
 61134  1  0  0  0
 61135  1  0  0  0
 62136  1  0  0  0
 62137  1  0  0  0
 62138  1  0  0  0
 63 65  1  0  0  0
 63139  1  0  0  0
 63140  1  0  0  0
 63141  1  0  0  0
 64142  1  0  0  0
 65143  1  0  0  0
 68 79  1  0  0  0
 71 72  1  0  0  0
 71 73  2  0  0  0
 71144  1  0  0  0
 72 74  2  0  0  0
 72 75  1  0  0  0
 73 81  1  0  0  0
 73 84  1  0  0  0
 74 80  1  0  0  0
 74 84  1  0  0  0
 75 77  1  0  0  0
 75 82  2  0  0  0
 76 78  1  0  0  0
 76 79  1  0  0  0
 76 83  2  0  0  0
 77 78  1  0  0  0
 77145  1  0  0  0
 77146  1  0  0  0
 78147  1  0  0  0
 78148  1  0  0  0
 79149  1  0  0  0
 79150  1  0  0  0
 80151  1  0  0  0
 80152  1  0  0  0
 81153  1  0  0  0
M  ISO  4   1 100  68 101  79 101  81 100
M  END
> <chiral flag>
0

> <version>
0

> <s_m_source_file>
/data/baiqing/PycharmProjects/Reinvent-master-3.2/result/LINK_invent/BTK/process_docking_weight1_custom_product_contain_oxygen_bond_distance_aromatic_linkinvent_7_9_3/rearranged_h_0168.sdf

> <i_m_source_file_index>
55

> <r_mmod_Potential_Energy-OPLS-2005>
-83.3776626586914

> <r_mmod_Stretch_Energy-OPLS-2005>
41.1394081115723

> <r_mmod_Bend_Energy-OPLS-2005>
139.8115234375

> <r_mmod_Torsional_Energy-OPLS-2005>
220.144149780273

> <r_mmod_Improper_Torsional_Energy-OPLS-2005>
5.62392902374268

> <r_mmod_Van_der_Waal_Energy-OPLS-2005>
129.887832641602

> <r_mmod_Electrostatic_Energy-OPLS-2005>
-377.413848876953

> <r_mmod_Solvation_Energy-OPLS-2005>
-259.826354980469

> <b_mmod_Minimization_Converged-OPLS-2005>
0

> <r_mmod_RMS_Derivative-OPLS-2005>
3.03785967826843

$$$$
55
                    3D
 Structure written by MMmdl.
152160  0  0  1  0            999 V2000
  -30.5785  -14.7858   20.4564 C   0  0  0  0  0  0
  -30.4367  -12.4831   19.4711 C   0  0  0  0  0  0
  -29.5130  -12.5148   18.2328 C   0  0  0  0  0  0
  -28.0385  -12.3299   18.6457 C   0  0  0  0  0  0
  -27.6372  -13.2313   19.8444 C   0  0  2  0  0  0
  -28.6822  -13.1755   20.9789 C   0  0  0  0  0  0
  -25.2490  -13.8188   20.5686 C   0  0  0  0  0  0
  -24.1791  -13.0431   20.9211 C   0  0  0  0  0  0
  -24.6385  -11.6914   20.8745 C   0  0  0  0  0  0
  -23.9068  -10.4290   21.0407 C   0  0  0  0  0  0
  -24.3620   -9.4206   21.9180 C   0  0  0  0  0  0
  -23.6298   -8.2244   22.0750 C   0  0  0  0  0  0
  -22.4280   -8.0280   21.3542 C   0  0  0  0  0  0
  -21.9910   -9.0254   20.4647 C   0  0  0  0  0  0
  -22.7239  -10.2131   20.3059 C   0  0  0  0  0  0
  -21.6851   -6.0732   22.5282 C   0  0  0  0  0  0
  -21.4017   -6.5638   23.8215 C   0  0  0  0  0  0
  -21.3661   -5.6791   24.9174 C   0  0  0  0  0  0
  -21.6048   -4.3053   24.7226 C   0  0  0  0  0  0
  -21.8816   -3.8144   23.4346 C   0  0  0  0  0  0
  -21.9191   -4.6961   22.3403 C   0  0  0  0  0  0
  -22.7812  -13.5214   21.1870 C   0  0  0  0  0  0
  -22.1656   -4.2147   21.0980 F   0  0  0  0  0  0
  -21.5627   -3.4537   25.7737 F   0  0  0  0  0  0
  -29.9750  -13.5475   20.3922 N   0  0  0  0  0  0
  -26.2908  -12.9392   20.3242 N   0  0  0  0  0  0
  -25.9309  -11.6535   20.5737 N   0  0  0  0  0  0
  -22.0454  -12.8218   22.0435 N   0  0  0  0  0  0
  -25.4149  -15.1918   20.4104 N   0  0  0  0  0  0
  -31.7775  -14.8918   20.1842 O   0  0  0  0  0  0
  -21.6638   -6.8879   21.4244 O   0  0  0  0  0  0
  -22.3504  -14.5518   20.6708 O   0  0  0  0  0  0
  -24.6328  -31.8514   23.1952 C   0  0  0  0  0  0
  -25.9138  -32.4729   23.8316 C   0  0  1  0  0  0
  -27.2218  -27.2377   20.1489 C   0  0  0  0  0  0
  -25.5923  -33.8536   24.2231 N   0  0  0  0  0  0
  -23.4319  -30.4722   21.5376 C   0  0  2  0  0  0
  -24.8811  -28.9074   20.1148 C   0  0  0  0  0  0
  -22.7505  -29.4585   22.4888 C   0  0  0  0  0  0
  -18.0295  -28.1396   22.8485 C   0  0  0  0  0  0
  -24.1487  -36.7285   23.2643 C   0  0  0  0  0  0
  -25.9783  -30.7572   21.3785 C   0  0  0  0  0  0
  -26.0520  -29.3756   20.7250 C   0  0  0  0  0  0
  -27.2275  -28.5555   20.7237 C   0  0  0  0  0  0
  -26.0311  -26.8348   19.5119 C   0  0  0  0  0  0
  -24.8762  -27.6456   19.4968 C   0  0  0  0  0  0
  -23.6536  -29.7996   20.1564 C   0  0  0  0  0  0
  -25.4114  -36.3059   24.0323 C   0  0  1  0  0  0
  -20.5897  -28.3706   23.1260 C   0  0  2  0  0  0
  -20.6780  -26.9419   22.5409 C   0  0  0  0  0  0
  -19.5759  -26.6388   21.5213 C   0  0  0  0  0  0
  -18.1938  -26.7939   22.1624 C   0  0  0  0  0  0
  -19.1547  -28.8870   23.2870 C   0  0  0  0  0  0
  -18.9468  -30.1468   23.8890 C   0  0  0  0  0  0
  -17.6466  -30.6594   24.0566 C   0  0  0  0  0  0
  -25.9057  -34.9427   23.5085 C   0  0  0  0  0  0
  -16.5356  -29.9092   23.6333 C   0  0  0  0  0  0
  -16.7280  -28.6512   23.0353 C   0  0  0  0  0  0
  -26.4499  -31.6574   25.0724 C   0  0  0  0  0  0
  -25.3707  -31.3750   26.1437 C   0  0  0  0  0  0
  -27.0355  -30.2979   24.6250 C   0  0  0  0  0  0
  -27.6043  -32.4330   25.7498 C   0  0  0  0  0  0
  -27.5577  -37.1797   24.8459 C   0  0  0  0  0  0
  -21.4209  -29.3046   22.3635 N   0  0  0  0  0  0
  -26.4287  -37.3759   23.9405 N   0  0  0  0  0  0
  -24.6999  -31.0462   22.0931 N   0  0  0  0  0  0
  -23.4186  -28.8135   23.3009 O   0  0  0  0  0  0
  -28.3283  -26.3537   20.1386 O   0  0  0  0  0  0
  -26.5641  -34.8908   22.4663 O   0  0  0  0  0  0
  -23.5473  -32.1350   23.7229 O   0  0  0  0  0  0
  -29.2013  -18.4864   20.3152 C   0  0  0  0  0  0
  -31.3170  -17.7816   21.2132 C   0  0  0  0  0  0
  -29.5622  -19.8920   20.4917 C   0  0  0  0  0  0
  -30.0814  -17.3749   20.6710 C   0  0  0  0  0  0
  -30.8397  -20.0786   21.0567 C   0  0  0  0  0  0
  -28.7080  -21.1147   19.9858 C   0  0  0  0  0  0
  -28.2728  -23.6321   19.9904 C   0  0  0  0  0  0
  -27.3079  -24.9610   21.9928 C   0  0  0  0  0  0
  -28.3342  -25.0041   20.8435 C   0  0  2  0  0  0
  -31.6753  -19.0706   21.4081 N   0  0  0  0  0  0
  -29.7611  -15.9149   20.5628 N   0  0  0  0  0  0
  -28.8382  -22.4318   20.4548 N   0  0  0  0  0  0
  -27.8623  -20.8362   19.1296 O   0  0  0  0  0  0
  -27.6808  -23.6953   18.9076 O   0  0  0  0  0  0
  -31.2925  -21.3380   21.2727 F   0  0  0  0  0  0
  -31.4760  -12.6242   19.1695 H   0  0  0  0  0  0
  -30.3947  -11.5087   19.9602 H   0  0  0  0  0  0
  -29.8049  -11.7392   17.5235 H   0  0  0  0  0  0
  -29.6301  -13.4656   17.7111 H   0  0  0  0  0  0
  -27.8991  -11.2815   18.9110 H   0  0  0  0  0  0
  -27.3831  -12.5162   17.7937 H   0  0  0  0  0  0
  -27.6254  -14.2504   19.4581 H   0  0  0  0  0  0
  -28.7294  -12.1778   21.4177 H   0  0  0  0  0  0
  -28.4097  -13.8542   21.7891 H   0  0  0  0  0  0
  -25.2762   -9.5682   22.4747 H   0  0  0  0  0  0
  -24.0003   -7.4635   22.7469 H   0  0  0  0  0  0
  -21.0836   -8.8777   19.8963 H   0  0  0  0  0  0
  -22.3694  -10.9667   19.6169 H   0  0  0  0  0  0
  -21.2013   -7.6147   23.9720 H   0  0  0  0  0  0
  -21.1485   -6.0517   25.9077 H   0  0  0  0  0  0
  -22.0593   -2.7609   23.2845 H   0  0  0  0  0  0
  -22.4071  -11.9892   22.4847 H   0  0  0  0  0  0
  -21.1070  -13.1246   22.2625 H   0  0  0  0  0  0
  -24.6390  -15.8363   20.5191 H   0  0  0  0  0  0
  -26.2483  -15.6375   20.0513 H   0  0  0  0  0  0
  -26.7205  -32.5368   23.1059 H   0  0  0  0  0  0
  -25.0033  -33.9661   25.0349 H   0  0  0  0  0  0
  -22.7307  -31.2955   21.3857 H   0  0  0  0  0  0
  -23.3746  -35.9622   23.3302 H   0  0  0  0  0  0
  -24.3575  -36.8916   22.2059 H   0  0  0  0  0  0
  -23.7243  -37.6485   23.6674 H   0  0  0  0  0  0
  -26.1208  -31.5164   20.6085 H   0  0  0  0  0  0
  -26.8537  -30.8061   22.0146 H   0  0  0  0  0  0
  -28.1294  -28.9122   21.2008 H   0  0  0  0  0  0
  -25.9895  -25.8650   19.0363 H   0  0  0  0  0  0
  -23.9794  -27.2822   19.0139 H   0  0  0  0  0  0
  -23.7832  -30.5724   19.3977 H   0  0  0  0  0  0
  -22.7706  -29.2359   19.8492 H   0  0  0  0  0  0
  -25.1298  -36.1907   25.0816 H   0  0  0  0  0  0
  -20.9998  -28.3297   24.1377 H   0  0  0  0  0  0
  -20.5683  -26.2312   23.3615 H   0  0  0  0  0  0
  -21.6646  -26.7444   22.1200 H   0  0  0  0  0  0
  -19.6919  -25.6295   21.1253 H   0  0  0  0  0  0
  -19.6706  -27.3186   20.6735 H   0  0  0  0  0  0
  -17.4205  -26.6685   21.4027 H   0  0  0  0  0  0
  -18.0346  -26.0083   22.9025 H   0  0  0  0  0  0
  -19.7942  -30.7292   24.2249 H   0  0  0  0  0  0
  -17.5019  -31.6271   24.5174 H   0  0  0  0  0  0
  -15.5355  -30.2996   23.7661 H   0  0  0  0  0  0
  -15.8680  -28.0833   22.7069 H   0  0  0  0  0  0
  -24.5863  -30.7123   25.7761 H   0  0  0  0  0  0
  -24.8923  -32.2933   26.4856 H   0  0  0  0  0  0
  -25.8007  -30.8921   27.0218 H   0  0  0  0  0  0
  -26.2957  -29.6716   24.1249 H   0  0  0  0  0  0
  -27.3981  -29.7263   25.4806 H   0  0  0  0  0  0
  -27.8858  -30.4241   23.9542 H   0  0  0  0  0  0
  -27.2634  -33.3629   26.2067 H   0  0  0  0  0  0
  -28.3854  -32.6897   25.0329 H   0  0  0  0  0  0
  -28.0707  -31.8466   26.5425 H   0  0  0  0  0  0
  -28.2586  -38.0102   24.7501 H   0  0  0  0  0  0
  -28.1081  -36.2629   24.6289 H   0  0  0  0  0  0
  -27.2295  -37.1444   25.8863 H   0  0  0  0  0  0
  -20.9395  -29.8754   21.6826 H   0  0  0  0  0  0
  -26.0168  -38.2832   24.1412 H   0  0  0  0  0  0
  -28.2390  -18.2579   19.8820 H   0  0  0  0  0  0
  -32.0441  -17.0561   21.5446 H   0  0  0  0  0  0
  -26.2843  -25.0471   21.6276 H   0  0  0  0  0  0
  -27.4829  -25.7663   22.7063 H   0  0  0  0  0  0
  -27.3704  -24.0221   22.5440 H   0  0  0  0  0  0
  -29.3153  -24.9713   21.3178 H   0  0  0  0  0  0
  -28.7776  -15.6906   20.5734 H   0  0  0  0  0  0
  -29.4369  -22.5423   21.2596 H   0  0  0  0  0  0
  1 25  1  0  0  0
  1 30  2  0  0  0
  1 81  1  0  0  0
  2  3  1  0  0  0
  2 25  1  0  0  0
  2 86  1  0  0  0
  2 87  1  0  0  0
  3  4  1  0  0  0
  3 88  1  0  0  0
  3 89  1  0  0  0
  4  5  1  0  0  0
  4 90  1  0  0  0
  4 91  1  0  0  0
  5  6  1  0  0  0
  5 26  1  0  0  0
  5 92  1  0  0  0
  6 25  1  0  0  0
  6 93  1  0  0  0
  6 94  1  0  0  0
  7  8  2  0  0  0
  7 26  1  0  0  0
  7 29  1  0  0  0
  8  9  1  0  0  0
  8 22  1  0  0  0
  9 10  1  0  0  0
  9 27  2  0  0  0
 10 11  2  0  0  0
 10 15  1  0  0  0
 11 12  1  0  0  0
 11 95  1  0  0  0
 12 13  2  0  0  0
 12 96  1  0  0  0
 13 14  1  0  0  0
 13 31  1  0  0  0
 14 15  2  0  0  0
 14 97  1  0  0  0
 15 98  1  0  0  0
 16 17  2  0  0  0
 16 21  1  0  0  0
 16 31  1  0  0  0
 17 18  1  0  0  0
 17 99  1  0  0  0
 18 19  2  0  0  0
 18100  1  0  0  0
 19 20  1  0  0  0
 19 24  1  0  0  0
 20 21  2  0  0  0
 20101  1  0  0  0
 21 23  1  0  0  0
 22 28  1  0  0  0
 22 32  2  0  0  0
 26 27  1  0  0  0
 28102  1  0  0  0
 28103  1  0  0  0
 29104  1  0  0  0
 29105  1  0  0  0
 33 34  1  0  0  0
 33 66  1  0  0  0
 33 70  2  0  0  0
 34 36  1  0  0  0
 34 59  1  0  0  0
 34106  1  0  0  0
 35 44  2  0  0  0
 35 45  1  0  0  0
 35 68  1  0  0  0
 36 56  1  0  0  0
 36107  1  0  0  0
 37 39  1  0  0  0
 37 47  1  0  0  0
 37 66  1  0  0  0
 37108  1  0  0  0
 38 43  2  0  0  0
 38 46  1  0  0  0
 38 47  1  0  0  0
 39 64  1  0  0  0
 39 67  2  0  0  0
 40 52  1  0  0  0
 40 53  2  0  0  0
 40 58  1  0  0  0
 41109  1  0  0  0
 41110  1  0  0  0
 41111  1  0  0  0
 41 48  1  0  0  0
 42 43  1  0  0  0
 42 66  1  0  0  0
 42112  1  0  0  0
 42113  1  0  0  0
 43 44  1  0  0  0
 44114  1  0  0  0
 45 46  2  0  0  0
 45115  1  0  0  0
 46116  1  0  0  0
 47117  1  0  0  0
 47118  1  0  0  0
 48 56  1  0  0  0
 48 65  1  0  0  0
 48119  1  0  0  0
 49 50  1  0  0  0
 49 53  1  0  0  0
 49 64  1  0  0  0
 49120  1  0  0  0
 50 51  1  0  0  0
 50121  1  0  0  0
 50122  1  0  0  0
 51 52  1  0  0  0
 51123  1  0  0  0
 51124  1  0  0  0
 52125  1  0  0  0
 52126  1  0  0  0
 53 54  1  0  0  0
 54 55  2  0  0  0
 54127  1  0  0  0
 55 57  1  0  0  0
 55128  1  0  0  0
 56 69  2  0  0  0
 57 58  2  0  0  0
 57129  1  0  0  0
 58130  1  0  0  0
 59 60  1  0  0  0
 59 61  1  0  0  0
 59 62  1  0  0  0
 60131  1  0  0  0
 60132  1  0  0  0
 60133  1  0  0  0
 61134  1  0  0  0
 61135  1  0  0  0
 61136  1  0  0  0
 62137  1  0  0  0
 62138  1  0  0  0
 62139  1  0  0  0
 63 65  1  0  0  0
 63140  1  0  0  0
 63141  1  0  0  0
 63142  1  0  0  0
 64143  1  0  0  0
 65144  1  0  0  0
 68 79  1  0  0  0
 71 73  2  0  0  0
 71 74  1  0  0  0
 71145  1  0  0  0
 72 74  2  0  0  0
 72 80  1  0  0  0
 72146  1  0  0  0
 73 75  1  0  0  0
 73 76  1  0  0  0
 74 81  1  0  0  0
 75 80  2  0  0  0
 75 85  1  0  0  0
 76 82  1  0  0  0
 76 83  2  0  0  0
 77 79  1  0  0  0
 77 82  1  0  0  0
 77 84  2  0  0  0
 78147  1  0  0  0
 78148  1  0  0  0
 78149  1  0  0  0
 78 79  1  0  0  0
 79150  1  0  0  0
 81151  1  0  0  0
 82152  1  0  0  0
M  ISO  4   1 100  68 101  79 101  81 100
M  END
> <chiral flag>
0

> <version>
0

> <s_m_source_file>
/data/baiqing/PycharmProjects/Reinvent-master-3.2/result/LINK_invent/BTK/process_docking_weight1_custom_product_contain_oxygen_bond_distance_aromatic_linkinvent_7_9_3/rearranged_h_0168.sdf

> <i_m_source_file_index>
56

> <r_mmod_Potential_Energy-OPLS-2005>
-89.8778610229492

> <r_mmod_Stretch_Energy-OPLS-2005>
143.189010620117

> <r_mmod_Bend_Energy-OPLS-2005>
182.684387207031

> <r_mmod_Torsional_Energy-OPLS-2005>
257.15185546875

> <r_mmod_Improper_Torsional_Energy-OPLS-2005>
6.81368112564087

> <r_mmod_Van_der_Waal_Energy-OPLS-2005>
138.736557006836

> <r_mmod_Electrostatic_Energy-OPLS-2005>
-644.028503417969

> <r_mmod_Solvation_Energy-OPLS-2005>
-274.529144287109

> <b_mmod_Minimization_Converged-OPLS-2005>
0

> <r_mmod_RMS_Derivative-OPLS-2005>
1.19072186946869

$$$$
56
                    3D
 Structure written by MMmdl.
157165  0  0  1  0            999 V2000
  -30.6725  -14.5636   20.4709 C   0  0  0  0  0  0
  -30.4222  -12.3363   19.4415 C   0  0  0  0  0  0
  -29.4970  -12.4816   18.2144 C   0  0  0  0  0  0
  -28.0195  -12.3392   18.6285 C   0  0  0  0  0  0
  -27.6522  -13.2128   19.8579 C   0  0  2  0  0  0
  -28.6995  -13.0670   20.9864 C   0  0  0  0  0  0
  -25.2564  -13.8176   20.5692 C   0  0  0  0  0  0
  -24.1829  -13.0445   20.9203 C   0  0  0  0  0  0
  -24.6393  -11.6913   20.8762 C   0  0  0  0  0  0
  -23.9070  -10.4297   21.0422 C   0  0  0  0  0  0
  -24.3624   -9.4210   21.9191 C   0  0  0  0  0  0
  -23.6300   -8.2243   22.0750 C   0  0  0  0  0  0
  -22.4278   -8.0281   21.3543 C   0  0  0  0  0  0
  -21.9918   -9.0259   20.4643 C   0  0  0  0  0  0
  -22.7248  -10.2138   20.3063 C   0  0  0  0  0  0
  -21.6849   -6.0740   22.5288 C   0  0  0  0  0  0
  -21.4009   -6.5648   23.8217 C   0  0  0  0  0  0
  -21.3658   -5.6796   24.9181 C   0  0  0  0  0  0
  -21.6046   -4.3057   24.7228 C   0  0  0  0  0  0
  -21.8818   -3.8149   23.4351 C   0  0  0  0  0  0
  -21.9194   -4.6972   22.3409 C   0  0  0  0  0  0
  -22.7852  -13.5241   21.1872 C   0  0  0  0  0  0
  -22.1660   -4.2159   21.0984 F   0  0  0  0  0  0
  -21.5633   -3.4540   25.7741 F   0  0  0  0  0  0
  -30.0203  -13.3664   20.4145 N   0  0  0  0  0  0
  -26.2985  -12.9349   20.3310 N   0  0  0  0  0  0
  -25.9318  -11.6511   20.5769 N   0  0  0  0  0  0
  -22.0490  -12.8221   22.0419 N   0  0  0  0  0  0
  -25.4295  -15.1893   20.4103 N   0  0  0  0  0  0
  -31.8558  -14.6633   20.1376 O   0  0  0  0  0  0
  -21.6635   -6.8884   21.4243 O   0  0  0  0  0  0
  -22.3549  -14.5553   20.6728 O   0  0  0  0  0  0
  -24.6171  -31.8635   23.2063 C   0  0  0  0  0  0
  -25.9060  -32.4790   23.8356 C   0  0  1  0  0  0
  -27.2355  -27.3885   20.0954 C   0  0  0  0  0  0
  -25.5912  -33.8589   24.2283 N   0  0  0  0  0  0
  -23.4059  -30.4859   21.5476 C   0  0  2  0  0  0
  -24.8517  -28.9439   20.1157 C   0  0  0  0  0  0
  -22.7412  -29.4646   22.4983 C   0  0  0  0  0  0
  -18.0271  -28.1373   22.8495 C   0  0  0  0  0  0
  -24.1487  -36.7303   23.2633 C   0  0  0  0  0  0
  -25.9390  -30.8137   21.3654 C   0  0  0  0  0  0
  -26.0135  -29.4444   20.7131 C   0  0  0  0  0  0
  -27.2039  -28.6746   20.6987 C   0  0  0  0  0  0
  -26.0451  -26.9117   19.4975 C   0  0  0  0  0  0
  -24.8649  -27.6789   19.5053 C   0  0  0  0  0  0
  -23.6143  -29.8129   20.1643 C   0  0  0  0  0  0
  -25.4109  -36.3087   24.0324 C   0  0  1  0  0  0
  -20.5864  -28.3661   23.1310 C   0  0  2  0  0  0
  -20.6758  -26.9390   22.5415 C   0  0  0  0  0  0
  -19.5740  -26.6385   21.5205 C   0  0  0  0  0  0
  -18.1920  -26.7923   22.1620 C   0  0  0  0  0  0
  -19.1522  -28.8831   23.2897 C   0  0  0  0  0  0
  -18.9450  -30.1445   23.8901 C   0  0  0  0  0  0
  -17.6454  -30.6579   24.0570 C   0  0  0  0  0  0
  -25.9043  -34.9456   23.5099 C   0  0  0  0  0  0
  -16.5344  -29.9076   23.6341 C   0  0  0  0  0  0
  -16.7261  -28.6492   23.0359 C   0  0  0  0  0  0
  -26.4478  -31.6588   25.0699 C   0  0  0  0  0  0
  -25.3739  -31.3712   26.1449 C   0  0  0  0  0  0
  -27.0314  -30.3022   24.6120 C   0  0  0  0  0  0
  -27.6040  -32.4327   25.7469 C   0  0  0  0  0  0
  -27.5584  -37.1795   24.8457 C   0  0  0  0  0  0
  -21.4135  -29.3041   22.3730 N   0  0  0  0  0  0
  -26.4285  -37.3787   23.9409 N   0  0  0  0  0  0
  -24.6724  -31.0694   22.0978 N   0  0  0  0  0  0
  -23.4168  -28.8186   23.3035 O   0  0  0  0  0  0
  -28.4183  -26.6586   20.1197 O   0  0  0  0  0  0
  -26.5610  -34.8918   22.4667 O   0  0  0  0  0  0
  -23.5357  -32.1408   23.7440 O   0  0  0  0  0  0
  -31.3444  -17.5814   20.1463 C   0  0  0  0  0  0
  -31.0812  -18.9850   20.0366 C   0  0  0  0  0  0
  -30.1508  -16.9981   20.4978 C   0  0  0  0  0  0
  -29.7563  -19.1934   20.3441 C   0  0  0  0  0  0
  -28.4898  -24.1767   20.5746 C   0  0  0  0  0  0
  -33.2209  -19.8654   19.1164 C   0  0  0  0  0  0
  -29.3596  -21.6773   20.3308 C   0  0  0  0  0  0
  -34.0297  -21.1452   18.9493 C   0  0  0  0  0  0
  -28.2308  -22.7223   20.0727 C   0  0  0  0  0  0
  -28.5139  -25.3298   19.5301 C   0  0  0  0  0  0
  -32.0155  -19.9933   19.6897 N   0  0  0  0  0  0
  -29.0133  -20.3571   20.2924 N   0  0  0  0  0  0
  -29.8918  -15.6564   20.7027 N   0  0  0  0  0  0
  -28.6221  -24.4184   21.7807 O   0  0  0  0  0  0
  -33.6890  -18.7982   18.7150 O   0  0  0  0  0  0
  -30.5130  -22.0645   20.5382 O   0  0  0  0  0  0
  -29.1675  -17.9682   20.6100 O   0  0  0  0  0  0
  -31.4669  -12.4267   19.1394 H   0  0  0  0  0  0
  -30.3250  -11.3430   19.8813 H   0  0  0  0  0  0
  -29.7465  -11.7305   17.4640 H   0  0  0  0  0  0
  -29.6560  -13.4515   17.7401 H   0  0  0  0  0  0
  -27.8442  -11.2878   18.8582 H   0  0  0  0  0  0
  -27.3652  -12.5764   17.7885 H   0  0  0  0  0  0
  -27.6714  -14.2471   19.5140 H   0  0  0  0  0  0
  -28.6900  -12.0530   21.3892 H   0  0  0  0  0  0
  -28.4653  -13.7251   21.8248 H   0  0  0  0  0  0
  -25.2772   -9.5681   22.4765 H   0  0  0  0  0  0
  -24.0014   -7.4631   22.7458 H   0  0  0  0  0  0
  -21.0852   -8.8780   19.8941 H   0  0  0  0  0  0
  -22.3715  -10.9682   19.6169 H   0  0  0  0  0  0
  -21.1986   -7.6151   23.9730 H   0  0  0  0  0  0
  -21.1481   -6.0520   25.9085 H   0  0  0  0  0  0
  -22.0596   -2.7613   23.2850 H   0  0  0  0  0  0
  -22.4104  -11.9872   22.4794 H   0  0  0  0  0  0
  -21.1104  -13.1246   22.2618 H   0  0  0  0  0  0
  -24.6653  -15.8453   20.5274 H   0  0  0  0  0  0
  -26.2745  -15.6282   20.0682 H   0  0  0  0  0  0
  -26.7116  -32.5475   23.1100 H   0  0  0  0  0  0
  -25.0069  -33.9748   25.0433 H   0  0  0  0  0  0
  -22.6967  -31.3038   21.4035 H   0  0  0  0  0  0
  -23.3754  -35.9635   23.3280 H   0  0  0  0  0  0
  -24.3579  -36.8946   22.2052 H   0  0  0  0  0  0
  -23.7242  -37.6496   23.6671 H   0  0  0  0  0  0
  -26.0582  -31.5784   20.5965 H   0  0  0  0  0  0
  -26.8241  -30.8645   21.9878 H   0  0  0  0  0  0
  -28.1009  -29.0625   21.1604 H   0  0  0  0  0  0
  -25.9862  -25.9446   19.0242 H   0  0  0  0  0  0
  -23.9692  -27.2872   19.0432 H   0  0  0  0  0  0
  -23.7167  -30.5822   19.3979 H   0  0  0  0  0  0
  -22.7390  -29.2280   19.8752 H   0  0  0  0  0  0
  -25.1290  -36.1931   25.0817 H   0  0  0  0  0  0
  -20.9949  -28.3218   24.1429 H   0  0  0  0  0  0
  -20.5644  -26.2262   23.3605 H   0  0  0  0  0  0
  -21.6624  -26.7429   22.1202 H   0  0  0  0  0  0
  -19.6894  -25.6302   21.1219 H   0  0  0  0  0  0
  -19.6666  -27.3205   20.6744 H   0  0  0  0  0  0
  -17.4184  -26.6683   21.4029 H   0  0  0  0  0  0
  -18.0317  -26.0049   22.8995 H   0  0  0  0  0  0
  -19.7922  -30.7273   24.2244 H   0  0  0  0  0  0
  -17.5001  -31.6255   24.5175 H   0  0  0  0  0  0
  -15.5344  -30.2979   23.7653 H   0  0  0  0  0  0
  -15.8661  -28.0814   22.7073 H   0  0  0  0  0  0
  -24.5926  -30.7032   25.7809 H   0  0  0  0  0  0
  -24.8909  -32.2866   26.4880 H   0  0  0  0  0  0
  -25.8095  -30.8910   27.0220 H   0  0  0  0  0  0
  -26.2864  -29.6778   24.1172 H   0  0  0  0  0  0
  -27.4056  -29.7275   25.4606 H   0  0  0  0  0  0
  -27.8714  -30.4323   23.9294 H   0  0  0  0  0  0
  -27.2646  -33.3631   26.2039 H   0  0  0  0  0  0
  -28.3853  -32.6888   25.0299 H   0  0  0  0  0  0
  -28.0699  -31.8453   26.5391 H   0  0  0  0  0  0
  -28.2576  -38.0120   24.7542 H   0  0  0  0  0  0
  -28.1108  -36.2650   24.6233 H   0  0  0  0  0  0
  -27.2299  -37.1375   25.8859 H   0  0  0  0  0  0
  -20.9288  -29.8772   21.6967 H   0  0  0  0  0  0
  -26.0164  -38.2853   24.1454 H   0  0  0  0  0  0
  -32.2849  -17.0782   19.9779 H   0  0  0  0  0  0
  -33.3795  -22.0102   18.8134 H   0  0  0  0  0  0
  -34.6849  -21.0738   18.0812 H   0  0  0  0  0  0
  -34.6495  -21.3140   19.8299 H   0  0  0  0  0  0
  -28.0425  -22.7561   19.0003 H   0  0  0  0  0  0
  -27.3104  -22.3732   20.5391 H   0  0  0  0  0  0
  -27.7871  -25.1486   18.7427 H   0  0  0  0  0  0
  -29.4820  -25.2785   19.0327 H   0  0  0  0  0  0
  -31.7096  -20.9400   19.9141 H   0  0  0  0  0  0
  -28.0193  -20.1986   20.2130 H   0  0  0  0  0  0
  -28.9380  -15.4351   20.9433 H   0  0  0  0  0  0
  1 25  1  0  0  0
  1 30  2  0  0  0
  1 83  1  0  0  0
  2  3  1  0  0  0
  2 25  1  0  0  0
  2 88  1  0  0  0
  2 89  1  0  0  0
  3  4  1  0  0  0
  3 90  1  0  0  0
  3 91  1  0  0  0
  4  5  1  0  0  0
  4 92  1  0  0  0
  4 93  1  0  0  0
  5  6  1  0  0  0
  5 26  1  0  0  0
  5 94  1  0  0  0
  6 25  1  0  0  0
  6 95  1  0  0  0
  6 96  1  0  0  0
  7  8  2  0  0  0
  7 26  1  0  0  0
  7 29  1  0  0  0
  8  9  1  0  0  0
  8 22  1  0  0  0
  9 10  1  0  0  0
  9 27  2  0  0  0
 10 11  2  0  0  0
 10 15  1  0  0  0
 11 12  1  0  0  0
 11 97  1  0  0  0
 12 13  2  0  0  0
 12 98  1  0  0  0
 13 14  1  0  0  0
 13 31  1  0  0  0
 14 15  2  0  0  0
 14 99  1  0  0  0
 15100  1  0  0  0
 16 17  2  0  0  0
 16 21  1  0  0  0
 16 31  1  0  0  0
 17 18  1  0  0  0
 17101  1  0  0  0
 18 19  2  0  0  0
 18102  1  0  0  0
 19 20  1  0  0  0
 19 24  1  0  0  0
 20 21  2  0  0  0
 20103  1  0  0  0
 21 23  1  0  0  0
 22 28  1  0  0  0
 22 32  2  0  0  0
 26 27  1  0  0  0
 28104  1  0  0  0
 28105  1  0  0  0
 29106  1  0  0  0
 29107  1  0  0  0
 33 34  1  0  0  0
 33 66  1  0  0  0
 33 70  2  0  0  0
 34 36  1  0  0  0
 34 59  1  0  0  0
 34108  1  0  0  0
 35 44  2  0  0  0
 35 45  1  0  0  0
 35 68  1  0  0  0
 36 56  1  0  0  0
 36109  1  0  0  0
 37 39  1  0  0  0
 37 47  1  0  0  0
 37 66  1  0  0  0
 37110  1  0  0  0
 38 43  2  0  0  0
 38 46  1  0  0  0
 38 47  1  0  0  0
 39 64  1  0  0  0
 39 67  2  0  0  0
 40 52  1  0  0  0
 40 53  2  0  0  0
 40 58  1  0  0  0
 41111  1  0  0  0
 41112  1  0  0  0
 41113  1  0  0  0
 41 48  1  0  0  0
 42 43  1  0  0  0
 42 66  1  0  0  0
 42114  1  0  0  0
 42115  1  0  0  0
 43 44  1  0  0  0
 44116  1  0  0  0
 45 46  2  0  0  0
 45117  1  0  0  0
 46118  1  0  0  0
 47119  1  0  0  0
 47120  1  0  0  0
 48 56  1  0  0  0
 48 65  1  0  0  0
 48121  1  0  0  0
 49 50  1  0  0  0
 49 53  1  0  0  0
 49 64  1  0  0  0
 49122  1  0  0  0
 50 51  1  0  0  0
 50123  1  0  0  0
 50124  1  0  0  0
 51 52  1  0  0  0
 51125  1  0  0  0
 51126  1  0  0  0
 52127  1  0  0  0
 52128  1  0  0  0
 53 54  1  0  0  0
 54 55  2  0  0  0
 54129  1  0  0  0
 55 57  1  0  0  0
 55130  1  0  0  0
 56 69  2  0  0  0
 57 58  2  0  0  0
 57131  1  0  0  0
 58132  1  0  0  0
 59 60  1  0  0  0
 59 61  1  0  0  0
 59 62  1  0  0  0
 60133  1  0  0  0
 60134  1  0  0  0
 60135  1  0  0  0
 61136  1  0  0  0
 61137  1  0  0  0
 61138  1  0  0  0
 62139  1  0  0  0
 62140  1  0  0  0
 62141  1  0  0  0
 63 65  1  0  0  0
 63142  1  0  0  0
 63143  1  0  0  0
 63144  1  0  0  0
 64145  1  0  0  0
 65146  1  0  0  0
 68 80  1  0  0  0
 71 72  1  0  0  0
 71 73  2  0  0  0
 71147  1  0  0  0
 72 74  2  0  0  0
 72 81  1  0  0  0
 73 83  1  0  0  0
 73 87  1  0  0  0
 74 82  1  0  0  0
 74 87  1  0  0  0
 75 79  1  0  0  0
 75 80  1  0  0  0
 75 84  2  0  0  0
 76 78  1  0  0  0
 76 81  1  0  0  0
 76 85  2  0  0  0
 77 79  1  0  0  0
 77 82  1  0  0  0
 77 86  2  0  0  0
 78148  1  0  0  0
 78149  1  0  0  0
 78150  1  0  0  0
 79151  1  0  0  0
 79152  1  0  0  0
 80153  1  0  0  0
 80154  1  0  0  0
 81155  1  0  0  0
 82156  1  0  0  0
 83157  1  0  0  0
M  ISO  4   1 100  68 101  80 101  83 100
M  END
> <chiral flag>
0

> <version>
0

> <s_m_source_file>
/data/baiqing/PycharmProjects/Reinvent-master-3.2/result/LINK_invent/BTK/process_docking_weight1_custom_product_contain_oxygen_bond_distance_aromatic_linkinvent_7_9_3/rearranged_h_0168.sdf

> <i_m_source_file_index>
57

> <r_mmod_Potential_Energy-OPLS-2005>
-172.106216430664

> <r_mmod_Stretch_Energy-OPLS-2005>
52.2181510925293

> <r_mmod_Bend_Energy-OPLS-2005>
158.899703979492

> <r_mmod_Torsional_Energy-OPLS-2005>
231.938583374023

> <r_mmod_Improper_Torsional_Energy-OPLS-2005>
5.5849666595459

> <r_mmod_Van_der_Waal_Energy-OPLS-2005>
145.345733642578

> <r_mmod_Electrostatic_Energy-OPLS-2005>
-513.035034179688

> <r_mmod_Solvation_Energy-OPLS-2005>
-280.269714355469

> <b_mmod_Minimization_Converged-OPLS-2005>
0

> <r_mmod_RMS_Derivative-OPLS-2005>
1.64141190052032

$$$$
57
                    3D
 Structure written by MMmdl.
150158  0  0  1  0            999 V2000
  -30.5782  -14.7852   20.4669 C   0  0  0  0  0  0
  -30.4523  -12.4884   19.4734 C   0  0  0  0  0  0
  -29.5247  -12.5148   18.2411 C   0  0  0  0  0  0
  -28.0549  -12.3161   18.6585 C   0  0  0  0  0  0
  -27.6439  -13.2248   19.8480 C   0  0  2  0  0  0
  -28.6875  -13.1678   20.9837 C   0  0  0  0  0  0
  -25.2554  -13.8166   20.5688 C   0  0  0  0  0  0
  -24.1844  -13.0434   20.9219 C   0  0  0  0  0  0
  -24.6421  -11.6901   20.8747 C   0  0  0  0  0  0
  -23.9094  -10.4296   21.0396 C   0  0  0  0  0  0
  -24.3636   -9.4220   21.9195 C   0  0  0  0  0  0
  -23.6307   -8.2252   22.0747 C   0  0  0  0  0  0
  -22.4288   -8.0288   21.3535 C   0  0  0  0  0  0
  -21.9941   -9.0265   20.4632 C   0  0  0  0  0  0
  -22.7262  -10.2140   20.3058 C   0  0  0  0  0  0
  -21.6859   -6.0752   22.5291 C   0  0  0  0  0  0
  -21.3999   -6.5647   23.8230 C   0  0  0  0  0  0
  -21.3665   -5.6795   24.9180 C   0  0  0  0  0  0
  -21.6050   -4.3057   24.7222 C   0  0  0  0  0  0
  -21.8817   -3.8161   23.4341 C   0  0  0  0  0  0
  -21.9186   -4.6982   22.3403 C   0  0  0  0  0  0
  -22.7851  -13.5227   21.1845 C   0  0  0  0  0  0
  -22.1662   -4.2168   21.0977 F   0  0  0  0  0  0
  -21.5634   -3.4536   25.7737 F   0  0  0  0  0  0
  -29.9808  -13.5450   20.3988 N   0  0  0  0  0  0
  -26.2954  -12.9366   20.3228 N   0  0  0  0  0  0
  -25.9353  -11.6514   20.5739 N   0  0  0  0  0  0
  -22.0481  -12.8236   22.0385 N   0  0  0  0  0  0
  -25.4284  -15.1896   20.4041 N   0  0  0  0  0  0
  -31.7742  -14.9005   20.1864 O   0  0  0  0  0  0
  -21.6638   -6.8891   21.4247 O   0  0  0  0  0  0
  -22.3566  -14.5558   20.6693 O   0  0  0  0  0  0
  -24.6325  -31.8510   23.1971 C   0  0  0  0  0  0
  -25.9115  -32.4740   23.8325 C   0  0  1  0  0  0
  -27.2258  -27.2481   20.1454 C   0  0  0  0  0  0
  -25.5905  -33.8560   24.2245 N   0  0  0  0  0  0
  -23.4337  -30.4716   21.5332 C   0  0  2  0  0  0
  -24.8852  -28.9112   20.1125 C   0  0  0  0  0  0
  -22.7523  -29.4547   22.4830 C   0  0  0  0  0  0
  -18.0273  -28.1387   22.8427 C   0  0  0  0  0  0
  -24.1489  -36.7301   23.2647 C   0  0  0  0  0  0
  -25.9804  -30.7553   21.3821 C   0  0  0  0  0  0
  -26.0513  -29.3715   20.7381 C   0  0  0  0  0  0
  -27.2251  -28.5506   20.7494 C   0  0  0  0  0  0
  -26.0447  -26.8569   19.4829 C   0  0  0  0  0  0
  -24.8897  -27.6606   19.4697 C   0  0  0  0  0  0
  -23.6606  -29.8056   20.1493 C   0  0  0  0  0  0
  -25.4117  -36.3082   24.0350 C   0  0  1  0  0  0
  -20.5875  -28.3720   23.1238 C   0  0  2  0  0  0
  -20.6767  -26.9441   22.5379 C   0  0  0  0  0  0
  -19.5752  -26.6413   21.5169 C   0  0  0  0  0  0
  -18.1931  -26.7911   22.1589 C   0  0  0  0  0  0
  -19.1520  -28.8864   23.2823 C   0  0  0  0  0  0
  -18.9474  -30.1439   23.8895 C   0  0  0  0  0  0
  -17.6495  -30.6598   24.0568 C   0  0  0  0  0  0
  -25.9067  -34.9450   23.5112 C   0  0  0  0  0  0
  -16.5360  -29.9128   23.6320 C   0  0  0  0  0  0
  -16.7256  -28.6534   23.0332 C   0  0  0  0  0  0
  -26.4503  -31.6543   25.0689 C   0  0  0  0  0  0
  -25.3735  -31.3638   26.1414 C   0  0  0  0  0  0
  -27.0351  -30.2971   24.6143 C   0  0  0  0  0  0
  -27.6094  -32.4263   25.7416 C   0  0  0  0  0  0
  -27.5588  -37.1788   24.8475 C   0  0  0  0  0  0
  -21.4231  -29.3050   22.3617 N   0  0  0  0  0  0
  -26.4280  -37.3799   23.9424 N   0  0  0  0  0  0
  -24.7009  -31.0468   22.0915 N   0  0  0  0  0  0
  -23.4201  -28.8098   23.2960 O   0  0  0  0  0  0
  -28.3222  -26.3599   20.1172 O   0  0  0  0  0  0
  -26.5689  -34.8946   22.4710 O   0  0  0  0  0  0
  -23.5466  -32.1310   23.7256 O   0  0  0  0  0  0
  -29.2588  -18.4828   20.3016 C   0  0  0  0  0  0
  -31.2563  -17.7374   21.4225 C   0  0  0  0  0  0
  -29.6113  -19.8756   20.5520 C   0  0  0  0  0  0
  -30.0832  -17.3597   20.7356 C   0  0  0  0  0  0
  -30.8261  -20.0390   21.2560 C   0  0  0  0  0  0
  -28.8015  -21.1109   20.0193 C   0  0  0  0  0  0
  -28.5592  -23.7379   19.7969 C   0  0  0  0  0  0
  -28.2423  -25.0622   20.6817 C   0  0  1  0  0  0
  -31.6062  -19.0157   21.6815 N   0  0  0  0  0  0
  -29.7581  -15.9084   20.5806 N   0  0  0  0  0  0
  -28.9911  -22.4153   20.4592 N   0  0  0  0  0  0
  -27.9590  -20.8985   19.1444 O   0  0  0  0  0  0
  -31.2846  -21.2846   21.5341 F   0  0  0  0  0  0
  -29.1075  -25.0121   21.7258 F   0  0  0  0  0  0
  -31.4849  -12.6510   19.1607 H   0  0  0  0  0  0
  -30.4374  -11.5128   19.9607 H   0  0  0  0  0  0
  -29.8226  -11.7483   17.5242 H   0  0  0  0  0  0
  -29.6347  -13.4720   17.7282 H   0  0  0  0  0  0
  -27.9361  -11.2690   18.9400 H   0  0  0  0  0  0
  -27.3934  -12.4780   17.8072 H   0  0  0  0  0  0
  -27.6345  -14.2415   19.4598 H   0  0  0  0  0  0
  -28.7418  -12.1690   21.4194 H   0  0  0  0  0  0
  -28.4164  -13.8402   21.7984 H   0  0  0  0  0  0
  -25.2772   -9.5683   22.4775 H   0  0  0  0  0  0
  -24.0009   -7.4640   22.7480 H   0  0  0  0  0  0
  -21.0874   -8.8791   19.8941 H   0  0  0  0  0  0
  -22.3740  -10.9679   19.6169 H   0  0  0  0  0  0
  -21.1994   -7.6154   23.9727 H   0  0  0  0  0  0
  -21.1484   -6.0526   25.9083 H   0  0  0  0  0  0
  -22.0592   -2.7623   23.2833 H   0  0  0  0  0  0
  -22.4062  -11.9860   22.4739 H   0  0  0  0  0  0
  -21.1091  -13.1255   22.2534 H   0  0  0  0  0  0
  -24.6621  -15.8449   20.5146 H   0  0  0  0  0  0
  -26.2595  -15.6144   20.0137 H   0  0  0  0  0  0
  -26.7190  -32.5342   23.1071 H   0  0  0  0  0  0
  -25.0015  -33.9680   25.0372 H   0  0  0  0  0  0
  -22.7284  -31.2916   21.3800 H   0  0  0  0  0  0
  -23.3756  -35.9617   23.3304 H   0  0  0  0  0  0
  -24.3603  -36.8939   22.2062 H   0  0  0  0  0  0
  -23.7246  -37.6510   23.6679 H   0  0  0  0  0  0
  -26.1214  -31.4998   20.5981 H   0  0  0  0  0  0
  -26.8627  -30.8139   22.0091 H   0  0  0  0  0  0
  -28.1206  -28.8979   21.2462 H   0  0  0  0  0  0
  -26.0165  -25.9073   18.9661 H   0  0  0  0  0  0
  -24.0073  -27.3106   18.9525 H   0  0  0  0  0  0
  -23.8027  -30.5828   19.3968 H   0  0  0  0  0  0
  -22.7754  -29.2455   19.8363 H   0  0  0  0  0  0
  -25.1280  -36.1943   25.0846 H   0  0  0  0  0  0
  -20.9924  -28.3289   24.1383 H   0  0  0  0  0  0
  -20.5661  -26.2323   23.3577 H   0  0  0  0  0  0
  -21.6648  -26.7455   22.1188 H   0  0  0  0  0  0
  -19.6950  -25.6335   21.1191 H   0  0  0  0  0  0
  -19.6717  -27.3234   20.6697 H   0  0  0  0  0  0
  -17.4205  -26.6606   21.4005 H   0  0  0  0  0  0
  -18.0369  -26.0087   22.9018 H   0  0  0  0  0  0
  -19.7968  -30.7196   24.2307 H   0  0  0  0  0  0
  -17.5081  -31.6270   24.5165 H   0  0  0  0  0  0
  -15.5368  -30.3063   23.7656 H   0  0  0  0  0  0
  -15.8627  -28.0882   22.7037 H   0  0  0  0  0  0
  -24.6018  -30.6871   25.7753 H   0  0  0  0  0  0
  -24.8805  -32.2740   26.4818 H   0  0  0  0  0  0
  -25.8099  -30.8874   27.0199 H   0  0  0  0  0  0
  -26.2897  -29.6706   24.1252 H   0  0  0  0  0  0
  -27.4142  -29.7245   25.4609 H   0  0  0  0  0  0
  -27.8714  -30.4254   23.9286 H   0  0  0  0  0  0
  -27.2781  -33.3618   26.1919 H   0  0  0  0  0  0
  -28.3902  -32.6731   25.0215 H   0  0  0  0  0  0
  -28.0753  -31.8413   26.5366 H   0  0  0  0  0  0
  -28.2568  -38.0120   24.7595 H   0  0  0  0  0  0
  -28.1123  -36.2669   24.6191 H   0  0  0  0  0  0
  -27.2341  -37.1313   25.8886 H   0  0  0  0  0  0
  -20.9439  -29.8868   21.6889 H   0  0  0  0  0  0
  -26.0173  -38.2870   24.1471 H   0  0  0  0  0  0
  -28.3512  -18.2775   19.7508 H   0  0  0  0  0  0
  -31.9278  -16.9956   21.8288 H   0  0  0  0  0  0
  -29.3890  -24.0034   19.1445 H   0  0  0  0  0  0
  -27.7193  -23.5611   19.1222 H   0  0  0  0  0  0
  -27.2473  -24.9221   21.1045 H   0  0  0  0  0  0
  -28.7725  -15.6916   20.5709 H   0  0  0  0  0  0
  -29.6574  -22.5397   21.2103 H   0  0  0  0  0  0
  1 25  1  0  0  0
  1 30  2  0  0  0
  1 80  1  0  0  0
  2  3  1  0  0  0
  2 25  1  0  0  0
  2 85  1  0  0  0
  2 86  1  0  0  0
  3  4  1  0  0  0
  3 87  1  0  0  0
  3 88  1  0  0  0
  4  5  1  0  0  0
  4 89  1  0  0  0
  4 90  1  0  0  0
  5  6  1  0  0  0
  5 26  1  0  0  0
  5 91  1  0  0  0
  6 25  1  0  0  0
  6 92  1  0  0  0
  6 93  1  0  0  0
  7  8  2  0  0  0
  7 26  1  0  0  0
  7 29  1  0  0  0
  8  9  1  0  0  0
  8 22  1  0  0  0
  9 10  1  0  0  0
  9 27  2  0  0  0
 10 11  2  0  0  0
 10 15  1  0  0  0
 11 12  1  0  0  0
 11 94  1  0  0  0
 12 13  2  0  0  0
 12 95  1  0  0  0
 13 14  1  0  0  0
 13 31  1  0  0  0
 14 15  2  0  0  0
 14 96  1  0  0  0
 15 97  1  0  0  0
 16 17  2  0  0  0
 16 21  1  0  0  0
 16 31  1  0  0  0
 17 18  1  0  0  0
 17 98  1  0  0  0
 18 19  2  0  0  0
 18 99  1  0  0  0
 19 20  1  0  0  0
 19 24  1  0  0  0
 20 21  2  0  0  0
 20100  1  0  0  0
 21 23  1  0  0  0
 22 28  1  0  0  0
 22 32  2  0  0  0
 26 27  1  0  0  0
 28101  1  0  0  0
 28102  1  0  0  0
 29103  1  0  0  0
 29104  1  0  0  0
 33 34  1  0  0  0
 33 66  1  0  0  0
 33 70  2  0  0  0
 34 36  1  0  0  0
 34 59  1  0  0  0
 34105  1  0  0  0
 35 44  2  0  0  0
 35 45  1  0  0  0
 35 68  1  0  0  0
 36 56  1  0  0  0
 36106  1  0  0  0
 37 39  1  0  0  0
 37 47  1  0  0  0
 37 66  1  0  0  0
 37107  1  0  0  0
 38 43  2  0  0  0
 38 46  1  0  0  0
 38 47  1  0  0  0
 39 64  1  0  0  0
 39 67  2  0  0  0
 40 52  1  0  0  0
 40 53  2  0  0  0
 40 58  1  0  0  0
 41108  1  0  0  0
 41109  1  0  0  0
 41110  1  0  0  0
 41 48  1  0  0  0
 42 43  1  0  0  0
 42 66  1  0  0  0
 42111  1  0  0  0
 42112  1  0  0  0
 43 44  1  0  0  0
 44113  1  0  0  0
 45 46  2  0  0  0
 45114  1  0  0  0
 46115  1  0  0  0
 47116  1  0  0  0
 47117  1  0  0  0
 48 56  1  0  0  0
 48 65  1  0  0  0
 48118  1  0  0  0
 49 50  1  0  0  0
 49 53  1  0  0  0
 49 64  1  0  0  0
 49119  1  0  0  0
 50 51  1  0  0  0
 50120  1  0  0  0
 50121  1  0  0  0
 51 52  1  0  0  0
 51122  1  0  0  0
 51123  1  0  0  0
 52124  1  0  0  0
 52125  1  0  0  0
 53 54  1  0  0  0
 54 55  2  0  0  0
 54126  1  0  0  0
 55 57  1  0  0  0
 55127  1  0  0  0
 56 69  2  0  0  0
 57 58  2  0  0  0
 57128  1  0  0  0
 58129  1  0  0  0
 59 60  1  0  0  0
 59 61  1  0  0  0
 59 62  1  0  0  0
 60130  1  0  0  0
 60131  1  0  0  0
 60132  1  0  0  0
 61133  1  0  0  0
 61134  1  0  0  0
 61135  1  0  0  0
 62136  1  0  0  0
 62137  1  0  0  0
 62138  1  0  0  0
 63 65  1  0  0  0
 63139  1  0  0  0
 63140  1  0  0  0
 63141  1  0  0  0
 64142  1  0  0  0
 65143  1  0  0  0
 68 78  1  0  0  0
 71 73  2  0  0  0
 71 74  1  0  0  0
 71144  1  0  0  0
 72 74  2  0  0  0
 72 79  1  0  0  0
 72145  1  0  0  0
 73 75  1  0  0  0
 73 76  1  0  0  0
 74 80  1  0  0  0
 75 79  2  0  0  0
 75 83  1  0  0  0
 76 81  1  0  0  0
 76 82  2  0  0  0
 77 78  1  0  0  0
 77 81  1  0  0  0
 77146  1  0  0  0
 77147  1  0  0  0
 78 84  1  0  0  0
 78148  1  0  0  0
 80149  1  0  0  0
 81150  1  0  0  0
M  ISO  4   1 100  68 101  78 101  80 100
M  END
> <chiral flag>
0

> <version>
0

> <s_m_source_file>
/data/baiqing/PycharmProjects/Reinvent-master-3.2/result/LINK_invent/BTK/process_docking_weight1_custom_product_contain_oxygen_bond_distance_aromatic_linkinvent_7_9_3/rearranged_h_0168.sdf

> <i_m_source_file_index>
58

> <r_mmod_Potential_Energy-OPLS-2005>
-111.97819519043

> <r_mmod_Stretch_Energy-OPLS-2005>
125.547645568848

> <r_mmod_Bend_Energy-OPLS-2005>
163.804763793945

> <r_mmod_Torsional_Energy-OPLS-2005>
236.106597900391

> <r_mmod_Improper_Torsional_Energy-OPLS-2005>
7.43491744995117

> <r_mmod_Van_der_Waal_Energy-OPLS-2005>
138.222915649414

> <r_mmod_Electrostatic_Energy-OPLS-2005>
-648.66064453125

> <r_mmod_Solvation_Energy-OPLS-2005>
-232.916046142578

> <b_mmod_Minimization_Converged-OPLS-2005>
0

> <r_mmod_RMS_Derivative-OPLS-2005>
4.86979198455811

$$$$
58
                    3D
 Structure written by MMmdl.
157165  0  0  1  0            999 V2000
  -30.7233  -14.4932   20.5538 C   0  0  0  0  0  0
  -30.4221  -12.3178   19.4268 C   0  0  0  0  0  0
  -29.4932  -12.5054   18.2112 C   0  0  0  0  0  0
  -28.0136  -12.3656   18.6189 C   0  0  0  0  0  0
  -27.6584  -13.2159   19.8670 C   0  0  2  0  0  0
  -28.7053  -13.0327   20.9896 C   0  0  0  0  0  0
  -25.2518  -13.8152   20.5607 C   0  0  0  0  0  0
  -24.1809  -13.0417   20.9172 C   0  0  0  0  0  0
  -24.6405  -11.6893   20.8764 C   0  0  0  0  0  0
  -23.9080  -10.4249   21.0405 C   0  0  0  0  0  0
  -24.3612   -9.4155   21.9191 C   0  0  0  0  0  0
  -23.6277   -8.2190   22.0750 C   0  0  0  0  0  0
  -22.4270   -8.0222   21.3532 C   0  0  0  0  0  0
  -21.9901   -9.0200   20.4647 C   0  0  0  0  0  0
  -22.7239  -10.2077   20.3068 C   0  0  0  0  0  0
  -21.6841   -6.0714   22.5273 C   0  0  0  0  0  0
  -21.4023   -6.5631   23.8204 C   0  0  0  0  0  0
  -21.3667   -5.6785   24.9160 C   0  0  0  0  0  0
  -21.6052   -4.3046   24.7216 C   0  0  0  0  0  0
  -21.8817   -3.8134   23.4334 C   0  0  0  0  0  0
  -21.9180   -4.6945   22.3390 C   0  0  0  0  0  0
  -22.7831  -13.5182   21.1813 C   0  0  0  0  0  0
  -22.1637   -4.2131   21.0966 F   0  0  0  0  0  0
  -21.5633   -3.4542   25.7736 F   0  0  0  0  0  0
  -30.0345  -13.3253   20.4256 N   0  0  0  0  0  0
  -26.3006  -12.9363   20.3369 N   0  0  0  0  0  0
  -25.9349  -11.6518   20.5847 N   0  0  0  0  0  0
  -22.0510  -12.8176   22.0409 N   0  0  0  0  0  0
  -25.4162  -15.1857   20.3817 N   0  0  0  0  0  0
  -31.8691  -14.6396   20.1224 O   0  0  0  0  0  0
  -21.6625   -6.8836   21.4223 O   0  0  0  0  0  0
  -22.3481  -14.5454   20.6611 O   0  0  0  0  0  0
  -24.6228  -31.8612   23.2018 C   0  0  0  0  0  0
  -25.9088  -32.4761   23.8362 C   0  0  1  0  0  0
  -27.2508  -27.3919   20.1005 C   0  0  0  0  0  0
  -25.5937  -33.8579   24.2296 N   0  0  0  0  0  0
  -23.4155  -30.4806   21.5414 C   0  0  2  0  0  0
  -24.8635  -28.9285   20.1198 C   0  0  0  0  0  0
  -22.7425  -29.4654   22.4971 C   0  0  0  0  0  0
  -18.0287  -28.1384   22.8479 C   0  0  0  0  0  0
  -24.1498  -36.7314   23.2639 C   0  0  0  0  0  0
  -25.9481  -30.8096   21.3622 C   0  0  0  0  0  0
  -26.0258  -29.4400   20.7117 C   0  0  0  0  0  0
  -27.2234  -28.6811   20.6909 C   0  0  0  0  0  0
  -26.0695  -26.9019   19.5046 C   0  0  0  0  0  0
  -24.8813  -27.6615   19.5115 C   0  0  0  0  0  0
  -23.6258  -29.7983   20.1635 C   0  0  0  0  0  0
  -25.4118  -36.3084   24.0327 C   0  0  1  0  0  0
  -20.5878  -28.3696   23.1278 C   0  0  2  0  0  0
  -20.6781  -26.9428   22.5403 C   0  0  0  0  0  0
  -19.5754  -26.6389   21.5207 C   0  0  0  0  0  0
  -18.1928  -26.7933   22.1599 C   0  0  0  0  0  0
  -19.1535  -28.8858   23.2878 C   0  0  0  0  0  0
  -18.9446  -30.1462   23.8890 C   0  0  0  0  0  0
  -17.6452  -30.6589   24.0567 C   0  0  0  0  0  0
  -25.9046  -34.9445   23.5098 C   0  0  0  0  0  0
  -16.5356  -29.9080   23.6335 C   0  0  0  0  0  0
  -16.7274  -28.6498   23.0358 C   0  0  0  0  0  0
  -26.4473  -31.6552   25.0715 C   0  0  0  0  0  0
  -25.3747  -31.3641   26.1478 C   0  0  0  0  0  0
  -27.0271  -30.2963   24.6134 C   0  0  0  0  0  0
  -27.6043  -32.4313   25.7469 C   0  0  0  0  0  0
  -27.5567  -37.1818   24.8459 C   0  0  0  0  0  0
  -21.4156  -29.3060   22.3683 N   0  0  0  0  0  0
  -26.4290  -37.3780   23.9401 N   0  0  0  0  0  0
  -24.6810  -31.0676   22.0932 N   0  0  0  0  0  0
  -23.4166  -28.8202   23.3050 O   0  0  0  0  0  0
  -28.4119  -26.6359   20.0822 O   0  0  0  0  0  0
  -26.5607  -34.8896   22.4669 O   0  0  0  0  0  0
  -23.5401  -32.1379   23.7391 O   0  0  0  0  0  0
  -31.8710  -18.4993   22.4069 C   0  0  0  0  0  0
  -31.4965  -17.1663   22.1434 C   0  0  0  0  0  0
  -31.2388  -19.5689   21.7337 C   0  0  0  0  0  0
  -29.8462  -17.9714   20.5377 C   0  0  0  0  0  0
  -30.4704  -16.8872   21.2127 C   0  0  0  0  0  0
  -30.2249  -19.3187   20.7808 C   0  0  0  0  0  0
  -28.9747  -24.2171   19.6225 C   0  0  0  0  0  0
  -28.2944  -25.2632   20.5526 C   0  0  0  0  0  0
  -29.7009  -21.7988   20.3943 C   0  0  0  0  0  0
  -27.2075  -22.4582   20.3780 C   0  0  0  0  0  0
  -28.5944  -22.6941   19.7229 C   0  0  1  0  0  0
  -30.0123  -15.5424   21.0211 N   0  0  0  0  0  0
  -29.5844  -20.3586   20.0711 N   0  0  0  0  0  0
  -29.8343  -24.5900   18.8131 O   0  0  0  0  0  0
  -26.8556  -21.1707   20.3486 F   0  0  0  0  0  0
  -26.2419  -23.1690   19.7923 F   0  0  0  0  0  0
  -28.4912  -22.2367   18.4661 F   0  0  0  0  0  0
  -31.4667  -12.4094   19.1240 H   0  0  0  0  0  0
  -30.3220  -11.3148   19.8486 H   0  0  0  0  0  0
  -29.7325  -11.7861   17.4279 H   0  0  0  0  0  0
  -29.6572  -13.4938   17.7815 H   0  0  0  0  0  0
  -27.8141  -11.3123   18.8169 H   0  0  0  0  0  0
  -27.3679  -12.6390   17.7833 H   0  0  0  0  0  0
  -27.6869  -14.2577   19.5453 H   0  0  0  0  0  0
  -28.6810  -12.0107   21.3693 H   0  0  0  0  0  0
  -28.4739  -13.6697   21.8434 H   0  0  0  0  0  0
  -25.2731   -9.5626   22.4806 H   0  0  0  0  0  0
  -23.9981   -7.4568   22.7468 H   0  0  0  0  0  0
  -21.0831   -8.8678   19.8963 H   0  0  0  0  0  0
  -22.3650  -10.9594   19.6178 H   0  0  0  0  0  0
  -21.2050   -7.6142   23.9696 H   0  0  0  0  0  0
  -21.1510   -6.0528   25.9062 H   0  0  0  0  0  0
  -22.0617   -2.7599   23.2832 H   0  0  0  0  0  0
  -22.4155  -11.9852   22.4798 H   0  0  0  0  0  0
  -21.1122  -13.1171   22.2647 H   0  0  0  0  0  0
  -24.6248  -15.8208   20.3969 H   0  0  0  0  0  0
  -26.2408  -15.5946   19.9615 H   0  0  0  0  0  0
  -26.7166  -32.5427   23.1127 H   0  0  0  0  0  0
  -25.0156  -33.9742   25.0481 H   0  0  0  0  0  0
  -22.7108  -31.2996   21.3844 H   0  0  0  0  0  0
  -23.3722  -35.9679   23.3308 H   0  0  0  0  0  0
  -24.3598  -36.8943   22.2048 H   0  0  0  0  0  0
  -23.7285  -37.6536   23.6666 H   0  0  0  0  0  0
  -26.0748  -31.5665   20.5874 H   0  0  0  0  0  0
  -26.8317  -30.8589   21.9877 H   0  0  0  0  0  0
  -28.1243  -29.0728   21.1438 H   0  0  0  0  0  0
  -26.0606  -25.9312   19.0326 H   0  0  0  0  0  0
  -23.9897  -27.2586   19.0548 H   0  0  0  0  0  0
  -23.7346  -30.5590   19.3902 H   0  0  0  0  0  0
  -22.7531  -29.2117   19.8735 H   0  0  0  0  0  0
  -25.1286  -36.1943   25.0818 H   0  0  0  0  0  0
  -20.9974  -28.3272   24.1394 H   0  0  0  0  0  0
  -20.5668  -26.2312   23.3603 H   0  0  0  0  0  0
  -21.6647  -26.7468   22.1194 H   0  0  0  0  0  0
  -19.6932  -25.6292   21.1248 H   0  0  0  0  0  0
  -19.6702  -27.3178   20.6720 H   0  0  0  0  0  0
  -17.4217  -26.6714   21.3983 H   0  0  0  0  0  0
  -18.0306  -26.0066   22.8972 H   0  0  0  0  0  0
  -19.7934  -30.7298   24.2227 H   0  0  0  0  0  0
  -17.5008  -31.6254   24.5185 H   0  0  0  0  0  0
  -15.5345  -30.2986   23.7660 H   0  0  0  0  0  0
  -15.8676  -28.0815   22.7079 H   0  0  0  0  0  0
  -24.6083  -30.6759   25.7872 H   0  0  0  0  0  0
  -24.8715  -32.2730   26.4791 H   0  0  0  0  0  0
  -25.8157  -30.9005   27.0317 H   0  0  0  0  0  0
  -26.2764  -29.6756   24.1220 H   0  0  0  0  0  0
  -27.3982  -29.7190   25.4610 H   0  0  0  0  0  0
  -27.8645  -30.4172   23.9262 H   0  0  0  0  0  0
  -27.2678  -33.3710   26.1871 H   0  0  0  0  0  0
  -28.3918  -32.6756   25.0318 H   0  0  0  0  0  0
  -28.0628  -31.8555   26.5516 H   0  0  0  0  0  0
  -28.2590  -38.0112   24.7514 H   0  0  0  0  0  0
  -28.1050  -36.2646   24.6263 H   0  0  0  0  0  0
  -27.2279  -37.1457   25.8861 H   0  0  0  0  0  0
  -20.9351  -29.8761   21.6867 H   0  0  0  0  0  0
  -26.0151  -38.2850   24.1413 H   0  0  0  0  0  0
  -32.6426  -18.7002   23.1367 H   0  0  0  0  0  0
  -31.9919  -16.3655   22.6758 H   0  0  0  0  0  0
  -31.5512  -20.5793   21.9560 H   0  0  0  0  0  0
  -29.0651  -17.7649   19.8221 H   0  0  0  0  0  0
  -28.7818  -25.2009   21.5250 H   0  0  0  0  0  0
  -27.2557  -24.9993   20.7229 H   0  0  0  0  0  0
  -29.6631  -21.9327   21.4767 H   0  0  0  0  0  0
  -30.6877  -22.1361   20.0723 H   0  0  0  0  0  0
  -27.2274  -22.7335   21.4344 H   0  0  0  0  0  0
  -29.0359  -15.3632   21.1997 H   0  0  0  0  0  0
  -28.8585  -20.1222   19.3996 H   0  0  0  0  0  0
  1 25  1  0  0  0
  1 30  2  0  0  0
  1 82  1  0  0  0
  2  3  1  0  0  0
  2 25  1  0  0  0
  2 88  1  0  0  0
  2 89  1  0  0  0
  3  4  1  0  0  0
  3 90  1  0  0  0
  3 91  1  0  0  0
  4  5  1  0  0  0
  4 92  1  0  0  0
  4 93  1  0  0  0
  5  6  1  0  0  0
  5 26  1  0  0  0
  5 94  1  0  0  0
  6 25  1  0  0  0
  6 95  1  0  0  0
  6 96  1  0  0  0
  7  8  2  0  0  0
  7 26  1  0  0  0
  7 29  1  0  0  0
  8  9  1  0  0  0
  8 22  1  0  0  0
  9 10  1  0  0  0
  9 27  2  0  0  0
 10 11  2  0  0  0
 10 15  1  0  0  0
 11 12  1  0  0  0
 11 97  1  0  0  0
 12 13  2  0  0  0
 12 98  1  0  0  0
 13 14  1  0  0  0
 13 31  1  0  0  0
 14 15  2  0  0  0
 14 99  1  0  0  0
 15100  1  0  0  0
 16 17  2  0  0  0
 16 21  1  0  0  0
 16 31  1  0  0  0
 17 18  1  0  0  0
 17101  1  0  0  0
 18 19  2  0  0  0
 18102  1  0  0  0
 19 20  1  0  0  0
 19 24  1  0  0  0
 20 21  2  0  0  0
 20103  1  0  0  0
 21 23  1  0  0  0
 22 28  1  0  0  0
 22 32  2  0  0  0
 26 27  1  0  0  0
 28104  1  0  0  0
 28105  1  0  0  0
 29106  1  0  0  0
 29107  1  0  0  0
 33 34  1  0  0  0
 33 66  1  0  0  0
 33 70  2  0  0  0
 34 36  1  0  0  0
 34 59  1  0  0  0
 34108  1  0  0  0
 35 44  2  0  0  0
 35 45  1  0  0  0
 35 68  1  0  0  0
 36 56  1  0  0  0
 36109  1  0  0  0
 37 39  1  0  0  0
 37 47  1  0  0  0
 37 66  1  0  0  0
 37110  1  0  0  0
 38 43  2  0  0  0
 38 46  1  0  0  0
 38 47  1  0  0  0
 39 64  1  0  0  0
 39 67  2  0  0  0
 40 52  1  0  0  0
 40 53  2  0  0  0
 40 58  1  0  0  0
 41111  1  0  0  0
 41112  1  0  0  0
 41113  1  0  0  0
 41 48  1  0  0  0
 42 43  1  0  0  0
 42 66  1  0  0  0
 42114  1  0  0  0
 42115  1  0  0  0
 43 44  1  0  0  0
 44116  1  0  0  0
 45 46  2  0  0  0
 45117  1  0  0  0
 46118  1  0  0  0
 47119  1  0  0  0
 47120  1  0  0  0
 48 56  1  0  0  0
 48 65  1  0  0  0
 48121  1  0  0  0
 49 50  1  0  0  0
 49 53  1  0  0  0
 49 64  1  0  0  0
 49122  1  0  0  0
 50 51  1  0  0  0
 50123  1  0  0  0
 50124  1  0  0  0
 51 52  1  0  0  0
 51125  1  0  0  0
 51126  1  0  0  0
 52127  1  0  0  0
 52128  1  0  0  0
 53 54  1  0  0  0
 54 55  2  0  0  0
 54129  1  0  0  0
 55 57  1  0  0  0
 55130  1  0  0  0
 56 69  2  0  0  0
 57 58  2  0  0  0
 57131  1  0  0  0
 58132  1  0  0  0
 59 60  1  0  0  0
 59 61  1  0  0  0
 59 62  1  0  0  0
 60133  1  0  0  0
 60134  1  0  0  0
 60135  1  0  0  0
 61136  1  0  0  0
 61137  1  0  0  0
 61138  1  0  0  0
 62139  1  0  0  0
 62140  1  0  0  0
 62141  1  0  0  0
 63 65  1  0  0  0
 63142  1  0  0  0
 63143  1  0  0  0
 63144  1  0  0  0
 64145  1  0  0  0
 65146  1  0  0  0
 68 78  1  0  0  0
 71 72  2  0  0  0
 71 73  1  0  0  0
 71147  1  0  0  0
 72 75  1  0  0  0
 72148  1  0  0  0
 73 76  2  0  0  0
 73149  1  0  0  0
 74 75  2  0  0  0
 74 76  1  0  0  0
 74150  1  0  0  0
 75 82  1  0  0  0
 76 83  1  0  0  0
 77 78  1  0  0  0
 77 81  1  0  0  0
 77 84  2  0  0  0
 78151  1  0  0  0
 78152  1  0  0  0
 79 81  1  0  0  0
 79 83  1  0  0  0
 79153  1  0  0  0
 79154  1  0  0  0
 80 81  1  0  0  0
 80 85  1  0  0  0
 80 86  1  0  0  0
 80155  1  0  0  0
 81 87  1  0  0  0
 82156  1  0  0  0
 83157  1  0  0  0
M  ISO  4   1 100  68 101  78 101  82 100
M  END
> <chiral flag>
0

> <version>
0

> <s_m_source_file>
/data/baiqing/PycharmProjects/Reinvent-master-3.2/result/LINK_invent/BTK/process_docking_weight1_custom_product_contain_oxygen_bond_distance_aromatic_linkinvent_7_9_3/rearranged_h_0168.sdf

> <i_m_source_file_index>
59

> <r_mmod_Potential_Energy-OPLS-2005>
97.2906799316406

> <r_mmod_Stretch_Energy-OPLS-2005>
50.1139831542969

> <r_mmod_Bend_Energy-OPLS-2005>
110.618431091309

> <r_mmod_Torsional_Energy-OPLS-2005>
238.989028930664

> <r_mmod_Improper_Torsional_Energy-OPLS-2005>
5.09119749069214

> <r_mmod_Van_der_Waal_Energy-OPLS-2005>
151.732482910156

> <r_mmod_Electrostatic_Energy-OPLS-2005>
-238.322357177734

> <r_mmod_Solvation_Energy-OPLS-2005>
-239.776382446289

> <b_mmod_Minimization_Converged-OPLS-2005>
0

> <r_mmod_RMS_Derivative-OPLS-2005>
4.35837411880493

$$$$
59
                    3D
 Structure written by MMmdl.
158166  0  0  1  0            999 V2000
  -30.7443  -14.5150   20.4450 C   0  0  0  0  0  0
  -30.4128  -12.3180   19.4241 C   0  0  0  0  0  0
  -29.4946  -12.5006   18.1961 C   0  0  0  0  0  0
  -28.0139  -12.3593   18.5985 C   0  0  0  0  0  0
  -27.6471  -13.2199   19.8376 C   0  0  2  0  0  0
  -28.7026  -13.0986   20.9597 C   0  0  0  0  0  0
  -25.2571  -13.8147   20.5698 C   0  0  0  0  0  0
  -24.1866  -13.0406   20.9181 C   0  0  0  0  0  0
  -24.6463  -11.6874   20.8725 C   0  0  0  0  0  0
  -23.9120  -10.4259   21.0368 C   0  0  0  0  0  0
  -24.3658   -9.4185   21.9162 C   0  0  0  0  0  0
  -23.6322   -8.2247   22.0734 C   0  0  0  0  0  0
  -22.4306   -8.0276   21.3527 C   0  0  0  0  0  0
  -21.9950   -9.0249   20.4634 C   0  0  0  0  0  0
  -22.7281  -10.2126   20.3032 C   0  0  0  0  0  0
  -21.6883   -6.0755   22.5287 C   0  0  0  0  0  0
  -21.4006   -6.5652   23.8231 C   0  0  0  0  0  0
  -21.3645   -5.6797   24.9178 C   0  0  0  0  0  0
  -21.6061   -4.3041   24.7222 C   0  0  0  0  0  0
  -21.8822   -3.8148   23.4339 C   0  0  0  0  0  0
  -21.9197   -4.6990   22.3395 C   0  0  0  0  0  0
  -22.7872  -13.5183   21.1856 C   0  0  0  0  0  0
  -22.1667   -4.2147   21.0978 F   0  0  0  0  0  0
  -21.5634   -3.4544   25.7753 F   0  0  0  0  0  0
  -30.0366  -13.3503   20.4016 N   0  0  0  0  0  0
  -26.3013  -12.9378   20.3257 N   0  0  0  0  0  0
  -25.9381  -11.6494   20.5680 N   0  0  0  0  0  0
  -22.0546  -12.8144   22.0393 N   0  0  0  0  0  0
  -25.4220  -15.1882   20.4140 N   0  0  0  0  0  0
  -31.9550  -14.5367   20.2241 O   0  0  0  0  0  0
  -21.6657   -6.8887   21.4240 O   0  0  0  0  0  0
  -22.3527  -14.5495   20.6685 O   0  0  0  0  0  0
  -24.6173  -31.8679   23.2127 C   0  0  0  0  0  0
  -25.9048  -32.4840   23.8442 C   0  0  1  0  0  0
  -27.2292  -27.4170   20.0970 C   0  0  0  0  0  0
  -25.5884  -33.8625   24.2358 N   0  0  0  0  0  0
  -23.4107  -30.4954   21.5485 C   0  0  2  0  0  0
  -24.8598  -28.9652   20.1140 C   0  0  0  0  0  0
  -22.7440  -29.4650   22.4897 C   0  0  0  0  0  0
  -18.0284  -28.1383   22.8478 C   0  0  0  0  0  0
  -24.1474  -36.7293   23.2646 C   0  0  0  0  0  0
  -25.9463  -30.8249   21.3786 C   0  0  0  0  0  0
  -26.0233  -29.4628   20.7160 C   0  0  0  0  0  0
  -27.2154  -28.6959   20.7038 C   0  0  0  0  0  0
  -26.0536  -26.9562   19.4612 C   0  0  0  0  0  0
  -24.8684  -27.7079   19.4898 C   0  0  0  0  0  0
  -23.6279  -29.8399   20.1613 C   0  0  0  0  0  0
  -25.4115  -36.3114   24.0337 C   0  0  1  0  0  0
  -20.5886  -28.3673   23.1292 C   0  0  2  0  0  0
  -20.6761  -26.9393   22.5417 C   0  0  0  0  0  0
  -19.5741  -26.6374   21.5212 C   0  0  0  0  0  0
  -18.1916  -26.7934   22.1594 C   0  0  0  0  0  0
  -19.1540  -28.8832   23.2898 C   0  0  0  0  0  0
  -18.9452  -30.1427   23.8931 C   0  0  0  0  0  0
  -17.6453  -30.6579   24.0578 C   0  0  0  0  0  0
  -25.9026  -34.9478   23.5149 C   0  0  0  0  0  0
  -16.5346  -29.9088   23.6315 C   0  0  0  0  0  0
  -16.7272  -28.6507   23.0336 C   0  0  0  0  0  0
  -26.4478  -31.6605   25.0749 C   0  0  0  0  0  0
  -25.3743  -31.3671   26.1475 C   0  0  0  0  0  0
  -27.0310  -30.3058   24.6100 C   0  0  0  0  0  0
  -27.6054  -32.4322   25.7499 C   0  0  0  0  0  0
  -27.5592  -37.1803   24.8455 C   0  0  0  0  0  0
  -21.4157  -29.3060   22.3691 N   0  0  0  0  0  0
  -26.4308  -37.3810   23.9378 N   0  0  0  0  0  0
  -24.6767  -31.0758   22.1064 N   0  0  0  0  0  0
  -23.4206  -28.8170   23.2939 O   0  0  0  0  0  0
  -28.3438  -26.6031   20.1446 O   0  0  0  0  0  0
  -26.5567  -34.8932   22.4694 O   0  0  0  0  0  0
  -23.5365  -32.1428   23.7503 O   0  0  0  0  0  0
  -30.0685  -19.3606   20.4770 C   0  0  0  0  0  0
  -29.0649  -20.7134   18.7238 C   0  0  0  0  0  0
  -29.9872  -18.2039   19.6617 C   0  0  0  0  0  0
  -29.4876  -18.3234   18.3322 C   0  0  0  0  0  0
  -29.6043  -20.6178   20.0228 C   0  0  0  0  0  0
  -29.0414  -19.5911   17.8700 C   0  0  0  0  0  0
  -30.5999  -16.9361   20.1171 C   0  0  0  0  0  0
  -29.9647  -15.7565   20.3351 C   0  0  0  0  0  0
  -29.1032  -24.2131   20.4676 C   0  0  0  0  0  0
  -28.7128  -22.7832   20.9264 C   0  0  0  0  0  0
  -28.0422  -25.3050   20.7199 C   0  0  0  0  0  0
  -29.4642  -17.1088   17.3861 C   0  0  0  0  0  0
  -28.6008  -19.7667   16.5537 N   0  0  0  0  0  0
  -29.7659  -21.7556   20.8373 N   0  0  0  0  0  0
  -30.1922  -24.4542   19.9332 O   0  0  0  0  0  0
  -30.0929  -17.3570   16.2352 F   0  0  0  0  0  0
  -28.2097  -16.7372   17.1285 F   0  0  0  0  0  0
  -31.4566  -12.3858   19.1143 H   0  0  0  0  0  0
  -30.2891  -11.3217   19.8535 H   0  0  0  0  0  0
  -29.7444  -11.7795   17.4173 H   0  0  0  0  0  0
  -29.6518  -13.4837   17.7520 H   0  0  0  0  0  0
  -27.8203  -11.3036   18.7905 H   0  0  0  0  0  0
  -27.3746  -12.6333   17.7595 H   0  0  0  0  0  0
  -27.6443  -14.2470   19.4762 H   0  0  0  0  0  0
  -28.6832  -12.0987   21.3955 H   0  0  0  0  0  0
  -28.4871  -13.7952   21.7734 H   0  0  0  0  0  0
  -25.2818   -9.5663   22.4699 H   0  0  0  0  0  0
  -24.0040   -7.4640   22.7445 H   0  0  0  0  0  0
  -21.0892   -8.8765   19.8927 H   0  0  0  0  0  0
  -22.3753  -10.9657   19.6111 H   0  0  0  0  0  0
  -21.1991   -7.6169   23.9729 H   0  0  0  0  0  0
  -21.1467   -6.0526   25.9085 H   0  0  0  0  0  0
  -22.0613   -2.7610   23.2868 H   0  0  0  0  0  0
  -22.4201  -11.9823   22.4747 H   0  0  0  0  0  0
  -21.1110  -13.1057   22.2560 H   0  0  0  0  0  0
  -24.6430  -15.8298   20.5218 H   0  0  0  0  0  0
  -26.2708  -15.6385   20.0969 H   0  0  0  0  0  0
  -26.7105  -32.5553   23.1211 H   0  0  0  0  0  0
  -24.9998  -33.9810   25.0463 H   0  0  0  0  0  0
  -22.7052  -31.3166   21.4107 H   0  0  0  0  0  0
  -23.3794  -35.9567   23.3278 H   0  0  0  0  0  0
  -24.3588  -36.8947   22.2074 H   0  0  0  0  0  0
  -23.7156  -37.6453   23.6689 H   0  0  0  0  0  0
  -26.0743  -31.5928   20.6169 H   0  0  0  0  0  0
  -26.8326  -30.8733   21.9995 H   0  0  0  0  0  0
  -28.1114  -29.0612   21.1889 H   0  0  0  0  0  0
  -26.0350  -26.0077   18.9463 H   0  0  0  0  0  0
  -23.9730  -27.3172   19.0274 H   0  0  0  0  0  0
  -23.7660  -30.6264   19.4189 H   0  0  0  0  0  0
  -22.7502  -29.2768   19.8399 H   0  0  0  0  0  0
  -25.1311  -36.2021   25.0842 H   0  0  0  0  0  0
  -20.9999  -28.3255   24.1401 H   0  0  0  0  0  0
  -20.5627  -26.2289   23.3619 H   0  0  0  0  0  0
  -21.6635  -26.7392   22.1229 H   0  0  0  0  0  0
  -19.6902  -25.6291   21.1217 H   0  0  0  0  0  0
  -19.6720  -27.3215   20.6779 H   0  0  0  0  0  0
  -17.4202  -26.6724   21.3979 H   0  0  0  0  0  0
  -18.0292  -26.0073   22.8973 H   0  0  0  0  0  0
  -19.7928  -30.7244   24.2326 H   0  0  0  0  0  0
  -17.4994  -31.6265   24.5165 H   0  0  0  0  0  0
  -15.5351  -30.2999   23.7598 H   0  0  0  0  0  0
  -15.8665  -28.0843   22.7012 H   0  0  0  0  0  0
  -24.5934  -30.7028   25.7772 H   0  0  0  0  0  0
  -24.8914  -32.2797   26.4976 H   0  0  0  0  0  0
  -25.8074  -30.8777   27.0204 H   0  0  0  0  0  0
  -26.2840  -29.6829   24.1166 H   0  0  0  0  0  0
  -27.4127  -29.7295   25.4538 H   0  0  0  0  0  0
  -27.8673  -30.4415   23.9239 H   0  0  0  0  0  0
  -27.2698  -33.3654   26.2052 H   0  0  0  0  0  0
  -28.3878  -32.6825   25.0313 H   0  0  0  0  0  0
  -28.0709  -31.8447   26.5432 H   0  0  0  0  0  0
  -28.2596  -38.0122   24.7538 H   0  0  0  0  0  0
  -28.1109  -36.2640   24.6254 H   0  0  0  0  0  0
  -27.2282  -37.1417   25.8857 H   0  0  0  0  0  0
  -20.9294  -29.8846   21.6975 H   0  0  0  0  0  0
  -26.0211  -38.2891   24.1411 H   0  0  0  0  0  0
  -30.5055  -19.2831   21.4645 H   0  0  0  0  0  0
  -28.7228  -21.6733   18.3627 H   0  0  0  0  0  0
  -31.6796  -16.9813   20.1778 H   0  0  0  0  0  0
  -28.8915  -15.7431   20.3354 H   0  0  0  0  0  0
  -27.8030  -22.4723   20.4086 H   0  0  0  0  0  0
  -28.4391  -22.8560   21.9798 H   0  0  0  0  0  0
  -27.8992  -25.4180   21.7951 H   0  0  0  0  0  0
  -27.1158  -24.8873   20.3334 H   0  0  0  0  0  0
  -29.9588  -16.2248   17.7801 H   0  0  0  0  0  0
  -28.6633  -20.6959   16.1462 H   0  0  0  0  0  0
  -28.8258  -19.0434   15.8775 H   0  0  0  0  0  0
  -30.4209  -21.7069   21.6154 H   0  0  0  0  0  0
  1 25  1  0  0  0
  1 30  2  0  0  0
  1 78  1  0  0  0
  2  3  1  0  0  0
  2 25  1  0  0  0
  2 88  1  0  0  0
  2 89  1  0  0  0
  3  4  1  0  0  0
  3 90  1  0  0  0
  3 91  1  0  0  0
  4  5  1  0  0  0
  4 92  1  0  0  0
  4 93  1  0  0  0
  5  6  1  0  0  0
  5 26  1  0  0  0
  5 94  1  0  0  0
  6 25  1  0  0  0
  6 95  1  0  0  0
  6 96  1  0  0  0
  7  8  2  0  0  0
  7 26  1  0  0  0
  7 29  1  0  0  0
  8  9  1  0  0  0
  8 22  1  0  0  0
  9 10  1  0  0  0
  9 27  2  0  0  0
 10 11  2  0  0  0
 10 15  1  0  0  0
 11 12  1  0  0  0
 11 97  1  0  0  0
 12 13  2  0  0  0
 12 98  1  0  0  0
 13 14  1  0  0  0
 13 31  1  0  0  0
 14 15  2  0  0  0
 14 99  1  0  0  0
 15100  1  0  0  0
 16 17  2  0  0  0
 16 21  1  0  0  0
 16 31  1  0  0  0
 17 18  1  0  0  0
 17101  1  0  0  0
 18 19  2  0  0  0
 18102  1  0  0  0
 19 20  1  0  0  0
 19 24  1  0  0  0
 20 21  2  0  0  0
 20103  1  0  0  0
 21 23  1  0  0  0
 22 28  1  0  0  0
 22 32  2  0  0  0
 26 27  1  0  0  0
 28104  1  0  0  0
 28105  1  0  0  0
 29106  1  0  0  0
 29107  1  0  0  0
 33 34  1  0  0  0
 33 66  1  0  0  0
 33 70  2  0  0  0
 34 36  1  0  0  0
 34 59  1  0  0  0
 34108  1  0  0  0
 35 44  2  0  0  0
 35 45  1  0  0  0
 35 68  1  0  0  0
 36 56  1  0  0  0
 36109  1  0  0  0
 37 39  1  0  0  0
 37 47  1  0  0  0
 37 66  1  0  0  0
 37110  1  0  0  0
 38 43  2  0  0  0
 38 46  1  0  0  0
 38 47  1  0  0  0
 39 64  1  0  0  0
 39 67  2  0  0  0
 40 52  1  0  0  0
 40 53  2  0  0  0
 40 58  1  0  0  0
 41111  1  0  0  0
 41112  1  0  0  0
 41113  1  0  0  0
 41 48  1  0  0  0
 42 43  1  0  0  0
 42 66  1  0  0  0
 42114  1  0  0  0
 42115  1  0  0  0
 43 44  1  0  0  0
 44116  1  0  0  0
 45 46  2  0  0  0
 45117  1  0  0  0
 46118  1  0  0  0
 47119  1  0  0  0
 47120  1  0  0  0
 48 56  1  0  0  0
 48 65  1  0  0  0
 48121  1  0  0  0
 49 50  1  0  0  0
 49 53  1  0  0  0
 49 64  1  0  0  0
 49122  1  0  0  0
 50 51  1  0  0  0
 50123  1  0  0  0
 50124  1  0  0  0
 51 52  1  0  0  0
 51125  1  0  0  0
 51126  1  0  0  0
 52127  1  0  0  0
 52128  1  0  0  0
 53 54  1  0  0  0
 54 55  2  0  0  0
 54129  1  0  0  0
 55 57  1  0  0  0
 55130  1  0  0  0
 56 69  2  0  0  0
 57 58  2  0  0  0
 57131  1  0  0  0
 58132  1  0  0  0
 59 60  1  0  0  0
 59 61  1  0  0  0
 59 62  1  0  0  0
 60133  1  0  0  0
 60134  1  0  0  0
 60135  1  0  0  0
 61136  1  0  0  0
 61137  1  0  0  0
 61138  1  0  0  0
 62139  1  0  0  0
 62140  1  0  0  0
 62141  1  0  0  0
 63 65  1  0  0  0
 63142  1  0  0  0
 63143  1  0  0  0
 63144  1  0  0  0
 64145  1  0  0  0
 65146  1  0  0  0
 68 81  1  0  0  0
 71 73  2  0  0  0
 71 75  1  0  0  0
 71147  1  0  0  0
 72 75  2  0  0  0
 72 76  1  0  0  0
 72148  1  0  0  0
 73 74  1  0  0  0
 73 77  1  0  0  0
 74 76  2  0  0  0
 74 82  1  0  0  0
 75 84  1  0  0  0
 76 83  1  0  0  0
 77 78  2  0  0  0
 77149  1  0  0  0
 78150  1  0  0  0
 79 80  1  0  0  0
 79 81  1  0  0  0
 79 85  2  0  0  0
 80 84  1  0  0  0
 80151  1  0  0  0
 80152  1  0  0  0
 81153  1  0  0  0
 81154  1  0  0  0
 82 86  1  0  0  0
 82 87  1  0  0  0
 82155  1  0  0  0
 83156  1  0  0  0
 83157  1  0  0  0
 84158  1  0  0  0
M  ISO  4   1 100  68 101  78 100  81 101
M  END
> <chiral flag>
0

> <version>
0

> <s_m_source_file>
/data/baiqing/PycharmProjects/Reinvent-master-3.2/result/LINK_invent/BTK/process_docking_weight1_custom_product_contain_oxygen_bond_distance_aromatic_linkinvent_7_9_3/rearranged_h_0168.sdf

> <i_m_source_file_index>
60

> <r_mmod_Potential_Energy-OPLS-2005>
149.973648071289

> <r_mmod_Stretch_Energy-OPLS-2005>
43.7138061523438

> <r_mmod_Bend_Energy-OPLS-2005>
109.390548706055

> <r_mmod_Torsional_Energy-OPLS-2005>
248.691482543945

> <r_mmod_Improper_Torsional_Energy-OPLS-2005>
19.285327911377

> <r_mmod_Van_der_Waal_Energy-OPLS-2005>
156.57649230957

> <r_mmod_Electrostatic_Energy-OPLS-2005>
-218.744110107422

> <r_mmod_Solvation_Energy-OPLS-2005>
-241.873413085938

> <b_mmod_Minimization_Converged-OPLS-2005>
0

> <r_mmod_RMS_Derivative-OPLS-2005>
5.40560245513916

$$$$
60
                    3D
 Structure written by MMmdl.
155163  0  0  1  0            999 V2000
  -30.1662  -14.2703   20.9153 C   0  0  0  0  0  0
  -30.6849  -12.4142   19.2481 C   0  0  0  0  0  0
  -29.7716  -12.5195   17.9743 C   0  0  0  0  0  0
  -28.2596  -12.3500   18.2133 C   0  0  0  0  0  0
  -28.0004  -13.1420   19.4411 C   0  0  2  0  0  0
  -28.7991  -12.4176   20.5719 C   0  0  0  0  0  0
  -25.1468  -14.2802   19.9450 C   0  0  0  0  0  0
  -24.0302  -13.4873   21.0780 C   0  0  0  0  0  0
  -24.7400  -11.8938   21.6860 C   0  0  0  0  0  0
  -23.9655  -10.5808   21.4849 C   0  0  0  0  0  0
  -24.3952   -9.4321   22.1734 C   0  0  0  0  0  0
  -23.6739   -8.2160   22.1430 C   0  0  0  0  0  0
  -22.4914   -8.0811   21.3835 C   0  0  0  0  0  0
  -22.1302   -9.1599   20.5467 C   0  0  0  0  0  0
  -22.8680  -10.3791   20.5788 C   0  0  0  0  0  0
  -21.6951   -6.1013   22.5066 C   0  0  0  0  0  0
  -21.4041   -6.5809   23.8046 C   0  0  0  0  0  0
  -21.3619   -5.6936   24.9001 C   0  0  0  0  0  0
  -21.6000   -4.3198   24.7078 C   0  0  0  0  0  0
  -21.8764   -3.8344   23.4171 C   0  0  0  0  0  0
  -21.9192   -4.7187   22.3230 C   0  0  0  0  0  0
  -22.6067  -13.7786   21.2280 C   0  0  0  0  0  0
  -22.1693   -4.2315   21.0849 F   0  0  0  0  0  0
  -21.5581   -3.4657   25.7581 F   0  0  0  0  0  0
  -30.0399  -13.0322   20.4151 N   0  0  0  0  0  0
  -26.7229  -13.1061   19.8071 N   0  0  0  0  0  0
  -26.3610  -11.6733   21.0027 N   0  0  0  0  0  0
  -21.9149  -12.9840   22.0377 N   0  0  0  0  0  0
  -25.1997  -15.5781   19.5549 N   0  0  0  0  0  0
  -31.1915  -14.9148   20.5898 O   0  0  0  0  0  0
  -21.7119   -6.9383   21.4049 O   0  0  0  0  0  0
  -22.1197  -14.7134   20.6167 O   0  0  0  0  0  0
  -24.6489  -31.8435   23.1905 C   0  0  0  0  0  0
  -25.9245  -32.4694   23.8295 C   0  0  1  0  0  0
  -27.0612  -27.0204   20.2548 C   0  0  0  0  0  0
  -25.5977  -33.8507   24.2204 N   0  0  0  0  0  0
  -23.4506  -30.4723   21.5356 C   0  0  2  0  0  0
  -24.8809  -28.9046   20.0938 C   0  0  0  0  0  0
  -22.7596  -29.4536   22.4797 C   0  0  0  0  0  0
  -18.0300  -28.1404   22.8463 C   0  0  0  0  0  0
  -24.1482  -36.7249   23.2644 C   0  0  0  0  0  0
  -26.0119  -30.6877   21.4042 C   0  0  0  0  0  0
  -26.0589  -29.2938   20.7473 C   0  0  0  0  0  0
  -27.1694  -28.3658   20.8081 C   0  0  0  0  0  0
  -25.9085  -26.7764   19.4942 C   0  0  0  0  0  0
  -24.8300  -27.6741   19.4303 C   0  0  0  0  0  0
  -23.6765  -29.8277   20.1428 C   0  0  0  0  0  0
  -25.4119  -36.3054   24.0328 C   0  0  1  0  0  0
  -20.5925  -28.3732   23.1205 C   0  0  2  0  0  0
  -20.6794  -26.9424   22.5394 C   0  0  0  0  0  0
  -19.5764  -26.6378   21.5209 C   0  0  0  0  0  0
  -18.1942  -26.7935   22.1616 C   0  0  0  0  0  0
  -19.1565  -28.8883   23.2827 C   0  0  0  0  0  0
  -18.9474  -30.1479   23.8862 C   0  0  0  0  0  0
  -17.6473  -30.6594   24.0551 C   0  0  0  0  0  0
  -25.9076  -34.9423   23.5074 C   0  0  0  0  0  0
  -16.5359  -29.9086   23.6343 C   0  0  0  0  0  0
  -16.7287  -28.6506   23.0358 C   0  0  0  0  0  0
  -26.4542  -31.6589   25.0763 C   0  0  0  0  0  0
  -25.3695  -31.3785   26.1434 C   0  0  0  0  0  0
  -27.0423  -30.2981   24.6408 C   0  0  0  0  0  0
  -27.6071  -32.4366   25.7537 C   0  0  0  0  0  0
  -27.5582  -37.1789   24.8471 C   0  0  0  0  0  0
  -21.4281  -29.3049   22.3561 N   0  0  0  0  0  0
  -26.4289  -37.3770   23.9416 N   0  0  0  0  0  0
  -24.7246  -31.0258   22.0958 N   0  0  0  0  0  0
  -23.4228  -28.8044   23.2933 O   0  0  0  0  0  0
  -27.9017  -25.8627   20.4377 O   0  0  0  0  0  0
  -26.5661  -34.8920   22.4657 O   0  0  0  0  0  0
  -23.5599  -32.1342   23.7083 O   0  0  0  0  0  0
  -27.4797  -16.2637   21.5058 C   0  0  0  0  0  0
  -26.2360  -13.8346   21.8779 C   0  0  0  0  0  0
  -27.5276  -14.8022   21.6676 C   0  0  0  0  0  0
  -26.4849  -17.1401   22.0012 C   0  0  0  0  0  0
  -25.5809  -16.2939   22.7553 C   0  0  0  0  0  0
  -25.5365  -14.8069   22.7763 C   0  0  0  0  0  0
  -26.9061  -21.5109   21.4906 C   0  0  0  0  0  0
  -27.5843  -22.9294   20.7013 C   0  0  0  0  0  0
  -27.1784  -19.8587   21.2105 C   0  0  0  0  0  0
  -27.2311  -24.5444   21.0518 C   0  0  0  0  0  0
  -24.6737  -16.9740   23.5719 N   0  0  0  0  0  0
  -29.0763  -14.6498   21.7679 N   0  0  0  0  0  0
  -26.4445  -18.6570   21.9676 N   0  0  0  0  0  0
  -26.1012  -21.7428   22.4016 O   0  0  0  0  0  0
  -28.3885  -22.7189   19.7824 O   0  0  0  0  0  0
  -24.6045  -14.2816   23.6152 F   0  0  0  0  0  0
  -31.6502  -12.8821   19.0476 H   0  0  0  0  0  0
  -30.9123  -11.3682   19.4624 H   0  0  0  0  0  0
  -30.1094  -11.8171   17.2108 H   0  0  0  0  0  0
  -29.9270  -13.5071   17.5370 H   0  0  0  0  0  0
  -27.9899  -11.2997   18.3340 H   0  0  0  0  0  0
  -27.6908  -12.7366   17.3662 H   0  0  0  0  0  0
  -28.2222  -14.1901   19.2333 H   0  0  0  0  0  0
  -28.8670  -11.3422   20.3894 H   0  0  0  0  0  0
  -28.4877  -12.4203   21.6175 H   0  0  0  0  0  0
  -25.2682   -9.5001   22.8074 H   0  0  0  0  0  0
  -24.0283   -7.3942   22.7466 H   0  0  0  0  0  0
  -21.2679   -9.0733   19.9014 H   0  0  0  0  0  0
  -22.5425  -11.1943   19.9491 H   0  0  0  0  0  0
  -21.2109   -7.6322   23.9612 H   0  0  0  0  0  0
  -21.1422   -6.0660   25.8898 H   0  0  0  0  0  0
  -22.0527   -2.7816   23.2645 H   0  0  0  0  0  0
  -20.9281  -13.1494   22.1750 H   0  0  0  0  0  0
  -22.3559  -12.2326   22.5460 H   0  0  0  0  0  0
  -24.4189  -16.2140   19.6606 H   0  0  0  0  0  0
  -25.9491  -15.9653   18.9945 H   0  0  0  0  0  0
  -26.7298  -32.5262   23.0999 H   0  0  0  0  0  0
  -25.0115  -33.9623   25.0346 H   0  0  0  0  0  0
  -22.7556  -31.3015   21.3929 H   0  0  0  0  0  0
  -23.3783  -35.9544   23.3303 H   0  0  0  0  0  0
  -24.3555  -36.8886   22.2058 H   0  0  0  0  0  0
  -23.7188  -37.6428   23.6671 H   0  0  0  0  0  0
  -26.1893  -31.4366   20.6306 H   0  0  0  0  0  0
  -26.8772  -30.7261   22.0542 H   0  0  0  0  0  0
  -28.0501  -28.6284   21.3778 H   0  0  0  0  0  0
  -25.7882  -25.8187   19.0065 H   0  0  0  0  0  0
  -23.9384  -27.3945   18.8859 H   0  0  0  0  0  0
  -23.8331  -30.6150   19.4040 H   0  0  0  0  0  0
  -22.7849  -29.2919   19.8142 H   0  0  0  0  0  0
  -25.1299  -36.1906   25.0824 H   0  0  0  0  0  0
  -21.0014  -28.3340   24.1329 H   0  0  0  0  0  0
  -20.5699  -26.2339   23.3620 H   0  0  0  0  0  0
  -21.6654  -26.7427   22.1178 H   0  0  0  0  0  0
  -19.6929  -25.6282   21.1264 H   0  0  0  0  0  0
  -19.6716  -27.3166   20.6723 H   0  0  0  0  0  0
  -17.4210  -26.6663   21.4022 H   0  0  0  0  0  0
  -18.0339  -26.0090   22.9028 H   0  0  0  0  0  0
  -19.7951  -30.7301   24.2223 H   0  0  0  0  0  0
  -17.5021  -31.6271   24.5155 H   0  0  0  0  0  0
  -15.5357  -30.2970   23.7702 H   0  0  0  0  0  0
  -15.8681  -28.0819   22.7103 H   0  0  0  0  0  0
  -24.5874  -30.7144   25.7729 H   0  0  0  0  0  0
  -24.8878  -32.2964   26.4818 H   0  0  0  0  0  0
  -25.7944  -30.8969   27.0249 H   0  0  0  0  0  0
  -26.3066  -29.6677   24.1402 H   0  0  0  0  0  0
  -27.3982  -29.7331   25.5035 H   0  0  0  0  0  0
  -27.8999  -30.4208   23.9785 H   0  0  0  0  0  0
  -27.2680  -33.3686   26.2074 H   0  0  0  0  0  0
  -28.3893  -32.6904   25.0365 H   0  0  0  0  0  0
  -28.0738  -31.8534   26.5490 H   0  0  0  0  0  0
  -28.2601  -38.0089   24.7546 H   0  0  0  0  0  0
  -28.1082  -36.2627   24.6269 H   0  0  0  0  0  0
  -27.2303  -37.1398   25.8876 H   0  0  0  0  0  0
  -20.9496  -29.8789   21.6762 H   0  0  0  0  0  0
  -26.0175  -38.2849   24.1419 H   0  0  0  0  0  0
  -28.3533  -16.7806   21.1303 H   0  0  0  0  0  0
  -25.1037  -12.4996   20.0389 H   0  0  0  0  0  0
  -28.2541  -19.7018   21.3195 H   0  0  0  0  0  0
  -26.9812  -19.7173   20.1465 H   0  0  0  0  0  0
  -27.3844  -24.6319   22.1269 H   0  0  0  0  0  0
  -26.1528  -24.6304   20.9317 H   0  0  0  0  0  0
  -23.7465  -16.9475   23.1648 H   0  0  0  0  0  0
  -24.5624  -16.4659   24.4428 H   0  0  0  0  0  0
  -29.4419  -15.4033   22.3309 H   0  0  0  0  0  0
  -25.6811  -18.9933   22.5522 H   0  0  0  0  0  0
  1 25  1  0  0  0
  1 30  2  0  0  0
  1 82  1  0  0  0
  2  3  1  0  0  0
  2 25  1  0  0  0
  2 87  1  0  0  0
  2 88  1  0  0  0
  3  4  1  0  0  0
  3 89  1  0  0  0
  3 90  1  0  0  0
  4  5  1  0  0  0
  4 91  1  0  0  0
  4 92  1  0  0  0
  5  6  1  0  0  0
  5 26  1  0  0  0
  5 93  1  0  0  0
  6 25  1  0  0  0
  6 94  1  0  0  0
  6 95  1  0  0  0
  7  8  2  0  0  0
  7 26  1  0  0  0
  7 29  1  0  0  0
  8  9  1  0  0  0
  8 22  1  0  0  0
  9 10  1  0  0  0
  9 27  2  0  0  0
 10 11  2  0  0  0
 10 15  1  0  0  0
 11 12  1  0  0  0
 11 96  1  0  0  0
 12 13  2  0  0  0
 12 97  1  0  0  0
 13 14  1  0  0  0
 13 31  1  0  0  0
 14 15  2  0  0  0
 14 98  1  0  0  0
 15 99  1  0  0  0
 16 17  2  0  0  0
 16 21  1  0  0  0
 16 31  1  0  0  0
 17 18  1  0  0  0
 17100  1  0  0  0
 18 19  2  0  0  0
 18101  1  0  0  0
 19 20  1  0  0  0
 19 24  1  0  0  0
 20 21  2  0  0  0
 20102  1  0  0  0
 21 23  1  0  0  0
 22 28  1  0  0  0
 22 32  2  0  0  0
 26 27  1  0  0  0
 28103  1  0  0  0
 28104  1  0  0  0
 29105  1  0  0  0
 29106  1  0  0  0
 33 34  1  0  0  0
 33 66  1  0  0  0
 33 70  2  0  0  0
 34 36  1  0  0  0
 34 59  1  0  0  0
 34107  1  0  0  0
 35 44  2  0  0  0
 35 45  1  0  0  0
 35 68  1  0  0  0
 36 56  1  0  0  0
 36108  1  0  0  0
 37 39  1  0  0  0
 37 47  1  0  0  0
 37 66  1  0  0  0
 37109  1  0  0  0
 38 43  2  0  0  0
 38 46  1  0  0  0
 38 47  1  0  0  0
 39 64  1  0  0  0
 39 67  2  0  0  0
 40 52  1  0  0  0
 40 53  2  0  0  0
 40 58  1  0  0  0
 41110  1  0  0  0
 41111  1  0  0  0
 41112  1  0  0  0
 41 48  1  0  0  0
 42 43  1  0  0  0
 42 66  1  0  0  0
 42113  1  0  0  0
 42114  1  0  0  0
 43 44  1  0  0  0
 44115  1  0  0  0
 45 46  2  0  0  0
 45116  1  0  0  0
 46117  1  0  0  0
 47118  1  0  0  0
 47119  1  0  0  0
 48 56  1  0  0  0
 48 65  1  0  0  0
 48120  1  0  0  0
 49 50  1  0  0  0
 49 53  1  0  0  0
 49 64  1  0  0  0
 49121  1  0  0  0
 50 51  1  0  0  0
 50122  1  0  0  0
 50123  1  0  0  0
 51 52  1  0  0  0
 51124  1  0  0  0
 51125  1  0  0  0
 52126  1  0  0  0
 52127  1  0  0  0
 53 54  1  0  0  0
 54 55  2  0  0  0
 54128  1  0  0  0
 55 57  1  0  0  0
 55129  1  0  0  0
 56 69  2  0  0  0
 57 58  2  0  0  0
 57130  1  0  0  0
 58131  1  0  0  0
 59 60  1  0  0  0
 59 61  1  0  0  0
 59 62  1  0  0  0
 60132  1  0  0  0
 60133  1  0  0  0
 60134  1  0  0  0
 61135  1  0  0  0
 61136  1  0  0  0
 61137  1  0  0  0
 62138  1  0  0  0
 62139  1  0  0  0
 62140  1  0  0  0
 63 65  1  0  0  0
 63141  1  0  0  0
 63142  1  0  0  0
 63143  1  0  0  0
 64144  1  0  0  0
 65145  1  0  0  0
 68 80  1  0  0  0
 71 73  2  0  0  0
 71 74  1  0  0  0
 71146  1  0  0  0
 72 73  1  0  0  0
 72 76  2  0  0  0
 72147  1  0  0  0
 73 82  1  0  0  0
 74 75  2  0  0  0
 74 83  1  0  0  0
 75 76  1  0  0  0
 75 81  1  0  0  0
 76 86  1  0  0  0
 77 78  1  0  0  0
 77 79  1  0  0  0
 77 84  2  0  0  0
 78 80  1  0  0  0
 78 85  2  0  0  0
 79 83  1  0  0  0
 79148  1  0  0  0
 79149  1  0  0  0
 80150  1  0  0  0
 80151  1  0  0  0
 81152  1  0  0  0
 81153  1  0  0  0
 82154  1  0  0  0
 83155  1  0  0  0
M  ISO  4   1 100  68 101  80 101  82 100
M  END
> <chiral flag>
0

> <version>
0

> <s_m_source_file>
/data/baiqing/PycharmProjects/Reinvent-master-3.2/result/LINK_invent/BTK/process_docking_weight1_custom_product_contain_oxygen_bond_distance_aromatic_linkinvent_7_9_3/rearranged_h_0168.sdf

> <i_m_source_file_index>
61

> <r_mmod_Potential_Energy-OPLS-2005>
10090.501953125

> <r_mmod_Stretch_Energy-OPLS-2005>
6051.1142578125

> <r_mmod_Bend_Energy-OPLS-2005>
570.027526855469

> <r_mmod_Torsional_Energy-OPLS-2005>
559.950439453125

> <r_mmod_Improper_Torsional_Energy-OPLS-2005>
52.3679847717285

> <r_mmod_Van_der_Waal_Energy-OPLS-2005>
2574.58935546875

> <r_mmod_Electrostatic_Energy-OPLS-2005>
-320.615020751953

> <r_mmod_Solvation_Energy-OPLS-2005>
-246.369491577148

> <b_mmod_Minimization_Converged-OPLS-2005>
0

> <r_mmod_RMS_Derivative-OPLS-2005>
5.49858236312866

$$$$
61
                    3D
 Structure written by MMmdl.
166174  0  0  1  0            999 V2000
  -30.7070  -14.6278   20.4046 C   0  0  0  0  0  0
  -30.4034  -12.3762   19.4566 C   0  0  0  0  0  0
  -29.4905  -12.4681   18.2181 C   0  0  0  0  0  0
  -28.0187  -12.3142   18.6443 C   0  0  0  0  0  0
  -27.6374  -13.2309   19.8390 C   0  0  2  0  0  0
  -28.6880  -13.1915   20.9696 C   0  0  0  0  0  0
  -25.2518  -13.8214   20.5698 C   0  0  0  0  0  0
  -24.1801  -13.0443   20.9216 C   0  0  0  0  0  0
  -24.6391  -11.6927   20.8758 C   0  0  0  0  0  0
  -23.9068  -10.4291   21.0419 C   0  0  0  0  0  0
  -24.3630   -9.4207   21.9189 C   0  0  0  0  0  0
  -23.6303   -8.2241   22.0758 C   0  0  0  0  0  0
  -22.4292   -8.0278   21.3554 C   0  0  0  0  0  0
  -21.9934   -9.0241   20.4645 C   0  0  0  0  0  0
  -22.7255  -10.2123   20.3052 C   0  0  0  0  0  0
  -21.6858   -6.0733   22.5274 C   0  0  0  0  0  0
  -21.4016   -6.5642   23.8207 C   0  0  0  0  0  0
  -21.3665   -5.6804   24.9177 C   0  0  0  0  0  0
  -21.6044   -4.3060   24.7231 C   0  0  0  0  0  0
  -21.8826   -3.8147   23.4355 C   0  0  0  0  0  0
  -21.9190   -4.6960   22.3404 C   0  0  0  0  0  0
  -22.7831  -13.5214   21.1858 C   0  0  0  0  0  0
  -22.1662   -4.2140   21.0985 F   0  0  0  0  0  0
  -21.5627   -3.4548   25.7744 F   0  0  0  0  0  0
  -29.9931  -13.4640   20.3643 N   0  0  0  0  0  0
  -26.2931  -12.9418   20.3283 N   0  0  0  0  0  0
  -25.9326  -11.6558   20.5792 N   0  0  0  0  0  0
  -22.0484  -12.8181   22.0416 N   0  0  0  0  0  0
  -25.4170  -15.1928   20.4094 N   0  0  0  0  0  0
  -31.9338  -14.5866   20.3152 O   0  0  0  0  0  0
  -21.6658   -6.8878   21.4240 O   0  0  0  0  0  0
  -22.3510  -14.5515   20.6709 O   0  0  0  0  0  0
  -24.6198  -31.8662   23.2078 C   0  0  0  0  0  0
  -25.9072  -32.4820   23.8392 C   0  0  1  0  0  0
  -27.2367  -27.3783   20.1076 C   0  0  0  0  0  0
  -25.5886  -33.8619   24.2322 N   0  0  0  0  0  0
  -23.4135  -30.4840   21.5499 C   0  0  2  0  0  0
  -24.8627  -28.9414   20.1199 C   0  0  0  0  0  0
  -22.7458  -29.4619   22.5000 C   0  0  0  0  0  0
  -18.0250  -28.1379   22.8497 C   0  0  0  0  0  0
  -24.1483  -36.7311   23.2648 C   0  0  0  0  0  0
  -25.9459  -30.8135   21.3703 C   0  0  0  0  0  0
  -26.0271  -29.4406   20.7186 C   0  0  0  0  0  0
  -27.2211  -28.6689   20.7042 C   0  0  0  0  0  0
  -26.0508  -26.8990   19.5169 C   0  0  0  0  0  0
  -24.8728  -27.6730   19.5123 C   0  0  0  0  0  0
  -23.6266  -29.8176   20.1646 C   0  0  0  0  0  0
  -25.4102  -36.3111   24.0343 C   0  0  1  0  0  0
  -20.5845  -28.3680   23.1310 C   0  0  2  0  0  0
  -20.6765  -26.9411   22.5425 C   0  0  0  0  0  0
  -19.5744  -26.6402   21.5223 C   0  0  0  0  0  0
  -18.1903  -26.7925   22.1609 C   0  0  0  0  0  0
  -19.1502  -28.8851   23.2895 C   0  0  0  0  0  0
  -18.9435  -30.1457   23.8896 C   0  0  0  0  0  0
  -17.6439  -30.6596   24.0562 C   0  0  0  0  0  0
  -25.9033  -34.9482   23.5148 C   0  0  0  0  0  0
  -16.5325  -29.9085   23.6330 C   0  0  0  0  0  0
  -16.7238  -28.6505   23.0340 C   0  0  0  0  0  0
  -26.4468  -31.6596   25.0727 C   0  0  0  0  0  0
  -25.3676  -31.3692   26.1431 C   0  0  0  0  0  0
  -27.0345  -30.3031   24.6144 C   0  0  0  0  0  0
  -27.6067  -32.4315   25.7469 C   0  0  0  0  0  0
  -27.5588  -37.1782   24.8450 C   0  0  0  0  0  0
  -21.4173  -29.3028   22.3726 N   0  0  0  0  0  0
  -26.4292  -37.3790   23.9417 N   0  0  0  0  0  0
  -24.6793  -31.0689   22.1014 N   0  0  0  0  0  0
  -23.4206  -28.8178   23.3086 O   0  0  0  0  0  0
  -28.3823  -26.6001   20.0331 O   0  0  0  0  0  0
  -26.5638  -34.8956   22.4731 O   0  0  0  0  0  0
  -23.5385  -32.1463   23.7433 O   0  0  0  0  0  0
  -32.3193  -17.7120   17.8540 C   0  0  0  0  0  0
  -31.5808  -16.7145   18.5082 C   0  0  0  0  0  0
  -31.1023  -19.3767   19.0884 C   0  0  0  0  0  0
  -32.1114  -19.0626   18.1619 C   0  0  0  0  0  0
  -30.6297  -16.9924   19.5309 C   0  0  0  0  0  0
  -30.3146  -18.3945   19.7486 C   0  0  0  0  0  0
  -32.8915  -20.1480   17.5195 C   0  0  0  0  0  0
  -29.5368  -25.5765   21.7885 C   0  0  0  0  0  0
  -29.1135  -20.3116   20.9947 C   0  0  0  0  0  0
  -28.6376  -24.0284   19.9128 C   0  0  0  0  0  0
  -28.5699  -21.4469   20.0042 C   0  0  1  0  0  0
  -28.4089  -25.3449   20.7694 C   0  0  2  0  0  0
  -27.1265  -21.1424   19.5015 C   0  0  0  0  0  0
  -33.9998  -20.0096   16.9190 N   0  0  0  0  0  0
  -30.0552  -15.8312   20.2321 N   0  0  0  0  0  0
  -29.2581  -18.8799   20.5610 N   0  0  0  0  0  0
  -28.5944  -22.7659   20.7110 N   0  0  0  0  0  0
  -27.1074  -20.0124   18.7987 F   0  0  0  0  0  0
  -26.2925  -21.0326   20.5382 F   0  0  0  0  0  0
  -26.6670  -22.1069   18.7035 F   0  0  0  0  0  0
  -31.4517  -12.4447   19.1606 H   0  0  0  0  0  0
  -30.2928  -11.4081   19.9475 H   0  0  0  0  0  0
  -29.7511  -11.6915   17.4974 H   0  0  0  0  0  0
  -29.6359  -13.4235   17.7093 H   0  0  0  0  0  0
  -27.8732  -11.2692   18.9228 H   0  0  0  0  0  0
  -27.3563  -12.4980   17.7985 H   0  0  0  0  0  0
  -27.6260  -14.2454   19.4414 H   0  0  0  0  0  0
  -28.6974  -12.2233   21.4718 H   0  0  0  0  0  0
  -28.4577  -13.9368   21.7324 H   0  0  0  0  0  0
  -25.2771   -9.5690   22.4782 H   0  0  0  0  0  0
  -24.0003   -7.4645   22.7500 H   0  0  0  0  0  0
  -21.0859   -8.8762   19.8953 H   0  0  0  0  0  0
  -22.3708  -10.9667   19.6166 H   0  0  0  0  0  0
  -21.2020   -7.6152   23.9704 H   0  0  0  0  0  0
  -21.1480   -6.0541   25.9081 H   0  0  0  0  0  0
  -22.0599   -2.7603   23.2862 H   0  0  0  0  0  0
  -22.4121  -11.9829   22.4764 H   0  0  0  0  0  0
  -21.1091  -13.1176   22.2615 H   0  0  0  0  0  0
  -24.6444  -15.8423   20.5132 H   0  0  0  0  0  0
  -26.2647  -15.6376   20.0804 H   0  0  0  0  0  0
  -26.7168  -32.5547   23.1194 H   0  0  0  0  0  0
  -24.9943  -33.9760   25.0408 H   0  0  0  0  0  0
  -22.7050  -31.3035   21.4111 H   0  0  0  0  0  0
  -23.3752  -35.9627   23.3300 H   0  0  0  0  0  0
  -24.3604  -36.8952   22.2066 H   0  0  0  0  0  0
  -23.7220  -37.6508   23.6687 H   0  0  0  0  0  0
  -26.0532  -31.5788   20.6013 H   0  0  0  0  0  0
  -26.8278  -30.8726   21.9961 H   0  0  0  0  0  0
  -28.1261  -29.0515   21.1588 H   0  0  0  0  0  0
  -26.0445  -25.9242   19.0509 H   0  0  0  0  0  0
  -23.9807  -27.2835   19.0404 H   0  0  0  0  0  0
  -23.7337  -30.5965   19.4069 H   0  0  0  0  0  0
  -22.7482  -29.2436   19.8651 H   0  0  0  0  0  0
  -25.1261  -36.1996   25.0828 H   0  0  0  0  0  0
  -20.9891  -28.3234   24.1442 H   0  0  0  0  0  0
  -20.5723  -26.2239   23.3607 H   0  0  0  0  0  0
  -21.6637  -26.7537   22.1165 H   0  0  0  0  0  0
  -19.6959  -25.6325   21.1229 H   0  0  0  0  0  0
  -19.6691  -27.3253   20.6784 H   0  0  0  0  0  0
  -17.4185  -26.6661   21.3980 H   0  0  0  0  0  0
  -18.0280  -26.0070   22.8995 H   0  0  0  0  0  0
  -19.7936  -30.7246   24.2248 H   0  0  0  0  0  0
  -17.5014  -31.6281   24.5175 H   0  0  0  0  0  0
  -15.5320  -30.2977   23.7754 H   0  0  0  0  0  0
  -15.8610  -28.0871   22.7031 H   0  0  0  0  0  0
  -24.5857  -30.7056   25.7712 H   0  0  0  0  0  0
  -24.8829  -32.2820   26.4884 H   0  0  0  0  0  0
  -25.7952  -30.8832   27.0190 H   0  0  0  0  0  0
  -26.2927  -29.6723   24.1220 H   0  0  0  0  0  0
  -27.4114  -29.7332   25.4638 H   0  0  0  0  0  0
  -27.8752  -30.4335   23.9318 H   0  0  0  0  0  0
  -27.2719  -33.3633   26.2019 H   0  0  0  0  0  0
  -28.3840  -32.6818   25.0239 H   0  0  0  0  0  0
  -28.0730  -31.8429   26.5366 H   0  0  0  0  0  0
  -28.2543  -38.0149   24.7571 H   0  0  0  0  0  0
  -28.1130  -36.2664   24.6156 H   0  0  0  0  0  0
  -27.2293  -37.1271   25.8849 H   0  0  0  0  0  0
  -20.9405  -29.8752   21.6909 H   0  0  0  0  0  0
  -26.0187  -38.2860   24.1478 H   0  0  0  0  0  0
  -33.0526  -17.4237   17.1145 H   0  0  0  0  0  0
  -31.7973  -15.7020   18.2047 H   0  0  0  0  0  0
  -30.9560  -20.4243   19.2821 H   0  0  0  0  0  0
  -32.4509  -21.1469   17.5844 H   0  0  0  0  0  0
  -29.7283  -24.6968   22.4022 H   0  0  0  0  0  0
  -29.2843  -26.4009   22.4567 H   0  0  0  0  0  0
  -30.4696  -25.8427   21.2920 H   0  0  0  0  0  0
  -28.4391  -20.2862   21.8502 H   0  0  0  0  0  0
  -30.0720  -20.6310   21.4068 H   0  0  0  0  0  0
  -29.5906  -24.0832   19.3836 H   0  0  0  0  0  0
  -27.8736  -24.0047   19.1374 H   0  0  0  0  0  0
  -29.2158  -21.5279   19.1304 H   0  0  0  0  0  0
  -27.4722  -25.2300   21.3211 H   0  0  0  0  0  0
  -34.3348  -19.0514   16.9331 H   0  0  0  0  0  0
  -29.0705  -15.8667   20.4459 H   0  0  0  0  0  0
  -28.7504  -18.1929   21.1067 H   0  0  0  0  0  0
  -27.7617  -22.7845   21.2874 H   0  0  0  0  0  0
  1 25  1  0  0  0
  1 30  2  0  0  0
  1 85  1  0  0  0
  2  3  1  0  0  0
  2 25  1  0  0  0
  2 91  1  0  0  0
  2 92  1  0  0  0
  3  4  1  0  0  0
  3 93  1  0  0  0
  3 94  1  0  0  0
  4  5  1  0  0  0
  4 95  1  0  0  0
  4 96  1  0  0  0
  5  6  1  0  0  0
  5 26  1  0  0  0
  5 97  1  0  0  0
  6 25  1  0  0  0
  6 98  1  0  0  0
  6 99  1  0  0  0
  7  8  2  0  0  0
  7 26  1  0  0  0
  7 29  1  0  0  0
  8  9  1  0  0  0
  8 22  1  0  0  0
  9 10  1  0  0  0
  9 27  2  0  0  0
 10 11  2  0  0  0
 10 15  1  0  0  0
 11 12  1  0  0  0
 11100  1  0  0  0
 12 13  2  0  0  0
 12101  1  0  0  0
 13 14  1  0  0  0
 13 31  1  0  0  0
 14 15  2  0  0  0
 14102  1  0  0  0
 15103  1  0  0  0
 16 17  2  0  0  0
 16 21  1  0  0  0
 16 31  1  0  0  0
 17 18  1  0  0  0
 17104  1  0  0  0
 18 19  2  0  0  0
 18105  1  0  0  0
 19 20  1  0  0  0
 19 24  1  0  0  0
 20 21  2  0  0  0
 20106  1  0  0  0
 21 23  1  0  0  0
 22 28  1  0  0  0
 22 32  2  0  0  0
 26 27  1  0  0  0
 28107  1  0  0  0
 28108  1  0  0  0
 29109  1  0  0  0
 29110  1  0  0  0
 33 34  1  0  0  0
 33 66  1  0  0  0
 33 70  2  0  0  0
 34 36  1  0  0  0
 34 59  1  0  0  0
 34111  1  0  0  0
 35 44  2  0  0  0
 35 45  1  0  0  0
 35 68  1  0  0  0
 36 56  1  0  0  0
 36112  1  0  0  0
 37 39  1  0  0  0
 37 47  1  0  0  0
 37 66  1  0  0  0
 37113  1  0  0  0
 38 43  2  0  0  0
 38 46  1  0  0  0
 38 47  1  0  0  0
 39 64  1  0  0  0
 39 67  2  0  0  0
 40 52  1  0  0  0
 40 53  2  0  0  0
 40 58  1  0  0  0
 41114  1  0  0  0
 41115  1  0  0  0
 41116  1  0  0  0
 41 48  1  0  0  0
 42 43  1  0  0  0
 42 66  1  0  0  0
 42117  1  0  0  0
 42118  1  0  0  0
 43 44  1  0  0  0
 44119  1  0  0  0
 45 46  2  0  0  0
 45120  1  0  0  0
 46121  1  0  0  0
 47122  1  0  0  0
 47123  1  0  0  0
 48 56  1  0  0  0
 48 65  1  0  0  0
 48124  1  0  0  0
 49 50  1  0  0  0
 49 53  1  0  0  0
 49 64  1  0  0  0
 49125  1  0  0  0
 50 51  1  0  0  0
 50126  1  0  0  0
 50127  1  0  0  0
 51 52  1  0  0  0
 51128  1  0  0  0
 51129  1  0  0  0
 52130  1  0  0  0
 52131  1  0  0  0
 53 54  1  0  0  0
 54 55  2  0  0  0
 54132  1  0  0  0
 55 57  1  0  0  0
 55133  1  0  0  0
 56 69  2  0  0  0
 57 58  2  0  0  0
 57134  1  0  0  0
 58135  1  0  0  0
 59 60  1  0  0  0
 59 61  1  0  0  0
 59 62  1  0  0  0
 60136  1  0  0  0
 60137  1  0  0  0
 60138  1  0  0  0
 61139  1  0  0  0
 61140  1  0  0  0
 61141  1  0  0  0
 62142  1  0  0  0
 62143  1  0  0  0
 62144  1  0  0  0
 63 65  1  0  0  0
 63145  1  0  0  0
 63146  1  0  0  0
 63147  1  0  0  0
 64148  1  0  0  0
 65149  1  0  0  0
 68 82  1  0  0  0
 71 72  2  0  0  0
 71 74  1  0  0  0
 71150  1  0  0  0
 72 75  1  0  0  0
 72151  1  0  0  0
 73 74  2  0  0  0
 73 76  1  0  0  0
 73152  1  0  0  0
 74 77  1  0  0  0
 75 76  2  0  0  0
 75 85  1  0  0  0
 76 86  1  0  0  0
 77 84  2  0  0  0
 77153  1  0  0  0
 78154  1  0  0  0
 78155  1  0  0  0
 78156  1  0  0  0
 78 82  1  0  0  0
 79 86  1  0  0  0
 79157  1  0  0  0
 79158  1  0  0  0
 79 81  1  0  0  0
 80 82  1  0  0  0
 80 87  1  0  0  0
 80159  1  0  0  0
 80160  1  0  0  0
 81 83  1  0  0  0
 81 87  1  0  0  0
 81161  1  0  0  0
 82162  1  0  0  0
 83 88  1  0  0  0
 83 89  1  0  0  0
 83 90  1  0  0  0
 84163  1  0  0  0
 85164  1  0  0  0
 86165  1  0  0  0
 87166  1  0  0  0
M  ISO  4   1 100  68 101  82 101  85 100
M  END
> <chiral flag>
0

> <version>
0

> <s_m_source_file>
/data/baiqing/PycharmProjects/Reinvent-master-3.2/result/LINK_invent/BTK/process_docking_weight1_custom_product_contain_oxygen_bond_distance_aromatic_linkinvent_7_9_3/rearranged_h_0168.sdf

> <i_m_source_file_index>
62

> <r_mmod_Potential_Energy-OPLS-2005>
151.691390991211

> <r_mmod_Stretch_Energy-OPLS-2005>
78.7053680419922

> <r_mmod_Bend_Energy-OPLS-2005>
157.101791381836

> <r_mmod_Torsional_Energy-OPLS-2005>
290.054138183594

> <r_mmod_Improper_Torsional_Energy-OPLS-2005>
8.88947868347168

> <r_mmod_Van_der_Waal_Energy-OPLS-2005>
159.59375

> <r_mmod_Electrostatic_Energy-OPLS-2005>
-368.932830810547

> <r_mmod_Solvation_Energy-OPLS-2005>
-227.184219360352

> <b_mmod_Minimization_Converged-OPLS-2005>
0

> <r_mmod_RMS_Derivative-OPLS-2005>
4.20783472061157

$$$$
62
                    3D
 Structure written by MMmdl.
161169  0  0  1  0            999 V2000
  -30.6405  -14.6083   20.5114 C   0  0  0  0  0  0
  -30.4349  -12.3688   19.4636 C   0  0  0  0  0  0
  -29.5078  -12.4421   18.2311 C   0  0  0  0  0  0
  -28.0248  -12.3181   18.6352 C   0  0  0  0  0  0
  -27.6439  -13.2084   19.8489 C   0  0  2  0  0  0
  -28.6824  -13.0761   20.9842 C   0  0  0  0  0  0
  -25.2481  -13.8153   20.5649 C   0  0  0  0  0  0
  -24.1758  -13.0434   20.9207 C   0  0  0  0  0  0
  -24.6332  -11.6903   20.8764 C   0  0  0  0  0  0
  -23.9019  -10.4297   21.0442 C   0  0  0  0  0  0
  -24.3592   -9.4212   21.9213 C   0  0  0  0  0  0
  -23.6267   -8.2238   22.0778 C   0  0  0  0  0  0
  -22.4240   -8.0276   21.3572 C   0  0  0  0  0  0
  -21.9866   -9.0248   20.4672 C   0  0  0  0  0  0
  -22.7205  -10.2126   20.3093 C   0  0  0  0  0  0
  -21.6842   -6.0721   22.5284 C   0  0  0  0  0  0
  -21.3998   -6.5629   23.8221 C   0  0  0  0  0  0
  -21.3667   -5.6785   24.9189 C   0  0  0  0  0  0
  -21.6037   -4.3045   24.7232 C   0  0  0  0  0  0
  -21.8825   -3.8140   23.4355 C   0  0  0  0  0  0
  -21.9170   -4.6952   22.3413 C   0  0  0  0  0  0
  -22.7797  -13.5255   21.1847 C   0  0  0  0  0  0
  -22.1647   -4.2146   21.0994 F   0  0  0  0  0  0
  -21.5632   -3.4541   25.7756 F   0  0  0  0  0  0
  -30.0054  -13.3988   20.4297 N   0  0  0  0  0  0
  -26.2890  -12.9335   20.3200 N   0  0  0  0  0  0
  -25.9253  -11.6501   20.5736 N   0  0  0  0  0  0
  -22.0393  -12.8304   22.0405 N   0  0  0  0  0  0
  -25.4176  -15.1883   20.4120 N   0  0  0  0  0  0
  -31.8276  -14.7225   20.1829 O   0  0  0  0  0  0
  -21.6615   -6.8860   21.4251 O   0  0  0  0  0  0
  -22.3530  -14.5553   20.6665 O   0  0  0  0  0  0
  -24.6249  -31.8617   23.2044 C   0  0  0  0  0  0
  -25.9091  -32.4809   23.8373 C   0  0  1  0  0  0
  -27.2353  -27.3692   20.1251 C   0  0  0  0  0  0
  -25.5885  -33.8605   24.2292 N   0  0  0  0  0  0
  -23.4177  -30.4872   21.5438 C   0  0  2  0  0  0
  -24.8636  -28.9403   20.1145 C   0  0  0  0  0  0
  -22.7470  -29.4663   22.4932 C   0  0  0  0  0  0
  -18.0280  -28.1409   22.8486 C   0  0  0  0  0  0
  -24.1477  -36.7319   23.2634 C   0  0  0  0  0  0
  -25.9525  -30.8115   21.3664 C   0  0  0  0  0  0
  -26.0274  -29.4421   20.7091 C   0  0  0  0  0  0
  -27.2179  -28.6695   20.6968 C   0  0  0  0  0  0
  -26.0506  -26.8941   19.5196 C   0  0  0  0  0  0
  -24.8742  -27.6700   19.5102 C   0  0  0  0  0  0
  -23.6335  -29.8213   20.1582 C   0  0  0  0  0  0
  -25.4094  -36.3114   24.0333 C   0  0  1  0  0  0
  -20.5880  -28.3726   23.1278 C   0  0  2  0  0  0
  -20.6783  -26.9452   22.5403 C   0  0  0  0  0  0
  -19.5750  -26.6411   21.5211 C   0  0  0  0  0  0
  -18.1932  -26.7953   22.1619 C   0  0  0  0  0  0
  -19.1527  -28.8873   23.2893 C   0  0  0  0  0  0
  -18.9460  -30.1466   23.8937 C   0  0  0  0  0  0
  -17.6467  -30.6610   24.0581 C   0  0  0  0  0  0
  -25.9029  -34.9478   23.5118 C   0  0  0  0  0  0
  -16.5360  -29.9129   23.6322 C   0  0  0  0  0  0
  -16.7270  -28.6533   23.0361 C   0  0  0  0  0  0
  -26.4472  -31.6626   25.0736 C   0  0  0  0  0  0
  -25.3711  -31.3786   26.1475 C   0  0  0  0  0  0
  -27.0302  -30.3048   24.6189 C   0  0  0  0  0  0
  -27.6046  -32.4360   25.7506 C   0  0  0  0  0  0
  -27.5590  -37.1803   24.8450 C   0  0  0  0  0  0
  -21.4180  -29.3081   22.3666 N   0  0  0  0  0  0
  -26.4281  -37.3807   23.9425 N   0  0  0  0  0  0
  -24.6830  -31.0686   22.0956 N   0  0  0  0  0  0
  -23.4189  -28.8194   23.3006 O   0  0  0  0  0  0
  -28.3886  -26.5944   20.1701 O   0  0  0  0  0  0
  -26.5624  -34.8934   22.4700 O   0  0  0  0  0  0
  -23.5408  -32.1398   23.7369 O   0  0  0  0  0  0
  -30.1025  -19.7592   19.2841 C   0  0  0  0  0  0
  -30.4074  -17.3700   18.8460 C   0  0  0  0  0  0
  -30.5077  -18.7276   18.4206 C   0  0  0  0  0  0
  -29.5871  -19.4679   20.5558 C   0  0  0  0  0  0
  -29.9896  -17.0761   20.1947 C   0  0  0  0  0  0
  -30.5374  -16.3090   17.8042 C   0  0  0  0  0  0
  -29.6823  -23.0150   21.3200 C   0  0  0  0  0  0
  -29.5614  -24.4831   20.7944 C   0  0  0  0  0  0
  -31.9384  -15.9079   17.3501 C   0  0  0  0  0  0
  -28.6995  -21.8686   20.9377 C   0  0  0  0  0  0
  -28.2619  -25.1349   20.2276 C   0  0  0  0  0  0
  -30.6498  -22.6976   22.0860 N   0  0  0  0  0  0
  -29.5861  -18.1613   20.9648 N   0  3  0  0  0  0
  -30.9489  -19.1121   17.1438 N   0  0  0  0  0  0
  -29.8528  -15.7096   20.7275 N   0  0  0  0  0  0
  -29.0650  -20.4840   21.3995 N   0  0  0  0  0  0
  -29.5548  -15.7530   17.3094 O   0  0  0  0  0  0
  -30.5695  -25.2045   20.8668 O   0  0  0  0  0  0
  -31.4726  -12.4958   19.1534 H   0  0  0  0  0  0
  -30.3811  -11.3808   19.9197 H   0  0  0  0  0  0
  -29.7660  -11.6513   17.5234 H   0  0  0  0  0  0
  -29.6685  -13.3676   17.6912 H   0  0  0  0  0  0
  -27.8442  -11.2715   18.8854 H   0  0  0  0  0  0
  -27.3811  -12.5458   17.7838 H   0  0  0  0  0  0
  -27.6578  -14.2364   19.4857 H   0  0  0  0  0  0
  -28.6806  -12.0590   21.3774 H   0  0  0  0  0  0
  -28.4261  -13.7210   21.8249 H   0  0  0  0  0  0
  -25.2754   -9.5671   22.4769 H   0  0  0  0  0  0
  -23.9991   -7.4614   22.7477 H   0  0  0  0  0  0
  -21.0804   -8.8773   19.8969 H   0  0  0  0  0  0
  -22.3684  -10.9663   19.6188 H   0  0  0  0  0  0
  -21.2002   -7.6134   23.9731 H   0  0  0  0  0  0
  -21.1484   -6.0507   25.9087 H   0  0  0  0  0  0
  -22.0588   -2.7594   23.2859 H   0  0  0  0  0  0
  -22.3969  -12.0005   22.4900 H   0  0  0  0  0  0
  -21.1017  -13.1406   22.2547 H   0  0  0  0  0  0
  -24.6308  -15.8223   20.5060 H   0  0  0  0  0  0
  -26.2305  -15.6348   20.0134 H   0  0  0  0  0  0
  -26.7182  -32.5500   23.1149 H   0  0  0  0  0  0
  -25.0011  -33.9756   25.0420 H   0  0  0  0  0  0
  -22.7118  -31.3060   21.4000 H   0  0  0  0  0  0
  -23.3752  -35.9644   23.3283 H   0  0  0  0  0  0
  -24.3584  -36.8956   22.2057 H   0  0  0  0  0  0
  -23.7220  -37.6505   23.6668 H   0  0  0  0  0  0
  -26.0748  -31.5778   20.5987 H   0  0  0  0  0  0
  -26.8371  -30.8613   21.9922 H   0  0  0  0  0  0
  -28.1189  -29.0563   21.1527 H   0  0  0  0  0  0
  -26.0232  -25.9221   19.0492 H   0  0  0  0  0  0
  -23.9816  -27.2799   19.0423 H   0  0  0  0  0  0
  -23.7634  -30.5994   19.4045 H   0  0  0  0  0  0
  -22.7553  -29.2533   19.8499 H   0  0  0  0  0  0
  -25.1274  -36.1974   25.0833 H   0  0  0  0  0  0
  -20.9957  -28.3319   24.1403 H   0  0  0  0  0  0
  -20.5692  -26.2348   23.3618 H   0  0  0  0  0  0
  -21.6667  -26.7514   22.1200 H   0  0  0  0  0  0
  -19.6921  -25.6313   21.1280 H   0  0  0  0  0  0
  -19.6677  -27.3203   20.6727 H   0  0  0  0  0  0
  -17.4199  -26.6694   21.4039 H   0  0  0  0  0  0
  -18.0336  -26.0107   22.9018 H   0  0  0  0  0  0
  -19.7941  -30.7263   24.2350 H   0  0  0  0  0  0
  -17.5033  -31.6291   24.5176 H   0  0  0  0  0  0
  -15.5373  -30.3061   23.7605 H   0  0  0  0  0  0
  -15.8665  -28.0864   22.7084 H   0  0  0  0  0  0
  -24.5812  -30.7224   25.7798 H   0  0  0  0  0  0
  -24.8979  -32.2967   26.4976 H   0  0  0  0  0  0
  -25.7990  -30.8880   27.0226 H   0  0  0  0  0  0
  -26.2868  -29.6832   24.1174 H   0  0  0  0  0  0
  -27.3954  -29.7283   25.4704 H   0  0  0  0  0  0
  -27.8770  -30.4347   23.9443 H   0  0  0  0  0  0
  -27.2657  -33.3647   26.2131 H   0  0  0  0  0  0
  -28.3822  -32.6959   25.0303 H   0  0  0  0  0  0
  -28.0770  -31.8469   26.5385 H   0  0  0  0  0  0
  -28.2576  -38.0132   24.7562 H   0  0  0  0  0  0
  -28.1114  -36.2671   24.6183 H   0  0  0  0  0  0
  -27.2329  -37.1360   25.8854 H   0  0  0  0  0  0
  -20.9342  -29.8800   21.6885 H   0  0  0  0  0  0
  -26.0168  -38.2882   24.1449 H   0  0  0  0  0  0
  -30.1667  -20.7815   18.9473 H   0  0  0  0  0  0
  -32.6757  -16.6430   17.6692 H   0  0  0  0  0  0
  -31.9709  -15.8194   16.2660 H   0  0  0  0  0  0
  -32.2153  -14.9374   17.7626 H   0  0  0  0  0  0
  -28.5080  -21.8983   19.8640 H   0  0  0  0  0  0
  -27.7409  -22.1080   21.3997 H   0  0  0  0  0  0
  -27.4205  -24.8488   20.8592 H   0  0  0  0  0  0
  -28.0762  -24.7445   19.2255 H   0  0  0  0  0  0
  -31.2278  -23.5167   22.2524 H   0  0  0  0  0  0
  -29.2355  -17.9693   21.9082 H   0  0  0  0  0  0
  -30.7777  -20.0629   16.8404 H   0  0  0  0  0  0
  -30.9152  -18.4518   16.3777 H   0  0  0  0  0  0
  -28.9818  -15.5085   21.1856 H   0  0  0  0  0  0
  -28.9266  -20.2958   22.3859 H   0  0  0  0  0  0
  1 25  1  0  0  0
  1 30  2  0  0  0
  1 85  1  0  0  0
  2  3  1  0  0  0
  2 25  1  0  0  0
  2 89  1  0  0  0
  2 90  1  0  0  0
  3  4  1  0  0  0
  3 91  1  0  0  0
  3 92  1  0  0  0
  4  5  1  0  0  0
  4 93  1  0  0  0
  4 94  1  0  0  0
  5  6  1  0  0  0
  5 26  1  0  0  0
  5 95  1  0  0  0
  6 25  1  0  0  0
  6 96  1  0  0  0
  6 97  1  0  0  0
  7  8  2  0  0  0
  7 26  1  0  0  0
  7 29  1  0  0  0
  8  9  1  0  0  0
  8 22  1  0  0  0
  9 10  1  0  0  0
  9 27  2  0  0  0
 10 11  2  0  0  0
 10 15  1  0  0  0
 11 12  1  0  0  0
 11 98  1  0  0  0
 12 13  2  0  0  0
 12 99  1  0  0  0
 13 14  1  0  0  0
 13 31  1  0  0  0
 14 15  2  0  0  0
 14100  1  0  0  0
 15101  1  0  0  0
 16 17  2  0  0  0
 16 21  1  0  0  0
 16 31  1  0  0  0
 17 18  1  0  0  0
 17102  1  0  0  0
 18 19  2  0  0  0
 18103  1  0  0  0
 19 20  1  0  0  0
 19 24  1  0  0  0
 20 21  2  0  0  0
 20104  1  0  0  0
 21 23  1  0  0  0
 22 28  1  0  0  0
 22 32  2  0  0  0
 26 27  1  0  0  0
 28105  1  0  0  0
 28106  1  0  0  0
 29107  1  0  0  0
 29108  1  0  0  0
 33 34  1  0  0  0
 33 66  1  0  0  0
 33 70  2  0  0  0
 34 36  1  0  0  0
 34 59  1  0  0  0
 34109  1  0  0  0
 35 44  2  0  0  0
 35 45  1  0  0  0
 35 68  1  0  0  0
 36 56  1  0  0  0
 36110  1  0  0  0
 37 39  1  0  0  0
 37 47  1  0  0  0
 37 66  1  0  0  0
 37111  1  0  0  0
 38 43  2  0  0  0
 38 46  1  0  0  0
 38 47  1  0  0  0
 39 64  1  0  0  0
 39 67  2  0  0  0
 40 52  1  0  0  0
 40 53  2  0  0  0
 40 58  1  0  0  0
 41112  1  0  0  0
 41113  1  0  0  0
 41114  1  0  0  0
 41 48  1  0  0  0
 42 43  1  0  0  0
 42 66  1  0  0  0
 42115  1  0  0  0
 42116  1  0  0  0
 43 44  1  0  0  0
 44117  1  0  0  0
 45 46  2  0  0  0
 45118  1  0  0  0
 46119  1  0  0  0
 47120  1  0  0  0
 47121  1  0  0  0
 48 56  1  0  0  0
 48 65  1  0  0  0
 48122  1  0  0  0
 49 50  1  0  0  0
 49 53  1  0  0  0
 49 64  1  0  0  0
 49123  1  0  0  0
 50 51  1  0  0  0
 50124  1  0  0  0
 50125  1  0  0  0
 51 52  1  0  0  0
 51126  1  0  0  0
 51127  1  0  0  0
 52128  1  0  0  0
 52129  1  0  0  0
 53 54  1  0  0  0
 54 55  2  0  0  0
 54130  1  0  0  0
 55 57  1  0  0  0
 55131  1  0  0  0
 56 69  2  0  0  0
 57 58  2  0  0  0
 57132  1  0  0  0
 58133  1  0  0  0
 59 60  1  0  0  0
 59 61  1  0  0  0
 59 62  1  0  0  0
 60134  1  0  0  0
 60135  1  0  0  0
 60136  1  0  0  0
 61137  1  0  0  0
 61138  1  0  0  0
 61139  1  0  0  0
 62140  1  0  0  0
 62141  1  0  0  0
 62142  1  0  0  0
 63 65  1  0  0  0
 63143  1  0  0  0
 63144  1  0  0  0
 63145  1  0  0  0
 64146  1  0  0  0
 65147  1  0  0  0
 68 81  1  0  0  0
 71 73  2  0  0  0
 71 74  1  0  0  0
 71148  1  0  0  0
 72 73  1  0  0  0
 72 75  2  0  0  0
 72 76  1  0  0  0
 73 84  1  0  0  0
 74 83  2  0  0  0
 74 86  1  0  0  0
 75 83  1  0  0  0
 75 85  1  0  0  0
 76 79  1  0  0  0
 76 87  2  0  0  0
 77 78  1  0  0  0
 77 80  1  0  0  0
 77 82  2  0  0  0
 78 81  1  0  0  0
 78 88  2  0  0  0
 79149  1  0  0  0
 79150  1  0  0  0
 79151  1  0  0  0
 80 86  1  0  0  0
 80152  1  0  0  0
 80153  1  0  0  0
 81154  1  0  0  0
 81155  1  0  0  0
 82156  1  0  0  0
 83157  1  0  0  0
 84158  1  0  0  0
 84159  1  0  0  0
 85160  1  0  0  0
 86161  1  0  0  0
M  CHG  1  83   1
M  ISO  4   1 100  68 101  81 101  85 100
M  END
> <chiral flag>
0

> <version>
0

> <s_m_source_file>
/data/baiqing/PycharmProjects/Reinvent-master-3.2/result/LINK_invent/BTK/process_docking_weight1_custom_product_contain_oxygen_bond_distance_aromatic_linkinvent_7_9_3/rearranged_h_0168.sdf

> <i_m_source_file_index>
63

> <r_mmod_Potential_Energy-OPLS-2005>
163.78190612793

> <r_mmod_Stretch_Energy-OPLS-2005>
77.4506912231445

> <r_mmod_Bend_Energy-OPLS-2005>
145.535171508789

> <r_mmod_Torsional_Energy-OPLS-2005>
293.543853759766

> <r_mmod_Improper_Torsional_Energy-OPLS-2005>
10.7834320068359

> <r_mmod_Van_der_Waal_Energy-OPLS-2005>
154.570327758789

> <r_mmod_Electrostatic_Energy-OPLS-2005>
-76.7986679077148

> <r_mmod_Solvation_Energy-OPLS-2005>
-478.6435546875

> <b_mmod_Minimization_Converged-OPLS-2005>
0

> <r_mmod_RMS_Derivative-OPLS-2005>
4.40355253219604

$$$$
63
                    3D
 Structure written by MMmdl.
161169  0  0  1  0            999 V2000
  -30.6401  -14.4660   20.5346 C   0  0  0  0  0  0
  -30.4460  -12.3106   19.3472 C   0  0  0  0  0  0
  -29.4732  -12.4870   18.1565 C   0  0  0  0  0  0
  -27.9944  -12.3580   18.5882 C   0  0  0  0  0  0
  -27.6612  -13.1813   19.8615 C   0  0  2  0  0  0
  -28.7203  -12.9099   20.9529 C   0  0  0  0  0  0
  -25.2654  -13.8088   20.5692 C   0  0  0  0  0  0
  -24.1872  -13.0413   20.9208 C   0  0  0  0  0  0
  -24.6384  -11.6874   20.8758 C   0  0  0  0  0  0
  -23.9039  -10.4290   21.0423 C   0  0  0  0  0  0
  -24.3605   -9.4195   21.9179 C   0  0  0  0  0  0
  -23.6279   -8.2240   22.0753 C   0  0  0  0  0  0
  -22.4258   -8.0277   21.3567 C   0  0  0  0  0  0
  -21.9915   -9.0243   20.4672 C   0  0  0  0  0  0
  -22.7232  -10.2122   20.3065 C   0  0  0  0  0  0
  -21.6853   -6.0747   22.5283 C   0  0  0  0  0  0
  -21.4002   -6.5641   23.8214 C   0  0  0  0  0  0
  -21.3642   -5.6792   24.9173 C   0  0  0  0  0  0
  -21.6045   -4.3058   24.7217 C   0  0  0  0  0  0
  -21.8817   -3.8147   23.4338 C   0  0  0  0  0  0
  -21.9196   -4.6980   22.3396 C   0  0  0  0  0  0
  -22.7909  -13.5256   21.1811 C   0  0  0  0  0  0
  -22.1669   -4.2171   21.0979 F   0  0  0  0  0  0
  -21.5623   -3.4526   25.7722 F   0  0  0  0  0  0
  -30.0346  -13.2607   20.3853 N   0  0  0  0  0  0
  -26.3037  -12.9191   20.3353 N   0  0  0  0  0  0
  -25.9303  -11.6390   20.5788 N   0  0  0  0  0  0
  -22.0508  -12.8291   22.0383 N   0  0  0  0  0  0
  -25.4401  -15.1807   20.4060 N   0  0  0  0  0  0
  -31.8085  -14.7025   20.2186 O   0  0  0  0  0  0
  -21.6624   -6.8877   21.4246 O   0  0  0  0  0  0
  -22.3641  -14.5575   20.6644 O   0  0  0  0  0  0
  -24.6180  -31.8661   23.2115 C   0  0  0  0  0  0
  -25.9068  -32.4819   23.8410 C   0  0  1  0  0  0
  -27.2346  -27.4216   20.0741 C   0  0  0  0  0  0
  -25.5989  -33.8627   24.2362 N   0  0  0  0  0  0
  -23.4040  -30.4859   21.5568 C   0  0  2  0  0  0
  -24.8441  -28.9518   20.1178 C   0  0  0  0  0  0
  -22.7393  -29.4616   22.5036 C   0  0  0  0  0  0
  -18.0240  -28.1369   22.8552 C   0  0  0  0  0  0
  -24.1496  -36.7257   23.2639 C   0  0  0  0  0  0
  -25.9357  -30.8188   21.3746 C   0  0  0  0  0  0
  -26.0075  -29.4583   20.7075 C   0  0  0  0  0  0
  -27.2007  -28.6997   20.6859 C   0  0  0  0  0  0
  -26.0380  -26.9199   19.5046 C   0  0  0  0  0  0
  -24.8522  -27.6783   19.5205 C   0  0  0  0  0  0
  -23.6091  -29.8222   20.1712 C   0  0  0  0  0  0
  -25.4122  -36.3089   24.0337 C   0  0  1  0  0  0
  -20.5832  -28.3614   23.1326 C   0  0  2  0  0  0
  -20.6712  -26.9301   22.5578 C   0  0  0  0  0  0
  -19.5640  -26.6175   21.5418 C   0  0  0  0  0  0
  -18.1820  -26.7857   22.1827 C   0  0  0  0  0  0
  -19.1501  -28.8828   23.2898 C   0  0  0  0  0  0
  -18.9449  -30.1425   23.8916 C   0  0  0  0  0  0
  -17.6461  -30.6551   24.0693 C   0  0  0  0  0  0
  -25.9066  -34.9474   23.5118 C   0  0  0  0  0  0
  -16.5347  -29.9072   23.6429 C   0  0  0  0  0  0
  -16.7236  -28.6484   23.0459 C   0  0  0  0  0  0
  -26.4459  -31.6608   25.0759 C   0  0  0  0  0  0
  -25.3679  -31.3730   26.1476 C   0  0  0  0  0  0
  -27.0336  -30.3058   24.6172 C   0  0  0  0  0  0
  -27.6034  -32.4321   25.7533 C   0  0  0  0  0  0
  -27.5588  -37.1784   24.8486 C   0  0  0  0  0  0
  -21.4144  -29.2872   22.3627 N   0  0  0  0  0  0
  -26.4313  -37.3773   23.9407 N   0  0  0  0  0  0
  -24.6710  -31.0698   22.1066 N   0  0  0  0  0  0
  -23.4115  -28.8292   23.3206 O   0  0  0  0  0  0
  -28.4273  -26.7184   20.0643 O   0  0  0  0  0  0
  -26.5565  -34.8907   22.4641 O   0  0  0  0  0  0
  -23.5363  -32.1481   23.7459 O   0  0  0  0  0  0
  -29.6414  -18.7370   23.3867 C   0  0  0  0  0  0
  -29.9960  -16.3611   22.9932 C   0  0  0  0  0  0
  -29.5033  -18.9753   21.9990 C   0  0  0  0  0  0
  -29.8695  -16.5719   21.6053 C   0  0  0  0  0  0
  -29.8823  -17.4440   23.8823 C   0  0  0  0  0  0
  -29.6217  -17.8776   21.1055 C   0  0  0  0  0  0
  -29.1589  -20.3491   21.5730 C   0  0  0  0  0  0
  -28.4831  -24.2200   20.0852 C   0  0  0  0  0  0
  -28.5681  -25.5280   19.2546 C   0  0  0  0  0  0
  -27.4456  -21.8371   20.3618 C   0  0  0  0  0  0
  -28.0013  -22.9165   19.3785 C   0  0  2  0  0  0
  -29.7450  -15.4428   20.7583 N   0  0  0  0  0  0
  -28.2606  -20.6023   20.5984 N   0  0  0  0  0  0
  -29.6991  -21.3843   22.2201 N   0  3  0  0  0  0
  -29.0880  -22.3820   18.5329 N   0  3  0  0  0  0
  -28.8702  -24.2162   21.2595 O   0  0  0  0  0  0
  -29.9539  -17.2403   25.2193 F   0  0  0  0  0  0
  -29.4364  -18.0642   19.7725 F   0  0  0  0  0  0
  -31.4730  -12.4787   19.0119 H   0  0  0  0  0  0
  -30.4134  -11.2870   19.7266 H   0  0  0  0  0  0
  -29.6912  -11.7540   17.3797 H   0  0  0  0  0  0
  -29.6298  -13.4635   17.6964 H   0  0  0  0  0  0
  -27.7844  -11.3024   18.7637 H   0  0  0  0  0  0
  -27.3382  -12.6563   17.7690 H   0  0  0  0  0  0
  -27.7054  -14.2282   19.5683 H   0  0  0  0  0  0
  -28.7189  -11.8551   21.2298 H   0  0  0  0  0  0
  -28.5041  -13.4563   21.8735 H   0  0  0  0  0  0
  -25.2740   -9.5670   22.4756 H   0  0  0  0  0  0
  -23.9980   -7.4643   22.7454 H   0  0  0  0  0  0
  -21.0854   -8.8776   19.8967 H   0  0  0  0  0  0
  -22.3700  -10.9665   19.6174 H   0  0  0  0  0  0
  -21.1987   -7.6146   23.9729 H   0  0  0  0  0  0
  -21.1462   -6.0516   25.9092 H   0  0  0  0  0  0
  -22.0616   -2.7614   23.2825 H   0  0  0  0  0  0
  -22.4100  -11.9962   22.4800 H   0  0  0  0  0  0
  -21.1121  -13.1343   22.2485 H   0  0  0  0  0  0
  -24.6641  -15.8263   20.4955 H   0  0  0  0  0  0
  -26.2641  -15.6120   20.0079 H   0  0  0  0  0  0
  -26.7146  -32.5443   23.1163 H   0  0  0  0  0  0
  -25.0297  -33.9803   25.0622 H   0  0  0  0  0  0
  -22.6931  -31.3040   21.4232 H   0  0  0  0  0  0
  -23.3810  -35.9553   23.3319 H   0  0  0  0  0  0
  -24.3598  -36.8827   22.2056 H   0  0  0  0  0  0
  -23.7200  -37.6438   23.6631 H   0  0  0  0  0  0
  -26.0595  -31.5914   20.6153 H   0  0  0  0  0  0
  -26.8178  -30.8556   22.0035 H   0  0  0  0  0  0
  -28.1027  -29.0955   21.1273 H   0  0  0  0  0  0
  -25.9845  -25.9398   19.0554 H   0  0  0  0  0  0
  -23.9498  -27.2752   19.0800 H   0  0  0  0  0  0
  -23.7206  -30.6026   19.4173 H   0  0  0  0  0  0
  -22.7302  -29.2455   19.8762 H   0  0  0  0  0  0
  -25.1307  -36.1968   25.0839 H   0  0  0  0  0  0
  -20.9825  -28.3304   24.1495 H   0  0  0  0  0  0
  -20.5731  -26.2299   23.3872 H   0  0  0  0  0  0
  -21.6545  -26.7327   22.1307 H   0  0  0  0  0  0
  -19.6804  -25.6031   21.1599 H   0  0  0  0  0  0
  -19.6543  -27.2865   20.6862 H   0  0  0  0  0  0
  -17.4024  -26.6578   21.4303 H   0  0  0  0  0  0
  -18.0125  -26.0118   22.9322 H   0  0  0  0  0  0
  -19.7936  -30.7215   24.2339 H   0  0  0  0  0  0
  -17.5023  -31.6184   24.5384 H   0  0  0  0  0  0
  -15.5342  -30.2956   23.7767 H   0  0  0  0  0  0
  -15.8589  -28.0782   22.7297 H   0  0  0  0  0  0
  -24.5872  -30.7063   25.7791 H   0  0  0  0  0  0
  -24.8839  -32.2887   26.4869 H   0  0  0  0  0  0
  -25.7986  -30.8920   27.0272 H   0  0  0  0  0  0
  -26.2892  -29.6742   24.1312 H   0  0  0  0  0  0
  -27.4209  -29.7363   25.4635 H   0  0  0  0  0  0
  -27.8673  -30.4400   23.9288 H   0  0  0  0  0  0
  -27.2681  -33.3634   26.2108 H   0  0  0  0  0  0
  -28.3859  -32.6844   25.0373 H   0  0  0  0  0  0
  -28.0696  -31.8449   26.5444 H   0  0  0  0  0  0
  -28.2631  -38.0064   24.7538 H   0  0  0  0  0  0
  -28.1065  -36.2588   24.6349 H   0  0  0  0  0  0
  -27.2288  -37.1466   25.8888 H   0  0  0  0  0  0
  -20.9384  -29.8142   21.6451 H   0  0  0  0  0  0
  -26.0211  -38.2865   24.1394 H   0  0  0  0  0  0
  -29.5150  -19.5339   24.1028 H   0  0  0  0  0  0
  -30.1091  -15.3599   23.3869 H   0  0  0  0  0  0
  -27.9016  -25.5130   18.3941 H   0  0  0  0  0  0
  -29.5722  -25.5711   18.8268 H   0  0  0  0  0  0
  -26.5187  -21.4795   19.9062 H   0  0  0  0  0  0
  -27.1229  -22.2799   21.3082 H   0  0  0  0  0  0
  -27.1801  -23.1895   18.7145 H   0  0  0  0  0  0
  -28.8035  -15.0936   20.6980 H   0  0  0  0  0  0
  -27.9225  -19.7720   20.1218 H   0  0  0  0  0  0
  -30.4248  -21.1954   22.8979 H   0  0  0  0  0  0
  -29.4332  -22.3487   22.0748 H   0  0  0  0  0  0
  -29.8900  -22.1374   19.0819 H   0  0  0  0  0  0
  -29.3556  -23.0369   17.8217 H   0  0  0  0  0  0
  -28.7612  -21.5512   18.0703 H   0  0  0  0  0  0
  1 25  1  0  0  0
  1 30  2  0  0  0
  1 82  1  0  0  0
  2  3  1  0  0  0
  2 25  1  0  0  0
  2 89  1  0  0  0
  2 90  1  0  0  0
  3  4  1  0  0  0
  3 91  1  0  0  0
  3 92  1  0  0  0
  4  5  1  0  0  0
  4 93  1  0  0  0
  4 94  1  0  0  0
  5  6  1  0  0  0
  5 26  1  0  0  0
  5 95  1  0  0  0
  6 25  1  0  0  0
  6 96  1  0  0  0
  6 97  1  0  0  0
  7  8  2  0  0  0
  7 26  1  0  0  0
  7 29  1  0  0  0
  8  9  1  0  0  0
  8 22  1  0  0  0
  9 10  1  0  0  0
  9 27  2  0  0  0
 10 11  2  0  0  0
 10 15  1  0  0  0
 11 12  1  0  0  0
 11 98  1  0  0  0
 12 13  2  0  0  0
 12 99  1  0  0  0
 13 14  1  0  0  0
 13 31  1  0  0  0
 14 15  2  0  0  0
 14100  1  0  0  0
 15101  1  0  0  0
 16 17  2  0  0  0
 16 21  1  0  0  0
 16 31  1  0  0  0
 17 18  1  0  0  0
 17102  1  0  0  0
 18 19  2  0  0  0
 18103  1  0  0  0
 19 20  1  0  0  0
 19 24  1  0  0  0
 20 21  2  0  0  0
 20104  1  0  0  0
 21 23  1  0  0  0
 22 28  1  0  0  0
 22 32  2  0  0  0
 26 27  1  0  0  0
 28105  1  0  0  0
 28106  1  0  0  0
 29107  1  0  0  0
 29108  1  0  0  0
 33 34  1  0  0  0
 33 66  1  0  0  0
 33 70  2  0  0  0
 34 36  1  0  0  0
 34 59  1  0  0  0
 34109  1  0  0  0
 35 44  2  0  0  0
 35 45  1  0  0  0
 35 68  1  0  0  0
 36 56  1  0  0  0
 36110  1  0  0  0
 37 39  1  0  0  0
 37 47  1  0  0  0
 37 66  1  0  0  0
 37111  1  0  0  0
 38 43  2  0  0  0
 38 46  1  0  0  0
 38 47  1  0  0  0
 39 64  1  0  0  0
 39 67  2  0  0  0
 40 52  1  0  0  0
 40 53  2  0  0  0
 40 58  1  0  0  0
 41112  1  0  0  0
 41113  1  0  0  0
 41114  1  0  0  0
 41 48  1  0  0  0
 42 43  1  0  0  0
 42 66  1  0  0  0
 42115  1  0  0  0
 42116  1  0  0  0
 43 44  1  0  0  0
 44117  1  0  0  0
 45 46  2  0  0  0
 45118  1  0  0  0
 46119  1  0  0  0
 47120  1  0  0  0
 47121  1  0  0  0
 48 56  1  0  0  0
 48 65  1  0  0  0
 48122  1  0  0  0
 49 50  1  0  0  0
 49 53  1  0  0  0
 49 64  1  0  0  0
 49123  1  0  0  0
 50 51  1  0  0  0
 50124  1  0  0  0
 50125  1  0  0  0
 51 52  1  0  0  0
 51126  1  0  0  0
 51127  1  0  0  0
 52128  1  0  0  0
 52129  1  0  0  0
 53 54  1  0  0  0
 54 55  2  0  0  0
 54130  1  0  0  0
 55 57  1  0  0  0
 55131  1  0  0  0
 56 69  2  0  0  0
 57 58  2  0  0  0
 57132  1  0  0  0
 58133  1  0  0  0
 59 60  1  0  0  0
 59 61  1  0  0  0
 59 62  1  0  0  0
 60134  1  0  0  0
 60135  1  0  0  0
 60136  1  0  0  0
 61137  1  0  0  0
 61138  1  0  0  0
 61139  1  0  0  0
 62140  1  0  0  0
 62141  1  0  0  0
 62142  1  0  0  0
 63 65  1  0  0  0
 63143  1  0  0  0
 63144  1  0  0  0
 63145  1  0  0  0
 64146  1  0  0  0
 65147  1  0  0  0
 68 79  1  0  0  0
 71 73  2  0  0  0
 71 75  1  0  0  0
 71148  1  0  0  0
 72 74  1  0  0  0
 72 75  2  0  0  0
 72149  1  0  0  0
 73 76  1  0  0  0
 73 77  1  0  0  0
 74 76  2  0  0  0
 74 82  1  0  0  0
 75 87  1  0  0  0
 76 88  1  0  0  0
 77 83  1  0  0  0
 77 84  2  0  0  0
 78 79  1  0  0  0
 78 81  1  0  0  0
 78 86  2  0  0  0
 79150  1  0  0  0
 79151  1  0  0  0
 80 81  1  0  0  0
 80 83  1  0  0  0
 80152  1  0  0  0
 80153  1  0  0  0
 81 85  1  0  0  0
 81154  1  0  0  0
 82155  1  0  0  0
 83156  1  0  0  0
 84157  1  0  0  0
 84158  1  0  0  0
 85159  1  0  0  0
 85160  1  0  0  0
 85161  1  0  0  0
M  CHG  2  84   1  85   1
M  ISO  4   1 100  68 101  79 101  82 100
M  END
> <chiral flag>
0

> <version>
0

> <s_m_source_file>
/data/baiqing/PycharmProjects/Reinvent-master-3.2/result/LINK_invent/BTK/process_docking_weight1_custom_product_contain_oxygen_bond_distance_aromatic_linkinvent_7_9_3/rearranged_h_0168.sdf

> <i_m_source_file_index>
64

> <r_mmod_Potential_Energy-OPLS-2005>
-650.618896484375

> <r_mmod_Stretch_Energy-OPLS-2005>
41.5608558654785

> <r_mmod_Bend_Energy-OPLS-2005>
117.801605224609

> <r_mmod_Torsional_Energy-OPLS-2005>
272.952728271484

> <r_mmod_Improper_Torsional_Energy-OPLS-2005>
13.761284828186

> <r_mmod_Van_der_Waal_Energy-OPLS-2005>
153.386352539062

> <r_mmod_Electrostatic_Energy-OPLS-2005>
-225.15266418457

> <r_mmod_Solvation_Energy-OPLS-2005>
-1044.00305175781

> <b_mmod_Minimization_Converged-OPLS-2005>
0

> <r_mmod_RMS_Derivative-OPLS-2005>
5.94921922683716

$$$$
64
                    3D
 Structure written by MMmdl.
153161  0  0  1  0            999 V2000
  -30.6189  -14.6518   20.4970 C   0  0  0  0  0  0
  -30.4392  -12.3994   19.4575 C   0  0  0  0  0  0
  -29.5096  -12.5072   18.2277 C   0  0  0  0  0  0
  -28.0327  -12.3428   18.6386 C   0  0  0  0  0  0
  -27.6533  -13.2166   19.8636 C   0  0  2  0  0  0
  -28.6972  -13.0785   20.9949 C   0  0  0  0  0  0
  -25.2564  -13.8170   20.5686 C   0  0  0  0  0  0
  -24.1830  -13.0439   20.9195 C   0  0  0  0  0  0
  -24.6395  -11.6908   20.8742 C   0  0  0  0  0  0
  -23.9061  -10.4293   21.0407 C   0  0  0  0  0  0
  -24.3614   -9.4208   21.9183 C   0  0  0  0  0  0
  -23.6290   -8.2245   22.0752 C   0  0  0  0  0  0
  -22.4272   -8.0282   21.3542 C   0  0  0  0  0  0
  -21.9904   -9.0256   20.4646 C   0  0  0  0  0  0
  -22.7232  -10.2136   20.3057 C   0  0  0  0  0  0
  -21.6854   -6.0734   22.5277 C   0  0  0  0  0  0
  -21.4015   -6.5638   23.8210 C   0  0  0  0  0  0
  -21.3659   -5.6790   24.9171 C   0  0  0  0  0  0
  -21.6044   -4.3053   24.7223 C   0  0  0  0  0  0
  -21.8820   -3.8144   23.4345 C   0  0  0  0  0  0
  -21.9193   -4.6961   22.3401 C   0  0  0  0  0  0
  -22.7852  -13.5236   21.1853 C   0  0  0  0  0  0
  -22.1662   -4.2146   21.0978 F   0  0  0  0  0  0
  -21.5628   -3.4537   25.7737 F   0  0  0  0  0  0
  -30.0123  -13.4237   20.4325 N   0  0  0  0  0  0
  -26.2987  -12.9349   20.3313 N   0  0  0  0  0  0
  -25.9323  -11.6506   20.5758 N   0  0  0  0  0  0
  -22.0490  -12.8233   22.0410 N   0  0  0  0  0  0
  -25.4285  -15.1891   20.4092 N   0  0  0  0  0  0
  -31.7789  -14.8114   20.1081 O   0  0  0  0  0  0
  -21.6639   -6.8877   21.4238 O   0  0  0  0  0  0
  -22.3542  -14.5543   20.6698 O   0  0  0  0  0  0
  -24.6262  -31.8598   23.2029 C   0  0  0  0  0  0
  -25.9108  -32.4778   23.8358 C   0  0  1  0  0  0
  -27.2225  -27.3158   20.1213 C   0  0  0  0  0  0
  -25.5925  -33.8579   24.2284 N   0  0  0  0  0  0
  -23.4206  -30.4832   21.5456 C   0  0  2  0  0  0
  -24.8684  -28.9393   20.1117 C   0  0  0  0  0  0
  -22.7478  -29.4620   22.4936 C   0  0  0  0  0  0
  -18.0289  -28.1382   22.8485 C   0  0  0  0  0  0
  -24.1490  -36.7296   23.2638 C   0  0  0  0  0  0
  -25.9625  -30.7894   21.3760 C   0  0  0  0  0  0
  -26.0377  -29.4165   20.7184 C   0  0  0  0  0  0
  -27.2202  -28.6170   20.7131 C   0  0  0  0  0  0
  -26.0358  -26.9001   19.4770 C   0  0  0  0  0  0
  -24.8698  -27.6868   19.4808 C   0  0  0  0  0  0
  -23.6361  -29.8189   20.1608 C   0  0  0  0  0  0
  -25.4113  -36.3083   24.0330 C   0  0  1  0  0  0
  -20.5888  -28.3688   23.1281 C   0  0  2  0  0  0
  -20.6776  -26.9410   22.5409 C   0  0  0  0  0  0
  -19.5753  -26.6382   21.5210 C   0  0  0  0  0  0
  -18.1934  -26.7925   22.1624 C   0  0  0  0  0  0
  -19.1540  -28.8852   23.2878 C   0  0  0  0  0  0
  -18.9462  -30.1453   23.8897 C   0  0  0  0  0  0
  -17.6461  -30.6584   24.0562 C   0  0  0  0  0  0
  -25.9049  -34.9451   23.5107 C   0  0  0  0  0  0
  -16.5353  -29.9082   23.6327 C   0  0  0  0  0  0
  -16.7275  -28.6499   23.0349 C   0  0  0  0  0  0
  -26.4493  -31.6586   25.0727 C   0  0  0  0  0  0
  -25.3728  -31.3730   26.1457 C   0  0  0  0  0  0
  -27.0332  -30.3007   24.6185 C   0  0  0  0  0  0
  -27.6058  -32.4318   25.7492 C   0  0  0  0  0  0
  -27.5582  -37.1799   24.8461 C   0  0  0  0  0  0
  -21.4191  -29.3041   22.3676 N   0  0  0  0  0  0
  -26.4292  -37.3777   23.9408 N   0  0  0  0  0  0
  -24.6884  -31.0605   22.0984 N   0  0  0  0  0  0
  -23.4198  -28.8158   23.3016 O   0  0  0  0  0  0
  -28.3232  -26.4463   20.1562 O   0  0  0  0  0  0
  -26.5617  -34.8917   22.4673 O   0  0  0  0  0  0
  -23.5424  -32.1398   23.7353 O   0  0  0  0  0  0
  -30.9910  -17.8187   20.0034 C   0  0  0  0  0  0
  -28.8918  -18.0236   21.1131 C   0  0  0  0  0  0
  -30.9660  -19.2357   19.8314 C   0  0  0  0  0  0
  -29.9262  -17.1571   20.6619 C   0  0  0  0  0  0
  -29.8792  -20.0096   20.3191 C   0  0  0  0  0  0
  -29.0900  -23.9308   20.1850 C   0  0  0  0  0  0
  -32.1255  -19.9039   19.1080 C   0  0  0  0  0  0
  -28.8062  -22.4120   20.5429 C   0  0  0  0  0  0
  -28.0270  -25.0415   20.5513 C   0  0  0  0  0  0
  -28.8617  -19.3856   20.9540 N   0  0  0  0  0  0
  -29.8182  -15.7041   20.8641 N   0  0  0  0  0  0
  -29.8605  -21.4294   20.1419 N   0  0  0  0  0  0
  -30.1458  -24.2322   19.6157 O   0  0  0  0  0  0
  -31.4803  -12.5258   19.1554 H   0  0  0  0  0  0
  -30.3770  -11.4053   19.9030 H   0  0  0  0  0  0
  -29.7765  -11.7535   17.4858 H   0  0  0  0  0  0
  -29.6498  -13.4753   17.7439 H   0  0  0  0  0  0
  -27.8719  -11.2899   18.8738 H   0  0  0  0  0  0
  -27.3781  -12.5682   17.7958 H   0  0  0  0  0  0
  -27.6700  -14.2506   19.5187 H   0  0  0  0  0  0
  -28.7113  -12.0585   21.3818 H   0  0  0  0  0  0
  -28.4402  -13.7135   21.8441 H   0  0  0  0  0  0
  -25.2761   -9.5683   22.4756 H   0  0  0  0  0  0
  -23.9998   -7.4637   22.7472 H   0  0  0  0  0  0
  -21.0833   -8.8778   19.8955 H   0  0  0  0  0  0
  -22.3691  -10.9677   19.6168 H   0  0  0  0  0  0
  -21.2010   -7.6147   23.9713 H   0  0  0  0  0  0
  -21.1478   -6.0519   25.9073 H   0  0  0  0  0  0
  -22.0600   -2.7605   23.2847 H   0  0  0  0  0  0
  -22.4101  -11.9898   22.4808 H   0  0  0  0  0  0
  -21.1109  -13.1266   22.2612 H   0  0  0  0  0  0
  -24.6578  -15.8412   20.5097 H   0  0  0  0  0  0
  -26.2658  -15.6211   20.0408 H   0  0  0  0  0  0
  -26.7176  -32.5450   23.1107 H   0  0  0  0  0  0
  -25.0070  -33.9724   25.0427 H   0  0  0  0  0  0
  -22.7144  -31.3037   21.4025 H   0  0  0  0  0  0
  -23.3748  -35.9632   23.3300 H   0  0  0  0  0  0
  -24.3584  -36.8915   22.2053 H   0  0  0  0  0  0
  -23.7246  -37.6500   23.6658 H   0  0  0  0  0  0
  -26.0950  -31.5531   20.6083 H   0  0  0  0  0  0
  -26.8422  -30.8378   22.0060 H   0  0  0  0  0  0
  -28.1167  -28.9773   21.1981 H   0  0  0  0  0  0
  -25.9906  -25.9536   18.9591 H   0  0  0  0  0  0
  -23.9776  -27.3207   18.9912 H   0  0  0  0  0  0
  -23.7544  -30.5957   19.4046 H   0  0  0  0  0  0
  -22.7565  -29.2478   19.8583 H   0  0  0  0  0  0
  -25.1292  -36.1938   25.0823 H   0  0  0  0  0  0
  -20.9980  -28.3262   24.1401 H   0  0  0  0  0  0
  -20.5675  -26.2297   23.3609 H   0  0  0  0  0  0
  -21.6645  -26.7438   22.1204 H   0  0  0  0  0  0
  -19.6915  -25.6293   21.1239 H   0  0  0  0  0  0
  -19.6690  -27.3191   20.6740 H   0  0  0  0  0  0
  -17.4202  -26.6668   21.4029 H   0  0  0  0  0  0
  -18.0340  -26.0068   22.9022 H   0  0  0  0  0  0
  -19.7938  -30.7268   24.2268 H   0  0  0  0  0  0
  -17.5015  -31.6263   24.5164 H   0  0  0  0  0  0
  -15.5354  -30.2983   23.7649 H   0  0  0  0  0  0
  -15.8676  -28.0817   22.7065 H   0  0  0  0  0  0
  -24.5899  -30.7081   25.7789 H   0  0  0  0  0  0
  -24.8924  -32.2899   26.4881 H   0  0  0  0  0  0
  -25.8052  -30.8907   27.0232 H   0  0  0  0  0  0
  -26.2905  -29.6758   24.1211 H   0  0  0  0  0  0
  -27.4028  -29.7264   25.4691 H   0  0  0  0  0  0
  -27.8778  -30.4289   23.9411 H   0  0  0  0  0  0
  -27.2675  -33.3619   26.2071 H   0  0  0  0  0  0
  -28.3863  -32.6875   25.0314 H   0  0  0  0  0  0
  -28.0729  -31.8441   26.5404 H   0  0  0  0  0  0
  -28.2595  -38.0101   24.7514 H   0  0  0  0  0  0
  -28.1083  -36.2633   24.6277 H   0  0  0  0  0  0
  -27.2303  -37.1436   25.8865 H   0  0  0  0  0  0
  -20.9369  -29.8766   21.6889 H   0  0  0  0  0  0
  -26.0175  -38.2852   24.1411 H   0  0  0  0  0  0
  -31.8265  -17.2568   19.6145 H   0  0  0  0  0  0
  -28.0355  -17.6063   21.6226 H   0  0  0  0  0  0
  -32.8599  -19.1751   18.7634 H   0  0  0  0  0  0
  -32.6369  -20.6043   19.7690 H   0  0  0  0  0  0
  -31.7684  -20.4507   18.2347 H   0  0  0  0  0  0
  -27.8648  -22.1233   20.0754 H   0  0  0  0  0  0
  -28.6526  -22.3401   21.6197 H   0  0  0  0  0  0
  -27.8995  -25.0251   21.6337 H   0  0  0  0  0  0
  -27.0822  -24.6952   20.1394 H   0  0  0  0  0  0
  -28.9305  -15.3990   21.2363 H   0  0  0  0  0  0
  -30.6483  -21.8560   19.6654 H   0  0  0  0  0  0
  1 25  1  0  0  0
  1 30  2  0  0  0
  1 81  1  0  0  0
  2  3  1  0  0  0
  2 25  1  0  0  0
  2 84  1  0  0  0
  2 85  1  0  0  0
  3  4  1  0  0  0
  3 86  1  0  0  0
  3 87  1  0  0  0
  4  5  1  0  0  0
  4 88  1  0  0  0
  4 89  1  0  0  0
  5  6  1  0  0  0
  5 26  1  0  0  0
  5 90  1  0  0  0
  6 25  1  0  0  0
  6 91  1  0  0  0
  6 92  1  0  0  0
  7  8  2  0  0  0
  7 26  1  0  0  0
  7 29  1  0  0  0
  8  9  1  0  0  0
  8 22  1  0  0  0
  9 10  1  0  0  0
  9 27  2  0  0  0
 10 11  2  0  0  0
 10 15  1  0  0  0
 11 12  1  0  0  0
 11 93  1  0  0  0
 12 13  2  0  0  0
 12 94  1  0  0  0
 13 14  1  0  0  0
 13 31  1  0  0  0
 14 15  2  0  0  0
 14 95  1  0  0  0
 15 96  1  0  0  0
 16 17  2  0  0  0
 16 21  1  0  0  0
 16 31  1  0  0  0
 17 18  1  0  0  0
 17 97  1  0  0  0
 18 19  2  0  0  0
 18 98  1  0  0  0
 19 20  1  0  0  0
 19 24  1  0  0  0
 20 21  2  0  0  0
 20 99  1  0  0  0
 21 23  1  0  0  0
 22 28  1  0  0  0
 22 32  2  0  0  0
 26 27  1  0  0  0
 28100  1  0  0  0
 28101  1  0  0  0
 29102  1  0  0  0
 29103  1  0  0  0
 33 34  1  0  0  0
 33 66  1  0  0  0
 33 70  2  0  0  0
 34 36  1  0  0  0
 34 59  1  0  0  0
 34104  1  0  0  0
 35 44  2  0  0  0
 35 45  1  0  0  0
 35 68  1  0  0  0
 36 56  1  0  0  0
 36105  1  0  0  0
 37 39  1  0  0  0
 37 47  1  0  0  0
 37 66  1  0  0  0
 37106  1  0  0  0
 38 43  2  0  0  0
 38 46  1  0  0  0
 38 47  1  0  0  0
 39 64  1  0  0  0
 39 67  2  0  0  0
 40 52  1  0  0  0
 40 53  2  0  0  0
 40 58  1  0  0  0
 41107  1  0  0  0
 41108  1  0  0  0
 41109  1  0  0  0
 41 48  1  0  0  0
 42 43  1  0  0  0
 42 66  1  0  0  0
 42110  1  0  0  0
 42111  1  0  0  0
 43 44  1  0  0  0
 44112  1  0  0  0
 45 46  2  0  0  0
 45113  1  0  0  0
 46114  1  0  0  0
 47115  1  0  0  0
 47116  1  0  0  0
 48 56  1  0  0  0
 48 65  1  0  0  0
 48117  1  0  0  0
 49 50  1  0  0  0
 49 53  1  0  0  0
 49 64  1  0  0  0
 49118  1  0  0  0
 50 51  1  0  0  0
 50119  1  0  0  0
 50120  1  0  0  0
 51 52  1  0  0  0
 51121  1  0  0  0
 51122  1  0  0  0
 52123  1  0  0  0
 52124  1  0  0  0
 53 54  1  0  0  0
 54 55  2  0  0  0
 54125  1  0  0  0
 55 57  1  0  0  0
 55126  1  0  0  0
 56 69  2  0  0  0
 57 58  2  0  0  0
 57127  1  0  0  0
 58128  1  0  0  0
 59 60  1  0  0  0
 59 61  1  0  0  0
 59 62  1  0  0  0
 60129  1  0  0  0
 60130  1  0  0  0
 60131  1  0  0  0
 61132  1  0  0  0
 61133  1  0  0  0
 61134  1  0  0  0
 62135  1  0  0  0
 62136  1  0  0  0
 62137  1  0  0  0
 63 65  1  0  0  0
 63138  1  0  0  0
 63139  1  0  0  0
 63140  1  0  0  0
 64141  1  0  0  0
 65142  1  0  0  0
 68 79  1  0  0  0
 71 73  2  0  0  0
 71 74  1  0  0  0
 71143  1  0  0  0
 72 74  2  0  0  0
 72 80  1  0  0  0
 72144  1  0  0  0
 73 75  1  0  0  0
 73 77  1  0  0  0
 74 81  1  0  0  0
 75 80  2  0  0  0
 75 82  1  0  0  0
 76 78  1  0  0  0
 76 79  1  0  0  0
 76 83  2  0  0  0
 77145  1  0  0  0
 77146  1  0  0  0
 77147  1  0  0  0
 78 82  1  0  0  0
 78148  1  0  0  0
 78149  1  0  0  0
 79150  1  0  0  0
 79151  1  0  0  0
 81152  1  0  0  0
 82153  1  0  0  0
M  ISO  4   1 100  68 101  79 101  81 100
M  END
> <chiral flag>
0

> <version>
0

> <s_m_source_file>
/data/baiqing/PycharmProjects/Reinvent-master-3.2/result/LINK_invent/BTK/process_docking_weight1_custom_product_contain_oxygen_bond_distance_aromatic_linkinvent_7_9_3/rearranged_h_0168.sdf

> <i_m_source_file_index>
65

> <r_mmod_Potential_Energy-OPLS-2005>
-251.987854003906

> <r_mmod_Stretch_Energy-OPLS-2005>
78.5452728271484

> <r_mmod_Bend_Energy-OPLS-2005>
144.943984985352

> <r_mmod_Torsional_Energy-OPLS-2005>
211.239028930664

> <r_mmod_Improper_Torsional_Energy-OPLS-2005>
3.91239023208618

> <r_mmod_Van_der_Waal_Energy-OPLS-2005>
147.967010498047

> <r_mmod_Electrostatic_Energy-OPLS-2005>
-642.750122070312

> <r_mmod_Solvation_Energy-OPLS-2005>
-248.043167114258

> <b_mmod_Minimization_Converged-OPLS-2005>
0

> <r_mmod_RMS_Derivative-OPLS-2005>
0.345034241676331

$$$$
65
                    3D
 Structure written by MMmdl.
155163  0  0  1  0            999 V2000
  -30.6807  -14.4781   20.6423 C   0  0  0  0  0  0
  -30.4377  -12.3346   19.4120 C   0  0  0  0  0  0
  -29.4967  -12.5391   18.2049 C   0  0  0  0  0  0
  -28.0205  -12.3795   18.6177 C   0  0  0  0  0  0
  -27.6658  -13.2102   19.8790 C   0  0  2  0  0  0
  -28.7038  -12.9508   20.9944 C   0  0  0  0  0  0
  -25.2613  -13.8194   20.5640 C   0  0  0  0  0  0
  -24.1856  -13.0464   20.9138 C   0  0  0  0  0  0
  -24.6406  -11.6945   20.8697 C   0  0  0  0  0  0
  -23.9082  -10.4332   21.0370 C   0  0  0  0  0  0
  -24.3636   -9.4264   21.9157 C   0  0  0  0  0  0
  -23.6323   -8.2282   22.0743 C   0  0  0  0  0  0
  -22.4290   -8.0303   21.3529 C   0  0  0  0  0  0
  -21.9906   -9.0288   20.4635 C   0  0  0  0  0  0
  -22.7250  -10.2166   20.3035 C   0  0  0  0  0  0
  -21.6861   -6.0751   22.5247 C   0  0  0  0  0  0
  -21.4032   -6.5645   23.8187 C   0  0  0  0  0  0
  -21.3633   -5.6768   24.9120 C   0  0  0  0  0  0
  -21.6029   -4.3038   24.7141 C   0  0  0  0  0  0
  -21.8826   -3.8150   23.4264 C   0  0  0  0  0  0
  -21.9206   -4.6988   22.3340 C   0  0  0  0  0  0
  -22.7880  -13.5277   21.1840 C   0  0  0  0  0  0
  -22.1656   -4.2195   21.0904 F   0  0  0  0  0  0
  -21.5662   -3.4508   25.7651 F   0  0  0  0  0  0
  -30.0450  -13.2818   20.4683 N   0  0  0  0  0  0
  -26.3046  -12.9357   20.3342 N   0  0  0  0  0  0
  -25.9340  -11.6516   20.5753 N   0  0  0  0  0  0
  -22.0523  -12.8294   22.0418 N   0  0  0  0  0  0
  -25.4282  -15.1911   20.4031 N   0  0  0  0  0  0
  -31.7047  -14.7852   20.0218 O   0  0  0  0  0  0
  -21.6656   -6.8890   21.4204 O   0  0  0  0  0  0
  -22.3572  -14.5591   20.6707 O   0  0  0  0  0  0
  -24.6201  -31.8676   23.2096 C   0  0  0  0  0  0
  -25.9082  -32.4820   23.8400 C   0  0  1  0  0  0
  -27.1988  -27.3676   20.0919 C   0  0  0  0  0  0
  -25.5922  -33.8619   24.2334 N   0  0  0  0  0  0
  -23.4072  -30.5020   21.5492 C   0  0  2  0  0  0
  -24.8458  -28.9706   20.1056 C   0  0  0  0  0  0
  -22.7410  -29.4718   22.4908 C   0  0  0  0  0  0
  -18.0274  -28.1371   22.8469 C   0  0  0  0  0  0
  -24.1487  -36.7312   23.2638 C   0  0  0  0  0  0
  -25.9455  -30.8133   21.3734 C   0  0  0  0  0  0
  -26.0131  -29.4436   20.7173 C   0  0  0  0  0  0
  -27.1906  -28.6472   20.7153 C   0  0  0  0  0  0
  -26.0134  -26.9545   19.4355 C   0  0  0  0  0  0
  -24.8436  -27.7275   19.4623 C   0  0  0  0  0  0
  -23.6151  -29.8477   20.1596 C   0  0  0  0  0  0
  -25.4109  -36.3115   24.0339 C   0  0  1  0  0  0
  -20.5867  -28.3692   23.1238 C   0  0  2  0  0  0
  -20.6749  -26.9415   22.5380 C   0  0  0  0  0  0
  -19.5749  -26.6380   21.5159 C   0  0  0  0  0  0
  -18.1927  -26.7916   22.1584 C   0  0  0  0  0  0
  -19.1527  -28.8841   23.2864 C   0  0  0  0  0  0
  -18.9467  -30.1420   23.8928 C   0  0  0  0  0  0
  -17.6479  -30.6585   24.0553 C   0  0  0  0  0  0
  -25.9040  -34.9476   23.5130 C   0  0  0  0  0  0
  -16.5363  -29.9104   23.6309 C   0  0  0  0  0  0
  -16.7263  -28.6497   23.0369 C   0  0  0  0  0  0
  -26.4495  -31.6613   25.0742 C   0  0  0  0  0  0
  -25.3736  -31.3746   26.1475 C   0  0  0  0  0  0
  -27.0339  -30.3047   24.6164 C   0  0  0  0  0  0
  -27.6092  -32.4318   25.7499 C   0  0  0  0  0  0
  -27.5579  -37.1817   24.8472 C   0  0  0  0  0  0
  -21.4134  -29.3086   22.3650 N   0  0  0  0  0  0
  -26.4301  -37.3794   23.9401 N   0  0  0  0  0  0
  -24.6767  -31.0756   22.1013 N   0  0  0  0  0  0
  -23.4156  -28.8202   23.2920 O   0  0  0  0  0  0
  -28.3191  -26.5394   20.1471 O   0  0  0  0  0  0
  -26.5601  -34.8933   22.4690 O   0  0  0  0  0  0
  -23.5378  -32.1453   23.7458 O   0  0  0  0  0  0
  -28.2608  -16.4727   22.3237 C   0  0  0  0  0  0
  -27.8464  -18.8048   21.7662 C   0  0  0  0  0  0
  -27.4494  -17.6179   22.4090 C   0  0  0  0  0  0
  -29.4569  -16.4743   21.5771 C   0  0  0  0  0  0
  -29.0556  -18.8759   21.0375 C   0  0  0  0  0  0
  -29.8596  -17.6890   20.9341 C   0  0  0  0  0  0
  -26.1848  -17.5665   23.1800 C   0  0  0  0  0  0
  -29.1623  -22.6641   20.0363 C   0  0  0  0  0  0
  -28.8900  -24.0989   20.6389 C   0  0  0  0  0  0
  -28.8883  -21.4065   20.9119 C   0  0  0  0  0  0
  -28.1454  -25.1353   19.7545 C   0  0  0  0  0  0
  -30.1850  -15.2325   21.6398 N   0  0  0  0  0  0
  -29.4414  -20.1048   20.4339 N   0  0  0  0  0  0
  -25.4150  -18.5239   23.3079 O   0  0  0  0  0  0
  -29.6015  -22.5372   18.8867 O   0  0  0  0  0  0
  -29.2404  -24.3733   21.7953 O   0  0  0  0  0  0
  -31.0280  -17.7405   20.2511 F   0  0  0  0  0  0
  -31.4790  -12.4612   19.1079 H   0  0  0  0  0  0
  -30.3664  -11.3116   19.7872 H   0  0  0  0  0  0
  -29.7391  -11.8305   17.4125 H   0  0  0  0  0  0
  -29.6530  -13.5336   17.7842 H   0  0  0  0  0  0
  -27.8322  -11.3221   18.8117 H   0  0  0  0  0  0
  -27.3678  -12.6564   17.7879 H   0  0  0  0  0  0
  -27.7170  -14.2631   19.5992 H   0  0  0  0  0  0
  -28.6800  -11.8984   21.2784 H   0  0  0  0  0  0
  -28.4311  -13.4910   21.9006 H   0  0  0  0  0  0
  -25.2780   -9.5816   22.4727 H   0  0  0  0  0  0
  -24.0069   -7.4684   22.7462 H   0  0  0  0  0  0
  -21.0840   -8.8823   19.8921 H   0  0  0  0  0  0
  -22.3698  -10.9714   19.6152 H   0  0  0  0  0  0
  -21.2054   -7.6155   23.9720 H   0  0  0  0  0  0
  -21.1437   -6.0483   25.9019 H   0  0  0  0  0  0
  -22.0652   -2.7636   23.2755 H   0  0  0  0  0  0
  -22.4097  -11.9937   22.4801 H   0  0  0  0  0  0
  -21.1120  -13.1308   22.2573 H   0  0  0  0  0  0
  -24.6207  -15.8052   20.3964 H   0  0  0  0  0  0
  -26.2478  -15.6166   19.9868 H   0  0  0  0  0  0
  -26.7142  -32.5529   23.1150 H   0  0  0  0  0  0
  -25.0071  -33.9775   25.0483 H   0  0  0  0  0  0
  -22.6997  -31.3244   21.4143 H   0  0  0  0  0  0
  -23.3742  -35.9659   23.3349 H   0  0  0  0  0  0
  -24.3579  -36.8876   22.2043 H   0  0  0  0  0  0
  -23.7256  -37.6538   23.6621 H   0  0  0  0  0  0
  -26.0676  -31.5785   20.6048 H   0  0  0  0  0  0
  -26.8303  -30.8638   21.9966 H   0  0  0  0  0  0
  -28.0814  -28.9994   21.2148 H   0  0  0  0  0  0
  -25.9448  -26.0324   18.8800 H   0  0  0  0  0  0
  -23.9504  -27.3709   18.9676 H   0  0  0  0  0  0
  -23.7293  -30.6287   19.4054 H   0  0  0  0  0  0
  -22.7341  -29.2775   19.8578 H   0  0  0  0  0  0
  -25.1288  -36.1985   25.0832 H   0  0  0  0  0  0
  -20.9982  -28.3280   24.1347 H   0  0  0  0  0  0
  -20.5555  -26.2336   23.3587 H   0  0  0  0  0  0
  -21.6633  -26.7398   22.1242 H   0  0  0  0  0  0
  -19.6914  -25.6276   21.1229 H   0  0  0  0  0  0
  -19.6678  -27.3156   20.6646 H   0  0  0  0  0  0
  -17.4165  -26.6613   21.4011 H   0  0  0  0  0  0
  -18.0387  -26.0058   22.8993 H   0  0  0  0  0  0
  -19.7958  -30.7188   24.2346 H   0  0  0  0  0  0
  -17.5068  -31.6279   24.5136 H   0  0  0  0  0  0
  -15.5375  -30.3041   23.7618 H   0  0  0  0  0  0
  -15.8644  -28.0818   22.7133 H   0  0  0  0  0  0
  -24.5891  -30.7118   25.7806 H   0  0  0  0  0  0
  -24.8938  -32.2906   26.4920 H   0  0  0  0  0  0
  -25.8054  -30.8905   27.0235 H   0  0  0  0  0  0
  -26.2895  -29.6793   24.1209 H   0  0  0  0  0  0
  -27.4081  -29.7316   25.4659 H   0  0  0  0  0  0
  -27.8751  -30.4365   23.9355 H   0  0  0  0  0  0
  -27.2740  -33.3609   26.2124 H   0  0  0  0  0  0
  -28.3868  -32.6876   25.0291 H   0  0  0  0  0  0
  -28.0789  -31.8397   26.5363 H   0  0  0  0  0  0
  -28.2634  -38.0076   24.7476 H   0  0  0  0  0  0
  -28.1031  -36.2607   24.6350 H   0  0  0  0  0  0
  -27.2296  -37.1539   25.8878 H   0  0  0  0  0  0
  -20.9252  -29.8907   21.6987 H   0  0  0  0  0  0
  -26.0199  -38.2885   24.1373 H   0  0  0  0  0  0
  -27.9512  -15.5763   22.8412 H   0  0  0  0  0  0
  -27.1891  -19.6581   21.8594 H   0  0  0  0  0  0
  -25.9737  -16.6039   23.6457 H   0  0  0  0  0  0
  -27.8009  -21.3419   20.9406 H   0  0  0  0  0  0
  -29.2142  -21.6010   21.9359 H   0  0  0  0  0  0
  -27.1127  -24.8120   19.8863 H   0  0  0  0  0  0
  -28.3880  -25.0015   18.6977 H   0  0  0  0  0  0
  -29.7601  -14.6121   22.3116 H   0  0  0  0  0  0
  -30.3662  -20.1291   20.0116 H   0  0  0  0  0  0
  1 25  1  0  0  0
  1 30  2  0  0  0
  1 82  1  0  0  0
  2  3  1  0  0  0
  2 25  1  0  0  0
  2 88  1  0  0  0
  2 89  1  0  0  0
  3  4  1  0  0  0
  3 90  1  0  0  0
  3 91  1  0  0  0
  4  5  1  0  0  0
  4 92  1  0  0  0
  4 93  1  0  0  0
  5  6  1  0  0  0
  5 26  1  0  0  0
  5 94  1  0  0  0
  6 25  1  0  0  0
  6 95  1  0  0  0
  6 96  1  0  0  0
  7  8  2  0  0  0
  7 26  1  0  0  0
  7 29  1  0  0  0
  8  9  1  0  0  0
  8 22  1  0  0  0
  9 10  1  0  0  0
  9 27  2  0  0  0
 10 11  2  0  0  0
 10 15  1  0  0  0
 11 12  1  0  0  0
 11 97  1  0  0  0
 12 13  2  0  0  0
 12 98  1  0  0  0
 13 14  1  0  0  0
 13 31  1  0  0  0
 14 15  2  0  0  0
 14 99  1  0  0  0
 15100  1  0  0  0
 16 17  2  0  0  0
 16 21  1  0  0  0
 16 31  1  0  0  0
 17 18  1  0  0  0
 17101  1  0  0  0
 18 19  2  0  0  0
 18102  1  0  0  0
 19 20  1  0  0  0
 19 24  1  0  0  0
 20 21  2  0  0  0
 20103  1  0  0  0
 21 23  1  0  0  0
 22 28  1  0  0  0
 22 32  2  0  0  0
 26 27  1  0  0  0
 28104  1  0  0  0
 28105  1  0  0  0
 29106  1  0  0  0
 29107  1  0  0  0
 33 34  1  0  0  0
 33 66  1  0  0  0
 33 70  2  0  0  0
 34 36  1  0  0  0
 34 59  1  0  0  0
 34108  1  0  0  0
 35 44  2  0  0  0
 35 45  1  0  0  0
 35 68  1  0  0  0
 36 56  1  0  0  0
 36109  1  0  0  0
 37 39  1  0  0  0
 37 47  1  0  0  0
 37 66  1  0  0  0
 37110  1  0  0  0
 38 43  2  0  0  0
 38 46  1  0  0  0
 38 47  1  0  0  0
 39 64  1  0  0  0
 39 67  2  0  0  0
 40 52  1  0  0  0
 40 53  2  0  0  0
 40 58  1  0  0  0
 41111  1  0  0  0
 41112  1  0  0  0
 41113  1  0  0  0
 41 48  1  0  0  0
 42 43  1  0  0  0
 42 66  1  0  0  0
 42114  1  0  0  0
 42115  1  0  0  0
 43 44  1  0  0  0
 44116  1  0  0  0
 45 46  2  0  0  0
 45117  1  0  0  0
 46118  1  0  0  0
 47119  1  0  0  0
 47120  1  0  0  0
 48 56  1  0  0  0
 48 65  1  0  0  0
 48121  1  0  0  0
 49 50  1  0  0  0
 49 53  1  0  0  0
 49 64  1  0  0  0
 49122  1  0  0  0
 50 51  1  0  0  0
 50123  1  0  0  0
 50124  1  0  0  0
 51 52  1  0  0  0
 51125  1  0  0  0
 51126  1  0  0  0
 52127  1  0  0  0
 52128  1  0  0  0
 53 54  1  0  0  0
 54 55  2  0  0  0
 54129  1  0  0  0
 55 57  1  0  0  0
 55130  1  0  0  0
 56 69  2  0  0  0
 57 58  2  0  0  0
 57131  1  0  0  0
 58132  1  0  0  0
 59 60  1  0  0  0
 59 61  1  0  0  0
 59 62  1  0  0  0
 60133  1  0  0  0
 60134  1  0  0  0
 60135  1  0  0  0
 61136  1  0  0  0
 61137  1  0  0  0
 61138  1  0  0  0
 62139  1  0  0  0
 62140  1  0  0  0
 62141  1  0  0  0
 63 65  1  0  0  0
 63142  1  0  0  0
 63143  1  0  0  0
 63144  1  0  0  0
 64145  1  0  0  0
 65146  1  0  0  0
 68 81  1  0  0  0
 71 73  2  0  0  0
 71 74  1  0  0  0
 71147  1  0  0  0
 72 73  1  0  0  0
 72 75  2  0  0  0
 72148  1  0  0  0
 73 77  1  0  0  0
 74 76  2  0  0  0
 74 82  1  0  0  0
 75 76  1  0  0  0
 75 83  1  0  0  0
 76 87  1  0  0  0
 77 84  2  0  0  0
 77149  1  0  0  0
 78 79  1  0  0  0
 78 80  1  0  0  0
 78 85  2  0  0  0
 79 81  1  0  0  0
 79 86  2  0  0  0
 80 83  1  0  0  0
 80150  1  0  0  0
 80151  1  0  0  0
 81152  1  0  0  0
 81153  1  0  0  0
 82154  1  0  0  0
 83155  1  0  0  0
M  ISO  4   1 100  68 101  81 101  82 100
M  END
> <chiral flag>
0

> <version>
0

> <s_m_source_file>
/data/baiqing/PycharmProjects/Reinvent-master-3.2/result/LINK_invent/BTK/process_docking_weight1_custom_product_contain_oxygen_bond_distance_aromatic_linkinvent_7_9_3/rearranged_h_0168.sdf

> <i_m_source_file_index>
66

> <r_mmod_Potential_Energy-OPLS-2005>
108.391036987305

> <r_mmod_Stretch_Energy-OPLS-2005>
58.1187934875488

> <r_mmod_Bend_Energy-OPLS-2005>
130.864868164062

> <r_mmod_Torsional_Energy-OPLS-2005>
240.523498535156

> <r_mmod_Improper_Torsional_Energy-OPLS-2005>
10.2304334640503

> <r_mmod_Van_der_Waal_Energy-OPLS-2005>
149.572631835938

> <r_mmod_Electrostatic_Energy-OPLS-2005>
-236.461135864258

> <r_mmod_Solvation_Energy-OPLS-2005>
-268.965942382812

> <b_mmod_Minimization_Converged-OPLS-2005>
0

> <r_mmod_RMS_Derivative-OPLS-2005>
4.02430152893066

$$$$
66
                    3D
 Structure written by MMmdl.
158166  0  0  1  0            999 V2000
  -30.6749  -14.5682   20.4648 C   0  0  0  0  0  0
  -30.4161  -12.3299   19.4736 C   0  0  0  0  0  0
  -29.5069  -12.4839   18.2354 C   0  0  0  0  0  0
  -28.0261  -12.3524   18.6366 C   0  0  0  0  0  0
  -27.6552  -13.2195   19.8688 C   0  0  2  0  0  0
  -28.6948  -13.0807   21.0056 C   0  0  0  0  0  0
  -25.2575  -13.8154   20.5685 C   0  0  0  0  0  0
  -24.1830  -13.0419   20.9134 C   0  0  0  0  0  0
  -24.6398  -11.6892   20.8677 C   0  0  0  0  0  0
  -23.9060  -10.4275   21.0364 C   0  0  0  0  0  0
  -24.3615   -9.4201   21.9147 C   0  0  0  0  0  0
  -23.6294   -8.2232   22.0724 C   0  0  0  0  0  0
  -22.4265   -8.0271   21.3527 C   0  0  0  0  0  0
  -21.9906   -9.0229   20.4619 C   0  0  0  0  0  0
  -22.7232  -10.2102   20.3022 C   0  0  0  0  0  0
  -21.6842   -6.0744   22.5268 C   0  0  0  0  0  0
  -21.4018   -6.5656   23.8204 C   0  0  0  0  0  0
  -21.3653   -5.6792   24.9159 C   0  0  0  0  0  0
  -21.6046   -4.3059   24.7206 C   0  0  0  0  0  0
  -21.8831   -3.8158   23.4328 C   0  0  0  0  0  0
  -21.9192   -4.6975   22.3387 C   0  0  0  0  0  0
  -22.7869  -13.5222   21.1821 C   0  0  0  0  0  0
  -22.1665   -4.2162   21.0959 F   0  0  0  0  0  0
  -21.5618   -3.4548   25.7724 F   0  0  0  0  0  0
  -30.0210  -13.3685   20.4446 N   0  0  0  0  0  0
  -26.3004  -12.9348   20.3338 N   0  0  0  0  0  0
  -25.9335  -11.6499   20.5737 N   0  0  0  0  0  0
  -22.0551  -12.8161   22.0373 N   0  0  0  0  0  0
  -25.4363  -15.1879   20.4185 N   0  0  0  0  0  0
  -31.8222  -14.6609   20.0368 O   0  0  0  0  0  0
  -21.6625   -6.8879   21.4228 O   0  0  0  0  0  0
  -22.3579  -14.5571   20.6740 O   0  0  0  0  0  0
  -24.6165  -31.8631   23.2054 C   0  0  0  0  0  0
  -25.9036  -32.4794   23.8364 C   0  0  1  0  0  0
  -27.2132  -27.3770   20.0830 C   0  0  0  0  0  0
  -25.5874  -33.8600   24.2280 N   0  0  0  0  0  0
  -23.4060  -30.4875   21.5485 C   0  0  2  0  0  0
  -24.8455  -28.9484   20.1058 C   0  0  0  0  0  0
  -22.7418  -29.4622   22.4963 C   0  0  0  0  0  0
  -18.0269  -28.1373   22.8486 C   0  0  0  0  0  0
  -24.1482  -36.7317   23.2633 C   0  0  0  0  0  0
  -25.9388  -30.8101   21.3645 C   0  0  0  0  0  0
  -26.0102  -29.4409   20.7069 C   0  0  0  0  0  0
  -27.1945  -28.6605   20.6933 C   0  0  0  0  0  0
  -26.0248  -26.9106   19.4782 C   0  0  0  0  0  0
  -24.8505  -27.6853   19.4892 C   0  0  0  0  0  0
  -23.6127  -29.8226   20.1617 C   0  0  0  0  0  0
  -25.4103  -36.3093   24.0328 C   0  0  1  0  0  0
  -20.5866  -28.3650   23.1316 C   0  0  2  0  0  0
  -20.6749  -26.9387   22.5408 C   0  0  0  0  0  0
  -19.5730  -26.6382   21.5197 C   0  0  0  0  0  0
  -18.1918  -26.7916   22.1622 C   0  0  0  0  0  0
  -19.1527  -28.8826   23.2897 C   0  0  0  0  0  0
  -18.9456  -30.1439   23.8894 C   0  0  0  0  0  0
  -17.6457  -30.6579   24.0562 C   0  0  0  0  0  0
  -25.9039  -34.9462   23.5107 C   0  0  0  0  0  0
  -16.5345  -29.9075   23.6328 C   0  0  0  0  0  0
  -16.7265  -28.6501   23.0336 C   0  0  0  0  0  0
  -26.4443  -31.6593   25.0712 C   0  0  0  0  0  0
  -25.3696  -31.3737   26.1467 C   0  0  0  0  0  0
  -27.0255  -30.3017   24.6115 C   0  0  0  0  0  0
  -27.6010  -32.4307   25.7493 C   0  0  0  0  0  0
  -27.5586  -37.1792   24.8445 C   0  0  0  0  0  0
  -21.4141  -29.3020   22.3720 N   0  0  0  0  0  0
  -26.4271  -37.3796   23.9427 N   0  0  0  0  0  0
  -24.6734  -31.0684   22.0976 N   0  0  0  0  0  0
  -23.4187  -28.8145   23.3005 O   0  0  0  0  0  0
  -28.3647  -26.6032   20.1251 O   0  0  0  0  0  0
  -26.5639  -34.8925   22.4688 O   0  0  0  0  0  0
  -23.5352  -32.1410   23.7422 O   0  0  0  0  0  0
  -29.2921  -19.3697   20.2722 C   0  0  0  0  0  0
  -30.9305  -21.0833   20.7808 C   0  0  0  0  0  0
  -30.2989  -18.3454   20.3111 C   0  0  0  0  0  0
  -31.6491  -18.7323   20.6059 C   0  0  0  0  0  0
  -29.6020  -20.7440   20.4890 C   0  0  0  0  0  0
  -31.9432  -20.1144   20.8371 C   0  0  0  0  0  0
  -28.4179  -25.3289   19.5670 C   0  0  0  0  0  0
  -28.4026  -24.1747   20.2876 C   0  0  0  0  0  0
  -28.6273  -22.8576   19.6448 C   0  0  0  0  0  0
  -29.9260  -16.9007   19.8257 C   0  0  0  0  0  0
  -32.7655  -17.6728   20.6411 C   0  0  0  0  0  0
  -33.2206  -20.6147   21.1166 N   0  0  0  0  0  0
  -28.6458  -21.8185   20.5155 N   0  0  0  0  0  0
  -29.9270  -15.6830   20.7011 N   0  0  0  0  0  0
  -28.7775  -22.6838   18.4320 O   0  0  0  0  0  0
  -28.2249  -24.2405   21.6152 O   0  0  0  0  0  0
  -32.8429  -17.0649   19.4595 F   0  0  0  0  0  0
  -33.9919  -18.1350   20.8909 F   0  0  0  0  0  0
  -32.4973  -16.8004   21.6119 F   0  0  0  0  0  0
  -31.4671  -12.3924   19.1865 H   0  0  0  0  0  0
  -30.2957  -11.3413   19.9179 H   0  0  0  0  0  0
  -29.7551  -11.7314   17.4866 H   0  0  0  0  0  0
  -29.6824  -13.4519   17.7644 H   0  0  0  0  0  0
  -27.8304  -11.3011   18.8518 H   0  0  0  0  0  0
  -27.3861  -12.6064   17.7918 H   0  0  0  0  0  0
  -27.6744  -14.2547   19.5289 H   0  0  0  0  0  0
  -28.6752  -12.0699   21.4160 H   0  0  0  0  0  0
  -28.4542  -13.7474   21.8352 H   0  0  0  0  0  0
  -25.2764   -9.5674   22.4717 H   0  0  0  0  0  0
  -24.0006   -7.4632   22.7443 H   0  0  0  0  0  0
  -21.0835   -8.8745   19.8929 H   0  0  0  0  0  0
  -22.3691  -10.9640   19.6128 H   0  0  0  0  0  0
  -21.2021   -7.6168   23.9725 H   0  0  0  0  0  0
  -21.1466   -6.0504   25.9063 H   0  0  0  0  0  0
  -22.0620   -2.7626   23.2796 H   0  0  0  0  0  0
  -22.4199  -11.9796   22.4665 H   0  0  0  0  0  0
  -21.1199  -13.1165   22.2696 H   0  0  0  0  0  0
  -24.6711  -15.8441   20.5264 H   0  0  0  0  0  0
  -26.2890  -15.6239   20.0915 H   0  0  0  0  0  0
  -26.7090  -32.5474   23.1111 H   0  0  0  0  0  0
  -24.9967  -33.9755   25.0380 H   0  0  0  0  0  0
  -22.6954  -31.3061   21.4124 H   0  0  0  0  0  0
  -23.3737  -35.9650   23.3258 H   0  0  0  0  0  0
  -24.3596  -36.8982   22.2055 H   0  0  0  0  0  0
  -23.7225  -37.6504   23.6688 H   0  0  0  0  0  0
  -26.0510  -31.5741   20.5940 H   0  0  0  0  0  0
  -26.8259  -30.8658   21.9834 H   0  0  0  0  0  0
  -28.0942  -29.0323   21.1628 H   0  0  0  0  0  0
  -25.9843  -25.9396   19.0067 H   0  0  0  0  0  0
  -23.9518  -27.3044   19.0225 H   0  0  0  0  0  0
  -23.7190  -30.5984   19.4028 H   0  0  0  0  0  0
  -22.7332  -29.2479   19.8682 H   0  0  0  0  0  0
  -25.1260  -36.1939   25.0816 H   0  0  0  0  0  0
  -20.9974  -28.3209   24.1433 H   0  0  0  0  0  0
  -20.5631  -26.2260   23.3598 H   0  0  0  0  0  0
  -21.6621  -26.7407   22.1219 H   0  0  0  0  0  0
  -19.6887  -25.6297   21.1216 H   0  0  0  0  0  0
  -19.6671  -27.3200   20.6733 H   0  0  0  0  0  0
  -17.4182  -26.6658   21.4034 H   0  0  0  0  0  0
  -18.0336  -26.0067   22.9029 H   0  0  0  0  0  0
  -19.7940  -30.7255   24.2265 H   0  0  0  0  0  0
  -17.5017  -31.6268   24.5148 H   0  0  0  0  0  0
  -15.5346  -30.2962   23.7667 H   0  0  0  0  0  0
  -15.8676  -28.0825   22.7018 H   0  0  0  0  0  0
  -24.5848  -30.7106   25.7815 H   0  0  0  0  0  0
  -24.8915  -32.2918   26.4894 H   0  0  0  0  0  0
  -25.8041  -30.8919   27.0234 H   0  0  0  0  0  0
  -26.2807  -29.6824   24.1106 H   0  0  0  0  0  0
  -27.3922  -29.7220   25.4591 H   0  0  0  0  0  0
  -27.8692  -30.4306   23.9332 H   0  0  0  0  0  0
  -27.2610  -33.3595   26.2096 H   0  0  0  0  0  0
  -28.3824  -32.6888   25.0328 H   0  0  0  0  0  0
  -28.0673  -31.8410   26.5397 H   0  0  0  0  0  0
  -28.2527  -38.0159   24.7579 H   0  0  0  0  0  0
  -28.1150  -36.2692   24.6134 H   0  0  0  0  0  0
  -27.2347  -37.1289   25.8855 H   0  0  0  0  0  0
  -20.9278  -29.8791   21.6996 H   0  0  0  0  0  0
  -26.0143  -38.2858   24.1475 H   0  0  0  0  0  0
  -28.2710  -19.1047   20.0386 H   0  0  0  0  0  0
  -31.1774  -22.1186   20.9725 H   0  0  0  0  0  0
  -28.5259  -25.3612   18.4908 H   0  0  0  0  0  0
  -30.5118  -16.6981   18.9282 H   0  0  0  0  0  0
  -28.9070  -16.9563   19.4381 H   0  0  0  0  0  0
  -33.4329  -21.5700   20.8478 H   0  0  0  0  0  0
  -34.0075  -19.9855   20.9760 H   0  0  0  0  0  0
  -28.3713  -22.1268   21.4416 H   0  0  0  0  0  0
  -29.0469  -15.4942   21.1558 H   0  0  0  0  0  0
  -28.1222  -25.1605   21.8292 H   0  0  0  0  0  0
  1 25  1  0  0  0
  1 30  2  0  0  0
  1 84  1  0  0  0
  2  3  1  0  0  0
  2 25  1  0  0  0
  2 90  1  0  0  0
  2 91  1  0  0  0
  3  4  1  0  0  0
  3 92  1  0  0  0
  3 93  1  0  0  0
  4  5  1  0  0  0
  4 94  1  0  0  0
  4 95  1  0  0  0
  5  6  1  0  0  0
  5 26  1  0  0  0
  5 96  1  0  0  0
  6 25  1  0  0  0
  6 97  1  0  0  0
  6 98  1  0  0  0
  7  8  2  0  0  0
  7 26  1  0  0  0
  7 29  1  0  0  0
  8  9  1  0  0  0
  8 22  1  0  0  0
  9 10  1  0  0  0
  9 27  2  0  0  0
 10 11  2  0  0  0
 10 15  1  0  0  0
 11 12  1  0  0  0
 11 99  1  0  0  0
 12 13  2  0  0  0
 12100  1  0  0  0
 13 14  1  0  0  0
 13 31  1  0  0  0
 14 15  2  0  0  0
 14101  1  0  0  0
 15102  1  0  0  0
 16 17  2  0  0  0
 16 21  1  0  0  0
 16 31  1  0  0  0
 17 18  1  0  0  0
 17103  1  0  0  0
 18 19  2  0  0  0
 18104  1  0  0  0
 19 20  1  0  0  0
 19 24  1  0  0  0
 20 21  2  0  0  0
 20105  1  0  0  0
 21 23  1  0  0  0
 22 28  1  0  0  0
 22 32  2  0  0  0
 26 27  1  0  0  0
 28106  1  0  0  0
 28107  1  0  0  0
 29108  1  0  0  0
 29109  1  0  0  0
 33 34  1  0  0  0
 33 66  1  0  0  0
 33 70  2  0  0  0
 34 36  1  0  0  0
 34 59  1  0  0  0
 34110  1  0  0  0
 35 44  2  0  0  0
 35 45  1  0  0  0
 35 68  1  0  0  0
 36 56  1  0  0  0
 36111  1  0  0  0
 37 39  1  0  0  0
 37 47  1  0  0  0
 37 66  1  0  0  0
 37112  1  0  0  0
 38 43  2  0  0  0
 38 46  1  0  0  0
 38 47  1  0  0  0
 39 64  1  0  0  0
 39 67  2  0  0  0
 40 52  1  0  0  0
 40 53  2  0  0  0
 40 58  1  0  0  0
 41113  1  0  0  0
 41114  1  0  0  0
 41115  1  0  0  0
 41 48  1  0  0  0
 42 43  1  0  0  0
 42 66  1  0  0  0
 42116  1  0  0  0
 42117  1  0  0  0
 43 44  1  0  0  0
 44118  1  0  0  0
 45 46  2  0  0  0
 45119  1  0  0  0
 46120  1  0  0  0
 47121  1  0  0  0
 47122  1  0  0  0
 48 56  1  0  0  0
 48 65  1  0  0  0
 48123  1  0  0  0
 49 50  1  0  0  0
 49 53  1  0  0  0
 49 64  1  0  0  0
 49124  1  0  0  0
 50 51  1  0  0  0
 50125  1  0  0  0
 50126  1  0  0  0
 51 52  1  0  0  0
 51127  1  0  0  0
 51128  1  0  0  0
 52129  1  0  0  0
 52130  1  0  0  0
 53 54  1  0  0  0
 54 55  2  0  0  0
 54131  1  0  0  0
 55 57  1  0  0  0
 55132  1  0  0  0
 56 69  2  0  0  0
 57 58  2  0  0  0
 57133  1  0  0  0
 58134  1  0  0  0
 59 60  1  0  0  0
 59 61  1  0  0  0
 59 62  1  0  0  0
 60135  1  0  0  0
 60136  1  0  0  0
 60137  1  0  0  0
 61138  1  0  0  0
 61139  1  0  0  0
 61140  1  0  0  0
 62141  1  0  0  0
 62142  1  0  0  0
 62143  1  0  0  0
 63 65  1  0  0  0
 63144  1  0  0  0
 63145  1  0  0  0
 63146  1  0  0  0
 64147  1  0  0  0
 65148  1  0  0  0
 68 77  1  0  0  0
 71 73  2  0  0  0
 71 75  1  0  0  0
 71149  1  0  0  0
 72 75  2  0  0  0
 72 76  1  0  0  0
 72150  1  0  0  0
 73 74  1  0  0  0
 73 80  1  0  0  0
 74 76  2  0  0  0
 74 81  1  0  0  0
 75 83  1  0  0  0
 76 82  1  0  0  0
 77 78  2  0  0  0
 77151  1  0  0  0
 78 79  1  0  0  0
 78 86  1  0  0  0
 79 83  1  0  0  0
 79 85  2  0  0  0
 80 84  1  0  0  0
 80152  1  0  0  0
 80153  1  0  0  0
 81 87  1  0  0  0
 81 88  1  0  0  0
 81 89  1  0  0  0
 82154  1  0  0  0
 82155  1  0  0  0
 83156  1  0  0  0
 84157  1  0  0  0
 86158  1  0  0  0
M  ISO  4   1 100  68 101  77 101  84 100
M  END
> <chiral flag>
0

> <version>
0

> <s_m_source_file>
/data/baiqing/PycharmProjects/Reinvent-master-3.2/result/LINK_invent/BTK/process_docking_weight1_custom_product_contain_oxygen_bond_distance_aromatic_linkinvent_7_9_3/rearranged_h_0168.sdf

> <i_m_source_file_index>
67

> <r_mmod_Potential_Energy-OPLS-2005>
132.377990722656

> <r_mmod_Stretch_Energy-OPLS-2005>
59.9772109985352

> <r_mmod_Bend_Energy-OPLS-2005>
135.25260925293

> <r_mmod_Torsional_Energy-OPLS-2005>
281.026397705078

> <r_mmod_Improper_Torsional_Energy-OPLS-2005>
17.3467350006104

> <r_mmod_Van_der_Waal_Energy-OPLS-2005>
164.931091308594

> <r_mmod_Electrostatic_Energy-OPLS-2005>
-321.849151611328

> <r_mmod_Solvation_Energy-OPLS-2005>
-234.37646484375

> <b_mmod_Minimization_Converged-OPLS-2005>
0

> <r_mmod_RMS_Derivative-OPLS-2005>
3.11136960983276

$$$$
67
                    3D
 Structure written by MMmdl.
158166  0  0  1  0            999 V2000
  -30.6884  -14.4680   20.6017 C   0  0  0  0  0  0
  -30.4327  -12.3157   19.4136 C   0  0  0  0  0  0
  -29.4963  -12.5193   18.2032 C   0  0  0  0  0  0
  -28.0178  -12.3729   18.6161 C   0  0  0  0  0  0
  -27.6662  -13.2023   19.8798 C   0  0  2  0  0  0
  -28.7066  -12.9552   20.9953 C   0  0  0  0  0  0
  -25.2609  -13.8141   20.5673 C   0  0  0  0  0  0
  -24.1852  -13.0429   20.9165 C   0  0  0  0  0  0
  -24.6396  -11.6892   20.8726 C   0  0  0  0  0  0
  -23.9060  -10.4283   21.0402 C   0  0  0  0  0  0
  -24.3614   -9.4203   21.9184 C   0  0  0  0  0  0
  -23.6289   -8.2238   22.0756 C   0  0  0  0  0  0
  -22.4271   -8.0276   21.3544 C   0  0  0  0  0  0
  -21.9905   -9.0250   20.4648 C   0  0  0  0  0  0
  -22.7234  -10.2129   20.3054 C   0  0  0  0  0  0
  -21.6852   -6.0737   22.5279 C   0  0  0  0  0  0
  -21.4010   -6.5639   23.8212 C   0  0  0  0  0  0
  -21.3656   -5.6791   24.9174 C   0  0  0  0  0  0
  -21.6043   -4.3055   24.7222 C   0  0  0  0  0  0
  -21.8822   -3.8148   23.4344 C   0  0  0  0  0  0
  -21.9194   -4.6965   22.3399 C   0  0  0  0  0  0
  -22.7876  -13.5241   21.1830 C   0  0  0  0  0  0
  -22.1662   -4.2151   21.0976 F   0  0  0  0  0  0
  -21.5629   -3.4538   25.7732 F   0  0  0  0  0  0
  -30.0420  -13.2775   20.4560 N   0  0  0  0  0  0
  -26.3046  -12.9306   20.3377 N   0  0  0  0  0  0
  -25.9326  -11.6470   20.5758 N   0  0  0  0  0  0
  -22.0508  -12.8234   22.0383 N   0  0  0  0  0  0
  -25.4339  -15.1862   20.4086 N   0  0  0  0  0  0
  -31.7822  -14.7080   20.0820 O   0  0  0  0  0  0
  -21.6637   -6.8877   21.4240 O   0  0  0  0  0  0
  -22.3571  -14.5557   20.6689 O   0  0  0  0  0  0
  -24.6143  -31.8671   23.2087 C   0  0  0  0  0  0
  -25.9036  -32.4819   23.8389 C   0  0  1  0  0  0
  -27.2390  -27.4368   20.1008 C   0  0  0  0  0  0
  -25.5894  -33.8617   24.2323 N   0  0  0  0  0  0
  -23.4036  -30.4891   21.5482 C   0  0  2  0  0  0
  -24.8532  -28.9510   20.1176 C   0  0  0  0  0  0
  -22.7410  -29.4652   22.4979 C   0  0  0  0  0  0
  -18.0269  -28.1379   22.8488 C   0  0  0  0  0  0
  -24.1480  -36.7305   23.2636 C   0  0  0  0  0  0
  -25.9314  -30.8346   21.3607 C   0  0  0  0  0  0
  -26.0126  -29.4671   20.7115 C   0  0  0  0  0  0
  -27.2121  -28.7175   20.6991 C   0  0  0  0  0  0
  -26.0659  -26.9303   19.5061 C   0  0  0  0  0  0
  -24.8738  -27.6807   19.5132 C   0  0  0  0  0  0
  -23.6141  -29.8173   20.1644 C   0  0  0  0  0  0
  -25.4103  -36.3107   24.0340 C   0  0  1  0  0  0
  -20.5860  -28.3660   23.1317 C   0  0  2  0  0  0
  -20.6757  -26.9395   22.5424 C   0  0  0  0  0  0
  -19.5746  -26.6386   21.5210 C   0  0  0  0  0  0
  -18.1917  -26.7931   22.1609 C   0  0  0  0  0  0
  -19.1521  -28.8836   23.2901 C   0  0  0  0  0  0
  -18.9449  -30.1442   23.8913 C   0  0  0  0  0  0
  -17.6453  -30.6584   24.0566 C   0  0  0  0  0  0
  -25.9034  -34.9476   23.5130 C   0  0  0  0  0  0
  -16.5343  -29.9089   23.6331 C   0  0  0  0  0  0
  -16.7258  -28.6509   23.0344 C   0  0  0  0  0  0
  -26.4470  -31.6598   25.0714 C   0  0  0  0  0  0
  -25.3748  -31.3731   26.1481 C   0  0  0  0  0  0
  -27.0270  -30.3029   24.6089 C   0  0  0  0  0  0
  -27.6065  -32.4306   25.7458 C   0  0  0  0  0  0
  -27.5584  -37.1799   24.8455 C   0  0  0  0  0  0
  -21.4136  -29.3025   22.3722 N   0  0  0  0  0  0
  -26.4282  -37.3801   23.9423 N   0  0  0  0  0  0
  -24.6678  -31.0777   22.0980 N   0  0  0  0  0  0
  -23.4182  -28.8191   23.3021 O   0  0  0  0  0  0
  -28.3908  -26.6855   20.0675 O   0  0  0  0  0  0
  -26.5596  -34.8929   22.4689 O   0  0  0  0  0  0
  -23.5337  -32.1413   23.7488 O   0  0  0  0  0  0
  -30.0785  -18.8285   22.7445 C   0  0  0  0  0  0
  -30.3369  -19.6462   21.6197 C   0  0  0  0  0  0
  -30.1906  -16.7973   21.3778 C   0  0  0  0  0  0
  -29.9995  -17.4273   22.6239 C   0  0  0  0  0  0
  -30.4959  -19.0229   20.3574 C   0  0  0  0  0  0
  -30.4211  -17.6098   20.2357 C   0  0  0  0  0  0
  -30.4740  -21.1050   21.8207 C   0  0  0  0  0  0
  -28.9684  -24.2942   20.3855 C   0  0  0  0  0  0
  -31.4568  -24.0744   20.8190 C   0  0  0  0  0  0
  -28.4063  -25.5946   21.0040 C   0  0  0  0  0  0
  -30.0525  -23.5350   21.1894 C   0  0  2  0  0  0
  -30.0217  -15.3785   21.3295 N   0  0  0  0  0  0
  -29.9654  -22.0538   20.9989 N   0  0  0  0  0  0
  -31.1359  -21.5331   22.9016 N   0  3  0  0  0  0
  -28.5555  -23.8804   19.2979 O   0  0  0  0  0  0
  -29.7321  -16.6776   23.7220 F   0  0  0  0  0  0
  -30.7152  -19.7796   19.2521 F   0  0  0  0  0  0
  -30.5230  -17.0464   19.0054 F   0  0  0  0  0  0
  -31.4749  -12.4335   19.1105 H   0  0  0  0  0  0
  -30.3486  -11.2968   19.7948 H   0  0  0  0  0  0
  -29.7368  -11.8021   17.4175 H   0  0  0  0  0  0
  -29.6604  -13.5090   17.7729 H   0  0  0  0  0  0
  -27.8300  -11.3151   18.8040 H   0  0  0  0  0  0
  -27.3658  -12.6530   17.7879 H   0  0  0  0  0  0
  -27.7176  -14.2543   19.5991 H   0  0  0  0  0  0
  -28.6841  -11.9091   21.3044 H   0  0  0  0  0  0
  -28.4534  -13.5194   21.8937 H   0  0  0  0  0  0
  -25.2762   -9.5677   22.4753 H   0  0  0  0  0  0
  -23.9999   -7.4630   22.7476 H   0  0  0  0  0  0
  -21.0834   -8.8766   19.8958 H   0  0  0  0  0  0
  -22.3695  -10.9663   19.6158 H   0  0  0  0  0  0
  -21.1995   -7.6149   23.9712 H   0  0  0  0  0  0
  -21.1475   -6.0522   25.9074 H   0  0  0  0  0  0
  -22.0604   -2.7610   23.2837 H   0  0  0  0  0  0
  -22.4111  -11.9881   22.4755 H   0  0  0  0  0  0
  -21.1128  -13.1267   22.2582 H   0  0  0  0  0  0
  -24.6653  -15.8401   20.5101 H   0  0  0  0  0  0
  -26.2848  -15.6237   20.0790 H   0  0  0  0  0  0
  -26.7110  -32.5537   23.1157 H   0  0  0  0  0  0
  -25.0062  -33.9781   25.0480 H   0  0  0  0  0  0
  -22.6932  -31.3057   21.4060 H   0  0  0  0  0  0
  -23.3760  -35.9619   23.3281 H   0  0  0  0  0  0
  -24.3589  -36.8936   22.2055 H   0  0  0  0  0  0
  -23.7204  -37.6496   23.6658 H   0  0  0  0  0  0
  -26.0420  -31.6000   20.5912 H   0  0  0  0  0  0
  -26.8192  -30.8904   21.9788 H   0  0  0  0  0  0
  -28.1107  -29.1143   21.1514 H   0  0  0  0  0  0
  -26.0788  -25.9567   19.0362 H   0  0  0  0  0  0
  -23.9823  -27.2772   19.0527 H   0  0  0  0  0  0
  -23.7228  -30.5900   19.4027 H   0  0  0  0  0  0
  -22.7393  -29.2349   19.8692 H   0  0  0  0  0  0
  -25.1279  -36.1964   25.0833 H   0  0  0  0  0  0
  -20.9950  -28.3221   24.1436 H   0  0  0  0  0  0
  -20.5642  -26.2268   23.3611 H   0  0  0  0  0  0
  -21.6630  -26.7429   22.1222 H   0  0  0  0  0  0
  -19.6910  -25.6302   21.1220 H   0  0  0  0  0  0
  -19.6702  -27.3209   20.6751 H   0  0  0  0  0  0
  -17.4197  -26.6694   21.3998 H   0  0  0  0  0  0
  -18.0305  -26.0062   22.8991 H   0  0  0  0  0  0
  -19.7927  -30.7247   24.2293 H   0  0  0  0  0  0
  -17.5013  -31.6267   24.5164 H   0  0  0  0  0  0
  -15.5345  -30.2995   23.7660 H   0  0  0  0  0  0
  -15.8655  -28.0836   22.7049 H   0  0  0  0  0  0
  -24.5886  -30.7112   25.7833 H   0  0  0  0  0  0
  -24.8986  -32.2898   26.4967 H   0  0  0  0  0  0
  -25.8107  -30.8869   27.0214 H   0  0  0  0  0  0
  -26.2789  -29.6801   24.1165 H   0  0  0  0  0  0
  -27.4044  -29.7265   25.4544 H   0  0  0  0  0  0
  -27.8633  -30.4326   23.9215 H   0  0  0  0  0  0
  -27.2716  -33.3623   26.2028 H   0  0  0  0  0  0
  -28.3877  -32.6827   25.0275 H   0  0  0  0  0  0
  -28.0719  -31.8422   26.5374 H   0  0  0  0  0  0
  -28.2579  -38.0117   24.7540 H   0  0  0  0  0  0
  -28.1094  -36.2654   24.6211 H   0  0  0  0  0  0
  -27.2321  -37.1365   25.8860 H   0  0  0  0  0  0
  -20.9294  -29.8752   21.6950 H   0  0  0  0  0  0
  -26.0165  -38.2868   24.1471 H   0  0  0  0  0  0
  -29.9328  -19.2689   23.7206 H   0  0  0  0  0  0
  -31.9378  -24.5213   21.6899 H   0  0  0  0  0  0
  -31.4274  -24.8433   20.0443 H   0  0  0  0  0  0
  -32.1197  -23.2894   20.4533 H   0  0  0  0  0  0
  -29.0113  -25.8790   21.8646 H   0  0  0  0  0  0
  -27.4044  -25.3832   21.3797 H   0  0  0  0  0  0
  -29.8679  -23.7437   22.2445 H   0  0  0  0  0  0
  -29.2679  -15.0171   21.8911 H   0  0  0  0  0  0
  -29.4938  -21.7446   20.1550 H   0  0  0  0  0  0
  -31.5969  -20.8742   23.5091 H   0  0  0  0  0  0
  -31.2649  -22.5155   23.0723 H   0  0  0  0  0  0
  1 25  1  0  0  0
  1 30  2  0  0  0
  1 82  1  0  0  0
  2  3  1  0  0  0
  2 25  1  0  0  0
  2 89  1  0  0  0
  2 90  1  0  0  0
  3  4  1  0  0  0
  3 91  1  0  0  0
  3 92  1  0  0  0
  4  5  1  0  0  0
  4 93  1  0  0  0
  4 94  1  0  0  0
  5  6  1  0  0  0
  5 26  1  0  0  0
  5 95  1  0  0  0
  6 25  1  0  0  0
  6 96  1  0  0  0
  6 97  1  0  0  0
  7  8  2  0  0  0
  7 26  1  0  0  0
  7 29  1  0  0  0
  8  9  1  0  0  0
  8 22  1  0  0  0
  9 10  1  0  0  0
  9 27  2  0  0  0
 10 11  2  0  0  0
 10 15  1  0  0  0
 11 12  1  0  0  0
 11 98  1  0  0  0
 12 13  2  0  0  0
 12 99  1  0  0  0
 13 14  1  0  0  0
 13 31  1  0  0  0
 14 15  2  0  0  0
 14100  1  0  0  0
 15101  1  0  0  0
 16 17  2  0  0  0
 16 21  1  0  0  0
 16 31  1  0  0  0
 17 18  1  0  0  0
 17102  1  0  0  0
 18 19  2  0  0  0
 18103  1  0  0  0
 19 20  1  0  0  0
 19 24  1  0  0  0
 20 21  2  0  0  0
 20104  1  0  0  0
 21 23  1  0  0  0
 22 28  1  0  0  0
 22 32  2  0  0  0
 26 27  1  0  0  0
 28105  1  0  0  0
 28106  1  0  0  0
 29107  1  0  0  0
 29108  1  0  0  0
 33 34  1  0  0  0
 33 66  1  0  0  0
 33 70  2  0  0  0
 34 36  1  0  0  0
 34 59  1  0  0  0
 34109  1  0  0  0
 35 44  2  0  0  0
 35 45  1  0  0  0
 35 68  1  0  0  0
 36 56  1  0  0  0
 36110  1  0  0  0
 37 39  1  0  0  0
 37 47  1  0  0  0
 37 66  1  0  0  0
 37111  1  0  0  0
 38 43  2  0  0  0
 38 46  1  0  0  0
 38 47  1  0  0  0
 39 64  1  0  0  0
 39 67  2  0  0  0
 40 52  1  0  0  0
 40 53  2  0  0  0
 40 58  1  0  0  0
 41112  1  0  0  0
 41113  1  0  0  0
 41114  1  0  0  0
 41 48  1  0  0  0
 42 43  1  0  0  0
 42 66  1  0  0  0
 42115  1  0  0  0
 42116  1  0  0  0
 43 44  1  0  0  0
 44117  1  0  0  0
 45 46  2  0  0  0
 45118  1  0  0  0
 46119  1  0  0  0
 47120  1  0  0  0
 47121  1  0  0  0
 48 56  1  0  0  0
 48 65  1  0  0  0
 48122  1  0  0  0
 49 50  1  0  0  0
 49 53  1  0  0  0
 49 64  1  0  0  0
 49123  1  0  0  0
 50 51  1  0  0  0
 50124  1  0  0  0
 50125  1  0  0  0
 51 52  1  0  0  0
 51126  1  0  0  0
 51127  1  0  0  0
 52128  1  0  0  0
 52129  1  0  0  0
 53 54  1  0  0  0
 54 55  2  0  0  0
 54130  1  0  0  0
 55 57  1  0  0  0
 55131  1  0  0  0
 56 69  2  0  0  0
 57 58  2  0  0  0
 57132  1  0  0  0
 58133  1  0  0  0
 59 60  1  0  0  0
 59 61  1  0  0  0
 59 62  1  0  0  0
 60134  1  0  0  0
 60135  1  0  0  0
 60136  1  0  0  0
 61137  1  0  0  0
 61138  1  0  0  0
 61139  1  0  0  0
 62140  1  0  0  0
 62141  1  0  0  0
 62142  1  0  0  0
 63 65  1  0  0  0
 63143  1  0  0  0
 63144  1  0  0  0
 63145  1  0  0  0
 64146  1  0  0  0
 65147  1  0  0  0
 68 80  1  0  0  0
 71 72  2  0  0  0
 71 74  1  0  0  0
 71148  1  0  0  0
 72 75  1  0  0  0
 72 77  1  0  0  0
 73 74  2  0  0  0
 73 76  1  0  0  0
 73 82  1  0  0  0
 74 86  1  0  0  0
 75 76  2  0  0  0
 75 87  1  0  0  0
 76 88  1  0  0  0
 77 83  1  0  0  0
 77 84  2  0  0  0
 78 80  1  0  0  0
 78 81  1  0  0  0
 78 85  2  0  0  0
 79149  1  0  0  0
 79150  1  0  0  0
 79151  1  0  0  0
 79 81  1  0  0  0
 80152  1  0  0  0
 80153  1  0  0  0
 81 83  1  0  0  0
 81154  1  0  0  0
 82155  1  0  0  0
 83156  1  0  0  0
 84157  1  0  0  0
 84158  1  0  0  0
M  CHG  1  84   1
M  ISO  4   1 100  68 101  80 101  82 100
M  END
> <chiral flag>
0

> <version>
0

> <s_m_source_file>
/data/baiqing/PycharmProjects/Reinvent-master-3.2/result/LINK_invent/BTK/process_docking_weight1_custom_product_contain_oxygen_bond_distance_aromatic_linkinvent_7_9_3/rearranged_h_0168.sdf

> <i_m_source_file_index>
68

> <r_mmod_Potential_Energy-OPLS-2005>
-388.463165283203

> <r_mmod_Stretch_Energy-OPLS-2005>
40.1574783325195

> <r_mmod_Bend_Energy-OPLS-2005>
94.9195022583008

> <r_mmod_Torsional_Energy-OPLS-2005>
251.603790283203

> <r_mmod_Improper_Torsional_Energy-OPLS-2005>
2.72779393196106

> <r_mmod_Van_der_Waal_Energy-OPLS-2005>
154.772109985352

> <r_mmod_Electrostatic_Energy-OPLS-2005>
-476.787170410156

> <r_mmod_Solvation_Energy-OPLS-2005>
-466.786743164062

> <b_mmod_Minimization_Converged-OPLS-2005>
0

> <r_mmod_RMS_Derivative-OPLS-2005>
0.867567121982574

$$$$
68
                    3D
 Structure written by MMmdl.
155163  0  0  1  0            999 V2000
  -30.6875  -14.4905   20.5602 C   0  0  0  0  0  0
  -30.4203  -12.3094   19.4286 C   0  0  0  0  0  0
  -29.4953  -12.5025   18.2101 C   0  0  0  0  0  0
  -28.0164  -12.3603   18.6192 C   0  0  0  0  0  0
  -27.6573  -13.2039   19.8708 C   0  0  2  0  0  0
  -28.6972  -12.9957   20.9940 C   0  0  0  0  0  0
  -25.2598  -13.8156   20.5669 C   0  0  0  0  0  0
  -24.1842  -13.0447   20.9176 C   0  0  0  0  0  0
  -24.6387  -11.6905   20.8738 C   0  0  0  0  0  0
  -23.9054  -10.4289   21.0408 C   0  0  0  0  0  0
  -24.3611   -9.4209   21.9186 C   0  0  0  0  0  0
  -23.6292   -8.2245   22.0753 C   0  0  0  0  0  0
  -22.4278   -8.0283   21.3541 C   0  0  0  0  0  0
  -21.9919   -9.0246   20.4629 C   0  0  0  0  0  0
  -22.7241  -10.2125   20.3041 C   0  0  0  0  0  0
  -21.6853   -6.0744   22.5283 C   0  0  0  0  0  0
  -21.3994   -6.5635   23.8216 C   0  0  0  0  0  0
  -21.3656   -5.6790   24.9175 C   0  0  0  0  0  0
  -21.6047   -4.3060   24.7224 C   0  0  0  0  0  0
  -21.8819   -3.8156   23.4344 C   0  0  0  0  0  0
  -21.9192   -4.6973   22.3396 C   0  0  0  0  0  0
  -22.7869  -13.5256   21.1855 C   0  0  0  0  0  0
  -22.1671   -4.2163   21.0972 F   0  0  0  0  0  0
  -21.5634   -3.4541   25.7736 F   0  0  0  0  0  0
  -30.0246  -13.3055   20.4385 N   0  0  0  0  0  0
  -26.2996  -12.9301   20.3322 N   0  0  0  0  0  0
  -25.9303  -11.6469   20.5750 N   0  0  0  0  0  0
  -22.0505  -12.8223   22.0387 N   0  0  0  0  0  0
  -25.4369  -15.1861   20.4028 N   0  0  0  0  0  0
  -31.8324  -14.6393   20.1176 O   0  0  0  0  0  0
  -21.6636   -6.8888   21.4248 O   0  0  0  0  0  0
  -22.3565  -14.5584   20.6735 O   0  0  0  0  0  0
  -24.6170  -31.8649   23.2133 C   0  0  0  0  0  0
  -25.9071  -32.4794   23.8412 C   0  0  1  0  0  0
  -27.2211  -27.4253   20.1029 C   0  0  0  0  0  0
  -25.5929  -33.8600   24.2347 N   0  0  0  0  0  0
  -23.4035  -30.4939   21.5516 C   0  0  2  0  0  0
  -24.8461  -28.9574   20.1150 C   0  0  0  0  0  0
  -22.7396  -29.4676   22.4983 C   0  0  0  0  0  0
  -18.0263  -28.1401   22.8519 C   0  0  0  0  0  0
  -24.1470  -36.7282   23.2652 C   0  0  0  0  0  0
  -25.9335  -30.8286   21.3686 C   0  0  0  0  0  0
  -26.0079  -29.4644   20.7127 C   0  0  0  0  0  0
  -27.2022  -28.7064   20.7018 C   0  0  0  0  0  0
  -26.0458  -26.9319   19.4997 C   0  0  0  0  0  0
  -24.8601  -27.6900   19.5074 C   0  0  0  0  0  0
  -23.6104  -29.8282   20.1644 C   0  0  0  0  0  0
  -25.4099  -36.3082   24.0337 C   0  0  1  0  0  0
  -20.5854  -28.3675   23.1316 C   0  0  2  0  0  0
  -20.6750  -26.9407   22.5417 C   0  0  0  0  0  0
  -19.5707  -26.6399   21.5232 C   0  0  0  0  0  0
  -18.1881  -26.7963   22.1621 C   0  0  0  0  0  0
  -19.1515  -28.8855   23.2916 C   0  0  0  0  0  0
  -18.9452  -30.1479   23.8903 C   0  0  0  0  0  0
  -17.6449  -30.6602   24.0579 C   0  0  0  0  0  0
  -25.9033  -34.9453   23.5128 C   0  0  0  0  0  0
  -16.5346  -29.9101   23.6357 C   0  0  0  0  0  0
  -16.7255  -28.6528   23.0375 C   0  0  0  0  0  0
  -26.4514  -31.6576   25.0741 C   0  0  0  0  0  0
  -25.3806  -31.3601   26.1492 C   0  0  0  0  0  0
  -27.0372  -30.3022   24.6131 C   0  0  0  0  0  0
  -27.6076  -32.4310   25.7508 C   0  0  0  0  0  0
  -27.5581  -37.1781   24.8472 C   0  0  0  0  0  0
  -21.4119  -29.3051   22.3725 N   0  0  0  0  0  0
  -26.4282  -37.3784   23.9434 N   0  0  0  0  0  0
  -24.6695  -31.0755   22.1038 N   0  0  0  0  0  0
  -23.4153  -28.8206   23.3028 O   0  0  0  0  0  0
  -28.3691  -26.6664   20.0856 O   0  0  0  0  0  0
  -26.5572  -34.8913   22.4681 O   0  0  0  0  0  0
  -23.5356  -32.1409   23.7514 O   0  0  0  0  0  0
  -29.3045  -17.8833   21.1133 C   0  0  0  0  0  0
  -31.8589  -18.5227   21.8367 C   0  0  0  0  0  0
  -29.5906  -19.2529   21.3714 C   0  0  0  0  0  0
  -30.9145  -19.5658   21.7722 C   0  0  0  0  0  0
  -30.3129  -16.8878   21.2250 C   0  0  0  0  0  0
  -28.6941  -21.6047   20.5209 C   0  0  0  0  0  0
  -28.1308  -24.1740   20.2287 C   0  0  0  0  0  0
  -28.4669  -20.3109   21.3435 C   0  0  0  0  0  0
  -28.0963  -22.9054   21.1198 C   0  0  0  0  0  0
  -28.3485  -25.5200   20.9627 C   0  0  0  0  0  0
  -31.5694  -17.2330   21.5791 N   0  0  0  0  0  0
  -31.3065  -20.8590   22.1326 N   0  0  0  0  0  0
  -29.9370  -15.5256   21.0102 N   0  0  0  0  0  0
  -29.3343  -21.5839   19.4631 O   0  0  0  0  0  0
  -27.9092  -24.1373   19.0121 O   0  0  0  0  0  0
  -31.4665  -12.4026   19.1338 H   0  0  0  0  0  0
  -30.3171  -11.3005   19.8333 H   0  0  0  0  0  0
  -29.7416  -11.7817   17.4295 H   0  0  0  0  0  0
  -29.6630  -13.4898   17.7759 H   0  0  0  0  0  0
  -27.8303  -11.3046   18.8198 H   0  0  0  0  0  0
  -27.3675  -12.6302   17.7846 H   0  0  0  0  0  0
  -27.6974  -14.2489   19.5653 H   0  0  0  0  0  0
  -28.6751  -11.9606   21.3397 H   0  0  0  0  0  0
  -28.4607  -13.5994   21.8711 H   0  0  0  0  0  0
  -25.2747   -9.5694   22.4768 H   0  0  0  0  0  0
  -24.0008   -7.4640   22.7472 H   0  0  0  0  0  0
  -21.0864   -8.8748   19.8916 H   0  0  0  0  0  0
  -22.3710  -10.9661   19.6146 H   0  0  0  0  0  0
  -21.1966   -7.6140   23.9723 H   0  0  0  0  0  0
  -21.1481   -6.0514   25.9079 H   0  0  0  0  0  0
  -22.0600   -2.7621   23.2835 H   0  0  0  0  0  0
  -22.4113  -11.9855   22.4726 H   0  0  0  0  0  0
  -21.1118  -13.1226   22.2596 H   0  0  0  0  0  0
  -24.6713  -15.8449   20.4946 H   0  0  0  0  0  0
  -26.2750  -15.6091   20.0258 H   0  0  0  0  0  0
  -26.7155  -32.5478   23.1174 H   0  0  0  0  0  0
  -25.0141  -33.9759   25.0533 H   0  0  0  0  0  0
  -22.6949  -31.3132   21.4126 H   0  0  0  0  0  0
  -23.3760  -35.9580   23.3259 H   0  0  0  0  0  0
  -24.3579  -36.8959   22.2077 H   0  0  0  0  0  0
  -23.7176  -37.6443   23.6720 H   0  0  0  0  0  0
  -26.0576  -31.5993   20.6060 H   0  0  0  0  0  0
  -26.8167  -30.8714   21.9947 H   0  0  0  0  0  0
  -28.1007  -29.0933   21.1615 H   0  0  0  0  0  0
  -26.0413  -25.9645   19.0184 H   0  0  0  0  0  0
  -23.9670  -27.2967   19.0419 H   0  0  0  0  0  0
  -23.7218  -30.6041   19.4057 H   0  0  0  0  0  0
  -22.7317  -29.2535   19.8667 H   0  0  0  0  0  0
  -25.1282  -36.1939   25.0823 H   0  0  0  0  0  0
  -20.9950  -28.3246   24.1426 H   0  0  0  0  0  0
  -20.5657  -26.2280   23.3612 H   0  0  0  0  0  0
  -21.6622  -26.7458   22.1188 H   0  0  0  0  0  0
  -19.6846  -25.6309   21.1253 H   0  0  0  0  0  0
  -19.6646  -27.3220   20.6764 H   0  0  0  0  0  0
  -17.4161  -26.6783   21.3997 H   0  0  0  0  0  0
  -18.0225  -26.0096   22.8985 H   0  0  0  0  0  0
  -19.7917  -30.7342   24.2224 H   0  0  0  0  0  0
  -17.4985  -31.6283   24.5177 H   0  0  0  0  0  0
  -15.5342  -30.3000   23.7687 H   0  0  0  0  0  0
  -15.8646  -28.0861   22.7070 H   0  0  0  0  0  0
  -24.6039  -30.6873   25.7838 H   0  0  0  0  0  0
  -24.8930  -32.2697   26.5001 H   0  0  0  0  0  0
  -25.8203  -30.8762   27.0219 H   0  0  0  0  0  0
  -26.2891  -29.6707   24.1318 H   0  0  0  0  0  0
  -27.4290  -29.7335   25.4578 H   0  0  0  0  0  0
  -27.8661  -30.4353   23.9174 H   0  0  0  0  0  0
  -27.2731  -33.3663   26.2014 H   0  0  0  0  0  0
  -28.3934  -32.6780   25.0355 H   0  0  0  0  0  0
  -28.0692  -31.8473   26.5483 H   0  0  0  0  0  0
  -28.2560  -38.0126   24.7602 H   0  0  0  0  0  0
  -28.1120  -36.2652   24.6208 H   0  0  0  0  0  0
  -27.2288  -37.1315   25.8874 H   0  0  0  0  0  0
  -20.9266  -29.8808   21.6984 H   0  0  0  0  0  0
  -26.0146  -38.2832   24.1513 H   0  0  0  0  0  0
  -28.2964  -17.5980   20.8422 H   0  0  0  0  0  0
  -32.8799  -18.7222   22.1290 H   0  0  0  0  0  0
  -28.2697  -20.6004   22.3757 H   0  0  0  0  0  0
  -27.5499  -19.8464   20.9805 H   0  0  0  0  0  0
  -28.6197  -23.1202   22.0504 H   0  0  0  0  0  0
  -27.0581  -22.7113   21.3851 H   0  0  0  0  0  0
  -29.3026  -25.4747   21.4876 H   0  0  0  0  0  0
  -27.5811  -25.6383   21.7295 H   0  0  0  0  0  0
  -32.2998  -21.0067   22.2900 H   0  0  0  0  0  0
  -30.8994  -21.6373   21.6287 H   0  0  0  0  0  0
  -28.9721  -15.3010   21.1907 H   0  0  0  0  0  0
  1 25  1  0  0  0
  1 30  2  0  0  0
  1 83  1  0  0  0
  2  3  1  0  0  0
  2 25  1  0  0  0
  2 86  1  0  0  0
  2 87  1  0  0  0
  3  4  1  0  0  0
  3 88  1  0  0  0
  3 89  1  0  0  0
  4  5  1  0  0  0
  4 90  1  0  0  0
  4 91  1  0  0  0
  5  6  1  0  0  0
  5 26  1  0  0  0
  5 92  1  0  0  0
  6 25  1  0  0  0
  6 93  1  0  0  0
  6 94  1  0  0  0
  7  8  2  0  0  0
  7 26  1  0  0  0
  7 29  1  0  0  0
  8  9  1  0  0  0
  8 22  1  0  0  0
  9 10  1  0  0  0
  9 27  2  0  0  0
 10 11  2  0  0  0
 10 15  1  0  0  0
 11 12  1  0  0  0
 11 95  1  0  0  0
 12 13  2  0  0  0
 12 96  1  0  0  0
 13 14  1  0  0  0
 13 31  1  0  0  0
 14 15  2  0  0  0
 14 97  1  0  0  0
 15 98  1  0  0  0
 16 17  2  0  0  0
 16 21  1  0  0  0
 16 31  1  0  0  0
 17 18  1  0  0  0
 17 99  1  0  0  0
 18 19  2  0  0  0
 18100  1  0  0  0
 19 20  1  0  0  0
 19 24  1  0  0  0
 20 21  2  0  0  0
 20101  1  0  0  0
 21 23  1  0  0  0
 22 28  1  0  0  0
 22 32  2  0  0  0
 26 27  1  0  0  0
 28102  1  0  0  0
 28103  1  0  0  0
 29104  1  0  0  0
 29105  1  0  0  0
 33 34  1  0  0  0
 33 66  1  0  0  0
 33 70  2  0  0  0
 34 36  1  0  0  0
 34 59  1  0  0  0
 34106  1  0  0  0
 35 44  2  0  0  0
 35 45  1  0  0  0
 35 68  1  0  0  0
 36 56  1  0  0  0
 36107  1  0  0  0
 37 39  1  0  0  0
 37 47  1  0  0  0
 37 66  1  0  0  0
 37108  1  0  0  0
 38 43  2  0  0  0
 38 46  1  0  0  0
 38 47  1  0  0  0
 39 64  1  0  0  0
 39 67  2  0  0  0
 40 52  1  0  0  0
 40 53  2  0  0  0
 40 58  1  0  0  0
 41109  1  0  0  0
 41110  1  0  0  0
 41111  1  0  0  0
 41 48  1  0  0  0
 42 43  1  0  0  0
 42 66  1  0  0  0
 42112  1  0  0  0
 42113  1  0  0  0
 43 44  1  0  0  0
 44114  1  0  0  0
 45 46  2  0  0  0
 45115  1  0  0  0
 46116  1  0  0  0
 47117  1  0  0  0
 47118  1  0  0  0
 48 56  1  0  0  0
 48 65  1  0  0  0
 48119  1  0  0  0
 49 50  1  0  0  0
 49 53  1  0  0  0
 49 64  1  0  0  0
 49120  1  0  0  0
 50 51  1  0  0  0
 50121  1  0  0  0
 50122  1  0  0  0
 51 52  1  0  0  0
 51123  1  0  0  0
 51124  1  0  0  0
 52125  1  0  0  0
 52126  1  0  0  0
 53 54  1  0  0  0
 54 55  2  0  0  0
 54127  1  0  0  0
 55 57  1  0  0  0
 55128  1  0  0  0
 56 69  2  0  0  0
 57 58  2  0  0  0
 57129  1  0  0  0
 58130  1  0  0  0
 59 60  1  0  0  0
 59 61  1  0  0  0
 59 62  1  0  0  0
 60131  1  0  0  0
 60132  1  0  0  0
 60133  1  0  0  0
 61134  1  0  0  0
 61135  1  0  0  0
 61136  1  0  0  0
 62137  1  0  0  0
 62138  1  0  0  0
 62139  1  0  0  0
 63 65  1  0  0  0
 63140  1  0  0  0
 63141  1  0  0  0
 63142  1  0  0  0
 64143  1  0  0  0
 65144  1  0  0  0
 68 80  1  0  0  0
 71 73  2  0  0  0
 71 75  1  0  0  0
 71145  1  0  0  0
 72 74  2  0  0  0
 72 81  1  0  0  0
 72146  1  0  0  0
 73 74  1  0  0  0
 73 78  1  0  0  0
 74 82  1  0  0  0
 75 81  2  0  0  0
 75 83  1  0  0  0
 76 78  1  0  0  0
 76 79  1  0  0  0
 76 84  2  0  0  0
 77 79  1  0  0  0
 77 80  1  0  0  0
 77 85  2  0  0  0
 78147  1  0  0  0
 78148  1  0  0  0
 79149  1  0  0  0
 79150  1  0  0  0
 80151  1  0  0  0
 80152  1  0  0  0
 82153  1  0  0  0
 82154  1  0  0  0
 83155  1  0  0  0
M  ISO  4   1 100  68 101  80 101  83 100
M  END
> <chiral flag>
0

> <version>
0

> <s_m_source_file>
/data/baiqing/PycharmProjects/Reinvent-master-3.2/result/LINK_invent/BTK/process_docking_weight1_custom_product_contain_oxygen_bond_distance_aromatic_linkinvent_7_9_3/rearranged_h_0168.sdf

> <i_m_source_file_index>
69

> <r_mmod_Potential_Energy-OPLS-2005>
-173.514419555664

> <r_mmod_Stretch_Energy-OPLS-2005>
42.0931549072266

> <r_mmod_Bend_Energy-OPLS-2005>
107.550857543945

> <r_mmod_Torsional_Energy-OPLS-2005>
236.846450805664

> <r_mmod_Improper_Torsional_Energy-OPLS-2005>
9.61490535736084

> <r_mmod_Van_der_Waal_Energy-OPLS-2005>
153.976516723633

> <r_mmod_Electrostatic_Energy-OPLS-2005>
-448.133850097656

> <r_mmod_Solvation_Energy-OPLS-2005>
-290.196136474609

> <b_mmod_Minimization_Converged-OPLS-2005>
0

> <r_mmod_RMS_Derivative-OPLS-2005>
2.57212615013123

$$$$
69
                    3D
 Structure written by MMmdl.
155163  0  0  1  0            999 V2000
  -30.7585  -14.4024   20.6504 C   0  0  0  0  0  0
  -30.4131  -12.2996   19.4038 C   0  0  0  0  0  0
  -29.4827  -12.5188   18.1966 C   0  0  0  0  0  0
  -28.0075  -12.3753   18.6140 C   0  0  0  0  0  0
  -27.6620  -13.2069   19.8780 C   0  0  2  0  0  0
  -28.7025  -12.9731   20.9956 C   0  0  0  0  0  0
  -25.2584  -13.8169   20.5678 C   0  0  0  0  0  0
  -24.1835  -13.0445   20.9177 C   0  0  0  0  0  0
  -24.6391  -11.6912   20.8742 C   0  0  0  0  0  0
  -23.9058  -10.4296   21.0411 C   0  0  0  0  0  0
  -24.3617   -9.4212   21.9186 C   0  0  0  0  0  0
  -23.6297   -8.2249   22.0756 C   0  0  0  0  0  0
  -22.4278   -8.0286   21.3547 C   0  0  0  0  0  0
  -21.9909   -9.0259   20.4647 C   0  0  0  0  0  0
  -22.7234  -10.2137   20.3057 C   0  0  0  0  0  0
  -21.6848   -6.0741   22.5284 C   0  0  0  0  0  0
  -21.4012   -6.5644   23.8217 C   0  0  0  0  0  0
  -21.3658   -5.6796   24.9176 C   0  0  0  0  0  0
  -21.6045   -4.3060   24.7226 C   0  0  0  0  0  0
  -21.8818   -3.8151   23.4346 C   0  0  0  0  0  0
  -21.9193   -4.6968   22.3404 C   0  0  0  0  0  0
  -22.7857  -13.5240   21.1846 C   0  0  0  0  0  0
  -22.1660   -4.2154   21.0981 F   0  0  0  0  0  0
  -21.5629   -3.4542   25.7739 F   0  0  0  0  0  0
  -30.0380  -13.2679   20.4461 N   0  0  0  0  0  0
  -26.3024  -12.9339   20.3384 N   0  0  0  0  0  0
  -25.9319  -11.6497   20.5775 N   0  0  0  0  0  0
  -22.0499  -12.8232   22.0403 N   0  0  0  0  0  0
  -25.4317  -15.1883   20.4066 N   0  0  0  0  0  0
  -31.8301  -14.6253   20.0771 O   0  0  0  0  0  0
  -21.6639   -6.8884   21.4244 O   0  0  0  0  0  0
  -22.3543  -14.5550   20.6701 O   0  0  0  0  0  0
  -24.6130  -31.8698   23.2112 C   0  0  0  0  0  0
  -25.9027  -32.4830   23.8403 C   0  0  1  0  0  0
  -27.2318  -27.4405   20.0917 C   0  0  0  0  0  0
  -25.5897  -33.8627   24.2337 N   0  0  0  0  0  0
  -23.4001  -30.4946   21.5517 C   0  0  2  0  0  0
  -24.8448  -28.9623   20.1143 C   0  0  0  0  0  0
  -22.7403  -29.4666   22.4991 C   0  0  0  0  0  0
  -18.0266  -28.1371   22.8486 C   0  0  0  0  0  0
  -24.1492  -36.7317   23.2638 C   0  0  0  0  0  0
  -25.9283  -30.8361   21.3643 C   0  0  0  0  0  0
  -26.0043  -29.4713   20.7108 C   0  0  0  0  0  0
  -27.1986  -28.7173   20.6971 C   0  0  0  0  0  0
  -26.0541  -26.9506   19.4783 C   0  0  0  0  0  0
  -24.8645  -27.7013   19.4967 C   0  0  0  0  0  0
  -23.6073  -29.8278   20.1657 C   0  0  0  0  0  0
  -25.4110  -36.3118   24.0342 C   0  0  1  0  0  0
  -20.5860  -28.3654   23.1319 C   0  0  2  0  0  0
  -20.6761  -26.9396   22.5415 C   0  0  0  0  0  0
  -19.5743  -26.6380   21.5209 C   0  0  0  0  0  0
  -18.1914  -26.7918   22.1617 C   0  0  0  0  0  0
  -19.1517  -28.8829   23.2898 C   0  0  0  0  0  0
  -18.9451  -30.1436   23.8905 C   0  0  0  0  0  0
  -17.6456  -30.6581   24.0565 C   0  0  0  0  0  0
  -25.9034  -34.9477   23.5135 C   0  0  0  0  0  0
  -16.5347  -29.9083   23.6330 C   0  0  0  0  0  0
  -16.7256  -28.6503   23.0344 C   0  0  0  0  0  0
  -26.4464  -31.6605   25.0726 C   0  0  0  0  0  0
  -25.3730  -31.3703   26.1482 C   0  0  0  0  0  0
  -27.0291  -30.3054   24.6087 C   0  0  0  0  0  0
  -27.6055  -32.4311   25.7479 C   0  0  0  0  0  0
  -27.5584  -37.1808   24.8461 C   0  0  0  0  0  0
  -21.4135  -29.3029   22.3733 N   0  0  0  0  0  0
  -26.4292  -37.3801   23.9408 N   0  0  0  0  0  0
  -24.6654  -31.0803   22.1013 N   0  0  0  0  0  0
  -23.4186  -28.8200   23.3021 O   0  0  0  0  0  0
  -28.4136  -26.7288   20.1149 O   0  0  0  0  0  0
  -26.5598  -34.8926   22.4696 O   0  0  0  0  0  0
  -23.5329  -32.1447   23.7514 O   0  0  0  0  0  0
  -32.7432  -17.3286   23.3354 C   0  0  0  0  0  0
  -32.2147  -18.6248   23.2048 C   0  0  0  0  0  0
  -32.0814  -16.2367   22.7497 C   0  0  0  0  0  0
  -30.3414  -17.7380   21.9124 C   0  0  0  0  0  0
  -31.0223  -18.8463   22.4841 C   0  0  0  0  0  0
  -30.8818  -16.4321   22.0292 C   0  0  0  0  0  0
  -29.4479  -23.1228   20.7704 C   0  0  0  0  0  0
  -29.6840  -22.2483   21.7813 C   0  0  0  0  0  0
  -29.2914  -24.5887   20.9287 C   0  0  0  0  0  0
  -29.8577  -20.8262   21.4675 C   0  0  0  0  0  0
  -28.3516  -25.3027   19.9446 C   0  0  0  0  0  0
  -30.5634  -20.1935   22.4236 N   0  0  0  0  0  0
  -30.2059  -15.3125   21.4711 N   0  0  0  0  0  0
  -29.8874  -25.2479   21.7896 O   0  0  0  0  0  0
  -29.4402  -20.2710   20.4488 O   0  0  0  0  0  0
  -29.7453  -22.6370   23.0702 O   0  0  0  0  0  0
  -31.4565  -12.3929   19.0969 H   0  0  0  0  0  0
  -30.3098  -11.2832   19.7866 H   0  0  0  0  0  0
  -29.7174  -11.8073   17.4038 H   0  0  0  0  0  0
  -29.6506  -13.5121   17.7769 H   0  0  0  0  0  0
  -27.8156  -11.3180   18.8004 H   0  0  0  0  0  0
  -27.3539  -12.6593   17.7882 H   0  0  0  0  0  0
  -27.7125  -14.2579   19.5923 H   0  0  0  0  0  0
  -28.6722  -11.9344   21.3285 H   0  0  0  0  0  0
  -28.4571  -13.5637   21.8790 H   0  0  0  0  0  0
  -25.2759   -9.5686   22.4759 H   0  0  0  0  0  0
  -24.0004   -7.4635   22.7467 H   0  0  0  0  0  0
  -21.0844   -8.8776   19.8948 H   0  0  0  0  0  0
  -22.3698  -10.9678   19.6168 H   0  0  0  0  0  0
  -21.2003   -7.6149   23.9719 H   0  0  0  0  0  0
  -21.1480   -6.0526   25.9078 H   0  0  0  0  0  0
  -22.0599   -2.7615   23.2846 H   0  0  0  0  0  0
  -22.4108  -11.9880   22.4775 H   0  0  0  0  0  0
  -21.1120  -13.1260   22.2619 H   0  0  0  0  0  0
  -24.6665  -15.8471   20.5064 H   0  0  0  0  0  0
  -26.2881  -15.6231   20.0859 H   0  0  0  0  0  0
  -26.7097  -32.5552   23.1172 H   0  0  0  0  0  0
  -25.0053  -33.9790   25.0490 H   0  0  0  0  0  0
  -22.6878  -31.3113   21.4140 H   0  0  0  0  0  0
  -23.3753  -35.9648   23.3308 H   0  0  0  0  0  0
  -24.3590  -36.8925   22.2050 H   0  0  0  0  0  0
  -23.7235  -37.6521   23.6647 H   0  0  0  0  0  0
  -26.0367  -31.6032   20.5962 H   0  0  0  0  0  0
  -26.8181  -30.8916   21.9793 H   0  0  0  0  0  0
  -28.0942  -29.1059   21.1624 H   0  0  0  0  0  0
  -26.0342  -25.9992   18.9674 H   0  0  0  0  0  0
  -23.9740  -27.3080   19.0247 H   0  0  0  0  0  0
  -23.7128  -30.6040   19.4066 H   0  0  0  0  0  0
  -22.7316  -29.2468   19.8701 H   0  0  0  0  0  0
  -25.1281  -36.1995   25.0833 H   0  0  0  0  0  0
  -20.9936  -28.3218   24.1446 H   0  0  0  0  0  0
  -20.5671  -26.2259   23.3602 H   0  0  0  0  0  0
  -21.6632  -26.7448   22.1205 H   0  0  0  0  0  0
  -19.6920  -25.6297   21.1224 H   0  0  0  0  0  0
  -19.6692  -27.3208   20.6752 H   0  0  0  0  0  0
  -17.4193  -26.6667   21.4016 H   0  0  0  0  0  0
  -18.0315  -26.0058   22.9013 H   0  0  0  0  0  0
  -19.7935  -30.7232   24.2290 H   0  0  0  0  0  0
  -17.5022  -31.6265   24.5152 H   0  0  0  0  0  0
  -15.5349  -30.2988   23.7649 H   0  0  0  0  0  0
  -15.8657  -28.0823   22.7052 H   0  0  0  0  0  0
  -24.5907  -30.7044   25.7816 H   0  0  0  0  0  0
  -24.8908  -32.2856   26.4934 H   0  0  0  0  0  0
  -25.8086  -30.8872   27.0239 H   0  0  0  0  0  0
  -26.2829  -29.6818   24.1153 H   0  0  0  0  0  0
  -27.4089  -29.7286   25.4527 H   0  0  0  0  0  0
  -27.8649  -30.4383   23.9214 H   0  0  0  0  0  0
  -27.2702  -33.3620   26.2060 H   0  0  0  0  0  0
  -28.3859  -32.6846   25.0294 H   0  0  0  0  0  0
  -28.0721  -31.8424   26.5388 H   0  0  0  0  0  0
  -28.2596  -38.0114   24.7525 H   0  0  0  0  0  0
  -28.1087  -36.2643   24.6266 H   0  0  0  0  0  0
  -27.2299  -37.1429   25.8864 H   0  0  0  0  0  0
  -20.9289  -29.8756   21.6966 H   0  0  0  0  0  0
  -26.0195  -38.2881   24.1428 H   0  0  0  0  0  0
  -33.6602  -17.1714   23.8866 H   0  0  0  0  0  0
  -32.7421  -19.4511   23.6617 H   0  0  0  0  0  0
  -32.4999  -15.2462   22.8645 H   0  0  0  0  0  0
  -29.4128  -17.8828   21.3785 H   0  0  0  0  0  0
  -29.3719  -22.7548   19.7561 H   0  0  0  0  0  0
  -27.3577  -24.9017   20.1384 H   0  0  0  0  0  0
  -28.6222  -25.0443   18.9209 H   0  0  0  0  0  0
  -30.9604  -20.8173   23.1117 H   0  0  0  0  0  0
  -29.2544  -15.1486   21.7639 H   0  0  0  0  0  0
  -29.6027  -21.8656   23.6056 H   0  0  0  0  0  0
  1 25  1  0  0  0
  1 30  2  0  0  0
  1 83  1  0  0  0
  2  3  1  0  0  0
  2 25  1  0  0  0
  2 87  1  0  0  0
  2 88  1  0  0  0
  3  4  1  0  0  0
  3 89  1  0  0  0
  3 90  1  0  0  0
  4  5  1  0  0  0
  4 91  1  0  0  0
  4 92  1  0  0  0
  5  6  1  0  0  0
  5 26  1  0  0  0
  5 93  1  0  0  0
  6 25  1  0  0  0
  6 94  1  0  0  0
  6 95  1  0  0  0
  7  8  2  0  0  0
  7 26  1  0  0  0
  7 29  1  0  0  0
  8  9  1  0  0  0
  8 22  1  0  0  0
  9 10  1  0  0  0
  9 27  2  0  0  0
 10 11  2  0  0  0
 10 15  1  0  0  0
 11 12  1  0  0  0
 11 96  1  0  0  0
 12 13  2  0  0  0
 12 97  1  0  0  0
 13 14  1  0  0  0
 13 31  1  0  0  0
 14 15  2  0  0  0
 14 98  1  0  0  0
 15 99  1  0  0  0
 16 17  2  0  0  0
 16 21  1  0  0  0
 16 31  1  0  0  0
 17 18  1  0  0  0
 17100  1  0  0  0
 18 19  2  0  0  0
 18101  1  0  0  0
 19 20  1  0  0  0
 19 24  1  0  0  0
 20 21  2  0  0  0
 20102  1  0  0  0
 21 23  1  0  0  0
 22 28  1  0  0  0
 22 32  2  0  0  0
 26 27  1  0  0  0
 28103  1  0  0  0
 28104  1  0  0  0
 29105  1  0  0  0
 29106  1  0  0  0
 33 34  1  0  0  0
 33 66  1  0  0  0
 33 70  2  0  0  0
 34 36  1  0  0  0
 34 59  1  0  0  0
 34107  1  0  0  0
 35 44  2  0  0  0
 35 45  1  0  0  0
 35 68  1  0  0  0
 36 56  1  0  0  0
 36108  1  0  0  0
 37 39  1  0  0  0
 37 47  1  0  0  0
 37 66  1  0  0  0
 37109  1  0  0  0
 38 43  2  0  0  0
 38 46  1  0  0  0
 38 47  1  0  0  0
 39 64  1  0  0  0
 39 67  2  0  0  0
 40 52  1  0  0  0
 40 53  2  0  0  0
 40 58  1  0  0  0
 41110  1  0  0  0
 41111  1  0  0  0
 41112  1  0  0  0
 41 48  1  0  0  0
 42 43  1  0  0  0
 42 66  1  0  0  0
 42113  1  0  0  0
 42114  1  0  0  0
 43 44  1  0  0  0
 44115  1  0  0  0
 45 46  2  0  0  0
 45116  1  0  0  0
 46117  1  0  0  0
 47118  1  0  0  0
 47119  1  0  0  0
 48 56  1  0  0  0
 48 65  1  0  0  0
 48120  1  0  0  0
 49 50  1  0  0  0
 49 53  1  0  0  0
 49 64  1  0  0  0
 49121  1  0  0  0
 50 51  1  0  0  0
 50122  1  0  0  0
 50123  1  0  0  0
 51 52  1  0  0  0
 51124  1  0  0  0
 51125  1  0  0  0
 52126  1  0  0  0
 52127  1  0  0  0
 53 54  1  0  0  0
 54 55  2  0  0  0
 54128  1  0  0  0
 55 57  1  0  0  0
 55129  1  0  0  0
 56 69  2  0  0  0
 57 58  2  0  0  0
 57130  1  0  0  0
 58131  1  0  0  0
 59 60  1  0  0  0
 59 61  1  0  0  0
 59 62  1  0  0  0
 60132  1  0  0  0
 60133  1  0  0  0
 60134  1  0  0  0
 61135  1  0  0  0
 61136  1  0  0  0
 61137  1  0  0  0
 62138  1  0  0  0
 62139  1  0  0  0
 62140  1  0  0  0
 63 65  1  0  0  0
 63141  1  0  0  0
 63142  1  0  0  0
 63143  1  0  0  0
 64144  1  0  0  0
 65145  1  0  0  0
 68 81  1  0  0  0
 71 72  2  0  0  0
 71 73  1  0  0  0
 71146  1  0  0  0
 72 75  1  0  0  0
 72147  1  0  0  0
 73 76  2  0  0  0
 73148  1  0  0  0
 74 75  2  0  0  0
 74 76  1  0  0  0
 74149  1  0  0  0
 75 82  1  0  0  0
 76 83  1  0  0  0
 77 78  2  0  0  0
 77 79  1  0  0  0
 77150  1  0  0  0
 78 80  1  0  0  0
 78 86  1  0  0  0
 79 81  1  0  0  0
 79 84  2  0  0  0
 80 82  1  0  0  0
 80 85  2  0  0  0
 81151  1  0  0  0
 81152  1  0  0  0
 82153  1  0  0  0
 83154  1  0  0  0
 86155  1  0  0  0
M  ISO  4   1 100  68 101  81 101  83 100
M  END
> <chiral flag>
0

> <version>
0

> <s_m_source_file>
/data/baiqing/PycharmProjects/Reinvent-master-3.2/result/LINK_invent/BTK/process_docking_weight1_custom_product_contain_oxygen_bond_distance_aromatic_linkinvent_7_9_3/rearranged_h_0168.sdf

> <i_m_source_file_index>
70

> <r_mmod_Potential_Energy-OPLS-2005>
-80.8171691894531

> <r_mmod_Stretch_Energy-OPLS-2005>
36.8844718933105

> <r_mmod_Bend_Energy-OPLS-2005>
101.134574890137

> <r_mmod_Torsional_Energy-OPLS-2005>
248.854263305664

> <r_mmod_Improper_Torsional_Energy-OPLS-2005>
2.52325677871704

> <r_mmod_Van_der_Waal_Energy-OPLS-2005>
171.021942138672

> <r_mmod_Electrostatic_Energy-OPLS-2005>
-382.414855957031

> <r_mmod_Solvation_Energy-OPLS-2005>
-268.25048828125

> <b_mmod_Minimization_Converged-OPLS-2005>
0

> <r_mmod_RMS_Derivative-OPLS-2005>
1.17092514038086

$$$$
70
                    3D
 Structure written by MMmdl.
155163  0  0  1  0            999 V2000
  -30.6008  -14.8149   20.4193 C   0  0  0  0  0  0
  -30.4291  -12.4864   19.4925 C   0  0  0  0  0  0
  -29.5180  -12.5004   18.2443 C   0  0  0  0  0  0
  -28.0418  -12.3197   18.6537 C   0  0  0  0  0  0
  -27.6332  -13.2322   19.8399 C   0  0  2  0  0  0
  -28.6767  -13.2029   20.9784 C   0  0  0  0  0  0
  -25.2475  -13.8179   20.5638 C   0  0  0  0  0  0
  -24.1777  -13.0433   20.9216 C   0  0  0  0  0  0
  -24.6355  -11.6912   20.8764 C   0  0  0  0  0  0
  -23.9022  -10.4304   21.0427 C   0  0  0  0  0  0
  -24.3593   -9.4218   21.9193 C   0  0  0  0  0  0
  -23.6291   -8.2238   22.0748 C   0  0  0  0  0  0
  -22.4290   -8.0272   21.3520 C   0  0  0  0  0  0
  -21.9897   -9.0252   20.4634 C   0  0  0  0  0  0
  -22.7197  -10.2141   20.3059 C   0  0  0  0  0  0
  -21.6862   -6.0729   22.5273 C   0  0  0  0  0  0
  -21.4011   -6.5628   23.8203 C   0  0  0  0  0  0
  -21.3670   -5.6780   24.9163 C   0  0  0  0  0  0
  -21.6056   -4.3040   24.7227 C   0  0  0  0  0  0
  -21.8818   -3.8133   23.4355 C   0  0  0  0  0  0
  -21.9179   -4.6951   22.3402 C   0  0  0  0  0  0
  -22.7803  -13.5248   21.1870 C   0  0  0  0  0  0
  -22.1646   -4.2131   21.0970 F   0  0  0  0  0  0
  -21.5634   -3.4523   25.7742 F   0  0  0  0  0  0
  -29.9699  -13.5788   20.3882 N   0  0  0  0  0  0
  -26.2868  -12.9364   20.3176 N   0  0  0  0  0  0
  -25.9284  -11.6513   20.5741 N   0  0  0  0  0  0
  -22.0352  -12.8325   22.0414 N   0  0  0  0  0  0
  -25.4155  -15.1890   20.3950 N   0  0  0  0  0  0
  -31.8134  -14.8289   20.1573 O   0  0  0  0  0  0
  -21.6636   -6.8890   21.4246 O   0  0  0  0  0  0
  -22.3540  -14.5537   20.6647 O   0  0  0  0  0  0
  -24.6357  -31.8492   23.1910 C   0  0  0  0  0  0
  -25.9152  -32.4692   23.8315 C   0  0  1  0  0  0
  -27.2234  -27.2304   20.1245 C   0  0  0  0  0  0
  -25.5921  -33.8504   24.2224 N   0  0  0  0  0  0
  -23.4375  -30.4684   21.5348 C   0  0  2  0  0  0
  -24.8840  -28.8997   20.1167 C   0  0  0  0  0  0
  -22.7538  -29.4574   22.4878 C   0  0  0  0  0  0
  -18.0289  -28.1406   22.8472 C   0  0  0  0  0  0
  -24.1502  -36.7293   23.2637 C   0  0  0  0  0  0
  -25.9857  -30.7456   21.3829 C   0  0  0  0  0  0
  -26.0580  -29.3668   20.7219 C   0  0  0  0  0  0
  -27.2340  -28.5454   20.7053 C   0  0  0  0  0  0
  -26.0236  -26.8233   19.5089 C   0  0  0  0  0  0
  -24.8712  -27.6351   19.5020 C   0  0  0  0  0  0
  -23.6607  -29.7947   20.1550 C   0  0  0  0  0  0
  -25.4127  -36.3041   24.0319 C   0  0  1  0  0  0
  -20.5896  -28.3722   23.1236 C   0  0  2  0  0  0
  -20.6788  -26.9428   22.5401 C   0  0  0  0  0  0
  -19.5773  -26.6389   21.5207 C   0  0  0  0  0  0
  -18.1946  -26.7946   22.1605 C   0  0  0  0  0  0
  -19.1543  -28.8884   23.2849 C   0  0  0  0  0  0
  -18.9466  -30.1482   23.8877 C   0  0  0  0  0  0
  -17.6461  -30.6606   24.0566 C   0  0  0  0  0  0
  -25.9058  -34.9398   23.5079 C   0  0  0  0  0  0
  -16.5352  -29.9116   23.6330 C   0  0  0  0  0  0
  -16.7273  -28.6527   23.0354 C   0  0  0  0  0  0
  -26.4495  -31.6539   25.0735 C   0  0  0  0  0  0
  -25.3685  -31.3740   26.1436 C   0  0  0  0  0  0
  -27.0336  -30.2919   24.6300 C   0  0  0  0  0  0
  -27.6045  -32.4300   25.7505 C   0  0  0  0  0  0
  -27.5595  -37.1798   24.8449 C   0  0  0  0  0  0
  -21.4228  -29.3063   22.3633 N   0  0  0  0  0  0
  -26.4302  -37.3745   23.9392 N   0  0  0  0  0  0
  -24.7048  -31.0408   22.0917 N   0  0  0  0  0  0
  -23.4207  -28.8119   23.3003 O   0  0  0  0  0  0
  -28.3414  -26.3609   20.0678 O   0  0  0  0  0  0
  -26.5661  -34.8885   22.4666 O   0  0  0  0  0  0
  -23.5476  -32.1356   23.7131 O   0  0  0  0  0  0
  -30.9563  -20.2182   19.9102 C   0  0  0  0  0  0
  -31.5381  -17.8507   20.1216 C   0  0  0  0  0  0
  -31.9155  -19.1904   19.8833 C   0  0  0  0  0  0
  -29.5980  -19.9341   20.1550 C   0  0  0  0  0  0
  -30.1866  -17.4672   20.3391 C   0  0  0  0  0  0
  -28.5541  -21.1042   20.0198 C   0  0  0  0  0  0
  -28.1733  -23.6242   20.0036 C   0  0  0  0  0  0
  -27.5832  -25.0773   22.0643 C   0  0  0  0  0  0
  -28.4311  -25.0218   20.7831 C   0  0  2  0  0  0
  -29.2842  -18.5637   20.3326 N   0  3  0  0  0  0
  -33.2488  -19.4995   19.5984 N   0  0  0  0  0  0
  -29.8398  -16.0010   20.5261 N   0  0  0  0  0  0
  -28.8570  -22.4408   20.3193 N   0  0  0  0  0  0
  -27.4260  -20.7664   19.6394 O   0  0  0  0  0  0
  -27.3145  -23.6483   19.1151 O   0  0  0  0  0  0
  -31.4753  -12.5894   19.2015 H   0  0  0  0  0  0
  -30.3632  -11.5216   19.9986 H   0  0  0  0  0  0
  -29.8182  -11.7144   17.5486 H   0  0  0  0  0  0
  -29.6420  -13.4404   17.7061 H   0  0  0  0  0  0
  -27.9028  -11.2755   18.9301 H   0  0  0  0  0  0
  -27.3938  -12.4964   17.7962 H   0  0  0  0  0  0
  -27.6167  -14.2458   19.4379 H   0  0  0  0  0  0
  -28.7213  -12.2077   21.4298 H   0  0  0  0  0  0
  -28.4015  -13.8882   21.7788 H   0  0  0  0  0  0
  -25.2725   -9.5723   22.4776 H   0  0  0  0  0  0
  -23.9983   -7.4650   22.7493 H   0  0  0  0  0  0
  -21.0802   -8.8799   19.8985 H   0  0  0  0  0  0
  -22.3635  -10.9691   19.6201 H   0  0  0  0  0  0
  -21.1997   -7.6129   23.9720 H   0  0  0  0  0  0
  -21.1494   -6.0487   25.9068 H   0  0  0  0  0  0
  -22.0585   -2.7593   23.2839 H   0  0  0  0  0  0
  -22.3850  -12.0039   22.4988 H   0  0  0  0  0  0
  -21.0958  -13.1442   22.2453 H   0  0  0  0  0  0
  -24.6424  -15.8368   20.5009 H   0  0  0  0  0  0
  -26.2247  -15.6171   19.9660 H   0  0  0  0  0  0
  -26.7231  -32.5324   23.1070 H   0  0  0  0  0  0
  -24.9976  -33.9628   25.0304 H   0  0  0  0  0  0
  -22.7355  -31.2892   21.3773 H   0  0  0  0  0  0
  -23.3739  -35.9646   23.3271 H   0  0  0  0  0  0
  -24.3594  -36.8950   22.2053 H   0  0  0  0  0  0
  -23.7272  -37.6493   23.6689 H   0  0  0  0  0  0
  -26.1444  -31.5081   20.6201 H   0  0  0  0  0  0
  -26.8523  -30.7813   22.0308 H   0  0  0  0  0  0
  -28.1423  -28.8999   21.1699 H   0  0  0  0  0  0
  -25.9702  -25.8550   19.0325 H   0  0  0  0  0  0
  -23.9689  -27.2707   19.0285 H   0  0  0  0  0  0
  -23.7929  -30.5618   19.3895 H   0  0  0  0  0  0
  -22.7785  -29.2283   19.8504 H   0  0  0  0  0  0
  -25.1296  -36.1898   25.0811 H   0  0  0  0  0  0
  -20.9994  -28.3305   24.1350 H   0  0  0  0  0  0
  -20.5701  -26.2317   23.3609 H   0  0  0  0  0  0
  -21.6653  -26.7467   22.1183 H   0  0  0  0  0  0
  -19.6945  -25.6300   21.1254 H   0  0  0  0  0  0
  -19.6732  -27.3166   20.6719 H   0  0  0  0  0  0
  -17.4223  -26.6672   21.3998 H   0  0  0  0  0  0
  -18.0366  -26.0102   22.9018 H   0  0  0  0  0  0
  -19.7930  -30.7310   24.2235 H   0  0  0  0  0  0
  -17.5011  -31.6270   24.5189 H   0  0  0  0  0  0
  -15.5353  -30.3027   23.7658 H   0  0  0  0  0  0
  -15.8668  -28.0863   22.7084 H   0  0  0  0  0  0
  -24.5844  -30.7111   25.7764 H   0  0  0  0  0  0
  -24.8894  -32.2914   26.4856 H   0  0  0  0  0  0
  -25.7967  -30.8910   27.0221 H   0  0  0  0  0  0
  -26.2938  -29.6659   24.1287 H   0  0  0  0  0  0
  -27.3895  -29.7215   25.4893 H   0  0  0  0  0  0
  -27.8881  -30.4138   23.9639 H   0  0  0  0  0  0
  -27.2636  -33.3590   26.2102 H   0  0  0  0  0  0
  -28.3833  -32.6881   25.0313 H   0  0  0  0  0  0
  -28.0736  -31.8415   26.5402 H   0  0  0  0  0  0
  -28.2572  -38.0132   24.7486 H   0  0  0  0  0  0
  -28.1130  -36.2645   24.6272 H   0  0  0  0  0  0
  -27.2304  -37.1434   25.8851 H   0  0  0  0  0  0
  -20.9452  -29.8783   21.6816 H   0  0  0  0  0  0
  -26.0172  -38.2813   24.1405 H   0  0  0  0  0  0
  -31.2553  -21.2367   19.7000 H   0  0  0  0  0  0
  -32.3229  -17.1114   20.1136 H   0  0  0  0  0  0
  -27.7876  -25.9865   22.6339 H   0  0  0  0  0  0
  -27.7887  -24.2269   22.7156 H   0  0  0  0  0  0
  -26.5191  -25.0664   21.8271 H   0  0  0  0  0  0
  -29.4726  -24.9624   21.1013 H   0  0  0  0  0  0
  -28.2829  -18.3694   20.4399 H   0  0  0  0  0  0
  -33.3962  -20.3609   19.0882 H   0  0  0  0  0  0
  -33.8004  -18.7510   19.1947 H   0  0  0  0  0  0
  -28.8673  -15.8162   20.6899 H   0  0  0  0  0  0
  -29.6848  -22.5647   20.8805 H   0  0  0  0  0  0
  1 25  1  0  0  0
  1 30  2  0  0  0
  1 82  1  0  0  0
  2  3  1  0  0  0
  2 25  1  0  0  0
  2 86  1  0  0  0
  2 87  1  0  0  0
  3  4  1  0  0  0
  3 88  1  0  0  0
  3 89  1  0  0  0
  4  5  1  0  0  0
  4 90  1  0  0  0
  4 91  1  0  0  0
  5  6  1  0  0  0
  5 26  1  0  0  0
  5 92  1  0  0  0
  6 25  1  0  0  0
  6 93  1  0  0  0
  6 94  1  0  0  0
  7  8  2  0  0  0
  7 26  1  0  0  0
  7 29  1  0  0  0
  8  9  1  0  0  0
  8 22  1  0  0  0
  9 10  1  0  0  0
  9 27  2  0  0  0
 10 11  2  0  0  0
 10 15  1  0  0  0
 11 12  1  0  0  0
 11 95  1  0  0  0
 12 13  2  0  0  0
 12 96  1  0  0  0
 13 14  1  0  0  0
 13 31  1  0  0  0
 14 15  2  0  0  0
 14 97  1  0  0  0
 15 98  1  0  0  0
 16 17  2  0  0  0
 16 21  1  0  0  0
 16 31  1  0  0  0
 17 18  1  0  0  0
 17 99  1  0  0  0
 18 19  2  0  0  0
 18100  1  0  0  0
 19 20  1  0  0  0
 19 24  1  0  0  0
 20 21  2  0  0  0
 20101  1  0  0  0
 21 23  1  0  0  0
 22 28  1  0  0  0
 22 32  2  0  0  0
 26 27  1  0  0  0
 28102  1  0  0  0
 28103  1  0  0  0
 29104  1  0  0  0
 29105  1  0  0  0
 33 34  1  0  0  0
 33 66  1  0  0  0
 33 70  2  0  0  0
 34 36  1  0  0  0
 34 59  1  0  0  0
 34106  1  0  0  0
 35 44  2  0  0  0
 35 45  1  0  0  0
 35 68  1  0  0  0
 36 56  1  0  0  0
 36107  1  0  0  0
 37 39  1  0  0  0
 37 47  1  0  0  0
 37 66  1  0  0  0
 37108  1  0  0  0
 38 43  2  0  0  0
 38 46  1  0  0  0
 38 47  1  0  0  0
 39 64  1  0  0  0
 39 67  2  0  0  0
 40 52  1  0  0  0
 40 53  2  0  0  0
 40 58  1  0  0  0
 41109  1  0  0  0
 41110  1  0  0  0
 41111  1  0  0  0
 41 48  1  0  0  0
 42 43  1  0  0  0
 42 66  1  0  0  0
 42112  1  0  0  0
 42113  1  0  0  0
 43 44  1  0  0  0
 44114  1  0  0  0
 45 46  2  0  0  0
 45115  1  0  0  0
 46116  1  0  0  0
 47117  1  0  0  0
 47118  1  0  0  0
 48 56  1  0  0  0
 48 65  1  0  0  0
 48119  1  0  0  0
 49 50  1  0  0  0
 49 53  1  0  0  0
 49 64  1  0  0  0
 49120  1  0  0  0
 50 51  1  0  0  0
 50121  1  0  0  0
 50122  1  0  0  0
 51 52  1  0  0  0
 51123  1  0  0  0
 51124  1  0  0  0
 52125  1  0  0  0
 52126  1  0  0  0
 53 54  1  0  0  0
 54 55  2  0  0  0
 54127  1  0  0  0
 55 57  1  0  0  0
 55128  1  0  0  0
 56 69  2  0  0  0
 57 58  2  0  0  0
 57129  1  0  0  0
 58130  1  0  0  0
 59 60  1  0  0  0
 59 61  1  0  0  0
 59 62  1  0  0  0
 60131  1  0  0  0
 60132  1  0  0  0
 60133  1  0  0  0
 61134  1  0  0  0
 61135  1  0  0  0
 61136  1  0  0  0
 62137  1  0  0  0
 62138  1  0  0  0
 62139  1  0  0  0
 63 65  1  0  0  0
 63140  1  0  0  0
 63141  1  0  0  0
 63142  1  0  0  0
 64143  1  0  0  0
 65144  1  0  0  0
 68 79  1  0  0  0
 71 73  2  0  0  0
 71 74  1  0  0  0
 71145  1  0  0  0
 72 73  1  0  0  0
 72 75  2  0  0  0
 72146  1  0  0  0
 73 81  1  0  0  0
 74 76  1  0  0  0
 74 80  2  0  0  0
 75 80  1  0  0  0
 75 82  1  0  0  0
 76 83  1  0  0  0
 76 84  2  0  0  0
 77 79  1  0  0  0
 77 83  1  0  0  0
 77 85  2  0  0  0
 78147  1  0  0  0
 78148  1  0  0  0
 78149  1  0  0  0
 78 79  1  0  0  0
 79150  1  0  0  0
 80151  1  0  0  0
 81152  1  0  0  0
 81153  1  0  0  0
 82154  1  0  0  0
 83155  1  0  0  0
M  CHG  1  80   1
M  ISO  4   1 100  68 101  79 101  82 100
M  END
> <chiral flag>
0

> <version>
0

> <s_m_source_file>
/data/baiqing/PycharmProjects/Reinvent-master-3.2/result/LINK_invent/BTK/process_docking_weight1_custom_product_contain_oxygen_bond_distance_aromatic_linkinvent_7_9_3/rearranged_h_0168.sdf

> <i_m_source_file_index>
71

> <r_mmod_Potential_Energy-OPLS-2005>
-11.4271869659424

> <r_mmod_Stretch_Energy-OPLS-2005>
165.330444335938

> <r_mmod_Bend_Energy-OPLS-2005>
197.930267333984

> <r_mmod_Torsional_Energy-OPLS-2005>
267.488189697266

> <r_mmod_Improper_Torsional_Energy-OPLS-2005>
10.7933664321899

> <r_mmod_Van_der_Waal_Energy-OPLS-2005>
138.051834106445

> <r_mmod_Electrostatic_Energy-OPLS-2005>
-383.108612060547

> <r_mmod_Solvation_Energy-OPLS-2005>
-514.309997558594

> <b_mmod_Minimization_Converged-OPLS-2005>
0

> <r_mmod_RMS_Derivative-OPLS-2005>
4.67212438583374

$$$$
71
                    3D
 Structure written by MMmdl.
155163  0  0  1  0            999 V2000
  -30.6327  -14.6571   20.5101 C   0  0  0  0  0  0
  -30.4393  -12.4062   19.4600 C   0  0  0  0  0  0
  -29.5096  -12.5073   18.2298 C   0  0  0  0  0  0
  -28.0319  -12.3486   18.6391 C   0  0  0  0  0  0
  -27.6535  -13.2228   19.8644 C   0  0  2  0  0  0
  -28.6980  -13.0875   20.9958 C   0  0  0  0  0  0
  -25.2550  -13.8181   20.5690 C   0  0  0  0  0  0
  -24.1827  -13.0440   20.9204 C   0  0  0  0  0  0
  -24.6406  -11.6916   20.8746 C   0  0  0  0  0  0
  -23.9079  -10.4293   21.0416 C   0  0  0  0  0  0
  -24.3632   -9.4207   21.9191 C   0  0  0  0  0  0
  -23.6302   -8.2243   22.0751 C   0  0  0  0  0  0
  -22.4280   -8.0287   21.3542 C   0  0  0  0  0  0
  -21.9927   -9.0261   20.4641 C   0  0  0  0  0  0
  -22.7261  -10.2135   20.3054 C   0  0  0  0  0  0
  -21.6850   -6.0743   22.5282 C   0  0  0  0  0  0
  -21.4017   -6.5643   23.8220 C   0  0  0  0  0  0
  -21.3653   -5.6794   24.9177 C   0  0  0  0  0  0
  -21.6042   -4.3059   24.7227 C   0  0  0  0  0  0
  -21.8819   -3.8152   23.4347 C   0  0  0  0  0  0
  -21.9196   -4.6970   22.3404 C   0  0  0  0  0  0
  -22.7848  -13.5225   21.1858 C   0  0  0  0  0  0
  -22.1662   -4.2160   21.0981 F   0  0  0  0  0  0
  -21.5625   -3.4535   25.7735 F   0  0  0  0  0  0
  -30.0144  -13.4329   20.4354 N   0  0  0  0  0  0
  -26.2992  -12.9378   20.3326 N   0  0  0  0  0  0
  -25.9342  -11.6526   20.5771 N   0  0  0  0  0  0
  -22.0484  -12.8201   22.0400 N   0  0  0  0  0  0
  -25.4242  -15.1903   20.4098 N   0  0  0  0  0  0
  -31.7880  -14.8059   20.1011 O   0  0  0  0  0  0
  -21.6637   -6.8889   21.4244 O   0  0  0  0  0  0
  -22.3536  -14.5538   20.6713 O   0  0  0  0  0  0
  -24.6246  -31.8605   23.2060 C   0  0  0  0  0  0
  -25.9099  -32.4783   23.8375 C   0  0  1  0  0  0
  -27.2136  -27.3041   20.1306 C   0  0  0  0  0  0
  -25.5918  -33.8583   24.2293 N   0  0  0  0  0  0
  -23.4182  -30.4866   21.5473 C   0  0  2  0  0  0
  -24.8670  -28.9474   20.1112 C   0  0  0  0  0  0
  -22.7467  -29.4623   22.4932 C   0  0  0  0  0  0
  -18.0277  -28.1415   22.8491 C   0  0  0  0  0  0
  -24.1472  -36.7284   23.2637 C   0  0  0  0  0  0
  -25.9615  -30.7841   21.3843 C   0  0  0  0  0  0
  -26.0335  -29.4086   20.7345 C   0  0  0  0  0  0
  -27.2090  -28.5956   20.7462 C   0  0  0  0  0  0
  -26.0481  -26.9413   19.4210 C   0  0  0  0  0  0
  -24.8765  -27.7158   19.4433 C   0  0  0  0  0  0
  -23.6353  -29.8277   20.1606 C   0  0  0  0  0  0
  -25.4100  -36.3081   24.0331 C   0  0  1  0  0  0
  -20.5872  -28.3709   23.1291 C   0  0  2  0  0  0
  -20.6763  -26.9434   22.5407 C   0  0  0  0  0  0
  -19.5733  -26.6418   21.5209 C   0  0  0  0  0  0
  -18.1914  -26.7958   22.1628 C   0  0  0  0  0  0
  -19.1532  -28.8887   23.2887 C   0  0  0  0  0  0
  -18.9460  -30.1490   23.8904 C   0  0  0  0  0  0
  -17.6465  -30.6615   24.0593 C   0  0  0  0  0  0
  -25.9051  -34.9449   23.5107 C   0  0  0  0  0  0
  -16.5351  -29.9121   23.6351 C   0  0  0  0  0  0
  -16.7271  -28.6541   23.0362 C   0  0  0  0  0  0
  -26.4489  -31.6583   25.0727 C   0  0  0  0  0  0
  -25.3732  -31.3731   26.1463 C   0  0  0  0  0  0
  -27.0324  -30.2998   24.6181 C   0  0  0  0  0  0
  -27.6047  -32.4317   25.7498 C   0  0  0  0  0  0
  -27.5566  -37.1806   24.8467 C   0  0  0  0  0  0
  -21.4179  -29.3061   22.3691 N   0  0  0  0  0  0
  -26.4271  -37.3781   23.9416 N   0  0  0  0  0  0
  -24.6870  -31.0616   22.1020 N   0  0  0  0  0  0
  -23.4182  -28.8154   23.3013 O   0  0  0  0  0  0
  -28.3121  -26.4239   20.1434 O   0  0  0  0  0  0
  -26.5620  -34.8915   22.4676 O   0  0  0  0  0  0
  -23.5414  -32.1397   23.7394 O   0  0  0  0  0  0
  -29.1718  -19.4772   21.3617 C   0  0  0  0  0  0
  -29.1039  -18.0487   21.4624 C   0  0  0  0  0  0
  -30.9528  -17.8319   19.9564 C   0  0  0  0  0  0
  -30.1373  -20.1353   20.5536 C   0  0  0  0  0  0
  -29.9996  -17.1755   20.7789 C   0  0  0  0  0  0
  -31.0185  -19.2547   19.8444 C   0  0  0  0  0  0
  -30.3093  -21.6581   20.5050 C   0  0  0  0  0  0
  -29.4378  -24.1083   20.4576 C   0  0  0  0  0  0
  -26.8815  -24.2450   20.3898 C   0  0  0  0  0  0
  -28.1737  -25.0356   20.7095 C   0  0  2  0  0  0
  -29.8605  -15.7154   20.9243 N   0  0  0  0  0  0
  -29.3123  -22.6202   20.5626 N   0  0  0  0  0  0
  -31.5732  -22.0911   20.4221 N   0  3  0  0  0  0
  -30.5329  -24.6278   20.2047 O   0  0  0  0  0  0
  -31.9868  -19.7710   19.0458 F   0  0  0  0  0  0
  -31.4789  -12.5333   19.1528 H   0  0  0  0  0  0
  -30.3825  -11.4130   19.9080 H   0  0  0  0  0  0
  -29.7755  -11.7485   17.4926 H   0  0  0  0  0  0
  -29.6526  -13.4712   17.7400 H   0  0  0  0  0  0
  -27.8663  -11.2965   18.8740 H   0  0  0  0  0  0
  -27.3797  -12.5774   17.7948 H   0  0  0  0  0  0
  -27.6697  -14.2572   19.5216 H   0  0  0  0  0  0
  -28.7097  -12.0674   21.3837 H   0  0  0  0  0  0
  -28.4385  -13.7251   21.8424 H   0  0  0  0  0  0
  -25.2778   -9.5671   22.4765 H   0  0  0  0  0  0
  -24.0008   -7.4630   22.7467 H   0  0  0  0  0  0
  -21.0860   -8.8784   19.8942 H   0  0  0  0  0  0
  -22.3733  -10.9675   19.6153 H   0  0  0  0  0  0
  -21.2009   -7.6151   23.9726 H   0  0  0  0  0  0
  -21.1471   -6.0521   25.9082 H   0  0  0  0  0  0
  -22.0602   -2.7617   23.2842 H   0  0  0  0  0  0
  -22.4096  -11.9855   22.4785 H   0  0  0  0  0  0
  -21.1093  -13.1204   22.2586 H   0  0  0  0  0  0
  -24.6524  -15.8401   20.5153 H   0  0  0  0  0  0
  -26.2613  -15.6270   20.0451 H   0  0  0  0  0  0
  -26.7158  -32.5472   23.1128 H   0  0  0  0  0  0
  -25.0047  -33.9727   25.0427 H   0  0  0  0  0  0
  -22.7135  -31.3093   21.4091 H   0  0  0  0  0  0
  -23.3727  -35.9626   23.3305 H   0  0  0  0  0  0
  -24.3557  -36.8900   22.2049 H   0  0  0  0  0  0
  -23.7225  -37.6486   23.6662 H   0  0  0  0  0  0
  -26.0937  -31.5411   20.6094 H   0  0  0  0  0  0
  -26.8431  -30.8381   22.0110 H   0  0  0  0  0  0
  -28.0989  -28.9414   21.2536 H   0  0  0  0  0  0
  -26.0247  -26.0400   18.8297 H   0  0  0  0  0  0
  -23.9967  -27.3732   18.9145 H   0  0  0  0  0  0
  -23.7576  -30.6071   19.4061 H   0  0  0  0  0  0
  -22.7556  -29.2581   19.8551 H   0  0  0  0  0  0
  -25.1286  -36.1919   25.0826 H   0  0  0  0  0  0
  -20.9988  -28.3271   24.1405 H   0  0  0  0  0  0
  -20.5663  -26.2317   23.3598 H   0  0  0  0  0  0
  -21.6633  -26.7475   22.1202 H   0  0  0  0  0  0
  -19.6875  -25.6334   21.1228 H   0  0  0  0  0  0
  -19.6660  -27.3255   20.6751 H   0  0  0  0  0  0
  -17.4182  -26.6722   21.4021 H   0  0  0  0  0  0
  -18.0313  -26.0107   22.9037 H   0  0  0  0  0  0
  -19.7937  -30.7310   24.2257 H   0  0  0  0  0  0
  -17.5027  -31.6292   24.5208 H   0  0  0  0  0  0
  -15.5362  -30.3042   23.7679 H   0  0  0  0  0  0
  -15.8659  -28.0885   22.7067 H   0  0  0  0  0  0
  -24.5931  -30.7034   25.7817 H   0  0  0  0  0  0
  -24.8898  -32.2901   26.4846 H   0  0  0  0  0  0
  -25.8081  -30.8959   27.0256 H   0  0  0  0  0  0
  -26.2888  -29.6755   24.1208 H   0  0  0  0  0  0
  -27.4001  -29.7246   25.4690 H   0  0  0  0  0  0
  -27.8780  -30.4260   23.9410 H   0  0  0  0  0  0
  -27.2657  -33.3637   26.2038 H   0  0  0  0  0  0
  -28.3884  -32.6843   25.0341 H   0  0  0  0  0  0
  -28.0676  -31.8454   26.5446 H   0  0  0  0  0  0
  -28.2608  -38.0087   24.7523 H   0  0  0  0  0  0
  -28.1047  -36.2624   24.6296 H   0  0  0  0  0  0
  -27.2294  -37.1466   25.8875 H   0  0  0  0  0  0
  -20.9346  -29.8798   21.6920 H   0  0  0  0  0  0
  -26.0138  -38.2846   24.1439 H   0  0  0  0  0  0
  -28.4791  -20.0662   21.9457 H   0  0  0  0  0  0
  -28.3430  -17.6241   22.1018 H   0  0  0  0  0  0
  -31.6640  -17.2502   19.3899 H   0  0  0  0  0  0
  -26.8534  -23.2786   20.8904 H   0  0  0  0  0  0
  -26.7760  -24.0563   19.3210 H   0  0  0  0  0  0
  -25.9921  -24.7574   20.7535 H   0  0  0  0  0  0
  -28.1671  -25.1894   21.7895 H   0  0  0  0  0  0
  -28.9890  -15.4195   21.3350 H   0  0  0  0  0  0
  -28.4064  -22.2060   20.7147 H   0  0  0  0  0  0
  -32.3171  -21.4279   20.2532 H   0  0  0  0  0  0
  -31.7496  -23.0846   20.3327 H   0  0  0  0  0  0
  1 25  1  0  0  0
  1 30  2  0  0  0
  1 81  1  0  0  0
  2  3  1  0  0  0
  2 25  1  0  0  0
  2 86  1  0  0  0
  2 87  1  0  0  0
  3  4  1  0  0  0
  3 88  1  0  0  0
  3 89  1  0  0  0
  4  5  1  0  0  0
  4 90  1  0  0  0
  4 91  1  0  0  0
  5  6  1  0  0  0
  5 26  1  0  0  0
  5 92  1  0  0  0
  6 25  1  0  0  0
  6 93  1  0  0  0
  6 94  1  0  0  0
  7  8  2  0  0  0
  7 26  1  0  0  0
  7 29  1  0  0  0
  8  9  1  0  0  0
  8 22  1  0  0  0
  9 10  1  0  0  0
  9 27  2  0  0  0
 10 11  2  0  0  0
 10 15  1  0  0  0
 11 12  1  0  0  0
 11 95  1  0  0  0
 12 13  2  0  0  0
 12 96  1  0  0  0
 13 14  1  0  0  0
 13 31  1  0  0  0
 14 15  2  0  0  0
 14 97  1  0  0  0
 15 98  1  0  0  0
 16 17  2  0  0  0
 16 21  1  0  0  0
 16 31  1  0  0  0
 17 18  1  0  0  0
 17 99  1  0  0  0
 18 19  2  0  0  0
 18100  1  0  0  0
 19 20  1  0  0  0
 19 24  1  0  0  0
 20 21  2  0  0  0
 20101  1  0  0  0
 21 23  1  0  0  0
 22 28  1  0  0  0
 22 32  2  0  0  0
 26 27  1  0  0  0
 28102  1  0  0  0
 28103  1  0  0  0
 29104  1  0  0  0
 29105  1  0  0  0
 33 34  1  0  0  0
 33 66  1  0  0  0
 33 70  2  0  0  0
 34 36  1  0  0  0
 34 59  1  0  0  0
 34106  1  0  0  0
 35 44  2  0  0  0
 35 45  1  0  0  0
 35 68  1  0  0  0
 36 56  1  0  0  0
 36107  1  0  0  0
 37 39  1  0  0  0
 37 47  1  0  0  0
 37 66  1  0  0  0
 37108  1  0  0  0
 38 43  2  0  0  0
 38 46  1  0  0  0
 38 47  1  0  0  0
 39 64  1  0  0  0
 39 67  2  0  0  0
 40 52  1  0  0  0
 40 53  2  0  0  0
 40 58  1  0  0  0
 41109  1  0  0  0
 41110  1  0  0  0
 41111  1  0  0  0
 41 48  1  0  0  0
 42 43  1  0  0  0
 42 66  1  0  0  0
 42112  1  0  0  0
 42113  1  0  0  0
 43 44  1  0  0  0
 44114  1  0  0  0
 45 46  2  0  0  0
 45115  1  0  0  0
 46116  1  0  0  0
 47117  1  0  0  0
 47118  1  0  0  0
 48 56  1  0  0  0
 48 65  1  0  0  0
 48119  1  0  0  0
 49 50  1  0  0  0
 49 53  1  0  0  0
 49 64  1  0  0  0
 49120  1  0  0  0
 50 51  1  0  0  0
 50121  1  0  0  0
 50122  1  0  0  0
 51 52  1  0  0  0
 51123  1  0  0  0
 51124  1  0  0  0
 52125  1  0  0  0
 52126  1  0  0  0
 53 54  1  0  0  0
 54 55  2  0  0  0
 54127  1  0  0  0
 55 57  1  0  0  0
 55128  1  0  0  0
 56 69  2  0  0  0
 57 58  2  0  0  0
 57129  1  0  0  0
 58130  1  0  0  0
 59 60  1  0  0  0
 59 61  1  0  0  0
 59 62  1  0  0  0
 60131  1  0  0  0
 60132  1  0  0  0
 60133  1  0  0  0
 61134  1  0  0  0
 61135  1  0  0  0
 61136  1  0  0  0
 62137  1  0  0  0
 62138  1  0  0  0
 62139  1  0  0  0
 63 65  1  0  0  0
 63140  1  0  0  0
 63141  1  0  0  0
 63142  1  0  0  0
 64143  1  0  0  0
 65144  1  0  0  0
 68 80  1  0  0  0
 71 72  2  0  0  0
 71 74  1  0  0  0
 71145  1  0  0  0
 72 75  1  0  0  0
 72146  1  0  0  0
 73 75  2  0  0  0
 73 76  1  0  0  0
 73147  1  0  0  0
 74 76  2  0  0  0
 74 77  1  0  0  0
 75 81  1  0  0  0
 76 85  1  0  0  0
 77 82  1  0  0  0
 77 83  2  0  0  0
 78 80  1  0  0  0
 78 82  1  0  0  0
 78 84  2  0  0  0
 79148  1  0  0  0
 79149  1  0  0  0
 79150  1  0  0  0
 79 80  1  0  0  0
 80151  1  0  0  0
 81152  1  0  0  0
 82153  1  0  0  0
 83154  1  0  0  0
 83155  1  0  0  0
M  CHG  1  83   1
M  ISO  4   1 100  68 101  80 101  81 100
M  END
> <chiral flag>
0

> <version>
0

> <s_m_source_file>
/data/baiqing/PycharmProjects/Reinvent-master-3.2/result/LINK_invent/BTK/process_docking_weight1_custom_product_contain_oxygen_bond_distance_aromatic_linkinvent_7_9_3/rearranged_h_0168.sdf

> <i_m_source_file_index>
72

> <r_mmod_Potential_Energy-OPLS-2005>
-132.703750610352

> <r_mmod_Stretch_Energy-OPLS-2005>
98.5612030029297

> <r_mmod_Bend_Energy-OPLS-2005>
157.135879516602

> <r_mmod_Torsional_Energy-OPLS-2005>
236.107040405273

> <r_mmod_Improper_Torsional_Energy-OPLS-2005>
4.30102396011353

> <r_mmod_Van_der_Waal_Energy-OPLS-2005>
168.679946899414

> <r_mmod_Electrostatic_Energy-OPLS-2005>
-396.68017578125

> <r_mmod_Solvation_Energy-OPLS-2005>
-456.171478271484

> <b_mmod_Minimization_Converged-OPLS-2005>
0

> <r_mmod_RMS_Derivative-OPLS-2005>
1.94908595085144

$$$$
72
                    3D
 Structure written by MMmdl.
158166  0  0  1  0            999 V2000
  -30.7613  -14.3834   20.6808 C   0  0  0  0  0  0
  -30.4196  -12.2930   19.3905 C   0  0  0  0  0  0
  -29.4796  -12.5232   18.1912 C   0  0  0  0  0  0
  -28.0056  -12.3774   18.6118 C   0  0  0  0  0  0
  -27.6676  -13.1989   19.8814 C   0  0  2  0  0  0
  -28.7084  -12.9322   20.9915 C   0  0  0  0  0  0
  -25.2577  -13.8113   20.5635 C   0  0  0  0  0  0
  -24.1831  -13.0377   20.9171 C   0  0  0  0  0  0
  -24.6396  -11.6861   20.8751 C   0  0  0  0  0  0
  -23.9045  -10.4238   21.0417 C   0  0  0  0  0  0
  -24.3581   -9.4143   21.9195 C   0  0  0  0  0  0
  -23.6254   -8.2185   22.0750 C   0  0  0  0  0  0
  -22.4245   -8.0230   21.3545 C   0  0  0  0  0  0
  -21.9882   -9.0198   20.4651 C   0  0  0  0  0  0
  -22.7208  -10.2083   20.3067 C   0  0  0  0  0  0
  -21.6823   -6.0701   22.5274 C   0  0  0  0  0  0
  -21.3995   -6.5615   23.8204 C   0  0  0  0  0  0
  -21.3686   -5.6784   24.9180 C   0  0  0  0  0  0
  -21.6058   -4.3039   24.7243 C   0  0  0  0  0  0
  -21.8797   -3.8120   23.4357 C   0  0  0  0  0  0
  -21.9169   -4.6929   22.3412 C   0  0  0  0  0  0
  -22.7860  -13.5177   21.1833 C   0  0  0  0  0  0
  -22.1640   -4.2115   21.0991 F   0  0  0  0  0  0
  -21.5657   -3.4530   25.7761 F   0  0  0  0  0  0
  -30.0573  -13.2360   20.4605 N   0  0  0  0  0  0
  -26.3043  -12.9292   20.3396 N   0  0  0  0  0  0
  -25.9329  -11.6447   20.5792 N   0  0  0  0  0  0
  -22.0530  -12.8196   22.0441 N   0  0  0  0  0  0
  -25.4228  -15.1821   20.3924 N   0  0  0  0  0  0
  -31.7605  -14.6957   20.0253 O   0  0  0  0  0  0
  -21.6605   -6.8837   21.4234 O   0  0  0  0  0  0
  -22.3541  -14.5483   20.6679 O   0  0  0  0  0  0
  -24.6153  -31.8664   23.2067 C   0  0  0  0  0  0
  -25.9033  -32.4812   23.8356 C   0  0  1  0  0  0
  -27.2470  -27.4252   20.0931 C   0  0  0  0  0  0
  -25.5887  -33.8606   24.2301 N   0  0  0  0  0  0
  -23.4052  -30.4882   21.5482 C   0  0  2  0  0  0
  -24.8539  -28.9536   20.1153 C   0  0  0  0  0  0
  -22.7399  -29.4671   22.4974 C   0  0  0  0  0  0
  -18.0282  -28.1407   22.8518 C   0  0  0  0  0  0
  -24.1478  -36.7294   23.2646 C   0  0  0  0  0  0
  -25.9373  -30.8299   21.3652 C   0  0  0  0  0  0
  -26.0143  -29.4642   20.7100 C   0  0  0  0  0  0
  -27.2104  -28.7048   20.6991 C   0  0  0  0  0  0
  -26.0584  -26.9334   19.5010 C   0  0  0  0  0  0
  -24.8709  -27.6871   19.5112 C   0  0  0  0  0  0
  -23.6136  -29.8169   20.1639 C   0  0  0  0  0  0
  -25.4101  -36.3109   24.0351 C   0  0  1  0  0  0
  -20.5877  -28.3682   23.1321 C   0  0  2  0  0  0
  -20.6786  -26.9424   22.5434 C   0  0  0  0  0  0
  -19.5753  -26.6413   21.5241 C   0  0  0  0  0  0
  -18.1912  -26.7964   22.1649 C   0  0  0  0  0  0
  -19.1528  -28.8863   23.2937 C   0  0  0  0  0  0
  -18.9461  -30.1468   23.8926 C   0  0  0  0  0  0
  -17.6466  -30.6613   24.0578 C   0  0  0  0  0  0
  -25.9038  -34.9474   23.5132 C   0  0  0  0  0  0
  -16.5347  -29.9128   23.6343 C   0  0  0  0  0  0
  -16.7267  -28.6550   23.0354 C   0  0  0  0  0  0
  -26.4454  -31.6599   25.0690 C   0  0  0  0  0  0
  -25.3725  -31.3717   26.1440 C   0  0  0  0  0  0
  -27.0275  -30.3029   24.6085 C   0  0  0  0  0  0
  -27.6021  -32.4314   25.7459 C   0  0  0  0  0  0
  -27.5580  -37.1807   24.8478 C   0  0  0  0  0  0
  -21.4127  -29.3036   22.3707 N   0  0  0  0  0  0
  -26.4291  -37.3790   23.9409 N   0  0  0  0  0  0
  -24.6712  -31.0745   22.0984 N   0  0  0  0  0  0
  -23.4173  -28.8256   23.3051 O   0  0  0  0  0  0
  -28.4285  -26.6965   20.1047 O   0  0  0  0  0  0
  -26.5592  -34.8946   22.4690 O   0  0  0  0  0  0
  -23.5336  -32.1420   23.7442 O   0  0  0  0  0  0
  -29.6171  -18.0903   23.7006 C   0  0  0  0  0  0
  -29.7386  -16.7581   23.2826 C   0  0  0  0  0  0
  -30.1650  -19.1035   22.8942 C   0  0  0  0  0  0
  -30.3954  -16.4531   22.0740 C   0  0  0  0  0  0
  -30.8333  -18.7305   21.7045 C   0  0  0  0  0  0
  -30.6368  -22.0822   20.3530 C   0  0  0  0  0  0
  -29.5527  -23.0031   19.7592 C   0  0  0  0  0  0
  -30.4463  -20.5615   20.1668 C   0  0  0  0  0  0
  -29.6468  -24.5114   20.1310 C   0  0  0  0  0  0
  -28.3526  -25.2920   19.7936 C   0  0  0  0  0  0
  -30.9528  -17.4399   21.3141 N   0  0  0  0  0  0
  -30.0831  -20.4397   23.2891 N   0  0  0  0  0  0
  -30.3449  -15.0694   21.7563 N   0  0  0  0  0  0
  -31.4099  -19.7099   20.8817 N   0  0  0  0  0  0
  -31.6128  -22.5419   20.9558 O   0  0  0  0  0  0
  -31.4604  -12.3980   19.0804 H   0  0  0  0  0  0
  -30.3187  -11.2684   19.7529 H   0  0  0  0  0  0
  -29.7102  -11.8195   17.3895 H   0  0  0  0  0  0
  -29.6446  -13.5176   17.7772 H   0  0  0  0  0  0
  -27.8123  -11.3193   18.7920 H   0  0  0  0  0  0
  -27.3483  -12.6717   17.7943 H   0  0  0  0  0  0
  -27.7314  -14.2538   19.6164 H   0  0  0  0  0  0
  -28.6683  -11.8836   21.2869 H   0  0  0  0  0  0
  -28.4449  -13.4926   21.8891 H   0  0  0  0  0  0
  -25.2716   -9.5590   22.4780 H   0  0  0  0  0  0
  -23.9957   -7.4555   22.7440 H   0  0  0  0  0  0
  -21.0828   -8.8678   19.8949 H   0  0  0  0  0  0
  -22.3644  -10.9613   19.6170 H   0  0  0  0  0  0
  -21.1971   -7.6119   23.9706 H   0  0  0  0  0  0
  -21.1565   -6.0522   25.9097 H   0  0  0  0  0  0
  -22.0562   -2.7576   23.2868 H   0  0  0  0  0  0
  -22.4167  -11.9889   22.4885 H   0  0  0  0  0  0
  -21.1139  -13.1214   22.2637 H   0  0  0  0  0  0
  -24.6330  -15.8176   20.4347 H   0  0  0  0  0  0
  -26.2564  -15.6114   20.0100 H   0  0  0  0  0  0
  -26.7114  -32.5523   23.1129 H   0  0  0  0  0  0
  -25.0007  -33.9729   25.0430 H   0  0  0  0  0  0
  -22.7027  -31.3126   21.4056 H   0  0  0  0  0  0
  -23.3753  -35.9622   23.3326 H   0  0  0  0  0  0
  -24.3568  -36.8865   22.2059 H   0  0  0  0  0  0
  -23.7227  -37.6511   23.6624 H   0  0  0  0  0  0
  -26.0492  -31.6032   20.6035 H   0  0  0  0  0  0
  -26.8248  -30.8797   21.9838 H   0  0  0  0  0  0
  -28.1066  -29.0941   21.1658 H   0  0  0  0  0  0
  -26.0204  -25.9674   19.0214 H   0  0  0  0  0  0
  -23.9805  -27.2793   19.0494 H   0  0  0  0  0  0
  -23.7165  -30.5898   19.4000 H   0  0  0  0  0  0
  -22.7418  -29.2308   19.8650 H   0  0  0  0  0  0
  -25.1298  -36.1969   25.0851 H   0  0  0  0  0  0
  -20.9959  -28.3267   24.1446 H   0  0  0  0  0  0
  -20.5685  -26.2289   23.3620 H   0  0  0  0  0  0
  -21.6653  -26.7487   22.1207 H   0  0  0  0  0  0
  -19.6887  -25.6329   21.1253 H   0  0  0  0  0  0
  -19.6678  -27.3240   20.6782 H   0  0  0  0  0  0
  -17.4182  -26.6712   21.4046 H   0  0  0  0  0  0
  -18.0322  -26.0107   22.9046 H   0  0  0  0  0  0
  -19.7932  -30.7288   24.2288 H   0  0  0  0  0  0
  -17.5023  -31.6292   24.5180 H   0  0  0  0  0  0
  -15.5348  -30.3031   23.7661 H   0  0  0  0  0  0
  -15.8680  -28.0878   22.7039 H   0  0  0  0  0  0
  -24.5890  -30.7059   25.7801 H   0  0  0  0  0  0
  -24.8924  -32.2880   26.4891 H   0  0  0  0  0  0
  -25.8095  -30.8899   27.0191 H   0  0  0  0  0  0
  -26.2821  -29.6798   24.1118 H   0  0  0  0  0  0
  -27.4008  -29.7251   25.4551 H   0  0  0  0  0  0
  -27.8683  -30.4330   23.9260 H   0  0  0  0  0  0
  -27.2627  -33.3596   26.2065 H   0  0  0  0  0  0
  -28.3826  -32.6883   25.0289 H   0  0  0  0  0  0
  -28.0690  -31.8407   26.5348 H   0  0  0  0  0  0
  -28.2644  -38.0067   24.7518 H   0  0  0  0  0  0
  -28.1031  -36.2596   24.6328 H   0  0  0  0  0  0
  -27.2287  -37.1520   25.8883 H   0  0  0  0  0  0
  -20.9284  -29.8726   21.6905 H   0  0  0  0  0  0
  -26.0184  -38.2870   24.1402 H   0  0  0  0  0  0
  -29.0995  -18.3255   24.6209 H   0  0  0  0  0  0
  -29.3064  -15.9795   23.8966 H   0  0  0  0  0  0
  -28.5929  -22.6123   20.0982 H   0  0  0  0  0  0
  -29.5679  -22.8855   18.6759 H   0  0  0  0  0  0
  -30.5355  -20.3369   19.1051 H   0  0  0  0  0  0
  -29.4220  -20.3060   20.4456 H   0  0  0  0  0  0
  -30.4931  -24.9646   19.6103 H   0  0  0  0  0  0
  -29.8484  -24.6122   21.1966 H   0  0  0  0  0  0
  -28.1227  -25.1667   18.7339 H   0  0  0  0  0  0
  -27.5379  -24.8358   20.3602 H   0  0  0  0  0  0
  -29.9518  -20.6341   24.2773 H   0  0  0  0  0  0
  -30.7764  -21.0458   22.8565 H   0  0  0  0  0  0
  -29.7033  -14.5407   22.3242 H   0  0  0  0  0  0
  -32.1386  -19.3660   20.2706 H   0  0  0  0  0  0
  1 25  1  0  0  0
  1 30  2  0  0  0
  1 83  1  0  0  0
  2  3  1  0  0  0
  2 25  1  0  0  0
  2 86  1  0  0  0
  2 87  1  0  0  0
  3  4  1  0  0  0
  3 88  1  0  0  0
  3 89  1  0  0  0
  4  5  1  0  0  0
  4 90  1  0  0  0
  4 91  1  0  0  0
  5  6  1  0  0  0
  5 26  1  0  0  0
  5 92  1  0  0  0
  6 25  1  0  0  0
  6 93  1  0  0  0
  6 94  1  0  0  0
  7  8  2  0  0  0
  7 26  1  0  0  0
  7 29  1  0  0  0
  8  9  1  0  0  0
  8 22  1  0  0  0
  9 10  1  0  0  0
  9 27  2  0  0  0
 10 11  2  0  0  0
 10 15  1  0  0  0
 11 12  1  0  0  0
 11 95  1  0  0  0
 12 13  2  0  0  0
 12 96  1  0  0  0
 13 14  1  0  0  0
 13 31  1  0  0  0
 14 15  2  0  0  0
 14 97  1  0  0  0
 15 98  1  0  0  0
 16 17  2  0  0  0
 16 21  1  0  0  0
 16 31  1  0  0  0
 17 18  1  0  0  0
 17 99  1  0  0  0
 18 19  2  0  0  0
 18100  1  0  0  0
 19 20  1  0  0  0
 19 24  1  0  0  0
 20 21  2  0  0  0
 20101  1  0  0  0
 21 23  1  0  0  0
 22 28  1  0  0  0
 22 32  2  0  0  0
 26 27  1  0  0  0
 28102  1  0  0  0
 28103  1  0  0  0
 29104  1  0  0  0
 29105  1  0  0  0
 33 34  1  0  0  0
 33 66  1  0  0  0
 33 70  2  0  0  0
 34 36  1  0  0  0
 34 59  1  0  0  0
 34106  1  0  0  0
 35 44  2  0  0  0
 35 45  1  0  0  0
 35 68  1  0  0  0
 36 56  1  0  0  0
 36107  1  0  0  0
 37 39  1  0  0  0
 37 47  1  0  0  0
 37 66  1  0  0  0
 37108  1  0  0  0
 38 43  2  0  0  0
 38 46  1  0  0  0
 38 47  1  0  0  0
 39 64  1  0  0  0
 39 67  2  0  0  0
 40 52  1  0  0  0
 40 53  2  0  0  0
 40 58  1  0  0  0
 41109  1  0  0  0
 41110  1  0  0  0
 41111  1  0  0  0
 41 48  1  0  0  0
 42 43  1  0  0  0
 42 66  1  0  0  0
 42112  1  0  0  0
 42113  1  0  0  0
 43 44  1  0  0  0
 44114  1  0  0  0
 45 46  2  0  0  0
 45115  1  0  0  0
 46116  1  0  0  0
 47117  1  0  0  0
 47118  1  0  0  0
 48 56  1  0  0  0
 48 65  1  0  0  0
 48119  1  0  0  0
 49 50  1  0  0  0
 49 53  1  0  0  0
 49 64  1  0  0  0
 49120  1  0  0  0
 50 51  1  0  0  0
 50121  1  0  0  0
 50122  1  0  0  0
 51 52  1  0  0  0
 51123  1  0  0  0
 51124  1  0  0  0
 52125  1  0  0  0
 52126  1  0  0  0
 53 54  1  0  0  0
 54 55  2  0  0  0
 54127  1  0  0  0
 55 57  1  0  0  0
 55128  1  0  0  0
 56 69  2  0  0  0
 57 58  2  0  0  0
 57129  1  0  0  0
 58130  1  0  0  0
 59 60  1  0  0  0
 59 61  1  0  0  0
 59 62  1  0  0  0
 60131  1  0  0  0
 60132  1  0  0  0
 60133  1  0  0  0
 61134  1  0  0  0
 61135  1  0  0  0
 61136  1  0  0  0
 62137  1  0  0  0
 62138  1  0  0  0
 62139  1  0  0  0
 63 65  1  0  0  0
 63140  1  0  0  0
 63141  1  0  0  0
 63142  1  0  0  0
 64143  1  0  0  0
 65144  1  0  0  0
 68 80  1  0  0  0
 71 72  2  0  0  0
 71 73  1  0  0  0
 71145  1  0  0  0
 72 74  1  0  0  0
 72146  1  0  0  0
 73 75  2  0  0  0
 73 82  1  0  0  0
 74 81  2  0  0  0
 74 83  1  0  0  0
 75 81  1  0  0  0
 75 84  1  0  0  0
 76 77  1  0  0  0
 76 78  1  0  0  0
 76 85  2  0  0  0
 77 79  1  0  0  0
 77147  1  0  0  0
 77148  1  0  0  0
 78 84  1  0  0  0
 78149  1  0  0  0
 78150  1  0  0  0
 79 80  1  0  0  0
 79151  1  0  0  0
 79152  1  0  0  0
 80153  1  0  0  0
 80154  1  0  0  0
 82155  1  0  0  0
 82156  1  0  0  0
 83157  1  0  0  0
 84158  1  0  0  0
M  ISO  4   1 100  68 101  80 101  83 100
M  END
> <chiral flag>
0

> <version>
0

> <s_m_source_file>
/data/baiqing/PycharmProjects/Reinvent-master-3.2/result/LINK_invent/BTK/process_docking_weight1_custom_product_contain_oxygen_bond_distance_aromatic_linkinvent_7_9_3/rearranged_h_0168.sdf

> <i_m_source_file_index>
73

> <r_mmod_Potential_Energy-OPLS-2005>
-366.563934326172

> <r_mmod_Stretch_Energy-OPLS-2005>
39.5567245483398

> <r_mmod_Bend_Energy-OPLS-2005>
108.170768737793

> <r_mmod_Torsional_Energy-OPLS-2005>
212.031677246094

> <r_mmod_Improper_Torsional_Energy-OPLS-2005>
12.8300628662109

> <r_mmod_Van_der_Waal_Energy-OPLS-2005>
161.447296142578

> <r_mmod_Electrostatic_Energy-OPLS-2005>
-645.306030273438

> <r_mmod_Solvation_Energy-OPLS-2005>
-264.648223876953

> <b_mmod_Minimization_Converged-OPLS-2005>
0

> <r_mmod_RMS_Derivative-OPLS-2005>
3.84624028205872

$$$$
73
                    3D
 Structure written by MMmdl.
149157  0  0  1  0            999 V2000
  -30.5494  -14.9034   20.4354 C   0  0  0  0  0  0
  -30.4465  -12.5632   19.4775 C   0  0  0  0  0  0
  -29.5203  -12.5310   18.2402 C   0  0  0  0  0  0
  -28.0518  -12.3196   18.6607 C   0  0  0  0  0  0
  -27.6329  -13.2402   19.8375 C   0  0  2  0  0  0
  -28.6812  -13.2409   20.9699 C   0  0  0  0  0  0
  -25.2488  -13.8195   20.5699 C   0  0  0  0  0  0
  -24.1792  -13.0428   20.9217 C   0  0  0  0  0  0
  -24.6398  -11.6911   20.8745 C   0  0  0  0  0  0
  -23.9082  -10.4286   21.0422 C   0  0  0  0  0  0
  -24.3626   -9.4199   21.9199 C   0  0  0  0  0  0
  -23.6299   -8.2235   22.0759 C   0  0  0  0  0  0
  -22.4282   -8.0287   21.3545 C   0  0  0  0  0  0
  -21.9925   -9.0269   20.4650 C   0  0  0  0  0  0
  -22.7259  -10.2139   20.3069 C   0  0  0  0  0  0
  -21.6859   -6.0745   22.5279 C   0  0  0  0  0  0
  -21.4016   -6.5643   23.8216 C   0  0  0  0  0  0
  -21.3653   -5.6788   24.9172 C   0  0  0  0  0  0
  -21.6043   -4.3054   24.7219 C   0  0  0  0  0  0
  -21.8814   -3.8151   23.4338 C   0  0  0  0  0  0
  -21.9185   -4.6968   22.3393 C   0  0  0  0  0  0
  -22.7807  -13.5214   21.1868 C   0  0  0  0  0  0
  -22.1656   -4.2158   21.0972 F   0  0  0  0  0  0
  -21.5626   -3.4529   25.7729 F   0  0  0  0  0  0
  -29.9569  -13.6475   20.3669 N   0  0  0  0  0  0
  -26.2908  -12.9411   20.3222 N   0  0  0  0  0  0
  -25.9335  -11.6551   20.5723 N   0  0  0  0  0  0
  -22.0429  -12.8233   22.0420 N   0  0  0  0  0  0
  -25.4132  -15.1929   20.4138 N   0  0  0  0  0  0
  -31.7656  -14.9775   20.2294 O   0  0  0  0  0  0
  -21.6637   -6.8895   21.4251 O   0  0  0  0  0  0
  -22.3496  -14.5518   20.6700 O   0  0  0  0  0  0
  -24.6407  -31.8479   23.1922 C   0  0  0  0  0  0
  -25.9186  -32.4722   23.8306 C   0  0  1  0  0  0
  -27.2271  -27.1772   20.1415 C   0  0  0  0  0  0
  -25.5944  -33.8535   24.2215 N   0  0  0  0  0  0
  -23.4425  -30.4684   21.5377 C   0  0  2  0  0  0
  -24.8918  -28.9046   20.1095 C   0  0  0  0  0  0
  -22.7549  -29.4562   22.4875 C   0  0  0  0  0  0
  -18.0297  -28.1382   22.8472 C   0  0  0  0  0  0
  -24.1487  -36.7281   23.2640 C   0  0  0  0  0  0
  -25.9970  -30.7351   21.3860 C   0  0  0  0  0  0
  -26.0701  -29.3523   20.7221 C   0  0  0  0  0  0
  -27.2378  -28.5048   20.7219 C   0  0  0  0  0  0
  -26.0069  -26.8082   19.5287 C   0  0  0  0  0  0
  -24.8697  -27.6419   19.5001 C   0  0  0  0  0  0
  -23.6671  -29.8034   20.1547 C   0  0  0  0  0  0
  -25.4119  -36.3056   24.0311 C   0  0  1  0  0  0
  -20.5908  -28.3715   23.1244 C   0  0  2  0  0  0
  -20.6792  -26.9425   22.5408 C   0  0  0  0  0  0
  -19.5773  -26.6371   21.5215 C   0  0  0  0  0  0
  -18.1942  -26.7922   22.1611 C   0  0  0  0  0  0
  -19.1547  -28.8865   23.2849 C   0  0  0  0  0  0
  -18.9470  -30.1455   23.8881 C   0  0  0  0  0  0
  -17.6470  -30.6591   24.0554 C   0  0  0  0  0  0
  -25.9064  -34.9426   23.5066 C   0  0  0  0  0  0
  -16.5364  -29.9079   23.6334 C   0  0  0  0  0  0
  -16.7280  -28.6489   23.0370 C   0  0  0  0  0  0
  -26.4497  -31.6590   25.0752 C   0  0  0  0  0  0
  -25.3672  -31.3807   26.1446 C   0  0  0  0  0  0
  -27.0361  -30.2975   24.6349 C   0  0  0  0  0  0
  -27.6018  -32.4355   25.7547 C   0  0  0  0  0  0
  -27.5575  -37.1802   24.8453 C   0  0  0  0  0  0
  -21.4246  -29.3043   22.3616 N   0  0  0  0  0  0
  -26.4289  -37.3761   23.9390 N   0  0  0  0  0  0
  -24.7130  -31.0363   22.0945 N   0  0  0  0  0  0
  -23.4197  -28.8122   23.3032 O   0  0  0  0  0  0
  -28.2788  -26.1925   20.2250 O   0  0  0  0  0  0
  -26.5640  -34.8911   22.4641 O   0  0  0  0  0  0
  -23.5528  -32.1346   23.7152 O   0  0  0  0  0  0
  -30.7785  -18.0497   21.6012 C   0  0  0  0  0  0
  -29.9310  -17.5475   20.6386 C   0  0  0  0  0  0
  -29.5003  -19.9685   20.5051 C   0  0  0  0  0  0
  -28.6803  -23.6991   19.3315 C   0  0  0  0  0  0
  -28.4393  -25.1114   19.2756 C   0  0  0  0  0  0
  -28.9598  -22.6364   20.4071 C   0  0  0  0  0  0
  -28.3942  -25.7421   17.8758 C   0  0  0  0  0  0
  -29.2125  -18.6829   20.0352 N   0  0  0  0  0  0
  -29.7242  -16.0550   20.4327 N   0  0  0  0  0  0
  -28.9939  -21.2901   19.9595 N   0  0  0  0  0  0
  -29.1586  -22.9116   21.5924 O   0  0  0  0  0  0
  -28.7072  -23.1275   18.1128 O   0  0  0  0  0  0
  -30.7030  -19.8180   21.7904 S   0  0  0  0  0  0
  -31.4790  -12.7328   19.1661 H   0  0  0  0  0  0
  -30.4402  -11.6026   19.9956 H   0  0  0  0  0  0
  -29.8356  -11.7477   17.5506 H   0  0  0  0  0  0
  -29.6123  -13.4722   17.6951 H   0  0  0  0  0  0
  -27.9425  -11.2764   18.9577 H   0  0  0  0  0  0
  -27.3870  -12.4622   17.8078 H   0  0  0  0  0  0
  -27.6038  -14.2483   19.4243 H   0  0  0  0  0  0
  -28.7608  -12.2566   21.4346 H   0  0  0  0  0  0
  -28.3931  -13.9324   21.7637 H   0  0  0  0  0  0
  -25.2770   -9.5676   22.4780 H   0  0  0  0  0  0
  -23.9998   -7.4630   22.7488 H   0  0  0  0  0  0
  -21.0849   -8.8813   19.8965 H   0  0  0  0  0  0
  -22.3738  -10.9689   19.6177 H   0  0  0  0  0  0
  -21.2025   -7.6153   23.9729 H   0  0  0  0  0  0
  -21.1479   -6.0511   25.9073 H   0  0  0  0  0  0
  -22.0603   -2.7618   23.2828 H   0  0  0  0  0  0
  -22.4013  -11.9898   22.4848 H   0  0  0  0  0  0
  -21.1052  -13.1311   22.2600 H   0  0  0  0  0  0
  -24.6423  -15.8410   20.5354 H   0  0  0  0  0  0
  -26.2522  -15.6428   20.0749 H   0  0  0  0  0  0
  -26.7274  -32.5328   23.1061 H   0  0  0  0  0  0
  -25.0090  -33.9668   25.0355 H   0  0  0  0  0  0
  -22.7441  -31.2944   21.3885 H   0  0  0  0  0  0
  -23.3749  -35.9616   23.3301 H   0  0  0  0  0  0
  -24.3578  -36.8913   22.2060 H   0  0  0  0  0  0
  -23.7250  -37.6479   23.6679 H   0  0  0  0  0  0
  -26.1524  -31.4981   20.6223 H   0  0  0  0  0  0
  -26.8678  -30.7778   22.0293 H   0  0  0  0  0  0
  -28.1375  -28.8447   21.2154 H   0  0  0  0  0  0
  -25.9044  -25.8221   19.1008 H   0  0  0  0  0  0
  -23.9643  -27.2809   19.0321 H   0  0  0  0  0  0
  -23.8024  -30.5838   19.4045 H   0  0  0  0  0  0
  -22.7813  -29.2467   19.8425 H   0  0  0  0  0  0
  -25.1309  -36.1900   25.0807 H   0  0  0  0  0  0
  -20.9993  -28.3307   24.1371 H   0  0  0  0  0  0
  -20.5705  -26.2332   23.3623 H   0  0  0  0  0  0
  -21.6663  -26.7456   22.1207 H   0  0  0  0  0  0
  -19.6953  -25.6270   21.1275 H   0  0  0  0  0  0
  -19.6725  -27.3158   20.6726 H   0  0  0  0  0  0
  -17.4230  -26.6669   21.3998 H   0  0  0  0  0  0
  -18.0334  -26.0060   22.9002 H   0  0  0  0  0  0
  -19.7948  -30.7260   24.2259 H   0  0  0  0  0  0
  -17.5034  -31.6281   24.5140 H   0  0  0  0  0  0
  -15.5360  -30.2993   23.7662 H   0  0  0  0  0  0
  -15.8672  -28.0804   22.7119 H   0  0  0  0  0  0
  -24.5831  -30.7174   25.7774 H   0  0  0  0  0  0
  -24.8889  -32.3015   26.4801 H   0  0  0  0  0  0
  -25.7944  -30.9025   27.0270 H   0  0  0  0  0  0
  -26.2998  -29.6712   24.1305 H   0  0  0  0  0  0
  -27.3896  -29.7266   25.4947 H   0  0  0  0  0  0
  -27.8936  -30.4194   23.9726 H   0  0  0  0  0  0
  -27.2589  -33.3658   26.2087 H   0  0  0  0  0  0
  -28.3862  -32.6912   25.0412 H   0  0  0  0  0  0
  -28.0650  -31.8513   26.5508 H   0  0  0  0  0  0
  -28.2578  -38.0108   24.7492 H   0  0  0  0  0  0
  -28.1078  -36.2637   24.6283 H   0  0  0  0  0  0
  -27.2292  -37.1458   25.8854 H   0  0  0  0  0  0
  -20.9439  -29.8744   21.6796 H   0  0  0  0  0  0
  -26.0159  -38.2832   24.1383 H   0  0  0  0  0  0
  -31.4276  -17.4870   22.2580 H   0  0  0  0  0  0
  -29.3015  -25.5037   17.3189 H   0  0  0  0  0  0
  -28.3519  -26.8309   17.8943 H   0  0  0  0  0  0
  -27.5299  -25.3903   17.3117 H   0  0  0  0  0  0
  -28.7595  -15.8118   20.2811 H   0  0  0  0  0  0
  -28.6741  -21.2372   19.0024 H   0  0  0  0  0  0
  -28.5772  -23.8267   17.4847 H   0  0  0  0  0  0
  1 25  1  0  0  0
  1 30  2  0  0  0
  1 79  1  0  0  0
  2  3  1  0  0  0
  2 25  1  0  0  0
  2 84  1  0  0  0
  2 85  1  0  0  0
  3  4  1  0  0  0
  3 86  1  0  0  0
  3 87  1  0  0  0
  4  5  1  0  0  0
  4 88  1  0  0  0
  4 89  1  0  0  0
  5  6  1  0  0  0
  5 26  1  0  0  0
  5 90  1  0  0  0
  6 25  1  0  0  0
  6 91  1  0  0  0
  6 92  1  0  0  0
  7  8  2  0  0  0
  7 26  1  0  0  0
  7 29  1  0  0  0
  8  9  1  0  0  0
  8 22  1  0  0  0
  9 10  1  0  0  0
  9 27  2  0  0  0
 10 11  2  0  0  0
 10 15  1  0  0  0
 11 12  1  0  0  0
 11 93  1  0  0  0
 12 13  2  0  0  0
 12 94  1  0  0  0
 13 14  1  0  0  0
 13 31  1  0  0  0
 14 15  2  0  0  0
 14 95  1  0  0  0
 15 96  1  0  0  0
 16 17  2  0  0  0
 16 21  1  0  0  0
 16 31  1  0  0  0
 17 18  1  0  0  0
 17 97  1  0  0  0
 18 19  2  0  0  0
 18 98  1  0  0  0
 19 20  1  0  0  0
 19 24  1  0  0  0
 20 21  2  0  0  0
 20 99  1  0  0  0
 21 23  1  0  0  0
 22 28  1  0  0  0
 22 32  2  0  0  0
 26 27  1  0  0  0
 28100  1  0  0  0
 28101  1  0  0  0
 29102  1  0  0  0
 29103  1  0  0  0
 33 34  1  0  0  0
 33 66  1  0  0  0
 33 70  2  0  0  0
 34 36  1  0  0  0
 34 59  1  0  0  0
 34104  1  0  0  0
 35 44  2  0  0  0
 35 45  1  0  0  0
 35 68  1  0  0  0
 36 56  1  0  0  0
 36105  1  0  0  0
 37 39  1  0  0  0
 37 47  1  0  0  0
 37 66  1  0  0  0
 37106  1  0  0  0
 38 43  2  0  0  0
 38 46  1  0  0  0
 38 47  1  0  0  0
 39 64  1  0  0  0
 39 67  2  0  0  0
 40 52  1  0  0  0
 40 53  2  0  0  0
 40 58  1  0  0  0
 41107  1  0  0  0
 41108  1  0  0  0
 41109  1  0  0  0
 41 48  1  0  0  0
 42 43  1  0  0  0
 42 66  1  0  0  0
 42110  1  0  0  0
 42111  1  0  0  0
 43 44  1  0  0  0
 44112  1  0  0  0
 45 46  2  0  0  0
 45113  1  0  0  0
 46114  1  0  0  0
 47115  1  0  0  0
 47116  1  0  0  0
 48 56  1  0  0  0
 48 65  1  0  0  0
 48117  1  0  0  0
 49 50  1  0  0  0
 49 53  1  0  0  0
 49 64  1  0  0  0
 49118  1  0  0  0
 50 51  1  0  0  0
 50119  1  0  0  0
 50120  1  0  0  0
 51 52  1  0  0  0
 51121  1  0  0  0
 51122  1  0  0  0
 52123  1  0  0  0
 52124  1  0  0  0
 53 54  1  0  0  0
 54 55  2  0  0  0
 54125  1  0  0  0
 55 57  1  0  0  0
 55126  1  0  0  0
 56 69  2  0  0  0
 57 58  2  0  0  0
 57127  1  0  0  0
 58128  1  0  0  0
 59 60  1  0  0  0
 59 61  1  0  0  0
 59 62  1  0  0  0
 60129  1  0  0  0
 60130  1  0  0  0
 60131  1  0  0  0
 61132  1  0  0  0
 61133  1  0  0  0
 61134  1  0  0  0
 62135  1  0  0  0
 62136  1  0  0  0
 62137  1  0  0  0
 63 65  1  0  0  0
 63138  1  0  0  0
 63139  1  0  0  0
 63140  1  0  0  0
 64141  1  0  0  0
 65142  1  0  0  0
 68 75  1  0  0  0
 71 72  2  0  0  0
 71 83  1  0  0  0
 71143  1  0  0  0
 72 78  1  0  0  0
 72 79  1  0  0  0
 73 78  2  0  0  0
 73 80  1  0  0  0
 73 83  1  0  0  0
 74 75  2  0  0  0
 74 76  1  0  0  0
 74 82  1  0  0  0
 75 77  1  0  0  0
 76 80  1  0  0  0
 76 81  2  0  0  0
 77144  1  0  0  0
 77145  1  0  0  0
 77146  1  0  0  0
 79147  1  0  0  0
 80148  1  0  0  0
 82149  1  0  0  0
M  ISO  4   1 100  68 101  75 101  79 100
M  END
> <chiral flag>
0

> <version>
0

> <s_m_source_file>
/data/baiqing/PycharmProjects/Reinvent-master-3.2/result/LINK_invent/BTK/process_docking_weight1_custom_product_contain_oxygen_bond_distance_aromatic_linkinvent_7_9_3/rearranged_h_0168.sdf

> <i_m_source_file_index>
74

> <r_mmod_Potential_Energy-OPLS-2005>
319.839385986328

> <r_mmod_Stretch_Energy-OPLS-2005>
197.0283203125

> <r_mmod_Bend_Energy-OPLS-2005>
269.517852783203

> <r_mmod_Torsional_Energy-OPLS-2005>
231.419219970703

> <r_mmod_Improper_Torsional_Energy-OPLS-2005>
8.93704414367676

> <r_mmod_Van_der_Waal_Energy-OPLS-2005>
134.119338989258

> <r_mmod_Electrostatic_Energy-OPLS-2005>
-449.050445556641

> <r_mmod_Solvation_Energy-OPLS-2005>
-237.739273071289

> <b_mmod_Minimization_Converged-OPLS-2005>
0

> <r_mmod_RMS_Derivative-OPLS-2005>
2.06308650970459

$$$$
74
                    3D
 Structure written by MMmdl.
156164  0  0  1  0            999 V2000
  -30.7598  -14.5712   20.5795 C   0  0  0  0  0  0
  -30.4230  -12.3814   19.4568 C   0  0  0  0  0  0
  -29.5021  -12.5143   18.2277 C   0  0  0  0  0  0
  -28.0293  -12.3566   18.6463 C   0  0  0  0  0  0
  -27.6594  -13.2320   19.8728 C   0  0  2  0  0  0
  -28.7078  -13.1208   21.0056 C   0  0  0  0  0  0
  -25.2582  -13.8207   20.5747 C   0  0  0  0  0  0
  -24.1843  -13.0449   20.9206 C   0  0  0  0  0  0
  -24.6413  -11.6923   20.8738 C   0  0  0  0  0  0
  -23.9077  -10.4299   21.0398 C   0  0  0  0  0  0
  -24.3625   -9.4227   21.9186 C   0  0  0  0  0  0
  -23.6301   -8.2263   22.0745 C   0  0  0  0  0  0
  -22.4285   -8.0286   21.3538 C   0  0  0  0  0  0
  -21.9926   -9.0264   20.4648 C   0  0  0  0  0  0
  -22.7246  -10.2146   20.3056 C   0  0  0  0  0  0
  -21.6864   -6.0733   22.5272 C   0  0  0  0  0  0
  -21.4018   -6.5645   23.8203 C   0  0  0  0  0  0
  -21.3659   -5.6795   24.9170 C   0  0  0  0  0  0
  -21.6038   -4.3051   24.7217 C   0  0  0  0  0  0
  -21.8827   -3.8148   23.4339 C   0  0  0  0  0  0
  -21.9200   -4.6963   22.3400 C   0  0  0  0  0  0
  -22.7859  -13.5234   21.1856 C   0  0  0  0  0  0
  -22.1671   -4.2145   21.0972 F   0  0  0  0  0  0
  -21.5629   -3.4538   25.7734 F   0  0  0  0  0  0
  -30.0319  -13.4192   20.4363 N   0  0  0  0  0  0
  -26.3036  -12.9430   20.3403 N   0  0  0  0  0  0
  -25.9368  -11.6560   20.5805 N   0  0  0  0  0  0
  -22.0497  -12.8211   22.0394 N   0  0  0  0  0  0
  -25.4277  -15.1921   20.4153 N   0  0  0  0  0  0
  -31.8849  -14.6629   20.0826 O   0  0  0  0  0  0
  -21.6647   -6.8871   21.4232 O   0  0  0  0  0  0
  -22.3556  -14.5548   20.6701 O   0  0  0  0  0  0
  -24.6236  -31.8583   23.1990 C   0  0  0  0  0  0
  -25.9065  -32.4782   23.8334 C   0  0  1  0  0  0
  -27.2534  -27.3568   20.1361 C   0  0  0  0  0  0
  -25.5863  -33.8567   24.2272 N   0  0  0  0  0  0
  -23.4200  -30.4771   21.5373 C   0  0  2  0  0  0
  -24.8736  -28.9269   20.1176 C   0  0  0  0  0  0
  -22.7473  -29.4597   22.4887 C   0  0  0  0  0  0
  -18.0293  -28.1372   22.8518 C   0  0  0  0  0  0
  -24.1471  -36.7309   23.2636 C   0  0  0  0  0  0
  -25.9542  -30.8056   21.3597 C   0  0  0  0  0  0
  -26.0364  -29.4292   20.7176 C   0  0  0  0  0  0
  -27.2295  -28.6557   20.7144 C   0  0  0  0  0  0
  -26.0731  -26.8845   19.5254 C   0  0  0  0  0  0
  -24.8919  -27.6584   19.5132 C   0  0  0  0  0  0
  -23.6367  -29.8015   20.1560 C   0  0  0  0  0  0
  -25.4102  -36.3080   24.0317 C   0  0  1  0  0  0
  -20.5898  -28.3645   23.1293 C   0  0  2  0  0  0
  -20.6773  -26.9366   22.5421 C   0  0  0  0  0  0
  -19.5745  -26.6379   21.5219 C   0  0  0  0  0  0
  -18.1924  -26.7939   22.1626 C   0  0  0  0  0  0
  -19.1548  -28.8831   23.2916 C   0  0  0  0  0  0
  -18.9466  -30.1457   23.8909 C   0  0  0  0  0  0
  -17.6465  -30.6585   24.0563 C   0  0  0  0  0  0
  -25.9019  -34.9455   23.5114 C   0  0  0  0  0  0
  -16.5356  -29.9086   23.6320 C   0  0  0  0  0  0
  -16.7283  -28.6493   23.0362 C   0  0  0  0  0  0
  -26.4463  -31.6594   25.0691 C   0  0  0  0  0  0
  -25.3706  -31.3742   26.1431 C   0  0  0  0  0  0
  -27.0306  -30.3039   24.6120 C   0  0  0  0  0  0
  -27.6016  -32.4315   25.7479 C   0  0  0  0  0  0
  -27.5581  -37.1814   24.8467 C   0  0  0  0  0  0
  -21.4182  -29.3037   22.3691 N   0  0  0  0  0  0
  -26.4278  -37.3781   23.9407 N   0  0  0  0  0  0
  -24.6828  -31.0651   22.0894 N   0  0  0  0  0  0
  -23.4215  -28.8118   23.2930 O   0  0  0  0  0  0
  -28.3894  -26.5482   20.1264 O   0  0  0  0  0  0
  -26.5624  -34.8941   22.4705 O   0  0  0  0  0  0
  -23.5389  -32.1314   23.7342 O   0  0  0  0  0  0
  -30.0896  -18.2002   21.4721 C   0  0  0  0  0  0
  -32.0656  -19.4083   22.2406 C   0  0  0  0  0  0
  -32.1625  -16.9908   21.8901 C   0  0  0  0  0  0
  -30.7154  -19.4438   21.8254 C   0  0  0  0  0  0
  -30.8056  -16.9511   21.4788 C   0  0  0  0  0  0
  -32.7825  -18.1975   22.2672 C   0  0  0  0  0  0
  -29.3673  -23.0158   21.5059 C   0  0  0  0  0  0
  -29.0110  -24.0720   20.6803 C   0  0  0  0  0  0
  -29.8606  -21.6945   20.9900 C   0  0  0  0  0  0
  -29.2710  -23.1613   23.0258 C   0  0  0  0  0  0
  -28.4332  -25.4663   21.1162 C   0  0  0  0  0  0
  -30.0264  -20.7169   21.9330 N   0  0  0  0  0  0
  -30.1752  -15.6698   21.1517 N   0  0  0  0  0  0
  -30.0837  -21.4581   19.7993 O   0  0  0  0  0  0
  -29.1056  -24.0272   19.3413 O   0  0  0  0  0  0
  -34.0773  -18.1857   22.6740 F   0  0  0  0  0  0
  -31.4674  -12.4553   19.1499 H   0  0  0  0  0  0
  -30.3207  -11.3932   19.9053 H   0  0  0  0  0  0
  -29.7611  -11.7641   17.4802 H   0  0  0  0  0  0
  -29.6504  -13.4852   17.7526 H   0  0  0  0  0  0
  -27.8662  -11.3035   18.8757 H   0  0  0  0  0  0
  -27.3704  -12.5834   17.8079 H   0  0  0  0  0  0
  -27.6720  -14.2651   19.5249 H   0  0  0  0  0  0
  -28.7109  -12.1179   21.4332 H   0  0  0  0  0  0
  -28.4605  -13.7981   21.8237 H   0  0  0  0  0  0
  -25.2768   -9.5701   22.4761 H   0  0  0  0  0  0
  -24.0008   -7.4653   22.7467 H   0  0  0  0  0  0
  -21.0856   -8.8775   19.8958 H   0  0  0  0  0  0
  -22.3696  -10.9679   19.6158 H   0  0  0  0  0  0
  -21.2006   -7.6149   23.9699 H   0  0  0  0  0  0
  -21.1477   -6.0527   25.9064 H   0  0  0  0  0  0
  -22.0604   -2.7606   23.2842 H   0  0  0  0  0  0
  -22.4114  -11.9869   22.4773 H   0  0  0  0  0  0
  -21.1101  -13.1222   22.2581 H   0  0  0  0  0  0
  -24.6625  -15.8473   20.5251 H   0  0  0  0  0  0
  -26.2779  -15.6308   20.0846 H   0  0  0  0  0  0
  -26.7143  -32.5459   23.1089 H   0  0  0  0  0  0
  -24.9960  -33.9691   25.0384 H   0  0  0  0  0  0
  -22.7145  -31.2957   21.3835 H   0  0  0  0  0  0
  -23.3723  -35.9652   23.3310 H   0  0  0  0  0  0
  -24.3590  -36.8926   22.2054 H   0  0  0  0  0  0
  -23.7275  -37.6537   23.6668 H   0  0  0  0  0  0
  -26.0796  -31.5578   20.5792 H   0  0  0  0  0  0
  -26.8399  -30.8652   21.9809 H   0  0  0  0  0  0
  -28.1289  -29.0436   21.1727 H   0  0  0  0  0  0
  -26.0653  -25.9060   19.0654 H   0  0  0  0  0  0
  -23.9996  -27.2647   19.0447 H   0  0  0  0  0  0
  -23.7531  -30.5680   19.3877 H   0  0  0  0  0  0
  -22.7626  -29.2186   19.8581 H   0  0  0  0  0  0
  -25.1314  -36.1912   25.0812 H   0  0  0  0  0  0
  -21.0030  -28.3187   24.1399 H   0  0  0  0  0  0
  -20.5648  -26.2242   23.3598 H   0  0  0  0  0  0
  -21.6633  -26.7378   22.1208 H   0  0  0  0  0  0
  -19.6868  -25.6305   21.1211 H   0  0  0  0  0  0
  -19.6681  -27.3214   20.6767 H   0  0  0  0  0  0
  -17.4205  -26.6704   21.4018 H   0  0  0  0  0  0
  -18.0288  -26.0090   22.9011 H   0  0  0  0  0  0
  -19.7940  -30.7278   24.2271 H   0  0  0  0  0  0
  -17.5017  -31.6269   24.5168 H   0  0  0  0  0  0
  -15.5364  -30.2987   23.7673 H   0  0  0  0  0  0
  -15.8667  -28.0819   22.7090 H   0  0  0  0  0  0
  -24.5851  -30.7113   25.7781 H   0  0  0  0  0  0
  -24.8917  -32.2909   26.4856 H   0  0  0  0  0  0
  -25.8006  -30.8918   27.0211 H   0  0  0  0  0  0
  -26.2871  -29.6793   24.1146 H   0  0  0  0  0  0
  -27.4072  -29.7284   25.4594 H   0  0  0  0  0  0
  -27.8696  -30.4391   23.9293 H   0  0  0  0  0  0
  -27.2636  -33.3627   26.2047 H   0  0  0  0  0  0
  -28.3847  -32.6853   25.0311 H   0  0  0  0  0  0
  -28.0662  -31.8442   26.5414 H   0  0  0  0  0  0
  -28.2611  -38.0103   24.7525 H   0  0  0  0  0  0
  -28.1067  -36.2644   24.6272 H   0  0  0  0  0  0
  -27.2307  -37.1457   25.8873 H   0  0  0  0  0  0
  -20.9304  -29.8787   21.6951 H   0  0  0  0  0  0
  -26.0145  -38.2852   24.1406 H   0  0  0  0  0  0
  -29.0448  -18.2096   21.2043 H   0  0  0  0  0  0
  -32.5677  -20.3100   22.5625 H   0  0  0  0  0  0
  -32.7581  -16.0895   21.9469 H   0  0  0  0  0  0
  -28.9733  -24.1587   23.3431 H   0  0  0  0  0  0
  -30.2347  -22.9724   23.5024 H   0  0  0  0  0  0
  -28.5407  -22.4651   23.4399 H   0  0  0  0  0  0
  -29.0394  -25.8489   21.9398 H   0  0  0  0  0  0
  -27.4408  -25.2861   21.5343 H   0  0  0  0  0  0
  -29.8782  -21.0475   22.8774 H   0  0  0  0  0  0
  -29.1903  -15.5845   21.3512 H   0  0  0  0  0  0
  -29.4701  -23.1768   19.1070 H   0  0  0  0  0  0
  1 25  1  0  0  0
  1 30  2  0  0  0
  1 83  1  0  0  0
  2  3  1  0  0  0
  2 25  1  0  0  0
  2 87  1  0  0  0
  2 88  1  0  0  0
  3  4  1  0  0  0
  3 89  1  0  0  0
  3 90  1  0  0  0
  4  5  1  0  0  0
  4 91  1  0  0  0
  4 92  1  0  0  0
  5  6  1  0  0  0
  5 26  1  0  0  0
  5 93  1  0  0  0
  6 25  1  0  0  0
  6 94  1  0  0  0
  6 95  1  0  0  0
  7  8  2  0  0  0
  7 26  1  0  0  0
  7 29  1  0  0  0
  8  9  1  0  0  0
  8 22  1  0  0  0
  9 10  1  0  0  0
  9 27  2  0  0  0
 10 11  2  0  0  0
 10 15  1  0  0  0
 11 12  1  0  0  0
 11 96  1  0  0  0
 12 13  2  0  0  0
 12 97  1  0  0  0
 13 14  1  0  0  0
 13 31  1  0  0  0
 14 15  2  0  0  0
 14 98  1  0  0  0
 15 99  1  0  0  0
 16 17  2  0  0  0
 16 21  1  0  0  0
 16 31  1  0  0  0
 17 18  1  0  0  0
 17100  1  0  0  0
 18 19  2  0  0  0
 18101  1  0  0  0
 19 20  1  0  0  0
 19 24  1  0  0  0
 20 21  2  0  0  0
 20102  1  0  0  0
 21 23  1  0  0  0
 22 28  1  0  0  0
 22 32  2  0  0  0
 26 27  1  0  0  0
 28103  1  0  0  0
 28104  1  0  0  0
 29105  1  0  0  0
 29106  1  0  0  0
 33 34  1  0  0  0
 33 66  1  0  0  0
 33 70  2  0  0  0
 34 36  1  0  0  0
 34 59  1  0  0  0
 34107  1  0  0  0
 35 44  2  0  0  0
 35 45  1  0  0  0
 35 68  1  0  0  0
 36 56  1  0  0  0
 36108  1  0  0  0
 37 39  1  0  0  0
 37 47  1  0  0  0
 37 66  1  0  0  0
 37109  1  0  0  0
 38 43  2  0  0  0
 38 46  1  0  0  0
 38 47  1  0  0  0
 39 64  1  0  0  0
 39 67  2  0  0  0
 40 52  1  0  0  0
 40 53  2  0  0  0
 40 58  1  0  0  0
 41110  1  0  0  0
 41111  1  0  0  0
 41112  1  0  0  0
 41 48  1  0  0  0
 42 43  1  0  0  0
 42 66  1  0  0  0
 42113  1  0  0  0
 42114  1  0  0  0
 43 44  1  0  0  0
 44115  1  0  0  0
 45 46  2  0  0  0
 45116  1  0  0  0
 46117  1  0  0  0
 47118  1  0  0  0
 47119  1  0  0  0
 48 56  1  0  0  0
 48 65  1  0  0  0
 48120  1  0  0  0
 49 50  1  0  0  0
 49 53  1  0  0  0
 49 64  1  0  0  0
 49121  1  0  0  0
 50 51  1  0  0  0
 50122  1  0  0  0
 50123  1  0  0  0
 51 52  1  0  0  0
 51124  1  0  0  0
 51125  1  0  0  0
 52126  1  0  0  0
 52127  1  0  0  0
 53 54  1  0  0  0
 54 55  2  0  0  0
 54128  1  0  0  0
 55 57  1  0  0  0
 55129  1  0  0  0
 56 69  2  0  0  0
 57 58  2  0  0  0
 57130  1  0  0  0
 58131  1  0  0  0
 59 60  1  0  0  0
 59 61  1  0  0  0
 59 62  1  0  0  0
 60132  1  0  0  0
 60133  1  0  0  0
 60134  1  0  0  0
 61135  1  0  0  0
 61136  1  0  0  0
 61137  1  0  0  0
 62138  1  0  0  0
 62139  1  0  0  0
 62140  1  0  0  0
 63 65  1  0  0  0
 63141  1  0  0  0
 63142  1  0  0  0
 63143  1  0  0  0
 64144  1  0  0  0
 65145  1  0  0  0
 68 81  1  0  0  0
 71 74  2  0  0  0
 71 75  1  0  0  0
 71146  1  0  0  0
 72 74  1  0  0  0
 72 76  2  0  0  0
 72147  1  0  0  0
 73 75  2  0  0  0
 73 76  1  0  0  0
 73148  1  0  0  0
 74 82  1  0  0  0
 75 83  1  0  0  0
 76 86  1  0  0  0
 77 78  2  0  0  0
 77 79  1  0  0  0
 77 80  1  0  0  0
 78 81  1  0  0  0
 78 85  1  0  0  0
 79 82  1  0  0  0
 79 84  2  0  0  0
 80149  1  0  0  0
 80150  1  0  0  0
 80151  1  0  0  0
 81152  1  0  0  0
 81153  1  0  0  0
 82154  1  0  0  0
 83155  1  0  0  0
 85156  1  0  0  0
M  ISO  4   1 100  68 101  81 101  83 100
M  END
> <chiral flag>
0

> <version>
0

> <s_m_source_file>
/data/baiqing/PycharmProjects/Reinvent-master-3.2/result/LINK_invent/BTK/process_docking_weight1_custom_product_contain_oxygen_bond_distance_aromatic_linkinvent_7_9_3/rearranged_h_0168.sdf

> <i_m_source_file_index>
75

> <r_mmod_Potential_Energy-OPLS-2005>
89.9345779418945

> <r_mmod_Stretch_Energy-OPLS-2005>
76.7926025390625

> <r_mmod_Bend_Energy-OPLS-2005>
123.099098205566

> <r_mmod_Torsional_Energy-OPLS-2005>
272.437164306641

> <r_mmod_Improper_Torsional_Energy-OPLS-2005>
4.43515014648438

> <r_mmod_Van_der_Waal_Energy-OPLS-2005>
156.318450927734

> <r_mmod_Electrostatic_Energy-OPLS-2005>
-344.421325683594

> <r_mmod_Solvation_Energy-OPLS-2005>
-232.082122802734

> <b_mmod_Minimization_Converged-OPLS-2005>
0

> <r_mmod_RMS_Derivative-OPLS-2005>
4.78715324401855

$$$$
75
                    3D
 Structure written by MMmdl.
157165  0  0  1  0            999 V2000
  -30.6845  -14.4620   20.6326 C   0  0  0  0  0  0
  -30.4327  -12.3230   19.4116 C   0  0  0  0  0  0
  -29.4958  -12.5418   18.2049 C   0  0  0  0  0  0
  -28.0185  -12.3851   18.6159 C   0  0  0  0  0  0
  -27.6675  -13.2042   19.8854 C   0  0  2  0  0  0
  -28.7064  -12.9428   20.9993 C   0  0  0  0  0  0
  -25.2602  -13.8148   20.5680 C   0  0  0  0  0  0
  -24.1843  -13.0427   20.9161 C   0  0  0  0  0  0
  -24.6394  -11.6889   20.8715 C   0  0  0  0  0  0
  -23.9054  -10.4280   21.0389 C   0  0  0  0  0  0
  -24.3605   -9.4206   21.9177 C   0  0  0  0  0  0
  -23.6280   -8.2245   22.0755 C   0  0  0  0  0  0
  -22.4267   -8.0275   21.3540 C   0  0  0  0  0  0
  -21.9894   -9.0245   20.4649 C   0  0  0  0  0  0
  -22.7218  -10.2129   20.3049 C   0  0  0  0  0  0
  -21.6854   -6.0727   22.5274 C   0  0  0  0  0  0
  -21.4016   -6.5636   23.8207 C   0  0  0  0  0  0
  -21.3659   -5.6790   24.9169 C   0  0  0  0  0  0
  -21.6043   -4.3049   24.7220 C   0  0  0  0  0  0
  -21.8817   -3.8140   23.4339 C   0  0  0  0  0  0
  -21.9190   -4.6956   22.3394 C   0  0  0  0  0  0
  -22.7868  -13.5231   21.1832 C   0  0  0  0  0  0
  -22.1656   -4.2145   21.0973 F   0  0  0  0  0  0
  -21.5628   -3.4529   25.7729 F   0  0  0  0  0  0
  -30.0459  -13.2696   20.4700 N   0  0  0  0  0  0
  -26.3049  -12.9319   20.3399 N   0  0  0  0  0  0
  -25.9329  -11.6476   20.5761 N   0  0  0  0  0  0
  -22.0505  -12.8236   22.0398 N   0  0  0  0  0  0
  -25.4300  -15.1867   20.4101 N   0  0  0  0  0  0
  -31.7359  -14.7548   20.0560 O   0  0  0  0  0  0
  -21.6633   -6.8871   21.4236 O   0  0  0  0  0  0
  -22.3566  -14.5545   20.6695 O   0  0  0  0  0  0
  -24.6106  -31.8688   23.2088 C   0  0  0  0  0  0
  -25.8995  -32.4842   23.8384 C   0  0  1  0  0  0
  -27.2434  -27.4405   20.1029 C   0  0  0  0  0  0
  -25.5858  -33.8635   24.2302 N   0  0  0  0  0  0
  -23.4018  -30.4890   21.5487 C   0  0  2  0  0  0
  -24.8545  -28.9526   20.1177 C   0  0  0  0  0  0
  -22.7407  -29.4643   22.4981 C   0  0  0  0  0  0
  -18.0276  -28.1368   22.8510 C   0  0  0  0  0  0
  -24.1485  -36.7307   23.2637 C   0  0  0  0  0  0
  -25.9280  -30.8362   21.3617 C   0  0  0  0  0  0
  -26.0131  -29.4688   20.7131 C   0  0  0  0  0  0
  -27.2136  -28.7206   20.7040 C   0  0  0  0  0  0
  -26.0733  -26.9358   19.5029 C   0  0  0  0  0  0
  -24.8784  -27.6836   19.5112 C   0  0  0  0  0  0
  -23.6131  -29.8175   20.1653 C   0  0  0  0  0  0
  -25.4106  -36.3118   24.0342 C   0  0  1  0  0  0
  -20.5864  -28.3635   23.1326 C   0  0  2  0  0  0
  -20.6760  -26.9374   22.5414 C   0  0  0  0  0  0
  -19.5742  -26.6361   21.5216 C   0  0  0  0  0  0
  -18.1924  -26.7919   22.1628 C   0  0  0  0  0  0
  -19.1530  -28.8819   23.2922 C   0  0  0  0  0  0
  -18.9460  -30.1432   23.8923 C   0  0  0  0  0  0
  -17.6468  -30.6579   24.0565 C   0  0  0  0  0  0
  -25.9034  -34.9490   23.5123 C   0  0  0  0  0  0
  -16.5358  -29.9092   23.6319 C   0  0  0  0  0  0
  -16.7267  -28.6503   23.0354 C   0  0  0  0  0  0
  -26.4427  -31.6631   25.0713 C   0  0  0  0  0  0
  -25.3698  -31.3771   26.1470 C   0  0  0  0  0  0
  -27.0235  -30.3074   24.6055 C   0  0  0  0  0  0
  -27.5996  -32.4361   25.7481 C   0  0  0  0  0  0
  -27.5594  -37.1785   24.8453 C   0  0  0  0  0  0
  -21.4129  -29.3016   22.3735 N   0  0  0  0  0  0
  -26.4283  -37.3808   23.9441 N   0  0  0  0  0  0
  -24.6652  -31.0783   22.0996 N   0  0  0  0  0  0
  -23.4196  -28.8176   23.3005 O   0  0  0  0  0  0
  -28.3901  -26.6753   20.0675 O   0  0  0  0  0  0
  -26.5601  -34.8950   22.4691 O   0  0  0  0  0  0
  -23.5297  -32.1427   23.7490 O   0  0  0  0  0  0
  -30.3956  -17.5703   20.4015 C   0  0  0  0  0  0
  -30.0045  -16.7356   21.4754 C   0  0  0  0  0  0
  -29.4099  -17.3648   22.5833 C   0  0  0  0  0  0
  -29.2184  -18.7594   22.5854 C   0  0  0  0  0  0
  -29.6159  -19.5159   21.4637 C   0  0  0  0  0  0
  -29.0708  -24.3922   20.7202 C   0  0  0  0  0  0
  -28.9210  -23.2102   21.3803 C   0  0  0  0  0  0
  -29.4701  -21.9715   20.7849 C   0  0  0  0  0  0
  -28.1994  -23.1183   22.7292 C   0  0  0  0  0  0
  -29.5056  -26.4221   22.1738 C   0  0  0  0  0  0
  -28.5493  -25.7658   21.1676 C   0  0  1  0  0  0
  -30.2052  -18.9179   20.3922 N   0  0  0  0  0  0
  -30.0822  -15.3038   21.4899 N   0  0  0  0  0  0
  -29.3093  -20.9036   21.5940 N   0  0  0  0  0  0
  -30.0148  -21.9067   19.6787 O   0  0  0  0  0  0
  -28.9998  -16.6162   23.6394 F   0  0  0  0  0  0
  -28.6360  -19.3722   23.6488 F   0  0  0  0  0  0
  -31.4754  -12.4454   19.1110 H   0  0  0  0  0  0
  -30.3473  -11.2984   19.7776 H   0  0  0  0  0  0
  -29.7383  -11.8420   17.4043 H   0  0  0  0  0  0
  -29.6552  -13.5407   17.7946 H   0  0  0  0  0  0
  -27.8327  -11.3254   18.7956 H   0  0  0  0  0  0
  -27.3645  -12.6717   17.7918 H   0  0  0  0  0  0
  -27.7225  -14.2596   19.6161 H   0  0  0  0  0  0
  -28.6815  -11.8935   21.2974 H   0  0  0  0  0  0
  -28.4440  -13.4949   21.9028 H   0  0  0  0  0  0
  -25.2755   -9.5680   22.4750 H   0  0  0  0  0  0
  -23.9981   -7.4637   22.7485 H   0  0  0  0  0  0
  -21.0818   -8.8758   19.8963 H   0  0  0  0  0  0
  -22.3667  -10.9661   19.6158 H   0  0  0  0  0  0
  -21.2014   -7.6147   23.9710 H   0  0  0  0  0  0
  -21.1483   -6.0518   25.9074 H   0  0  0  0  0  0
  -22.0597   -2.7600   23.2833 H   0  0  0  0  0  0
  -22.4103  -11.9892   22.4783 H   0  0  0  0  0  0
  -21.1128  -13.1288   22.2605 H   0  0  0  0  0  0
  -24.6552  -15.8345   20.5030 H   0  0  0  0  0  0
  -26.2834  -15.6314   20.0959 H   0  0  0  0  0  0
  -26.7071  -32.5545   23.1152 H   0  0  0  0  0  0
  -25.0023  -33.9806   25.0457 H   0  0  0  0  0  0
  -22.6888  -31.3042   21.4058 H   0  0  0  0  0  0
  -23.3775  -35.9612   23.3265 H   0  0  0  0  0  0
  -24.3592  -36.8941   22.2058 H   0  0  0  0  0  0
  -23.7193  -37.6480   23.6672 H   0  0  0  0  0  0
  -26.0349  -31.6024   20.5932 H   0  0  0  0  0  0
  -26.8169  -30.8931   21.9783 H   0  0  0  0  0  0
  -28.1099  -29.1199   21.1572 H   0  0  0  0  0  0
  -26.0881  -25.9635   19.0311 H   0  0  0  0  0  0
  -23.9882  -27.2790   19.0493 H   0  0  0  0  0  0
  -23.7209  -30.5908   19.4044 H   0  0  0  0  0  0
  -22.7390  -29.2359   19.8683 H   0  0  0  0  0  0
  -25.1285  -36.1964   25.0832 H   0  0  0  0  0  0
  -20.9968  -28.3177   24.1442 H   0  0  0  0  0  0
  -20.5645  -26.2241   23.3594 H   0  0  0  0  0  0
  -21.6630  -26.7410   22.1205 H   0  0  0  0  0  0
  -19.6907  -25.6280   21.1223 H   0  0  0  0  0  0
  -19.6699  -27.3187   20.6764 H   0  0  0  0  0  0
  -17.4198  -26.6685   21.4025 H   0  0  0  0  0  0
  -18.0322  -26.0052   22.9008 H   0  0  0  0  0  0
  -19.7944  -30.7236   24.2291 H   0  0  0  0  0  0
  -17.5038  -31.6277   24.5146 H   0  0  0  0  0  0
  -15.5361  -30.3021   23.7622 H   0  0  0  0  0  0
  -15.8666  -28.0834   22.7062 H   0  0  0  0  0  0
  -24.5853  -30.7135   25.7816 H   0  0  0  0  0  0
  -24.8923  -32.2958   26.4902 H   0  0  0  0  0  0
  -25.8035  -30.8951   27.0240 H   0  0  0  0  0  0
  -26.2773  -29.6889   24.1049 H   0  0  0  0  0  0
  -27.3951  -29.7240   25.4480 H   0  0  0  0  0  0
  -27.8632  -30.4404   23.9228 H   0  0  0  0  0  0
  -27.2597  -33.3652   26.2075 H   0  0  0  0  0  0
  -28.3803  -32.6929   25.0314 H   0  0  0  0  0  0
  -28.0673  -31.8491   26.5392 H   0  0  0  0  0  0
  -28.2533  -38.0155   24.7594 H   0  0  0  0  0  0
  -28.1154  -36.2685   24.6141 H   0  0  0  0  0  0
  -27.2333  -37.1256   25.8852 H   0  0  0  0  0  0
  -20.9259  -29.8795   21.7025 H   0  0  0  0  0  0
  -26.0161  -38.2863   24.1524 H   0  0  0  0  0  0
  -30.8292  -17.1580   19.5028 H   0  0  0  0  0  0
  -29.6073  -24.4062   19.7803 H   0  0  0  0  0  0
  -27.9081  -24.0843   23.1366 H   0  0  0  0  0  0
  -28.8424  -22.6595   23.4817 H   0  0  0  0  0  0
  -27.2924  -22.5206   22.6345 H   0  0  0  0  0  0
  -29.6655  -25.7838   23.0423 H   0  0  0  0  0  0
  -29.1074  -27.3682   22.5398 H   0  0  0  0  0  0
  -30.4771  -26.6266   21.7229 H   0  0  0  0  0  0
  -27.5816  -25.6149   21.6499 H   0  0  0  0  0  0
  -29.4214  -14.8586   22.1101 H   0  0  0  0  0  0
  -28.8592  -21.1253   22.4705 H   0  0  0  0  0  0
  1 25  1  0  0  0
  1 30  2  0  0  0
  1 83  1  0  0  0
  2  3  1  0  0  0
  2 25  1  0  0  0
  2 88  1  0  0  0
  2 89  1  0  0  0
  3  4  1  0  0  0
  3 90  1  0  0  0
  3 91  1  0  0  0
  4  5  1  0  0  0
  4 92  1  0  0  0
  4 93  1  0  0  0
  5  6  1  0  0  0
  5 26  1  0  0  0
  5 94  1  0  0  0
  6 25  1  0  0  0
  6 95  1  0  0  0
  6 96  1  0  0  0
  7  8  2  0  0  0
  7 26  1  0  0  0
  7 29  1  0  0  0
  8  9  1  0  0  0
  8 22  1  0  0  0
  9 10  1  0  0  0
  9 27  2  0  0  0
 10 11  2  0  0  0
 10 15  1  0  0  0
 11 12  1  0  0  0
 11 97  1  0  0  0
 12 13  2  0  0  0
 12 98  1  0  0  0
 13 14  1  0  0  0
 13 31  1  0  0  0
 14 15  2  0  0  0
 14 99  1  0  0  0
 15100  1  0  0  0
 16 17  2  0  0  0
 16 21  1  0  0  0
 16 31  1  0  0  0
 17 18  1  0  0  0
 17101  1  0  0  0
 18 19  2  0  0  0
 18102  1  0  0  0
 19 20  1  0  0  0
 19 24  1  0  0  0
 20 21  2  0  0  0
 20103  1  0  0  0
 21 23  1  0  0  0
 22 28  1  0  0  0
 22 32  2  0  0  0
 26 27  1  0  0  0
 28104  1  0  0  0
 28105  1  0  0  0
 29106  1  0  0  0
 29107  1  0  0  0
 33 34  1  0  0  0
 33 66  1  0  0  0
 33 70  2  0  0  0
 34 36  1  0  0  0
 34 59  1  0  0  0
 34108  1  0  0  0
 35 44  2  0  0  0
 35 45  1  0  0  0
 35 68  1  0  0  0
 36 56  1  0  0  0
 36109  1  0  0  0
 37 39  1  0  0  0
 37 47  1  0  0  0
 37 66  1  0  0  0
 37110  1  0  0  0
 38 43  2  0  0  0
 38 46  1  0  0  0
 38 47  1  0  0  0
 39 64  1  0  0  0
 39 67  2  0  0  0
 40 52  1  0  0  0
 40 53  2  0  0  0
 40 58  1  0  0  0
 41111  1  0  0  0
 41112  1  0  0  0
 41113  1  0  0  0
 41 48  1  0  0  0
 42 43  1  0  0  0
 42 66  1  0  0  0
 42114  1  0  0  0
 42115  1  0  0  0
 43 44  1  0  0  0
 44116  1  0  0  0
 45 46  2  0  0  0
 45117  1  0  0  0
 46118  1  0  0  0
 47119  1  0  0  0
 47120  1  0  0  0
 48 56  1  0  0  0
 48 65  1  0  0  0
 48121  1  0  0  0
 49 50  1  0  0  0
 49 53  1  0  0  0
 49 64  1  0  0  0
 49122  1  0  0  0
 50 51  1  0  0  0
 50123  1  0  0  0
 50124  1  0  0  0
 51 52  1  0  0  0
 51125  1  0  0  0
 51126  1  0  0  0
 52127  1  0  0  0
 52128  1  0  0  0
 53 54  1  0  0  0
 54 55  2  0  0  0
 54129  1  0  0  0
 55 57  1  0  0  0
 55130  1  0  0  0
 56 69  2  0  0  0
 57 58  2  0  0  0
 57131  1  0  0  0
 58132  1  0  0  0
 59 60  1  0  0  0
 59 61  1  0  0  0
 59 62  1  0  0  0
 60133  1  0  0  0
 60134  1  0  0  0
 60135  1  0  0  0
 61136  1  0  0  0
 61137  1  0  0  0
 61138  1  0  0  0
 62139  1  0  0  0
 62140  1  0  0  0
 62141  1  0  0  0
 63 65  1  0  0  0
 63142  1  0  0  0
 63143  1  0  0  0
 63144  1  0  0  0
 64145  1  0  0  0
 65146  1  0  0  0
 68 81  1  0  0  0
 71 72  2  0  0  0
 71 82  1  0  0  0
 71147  1  0  0  0
 72 73  1  0  0  0
 72 83  1  0  0  0
 73 74  2  0  0  0
 73 86  1  0  0  0
 74 75  1  0  0  0
 74 87  1  0  0  0
 75 82  2  0  0  0
 75 84  1  0  0  0
 76 77  2  0  0  0
 76 81  1  0  0  0
 76148  1  0  0  0
 77 78  1  0  0  0
 77 79  1  0  0  0
 78 84  1  0  0  0
 78 85  2  0  0  0
 79149  1  0  0  0
 79150  1  0  0  0
 79151  1  0  0  0
 80152  1  0  0  0
 80153  1  0  0  0
 80154  1  0  0  0
 80 81  1  0  0  0
 81155  1  0  0  0
 83156  1  0  0  0
 84157  1  0  0  0
M  ISO  4   1 100  68 101  81 101  83 100
M  END
> <chiral flag>
0

> <version>
0

> <s_m_source_file>
/data/baiqing/PycharmProjects/Reinvent-master-3.2/result/LINK_invent/BTK/process_docking_weight1_custom_product_contain_oxygen_bond_distance_aromatic_linkinvent_7_9_3/rearranged_h_0168.sdf

> <i_m_source_file_index>
76

> <r_mmod_Potential_Energy-OPLS-2005>
-287.698333740234

> <r_mmod_Stretch_Energy-OPLS-2005>
41.4984855651855

> <r_mmod_Bend_Energy-OPLS-2005>
113.864852905273

> <r_mmod_Torsional_Energy-OPLS-2005>
245.025512695312

> <r_mmod_Improper_Torsional_Energy-OPLS-2005>
2.97039151191711

> <r_mmod_Van_der_Waal_Energy-OPLS-2005>
162.649475097656

> <r_mmod_Electrostatic_Energy-OPLS-2005>
-629.760986328125

> <r_mmod_Solvation_Energy-OPLS-2005>
-235.113876342773

> <b_mmod_Minimization_Converged-OPLS-2005>
0

> <r_mmod_RMS_Derivative-OPLS-2005>
2.09365820884705

$$$$
76
                    3D
 Structure written by MMmdl.
157165  0  0  1  0            999 V2000
  -30.6982  -14.5314   20.5300 C   0  0  0  0  0  0
  -30.4188  -12.3298   19.4406 C   0  0  0  0  0  0
  -29.4967  -12.4948   18.2152 C   0  0  0  0  0  0
  -28.0191  -12.3509   18.6277 C   0  0  0  0  0  0
  -27.6547  -13.2143   19.8654 C   0  0  2  0  0  0
  -28.6984  -13.0493   20.9939 C   0  0  0  0  0  0
  -25.2562  -13.8172   20.5681 C   0  0  0  0  0  0
  -24.1829  -13.0441   20.9196 C   0  0  0  0  0  0
  -24.6393  -11.6911   20.8746 C   0  0  0  0  0  0
  -23.9063  -10.4294   21.0410 C   0  0  0  0  0  0
  -24.3617   -9.4208   21.9187 C   0  0  0  0  0  0
  -23.6294   -8.2242   22.0753 C   0  0  0  0  0  0
  -22.4277   -8.0280   21.3543 C   0  0  0  0  0  0
  -21.9912   -9.0254   20.4647 C   0  0  0  0  0  0
  -22.7237  -10.2134   20.3058 C   0  0  0  0  0  0
  -21.6851   -6.0740   22.5279 C   0  0  0  0  0  0
  -21.4015   -6.5643   23.8214 C   0  0  0  0  0  0
  -21.3659   -5.6794   24.9176 C   0  0  0  0  0  0
  -21.6041   -4.3057   24.7225 C   0  0  0  0  0  0
  -21.8819   -3.8149   23.4347 C   0  0  0  0  0  0
  -21.9196   -4.6968   22.3403 C   0  0  0  0  0  0
  -22.7854  -13.5235   21.1859 C   0  0  0  0  0  0
  -22.1661   -4.2155   21.0980 F   0  0  0  0  0  0
  -21.5630   -3.4539   25.7737 F   0  0  0  0  0  0
  -30.0236  -13.3486   20.4301 N   0  0  0  0  0  0
  -26.2995  -12.9354   20.3334 N   0  0  0  0  0  0
  -25.9321  -11.6511   20.5769 N   0  0  0  0  0  0
  -22.0491  -12.8223   22.0409 N   0  0  0  0  0  0
  -25.4275  -15.1889   20.4066 N   0  0  0  0  0  0
  -31.8584  -14.6367   20.1204 O   0  0  0  0  0  0
  -21.6639   -6.8880   21.4239 O   0  0  0  0  0  0
  -22.3541  -14.5542   20.6708 O   0  0  0  0  0  0
  -24.6184  -31.8658   23.2079 C   0  0  0  0  0  0
  -25.9064  -32.4811   23.8387 C   0  0  1  0  0  0
  -27.2288  -27.3959   20.0945 C   0  0  0  0  0  0
  -25.5907  -33.8610   24.2315 N   0  0  0  0  0  0
  -23.4072  -30.4918   21.5494 C   0  0  2  0  0  0
  -24.8510  -28.9568   20.1126 C   0  0  0  0  0  0
  -22.7433  -29.4658   22.4970 C   0  0  0  0  0  0
  -18.0277  -28.1379   22.8494 C   0  0  0  0  0  0
  -24.1488  -36.7310   23.2639 C   0  0  0  0  0  0
  -25.9415  -30.8192   21.3679 C   0  0  0  0  0  0
  -26.0154  -29.4521   20.7122 C   0  0  0  0  0  0
  -27.2047  -28.6791   20.7011 C   0  0  0  0  0  0
  -26.0365  -26.9274   19.4902 C   0  0  0  0  0  0
  -24.8584  -27.6946   19.4996 C   0  0  0  0  0  0
  -23.6163  -29.8290   20.1628 C   0  0  0  0  0  0
  -25.4109  -36.3107   24.0335 C   0  0  1  0  0  0
  -20.5871  -28.3670   23.1310 C   0  0  2  0  0  0
  -20.6767  -26.9402   22.5414 C   0  0  0  0  0  0
  -19.5742  -26.6378   21.5214 C   0  0  0  0  0  0
  -18.1922  -26.7922   22.1625 C   0  0  0  0  0  0
  -19.1528  -28.8838   23.2896 C   0  0  0  0  0  0
  -18.9455  -30.1445   23.8904 C   0  0  0  0  0  0
  -17.6457  -30.6580   24.0569 C   0  0  0  0  0  0
  -25.9038  -34.9470   23.5120 C   0  0  0  0  0  0
  -16.5347  -29.9084   23.6331 C   0  0  0  0  0  0
  -16.7266  -28.6504   23.0348 C   0  0  0  0  0  0
  -26.4476  -31.6597   25.0728 C   0  0  0  0  0  0
  -25.3738  -31.3713   26.1477 C   0  0  0  0  0  0
  -27.0307  -30.3034   24.6123 C   0  0  0  0  0  0
  -27.6046  -32.4323   25.7493 C   0  0  0  0  0  0
  -27.5580  -37.1812   24.8468 C   0  0  0  0  0  0
  -21.4153  -29.3041   22.3718 N   0  0  0  0  0  0
  -26.4293  -37.3796   23.9410 N   0  0  0  0  0  0
  -24.6741  -31.0744   22.0992 N   0  0  0  0  0  0
  -23.4193  -28.8189   23.3013 O   0  0  0  0  0  0
  -28.3851  -26.6242   20.1291 O   0  0  0  0  0  0
  -26.5609  -34.8925   22.4689 O   0  0  0  0  0  0
  -23.5369  -32.1421   23.7456 O   0  0  0  0  0  0
  -29.2879  -17.9686   20.7727 C   0  0  0  0  0  0
  -30.9334  -19.7389   20.8669 C   0  0  0  0  0  0
  -29.5842  -19.3601   20.7383 C   0  0  0  0  0  0
  -30.3234  -17.0031   20.9085 C   0  0  0  0  0  0
  -31.9065  -18.7417   21.0143 C   0  0  0  0  0  0
  -28.3335  -25.3015   19.7107 C   0  0  0  0  0  0
  -28.6133  -24.2173   20.4818 C   0  0  0  0  0  0
  -28.4357  -22.8562   19.9293 C   0  0  0  0  0  0
  -34.2944  -18.1246   20.9080 C   0  0  0  0  0  0
  -28.4766  -20.4095   20.5347 C   0  0  0  0  0  0
  -31.6057  -17.4263   21.0451 N   0  0  0  0  0  0
  -29.9606  -15.6087   20.9098 N   0  0  0  0  0  0
  -33.2478  -19.1126   21.1374 N   0  0  0  0  0  0
  -28.8397  -21.8358   20.7245 N   0  0  0  0  0  0
  -27.9048  -22.6321   18.8393 O   0  0  0  0  0  0
  -29.0004  -24.3826   21.7565 O   0  0  0  0  0  0
  -31.4643  -12.4150   19.1397 H   0  0  0  0  0  0
  -30.3150  -11.3315   19.8682 H   0  0  0  0  0  0
  -29.7446  -11.7534   17.4544 H   0  0  0  0  0  0
  -29.6597  -13.4713   17.7562 H   0  0  0  0  0  0
  -27.8410  -11.2975   18.8469 H   0  0  0  0  0  0
  -27.3668  -12.5998   17.7897 H   0  0  0  0  0  0
  -27.6816  -14.2531   19.5357 H   0  0  0  0  0  0
  -28.6842  -12.0296   21.3811 H   0  0  0  0  0  0
  -28.4602  -13.6919   21.8431 H   0  0  0  0  0  0
  -25.2764   -9.5684   22.4761 H   0  0  0  0  0  0
  -24.0007   -7.4632   22.7467 H   0  0  0  0  0  0
  -21.0848   -8.8772   19.8949 H   0  0  0  0  0  0
  -22.3700  -10.9674   19.6167 H   0  0  0  0  0  0
  -21.2002   -7.6151   23.9720 H   0  0  0  0  0  0
  -21.1481   -6.0524   25.9080 H   0  0  0  0  0  0
  -22.0599   -2.7613   23.2844 H   0  0  0  0  0  0
  -22.4109  -11.9882   22.4793 H   0  0  0  0  0  0
  -21.1110  -13.1248   22.2617 H   0  0  0  0  0  0
  -24.6550  -15.8394   20.5016 H   0  0  0  0  0  0
  -26.2651  -15.6230   20.0413 H   0  0  0  0  0  0
  -26.7133  -32.5502   23.1143 H   0  0  0  0  0  0
  -25.0073  -33.9768   25.0470 H   0  0  0  0  0  0
  -22.6970  -31.3094   21.4107 H   0  0  0  0  0  0
  -23.3744  -35.9650   23.3317 H   0  0  0  0  0  0
  -24.3589  -36.8912   22.2053 H   0  0  0  0  0  0
  -23.7241  -37.6519   23.6648 H   0  0  0  0  0  0
  -26.0641  -31.5843   20.5999 H   0  0  0  0  0  0
  -26.8264  -30.8679   21.9908 H   0  0  0  0  0  0
  -28.1014  -29.0551   21.1734 H   0  0  0  0  0  0
  -25.9840  -25.9592   19.0155 H   0  0  0  0  0  0
  -23.9622  -27.3046   19.0368 H   0  0  0  0  0  0
  -23.7275  -30.6059   19.4052 H   0  0  0  0  0  0
  -22.7381  -29.2541   19.8639 H   0  0  0  0  0  0
  -25.1284  -36.1973   25.0826 H   0  0  0  0  0  0
  -20.9968  -28.3229   24.1430 H   0  0  0  0  0  0
  -20.5673  -26.2272   23.3602 H   0  0  0  0  0  0
  -21.6635  -26.7439   22.1203 H   0  0  0  0  0  0
  -19.6905  -25.6292   21.1230 H   0  0  0  0  0  0
  -19.6679  -27.3205   20.6759 H   0  0  0  0  0  0
  -17.4192  -26.6675   21.4025 H   0  0  0  0  0  0
  -18.0319  -26.0058   22.9016 H   0  0  0  0  0  0
  -19.7931  -30.7257   24.2273 H   0  0  0  0  0  0
  -17.5015  -31.6266   24.5163 H   0  0  0  0  0  0
  -15.5350  -30.2994   23.7646 H   0  0  0  0  0  0
  -15.8663  -28.0826   22.7062 H   0  0  0  0  0  0
  -24.5909  -30.7058   25.7826 H   0  0  0  0  0  0
  -24.8929  -32.2871   26.4926 H   0  0  0  0  0  0
  -25.8088  -30.8889   27.0237 H   0  0  0  0  0  0
  -26.2858  -29.6798   24.1167 H   0  0  0  0  0  0
  -27.4067  -29.7273   25.4586 H   0  0  0  0  0  0
  -27.8702  -30.4348   23.9293 H   0  0  0  0  0  0
  -27.2657  -33.3616   26.2087 H   0  0  0  0  0  0
  -28.3847  -32.6894   25.0316 H   0  0  0  0  0  0
  -28.0724  -31.8437   26.5395 H   0  0  0  0  0  0
  -28.2606  -38.0102   24.7513 H   0  0  0  0  0  0
  -28.1061  -36.2632   24.6290 H   0  0  0  0  0  0
  -27.2301  -37.1468   25.8873 H   0  0  0  0  0  0
  -20.9312  -29.8774   21.6952 H   0  0  0  0  0  0
  -26.0178  -38.2874   24.1405 H   0  0  0  0  0  0
  -28.2594  -17.6492   20.6700 H   0  0  0  0  0  0
  -31.2183  -20.7814   20.8345 H   0  0  0  0  0  0
  -28.0308  -25.2219   18.6747 H   0  0  0  0  0  0
  -35.2737  -18.6045   20.9078 H   0  0  0  0  0  0
  -34.1597  -17.6299   19.9445 H   0  0  0  0  0  0
  -34.2890  -17.3637   21.6895 H   0  0  0  0  0  0
  -27.6696  -20.1830   21.2324 H   0  0  0  0  0  0
  -28.0614  -20.2423   19.5397 H   0  0  0  0  0  0
  -28.9973  -15.4070   21.1193 H   0  0  0  0  0  0
  -33.4899  -20.0938   21.0361 H   0  0  0  0  0  0
  -29.3698  -22.0412   21.5567 H   0  0  0  0  0  0
  -28.9009  -23.5466   22.1905 H   0  0  0  0  0  0
  1 25  1  0  0  0
  1 30  2  0  0  0
  1 82  1  0  0  0
  2  3  1  0  0  0
  2 25  1  0  0  0
  2 87  1  0  0  0
  2 88  1  0  0  0
  3  4  1  0  0  0
  3 89  1  0  0  0
  3 90  1  0  0  0
  4  5  1  0  0  0
  4 91  1  0  0  0
  4 92  1  0  0  0
  5  6  1  0  0  0
  5 26  1  0  0  0
  5 93  1  0  0  0
  6 25  1  0  0  0
  6 94  1  0  0  0
  6 95  1  0  0  0
  7  8  2  0  0  0
  7 26  1  0  0  0
  7 29  1  0  0  0
  8  9  1  0  0  0
  8 22  1  0  0  0
  9 10  1  0  0  0
  9 27  2  0  0  0
 10 11  2  0  0  0
 10 15  1  0  0  0
 11 12  1  0  0  0
 11 96  1  0  0  0
 12 13  2  0  0  0
 12 97  1  0  0  0
 13 14  1  0  0  0
 13 31  1  0  0  0
 14 15  2  0  0  0
 14 98  1  0  0  0
 15 99  1  0  0  0
 16 17  2  0  0  0
 16 21  1  0  0  0
 16 31  1  0  0  0
 17 18  1  0  0  0
 17100  1  0  0  0
 18 19  2  0  0  0
 18101  1  0  0  0
 19 20  1  0  0  0
 19 24  1  0  0  0
 20 21  2  0  0  0
 20102  1  0  0  0
 21 23  1  0  0  0
 22 28  1  0  0  0
 22 32  2  0  0  0
 26 27  1  0  0  0
 28103  1  0  0  0
 28104  1  0  0  0
 29105  1  0  0  0
 29106  1  0  0  0
 33 34  1  0  0  0
 33 66  1  0  0  0
 33 70  2  0  0  0
 34 36  1  0  0  0
 34 59  1  0  0  0
 34107  1  0  0  0
 35 44  2  0  0  0
 35 45  1  0  0  0
 35 68  1  0  0  0
 36 56  1  0  0  0
 36108  1  0  0  0
 37 39  1  0  0  0
 37 47  1  0  0  0
 37 66  1  0  0  0
 37109  1  0  0  0
 38 43  2  0  0  0
 38 46  1  0  0  0
 38 47  1  0  0  0
 39 64  1  0  0  0
 39 67  2  0  0  0
 40 52  1  0  0  0
 40 53  2  0  0  0
 40 58  1  0  0  0
 41110  1  0  0  0
 41111  1  0  0  0
 41112  1  0  0  0
 41 48  1  0  0  0
 42 43  1  0  0  0
 42 66  1  0  0  0
 42113  1  0  0  0
 42114  1  0  0  0
 43 44  1  0  0  0
 44115  1  0  0  0
 45 46  2  0  0  0
 45116  1  0  0  0
 46117  1  0  0  0
 47118  1  0  0  0
 47119  1  0  0  0
 48 56  1  0  0  0
 48 65  1  0  0  0
 48120  1  0  0  0
 49 50  1  0  0  0
 49 53  1  0  0  0
 49 64  1  0  0  0
 49121  1  0  0  0
 50 51  1  0  0  0
 50122  1  0  0  0
 50123  1  0  0  0
 51 52  1  0  0  0
 51124  1  0  0  0
 51125  1  0  0  0
 52126  1  0  0  0
 52127  1  0  0  0
 53 54  1  0  0  0
 54 55  2  0  0  0
 54128  1  0  0  0
 55 57  1  0  0  0
 55129  1  0  0  0
 56 69  2  0  0  0
 57 58  2  0  0  0
 57130  1  0  0  0
 58131  1  0  0  0
 59 60  1  0  0  0
 59 61  1  0  0  0
 59 62  1  0  0  0
 60132  1  0  0  0
 60133  1  0  0  0
 60134  1  0  0  0
 61135  1  0  0  0
 61136  1  0  0  0
 61137  1  0  0  0
 62138  1  0  0  0
 62139  1  0  0  0
 62140  1  0  0  0
 63 65  1  0  0  0
 63141  1  0  0  0
 63142  1  0  0  0
 63143  1  0  0  0
 64144  1  0  0  0
 65145  1  0  0  0
 68 76  1  0  0  0
 71 73  2  0  0  0
 71 74  1  0  0  0
 71146  1  0  0  0
 72 73  1  0  0  0
 72 75  2  0  0  0
 72147  1  0  0  0
 73 80  1  0  0  0
 74 81  2  0  0  0
 74 82  1  0  0  0
 75 81  1  0  0  0
 75 83  1  0  0  0
 76 77  2  0  0  0
 76148  1  0  0  0
 77 78  1  0  0  0
 77 86  1  0  0  0
 78 84  1  0  0  0
 78 85  2  0  0  0
 79 83  1  0  0  0
 79149  1  0  0  0
 79150  1  0  0  0
 79151  1  0  0  0
 80 84  1  0  0  0
 80152  1  0  0  0
 80153  1  0  0  0
 82154  1  0  0  0
 83155  1  0  0  0
 84156  1  0  0  0
 86157  1  0  0  0
M  ISO  4   1 100  68 101  76 101  82 100
M  END
> <chiral flag>
0

> <version>
0

> <s_m_source_file>
/data/baiqing/PycharmProjects/Reinvent-master-3.2/result/LINK_invent/BTK/process_docking_weight1_custom_product_contain_oxygen_bond_distance_aromatic_linkinvent_7_9_3/rearranged_h_0168.sdf

> <i_m_source_file_index>
77

> <r_mmod_Potential_Energy-OPLS-2005>
-422.487243652344

> <r_mmod_Stretch_Energy-OPLS-2005>
47.1045303344727

> <r_mmod_Bend_Energy-OPLS-2005>
112.272315979004

> <r_mmod_Torsional_Energy-OPLS-2005>
199.110168457031

> <r_mmod_Improper_Torsional_Energy-OPLS-2005>
6.47234487533569

> <r_mmod_Van_der_Waal_Energy-OPLS-2005>
167.655944824219

> <r_mmod_Electrostatic_Energy-OPLS-2005>
-678.76025390625

> <r_mmod_Solvation_Energy-OPLS-2005>
-298.931549072266

> <b_mmod_Minimization_Converged-OPLS-2005>
0

> <r_mmod_RMS_Derivative-OPLS-2005>
0.826002597808838

$$$$
77
                    3D
 Structure written by MMmdl.
158166  0  0  1  0            999 V2000
  -30.6685  -14.4802   20.5949 C   0  0  0  0  0  0
  -30.4372  -12.3168   19.4186 C   0  0  0  0  0  0
  -29.5012  -12.5124   18.2059 C   0  0  0  0  0  0
  -28.0208  -12.3665   18.6158 C   0  0  0  0  0  0
  -27.6666  -13.1971   19.8780 C   0  0  2  0  0  0
  -28.7053  -12.9482   20.9950 C   0  0  0  0  0  0
  -25.2624  -13.8110   20.5668 C   0  0  0  0  0  0
  -24.1860  -13.0420   20.9173 C   0  0  0  0  0  0
  -24.6393  -11.6883   20.8721 C   0  0  0  0  0  0
  -23.9051  -10.4282   21.0399 C   0  0  0  0  0  0
  -24.3604   -9.4200   21.9177 C   0  0  0  0  0  0
  -23.6281   -8.2236   22.0755 C   0  0  0  0  0  0
  -22.4263   -8.0277   21.3551 C   0  0  0  0  0  0
  -21.9895   -9.0252   20.4657 C   0  0  0  0  0  0
  -22.7221  -10.2129   20.3056 C   0  0  0  0  0  0
  -21.6847   -6.0729   22.5283 C   0  0  0  0  0  0
  -21.4014   -6.5634   23.8216 C   0  0  0  0  0  0
  -21.3658   -5.6787   24.9177 C   0  0  0  0  0  0
  -21.6040   -4.3050   24.7225 C   0  0  0  0  0  0
  -21.8821   -3.8144   23.4347 C   0  0  0  0  0  0
  -21.9196   -4.6960   22.3405 C   0  0  0  0  0  0
  -22.7893  -13.5248   21.1831 C   0  0  0  0  0  0
  -22.1662   -4.2146   21.0982 F   0  0  0  0  0  0
  -21.5627   -3.4534   25.7737 F   0  0  0  0  0  0
  -30.0395  -13.2793   20.4586 N   0  0  0  0  0  0
  -26.3052  -12.9266   20.3352 N   0  0  0  0  0  0
  -25.9314  -11.6440   20.5738 N   0  0  0  0  0  0
  -22.0510  -12.8259   22.0386 N   0  0  0  0  0  0
  -25.4381  -15.1804   20.4056 N   0  0  0  0  0  0
  -31.7718  -14.7167   20.0921 O   0  0  0  0  0  0
  -21.6635   -6.8870   21.4246 O   0  0  0  0  0  0
  -22.3593  -14.5559   20.6673 O   0  0  0  0  0  0
  -24.6137  -31.8678   23.2098 C   0  0  0  0  0  0
  -25.9031  -32.4822   23.8394 C   0  0  1  0  0  0
  -27.2393  -27.4302   20.1117 C   0  0  0  0  0  0
  -25.5883  -33.8621   24.2324 N   0  0  0  0  0  0
  -23.4037  -30.4891   21.5493 C   0  0  2  0  0  0
  -24.8546  -28.9486   20.1224 C   0  0  0  0  0  0
  -22.7408  -29.4657   22.4992 C   0  0  0  0  0  0
  -18.0281  -28.1396   22.8499 C   0  0  0  0  0  0
  -24.1485  -36.7319   23.2634 C   0  0  0  0  0  0
  -25.9320  -30.8301   21.3668 C   0  0  0  0  0  0
  -26.0116  -29.4595   20.7252 C   0  0  0  0  0  0
  -27.2075  -28.7049   20.7246 C   0  0  0  0  0  0
  -26.0719  -26.9344   19.4991 C   0  0  0  0  0  0
  -24.8780  -27.6827   19.5089 C   0  0  0  0  0  0
  -23.6165  -29.8172   20.1656 C   0  0  0  0  0  0
  -25.4103  -36.3113   24.0338 C   0  0  1  0  0  0
  -20.5867  -28.3675   23.1327 C   0  0  2  0  0  0
  -20.6770  -26.9411   22.5430 C   0  0  0  0  0  0
  -19.5750  -26.6401   21.5225 C   0  0  0  0  0  0
  -18.1926  -26.7940   22.1634 C   0  0  0  0  0  0
  -19.1527  -28.8854   23.2906 C   0  0  0  0  0  0
  -18.9454  -30.1464   23.8910 C   0  0  0  0  0  0
  -17.6456  -30.6596   24.0581 C   0  0  0  0  0  0
  -25.9031  -34.9477   23.5133 C   0  0  0  0  0  0
  -16.5350  -29.9103   23.6332 C   0  0  0  0  0  0
  -16.7271  -28.6524   23.0341 C   0  0  0  0  0  0
  -26.4461  -31.6603   25.0724 C   0  0  0  0  0  0
  -25.3725  -31.3737   26.1484 C   0  0  0  0  0  0
  -27.0273  -30.3032   24.6105 C   0  0  0  0  0  0
  -27.6058  -32.4307   25.7464 C   0  0  0  0  0  0
  -27.5590  -37.1804   24.8454 C   0  0  0  0  0  0
  -21.4139  -29.3035   22.3726 N   0  0  0  0  0  0
  -26.4289  -37.3802   23.9420 N   0  0  0  0  0  0
  -24.6677  -31.0777   22.1002 N   0  0  0  0  0  0
  -23.4175  -28.8207   23.3045 O   0  0  0  0  0  0
  -28.3900  -26.6777   20.0467 O   0  0  0  0  0  0
  -26.5607  -34.8925   22.4701 O   0  0  0  0  0  0
  -23.5326  -32.1433   23.7481 O   0  0  0  0  0  0
  -30.8978  -17.6345   20.5890 C   0  0  0  0  0  0
  -30.6986  -19.0233   20.4228 C   0  0  0  0  0  0
  -28.6333  -17.4375   21.4282 C   0  0  0  0  0  0
  -28.4022  -18.8297   21.2522 C   0  0  0  0  0  0
  -29.8560  -16.8199   21.0841 C   0  0  0  0  0  0
  -29.4687  -19.6427   20.7527 C   0  0  0  0  0  0
  -27.0434  -19.3670   21.6068 C   0  0  0  0  0  0
  -29.1320  -23.4530   20.5544 C   0  0  0  0  0  0
  -29.3807  -22.0848   21.2730 C   0  0  0  0  0  0
  -25.8650  -18.4012   21.5471 C   0  0  0  0  0  0
  -28.2480  -24.4886   21.2812 C   0  0  0  0  0  0
  -28.7412  -25.9620   21.2391 C   0  0  0  0  0  0
  -29.3291  -21.0322   20.4306 N   0  0  0  0  0  0
  -29.9484  -15.4025   21.2703 N   0  0  0  0  0  0
  -26.8061  -20.5388   21.9094 O   0  0  0  0  0  0
  -29.5907  -23.6849   19.4290 O   0  0  0  0  0  0
  -29.6001  -21.9975   22.4863 O   0  0  0  0  0  0
  -31.4787  -12.4411   19.1163 H   0  0  0  0  0  0
  -30.3587  -11.2986   19.8026 H   0  0  0  0  0  0
  -29.7433  -11.7905   17.4250 H   0  0  0  0  0  0
  -29.6656  -13.4994   17.7696 H   0  0  0  0  0  0
  -27.8317  -11.3089   18.8060 H   0  0  0  0  0  0
  -27.3709  -12.6464   17.7857 H   0  0  0  0  0  0
  -27.7193  -14.2487   19.5942 H   0  0  0  0  0  0
  -28.6879  -11.8994   21.2959 H   0  0  0  0  0  0
  -28.4501  -13.5029   21.8984 H   0  0  0  0  0  0
  -25.2753   -9.5672   22.4741 H   0  0  0  0  0  0
  -23.9993   -7.4629   22.7467 H   0  0  0  0  0  0
  -21.0826   -8.8770   19.8964 H   0  0  0  0  0  0
  -22.3680  -10.9668   19.6160 H   0  0  0  0  0  0
  -21.2010   -7.6140   23.9716 H   0  0  0  0  0  0
  -21.1474   -6.0516   25.9075 H   0  0  0  0  0  0
  -22.0602   -2.7610   23.2849 H   0  0  0  0  0  0
  -22.4102  -11.9911   22.4781 H   0  0  0  0  0  0
  -21.1141  -13.1321   22.2589 H   0  0  0  0  0  0
  -24.6647  -15.8295   20.4940 H   0  0  0  0  0  0
  -26.2786  -15.6038   20.0359 H   0  0  0  0  0  0
  -26.7102  -32.5545   23.1163 H   0  0  0  0  0  0
  -25.0016  -33.9778   25.0458 H   0  0  0  0  0  0
  -22.6927  -31.3056   21.4075 H   0  0  0  0  0  0
  -23.3749  -35.9648   23.3279 H   0  0  0  0  0  0
  -24.3588  -36.8955   22.2051 H   0  0  0  0  0  0
  -23.7227  -37.6515   23.6661 H   0  0  0  0  0  0
  -26.0426  -31.5893   20.5915 H   0  0  0  0  0  0
  -26.8203  -30.8902   21.9833 H   0  0  0  0  0  0
  -28.1043  -29.0975   21.1840 H   0  0  0  0  0  0
  -26.0887  -25.9673   19.0168 H   0  0  0  0  0  0
  -23.9896  -27.2835   19.0402 H   0  0  0  0  0  0
  -23.7279  -30.5887   19.4028 H   0  0  0  0  0  0
  -22.7408  -29.2370   19.8695 H   0  0  0  0  0  0
  -25.1275  -36.1976   25.0829 H   0  0  0  0  0  0
  -20.9970  -28.3250   24.1443 H   0  0  0  0  0  0
  -20.5699  -26.2276   23.3615 H   0  0  0  0  0  0
  -21.6642  -26.7475   22.1215 H   0  0  0  0  0  0
  -19.6907  -25.6316   21.1245 H   0  0  0  0  0  0
  -19.6688  -27.3222   20.6760 H   0  0  0  0  0  0
  -17.4203  -26.6702   21.4027 H   0  0  0  0  0  0
  -18.0320  -26.0082   22.9029 H   0  0  0  0  0  0
  -19.7925  -30.7287   24.2272 H   0  0  0  0  0  0
  -17.5009  -31.6270   24.5196 H   0  0  0  0  0  0
  -15.5352  -30.3011   23.7644 H   0  0  0  0  0  0
  -15.8672  -28.0859   22.7030 H   0  0  0  0  0  0
  -24.5857  -30.7128   25.7831 H   0  0  0  0  0  0
  -24.8963  -32.2910   26.4955 H   0  0  0  0  0  0
  -25.8071  -30.8877   27.0230 H   0  0  0  0  0  0
  -26.2812  -29.6804   24.1154 H   0  0  0  0  0  0
  -27.4024  -29.7265   25.4572 H   0  0  0  0  0  0
  -27.8662  -30.4336   23.9264 H   0  0  0  0  0  0
  -27.2708  -33.3612   26.2057 H   0  0  0  0  0  0
  -28.3848  -32.6855   25.0268 H   0  0  0  0  0  0
  -28.0738  -31.8410   26.5355 H   0  0  0  0  0  0
  -28.2597  -38.0116   24.7545 H   0  0  0  0  0  0
  -28.1104  -36.2656   24.6220 H   0  0  0  0  0  0
  -27.2324  -37.1386   25.8860 H   0  0  0  0  0  0
  -20.9308  -29.8729   21.6921 H   0  0  0  0  0  0
  -26.0178  -38.2877   24.1444 H   0  0  0  0  0  0
  -31.8569  -17.2123   20.3246 H   0  0  0  0  0  0
  -31.5068  -19.6178   20.0207 H   0  0  0  0  0  0
  -27.8476  -16.8087   21.8218 H   0  0  0  0  0  0
  -25.8825  -17.8516   20.6075 H   0  0  0  0  0  0
  -24.9237  -18.9469   21.6019 H   0  0  0  0  0  0
  -25.8984  -17.6955   22.3765 H   0  0  0  0  0  0
  -28.1917  -24.1827   22.3259 H   0  0  0  0  0  0
  -27.2318  -24.4187   20.8963 H   0  0  0  0  0  0
  -29.8269  -25.9882   21.3378 H   0  0  0  0  0  0
  -28.3610  -26.4864   22.1186 H   0  0  0  0  0  0
  -29.2373  -21.2780   19.4531 H   0  0  0  0  0  0
  -29.1437  -14.9890   21.7156 H   0  0  0  0  0  0
  1 25  1  0  0  0
  1 30  2  0  0  0
  1 84  1  0  0  0
  2  3  1  0  0  0
  2 25  1  0  0  0
  2 88  1  0  0  0
  2 89  1  0  0  0
  3  4  1  0  0  0
  3 90  1  0  0  0
  3 91  1  0  0  0
  4  5  1  0  0  0
  4 92  1  0  0  0
  4 93  1  0  0  0
  5  6  1  0  0  0
  5 26  1  0  0  0
  5 94  1  0  0  0
  6 25  1  0  0  0
  6 95  1  0  0  0
  6 96  1  0  0  0
  7  8  2  0  0  0
  7 26  1  0  0  0
  7 29  1  0  0  0
  8  9  1  0  0  0
  8 22  1  0  0  0
  9 10  1  0  0  0
  9 27  2  0  0  0
 10 11  2  0  0  0
 10 15  1  0  0  0
 11 12  1  0  0  0
 11 97  1  0  0  0
 12 13  2  0  0  0
 12 98  1  0  0  0
 13 14  1  0  0  0
 13 31  1  0  0  0
 14 15  2  0  0  0
 14 99  1  0  0  0
 15100  1  0  0  0
 16 17  2  0  0  0
 16 21  1  0  0  0
 16 31  1  0  0  0
 17 18  1  0  0  0
 17101  1  0  0  0
 18 19  2  0  0  0
 18102  1  0  0  0
 19 20  1  0  0  0
 19 24  1  0  0  0
 20 21  2  0  0  0
 20103  1  0  0  0
 21 23  1  0  0  0
 22 28  1  0  0  0
 22 32  2  0  0  0
 26 27  1  0  0  0
 28104  1  0  0  0
 28105  1  0  0  0
 29106  1  0  0  0
 29107  1  0  0  0
 33 34  1  0  0  0
 33 66  1  0  0  0
 33 70  2  0  0  0
 34 36  1  0  0  0
 34 59  1  0  0  0
 34108  1  0  0  0
 35 44  2  0  0  0
 35 45  1  0  0  0
 35 68  1  0  0  0
 36 56  1  0  0  0
 36109  1  0  0  0
 37 39  1  0  0  0
 37 47  1  0  0  0
 37 66  1  0  0  0
 37110  1  0  0  0
 38 43  2  0  0  0
 38 46  1  0  0  0
 38 47  1  0  0  0
 39 64  1  0  0  0
 39 67  2  0  0  0
 40 52  1  0  0  0
 40 53  2  0  0  0
 40 58  1  0  0  0
 41111  1  0  0  0
 41112  1  0  0  0
 41113  1  0  0  0
 41 48  1  0  0  0
 42 43  1  0  0  0
 42 66  1  0  0  0
 42114  1  0  0  0
 42115  1  0  0  0
 43 44  1  0  0  0
 44116  1  0  0  0
 45 46  2  0  0  0
 45117  1  0  0  0
 46118  1  0  0  0
 47119  1  0  0  0
 47120  1  0  0  0
 48 56  1  0  0  0
 48 65  1  0  0  0
 48121  1  0  0  0
 49 50  1  0  0  0
 49 53  1  0  0  0
 49 64  1  0  0  0
 49122  1  0  0  0
 50 51  1  0  0  0
 50123  1  0  0  0
 50124  1  0  0  0
 51 52  1  0  0  0
 51125  1  0  0  0
 51126  1  0  0  0
 52127  1  0  0  0
 52128  1  0  0  0
 53 54  1  0  0  0
 54 55  2  0  0  0
 54129  1  0  0  0
 55 57  1  0  0  0
 55130  1  0  0  0
 56 69  2  0  0  0
 57 58  2  0  0  0
 57131  1  0  0  0
 58132  1  0  0  0
 59 60  1  0  0  0
 59 61  1  0  0  0
 59 62  1  0  0  0
 60133  1  0  0  0
 60134  1  0  0  0
 60135  1  0  0  0
 61136  1  0  0  0
 61137  1  0  0  0
 61138  1  0  0  0
 62139  1  0  0  0
 62140  1  0  0  0
 62141  1  0  0  0
 63 65  1  0  0  0
 63142  1  0  0  0
 63143  1  0  0  0
 63144  1  0  0  0
 64145  1  0  0  0
 65146  1  0  0  0
 68 82  1  0  0  0
 71 72  2  0  0  0
 71 75  1  0  0  0
 71147  1  0  0  0
 72 76  1  0  0  0
 72148  1  0  0  0
 73 74  1  0  0  0
 73 75  2  0  0  0
 73149  1  0  0  0
 74 76  2  0  0  0
 74 77  1  0  0  0
 75 84  1  0  0  0
 76 83  1  0  0  0
 77 80  1  0  0  0
 77 85  2  0  0  0
 78 79  1  0  0  0
 78 81  1  0  0  0
 78 86  2  0  0  0
 79 83  1  0  0  0
 79 87  2  0  0  0
 80150  1  0  0  0
 80151  1  0  0  0
 80152  1  0  0  0
 81 82  1  0  0  0
 81153  1  0  0  0
 81154  1  0  0  0
 82155  1  0  0  0
 82156  1  0  0  0
 83157  1  0  0  0
 84158  1  0  0  0
M  ISO  4   1 100  68 101  82 101  84 100
M  END
> <chiral flag>
0

> <version>
0

> <s_m_source_file>
/data/baiqing/PycharmProjects/Reinvent-master-3.2/result/LINK_invent/BTK/process_docking_weight1_custom_product_contain_oxygen_bond_distance_aromatic_linkinvent_7_9_3/rearranged_h_0168.sdf

> <i_m_source_file_index>
78

> <r_mmod_Potential_Energy-OPLS-2005>
-18.6148662567139

> <r_mmod_Stretch_Energy-OPLS-2005>
43.223316192627

> <r_mmod_Bend_Energy-OPLS-2005>
108.666870117188

> <r_mmod_Torsional_Energy-OPLS-2005>
298.882507324219

> <r_mmod_Improper_Torsional_Energy-OPLS-2005>
4.76772832870483

> <r_mmod_Van_der_Waal_Energy-OPLS-2005>
147.391342163086

> <r_mmod_Electrostatic_Energy-OPLS-2005>
-383.612426757812

> <r_mmod_Solvation_Energy-OPLS-2005>
-250.027435302734

> <b_mmod_Minimization_Converged-OPLS-2005>
0

> <r_mmod_RMS_Derivative-OPLS-2005>
1.13714444637299

$$$$
78
                    3D
 Structure written by MMmdl.
160168  0  0  1  0            999 V2000
  -30.7034  -14.4966   20.5076 C   0  0  0  0  0  0
  -30.4193  -12.2970   19.4431 C   0  0  0  0  0  0
  -29.4970  -12.4519   18.2189 C   0  0  0  0  0  0
  -28.0183  -12.3244   18.6362 C   0  0  0  0  0  0
  -27.6552  -13.2046   19.8630 C   0  0  2  0  0  0
  -28.6986  -13.0419   20.9912 C   0  0  0  0  0  0
  -25.2576  -13.8162   20.5683 C   0  0  0  0  0  0
  -24.1829  -13.0440   20.9185 C   0  0  0  0  0  0
  -24.6380  -11.6907   20.8747 C   0  0  0  0  0  0
  -23.9050  -10.4293   21.0411 C   0  0  0  0  0  0
  -24.3608   -9.4209   21.9185 C   0  0  0  0  0  0
  -23.6288   -8.2241   22.0753 C   0  0  0  0  0  0
  -22.4269   -8.0278   21.3544 C   0  0  0  0  0  0
  -21.9902   -9.0252   20.4647 C   0  0  0  0  0  0
  -22.7225  -10.2135   20.3059 C   0  0  0  0  0  0
  -21.6853   -6.0732   22.5278 C   0  0  0  0  0  0
  -21.4012   -6.5638   23.8210 C   0  0  0  0  0  0
  -21.3659   -5.6793   24.9174 C   0  0  0  0  0  0
  -21.6045   -4.3055   24.7227 C   0  0  0  0  0  0
  -21.8819   -3.8144   23.4348 C   0  0  0  0  0  0
  -21.9192   -4.6960   22.3403 C   0  0  0  0  0  0
  -22.7856  -13.5241   21.1850 C   0  0  0  0  0  0
  -22.1662   -4.2145   21.0981 F   0  0  0  0  0  0
  -21.5630   -3.4540   25.7741 F   0  0  0  0  0  0
  -30.0243  -13.3222   20.4211 N   0  0  0  0  0  0
  -26.2995  -12.9323   20.3331 N   0  0  0  0  0  0
  -25.9304  -11.6491   20.5779 N   0  0  0  0  0  0
  -22.0499  -12.8234   22.0408 N   0  0  0  0  0  0
  -25.4298  -15.1880   20.4104 N   0  0  0  0  0  0
  -31.8653  -14.6191   20.1165 O   0  0  0  0  0  0
  -21.6638   -6.8873   21.4238 O   0  0  0  0  0  0
  -22.3544  -14.5549   20.6703 O   0  0  0  0  0  0
  -24.6142  -31.8686   23.2100 C   0  0  0  0  0  0
  -25.9035  -32.4826   23.8397 C   0  0  1  0  0  0
  -27.2338  -27.4414   20.1032 C   0  0  0  0  0  0
  -25.5896  -33.8624   24.2330 N   0  0  0  0  0  0
  -23.4029  -30.4911   21.5499 C   0  0  2  0  0  0
  -24.8522  -28.9600   20.1113 C   0  0  0  0  0  0
  -22.7413  -29.4656   22.4988 C   0  0  0  0  0  0
  -18.0273  -28.1375   22.8493 C   0  0  0  0  0  0
  -24.1488  -36.7318   23.2639 C   0  0  0  0  0  0
  -25.9306  -30.8382   21.3616 C   0  0  0  0  0  0
  -26.0115  -29.4736   20.7078 C   0  0  0  0  0  0
  -27.2096  -28.7225   20.6988 C   0  0  0  0  0  0
  -26.0630  -26.9438   19.4938 C   0  0  0  0  0  0
  -24.8727  -27.6945   19.4990 C   0  0  0  0  0  0
  -23.6117  -29.8238   20.1639 C   0  0  0  0  0  0
  -25.4106  -36.3114   24.0342 C   0  0  1  0  0  0
  -20.5865  -28.3662   23.1321 C   0  0  2  0  0  0
  -20.6763  -26.9400   22.5418 C   0  0  0  0  0  0
  -19.5741  -26.6385   21.5216 C   0  0  0  0  0  0
  -18.1919  -26.7924   22.1626 C   0  0  0  0  0  0
  -19.1523  -28.8835   23.2903 C   0  0  0  0  0  0
  -18.9453  -30.1443   23.8913 C   0  0  0  0  0  0
  -17.6455  -30.6584   24.0567 C   0  0  0  0  0  0
  -25.9032  -34.9478   23.5131 C   0  0  0  0  0  0
  -16.5345  -29.9086   23.6327 C   0  0  0  0  0  0
  -16.7263  -28.6503   23.0347 C   0  0  0  0  0  0
  -26.4468  -31.6599   25.0719 C   0  0  0  0  0  0
  -25.3740  -31.3699   26.1472 C   0  0  0  0  0  0
  -27.0299  -30.3046   24.6078 C   0  0  0  0  0  0
  -27.6049  -32.4313   25.7478 C   0  0  0  0  0  0
  -27.5581  -37.1811   24.8465 C   0  0  0  0  0  0
  -21.4141  -29.3031   22.3730 N   0  0  0  0  0  0
  -26.4297  -37.3793   23.9407 N   0  0  0  0  0  0
  -24.6673  -31.0794   22.0994 N   0  0  0  0  0  0
  -23.4189  -28.8198   23.3028 O   0  0  0  0  0  0
  -28.3632  -26.6572   20.1384 O   0  0  0  0  0  0
  -26.5596  -34.8929   22.4693 O   0  0  0  0  0  0
  -23.5336  -32.1431   23.7499 O   0  0  0  0  0  0
  -29.9004  -19.4153   21.0388 C   0  0  0  0  0  0
  -28.3356  -20.4415   19.5418 C   0  0  0  0  0  0
  -29.6750  -18.1670   20.3998 C   0  0  0  0  0  0
  -29.2469  -20.5920   20.6029 C   0  0  0  0  0  0
  -28.7934  -18.1551   19.2809 C   0  0  0  0  0  0
  -29.0162  -24.2981   20.6178 C   0  0  0  0  0  0
  -27.8854  -16.7081   17.4615 C   0  0  0  0  0  0
  -28.2457  -15.5146   16.5900 C   0  0  0  0  0  0
  -30.5176  -16.9655   20.9017 C   0  0  0  0  0  0
  -28.5600  -22.9464   21.2209 C   0  0  0  0  0  0
  -28.2051  -25.5404   21.0357 C   0  0  0  0  0  0
  -28.1278  -19.2745   18.9103 N   0  0  0  0  0  0
  -29.5448  -21.8449   21.1839 N   0  0  0  0  0  0
  -28.7102  -16.9751   18.4946 N   0  0  0  0  0  0
  -29.9764  -15.5875   20.8385 N   0  0  0  0  0  0
  -29.9817  -24.3716   19.8479 O   0  0  0  0  0  0
  -26.8485  -17.3248   17.2031 O   0  0  0  0  0  0
  -31.4650  -12.3807   19.1412 H   0  0  0  0  0  0
  -30.3146  -11.3027   19.8799 H   0  0  0  0  0  0
  -29.7371  -11.6964   17.4696 H   0  0  0  0  0  0
  -29.6796  -13.4145   17.7471 H   0  0  0  0  0  0
  -27.8436  -11.2750   18.8762 H   0  0  0  0  0  0
  -27.3591  -12.5455   17.7970 H   0  0  0  0  0  0
  -27.6841  -14.2404   19.5266 H   0  0  0  0  0  0
  -28.6767  -12.0266   21.3900 H   0  0  0  0  0  0
  -28.4694  -13.6972   21.8329 H   0  0  0  0  0  0
  -25.2754   -9.5685   22.4758 H   0  0  0  0  0  0
  -24.0000   -7.4632   22.7469 H   0  0  0  0  0  0
  -21.0835   -8.8767   19.8954 H   0  0  0  0  0  0
  -22.3680  -10.9673   19.6172 H   0  0  0  0  0  0
  -21.2004   -7.6146   23.9711 H   0  0  0  0  0  0
  -21.1483   -6.0525   25.9077 H   0  0  0  0  0  0
  -22.0599   -2.7606   23.2851 H   0  0  0  0  0  0
  -22.4115  -11.9892   22.4791 H   0  0  0  0  0  0
  -21.1120  -13.1263   22.2624 H   0  0  0  0  0  0
  -24.6578  -15.8372   20.5161 H   0  0  0  0  0  0
  -26.2755  -15.6335   20.0816 H   0  0  0  0  0  0
  -26.7112  -32.5549   23.1170 H   0  0  0  0  0  0
  -25.0052  -33.9787   25.0479 H   0  0  0  0  0  0
  -22.6910  -31.3073   21.4107 H   0  0  0  0  0  0
  -23.3745  -35.9658   23.3317 H   0  0  0  0  0  0
  -24.3584  -36.8917   22.2051 H   0  0  0  0  0  0
  -23.7249  -37.6531   23.6643 H   0  0  0  0  0  0
  -26.0397  -31.6057   20.5942 H   0  0  0  0  0  0
  -26.8194  -30.8930   21.9787 H   0  0  0  0  0  0
  -28.1030  -29.1104   21.1679 H   0  0  0  0  0  0
  -26.0691  -25.9693   19.0259 H   0  0  0  0  0  0
  -23.9826  -27.2936   19.0338 H   0  0  0  0  0  0
  -23.7155  -30.5991   19.4036 H   0  0  0  0  0  0
  -22.7373  -29.2402   19.8699 H   0  0  0  0  0  0
  -25.1280  -36.1987   25.0836 H   0  0  0  0  0  0
  -20.9953  -28.3230   24.1444 H   0  0  0  0  0  0
  -20.5673  -26.2269   23.3606 H   0  0  0  0  0  0
  -21.6632  -26.7447   22.1205 H   0  0  0  0  0  0
  -19.6906  -25.6301   21.1234 H   0  0  0  0  0  0
  -19.6685  -27.3207   20.6754 H   0  0  0  0  0  0
  -17.4190  -26.6681   21.4025 H   0  0  0  0  0  0
  -18.0313  -26.0060   22.9017 H   0  0  0  0  0  0
  -19.7932  -30.7251   24.2291 H   0  0  0  0  0  0
  -17.5013  -31.6269   24.5161 H   0  0  0  0  0  0
  -15.5346  -30.2994   23.7641 H   0  0  0  0  0  0
  -15.8664  -28.0830   22.7049 H   0  0  0  0  0  0
  -24.5908  -30.7054   25.7805 H   0  0  0  0  0  0
  -24.8937  -32.2853   26.4938 H   0  0  0  0  0  0
  -25.8095  -30.8852   27.0217 H   0  0  0  0  0  0
  -26.2836  -29.6810   24.1142 H   0  0  0  0  0  0
  -27.4091  -29.7280   25.4524 H   0  0  0  0  0  0
  -27.8661  -30.4373   23.9208 H   0  0  0  0  0  0
  -27.2669  -33.3598   26.2090 H   0  0  0  0  0  0
  -28.3838  -32.6897   25.0290 H   0  0  0  0  0  0
  -28.0741  -31.8417   26.5364 H   0  0  0  0  0  0
  -28.2602  -38.0103   24.7504 H   0  0  0  0  0  0
  -28.1072  -36.2635   24.6297 H   0  0  0  0  0  0
  -27.2300  -37.1469   25.8868 H   0  0  0  0  0  0
  -20.9301  -29.8761   21.6960 H   0  0  0  0  0  0
  -26.0193  -38.2877   24.1402 H   0  0  0  0  0  0
  -30.6094  -19.4749   21.8521 H   0  0  0  0  0  0
  -27.7970  -21.2843   19.1352 H   0  0  0  0  0  0
  -29.3187  -15.3249   16.5972 H   0  0  0  0  0  0
  -27.9519  -15.7001   15.5567 H   0  0  0  0  0  0
  -27.7176  -14.6277   16.9317 H   0  0  0  0  0  0
  -30.7720  -17.1393   21.9485 H   0  0  0  0  0  0
  -31.4672  -17.0298   20.3675 H   0  0  0  0  0  0
  -27.6171  -22.6678   20.7515 H   0  0  0  0  0  0
  -28.3150  -23.1324   22.2678 H   0  0  0  0  0  0
  -28.5300  -25.8448   22.0306 H   0  0  0  0  0  0
  -27.1601  -25.2422   21.1280 H   0  0  0  0  0  0
  -30.3184  -21.9104   21.8417 H   0  0  0  0  0  0
  -29.4458  -16.3063   18.6572 H   0  0  0  0  0  0
  -29.0314  -15.4313   21.1554 H   0  0  0  0  0  0
  1 25  1  0  0  0
  1 30  2  0  0  0
  1 85  1  0  0  0
  2  3  1  0  0  0
  2 25  1  0  0  0
  2 88  1  0  0  0
  2 89  1  0  0  0
  3  4  1  0  0  0
  3 90  1  0  0  0
  3 91  1  0  0  0
  4  5  1  0  0  0
  4 92  1  0  0  0
  4 93  1  0  0  0
  5  6  1  0  0  0
  5 26  1  0  0  0
  5 94  1  0  0  0
  6 25  1  0  0  0
  6 95  1  0  0  0
  6 96  1  0  0  0
  7  8  2  0  0  0
  7 26  1  0  0  0
  7 29  1  0  0  0
  8  9  1  0  0  0
  8 22  1  0  0  0
  9 10  1  0  0  0
  9 27  2  0  0  0
 10 11  2  0  0  0
 10 15  1  0  0  0
 11 12  1  0  0  0
 11 97  1  0  0  0
 12 13  2  0  0  0
 12 98  1  0  0  0
 13 14  1  0  0  0
 13 31  1  0  0  0
 14 15  2  0  0  0
 14 99  1  0  0  0
 15100  1  0  0  0
 16 17  2  0  0  0
 16 21  1  0  0  0
 16 31  1  0  0  0
 17 18  1  0  0  0
 17101  1  0  0  0
 18 19  2  0  0  0
 18102  1  0  0  0
 19 20  1  0  0  0
 19 24  1  0  0  0
 20 21  2  0  0  0
 20103  1  0  0  0
 21 23  1  0  0  0
 22 28  1  0  0  0
 22 32  2  0  0  0
 26 27  1  0  0  0
 28104  1  0  0  0
 28105  1  0  0  0
 29106  1  0  0  0
 29107  1  0  0  0
 33 34  1  0  0  0
 33 66  1  0  0  0
 33 70  2  0  0  0
 34 36  1  0  0  0
 34 59  1  0  0  0
 34108  1  0  0  0
 35 44  2  0  0  0
 35 45  1  0  0  0
 35 68  1  0  0  0
 36 56  1  0  0  0
 36109  1  0  0  0
 37 39  1  0  0  0
 37 47  1  0  0  0
 37 66  1  0  0  0
 37110  1  0  0  0
 38 43  2  0  0  0
 38 46  1  0  0  0
 38 47  1  0  0  0
 39 64  1  0  0  0
 39 67  2  0  0  0
 40 52  1  0  0  0
 40 53  2  0  0  0
 40 58  1  0  0  0
 41111  1  0  0  0
 41112  1  0  0  0
 41113  1  0  0  0
 41 48  1  0  0  0
 42 43  1  0  0  0
 42 66  1  0  0  0
 42114  1  0  0  0
 42115  1  0  0  0
 43 44  1  0  0  0
 44116  1  0  0  0
 45 46  2  0  0  0
 45117  1  0  0  0
 46118  1  0  0  0
 47119  1  0  0  0
 47120  1  0  0  0
 48 56  1  0  0  0
 48 65  1  0  0  0
 48121  1  0  0  0
 49 50  1  0  0  0
 49 53  1  0  0  0
 49 64  1  0  0  0
 49122  1  0  0  0
 50 51  1  0  0  0
 50123  1  0  0  0
 50124  1  0  0  0
 51 52  1  0  0  0
 51125  1  0  0  0
 51126  1  0  0  0
 52127  1  0  0  0
 52128  1  0  0  0
 53 54  1  0  0  0
 54 55  2  0  0  0
 54129  1  0  0  0
 55 57  1  0  0  0
 55130  1  0  0  0
 56 69  2  0  0  0
 57 58  2  0  0  0
 57131  1  0  0  0
 58132  1  0  0  0
 59 60  1  0  0  0
 59 61  1  0  0  0
 59 62  1  0  0  0
 60133  1  0  0  0
 60134  1  0  0  0
 60135  1  0  0  0
 61136  1  0  0  0
 61137  1  0  0  0
 61138  1  0  0  0
 62139  1  0  0  0
 62140  1  0  0  0
 62141  1  0  0  0
 63 65  1  0  0  0
 63142  1  0  0  0
 63143  1  0  0  0
 63144  1  0  0  0
 64145  1  0  0  0
 65146  1  0  0  0
 68 81  1  0  0  0
 71 73  2  0  0  0
 71 74  1  0  0  0
 71147  1  0  0  0
 72 74  2  0  0  0
 72 82  1  0  0  0
 72148  1  0  0  0
 73 75  1  0  0  0
 73 79  1  0  0  0
 74 83  1  0  0  0
 75 82  2  0  0  0
 75 84  1  0  0  0
 76 80  1  0  0  0
 76 81  1  0  0  0
 76 86  2  0  0  0
 77 78  1  0  0  0
 77 84  1  0  0  0
 77 87  2  0  0  0
 78149  1  0  0  0
 78150  1  0  0  0
 78151  1  0  0  0
 79 85  1  0  0  0
 79152  1  0  0  0
 79153  1  0  0  0
 80 83  1  0  0  0
 80154  1  0  0  0
 80155  1  0  0  0
 81156  1  0  0  0
 81157  1  0  0  0
 83158  1  0  0  0
 84159  1  0  0  0
 85160  1  0  0  0
M  ISO  4   1 100  68 101  81 101  85 100
M  END
> <chiral flag>
0

> <version>
0

> <s_m_source_file>
/data/baiqing/PycharmProjects/Reinvent-master-3.2/result/LINK_invent/BTK/process_docking_weight1_custom_product_contain_oxygen_bond_distance_aromatic_linkinvent_7_9_3/rearranged_h_0168.sdf

> <i_m_source_file_index>
79

> <r_mmod_Potential_Energy-OPLS-2005>
-102.782295227051

> <r_mmod_Stretch_Energy-OPLS-2005>
42.2260894775391

> <r_mmod_Bend_Energy-OPLS-2005>
121.170692443848

> <r_mmod_Torsional_Energy-OPLS-2005>
225.464828491211

> <r_mmod_Improper_Torsional_Energy-OPLS-2005>
6.96082067489624

> <r_mmod_Van_der_Waal_Energy-OPLS-2005>
147.156539916992

> <r_mmod_Electrostatic_Energy-OPLS-2005>
-369.498260498047

> <r_mmod_Solvation_Energy-OPLS-2005>
-295.492767333984

> <b_mmod_Minimization_Converged-OPLS-2005>
0

> <r_mmod_RMS_Derivative-OPLS-2005>
0.544014155864716

$$$$
79
                    3D
 Structure written by MMmdl.
153161  0  0  1  0            999 V2000
  -30.7161  -14.4887   20.5570 C   0  0  0  0  0  0
  -30.4164  -12.3137   19.4311 C   0  0  0  0  0  0
  -29.4932  -12.4997   18.2100 C   0  0  0  0  0  0
  -28.0157  -12.3593   18.6237 C   0  0  0  0  0  0
  -27.6583  -13.2121   19.8709 C   0  0  2  0  0  0
  -28.7014  -13.0240   20.9966 C   0  0  0  0  0  0
  -25.2575  -13.8170   20.5685 C   0  0  0  0  0  0
  -24.1832  -13.0443   20.9185 C   0  0  0  0  0  0
  -24.6394  -11.6911   20.8741 C   0  0  0  0  0  0
  -23.9060  -10.4295   21.0407 C   0  0  0  0  0  0
  -24.3614   -9.4211   21.9184 C   0  0  0  0  0  0
  -23.6292   -8.2244   22.0753 C   0  0  0  0  0  0
  -22.4273   -8.0282   21.3545 C   0  0  0  0  0  0
  -21.9908   -9.0254   20.4646 C   0  0  0  0  0  0
  -22.7233  -10.2136   20.3056 C   0  0  0  0  0  0
  -21.6853   -6.0736   22.5280 C   0  0  0  0  0  0
  -21.4013   -6.5640   23.8213 C   0  0  0  0  0  0
  -21.3659   -5.6794   24.9175 C   0  0  0  0  0  0
  -21.6043   -4.3055   24.7225 C   0  0  0  0  0  0
  -21.8820   -3.8148   23.4346 C   0  0  0  0  0  0
  -21.9193   -4.6964   22.3403 C   0  0  0  0  0  0
  -22.7855  -13.5239   21.1847 C   0  0  0  0  0  0
  -22.1663   -4.2150   21.0980 F   0  0  0  0  0  0
  -21.5628   -3.4539   25.7737 F   0  0  0  0  0  0
  -30.0301  -13.3180   20.4366 N   0  0  0  0  0  0
  -26.3012  -12.9351   20.3357 N   0  0  0  0  0  0
  -25.9324  -11.6508   20.5773 N   0  0  0  0  0  0
  -22.0494  -12.8231   22.0401 N   0  0  0  0  0  0
  -25.4298  -15.1888   20.4089 N   0  0  0  0  0  0
  -31.8505  -14.6261   20.0922 O   0  0  0  0  0  0
  -21.6639   -6.8877   21.4241 O   0  0  0  0  0  0
  -22.3541  -14.5548   20.6697 O   0  0  0  0  0  0
  -24.6162  -31.8671   23.2091 C   0  0  0  0  0  0
  -25.9049  -32.4818   23.8391 C   0  0  1  0  0  0
  -27.2286  -27.4230   20.1024 C   0  0  0  0  0  0
  -25.5899  -33.8616   24.2326 N   0  0  0  0  0  0
  -23.4053  -30.4906   21.5497 C   0  0  2  0  0  0
  -24.8527  -28.9582   20.1108 C   0  0  0  0  0  0
  -22.7424  -29.4651   22.4978 C   0  0  0  0  0  0
  -18.0273  -28.1381   22.8491 C   0  0  0  0  0  0
  -24.1487  -36.7313   23.2637 C   0  0  0  0  0  0
  -25.9354  -30.8310   21.3628 C   0  0  0  0  0  0
  -26.0147  -29.4657   20.7079 C   0  0  0  0  0  0
  -27.2101  -28.7066   20.6983 C   0  0  0  0  0  0
  -26.0549  -26.9389   19.4870 C   0  0  0  0  0  0
  -24.8686  -27.6954   19.4944 C   0  0  0  0  0  0
  -23.6142  -29.8246   20.1634 C   0  0  0  0  0  0
  -25.4106  -36.3109   24.0339 C   0  0  1  0  0  0
  -20.5867  -28.3667   23.1315 C   0  0  2  0  0  0
  -20.6766  -26.9402   22.5418 C   0  0  0  0  0  0
  -19.5744  -26.6389   21.5213 C   0  0  0  0  0  0
  -18.1921  -26.7928   22.1623 C   0  0  0  0  0  0
  -19.1523  -28.8841   23.2899 C   0  0  0  0  0  0
  -18.9451  -30.1447   23.8908 C   0  0  0  0  0  0
  -17.6453  -30.6586   24.0566 C   0  0  0  0  0  0
  -25.9032  -34.9473   23.5131 C   0  0  0  0  0  0
  -16.5344  -29.9087   23.6327 C   0  0  0  0  0  0
  -16.7262  -28.6505   23.0347 C   0  0  0  0  0  0
  -26.4474  -31.6594   25.0718 C   0  0  0  0  0  0
  -25.3742  -31.3703   26.1469 C   0  0  0  0  0  0
  -27.0298  -30.3035   24.6088 C   0  0  0  0  0  0
  -27.6056  -32.4307   25.7479 C   0  0  0  0  0  0
  -27.5581  -37.1809   24.8464 C   0  0  0  0  0  0
  -21.4148  -29.3034   22.3723 N   0  0  0  0  0  0
  -26.4294  -37.3791   23.9409 N   0  0  0  0  0  0
  -24.6708  -31.0766   22.0993 N   0  0  0  0  0  0
  -23.4192  -28.8193   23.3023 O   0  0  0  0  0  0
  -28.3501  -26.6216   20.1394 O   0  0  0  0  0  0
  -26.5589  -34.8925   22.4687 O   0  0  0  0  0  0
  -23.5352  -32.1423   23.7482 O   0  0  0  0  0  0
  -29.4701  -17.9551   21.0315 C   0  0  0  0  0  0
  -31.7867  -17.2889   21.3402 C   0  0  0  0  0  0
  -29.8312  -19.3339   21.0990 C   0  0  0  0  0  0
  -30.4368  -16.9181   21.1321 C   0  0  0  0  0  0
  -32.1606  -18.6426   21.4107 C   0  0  0  0  0  0
  -31.1968  -19.6610   21.2925 C   0  0  0  0  0  0
  -28.7581  -20.4052   21.0484 C   0  0  0  0  0  0
  -28.8300  -24.1633   20.3838 C   0  0  0  0  0  0
  -28.1729  -22.8103   20.7386 C   0  0  0  0  0  0
  -28.1418  -25.4328   20.9381 C   0  0  0  0  0  0
  -30.0260  -15.5391   21.0629 N   0  0  0  0  0  0
  -29.1011  -21.6628   20.7056 N   0  0  0  0  0  0
  -27.5879  -20.1101   21.3039 O   0  0  0  0  0  0
  -29.8636  -24.2173   19.7076 O   0  0  0  0  0  0
  -33.4610  -18.9675   21.6058 F   0  0  0  0  0  0
  -31.6071  -20.9503   21.3863 F   0  0  0  0  0  0
  -31.4621  -12.3969   19.1293 H   0  0  0  0  0  0
  -30.3081  -11.3102   19.8451 H   0  0  0  0  0  0
  -29.7365  -11.7677   17.4385 H   0  0  0  0  0  0
  -29.6600  -13.4818   17.7641 H   0  0  0  0  0  0
  -27.8312  -11.3046   18.8320 H   0  0  0  0  0  0
  -27.3636  -12.6209   17.7895 H   0  0  0  0  0  0
  -27.6940  -14.2552   19.5564 H   0  0  0  0  0  0
  -28.6799  -11.9986   21.3685 H   0  0  0  0  0  0
  -28.4652  -13.6530   21.8558 H   0  0  0  0  0  0
  -25.2762   -9.5686   22.4755 H   0  0  0  0  0  0
  -24.0005   -7.4634   22.7471 H   0  0  0  0  0  0
  -21.0838   -8.8767   19.8953 H   0  0  0  0  0  0
  -22.3689  -10.9671   19.6161 H   0  0  0  0  0  0
  -21.2005   -7.6149   23.9715 H   0  0  0  0  0  0
  -21.1480   -6.0525   25.9078 H   0  0  0  0  0  0
  -22.0599   -2.7610   23.2845 H   0  0  0  0  0  0
  -22.4111  -11.9892   22.4789 H   0  0  0  0  0  0
  -21.1113  -13.1257   22.2609 H   0  0  0  0  0  0
  -24.6629  -15.8444   20.5139 H   0  0  0  0  0  0
  -26.2793  -15.6252   20.0741 H   0  0  0  0  0  0
  -26.7123  -32.5530   23.1160 H   0  0  0  0  0  0
  -25.0067  -33.9780   25.0483 H   0  0  0  0  0  0
  -22.6943  -31.3076   21.4111 H   0  0  0  0  0  0
  -23.3747  -35.9648   23.3307 H   0  0  0  0  0  0
  -24.3584  -36.8915   22.2050 H   0  0  0  0  0  0
  -23.7243  -37.6524   23.6643 H   0  0  0  0  0  0
  -26.0480  -31.5977   20.5950 H   0  0  0  0  0  0
  -26.8234  -30.8848   21.9809 H   0  0  0  0  0  0
  -28.1049  -29.0883   21.1703 H   0  0  0  0  0  0
  -26.0528  -25.9675   19.0131 H   0  0  0  0  0  0
  -23.9768  -27.3012   19.0264 H   0  0  0  0  0  0
  -23.7218  -30.6001   19.4040 H   0  0  0  0  0  0
  -22.7383  -29.2443   19.8680 H   0  0  0  0  0  0
  -25.1285  -36.1974   25.0833 H   0  0  0  0  0  0
  -20.9959  -28.3230   24.1436 H   0  0  0  0  0  0
  -20.5674  -26.2271   23.3602 H   0  0  0  0  0  0
  -21.6636  -26.7450   22.1207 H   0  0  0  0  0  0
  -19.6904  -25.6304   21.1230 H   0  0  0  0  0  0
  -19.6683  -27.3213   20.6753 H   0  0  0  0  0  0
  -17.4196  -26.6678   21.4022 H   0  0  0  0  0  0
  -18.0317  -26.0069   22.9018 H   0  0  0  0  0  0
  -19.7928  -30.7259   24.2283 H   0  0  0  0  0  0
  -17.5010  -31.6266   24.5167 H   0  0  0  0  0  0
  -15.5345  -30.2993   23.7648 H   0  0  0  0  0  0
  -15.8662  -28.0830   22.7052 H   0  0  0  0  0  0
  -24.5912  -30.7052   25.7811 H   0  0  0  0  0  0
  -24.8938  -32.2859   26.4927 H   0  0  0  0  0  0
  -25.8100  -30.8867   27.0222 H   0  0  0  0  0  0
  -26.2838  -29.6800   24.1148 H   0  0  0  0  0  0
  -27.4077  -29.7264   25.4537 H   0  0  0  0  0  0
  -27.8670  -30.4354   23.9230 H   0  0  0  0  0  0
  -27.2685  -33.3600   26.2084 H   0  0  0  0  0  0
  -28.3852  -32.6877   25.0294 H   0  0  0  0  0  0
  -28.0740  -31.8411   26.5369 H   0  0  0  0  0  0
  -28.2606  -38.0101   24.7512 H   0  0  0  0  0  0
  -28.1071  -36.2634   24.6289 H   0  0  0  0  0  0
  -27.2302  -37.1460   25.8868 H   0  0  0  0  0  0
  -20.9311  -29.8758   21.6947 H   0  0  0  0  0  0
  -26.0183  -38.2870   24.1410 H   0  0  0  0  0  0
  -28.4289  -17.6941   20.8991 H   0  0  0  0  0  0
  -32.5614  -16.5465   21.4581 H   0  0  0  0  0  0
  -27.3529  -22.6373   20.0408 H   0  0  0  0  0  0
  -27.7316  -22.8877   21.7335 H   0  0  0  0  0  0
  -28.5323  -25.6211   21.9382 H   0  0  0  0  0  0
  -27.0820  -25.2087   21.0645 H   0  0  0  0  0  0
  -29.0668  -15.3394   21.3029 H   0  0  0  0  0  0
  -30.0716  -21.8588   20.4936 H   0  0  0  0  0  0
  1 25  1  0  0  0
  1 30  2  0  0  0
  1 81  1  0  0  0
  2  3  1  0  0  0
  2 25  1  0  0  0
  2 87  1  0  0  0
  2 88  1  0  0  0
  3  4  1  0  0  0
  3 89  1  0  0  0
  3 90  1  0  0  0
  4  5  1  0  0  0
  4 91  1  0  0  0
  4 92  1  0  0  0
  5  6  1  0  0  0
  5 26  1  0  0  0
  5 93  1  0  0  0
  6 25  1  0  0  0
  6 94  1  0  0  0
  6 95  1  0  0  0
  7  8  2  0  0  0
  7 26  1  0  0  0
  7 29  1  0  0  0
  8  9  1  0  0  0
  8 22  1  0  0  0
  9 10  1  0  0  0
  9 27  2  0  0  0
 10 11  2  0  0  0
 10 15  1  0  0  0
 11 12  1  0  0  0
 11 96  1  0  0  0
 12 13  2  0  0  0
 12 97  1  0  0  0
 13 14  1  0  0  0
 13 31  1  0  0  0
 14 15  2  0  0  0
 14 98  1  0  0  0
 15 99  1  0  0  0
 16 17  2  0  0  0
 16 21  1  0  0  0
 16 31  1  0  0  0
 17 18  1  0  0  0
 17100  1  0  0  0
 18 19  2  0  0  0
 18101  1  0  0  0
 19 20  1  0  0  0
 19 24  1  0  0  0
 20 21  2  0  0  0
 20102  1  0  0  0
 21 23  1  0  0  0
 22 28  1  0  0  0
 22 32  2  0  0  0
 26 27  1  0  0  0
 28103  1  0  0  0
 28104  1  0  0  0
 29105  1  0  0  0
 29106  1  0  0  0
 33 34  1  0  0  0
 33 66  1  0  0  0
 33 70  2  0  0  0
 34 36  1  0  0  0
 34 59  1  0  0  0
 34107  1  0  0  0
 35 44  2  0  0  0
 35 45  1  0  0  0
 35 68  1  0  0  0
 36 56  1  0  0  0
 36108  1  0  0  0
 37 39  1  0  0  0
 37 47  1  0  0  0
 37 66  1  0  0  0
 37109  1  0  0  0
 38 43  2  0  0  0
 38 46  1  0  0  0
 38 47  1  0  0  0
 39 64  1  0  0  0
 39 67  2  0  0  0
 40 52  1  0  0  0
 40 53  2  0  0  0
 40 58  1  0  0  0
 41110  1  0  0  0
 41111  1  0  0  0
 41112  1  0  0  0
 41 48  1  0  0  0
 42 43  1  0  0  0
 42 66  1  0  0  0
 42113  1  0  0  0
 42114  1  0  0  0
 43 44  1  0  0  0
 44115  1  0  0  0
 45 46  2  0  0  0
 45116  1  0  0  0
 46117  1  0  0  0
 47118  1  0  0  0
 47119  1  0  0  0
 48 56  1  0  0  0
 48 65  1  0  0  0
 48120  1  0  0  0
 49 50  1  0  0  0
 49 53  1  0  0  0
 49 64  1  0  0  0
 49121  1  0  0  0
 50 51  1  0  0  0
 50122  1  0  0  0
 50123  1  0  0  0
 51 52  1  0  0  0
 51124  1  0  0  0
 51125  1  0  0  0
 52126  1  0  0  0
 52127  1  0  0  0
 53 54  1  0  0  0
 54 55  2  0  0  0
 54128  1  0  0  0
 55 57  1  0  0  0
 55129  1  0  0  0
 56 69  2  0  0  0
 57 58  2  0  0  0
 57130  1  0  0  0
 58131  1  0  0  0
 59 60  1  0  0  0
 59 61  1  0  0  0
 59 62  1  0  0  0
 60132  1  0  0  0
 60133  1  0  0  0
 60134  1  0  0  0
 61135  1  0  0  0
 61136  1  0  0  0
 61137  1  0  0  0
 62138  1  0  0  0
 62139  1  0  0  0
 62140  1  0  0  0
 63 65  1  0  0  0
 63141  1  0  0  0
 63142  1  0  0  0
 63143  1  0  0  0
 64144  1  0  0  0
 65145  1  0  0  0
 68 80  1  0  0  0
 71 73  2  0  0  0
 71 74  1  0  0  0
 71146  1  0  0  0
 72 74  2  0  0  0
 72 75  1  0  0  0
 72147  1  0  0  0
 73 76  1  0  0  0
 73 77  1  0  0  0
 74 81  1  0  0  0
 75 76  2  0  0  0
 75 85  1  0  0  0
 76 86  1  0  0  0
 77 82  1  0  0  0
 77 83  2  0  0  0
 78 79  1  0  0  0
 78 80  1  0  0  0
 78 84  2  0  0  0
 79 82  1  0  0  0
 79148  1  0  0  0
 79149  1  0  0  0
 80150  1  0  0  0
 80151  1  0  0  0
 81152  1  0  0  0
 82153  1  0  0  0
M  ISO  4   1 100  68 101  80 101  81 100
M  END
> <chiral flag>
0

> <version>
0

> <s_m_source_file>
/data/baiqing/PycharmProjects/Reinvent-master-3.2/result/LINK_invent/BTK/process_docking_weight1_custom_product_contain_oxygen_bond_distance_aromatic_linkinvent_7_9_3/rearranged_h_0168.sdf

> <i_m_source_file_index>
80

> <r_mmod_Potential_Energy-OPLS-2005>
-129.997436523438

> <r_mmod_Stretch_Energy-OPLS-2005>
42.5711555480957

> <r_mmod_Bend_Energy-OPLS-2005>
95.2241821289062

> <r_mmod_Torsional_Energy-OPLS-2005>
244.231857299805

> <r_mmod_Improper_Torsional_Energy-OPLS-2005>
4.08422517776489

> <r_mmod_Van_der_Waal_Energy-OPLS-2005>
159.608795166016

> <r_mmod_Electrostatic_Energy-OPLS-2005>
-458.191680908203

> <r_mmod_Solvation_Energy-OPLS-2005>
-234.742126464844

> <b_mmod_Minimization_Converged-OPLS-2005>
0

> <r_mmod_RMS_Derivative-OPLS-2005>
0.526545405387878

$$$$
80
                    3D
 Structure written by MMmdl.
157165  0  0  1  0            999 V2000
  -30.6702  -14.5445   20.4874 C   0  0  0  0  0  0
  -30.4299  -12.3251   19.4386 C   0  0  0  0  0  0
  -29.5096  -12.5031   18.2113 C   0  0  0  0  0  0
  -28.0263  -12.3683   18.6163 C   0  0  0  0  0  0
  -27.6603  -13.2169   19.8648 C   0  0  2  0  0  0
  -28.7028  -13.0350   20.9928 C   0  0  0  0  0  0
  -25.2602  -13.8163   20.5646 C   0  0  0  0  0  0
  -24.1860  -13.0450   20.9188 C   0  0  0  0  0  0
  -24.6426  -11.6921   20.8748 C   0  0  0  0  0  0
  -23.9116  -10.4299   21.0410 C   0  0  0  0  0  0
  -24.3659   -9.4211   21.9182 C   0  0  0  0  0  0
  -23.6325   -8.2245   22.0739 C   0  0  0  0  0  0
  -22.4295   -8.0303   21.3546 C   0  0  0  0  0  0
  -21.9952   -9.0285   20.4654 C   0  0  0  0  0  0
  -22.7302  -10.2146   20.3061 C   0  0  0  0  0  0
  -21.6862   -6.0757   22.5297 C   0  0  0  0  0  0
  -21.4015   -6.5647   23.8232 C   0  0  0  0  0  0
  -21.3649   -5.6789   24.9189 C   0  0  0  0  0  0
  -21.6039   -4.3047   24.7226 C   0  0  0  0  0  0
  -21.8815   -3.8154   23.4337 C   0  0  0  0  0  0
  -21.9184   -4.6986   22.3406 C   0  0  0  0  0  0
  -22.7874  -13.5259   21.1849 C   0  0  0  0  0  0
  -22.1671   -4.2185   21.0981 F   0  0  0  0  0  0
  -21.5625   -3.4522   25.7734 F   0  0  0  0  0  0
  -30.0310  -13.3371   20.4339 N   0  0  0  0  0  0
  -26.3045  -12.9358   20.3320 N   0  0  0  0  0  0
  -25.9353  -11.6508   20.5740 N   0  0  0  0  0  0
  -22.0466  -12.8290   22.0398 N   0  0  0  0  0  0
  -25.4313  -15.1874   20.4027 N   0  0  0  0  0  0
  -31.8321  -14.6885   20.0958 O   0  0  0  0  0  0
  -21.6650   -6.8904   21.4253 O   0  0  0  0  0  0
  -22.3595  -14.5596   20.6739 O   0  0  0  0  0  0
  -24.6216  -31.8630   23.2072 C   0  0  0  0  0  0
  -25.9082  -32.4787   23.8369 C   0  0  1  0  0  0
  -27.2224  -27.3577   20.0902 C   0  0  0  0  0  0
  -25.5918  -33.8590   24.2296 N   0  0  0  0  0  0
  -23.4095  -30.4897   21.5496 C   0  0  2  0  0  0
  -24.8492  -28.9469   20.1120 C   0  0  0  0  0  0
  -22.7445  -29.4647   22.4958 C   0  0  0  0  0  0
  -18.0285  -28.1376   22.8489 C   0  0  0  0  0  0
  -24.1481  -36.7307   23.2636 C   0  0  0  0  0  0
  -25.9468  -30.8012   21.3712 C   0  0  0  0  0  0
  -26.0145  -29.4331   20.7136 C   0  0  0  0  0  0
  -27.1990  -28.6463   20.6997 C   0  0  0  0  0  0
  -26.0242  -26.9020   19.4903 C   0  0  0  0  0  0
  -24.8504  -27.6809   19.5027 C   0  0  0  0  0  0
  -23.6197  -29.8281   20.1621 C   0  0  0  0  0  0
  -25.4101  -36.3081   24.0327 C   0  0  1  0  0  0
  -20.5878  -28.3677   23.1289 C   0  0  2  0  0  0
  -20.6771  -26.9401   22.5409 C   0  0  0  0  0  0
  -19.5744  -26.6376   21.5208 C   0  0  0  0  0  0
  -18.1927  -26.7920   22.1625 C   0  0  0  0  0  0
  -19.1539  -28.8843   23.2880 C   0  0  0  0  0  0
  -18.9474  -30.1451   23.8891 C   0  0  0  0  0  0
  -17.6475  -30.6579   24.0570 C   0  0  0  0  0  0
  -25.9045  -34.9451   23.5116 C   0  0  0  0  0  0
  -16.5366  -29.9078   23.6329 C   0  0  0  0  0  0
  -16.7276  -28.6499   23.0343 C   0  0  0  0  0  0
  -26.4479  -31.6589   25.0730 C   0  0  0  0  0  0
  -25.3741  -31.3755   26.1489 C   0  0  0  0  0  0
  -27.0321  -30.3018   24.6161 C   0  0  0  0  0  0
  -27.6010  -32.4351   25.7517 C   0  0  0  0  0  0
  -27.5576  -37.1812   24.8463 C   0  0  0  0  0  0
  -21.4166  -29.3035   22.3688 N   0  0  0  0  0  0
  -26.4288  -37.3776   23.9413 N   0  0  0  0  0  0
  -24.6781  -31.0671   22.0999 N   0  0  0  0  0  0
  -23.4187  -28.8179   23.3019 O   0  0  0  0  0  0
  -28.3974  -26.6032   20.1256 O   0  0  0  0  0  0
  -26.5607  -34.8915   22.4678 O   0  0  0  0  0  0
  -23.5400  -32.1423   23.7426 O   0  0  0  0  0  0
  -29.2108  -17.8405   17.9229 C   0  0  0  0  0  0
  -29.3618  -16.7031   18.7302 C   0  0  0  0  0  0
  -29.5295  -19.1153   18.4417 C   0  0  0  0  0  0
  -29.8060  -16.8302   20.0609 C   0  0  0  0  0  0
  -29.9341  -19.1859   19.7989 C   0  0  0  0  0  0
  -29.5459  -22.8187   20.0082 C   0  0  0  0  0  0
  -28.8184  -24.1265   20.5346 C   0  0  0  0  0  0
  -28.7778  -20.2926   16.3710 C   0  0  0  0  0  0
  -29.3157  -21.4346   20.6922 C   0  0  0  0  0  0
  -28.5021  -25.2705   19.5216 C   0  0  0  0  0  0
  -30.0397  -18.0762   20.5874 N   0  0  0  0  0  0
  -29.4867  -20.2783   17.6471 N   0  0  0  0  0  0
  -29.9032  -15.6130   20.8206 N   0  0  0  0  0  0
  -30.3438  -20.4221   20.3457 N   0  0  0  0  0  0
  -30.3480  -22.8833   19.0656 O   0  0  0  0  0  0
  -28.5262  -24.2413   21.7330 O   0  0  0  0  0  0
  -31.4785  -12.4118   19.1469 H   0  0  0  0  0  0
  -30.3204  -11.3240   19.8553 H   0  0  0  0  0  0
  -29.7556  -11.7707   17.4431 H   0  0  0  0  0  0
  -29.6863  -13.4777   17.7558 H   0  0  0  0  0  0
  -27.8304  -11.3150   18.8135 H   0  0  0  0  0  0
  -27.3857  -12.6454   17.7764 H   0  0  0  0  0  0
  -27.6911  -14.2594   19.5478 H   0  0  0  0  0  0
  -28.6814  -12.0121   21.3699 H   0  0  0  0  0  0
  -28.4680  -13.6737   21.8463 H   0  0  0  0  0  0
  -25.2788   -9.5713   22.4776 H   0  0  0  0  0  0
  -24.0038   -7.4636   22.7460 H   0  0  0  0  0  0
  -21.0867   -8.8836   19.8980 H   0  0  0  0  0  0
  -22.3762  -10.9700   19.6176 H   0  0  0  0  0  0
  -21.2025   -7.6150   23.9762 H   0  0  0  0  0  0
  -21.1477   -6.0506   25.9101 H   0  0  0  0  0  0
  -22.0600   -2.7620   23.2829 H   0  0  0  0  0  0
  -22.4027  -11.9971   22.4867 H   0  0  0  0  0  0
  -21.1070  -13.1351   22.2509 H   0  0  0  0  0  0
  -24.6583  -15.8373   20.5030 H   0  0  0  0  0  0
  -26.2757  -15.6255   20.0588 H   0  0  0  0  0  0
  -26.7147  -32.5442   23.1112 H   0  0  0  0  0  0
  -25.0062  -33.9757   25.0432 H   0  0  0  0  0  0
  -22.6990  -31.3088   21.4151 H   0  0  0  0  0  0
  -23.3734  -35.9660   23.3306 H   0  0  0  0  0  0
  -24.3570  -36.8927   22.2057 H   0  0  0  0  0  0
  -23.7277  -37.6523   23.6659 H   0  0  0  0  0  0
  -26.0747  -31.5655   20.6028 H   0  0  0  0  0  0
  -26.8281  -30.8445   21.9997 H   0  0  0  0  0  0
  -28.0958  -29.0193   21.1708 H   0  0  0  0  0  0
  -25.9350  -25.9399   19.0109 H   0  0  0  0  0  0
  -23.9469  -27.3000   19.0475 H   0  0  0  0  0  0
  -23.7417  -30.6080   19.4094 H   0  0  0  0  0  0
  -22.7362  -29.2650   19.8561 H   0  0  0  0  0  0
  -25.1280  -36.1939   25.0825 H   0  0  0  0  0  0
  -20.9968  -28.3256   24.1412 H   0  0  0  0  0  0
  -20.5668  -26.2297   23.3614 H   0  0  0  0  0  0
  -21.6643  -26.7430   22.1216 H   0  0  0  0  0  0
  -19.6894  -25.6283   21.1247 H   0  0  0  0  0  0
  -19.6670  -27.3179   20.6728 H   0  0  0  0  0  0
  -17.4196  -26.6673   21.4023 H   0  0  0  0  0  0
  -18.0319  -26.0060   22.9021 H   0  0  0  0  0  0
  -19.7952  -30.7266   24.2241 H   0  0  0  0  0  0
  -17.5039  -31.6253   24.5172 H   0  0  0  0  0  0
  -15.5366  -30.2988   23.7644 H   0  0  0  0  0  0
  -15.8682  -28.0823   22.7044 H   0  0  0  0  0  0
  -24.5853  -30.7153   25.7862 H   0  0  0  0  0  0
  -24.9010  -32.2949   26.4950 H   0  0  0  0  0  0
  -25.8082  -30.8919   27.0248 H   0  0  0  0  0  0
  -26.2887  -29.6796   24.1166 H   0  0  0  0  0  0
  -27.4013  -29.7241   25.4644 H   0  0  0  0  0  0
  -27.8752  -30.4309   23.9370 H   0  0  0  0  0  0
  -27.2537  -33.3615   26.2109 H   0  0  0  0  0  0
  -28.3801  -32.6994   25.0352 H   0  0  0  0  0  0
  -28.0695  -31.8500   26.5444 H   0  0  0  0  0  0
  -28.2583  -38.0109   24.7487 H   0  0  0  0  0  0
  -28.1066  -36.2644   24.6284 H   0  0  0  0  0  0
  -27.2298  -37.1462   25.8864 H   0  0  0  0  0  0
  -20.9334  -29.8794   21.6947 H   0  0  0  0  0  0
  -26.0158  -38.2853   24.1408 H   0  0  0  0  0  0
  -28.8833  -17.7062   16.9022 H   0  0  0  0  0  0
  -29.1471  -15.7377   18.3001 H   0  0  0  0  0  0
  -28.8843  -21.2692   15.8980 H   0  0  0  0  0  0
  -27.7118  -20.1052   16.5113 H   0  0  0  0  0  0
  -29.1698  -19.5517   15.6709 H   0  0  0  0  0  0
  -28.3254  -21.0789   20.4049 H   0  0  0  0  0  0
  -29.3007  -21.5705   21.7736 H   0  0  0  0  0  0
  -27.6205  -24.9605   18.9688 H   0  0  0  0  0  0
  -29.3046  -25.3023   18.7818 H   0  0  0  0  0  0
  -29.7959  -21.1691   18.0330 H   0  0  0  0  0  0
  -29.0529  -15.3557   21.2941 H   0  0  0  0  0  0
  -30.9535  -20.8826   19.6743 H   0  0  0  0  0  0
  1 25  1  0  0  0
  1 30  2  0  0  0
  1 83  1  0  0  0
  2  3  1  0  0  0
  2 25  1  0  0  0
  2 87  1  0  0  0
  2 88  1  0  0  0
  3  4  1  0  0  0
  3 89  1  0  0  0
  3 90  1  0  0  0
  4  5  1  0  0  0
  4 91  1  0  0  0
  4 92  1  0  0  0
  5  6  1  0  0  0
  5 26  1  0  0  0
  5 93  1  0  0  0
  6 25  1  0  0  0
  6 94  1  0  0  0
  6 95  1  0  0  0
  7  8  2  0  0  0
  7 26  1  0  0  0
  7 29  1  0  0  0
  8  9  1  0  0  0
  8 22  1  0  0  0
  9 10  1  0  0  0
  9 27  2  0  0  0
 10 11  2  0  0  0
 10 15  1  0  0  0
 11 12  1  0  0  0
 11 96  1  0  0  0
 12 13  2  0  0  0
 12 97  1  0  0  0
 13 14  1  0  0  0
 13 31  1  0  0  0
 14 15  2  0  0  0
 14 98  1  0  0  0
 15 99  1  0  0  0
 16 17  2  0  0  0
 16 21  1  0  0  0
 16 31  1  0  0  0
 17 18  1  0  0  0
 17100  1  0  0  0
 18 19  2  0  0  0
 18101  1  0  0  0
 19 20  1  0  0  0
 19 24  1  0  0  0
 20 21  2  0  0  0
 20102  1  0  0  0
 21 23  1  0  0  0
 22 28  1  0  0  0
 22 32  2  0  0  0
 26 27  1  0  0  0
 28103  1  0  0  0
 28104  1  0  0  0
 29105  1  0  0  0
 29106  1  0  0  0
 33 34  1  0  0  0
 33 66  1  0  0  0
 33 70  2  0  0  0
 34 36  1  0  0  0
 34 59  1  0  0  0
 34107  1  0  0  0
 35 44  2  0  0  0
 35 45  1  0  0  0
 35 68  1  0  0  0
 36 56  1  0  0  0
 36108  1  0  0  0
 37 39  1  0  0  0
 37 47  1  0  0  0
 37 66  1  0  0  0
 37109  1  0  0  0
 38 43  2  0  0  0
 38 46  1  0  0  0
 38 47  1  0  0  0
 39 64  1  0  0  0
 39 67  2  0  0  0
 40 52  1  0  0  0
 40 53  2  0  0  0
 40 58  1  0  0  0
 41110  1  0  0  0
 41111  1  0  0  0
 41112  1  0  0  0
 41 48  1  0  0  0
 42 43  1  0  0  0
 42 66  1  0  0  0
 42113  1  0  0  0
 42114  1  0  0  0
 43 44  1  0  0  0
 44115  1  0  0  0
 45 46  2  0  0  0
 45116  1  0  0  0
 46117  1  0  0  0
 47118  1  0  0  0
 47119  1  0  0  0
 48 56  1  0  0  0
 48 65  1  0  0  0
 48120  1  0  0  0
 49 50  1  0  0  0
 49 53  1  0  0  0
 49 64  1  0  0  0
 49121  1  0  0  0
 50 51  1  0  0  0
 50122  1  0  0  0
 50123  1  0  0  0
 51 52  1  0  0  0
 51124  1  0  0  0
 51125  1  0  0  0
 52126  1  0  0  0
 52127  1  0  0  0
 53 54  1  0  0  0
 54 55  2  0  0  0
 54128  1  0  0  0
 55 57  1  0  0  0
 55129  1  0  0  0
 56 69  2  0  0  0
 57 58  2  0  0  0
 57130  1  0  0  0
 58131  1  0  0  0
 59 60  1  0  0  0
 59 61  1  0  0  0
 59 62  1  0  0  0
 60132  1  0  0  0
 60133  1  0  0  0
 60134  1  0  0  0
 61135  1  0  0  0
 61136  1  0  0  0
 61137  1  0  0  0
 62138  1  0  0  0
 62139  1  0  0  0
 62140  1  0  0  0
 63 65  1  0  0  0
 63141  1  0  0  0
 63142  1  0  0  0
 63143  1  0  0  0
 64144  1  0  0  0
 65145  1  0  0  0
 68 80  1  0  0  0
 71 72  2  0  0  0
 71 73  1  0  0  0
 71146  1  0  0  0
 72 74  1  0  0  0
 72147  1  0  0  0
 73 75  2  0  0  0
 73 82  1  0  0  0
 74 81  2  0  0  0
 74 83  1  0  0  0
 75 81  1  0  0  0
 75 84  1  0  0  0
 76 77  1  0  0  0
 76 79  1  0  0  0
 76 85  2  0  0  0
 77 80  1  0  0  0
 77 86  2  0  0  0
 78 82  1  0  0  0
 78148  1  0  0  0
 78149  1  0  0  0
 78150  1  0  0  0
 79 84  1  0  0  0
 79151  1  0  0  0
 79152  1  0  0  0
 80153  1  0  0  0
 80154  1  0  0  0
 82155  1  0  0  0
 83156  1  0  0  0
 84157  1  0  0  0
M  ISO  4   1 100  68 101  80 101  83 100
M  END
> <chiral flag>
0

> <version>
0

> <s_m_source_file>
/data/baiqing/PycharmProjects/Reinvent-master-3.2/result/LINK_invent/BTK/process_docking_weight1_custom_product_contain_oxygen_bond_distance_aromatic_linkinvent_7_9_3/rearranged_h_0168.sdf

> <i_m_source_file_index>
81

> <r_mmod_Potential_Energy-OPLS-2005>
-133.138702392578

> <r_mmod_Stretch_Energy-OPLS-2005>
58.9973831176758

> <r_mmod_Bend_Energy-OPLS-2005>
132.87532043457

> <r_mmod_Torsional_Energy-OPLS-2005>
266.996398925781

> <r_mmod_Improper_Torsional_Energy-OPLS-2005>
14.0134220123291

> <r_mmod_Van_der_Waal_Energy-OPLS-2005>
149.659851074219

> <r_mmod_Electrostatic_Energy-OPLS-2005>
-503.866485595703

> <r_mmod_Solvation_Energy-OPLS-2005>
-278.615234375

> <b_mmod_Minimization_Converged-OPLS-2005>
0

> <r_mmod_RMS_Derivative-OPLS-2005>
4.26236486434937

$$$$
81
                    3D
 Structure written by MMmdl.
160168  0  0  1  0            999 V2000
  -30.7336  -14.4467   20.5265 C   0  0  0  0  0  0
  -30.4070  -12.2797   19.4305 C   0  0  0  0  0  0
  -29.4888  -12.4775   18.2085 C   0  0  0  0  0  0
  -28.0095  -12.3545   18.6217 C   0  0  0  0  0  0
  -27.6564  -13.2119   19.8674 C   0  0  2  0  0  0
  -28.6987  -13.0264   20.9941 C   0  0  0  0  0  0
  -25.2565  -13.8191   20.5679 C   0  0  0  0  0  0
  -24.1827  -13.0451   20.9194 C   0  0  0  0  0  0
  -24.6389  -11.6921   20.8749 C   0  0  0  0  0  0
  -23.9064  -10.4295   21.0420 C   0  0  0  0  0  0
  -24.3619   -9.4206   21.9192 C   0  0  0  0  0  0
  -23.6294   -8.2241   22.0752 C   0  0  0  0  0  0
  -22.4274   -8.0286   21.3547 C   0  0  0  0  0  0
  -21.9916   -9.0260   20.4646 C   0  0  0  0  0  0
  -22.7241  -10.2143   20.3061 C   0  0  0  0  0  0
  -21.6853   -6.0742   22.5282 C   0  0  0  0  0  0
  -21.4010   -6.5643   23.8217 C   0  0  0  0  0  0
  -21.3656   -5.6795   24.9178 C   0  0  0  0  0  0
  -21.6042   -4.3056   24.7230 C   0  0  0  0  0  0
  -21.8821   -3.8152   23.4348 C   0  0  0  0  0  0
  -21.9191   -4.6969   22.3404 C   0  0  0  0  0  0
  -22.7849  -13.5242   21.1864 C   0  0  0  0  0  0
  -22.1660   -4.2155   21.0979 F   0  0  0  0  0  0
  -21.5630   -3.4536   25.7742 F   0  0  0  0  0  0
  -30.0293  -13.2906   20.4295 N   0  0  0  0  0  0
  -26.2998  -12.9364   20.3345 N   0  0  0  0  0  0
  -25.9313  -11.6522   20.5775 N   0  0  0  0  0  0
  -22.0492  -12.8220   22.0416 N   0  0  0  0  0  0
  -25.4303  -15.1900   20.4071 N   0  0  0  0  0  0
  -31.8999  -14.5315   20.1388 O   0  0  0  0  0  0
  -21.6641   -6.8882   21.4240 O   0  0  0  0  0  0
  -22.3525  -14.5549   20.6715 O   0  0  0  0  0  0
  -24.6125  -31.8697   23.2114 C   0  0  0  0  0  0
  -25.9010  -32.4840   23.8431 C   0  0  1  0  0  0
  -27.2364  -27.4391   20.1022 C   0  0  0  0  0  0
  -25.5856  -33.8635   24.2360 N   0  0  0  0  0  0
  -23.4055  -30.4897   21.5519 C   0  0  2  0  0  0
  -24.8537  -28.9624   20.1095 C   0  0  0  0  0  0
  -22.7438  -29.4640   22.4999 C   0  0  0  0  0  0
  -18.0292  -28.1383   22.8510 C   0  0  0  0  0  0
  -24.1485  -36.7345   23.2642 C   0  0  0  0  0  0
  -25.9320  -30.8354   21.3670 C   0  0  0  0  0  0
  -26.0100  -29.4710   20.7124 C   0  0  0  0  0  0
  -27.2034  -28.7173   20.7035 C   0  0  0  0  0  0
  -26.0663  -26.9527   19.4722 C   0  0  0  0  0  0
  -24.8768  -27.7038   19.4835 C   0  0  0  0  0  0
  -23.6150  -29.8250   20.1656 C   0  0  0  0  0  0
  -25.4092  -36.3130   24.0354 C   0  0  1  0  0  0
  -20.5874  -28.3670   23.1342 C   0  0  2  0  0  0
  -20.6792  -26.9413   22.5428 C   0  0  0  0  0  0
  -19.5756  -26.6397   21.5241 C   0  0  0  0  0  0
  -18.1933  -26.7933   22.1648 C   0  0  0  0  0  0
  -19.1536  -28.8841   23.2929 C   0  0  0  0  0  0
  -18.9464  -30.1446   23.8942 C   0  0  0  0  0  0
  -17.6463  -30.6593   24.0566 C   0  0  0  0  0  0
  -25.9013  -34.9490   23.5161 C   0  0  0  0  0  0
  -16.5355  -29.9094   23.6320 C   0  0  0  0  0  0
  -16.7282  -28.6508   23.0350 C   0  0  0  0  0  0
  -26.4444  -31.6594   25.0741 C   0  0  0  0  0  0
  -25.3716  -31.3669   26.1502 C   0  0  0  0  0  0
  -27.0280  -30.3052   24.6058 C   0  0  0  0  0  0
  -27.6041  -32.4297   25.7489 C   0  0  0  0  0  0
  -27.5592  -37.1805   24.8451 C   0  0  0  0  0  0
  -21.4161  -29.3031   22.3752 N   0  0  0  0  0  0
  -26.4296  -37.3792   23.9405 N   0  0  0  0  0  0
  -24.6682  -31.0791   22.1020 N   0  0  0  0  0  0
  -23.4217  -28.8193   23.3041 O   0  0  0  0  0  0
  -28.3999  -26.7030   20.1823 O   0  0  0  0  0  0
  -26.5588  -34.8937   22.4736 O   0  0  0  0  0  0
  -23.5307  -32.1455   23.7478 O   0  0  0  0  0  0
  -31.3904  -17.3136   19.7541 C   0  0  0  0  0  0
  -30.4772  -16.9051   20.7620 C   0  0  0  0  0  0
  -30.4576  -19.2214   21.6071 C   0  0  0  0  0  0
  -31.8718  -18.6314   19.7047 C   0  0  0  0  0  0
  -29.9700  -17.8859   21.6505 C   0  0  0  0  0  0
  -31.4287  -19.5737   20.6463 C   0  0  0  0  0  0
  -28.9472  -22.3284   21.7991 C   0  0  0  0  0  0
  -26.6209  -25.4121   22.3349 C   0  0  0  0  0  0
  -27.6973  -23.2178   21.8219 C   0  0  0  0  0  0
  -28.7657  -20.8486   22.1910 C   0  0  0  0  0  0
  -28.3116  -25.2726   20.3575 C   0  0  0  0  0  0
  -27.9014  -24.7626   21.7804 C   0  0  1  0  0  0
  -30.0427  -15.5421   20.8981 N   0  0  0  0  0  0
  -30.0415  -20.2093   22.5181 N   0  0  0  0  0  0
  -30.0630  -22.7609   21.4953 O   0  0  0  0  0  0
  -32.7772  -18.9867   18.7610 F   0  0  0  0  0  0
  -29.0379  -17.5272   22.5696 F   0  0  0  0  0  0
  -31.9409  -20.8279   20.6214 F   0  0  0  0  0  0
  -28.8645  -25.0965   22.6432 F   0  0  0  0  0  0
  -31.4534  -12.3487   19.1277 H   0  0  0  0  0  0
  -30.2861  -11.2790   19.8480 H   0  0  0  0  0  0
  -29.7205  -11.7379   17.4409 H   0  0  0  0  0  0
  -29.6681  -13.4547   17.7570 H   0  0  0  0  0  0
  -27.8145  -11.3020   18.8295 H   0  0  0  0  0  0
  -27.3624  -12.6206   17.7843 H   0  0  0  0  0  0
  -27.6921  -14.2539   19.5479 H   0  0  0  0  0  0
  -28.6637  -12.0075   21.3836 H   0  0  0  0  0  0
  -28.4772  -13.6760   21.8423 H   0  0  0  0  0  0
  -25.2765   -9.5693   22.4764 H   0  0  0  0  0  0
  -24.0012   -7.4640   22.7469 H   0  0  0  0  0  0
  -21.0852   -8.8784   19.8951 H   0  0  0  0  0  0
  -22.3702  -10.9688   19.6174 H   0  0  0  0  0  0
  -21.1998   -7.6153   23.9726 H   0  0  0  0  0  0
  -21.1474   -6.0521   25.9085 H   0  0  0  0  0  0
  -22.0600   -2.7614   23.2848 H   0  0  0  0  0  0
  -22.4120  -11.9877   22.4796 H   0  0  0  0  0  0
  -21.1106  -13.1234   22.2630 H   0  0  0  0  0  0
  -24.6699  -15.8510   20.5200 H   0  0  0  0  0  0
  -26.2856  -15.6236   20.0841 H   0  0  0  0  0  0
  -26.7088  -32.5562   23.1213 H   0  0  0  0  0  0
  -24.9935  -33.9787   25.0454 H   0  0  0  0  0  0
  -22.6907  -31.3033   21.4130 H   0  0  0  0  0  0
  -23.3738  -35.9691   23.3273 H   0  0  0  0  0  0
  -24.3590  -36.8980   22.2064 H   0  0  0  0  0  0
  -23.7263  -37.6547   23.6680 H   0  0  0  0  0  0
  -26.0394  -31.5982   20.5944 H   0  0  0  0  0  0
  -26.8217  -30.8934   21.9824 H   0  0  0  0  0  0
  -28.0923  -29.0943   21.1909 H   0  0  0  0  0  0
  -26.0497  -25.9957   18.9745 H   0  0  0  0  0  0
  -23.9911  -27.3078   19.0053 H   0  0  0  0  0  0
  -23.7261  -30.6033   19.4094 H   0  0  0  0  0  0
  -22.7408  -29.2430   19.8697 H   0  0  0  0  0  0
  -25.1255  -36.2027   25.0847 H   0  0  0  0  0  0
  -20.9964  -28.3263   24.1465 H   0  0  0  0  0  0
  -20.5766  -26.2263   23.3603 H   0  0  0  0  0  0
  -21.6648  -26.7509   22.1169 H   0  0  0  0  0  0
  -19.6912  -25.6323   21.1243 H   0  0  0  0  0  0
  -19.6700  -27.3238   20.6799 H   0  0  0  0  0  0
  -17.4210  -26.6713   21.4047 H   0  0  0  0  0  0
  -18.0301  -26.0083   22.9044 H   0  0  0  0  0  0
  -19.7945  -30.7237   24.2351 H   0  0  0  0  0  0
  -17.5030  -31.6283   24.5156 H   0  0  0  0  0  0
  -15.5354  -30.3003   23.7616 H   0  0  0  0  0  0
  -15.8690  -28.0836   22.7034 H   0  0  0  0  0  0
  -24.5907  -30.6997   25.7832 H   0  0  0  0  0  0
  -24.8877  -32.2793   26.4990 H   0  0  0  0  0  0
  -25.8075  -30.8828   27.0249 H   0  0  0  0  0  0
  -26.2827  -29.6809   24.1115 H   0  0  0  0  0  0
  -27.4083  -29.7270   25.4481 H   0  0  0  0  0  0
  -27.8633  -30.4379   23.9182 H   0  0  0  0  0  0
  -27.2699  -33.3599   26.2097 H   0  0  0  0  0  0
  -28.3829  -32.6844   25.0290 H   0  0  0  0  0  0
  -28.0739  -31.8407   26.5367 H   0  0  0  0  0  0
  -28.2559  -38.0149   24.7531 H   0  0  0  0  0  0
  -28.1143  -36.2675   24.6230 H   0  0  0  0  0  0
  -27.2313  -37.1383   25.8853 H   0  0  0  0  0  0
  -20.9344  -29.8736   21.6946 H   0  0  0  0  0  0
  -26.0205  -38.2880   24.1392 H   0  0  0  0  0  0
  -31.7604  -16.6284   19.0071 H   0  0  0  0  0  0
  -25.7810  -25.2673   21.6557 H   0  0  0  0  0  0
  -26.7502  -26.4800   22.5052 H   0  0  0  0  0  0
  -26.3401  -24.9809   23.2955 H   0  0  0  0  0  0
  -27.1624  -22.9512   22.7342 H   0  0  0  0  0  0
  -27.0480  -22.9080   21.0032 H   0  0  0  0  0  0
  -28.2561  -20.3273   21.3792 H   0  0  0  0  0  0
  -28.1097  -20.7927   23.0596 H   0  0  0  0  0  0
  -27.6754  -24.8172   19.6023 H   0  0  0  0  0  0
  -29.3072  -24.8909   20.1316 H   0  0  0  0  0  0
  -29.1385  -15.3961   21.3233 H   0  0  0  0  0  0
  -30.7298  -20.9607   22.5236 H   0  0  0  0  0  0
  1 25  1  0  0  0
  1 30  2  0  0  0
  1 83  1  0  0  0
  2  3  1  0  0  0
  2 25  1  0  0  0
  2 90  1  0  0  0
  2 91  1  0  0  0
  3  4  1  0  0  0
  3 92  1  0  0  0
  3 93  1  0  0  0
  4  5  1  0  0  0
  4 94  1  0  0  0
  4 95  1  0  0  0
  5  6  1  0  0  0
  5 26  1  0  0  0
  5 96  1  0  0  0
  6 25  1  0  0  0
  6 97  1  0  0  0
  6 98  1  0  0  0
  7  8  2  0  0  0
  7 26  1  0  0  0
  7 29  1  0  0  0
  8  9  1  0  0  0
  8 22  1  0  0  0
  9 10  1  0  0  0
  9 27  2  0  0  0
 10 11  2  0  0  0
 10 15  1  0  0  0
 11 12  1  0  0  0
 11 99  1  0  0  0
 12 13  2  0  0  0
 12100  1  0  0  0
 13 14  1  0  0  0
 13 31  1  0  0  0
 14 15  2  0  0  0
 14101  1  0  0  0
 15102  1  0  0  0
 16 17  2  0  0  0
 16 21  1  0  0  0
 16 31  1  0  0  0
 17 18  1  0  0  0
 17103  1  0  0  0
 18 19  2  0  0  0
 18104  1  0  0  0
 19 20  1  0  0  0
 19 24  1  0  0  0
 20 21  2  0  0  0
 20105  1  0  0  0
 21 23  1  0  0  0
 22 28  1  0  0  0
 22 32  2  0  0  0
 26 27  1  0  0  0
 28106  1  0  0  0
 28107  1  0  0  0
 29108  1  0  0  0
 29109  1  0  0  0
 33 34  1  0  0  0
 33 66  1  0  0  0
 33 70  2  0  0  0
 34 36  1  0  0  0
 34 59  1  0  0  0
 34110  1  0  0  0
 35 44  2  0  0  0
 35 45  1  0  0  0
 35 68  1  0  0  0
 36 56  1  0  0  0
 36111  1  0  0  0
 37 39  1  0  0  0
 37 47  1  0  0  0
 37 66  1  0  0  0
 37112  1  0  0  0
 38 43  2  0  0  0
 38 46  1  0  0  0
 38 47  1  0  0  0
 39 64  1  0  0  0
 39 67  2  0  0  0
 40 52  1  0  0  0
 40 53  2  0  0  0
 40 58  1  0  0  0
 41113  1  0  0  0
 41114  1  0  0  0
 41115  1  0  0  0
 41 48  1  0  0  0
 42 43  1  0  0  0
 42 66  1  0  0  0
 42116  1  0  0  0
 42117  1  0  0  0
 43 44  1  0  0  0
 44118  1  0  0  0
 45 46  2  0  0  0
 45119  1  0  0  0
 46120  1  0  0  0
 47121  1  0  0  0
 47122  1  0  0  0
 48 56  1  0  0  0
 48 65  1  0  0  0
 48123  1  0  0  0
 49 50  1  0  0  0
 49 53  1  0  0  0
 49 64  1  0  0  0
 49124  1  0  0  0
 50 51  1  0  0  0
 50125  1  0  0  0
 50126  1  0  0  0
 51 52  1  0  0  0
 51127  1  0  0  0
 51128  1  0  0  0
 52129  1  0  0  0
 52130  1  0  0  0
 53 54  1  0  0  0
 54 55  2  0  0  0
 54131  1  0  0  0
 55 57  1  0  0  0
 55132  1  0  0  0
 56 69  2  0  0  0
 57 58  2  0  0  0
 57133  1  0  0  0
 58134  1  0  0  0
 59 60  1  0  0  0
 59 61  1  0  0  0
 59 62  1  0  0  0
 60135  1  0  0  0
 60136  1  0  0  0
 60137  1  0  0  0
 61138  1  0  0  0
 61139  1  0  0  0
 61140  1  0  0  0
 62141  1  0  0  0
 62142  1  0  0  0
 62143  1  0  0  0
 63 65  1  0  0  0
 63144  1  0  0  0
 63145  1  0  0  0
 63146  1  0  0  0
 64147  1  0  0  0
 65148  1  0  0  0
 68 81  1  0  0  0
 71 72  2  0  0  0
 71 74  1  0  0  0
 71149  1  0  0  0
 72 75  1  0  0  0
 72 83  1  0  0  0
 73 75  2  0  0  0
 73 76  1  0  0  0
 73 84  1  0  0  0
 74 76  2  0  0  0
 74 86  1  0  0  0
 75 87  1  0  0  0
 76 88  1  0  0  0
 77 79  1  0  0  0
 77 80  1  0  0  0
 77 85  2  0  0  0
 78150  1  0  0  0
 78151  1  0  0  0
 78152  1  0  0  0
 78 82  1  0  0  0
 79 82  1  0  0  0
 79153  1  0  0  0
 79154  1  0  0  0
 80 84  1  0  0  0
 80155  1  0  0  0
 80156  1  0  0  0
 81 82  1  0  0  0
 81157  1  0  0  0
 81158  1  0  0  0
 82 89  1  0  0  0
 83159  1  0  0  0
 84160  1  0  0  0
M  ISO  4   1 100  68 101  81 101  83 100
M  END
> <chiral flag>
0

> <version>
0

> <s_m_source_file>
/data/baiqing/PycharmProjects/Reinvent-master-3.2/result/LINK_invent/BTK/process_docking_weight1_custom_product_contain_oxygen_bond_distance_aromatic_linkinvent_7_9_3/rearranged_h_0168.sdf

> <i_m_source_file_index>
82

> <r_mmod_Potential_Energy-OPLS-2005>
16.502721786499

> <r_mmod_Stretch_Energy-OPLS-2005>
39.185417175293

> <r_mmod_Bend_Energy-OPLS-2005>
108.509284973145

> <r_mmod_Torsional_Energy-OPLS-2005>
218.840835571289

> <r_mmod_Improper_Torsional_Energy-OPLS-2005>
10.4804658889771

> <r_mmod_Van_der_Waal_Energy-OPLS-2005>
164.571670532227

> <r_mmod_Electrostatic_Energy-OPLS-2005>
-325.798583984375

> <r_mmod_Solvation_Energy-OPLS-2005>
-218.161987304688

> <b_mmod_Minimization_Converged-OPLS-2005>
0

> <r_mmod_RMS_Derivative-OPLS-2005>
2.31738114356995

$$$$
82
                    3D
 Structure written by MMmdl.
159167  0  0  1  0            999 V2000
  -30.7145  -14.4238   20.6249 C   0  0  0  0  0  0
  -30.4270  -12.2981   19.4018 C   0  0  0  0  0  0
  -29.4945  -12.5197   18.1940 C   0  0  0  0  0  0
  -28.0178  -12.3748   18.6100 C   0  0  0  0  0  0
  -27.6687  -13.1989   19.8776 C   0  0  2  0  0  0
  -28.7070  -12.9445   20.9935 C   0  0  0  0  0  0
  -25.2647  -13.8133   20.5674 C   0  0  0  0  0  0
  -24.1864  -13.0433   20.9134 C   0  0  0  0  0  0
  -24.6386  -11.6893   20.8680 C   0  0  0  0  0  0
  -23.9031  -10.4290   21.0376 C   0  0  0  0  0  0
  -24.3578   -9.4215   21.9164 C   0  0  0  0  0  0
  -23.6255   -8.2247   22.0753 C   0  0  0  0  0  0
  -22.4243   -8.0266   21.3541 C   0  0  0  0  0  0
  -21.9857   -9.0241   20.4651 C   0  0  0  0  0  0
  -22.7181  -10.2129   20.3052 C   0  0  0  0  0  0
  -21.6858   -6.0700   22.5260 C   0  0  0  0  0  0
  -21.4029   -6.5622   23.8185 C   0  0  0  0  0  0
  -21.3661   -5.6787   24.9156 C   0  0  0  0  0  0
  -21.6041   -4.3047   24.7219 C   0  0  0  0  0  0
  -21.8824   -3.8123   23.4349 C   0  0  0  0  0  0
  -21.9199   -4.6926   22.3398 C   0  0  0  0  0  0
  -22.7896  -13.5255   21.1797 C   0  0  0  0  0  0
  -22.1666   -4.2106   21.0976 F   0  0  0  0  0  0
  -21.5618   -3.4541   25.7741 F   0  0  0  0  0  0
  -30.0478  -13.2497   20.4579 N   0  0  0  0  0  0
  -26.3063  -12.9282   20.3351 N   0  0  0  0  0  0
  -25.9319  -11.6450   20.5706 N   0  0  0  0  0  0
  -22.0525  -12.8294   22.0379 N   0  0  0  0  0  0
  -25.4428  -15.1848   20.4132 N   0  0  0  0  0  0
  -31.7808  -14.6855   20.0569 O   0  0  0  0  0  0
  -21.6641   -6.8845   21.4222 O   0  0  0  0  0  0
  -22.3602  -14.5561   20.6638 O   0  0  0  0  0  0
  -24.6139  -31.8708   23.2134 C   0  0  0  0  0  0
  -25.9043  -32.4833   23.8437 C   0  0  1  0  0  0
  -27.2254  -27.4390   20.1070 C   0  0  0  0  0  0
  -25.5894  -33.8625   24.2359 N   0  0  0  0  0  0
  -23.4005  -30.4921   21.5549 C   0  0  2  0  0  0
  -24.8468  -28.9626   20.1167 C   0  0  0  0  0  0
  -22.7418  -29.4647   22.5032 C   0  0  0  0  0  0
  -18.0281  -28.1317   22.8510 C   0  0  0  0  0  0
  -24.1483  -36.7308   23.2644 C   0  0  0  0  0  0
  -25.9288  -30.8368   21.3669 C   0  0  0  0  0  0
  -26.0061  -29.4720   20.7146 C   0  0  0  0  0  0
  -27.2030  -28.7177   20.7070 C   0  0  0  0  0  0
  -26.0544  -26.9447   19.4993 C   0  0  0  0  0  0
  -24.8666  -27.6961   19.5052 C   0  0  0  0  0  0
  -23.6059  -29.8267   20.1679 C   0  0  0  0  0  0
  -25.4096  -36.3117   24.0361 C   0  0  1  0  0  0
  -20.5864  -28.3600   23.1328 C   0  0  2  0  0  0
  -20.6737  -26.9337   22.5409 C   0  0  0  0  0  0
  -19.5729  -26.6349   21.5181 C   0  0  0  0  0  0
  -18.1922  -26.7879   22.1614 C   0  0  0  0  0  0
  -19.1526  -28.8776   23.2924 C   0  0  0  0  0  0
  -18.9449  -30.1383   23.8938 C   0  0  0  0  0  0
  -17.6449  -30.6546   24.0525 C   0  0  0  0  0  0
  -25.9033  -34.9477   23.5156 C   0  0  0  0  0  0
  -16.5336  -29.9038   23.6312 C   0  0  0  0  0  0
  -16.7270  -28.6424   23.0398 C   0  0  0  0  0  0
  -26.4488  -31.6601   25.0744 C   0  0  0  0  0  0
  -25.3751  -31.3659   26.1484 C   0  0  0  0  0  0
  -27.0293  -30.3059   24.6071 C   0  0  0  0  0  0
  -27.6125  -32.4284   25.7445 C   0  0  0  0  0  0
  -27.5605  -37.1783   24.8471 C   0  0  0  0  0  0
  -21.4152  -29.2997   22.3759 N   0  0  0  0  0  0
  -26.4289  -37.3795   23.9449 N   0  0  0  0  0  0
  -24.6651  -31.0809   22.1025 N   0  0  0  0  0  0
  -23.4184  -28.8203   23.3085 O   0  0  0  0  0  0
  -28.3731  -26.6815   20.0989 O   0  0  0  0  0  0
  -26.5610  -34.8923   22.4730 O   0  0  0  0  0  0
  -23.5340  -32.1464   23.7537 O   0  0  0  0  0  0
  -30.6728  -17.5245   22.3075 C   0  0  0  0  0  0
  -29.4090  -18.6976   20.0963 C   0  0  0  0  0  0
  -30.6005  -18.9333   22.2138 C   0  0  0  0  0  0
  -30.1286  -16.6994   21.3073 C   0  0  0  0  0  0
  -29.9370  -19.5466   21.1076 C   0  0  0  0  0  0
  -29.4970  -17.2943   20.1961 C   0  0  0  0  0  0
  -28.2102  -24.2362   20.4502 C   0  0  0  0  0  0
  -29.2070  -21.8129   20.2030 C   0  0  0  0  0  0
  -32.6803  -20.2170   22.8777 C   0  0  0  0  0  0
  -29.4598  -23.3275   20.3911 C   0  0  0  0  0  0
  -28.4009  -25.6309   21.0815 C   0  0  0  0  0  0
  -31.2906  -19.7406   23.3124 C   0  0  1  0  0  0
  -29.8518  -20.9832   21.0560 N   0  0  0  0  0  0
  -30.1387  -15.2884   21.4717 N   0  0  0  0  0  0
  -27.1018  -23.8879   20.0284 O   0  0  0  0  0  0
  -28.5019  -21.4152   19.2723 O   0  0  0  0  0  0
  -28.9464  -16.5147   19.2335 F   0  0  0  0  0  0
  -30.5589  -20.7872   23.6990 F   0  0  0  0  0  0
  -31.4699  -12.4028   19.0949 H   0  0  0  0  0  0
  -30.3286  -11.2761   19.7701 H   0  0  0  0  0  0
  -29.7269  -11.8047   17.4042 H   0  0  0  0  0  0
  -29.6662  -13.5099   17.7673 H   0  0  0  0  0  0
  -27.8301  -11.3162   18.7949 H   0  0  0  0  0  0
  -27.3644  -12.6601   17.7835 H   0  0  0  0  0  0
  -27.7246  -14.2514   19.6018 H   0  0  0  0  0  0
  -28.6761  -11.9003   21.3074 H   0  0  0  0  0  0
  -28.4534  -13.5170   21.8861 H   0  0  0  0  0  0
  -25.2720   -9.5701   22.4734 H   0  0  0  0  0  0
  -23.9954   -7.4660   22.7502 H   0  0  0  0  0  0
  -21.0767   -8.8750   19.8988 H   0  0  0  0  0  0
  -22.3599  -10.9658   19.6167 H   0  0  0  0  0  0
  -21.2044   -7.6137   23.9670 H   0  0  0  0  0  0
  -21.1475   -6.0530   25.9053 H   0  0  0  0  0  0
  -22.0606   -2.7582   23.2872 H   0  0  0  0  0  0
  -22.4107  -11.9966   22.4813 H   0  0  0  0  0  0
  -21.1153  -13.1373   22.2549 H   0  0  0  0  0  0
  -24.6898  -15.8510   20.5444 H   0  0  0  0  0  0
  -26.3062  -15.6170   20.1061 H   0  0  0  0  0  0
  -26.7110  -32.5537   23.1191 H   0  0  0  0  0  0
  -24.9981  -33.9771   25.0466 H   0  0  0  0  0  0
  -22.6870  -31.3065   21.4185 H   0  0  0  0  0  0
  -23.3748  -35.9632   23.3270 H   0  0  0  0  0  0
  -24.3617  -36.8954   22.2071 H   0  0  0  0  0  0
  -23.7190  -37.6487   23.6673 H   0  0  0  0  0  0
  -26.0443  -31.6028   20.5986 H   0  0  0  0  0  0
  -26.8146  -30.8859   21.9878 H   0  0  0  0  0  0
  -28.1001  -29.1045   21.1686 H   0  0  0  0  0  0
  -26.0533  -25.9734   19.0255 H   0  0  0  0  0  0
  -23.9762  -27.2974   19.0390 H   0  0  0  0  0  0
  -23.7075  -30.6009   19.4056 H   0  0  0  0  0  0
  -22.7275  -29.2474   19.8773 H   0  0  0  0  0  0
  -25.1238  -36.1998   25.0848 H   0  0  0  0  0  0
  -20.9963  -28.3118   24.1442 H   0  0  0  0  0  0
  -20.5570  -26.2196   23.3572 H   0  0  0  0  0  0
  -21.6622  -26.7341   22.1239 H   0  0  0  0  0  0
  -19.6878  -25.6264   21.1197 H   0  0  0  0  0  0
  -19.6672  -27.3156   20.6704 H   0  0  0  0  0  0
  -17.4181  -26.6643   21.4024 H   0  0  0  0  0  0
  -18.0345  -25.9981   22.8976 H   0  0  0  0  0  0
  -19.7916  -30.7183   24.2355 H   0  0  0  0  0  0
  -17.4997  -31.6256   24.5071 H   0  0  0  0  0  0
  -15.5338  -30.2940   23.7607 H   0  0  0  0  0  0
  -15.8672  -28.0700   22.7181 H   0  0  0  0  0  0
  -24.5908  -30.7047   25.7775 H   0  0  0  0  0  0
  -24.8926  -32.2774   26.5032 H   0  0  0  0  0  0
  -25.8081  -30.8725   27.0194 H   0  0  0  0  0  0
  -26.2787  -29.6805   24.1210 H   0  0  0  0  0  0
  -27.4183  -29.7322   25.4493 H   0  0  0  0  0  0
  -27.8596  -30.4400   23.9119 H   0  0  0  0  0  0
  -27.2842  -33.3593   26.2079 H   0  0  0  0  0  0
  -28.3875  -32.6827   25.0195 H   0  0  0  0  0  0
  -28.0864  -31.8353   26.5277 H   0  0  0  0  0  0
  -28.2586  -38.0125   24.7604 H   0  0  0  0  0  0
  -28.1142  -36.2664   24.6168 H   0  0  0  0  0  0
  -27.2366  -37.1284   25.8884 H   0  0  0  0  0  0
  -20.9316  -29.8723   21.6977 H   0  0  0  0  0  0
  -26.0190  -38.2881   24.1449 H   0  0  0  0  0  0
  -31.1572  -17.0679   23.1585 H   0  0  0  0  0  0
  -28.9161  -19.0916   19.2225 H   0  0  0  0  0  0
  -33.3235  -19.3668   22.6450 H   0  0  0  0  0  0
  -33.1638  -20.7959   23.6653 H   0  0  0  0  0  0
  -32.6239  -20.8435   21.9879 H   0  0  0  0  0  0
  -30.0572  -23.5009   21.2850 H   0  0  0  0  0  0
  -30.0627  -23.6609   19.5469 H   0  0  0  0  0  0
  -29.3521  -25.6599   21.6134 H   0  0  0  0  0  0
  -27.6238  -25.7753   21.8346 H   0  0  0  0  0  0
  -31.3930  -19.1201   24.2049 H   0  0  0  0  0  0
  -30.3443  -21.4513   21.8078 H   0  0  0  0  0  0
  -29.3693  -14.9104   22.0029 H   0  0  0  0  0  0
  1 25  1  0  0  0
  1 30  2  0  0  0
  1 84  1  0  0  0
  2  3  1  0  0  0
  2 25  1  0  0  0
  2 89  1  0  0  0
  2 90  1  0  0  0
  3  4  1  0  0  0
  3 91  1  0  0  0
  3 92  1  0  0  0
  4  5  1  0  0  0
  4 93  1  0  0  0
  4 94  1  0  0  0
  5  6  1  0  0  0
  5 26  1  0  0  0
  5 95  1  0  0  0
  6 25  1  0  0  0
  6 96  1  0  0  0
  6 97  1  0  0  0
  7  8  2  0  0  0
  7 26  1  0  0  0
  7 29  1  0  0  0
  8  9  1  0  0  0
  8 22  1  0  0  0
  9 10  1  0  0  0
  9 27  2  0  0  0
 10 11  2  0  0  0
 10 15  1  0  0  0
 11 12  1  0  0  0
 11 98  1  0  0  0
 12 13  2  0  0  0
 12 99  1  0  0  0
 13 14  1  0  0  0
 13 31  1  0  0  0
 14 15  2  0  0  0
 14100  1  0  0  0
 15101  1  0  0  0
 16 17  2  0  0  0
 16 21  1  0  0  0
 16 31  1  0  0  0
 17 18  1  0  0  0
 17102  1  0  0  0
 18 19  2  0  0  0
 18103  1  0  0  0
 19 20  1  0  0  0
 19 24  1  0  0  0
 20 21  2  0  0  0
 20104  1  0  0  0
 21 23  1  0  0  0
 22 28  1  0  0  0
 22 32  2  0  0  0
 26 27  1  0  0  0
 28105  1  0  0  0
 28106  1  0  0  0
 29107  1  0  0  0
 29108  1  0  0  0
 33 34  1  0  0  0
 33 66  1  0  0  0
 33 70  2  0  0  0
 34 36  1  0  0  0
 34 59  1  0  0  0
 34109  1  0  0  0
 35 44  2  0  0  0
 35 45  1  0  0  0
 35 68  1  0  0  0
 36 56  1  0  0  0
 36110  1  0  0  0
 37 39  1  0  0  0
 37 47  1  0  0  0
 37 66  1  0  0  0
 37111  1  0  0  0
 38 43  2  0  0  0
 38 46  1  0  0  0
 38 47  1  0  0  0
 39 64  1  0  0  0
 39 67  2  0  0  0
 40 52  1  0  0  0
 40 53  2  0  0  0
 40 58  1  0  0  0
 41112  1  0  0  0
 41113  1  0  0  0
 41114  1  0  0  0
 41 48  1  0  0  0
 42 43  1  0  0  0
 42 66  1  0  0  0
 42115  1  0  0  0
 42116  1  0  0  0
 43 44  1  0  0  0
 44117  1  0  0  0
 45 46  2  0  0  0
 45118  1  0  0  0
 46119  1  0  0  0
 47120  1  0  0  0
 47121  1  0  0  0
 48 56  1  0  0  0
 48 65  1  0  0  0
 48122  1  0  0  0
 49 50  1  0  0  0
 49 53  1  0  0  0
 49 64  1  0  0  0
 49123  1  0  0  0
 50 51  1  0  0  0
 50124  1  0  0  0
 50125  1  0  0  0
 51 52  1  0  0  0
 51126  1  0  0  0
 51127  1  0  0  0
 52128  1  0  0  0
 52129  1  0  0  0
 53 54  1  0  0  0
 54 55  2  0  0  0
 54130  1  0  0  0
 55 57  1  0  0  0
 55131  1  0  0  0
 56 69  2  0  0  0
 57 58  2  0  0  0
 57132  1  0  0  0
 58133  1  0  0  0
 59 60  1  0  0  0
 59 61  1  0  0  0
 59 62  1  0  0  0
 60134  1  0  0  0
 60135  1  0  0  0
 60136  1  0  0  0
 61137  1  0  0  0
 61138  1  0  0  0
 61139  1  0  0  0
 62140  1  0  0  0
 62141  1  0  0  0
 62142  1  0  0  0
 63 65  1  0  0  0
 63143  1  0  0  0
 63144  1  0  0  0
 63145  1  0  0  0
 64146  1  0  0  0
 65147  1  0  0  0
 68 81  1  0  0  0
 71 73  2  0  0  0
 71 74  1  0  0  0
 71148  1  0  0  0
 72 75  2  0  0  0
 72 76  1  0  0  0
 72149  1  0  0  0
 73 75  1  0  0  0
 73 82  1  0  0  0
 74 76  2  0  0  0
 74 84  1  0  0  0
 75 83  1  0  0  0
 76 87  1  0  0  0
 77 80  1  0  0  0
 77 81  1  0  0  0
 77 85  2  0  0  0
 78 80  1  0  0  0
 78 83  1  0  0  0
 78 86  2  0  0  0
 79150  1  0  0  0
 79151  1  0  0  0
 79152  1  0  0  0
 79 82  1  0  0  0
 80153  1  0  0  0
 80154  1  0  0  0
 81155  1  0  0  0
 81156  1  0  0  0
 82 88  1  0  0  0
 82157  1  0  0  0
 83158  1  0  0  0
 84159  1  0  0  0
M  ISO  4   1 100  68 101  81 101  84 100
M  END
> <chiral flag>
0

> <version>
0

> <s_m_source_file>
/data/baiqing/PycharmProjects/Reinvent-master-3.2/result/LINK_invent/BTK/process_docking_weight1_custom_product_contain_oxygen_bond_distance_aromatic_linkinvent_7_9_3/rearranged_h_0168.sdf

> <i_m_source_file_index>
83

> <r_mmod_Potential_Energy-OPLS-2005>
-91.6065902709961

> <r_mmod_Stretch_Energy-OPLS-2005>
39.8229560852051

> <r_mmod_Bend_Energy-OPLS-2005>
104.324638366699

> <r_mmod_Torsional_Energy-OPLS-2005>
281.175201416016

> <r_mmod_Improper_Torsional_Energy-OPLS-2005>
4.22180366516113

> <r_mmod_Van_der_Waal_Energy-OPLS-2005>
154.720458984375

> <r_mmod_Electrostatic_Energy-OPLS-2005>
-437.194671630859

> <r_mmod_Solvation_Energy-OPLS-2005>
-247.981094360352

> <b_mmod_Minimization_Converged-OPLS-2005>
0

> <r_mmod_RMS_Derivative-OPLS-2005>
3.13693761825562

$$$$
83
                    3D
 Structure written by MMmdl.
156164  0  0  1  0            999 V2000
  -30.6182  -14.7315   20.4434 C   0  0  0  0  0  0
  -30.4307  -12.4412   19.4842 C   0  0  0  0  0  0
  -29.5124  -12.4938   18.2438 C   0  0  0  0  0  0
  -28.0379  -12.3202   18.6531 C   0  0  0  0  0  0
  -27.6418  -13.2273   19.8467 C   0  0  2  0  0  0
  -28.6836  -13.1640   20.9866 C   0  0  0  0  0  0
  -25.2507  -13.8195   20.5683 C   0  0  0  0  0  0
  -24.1795  -13.0447   20.9200 C   0  0  0  0  0  0
  -24.6370  -11.6909   20.8740 C   0  0  0  0  0  0
  -23.9041  -10.4294   21.0396 C   0  0  0  0  0  0
  -24.3594   -9.4208   21.9176 C   0  0  0  0  0  0
  -23.6263   -8.2241   22.0750 C   0  0  0  0  0  0
  -22.4261   -8.0265   21.3529 C   0  0  0  0  0  0
  -21.9901   -9.0232   20.4641 C   0  0  0  0  0  0
  -22.7216  -10.2115   20.3039 C   0  0  0  0  0  0
  -21.6873   -6.0709   22.5278 C   0  0  0  0  0  0
  -21.4008   -6.5617   23.8201 C   0  0  0  0  0  0
  -21.3652   -5.6782   24.9169 C   0  0  0  0  0  0
  -21.6071   -4.3052   24.7250 C   0  0  0  0  0  0
  -21.8808   -3.8121   23.4376 C   0  0  0  0  0  0
  -21.9187   -4.6930   22.3416 C   0  0  0  0  0  0
  -22.7819  -13.5227   21.1858 C   0  0  0  0  0  0
  -22.1665   -4.2117   21.0993 F   0  0  0  0  0  0
  -21.5628   -3.4535   25.7763 F   0  0  0  0  0  0
  -29.9926  -13.5054   20.4157 N   0  0  0  0  0  0
  -26.2928  -12.9384   20.3248 N   0  0  0  0  0  0
  -25.9301  -11.6536   20.5728 N   0  0  0  0  0  0
  -22.0473  -12.8191   22.0416 N   0  0  0  0  0  0
  -25.4202  -15.1926   20.4128 N   0  0  0  0  0  0
  -31.8015  -14.8174   20.1012 O   0  0  0  0  0  0
  -21.6627   -6.8853   21.4235 O   0  0  0  0  0  0
  -22.3512  -14.5560   20.6741 O   0  0  0  0  0  0
  -24.6303  -31.8499   23.2007 C   0  0  0  0  0  0
  -25.9139  -32.4714   23.8327 C   0  0  1  0  0  0
  -27.2151  -27.2629   20.1274 C   0  0  0  0  0  0
  -25.5944  -33.8515   24.2207 N   0  0  0  0  0  0
  -23.4293  -30.4690   21.5488 C   0  0  2  0  0  0
  -24.8778  -28.9360   20.0971 C   0  0  0  0  0  0
  -22.7539  -29.4471   22.4959 C   0  0  0  0  0  0
  -18.0275  -28.1373   22.8438 C   0  0  0  0  0  0
  -24.1498  -36.7263   23.2641 C   0  0  0  0  0  0
  -25.9757  -30.7649   21.3862 C   0  0  0  0  0  0
  -26.0462  -29.3947   20.7165 C   0  0  0  0  0  0
  -27.2139  -28.5678   20.7316 C   0  0  0  0  0  0
  -26.0496  -26.9091   19.4129 C   0  0  0  0  0  0
  -24.8860  -27.7000   19.4320 C   0  0  0  0  0  0
  -23.6449  -29.8122   20.1606 C   0  0  0  0  0  0
  -25.4109  -36.3046   24.0333 C   0  0  1  0  0  0
  -20.5892  -28.3617   23.1320 C   0  0  2  0  0  0
  -20.6772  -26.9341   22.5428 C   0  0  0  0  0  0
  -19.5745  -26.6339   21.5233 C   0  0  0  0  0  0
  -18.1906  -26.7877   22.1621 C   0  0  0  0  0  0
  -19.1529  -28.8810   23.2860 C   0  0  0  0  0  0
  -18.9465  -30.1421   23.8838 C   0  0  0  0  0  0
  -17.6462  -30.6554   24.0519 C   0  0  0  0  0  0
  -25.9068  -34.9421   23.5071 C   0  0  0  0  0  0
  -16.5340  -29.9012   23.6362 C   0  0  0  0  0  0
  -16.7268  -28.6470   23.0307 C   0  0  0  0  0  0
  -26.4539  -31.6530   25.0710 C   0  0  0  0  0  0
  -25.3751  -31.3714   26.1438 C   0  0  0  0  0  0
  -27.0393  -30.2940   24.6170 C   0  0  0  0  0  0
  -27.6052  -32.4332   25.7488 C   0  0  0  0  0  0
  -27.5577  -37.1757   24.8472 C   0  0  0  0  0  0
  -21.4238  -29.2960   22.3743 N   0  0  0  0  0  0
  -26.4286  -37.3749   23.9438 N   0  0  0  0  0  0
  -24.6983  -31.0447   22.1009 N   0  0  0  0  0  0
  -23.4245  -28.7972   23.3020 O   0  0  0  0  0  0
  -28.2805  -26.3430   20.2692 O   0  0  0  0  0  0
  -26.5625  -34.8923   22.4640 O   0  0  0  0  0  0
  -23.5461  -32.1334   23.7271 O   0  0  0  0  0  0
  -30.6813  -17.4098   18.8936 C   0  0  0  0  0  0
  -30.8790  -18.6785   18.3187 C   0  0  0  0  0  0
  -29.6148  -18.4861   20.7995 C   0  0  0  0  0  0
  -29.8207  -19.8187   20.2295 C   0  0  0  0  0  0
  -30.0628  -17.2528   20.1571 C   0  0  0  0  0  0
  -30.4700  -19.8577   18.9715 C   0  0  0  0  0  0
  -29.4881  -21.1586   20.9118 C   0  0  0  0  0  0
  -26.7906  -24.4078   20.9732 C   0  0  0  0  0  0
  -29.2167  -23.8405   20.7243 C   0  0  0  0  0  0
  -28.0580  -24.8433   20.1993 C   0  0  2  0  0  0
  -29.5260  -21.1990   22.2453 N   0  0  0  0  0  0
  -29.8648  -15.8738   20.6824 N   0  0  0  0  0  0
  -29.2075  -22.3600   20.2713 N   0  3  0  0  0  0
  -30.7336  -21.0424   18.3646 F   0  0  0  0  0  0
  -31.4734  -12.5575   19.1841 H   0  0  0  0  0  0
  -30.3711  -11.4678   19.9706 H   0  0  0  0  0  0
  -29.7962  -11.7172   17.5317 H   0  0  0  0  0  0
  -29.6378  -13.4439   17.7260 H   0  0  0  0  0  0
  -27.8985  -11.2764   18.9261 H   0  0  0  0  0  0
  -27.3821  -12.4953   17.8020 H   0  0  0  0  0  0
  -27.6359  -14.2451   19.4600 H   0  0  0  0  0  0
  -28.7081  -12.1671   21.4272 H   0  0  0  0  0  0
  -28.4155  -13.8440   21.7938 H   0  0  0  0  0  0
  -25.2738   -9.5714   22.4760 H   0  0  0  0  0  0
  -23.9991   -7.4648   22.7486 H   0  0  0  0  0  0
  -21.0831   -8.8755   19.8944 H   0  0  0  0  0  0
  -22.3682  -10.9647   19.6149 H   0  0  0  0  0  0
  -21.1990   -7.6128   23.9712 H   0  0  0  0  0  0
  -21.1491   -6.0507   25.9079 H   0  0  0  0  0  0
  -22.0594   -2.7584   23.2892 H   0  0  0  0  0  0
  -22.4070  -11.9816   22.4765 H   0  0  0  0  0  0
  -21.1087  -13.1210   22.2633 H   0  0  0  0  0  0
  -24.6478  -15.8425   20.5082 H   0  0  0  0  0  0
  -26.2656  -15.6324   20.0725 H   0  0  0  0  0  0
  -26.7159  -32.5356   23.1042 H   0  0  0  0  0  0
  -25.0201  -33.9650   25.0423 H   0  0  0  0  0  0
  -22.7262  -31.2897   21.4011 H   0  0  0  0  0  0
  -23.3796  -35.9586   23.3301 H   0  0  0  0  0  0
  -24.3596  -36.8887   22.2071 H   0  0  0  0  0  0
  -23.7249  -37.6456   23.6665 H   0  0  0  0  0  0
  -26.1184  -31.5333   20.6257 H   0  0  0  0  0  0
  -26.8485  -30.8036   22.0230 H   0  0  0  0  0  0
  -28.0972  -28.8933   21.2639 H   0  0  0  0  0  0
  -26.0091  -25.9837   18.8520 H   0  0  0  0  0  0
  -24.0002  -27.3541   18.9189 H   0  0  0  0  0  0
  -23.7617  -30.5932   19.4074 H   0  0  0  0  0  0
  -22.7640  -29.2386   19.8608 H   0  0  0  0  0  0
  -25.1299  -36.1894   25.0830 H   0  0  0  0  0  0
  -20.9920  -28.3145   24.1472 H   0  0  0  0  0  0
  -20.5739  -26.2182   23.3623 H   0  0  0  0  0  0
  -21.6611  -26.7396   22.1144 H   0  0  0  0  0  0
  -19.6958  -25.6271   21.1201 H   0  0  0  0  0  0
  -19.6698  -27.3200   20.6824 H   0  0  0  0  0  0
  -17.4199  -26.6663   21.3997 H   0  0  0  0  0  0
  -18.0214  -26.0030   22.9024 H   0  0  0  0  0  0
  -19.7963  -30.7233   24.2156 H   0  0  0  0  0  0
  -17.5025  -31.6239   24.5114 H   0  0  0  0  0  0
  -15.5323  -30.2874   23.7764 H   0  0  0  0  0  0
  -15.8680  -28.0800   22.7000 H   0  0  0  0  0  0
  -24.5983  -30.6988   25.7785 H   0  0  0  0  0  0
  -24.8910  -32.2898   26.4742 H   0  0  0  0  0  0
  -25.8084  -30.8997   27.0253 H   0  0  0  0  0  0
  -26.2955  -29.6684   24.1215 H   0  0  0  0  0  0
  -27.4137  -29.7222   25.4668 H   0  0  0  0  0  0
  -27.8821  -30.4255   23.9384 H   0  0  0  0  0  0
  -27.2615  -33.3687   26.1930 H   0  0  0  0  0  0
  -28.3933  -32.6779   25.0341 H   0  0  0  0  0  0
  -28.0640  -31.8546   26.5523 H   0  0  0  0  0  0
  -28.2538  -38.0084   24.7507 H   0  0  0  0  0  0
  -28.1107  -36.2607   24.6296 H   0  0  0  0  0  0
  -27.2288  -37.1403   25.8864 H   0  0  0  0  0  0
  -20.9457  -29.8670   21.6926 H   0  0  0  0  0  0
  -26.0184  -38.2843   24.1412 H   0  0  0  0  0  0
  -31.0243  -16.5527   18.3311 H   0  0  0  0  0  0
  -31.3742  -18.7515   17.3611 H   0  0  0  0  0  0
  -29.1347  -18.4182   21.7650 H   0  0  0  0  0  0
  -26.8153  -23.3427   21.1970 H   0  0  0  0  0  0
  -25.8700  -24.5510   20.4093 H   0  0  0  0  0  0
  -26.7008  -24.9357   21.9214 H   0  0  0  0  0  0
  -29.2448  -23.8755   21.8147 H   0  0  0  0  0  0
  -30.1781  -24.2493   20.4112 H   0  0  0  0  0  0
  -27.9131  -24.6187   19.1411 H   0  0  0  0  0  0
  -29.8781  -20.3985   22.7493 H   0  0  0  0  0  0
  -29.1679  -21.9739   22.7788 H   0  0  0  0  0  0
  -28.9776  -15.7076   21.1332 H   0  0  0  0  0  0
  -29.2500  -22.2691   19.2615 H   0  0  0  0  0  0
  1 25  1  0  0  0
  1 30  2  0  0  0
  1 82  1  0  0  0
  2  3  1  0  0  0
  2 25  1  0  0  0
  2 85  1  0  0  0
  2 86  1  0  0  0
  3  4  1  0  0  0
  3 87  1  0  0  0
  3 88  1  0  0  0
  4  5  1  0  0  0
  4 89  1  0  0  0
  4 90  1  0  0  0
  5  6  1  0  0  0
  5 26  1  0  0  0
  5 91  1  0  0  0
  6 25  1  0  0  0
  6 92  1  0  0  0
  6 93  1  0  0  0
  7  8  2  0  0  0
  7 26  1  0  0  0
  7 29  1  0  0  0
  8  9  1  0  0  0
  8 22  1  0  0  0
  9 10  1  0  0  0
  9 27  2  0  0  0
 10 11  2  0  0  0
 10 15  1  0  0  0
 11 12  1  0  0  0
 11 94  1  0  0  0
 12 13  2  0  0  0
 12 95  1  0  0  0
 13 14  1  0  0  0
 13 31  1  0  0  0
 14 15  2  0  0  0
 14 96  1  0  0  0
 15 97  1  0  0  0
 16 17  2  0  0  0
 16 21  1  0  0  0
 16 31  1  0  0  0
 17 18  1  0  0  0
 17 98  1  0  0  0
 18 19  2  0  0  0
 18 99  1  0  0  0
 19 20  1  0  0  0
 19 24  1  0  0  0
 20 21  2  0  0  0
 20100  1  0  0  0
 21 23  1  0  0  0
 22 28  1  0  0  0
 22 32  2  0  0  0
 26 27  1  0  0  0
 28101  1  0  0  0
 28102  1  0  0  0
 29103  1  0  0  0
 29104  1  0  0  0
 33 34  1  0  0  0
 33 66  1  0  0  0
 33 70  2  0  0  0
 34 36  1  0  0  0
 34 59  1  0  0  0
 34105  1  0  0  0
 35 44  2  0  0  0
 35 45  1  0  0  0
 35 68  1  0  0  0
 36 56  1  0  0  0
 36106  1  0  0  0
 37 39  1  0  0  0
 37 47  1  0  0  0
 37 66  1  0  0  0
 37107  1  0  0  0
 38 43  2  0  0  0
 38 46  1  0  0  0
 38 47  1  0  0  0
 39 64  1  0  0  0
 39 67  2  0  0  0
 40 52  1  0  0  0
 40 53  2  0  0  0
 40 58  1  0  0  0
 41108  1  0  0  0
 41109  1  0  0  0
 41110  1  0  0  0
 41 48  1  0  0  0
 42 43  1  0  0  0
 42 66  1  0  0  0
 42111  1  0  0  0
 42112  1  0  0  0
 43 44  1  0  0  0
 44113  1  0  0  0
 45 46  2  0  0  0
 45114  1  0  0  0
 46115  1  0  0  0
 47116  1  0  0  0
 47117  1  0  0  0
 48 56  1  0  0  0
 48 65  1  0  0  0
 48118  1  0  0  0
 49 50  1  0  0  0
 49 53  1  0  0  0
 49 64  1  0  0  0
 49119  1  0  0  0
 50 51  1  0  0  0
 50120  1  0  0  0
 50121  1  0  0  0
 51 52  1  0  0  0
 51122  1  0  0  0
 51123  1  0  0  0
 52124  1  0  0  0
 52125  1  0  0  0
 53 54  1  0  0  0
 54 55  2  0  0  0
 54126  1  0  0  0
 55 57  1  0  0  0
 55127  1  0  0  0
 56 69  2  0  0  0
 57 58  2  0  0  0
 57128  1  0  0  0
 58129  1  0  0  0
 59 60  1  0  0  0
 59 61  1  0  0  0
 59 62  1  0  0  0
 60130  1  0  0  0
 60131  1  0  0  0
 60132  1  0  0  0
 61133  1  0  0  0
 61134  1  0  0  0
 61135  1  0  0  0
 62136  1  0  0  0
 62137  1  0  0  0
 62138  1  0  0  0
 63 65  1  0  0  0
 63139  1  0  0  0
 63140  1  0  0  0
 63141  1  0  0  0
 64142  1  0  0  0
 65143  1  0  0  0
 68 80  1  0  0  0
 71 72  2  0  0  0
 71 75  1  0  0  0
 71144  1  0  0  0
 72 76  1  0  0  0
 72145  1  0  0  0
 73 74  1  0  0  0
 73 75  2  0  0  0
 73146  1  0  0  0
 74 76  2  0  0  0
 74 77  1  0  0  0
 75 82  1  0  0  0
 76 84  1  0  0  0
 77 81  1  0  0  0
 77 83  2  0  0  0
 78147  1  0  0  0
 78148  1  0  0  0
 78149  1  0  0  0
 78 80  1  0  0  0
 79 80  1  0  0  0
 79 83  1  0  0  0
 79150  1  0  0  0
 79151  1  0  0  0
 80152  1  0  0  0
 81153  1  0  0  0
 81154  1  0  0  0
 82155  1  0  0  0
 83156  1  0  0  0
M  CHG  1  83   1
M  ISO  4   1 100  68 101  80 101  82 100
M  END
> <chiral flag>
0

> <version>
0

> <s_m_source_file>
/data/baiqing/PycharmProjects/Reinvent-master-3.2/result/LINK_invent/BTK/process_docking_weight1_custom_product_contain_oxygen_bond_distance_aromatic_linkinvent_7_9_3/rearranged_h_0168.sdf

> <i_m_source_file_index>
84

> <r_mmod_Potential_Energy-OPLS-2005>
-70.3593826293945

> <r_mmod_Stretch_Energy-OPLS-2005>
127.151428222656

> <r_mmod_Bend_Energy-OPLS-2005>
157.958160400391

> <r_mmod_Torsional_Energy-OPLS-2005>
243.244659423828

> <r_mmod_Improper_Torsional_Energy-OPLS-2005>
5.67808723449707

> <r_mmod_Van_der_Waal_Energy-OPLS-2005>
151.67854309082

> <r_mmod_Electrostatic_Energy-OPLS-2005>
-426.890625

> <r_mmod_Solvation_Energy-OPLS-2005>
-418.748382568359

> <b_mmod_Minimization_Converged-OPLS-2005>
0

> <r_mmod_RMS_Derivative-OPLS-2005>
5.69037771224976

$$$$
84
                    3D
 Structure written by MMmdl.
154162  0  0  1  0            999 V2000
  -30.6738  -14.5564   20.5443 C   0  0  0  0  0  0
  -30.4215  -12.3574   19.4374 C   0  0  0  0  0  0
  -29.4963  -12.4952   18.2115 C   0  0  0  0  0  0
  -28.0193  -12.3437   18.6257 C   0  0  0  0  0  0
  -27.6485  -13.2135   19.8578 C   0  0  2  0  0  0
  -28.6903  -13.0616   20.9874 C   0  0  0  0  0  0
  -25.2541  -13.8166   20.5652 C   0  0  0  0  0  0
  -24.1820  -13.0440   20.9186 C   0  0  0  0  0  0
  -24.6382  -11.6908   20.8744 C   0  0  0  0  0  0
  -23.9068  -10.4292   21.0417 C   0  0  0  0  0  0
  -24.3622   -9.4202   21.9187 C   0  0  0  0  0  0
  -23.6290   -8.2241   22.0758 C   0  0  0  0  0  0
  -22.4278   -8.0279   21.3545 C   0  0  0  0  0  0
  -21.9917   -9.0256   20.4652 C   0  0  0  0  0  0
  -22.7247  -10.2130   20.3063 C   0  0  0  0  0  0
  -21.6846   -6.0743   22.5282 C   0  0  0  0  0  0
  -21.4009   -6.5651   23.8213 C   0  0  0  0  0  0
  -21.3647   -5.6803   24.9172 C   0  0  0  0  0  0
  -21.6036   -4.3066   24.7227 C   0  0  0  0  0  0
  -21.8823   -3.8161   23.4350 C   0  0  0  0  0  0
  -21.9194   -4.6974   22.3404 C   0  0  0  0  0  0
  -22.7845  -13.5226   21.1856 C   0  0  0  0  0  0
  -22.1662   -4.2166   21.0979 F   0  0  0  0  0  0
  -21.5620   -3.4547   25.7737 F   0  0  0  0  0  0
  -30.0084  -13.3743   20.4200 N   0  0  0  0  0  0
  -26.2957  -12.9339   20.3280 N   0  0  0  0  0  0
  -25.9297  -11.6499   20.5741 N   0  0  0  0  0  0
  -22.0499  -12.8212   22.0418 N   0  0  0  0  0  0
  -25.4268  -15.1882   20.4036 N   0  0  0  0  0  0
  -31.8382  -14.6900   20.1598 O   0  0  0  0  0  0
  -21.6634   -6.8882   21.4243 O   0  0  0  0  0  0
  -22.3530  -14.5534   20.6701 O   0  0  0  0  0  0
  -24.6210  -31.8643   23.2075 C   0  0  0  0  0  0
  -25.9088  -32.4797   23.8368 C   0  0  1  0  0  0
  -27.2236  -27.3725   20.0954 C   0  0  0  0  0  0
  -25.5964  -33.8608   24.2305 N   0  0  0  0  0  0
  -23.4091  -30.4892   21.5492 C   0  0  2  0  0  0
  -24.8514  -28.9456   20.1156 C   0  0  0  0  0  0
  -22.7431  -29.4640   22.4974 C   0  0  0  0  0  0
  -18.0258  -28.1371   22.8474 C   0  0  0  0  0  0
  -24.1495  -36.7292   23.2638 C   0  0  0  0  0  0
  -25.9455  -30.8079   21.3719 C   0  0  0  0  0  0
  -26.0164  -29.4393   20.7142 C   0  0  0  0  0  0
  -27.2019  -28.6585   20.7035 C   0  0  0  0  0  0
  -26.0310  -26.9037   19.5001 C   0  0  0  0  0  0
  -24.8557  -27.6798   19.5063 C   0  0  0  0  0  0
  -23.6190  -29.8233   20.1635 C   0  0  0  0  0  0
  -25.4129  -36.3100   24.0334 C   0  0  1  0  0  0
  -20.5862  -28.3663   23.1313 C   0  0  2  0  0  0
  -20.6766  -26.9407   22.5411 C   0  0  0  0  0  0
  -19.5743  -26.6362   21.5211 C   0  0  0  0  0  0
  -18.1901  -26.7913   22.1601 C   0  0  0  0  0  0
  -19.1518  -28.8830   23.2877 C   0  0  0  0  0  0
  -18.9464  -30.1441   23.8891 C   0  0  0  0  0  0
  -17.6475  -30.6592   24.0550 C   0  0  0  0  0  0
  -25.9064  -34.9470   23.5104 C   0  0  0  0  0  0
  -16.5354  -29.9090   23.6353 C   0  0  0  0  0  0
  -16.7256  -28.6508   23.0361 C   0  0  0  0  0  0
  -26.4500  -31.6618   25.0738 C   0  0  0  0  0  0
  -25.3751  -31.3780   26.1493 C   0  0  0  0  0  0
  -27.0372  -30.3063   24.6169 C   0  0  0  0  0  0
  -27.6043  -32.4377   25.7516 C   0  0  0  0  0  0
  -27.5590  -37.1798   24.8461 C   0  0  0  0  0  0
  -21.4159  -29.3021   22.3711 N   0  0  0  0  0  0
  -26.4302  -37.3795   23.9425 N   0  0  0  0  0  0
  -24.6765  -31.0701   22.0997 N   0  0  0  0  0  0
  -23.4183  -28.8175   23.3025 O   0  0  0  0  0  0
  -28.3926  -26.6177   20.1221 O   0  0  0  0  0  0
  -26.5596  -34.8910   22.4652 O   0  0  0  0  0  0
  -23.5390  -32.1426   23.7444 O   0  0  0  0  0  0
  -29.8745  -18.1966   20.7906 C   0  0  0  0  0  0
  -31.6401  -17.0399   21.9921 C   0  0  0  0  0  0
  -30.4654  -16.9586   21.2126 C   0  0  0  0  0  0
  -30.5322  -19.4255   21.1178 C   0  0  0  0  0  0
  -31.7119  -19.3353   21.8831 C   0  0  0  0  0  0
  -29.3545  -22.9938   20.2799 C   0  0  0  0  0  0
  -29.0623  -21.4467   20.5150 C   0  0  0  0  0  0
  -28.1834  -24.0190   20.1742 C   0  0  0  0  0  0
  -28.4996  -25.3573   19.4007 C   0  0  0  0  0  0
  -32.2501  -18.1934   22.3214 N   0  0  0  0  0  0
  -32.4357  -20.4709   22.2213 N   0  0  0  0  0  0
  -30.2124  -20.7553   20.6563 N   0  0  0  0  0  0
  -29.9375  -15.6460   20.9018 N   0  0  0  0  0  0
  -30.5271  -23.3904   20.2158 O   0  0  0  0  0  0
  -27.9337  -20.9469   20.5426 O   0  0  0  0  0  0
  -31.4651  -12.4699   19.1359 H   0  0  0  0  0  0
  -30.3418  -11.3595   19.8731 H   0  0  0  0  0  0
  -29.7501  -11.7449   17.4620 H   0  0  0  0  0  0
  -29.6487  -13.4666   17.7380 H   0  0  0  0  0  0
  -27.8486  -11.2905   18.8518 H   0  0  0  0  0  0
  -27.3660  -12.5821   17.7852 H   0  0  0  0  0  0
  -27.6704  -14.2493   19.5173 H   0  0  0  0  0  0
  -28.6869  -12.0448   21.3828 H   0  0  0  0  0  0
  -28.4459  -13.7111   21.8299 H   0  0  0  0  0  0
  -25.2767   -9.5673   22.4763 H   0  0  0  0  0  0
  -24.0001   -7.4633   22.7478 H   0  0  0  0  0  0
  -21.0849   -8.8774   19.8957 H   0  0  0  0  0  0
  -22.3705  -10.9672   19.6179 H   0  0  0  0  0  0
  -21.2003   -7.6158   23.9717 H   0  0  0  0  0  0
  -21.1454   -6.0533   25.9068 H   0  0  0  0  0  0
  -22.0611   -2.7631   23.2843 H   0  0  0  0  0  0
  -22.4117  -11.9852   22.4770 H   0  0  0  0  0  0
  -21.1128  -13.1244   22.2663 H   0  0  0  0  0  0
  -24.6583  -15.8428   20.4992 H   0  0  0  0  0  0
  -26.2682  -15.6215   20.0462 H   0  0  0  0  0  0
  -26.7160  -32.5478   23.1121 H   0  0  0  0  0  0
  -25.0210  -33.9768   25.0515 H   0  0  0  0  0  0
  -22.7002  -31.3078   21.4078 H   0  0  0  0  0  0
  -23.3767  -35.9605   23.3291 H   0  0  0  0  0  0
  -24.3568  -36.8933   22.2046 H   0  0  0  0  0  0
  -23.7213  -37.6480   23.6667 H   0  0  0  0  0  0
  -26.0724  -31.5736   20.6055 H   0  0  0  0  0  0
  -26.8269  -30.8524   22.0007 H   0  0  0  0  0  0
  -28.1002  -29.0307   21.1762 H   0  0  0  0  0  0
  -25.9689  -25.9280   19.0431 H   0  0  0  0  0  0
  -23.9553  -27.2896   19.0505 H   0  0  0  0  0  0
  -23.7352  -30.5992   19.4055 H   0  0  0  0  0  0
  -22.7376  -29.2539   19.8611 H   0  0  0  0  0  0
  -25.1289  -36.1962   25.0819 H   0  0  0  0  0  0
  -20.9929  -28.3248   24.1450 H   0  0  0  0  0  0
  -20.5695  -26.2282   23.3589 H   0  0  0  0  0  0
  -21.6629  -26.7456   22.1194 H   0  0  0  0  0  0
  -19.6921  -25.6263   21.1258 H   0  0  0  0  0  0
  -19.6714  -27.3139   20.6706 H   0  0  0  0  0  0
  -17.4183  -26.6663   21.3979 H   0  0  0  0  0  0
  -18.0298  -26.0053   22.8992 H   0  0  0  0  0  0
  -19.7962  -30.7227   24.2260 H   0  0  0  0  0  0
  -17.5051  -31.6276   24.5135 H   0  0  0  0  0  0
  -15.5363  -30.2985   23.7712 H   0  0  0  0  0  0
  -15.8641  -28.0829   22.7105 H   0  0  0  0  0  0
  -24.5872  -30.7192   25.7841 H   0  0  0  0  0  0
  -24.8996  -32.2960   26.4955 H   0  0  0  0  0  0
  -25.8063  -30.8931   27.0256 H   0  0  0  0  0  0
  -26.2942  -29.6793   24.1239 H   0  0  0  0  0  0
  -27.4161  -29.7360   25.4654 H   0  0  0  0  0  0
  -27.8757  -30.4389   23.9333 H   0  0  0  0  0  0
  -27.2640  -33.3694   26.2064 H   0  0  0  0  0  0
  -28.3877  -32.6945   25.0367 H   0  0  0  0  0  0
  -28.0688  -31.8539   26.5478 H   0  0  0  0  0  0
  -28.2580  -38.0113   24.7562 H   0  0  0  0  0  0
  -28.1110  -36.2661   24.6234 H   0  0  0  0  0  0
  -27.2310  -37.1382   25.8853 H   0  0  0  0  0  0
  -20.9321  -29.8833   21.7006 H   0  0  0  0  0  0
  -26.0198  -38.2871   24.1440 H   0  0  0  0  0  0
  -28.9813  -18.2004   20.1821 H   0  0  0  0  0  0
  -32.1093  -16.1487   22.3809 H   0  0  0  0  0  0
  -27.8437  -24.2416   21.1855 H   0  0  0  0  0  0
  -27.3485  -23.5134   19.6878 H   0  0  0  0  0  0
  -27.9354  -25.3872   18.4692 H   0  0  0  0  0  0
  -29.5290  -25.3349   19.0428 H   0  0  0  0  0  0
  -31.9293  -21.3411   22.3160 H   0  0  0  0  0  0
  -33.1444  -20.3498   22.9341 H   0  0  0  0  0  0
  -31.0125  -21.3778   20.6128 H   0  0  0  0  0  0
  -28.9404  -15.5116   20.9866 H   0  0  0  0  0  0
  1 25  1  0  0  0
  1 30  2  0  0  0
  1 83  1  0  0  0
  2  3  1  0  0  0
  2 25  1  0  0  0
  2 86  1  0  0  0
  2 87  1  0  0  0
  3  4  1  0  0  0
  3 88  1  0  0  0
  3 89  1  0  0  0
  4  5  1  0  0  0
  4 90  1  0  0  0
  4 91  1  0  0  0
  5  6  1  0  0  0
  5 26  1  0  0  0
  5 92  1  0  0  0
  6 25  1  0  0  0
  6 93  1  0  0  0
  6 94  1  0  0  0
  7  8  2  0  0  0
  7 26  1  0  0  0
  7 29  1  0  0  0
  8  9  1  0  0  0
  8 22  1  0  0  0
  9 10  1  0  0  0
  9 27  2  0  0  0
 10 11  2  0  0  0
 10 15  1  0  0  0
 11 12  1  0  0  0
 11 95  1  0  0  0
 12 13  2  0  0  0
 12 96  1  0  0  0
 13 14  1  0  0  0
 13 31  1  0  0  0
 14 15  2  0  0  0
 14 97  1  0  0  0
 15 98  1  0  0  0
 16 17  2  0  0  0
 16 21  1  0  0  0
 16 31  1  0  0  0
 17 18  1  0  0  0
 17 99  1  0  0  0
 18 19  2  0  0  0
 18100  1  0  0  0
 19 20  1  0  0  0
 19 24  1  0  0  0
 20 21  2  0  0  0
 20101  1  0  0  0
 21 23  1  0  0  0
 22 28  1  0  0  0
 22 32  2  0  0  0
 26 27  1  0  0  0
 28102  1  0  0  0
 28103  1  0  0  0
 29104  1  0  0  0
 29105  1  0  0  0
 33 34  1  0  0  0
 33 66  1  0  0  0
 33 70  2  0  0  0
 34 36  1  0  0  0
 34 59  1  0  0  0
 34106  1  0  0  0
 35 44  2  0  0  0
 35 45  1  0  0  0
 35 68  1  0  0  0
 36 56  1  0  0  0
 36107  1  0  0  0
 37 39  1  0  0  0
 37 47  1  0  0  0
 37 66  1  0  0  0
 37108  1  0  0  0
 38 43  2  0  0  0
 38 46  1  0  0  0
 38 47  1  0  0  0
 39 64  1  0  0  0
 39 67  2  0  0  0
 40 52  1  0  0  0
 40 53  2  0  0  0
 40 58  1  0  0  0
 41109  1  0  0  0
 41110  1  0  0  0
 41111  1  0  0  0
 41 48  1  0  0  0
 42 43  1  0  0  0
 42 66  1  0  0  0
 42112  1  0  0  0
 42113  1  0  0  0
 43 44  1  0  0  0
 44114  1  0  0  0
 45 46  2  0  0  0
 45115  1  0  0  0
 46116  1  0  0  0
 47117  1  0  0  0
 47118  1  0  0  0
 48 56  1  0  0  0
 48 65  1  0  0  0
 48119  1  0  0  0
 49 50  1  0  0  0
 49 53  1  0  0  0
 49 64  1  0  0  0
 49120  1  0  0  0
 50 51  1  0  0  0
 50121  1  0  0  0
 50122  1  0  0  0
 51 52  1  0  0  0
 51123  1  0  0  0
 51124  1  0  0  0
 52125  1  0  0  0
 52126  1  0  0  0
 53 54  1  0  0  0
 54 55  2  0  0  0
 54127  1  0  0  0
 55 57  1  0  0  0
 55128  1  0  0  0
 56 69  2  0  0  0
 57 58  2  0  0  0
 57129  1  0  0  0
 58130  1  0  0  0
 59 60  1  0  0  0
 59 61  1  0  0  0
 59 62  1  0  0  0
 60131  1  0  0  0
 60132  1  0  0  0
 60133  1  0  0  0
 61134  1  0  0  0
 61135  1  0  0  0
 61136  1  0  0  0
 62137  1  0  0  0
 62138  1  0  0  0
 62139  1  0  0  0
 63 65  1  0  0  0
 63140  1  0  0  0
 63141  1  0  0  0
 63142  1  0  0  0
 64143  1  0  0  0
 65144  1  0  0  0
 68 79  1  0  0  0
 71 73  2  0  0  0
 71 74  1  0  0  0
 71145  1  0  0  0
 72 73  1  0  0  0
 72 80  2  0  0  0
 72146  1  0  0  0
 73 83  1  0  0  0
 74 75  2  0  0  0
 74 82  1  0  0  0
 75 80  1  0  0  0
 75 81  1  0  0  0
 76 77  1  0  0  0
 76 78  1  0  0  0
 76 84  2  0  0  0
 77 82  1  0  0  0
 77 85  2  0  0  0
 78 79  1  0  0  0
 78147  1  0  0  0
 78148  1  0  0  0
 79149  1  0  0  0
 79150  1  0  0  0
 81151  1  0  0  0
 81152  1  0  0  0
 82153  1  0  0  0
 83154  1  0  0  0
M  ISO  4   1 100  68 101  79 101  83 100
M  END
> <chiral flag>
0

> <version>
0

> <s_m_source_file>
/data/baiqing/PycharmProjects/Reinvent-master-3.2/result/LINK_invent/BTK/process_docking_weight1_custom_product_contain_oxygen_bond_distance_aromatic_linkinvent_7_9_3/rearranged_h_0168.sdf

> <i_m_source_file_index>
85

> <r_mmod_Potential_Energy-OPLS-2005>
-333.416534423828

> <r_mmod_Stretch_Energy-OPLS-2005>
57.0702972412109

> <r_mmod_Bend_Energy-OPLS-2005>
140.251647949219

> <r_mmod_Torsional_Energy-OPLS-2005>
244.384002685547

> <r_mmod_Improper_Torsional_Energy-OPLS-2005>
9.69995403289795

> <r_mmod_Van_der_Waal_Energy-OPLS-2005>
164.142837524414

> <r_mmod_Electrostatic_Energy-OPLS-2005>
-724.060668945312

> <r_mmod_Solvation_Energy-OPLS-2005>
-252.417114257812

> <b_mmod_Minimization_Converged-OPLS-2005>
0

> <r_mmod_RMS_Derivative-OPLS-2005>
2.82712626457214

$$$$
85
                    3D
 Structure written by MMmdl.
152160  0  0  1  0            999 V2000
  -30.5723  -14.7650   20.4607 C   0  0  0  0  0  0
  -30.4486  -12.4651   19.4698 C   0  0  0  0  0  0
  -29.5165  -12.5126   18.2363 C   0  0  0  0  0  0
  -28.0421  -12.3295   18.6495 C   0  0  0  0  0  0
  -27.6464  -13.2232   19.8541 C   0  0  2  0  0  0
  -28.6934  -13.1366   20.9877 C   0  0  0  0  0  0
  -25.2532  -13.8164   20.5692 C   0  0  0  0  0  0
  -24.1815  -13.0424   20.9206 C   0  0  0  0  0  0
  -24.6397  -11.6901   20.8746 C   0  0  0  0  0  0
  -23.9069  -10.4285   21.0409 C   0  0  0  0  0  0
  -24.3619   -9.4200   21.9186 C   0  0  0  0  0  0
  -23.6292   -8.2238   22.0756 C   0  0  0  0  0  0
  -22.4274   -8.0279   21.3545 C   0  0  0  0  0  0
  -21.9910   -9.0254   20.4648 C   0  0  0  0  0  0
  -22.7241  -10.2131   20.3057 C   0  0  0  0  0  0
  -21.6852   -6.0735   22.5280 C   0  0  0  0  0  0
  -21.4013   -6.5640   23.8213 C   0  0  0  0  0  0
  -21.3658   -5.6793   24.9175 C   0  0  0  0  0  0
  -21.6044   -4.3056   24.7226 C   0  0  0  0  0  0
  -21.8819   -3.8147   23.4348 C   0  0  0  0  0  0
  -21.9193   -4.6963   22.3404 C   0  0  0  0  0  0
  -22.7838  -13.5218   21.1864 C   0  0  0  0  0  0
  -22.1662   -4.2149   21.0982 F   0  0  0  0  0  0
  -21.5628   -3.4540   25.7739 F   0  0  0  0  0  0
  -29.9965  -13.5111   20.4156 N   0  0  0  0  0  0
  -26.2959  -12.9358   20.3285 N   0  0  0  0  0  0
  -25.9326  -11.6511   20.5750 N   0  0  0  0  0  0
  -22.0480  -12.8214   22.0421 N   0  0  0  0  0  0
  -25.4212  -15.1888   20.4111 N   0  0  0  0  0  0
  -31.7551  -14.9092   20.1295 O   0  0  0  0  0  0
  -21.6637   -6.8877   21.4241 O   0  0  0  0  0  0
  -22.3528  -14.5526   20.6710 O   0  0  0  0  0  0
  -24.6333  -31.8538   23.1976 C   0  0  0  0  0  0
  -25.9150  -32.4747   23.8329 C   0  0  1  0  0  0
  -27.2289  -27.2562   20.1158 C   0  0  0  0  0  0
  -25.5937  -33.8550   24.2248 N   0  0  0  0  0  0
  -23.4315  -30.4766   21.5410 C   0  0  2  0  0  0
  -24.8808  -28.9252   20.1077 C   0  0  0  0  0  0
  -22.7517  -29.4594   22.4900 C   0  0  0  0  0  0
  -18.0295  -28.1388   22.8483 C   0  0  0  0  0  0
  -24.1490  -36.7279   23.2641 C   0  0  0  0  0  0
  -25.9796  -30.7637   21.3803 C   0  0  0  0  0  0
  -26.0543  -29.3869   20.7184 C   0  0  0  0  0  0
  -27.2293  -28.5634   20.7160 C   0  0  0  0  0  0
  -26.0222  -26.8601   19.4927 C   0  0  0  0  0  0
  -24.8700  -27.6689   19.4855 C   0  0  0  0  0  0
  -23.6512  -29.8123   20.1570 C   0  0  0  0  0  0
  -25.4118  -36.3065   24.0324 C   0  0  1  0  0  0
  -20.5902  -28.3702   23.1260 C   0  0  2  0  0  0
  -20.6782  -26.9417   22.5406 C   0  0  0  0  0  0
  -19.5757  -26.6382   21.5211 C   0  0  0  0  0  0
  -18.1938  -26.7929   22.1624 C   0  0  0  0  0  0
  -19.1550  -28.8862   23.2866 C   0  0  0  0  0  0
  -18.9470  -30.1462   23.8886 C   0  0  0  0  0  0
  -17.6468  -30.6588   24.0561 C   0  0  0  0  0  0
  -25.9059  -34.9435   23.5089 C   0  0  0  0  0  0
  -16.5359  -29.9084   23.6332 C   0  0  0  0  0  0
  -16.7281  -28.6502   23.0354 C   0  0  0  0  0  0
  -26.4510  -31.6579   25.0725 C   0  0  0  0  0  0
  -25.3725  -31.3737   26.1440 C   0  0  0  0  0  0
  -27.0365  -30.2993   24.6231 C   0  0  0  0  0  0
  -27.6055  -32.4329   25.7503 C   0  0  0  0  0  0
  -27.5578  -37.1796   24.8466 C   0  0  0  0  0  0
  -21.4221  -29.3045   22.3644 N   0  0  0  0  0  0
  -26.4291  -37.3766   23.9408 N   0  0  0  0  0  0
  -24.7005  -31.0492   22.0959 N   0  0  0  0  0  0
  -23.4206  -28.8134   23.3007 O   0  0  0  0  0  0
  -28.2940  -26.3195   20.1998 O   0  0  0  0  0  0
  -26.5633  -34.8913   22.4660 O   0  0  0  0  0  0
  -23.5476  -32.1365   23.7260 O   0  0  0  0  0  0
  -28.5383  -17.7882   19.7880 C   0  0  0  0  0  0
  -30.3459  -19.5955   20.7140 C   0  0  0  0  0  0
  -28.3122  -19.1819   19.5596 C   0  0  0  0  0  0
  -29.2261  -20.1665   20.0359 C   0  0  0  0  0  0
  -29.6876  -17.2870   20.4516 C   0  0  0  0  0  0
  -28.4126  -25.3030   19.2200 C   0  0  0  0  0  0
  -28.6769  -23.9282   19.1579 C   0  0  0  0  0  0
  -28.9690  -22.8468   20.1833 C   0  0  0  0  0  0
  -27.0751  -19.5988   18.7760 C   0  0  0  0  0  0
  -30.5664  -18.2375   20.9065 N   0  0  0  0  0  0
  -29.0715  -21.5865   19.6063 N   0  0  0  0  0  0
  -29.7087  -15.8232   20.7115 N   0  0  0  0  0  0
  -29.1170  -23.0237   21.3926 O   0  0  0  0  0  0
  -28.6605  -23.4620   17.8938 O   0  0  0  0  0  0
  -27.4191  -20.1956   17.6338 F   0  0  0  0  0  0
  -26.3105  -20.4209   19.4958 F   0  0  0  0  0  0
  -31.4855  -12.6126   19.1630 H   0  0  0  0  0  0
  -30.4138  -11.4830   19.9439 H   0  0  0  0  0  0
  -29.8011  -11.7416   17.5189 H   0  0  0  0  0  0
  -29.6361  -13.4672   17.7215 H   0  0  0  0  0  0
  -27.9021  -11.2796   18.9095 H   0  0  0  0  0  0
  -27.3837  -12.5220   17.8017 H   0  0  0  0  0  0
  -27.6427  -14.2461   19.4783 H   0  0  0  0  0  0
  -28.7342  -12.1267   21.3989 H   0  0  0  0  0  0
  -28.4216  -13.7872   21.8206 H   0  0  0  0  0  0
  -25.2765   -9.5676   22.4759 H   0  0  0  0  0  0
  -24.0000   -7.4629   22.7475 H   0  0  0  0  0  0
  -21.0841   -8.8775   19.8955 H   0  0  0  0  0  0
  -22.3703  -10.9672   19.6167 H   0  0  0  0  0  0
  -21.2005   -7.6148   23.9716 H   0  0  0  0  0  0
  -21.1479   -6.0524   25.9078 H   0  0  0  0  0  0
  -22.0599   -2.7609   23.2849 H   0  0  0  0  0  0
  -22.4096  -11.9877   22.4811 H   0  0  0  0  0  0
  -21.1098  -13.1241   22.2625 H   0  0  0  0  0  0
  -24.6483  -15.8361   20.5222 H   0  0  0  0  0  0
  -26.2578  -15.6298   20.0578 H   0  0  0  0  0  0
  -26.7217  -32.5393   23.1070 H   0  0  0  0  0  0
  -25.0077  -33.9685   25.0389 H   0  0  0  0  0  0
  -22.7288  -31.2995   21.3946 H   0  0  0  0  0  0
  -23.3753  -35.9610   23.3302 H   0  0  0  0  0  0
  -24.3577  -36.8904   22.2055 H   0  0  0  0  0  0
  -23.7242  -37.6478   23.6668 H   0  0  0  0  0  0
  -26.1224  -31.5260   20.6131 H   0  0  0  0  0  0
  -26.8551  -30.8102   22.0163 H   0  0  0  0  0  0
  -28.1242  -28.9077   21.2151 H   0  0  0  0  0  0
  -25.9357  -25.8838   19.0386 H   0  0  0  0  0  0
  -23.9683  -27.3035   19.0134 H   0  0  0  0  0  0
  -23.7764  -30.5898   19.4024 H   0  0  0  0  0  0
  -22.7694  -29.2467   19.8505 H   0  0  0  0  0  0
  -25.1301  -36.1910   25.0817 H   0  0  0  0  0  0
  -20.9994  -28.3283   24.1380 H   0  0  0  0  0  0
  -20.5680  -26.2314   23.3614 H   0  0  0  0  0  0
  -21.6650  -26.7436   22.1200 H   0  0  0  0  0  0
  -19.6918  -25.6291   21.1246 H   0  0  0  0  0  0
  -19.6693  -27.3188   20.6737 H   0  0  0  0  0  0
  -17.4206  -26.6672   21.4029 H   0  0  0  0  0  0
  -18.0341  -26.0073   22.9024 H   0  0  0  0  0  0
  -19.7946  -30.7281   24.2250 H   0  0  0  0  0  0
  -17.5022  -31.6267   24.5165 H   0  0  0  0  0  0
  -15.5359  -30.2983   23.7662 H   0  0  0  0  0  0
  -15.8681  -28.0817   22.7075 H   0  0  0  0  0  0
  -24.5905  -30.7082   25.7767 H   0  0  0  0  0  0
  -24.8913  -32.2908   26.4845 H   0  0  0  0  0  0
  -25.8035  -30.8927   27.0230 H   0  0  0  0  0  0
  -26.2960  -29.6730   24.1240 H   0  0  0  0  0  0
  -27.4023  -29.7266   25.4764 H   0  0  0  0  0  0
  -27.8847  -30.4261   23.9500 H   0  0  0  0  0  0
  -27.2655  -33.3634   26.2061 H   0  0  0  0  0  0
  -28.3877  -32.6881   25.0340 H   0  0  0  0  0  0
  -28.0712  -31.8468   26.5436 H   0  0  0  0  0  0
  -28.2596  -38.0092   24.7508 H   0  0  0  0  0  0
  -28.1073  -36.2622   24.6300 H   0  0  0  0  0  0
  -27.2294  -37.1453   25.8868 H   0  0  0  0  0  0
  -20.9411  -29.8767   21.6846 H   0  0  0  0  0  0
  -26.0167  -38.2839   24.1406 H   0  0  0  0  0  0
  -27.8053  -17.0858   19.4194 H   0  0  0  0  0  0
  -31.1329  -20.2432   21.0714 H   0  0  0  0  0  0
  -28.2469  -25.7922   18.2689 H   0  0  0  0  0  0
  -26.4561  -18.7412   18.5120 H   0  0  0  0  0  0
  -28.8513  -21.6907   18.6214 H   0  0  0  0  0  0
  -28.7944  -15.4635   20.9287 H   0  0  0  0  0  0
  -28.4822  -24.1932   17.3175 H   0  0  0  0  0  0
  1 25  1  0  0  0
  1 30  2  0  0  0
  1 82  1  0  0  0
  2  3  1  0  0  0
  2 25  1  0  0  0
  2 87  1  0  0  0
  2 88  1  0  0  0
  3  4  1  0  0  0
  3 89  1  0  0  0
  3 90  1  0  0  0
  4  5  1  0  0  0
  4 91  1  0  0  0
  4 92  1  0  0  0
  5  6  1  0  0  0
  5 26  1  0  0  0
  5 93  1  0  0  0
  6 25  1  0  0  0
  6 94  1  0  0  0
  6 95  1  0  0  0
  7  8  2  0  0  0
  7 26  1  0  0  0
  7 29  1  0  0  0
  8  9  1  0  0  0
  8 22  1  0  0  0
  9 10  1  0  0  0
  9 27  2  0  0  0
 10 11  2  0  0  0
 10 15  1  0  0  0
 11 12  1  0  0  0
 11 96  1  0  0  0
 12 13  2  0  0  0
 12 97  1  0  0  0
 13 14  1  0  0  0
 13 31  1  0  0  0
 14 15  2  0  0  0
 14 98  1  0  0  0
 15 99  1  0  0  0
 16 17  2  0  0  0
 16 21  1  0  0  0
 16 31  1  0  0  0
 17 18  1  0  0  0
 17100  1  0  0  0
 18 19  2  0  0  0
 18101  1  0  0  0
 19 20  1  0  0  0
 19 24  1  0  0  0
 20 21  2  0  0  0
 20102  1  0  0  0
 21 23  1  0  0  0
 22 28  1  0  0  0
 22 32  2  0  0  0
 26 27  1  0  0  0
 28103  1  0  0  0
 28104  1  0  0  0
 29105  1  0  0  0
 29106  1  0  0  0
 33 34  1  0  0  0
 33 66  1  0  0  0
 33 70  2  0  0  0
 34 36  1  0  0  0
 34 59  1  0  0  0
 34107  1  0  0  0
 35 44  2  0  0  0
 35 45  1  0  0  0
 35 68  1  0  0  0
 36 56  1  0  0  0
 36108  1  0  0  0
 37 39  1  0  0  0
 37 47  1  0  0  0
 37 66  1  0  0  0
 37109  1  0  0  0
 38 43  2  0  0  0
 38 46  1  0  0  0
 38 47  1  0  0  0
 39 64  1  0  0  0
 39 67  2  0  0  0
 40 52  1  0  0  0
 40 53  2  0  0  0
 40 58  1  0  0  0
 41110  1  0  0  0
 41111  1  0  0  0
 41112  1  0  0  0
 41 48  1  0  0  0
 42 43  1  0  0  0
 42 66  1  0  0  0
 42113  1  0  0  0
 42114  1  0  0  0
 43 44  1  0  0  0
 44115  1  0  0  0
 45 46  2  0  0  0
 45116  1  0  0  0
 46117  1  0  0  0
 47118  1  0  0  0
 47119  1  0  0  0
 48 56  1  0  0  0
 48 65  1  0  0  0
 48120  1  0  0  0
 49 50  1  0  0  0
 49 53  1  0  0  0
 49 64  1  0  0  0
 49121  1  0  0  0
 50 51  1  0  0  0
 50122  1  0  0  0
 50123  1  0  0  0
 51 52  1  0  0  0
 51124  1  0  0  0
 51125  1  0  0  0
 52126  1  0  0  0
 52127  1  0  0  0
 53 54  1  0  0  0
 54 55  2  0  0  0
 54128  1  0  0  0
 55 57  1  0  0  0
 55129  1  0  0  0
 56 69  2  0  0  0
 57 58  2  0  0  0
 57130  1  0  0  0
 58131  1  0  0  0
 59 60  1  0  0  0
 59 61  1  0  0  0
 59 62  1  0  0  0
 60132  1  0  0  0
 60133  1  0  0  0
 60134  1  0  0  0
 61135  1  0  0  0
 61136  1  0  0  0
 61137  1  0  0  0
 62138  1  0  0  0
 62139  1  0  0  0
 62140  1  0  0  0
 63 65  1  0  0  0
 63141  1  0  0  0
 63142  1  0  0  0
 63143  1  0  0  0
 64144  1  0  0  0
 65145  1  0  0  0
 68 76  1  0  0  0
 71 73  2  0  0  0
 71 75  1  0  0  0
 71146  1  0  0  0
 72 74  2  0  0  0
 72 80  1  0  0  0
 72147  1  0  0  0
 73 74  1  0  0  0
 73 79  1  0  0  0
 74 81  1  0  0  0
 75 80  2  0  0  0
 75 82  1  0  0  0
 76 77  2  0  0  0
 76148  1  0  0  0
 77 78  1  0  0  0
 77 84  1  0  0  0
 78 81  1  0  0  0
 78 83  2  0  0  0
 79 85  1  0  0  0
 79 86  1  0  0  0
 79149  1  0  0  0
 81150  1  0  0  0
 82151  1  0  0  0
 84152  1  0  0  0
M  ISO  4   1 100  68 101  76 101  82 100
M  END
> <chiral flag>
0

> <version>
0

> <s_m_source_file>
/data/baiqing/PycharmProjects/Reinvent-master-3.2/result/LINK_invent/BTK/process_docking_weight1_custom_product_contain_oxygen_bond_distance_aromatic_linkinvent_7_9_3/rearranged_h_0168.sdf

> <i_m_source_file_index>
86

> <r_mmod_Potential_Energy-OPLS-2005>
58.648021697998

> <r_mmod_Stretch_Energy-OPLS-2005>
116.998046875

> <r_mmod_Bend_Energy-OPLS-2005>
240.363677978516

> <r_mmod_Torsional_Energy-OPLS-2005>
244.884857177734

> <r_mmod_Improper_Torsional_Energy-OPLS-2005>
7.53670740127563

> <r_mmod_Van_der_Waal_Energy-OPLS-2005>
146.434997558594

> <r_mmod_Electrostatic_Energy-OPLS-2005>
-519.885009765625

> <r_mmod_Solvation_Energy-OPLS-2005>
-273.198760986328

> <b_mmod_Minimization_Converged-OPLS-2005>
0

> <r_mmod_RMS_Derivative-OPLS-2005>
0.18716461956501

$$$$
86
                    3D
 Structure written by MMmdl.
151159  0  0  1  0            999 V2000
  -30.6782  -14.5592   20.5284 C   0  0  0  0  0  0
  -30.4249  -12.3529   19.4434 C   0  0  0  0  0  0
  -29.5032  -12.5257   18.2161 C   0  0  0  0  0  0
  -28.0235  -12.3754   18.6216 C   0  0  0  0  0  0
  -27.6588  -13.2178   19.8734 C   0  0  2  0  0  0
  -28.7026  -13.0459   21.0020 C   0  0  0  0  0  0
  -25.2579  -13.8186   20.5674 C   0  0  0  0  0  0
  -24.1833  -13.0468   20.9190 C   0  0  0  0  0  0
  -24.6408  -11.6930   20.8748 C   0  0  0  0  0  0
  -23.9073  -10.4311   21.0390 C   0  0  0  0  0  0
  -24.3640   -9.4238   21.9174 C   0  0  0  0  0  0
  -23.6331   -8.2257   22.0726 C   0  0  0  0  0  0
  -22.4311   -8.0288   21.3512 C   0  0  0  0  0  0
  -21.9937   -9.0260   20.4625 C   0  0  0  0  0  0
  -22.7240  -10.2155   20.3043 C   0  0  0  0  0  0
  -21.6864   -6.0759   22.5288 C   0  0  0  0  0  0
  -21.4013   -6.5657   23.8224 C   0  0  0  0  0  0
  -21.3661   -5.6793   24.9169 C   0  0  0  0  0  0
  -21.6061   -4.3064   24.7218 C   0  0  0  0  0  0
  -21.8811   -3.8158   23.4331 C   0  0  0  0  0  0
  -21.9194   -4.6979   22.3393 C   0  0  0  0  0  0
  -22.7865  -13.5264   21.1846 C   0  0  0  0  0  0
  -22.1651   -4.2156   21.0966 F   0  0  0  0  0  0
  -21.5637   -3.4557   25.7737 F   0  0  0  0  0  0
  -30.0289  -13.3598   20.4472 N   0  0  0  0  0  0
  -26.3019  -12.9375   20.3358 N   0  0  0  0  0  0
  -25.9347  -11.6528   20.5784 N   0  0  0  0  0  0
  -22.0455  -12.8283   22.0394 N   0  0  0  0  0  0
  -25.4349  -15.1889   20.4044 N   0  0  0  0  0  0
  -31.8083  -14.7217   20.0590 O   0  0  0  0  0  0
  -21.6649   -6.8905   21.4240 O   0  0  0  0  0  0
  -22.3587  -14.5590   20.6711 O   0  0  0  0  0  0
  -24.6153  -31.8642   23.2000 C   0  0  0  0  0  0
  -25.9030  -32.4798   23.8339 C   0  0  1  0  0  0
  -27.2712  -27.4055   20.1283 C   0  0  0  0  0  0
  -25.5875  -33.8596   24.2276 N   0  0  0  0  0  0
  -23.4116  -30.4750   21.5386 C   0  0  2  0  0  0
  -24.8702  -28.9293   20.1175 C   0  0  0  0  0  0
  -22.7445  -29.4630   22.4976 C   0  0  0  0  0  0
  -18.0290  -28.1372   22.8504 C   0  0  0  0  0  0
  -24.1500  -36.7293   23.2647 C   0  0  0  0  0  0
  -25.9374  -30.8256   21.3559 C   0  0  0  0  0  0
  -26.0247  -29.4533   20.7109 C   0  0  0  0  0  0
  -27.2198  -28.6969   20.7091 C   0  0  0  0  0  0
  -26.0957  -26.8990   19.5258 C   0  0  0  0  0  0
  -24.9032  -27.6533   19.5223 C   0  0  0  0  0  0
  -23.6250  -29.7865   20.1616 C   0  0  0  0  0  0
  -25.4114  -36.3086   24.0347 C   0  0  1  0  0  0
  -20.5880  -28.3669   23.1325 C   0  0  2  0  0  0
  -20.6787  -26.9402   22.5430 C   0  0  0  0  0  0
  -19.5751  -26.6378   21.5237 C   0  0  0  0  0  0
  -18.1924  -26.7927   22.1637 C   0  0  0  0  0  0
  -19.1538  -28.8838   23.2906 C   0  0  0  0  0  0
  -18.9466  -30.1449   23.8896 C   0  0  0  0  0  0
  -17.6465  -30.6584   24.0556 C   0  0  0  0  0  0
  -25.9033  -34.9462   23.5118 C   0  0  0  0  0  0
  -16.5354  -29.9078   23.6312 C   0  0  0  0  0  0
  -16.7282  -28.6491   23.0349 C   0  0  0  0  0  0
  -26.4452  -31.6592   25.0683 C   0  0  0  0  0  0
  -25.3697  -31.3759   26.1421 C   0  0  0  0  0  0
  -27.0296  -30.3025   24.6093 C   0  0  0  0  0  0
  -27.5994  -32.4350   25.7443 C   0  0  0  0  0  0
  -27.5584  -37.1801   24.8459 C   0  0  0  0  0  0
  -21.4165  -29.3031   22.3724 N   0  0  0  0  0  0
  -26.4297  -37.3762   23.9402 N   0  0  0  0  0  0
  -24.6719  -31.0734   22.0894 N   0  0  0  0  0  0
  -23.4184  -28.8204   23.3074 O   0  0  0  0  0  0
  -28.4657  -26.7044   20.2156 O   0  0  0  0  0  0
  -26.5599  -34.8931   22.4683 O   0  0  0  0  0  0
  -23.5336  -32.1391   23.7378 O   0  0  0  0  0  0
  -29.5469  -16.9442   19.0285 C   0  0  0  0  0  0
  -29.8909  -16.9166   20.4054 C   0  0  0  0  0  0
  -29.8414  -19.2816   20.3791 C   0  0  0  0  0  0
  -29.4979  -19.2489   18.9995 C   0  0  0  0  0  0
  -29.4257  -22.9238   20.3932 C   0  0  0  0  0  0
  -28.4679  -24.1829   20.5373 C   0  0  0  0  0  0
  -28.9989  -21.5506   20.9975 C   0  0  0  0  0  0
  -28.6880  -25.4094   19.5991 C   0  0  0  0  0  0
  -29.3468  -18.0855   18.3309 N   0  0  0  0  0  0
  -30.0204  -18.1115   21.0778 N   0  0  0  0  0  0
  -29.9795  -15.6153   21.0273 N   0  0  0  0  0  0
  -30.0578  -20.5077   21.0573 N   0  0  0  0  0  0
  -30.5287  -23.0179   19.8357 O   0  0  0  0  0  0
  -27.5576  -24.1834   21.3780 O   0  0  0  0  0  0
  -29.3120  -20.4038   18.3153 F   0  0  0  0  0  0
  -31.4706  -12.4456   19.1474 H   0  0  0  0  0  0
  -30.3219  -11.3491   19.8594 H   0  0  0  0  0  0
  -29.7563  -11.7946   17.4475 H   0  0  0  0  0  0
  -29.6648  -13.5065   17.7640 H   0  0  0  0  0  0
  -27.8326  -11.3197   18.8125 H   0  0  0  0  0  0
  -27.3756  -12.6501   17.7866 H   0  0  0  0  0  0
  -27.6894  -14.2600   19.5599 H   0  0  0  0  0  0
  -28.6887  -12.0241   21.3807 H   0  0  0  0  0  0
  -28.4575  -13.6817   21.8545 H   0  0  0  0  0  0
  -25.2760   -9.5743   22.4781 H   0  0  0  0  0  0
  -24.0047   -7.4661   22.7479 H   0  0  0  0  0  0
  -21.0850   -8.8786   19.8971 H   0  0  0  0  0  0
  -22.3664  -10.9709   19.6184 H   0  0  0  0  0  0
  -21.1990   -7.6159   23.9730 H   0  0  0  0  0  0
  -21.1496   -6.0506   25.9079 H   0  0  0  0  0  0
  -22.0594   -2.7626   23.2812 H   0  0  0  0  0  0
  -22.4062  -11.9950   22.4797 H   0  0  0  0  0  0
  -21.1070  -13.1340   22.2571 H   0  0  0  0  0  0
  -24.6765  -15.8546   20.5139 H   0  0  0  0  0  0
  -26.2939  -15.6174   20.0861 H   0  0  0  0  0  0
  -26.7115  -32.5514   23.1114 H   0  0  0  0  0  0
  -25.0021  -33.9743   25.0422 H   0  0  0  0  0  0
  -22.7012  -31.2876   21.3805 H   0  0  0  0  0  0
  -23.3753  -35.9633   23.3309 H   0  0  0  0  0  0
  -24.3590  -36.8904   22.2059 H   0  0  0  0  0  0
  -23.7273  -37.6513   23.6654 H   0  0  0  0  0  0
  -26.0558  -31.5906   20.5863 H   0  0  0  0  0  0
  -26.8219  -30.8834   21.9794 H   0  0  0  0  0  0
  -28.1109  -29.1049   21.1693 H   0  0  0  0  0  0
  -26.0856  -25.9152   19.0831 H   0  0  0  0  0  0
  -24.0103  -27.2380   19.0752 H   0  0  0  0  0  0
  -23.7233  -30.5404   19.3799 H   0  0  0  0  0  0
  -22.7607  -29.1806   19.8830 H   0  0  0  0  0  0
  -25.1307  -36.1945   25.0841 H   0  0  0  0  0  0
  -20.9976  -28.3249   24.1446 H   0  0  0  0  0  0
  -20.5728  -26.2283   23.3626 H   0  0  0  0  0  0
  -21.6658  -26.7477   22.1189 H   0  0  0  0  0  0
  -19.6909  -25.6288   21.1256 H   0  0  0  0  0  0
  -19.6681  -27.3207   20.6772 H   0  0  0  0  0  0
  -17.4218  -26.6721   21.4000 H   0  0  0  0  0  0
  -18.0283  -26.0050   22.9012 H   0  0  0  0  0  0
  -19.7936  -30.7278   24.2262 H   0  0  0  0  0  0
  -17.5009  -31.6261   24.5179 H   0  0  0  0  0  0
  -15.5343  -30.2982   23.7633 H   0  0  0  0  0  0
  -15.8683  -28.0808   22.7056 H   0  0  0  0  0  0
  -24.5803  -30.7194   25.7746 H   0  0  0  0  0  0
  -24.8954  -32.2960   26.4846 H   0  0  0  0  0  0
  -25.8007  -30.8898   27.0179 H   0  0  0  0  0  0
  -26.2866  -29.6774   24.1122 H   0  0  0  0  0  0
  -27.4039  -29.7280   25.4576 H   0  0  0  0  0  0
  -27.8696  -30.4322   23.9260 H   0  0  0  0  0  0
  -27.2550  -33.3625   26.2025 H   0  0  0  0  0  0
  -28.3767  -32.6982   25.0259 H   0  0  0  0  0  0
  -28.0685  -31.8485   26.5347 H   0  0  0  0  0  0
  -28.2612  -38.0091   24.7494 H   0  0  0  0  0  0
  -28.1087  -36.2625   24.6305 H   0  0  0  0  0  0
  -27.2304  -37.1468   25.8866 H   0  0  0  0  0  0
  -20.9364  -29.8691   21.6863 H   0  0  0  0  0  0
  -26.0196  -38.2861   24.1342 H   0  0  0  0  0  0
  -29.3928  -16.0283   18.4792 H   0  0  0  0  0  0
  -28.1411  -21.2007   20.4245 H   0  0  0  0  0  0
  -28.6391  -21.7332   22.0104 H   0  0  0  0  0  0
  -28.1038  -25.2978   18.6880 H   0  0  0  0  0  0
  -29.7330  -25.3995   19.2902 H   0  0  0  0  0  0
  -29.1787  -15.3597   21.5841 H   0  0  0  0  0  0
  -30.8963  -20.9565   20.6899 H   0  0  0  0  0  0
  1 25  1  0  0  0
  1 30  2  0  0  0
  1 81  1  0  0  0
  2  3  1  0  0  0
  2 25  1  0  0  0
  2 86  1  0  0  0
  2 87  1  0  0  0
  3  4  1  0  0  0
  3 88  1  0  0  0
  3 89  1  0  0  0
  4  5  1  0  0  0
  4 90  1  0  0  0
  4 91  1  0  0  0
  5  6  1  0  0  0
  5 26  1  0  0  0
  5 92  1  0  0  0
  6 25  1  0  0  0
  6 93  1  0  0  0
  6 94  1  0  0  0
  7  8  2  0  0  0
  7 26  1  0  0  0
  7 29  1  0  0  0
  8  9  1  0  0  0
  8 22  1  0  0  0
  9 10  1  0  0  0
  9 27  2  0  0  0
 10 11  2  0  0  0
 10 15  1  0  0  0
 11 12  1  0  0  0
 11 95  1  0  0  0
 12 13  2  0  0  0
 12 96  1  0  0  0
 13 14  1  0  0  0
 13 31  1  0  0  0
 14 15  2  0  0  0
 14 97  1  0  0  0
 15 98  1  0  0  0
 16 17  2  0  0  0
 16 21  1  0  0  0
 16 31  1  0  0  0
 17 18  1  0  0  0
 17 99  1  0  0  0
 18 19  2  0  0  0
 18100  1  0  0  0
 19 20  1  0  0  0
 19 24  1  0  0  0
 20 21  2  0  0  0
 20101  1  0  0  0
 21 23  1  0  0  0
 22 28  1  0  0  0
 22 32  2  0  0  0
 26 27  1  0  0  0
 28102  1  0  0  0
 28103  1  0  0  0
 29104  1  0  0  0
 29105  1  0  0  0
 33 34  1  0  0  0
 33 66  1  0  0  0
 33 70  2  0  0  0
 34 36  1  0  0  0
 34 59  1  0  0  0
 34106  1  0  0  0
 35 44  2  0  0  0
 35 45  1  0  0  0
 35 68  1  0  0  0
 36 56  1  0  0  0
 36107  1  0  0  0
 37 39  1  0  0  0
 37 47  1  0  0  0
 37 66  1  0  0  0
 37108  1  0  0  0
 38 43  2  0  0  0
 38 46  1  0  0  0
 38 47  1  0  0  0
 39 64  1  0  0  0
 39 67  2  0  0  0
 40 52  1  0  0  0
 40 53  2  0  0  0
 40 58  1  0  0  0
 41109  1  0  0  0
 41110  1  0  0  0
 41111  1  0  0  0
 41 48  1  0  0  0
 42 43  1  0  0  0
 42 66  1  0  0  0
 42112  1  0  0  0
 42113  1  0  0  0
 43 44  1  0  0  0
 44114  1  0  0  0
 45 46  2  0  0  0
 45115  1  0  0  0
 46116  1  0  0  0
 47117  1  0  0  0
 47118  1  0  0  0
 48 56  1  0  0  0
 48 65  1  0  0  0
 48119  1  0  0  0
 49 50  1  0  0  0
 49 53  1  0  0  0
 49 64  1  0  0  0
 49120  1  0  0  0
 50 51  1  0  0  0
 50121  1  0  0  0
 50122  1  0  0  0
 51 52  1  0  0  0
 51123  1  0  0  0
 51124  1  0  0  0
 52125  1  0  0  0
 52126  1  0  0  0
 53 54  1  0  0  0
 54 55  2  0  0  0
 54127  1  0  0  0
 55 57  1  0  0  0
 55128  1  0  0  0
 56 69  2  0  0  0
 57 58  2  0  0  0
 57129  1  0  0  0
 58130  1  0  0  0
 59 60  1  0  0  0
 59 61  1  0  0  0
 59 62  1  0  0  0
 60131  1  0  0  0
 60132  1  0  0  0
 60133  1  0  0  0
 61134  1  0  0  0
 61135  1  0  0  0
 61136  1  0  0  0
 62137  1  0  0  0
 62138  1  0  0  0
 62139  1  0  0  0
 63 65  1  0  0  0
 63140  1  0  0  0
 63141  1  0  0  0
 63142  1  0  0  0
 64143  1  0  0  0
 65144  1  0  0  0
 68 78  1  0  0  0
 71 72  2  0  0  0
 71 79  1  0  0  0
 71145  1  0  0  0
 72 80  1  0  0  0
 72 81  1  0  0  0
 73 74  1  0  0  0
 73 80  2  0  0  0
 73 82  1  0  0  0
 74 79  2  0  0  0
 74 85  1  0  0  0
 75 76  1  0  0  0
 75 77  1  0  0  0
 75 83  2  0  0  0
 76 78  1  0  0  0
 76 84  2  0  0  0
 77 82  1  0  0  0
 77146  1  0  0  0
 77147  1  0  0  0
 78148  1  0  0  0
 78149  1  0  0  0
 81150  1  0  0  0
 82151  1  0  0  0
M  ISO  4   1 100  68 101  78 101  81 100
M  END
> <chiral flag>
0

> <version>
0

> <s_m_source_file>
/data/baiqing/PycharmProjects/Reinvent-master-3.2/result/LINK_invent/BTK/process_docking_weight1_custom_product_contain_oxygen_bond_distance_aromatic_linkinvent_7_9_3/rearranged_h_0168.sdf

> <i_m_source_file_index>
87

> <r_mmod_Potential_Energy-OPLS-2005>
134.097564697266

> <r_mmod_Stretch_Energy-OPLS-2005>
59.0987319946289

> <r_mmod_Bend_Energy-OPLS-2005>
124.989242553711

> <r_mmod_Torsional_Energy-OPLS-2005>
262.662933349609

> <r_mmod_Improper_Torsional_Energy-OPLS-2005>
11.7378015518188

> <r_mmod_Van_der_Waal_Energy-OPLS-2005>
145.435913085938

> <r_mmod_Electrostatic_Energy-OPLS-2005>
-239.741012573242

> <r_mmod_Solvation_Energy-OPLS-2005>
-255.350280761719

> <b_mmod_Minimization_Converged-OPLS-2005>
0

> <r_mmod_RMS_Derivative-OPLS-2005>
4.27936363220215

$$$$
87
                    3D
 Structure written by MMmdl.
156164  0  0  1  0            999 V2000
  -30.7074  -14.4774   20.5915 C   0  0  0  0  0  0
  -30.4255  -12.3149   19.4293 C   0  0  0  0  0  0
  -29.4968  -12.5034   18.2118 C   0  0  0  0  0  0
  -28.0200  -12.3560   18.6263 C   0  0  0  0  0  0
  -27.6637  -13.2047   19.8760 C   0  0  2  0  0  0
  -28.7039  -12.9889   20.9995 C   0  0  0  0  0  0
  -25.2589  -13.8152   20.5686 C   0  0  0  0  0  0
  -24.1838  -13.0436   20.9175 C   0  0  0  0  0  0
  -24.6391  -11.6905   20.8733 C   0  0  0  0  0  0
  -23.9055  -10.4291   21.0405 C   0  0  0  0  0  0
  -24.3605   -9.4210   21.9191 C   0  0  0  0  0  0
  -23.6283   -8.2239   22.0754 C   0  0  0  0  0  0
  -22.4269   -8.0280   21.3538 C   0  0  0  0  0  0
  -21.9904   -9.0257   20.4654 C   0  0  0  0  0  0
  -22.7221  -10.2142   20.3060 C   0  0  0  0  0  0
  -21.6854   -6.0738   22.5280 C   0  0  0  0  0  0
  -21.4018   -6.5640   23.8216 C   0  0  0  0  0  0
  -21.3661   -5.6785   24.9178 C   0  0  0  0  0  0
  -21.6040   -4.3048   24.7221 C   0  0  0  0  0  0
  -21.8819   -3.8145   23.4342 C   0  0  0  0  0  0
  -21.9190   -4.6967   22.3399 C   0  0  0  0  0  0
  -22.7862  -13.5242   21.1835 C   0  0  0  0  0  0
  -22.1659   -4.2150   21.0978 F   0  0  0  0  0  0
  -21.5627   -3.4536   25.7739 F   0  0  0  0  0  0
  -30.0360  -13.3002   20.4523 N   0  0  0  0  0  0
  -26.3029  -12.9317   20.3362 N   0  0  0  0  0  0
  -25.9316  -11.6481   20.5755 N   0  0  0  0  0  0
  -22.0495  -12.8256   22.0407 N   0  0  0  0  0  0
  -25.4332  -15.1872   20.4118 N   0  0  0  0  0  0
  -31.8002  -14.6774   20.0556 O   0  0  0  0  0  0
  -21.6631   -6.8879   21.4239 O   0  0  0  0  0  0
  -22.3554  -14.5548   20.6679 O   0  0  0  0  0  0
  -24.6121  -31.8698   23.2119 C   0  0  0  0  0  0
  -25.9018  -32.4821   23.8419 C   0  0  1  0  0  0
  -27.2335  -27.4472   20.0983 C   0  0  0  0  0  0
  -25.5878  -33.8625   24.2341 N   0  0  0  0  0  0
  -23.4003  -30.4948   21.5499 C   0  0  2  0  0  0
  -24.8501  -28.9650   20.1105 C   0  0  0  0  0  0
  -22.7399  -29.4680   22.4970 C   0  0  0  0  0  0
  -18.0271  -28.1382   22.8493 C   0  0  0  0  0  0
  -24.1481  -36.7324   23.2641 C   0  0  0  0  0  0
  -25.9296  -30.8390   21.3662 C   0  0  0  0  0  0
  -26.0095  -29.4767   20.7079 C   0  0  0  0  0  0
  -27.2080  -28.7270   20.6972 C   0  0  0  0  0  0
  -26.0603  -26.9481   19.4939 C   0  0  0  0  0  0
  -24.8715  -27.7001   19.4978 C   0  0  0  0  0  0
  -23.6099  -29.8297   20.1628 C   0  0  0  0  0  0
  -25.4098  -36.3114   24.0341 C   0  0  1  0  0  0
  -20.5866  -28.3676   23.1313 C   0  0  2  0  0  0
  -20.6755  -26.9407   22.5421 C   0  0  0  0  0  0
  -19.5734  -26.6388   21.5214 C   0  0  0  0  0  0
  -18.1914  -26.7927   22.1627 C   0  0  0  0  0  0
  -19.1520  -28.8842   23.2906 C   0  0  0  0  0  0
  -18.9447  -30.1443   23.8923 C   0  0  0  0  0  0
  -17.6453  -30.6588   24.0575 C   0  0  0  0  0  0
  -25.9030  -34.9468   23.5140 C   0  0  0  0  0  0
  -16.5345  -29.9093   23.6322 C   0  0  0  0  0  0
  -16.7264  -28.6509   23.0345 C   0  0  0  0  0  0
  -26.4455  -31.6608   25.0745 C   0  0  0  0  0  0
  -25.3728  -31.3728   26.1507 C   0  0  0  0  0  0
  -27.0282  -30.3041   24.6133 C   0  0  0  0  0  0
  -27.6033  -32.4339   25.7480 C   0  0  0  0  0  0
  -27.5580  -37.1811   24.8461 C   0  0  0  0  0  0
  -21.4126  -29.3049   22.3715 N   0  0  0  0  0  0
  -26.4288  -37.3793   23.9411 N   0  0  0  0  0  0
  -24.6643  -31.0818   22.1004 N   0  0  0  0  0  0
  -23.4180  -28.8215   23.2993 O   0  0  0  0  0  0
  -28.3749  -26.6797   20.1099 O   0  0  0  0  0  0
  -26.5596  -34.8918   22.4704 O   0  0  0  0  0  0
  -23.5317  -32.1446   23.7518 O   0  0  0  0  0  0
  -31.4782  -17.4644   21.6400 C   0  0  0  0  0  0
  -31.3263  -18.9047   21.6781 C   0  0  0  0  0  0
  -30.3143  -16.7827   21.3328 C   0  0  0  0  0  0
  -30.0191  -19.3023   21.4460 C   0  0  0  0  0  0
  -28.7358  -22.8996   21.0078 C   0  0  0  0  0  0
  -28.9558  -24.2638   20.2850 C   0  0  0  0  0  0
  -32.7717  -16.7670   21.9767 C   0  0  0  0  0  0
  -29.5603  -21.6522   20.6023 C   0  0  0  0  0  0
  -28.2277  -25.4793   20.8924 C   0  0  0  0  0  0
  -32.4899  -19.8095   22.0468 C   0  0  0  0  0  0
  -30.0547  -15.4395   21.2787 N   0  0  0  0  0  0
  -29.3823  -20.5503   21.5671 N   0  0  0  0  0  0
  -27.8884  -22.8018   21.9070 O   0  0  0  0  0  0
  -29.6635  -24.3589   19.2729 O   0  0  0  0  0  0
  -32.7949  -19.6895   23.3402 F   0  0  0  0  0  0
  -33.5843  -19.5044   21.3469 F   0  0  0  0  0  0
  -32.2574  -21.1010   21.8261 F   0  0  0  0  0  0
  -29.0030  -17.9187   21.1271 S   0  0  0  0  0  0
  -31.4704  -12.4136   19.1302 H   0  0  0  0  0  0
  -30.3295  -11.3066   19.8337 H   0  0  0  0  0  0
  -29.7417  -11.7741   17.4386 H   0  0  0  0  0  0
  -29.6572  -13.4874   17.7694 H   0  0  0  0  0  0
  -27.8425  -11.3015   18.8369 H   0  0  0  0  0  0
  -27.3639  -12.6137   17.7945 H   0  0  0  0  0  0
  -27.7072  -14.2513   19.5725 H   0  0  0  0  0  0
  -28.6852  -11.9506   21.3343 H   0  0  0  0  0  0
  -28.4533  -13.5792   21.8817 H   0  0  0  0  0  0
  -25.2757   -9.5687   22.4756 H   0  0  0  0  0  0
  -24.0005   -7.4628   22.7472 H   0  0  0  0  0  0
  -21.0828   -8.8780   19.8957 H   0  0  0  0  0  0
  -22.3684  -10.9685   19.6165 H   0  0  0  0  0  0
  -21.2016   -7.6151   23.9722 H   0  0  0  0  0  0
  -21.1482   -6.0519   25.9080 H   0  0  0  0  0  0
  -22.0596   -2.7611   23.2839 H   0  0  0  0  0  0
  -22.4107  -11.9925   22.4804 H   0  0  0  0  0  0
  -21.1121  -13.1316   22.2606 H   0  0  0  0  0  0
  -24.6680  -15.8437   20.5192 H   0  0  0  0  0  0
  -26.2862  -15.6268   20.0896 H   0  0  0  0  0  0
  -26.7089  -32.5549   23.1189 H   0  0  0  0  0  0
  -24.9987  -33.9802   25.0456 H   0  0  0  0  0  0
  -22.6879  -31.3114   21.4125 H   0  0  0  0  0  0
  -23.3730  -35.9675   23.3313 H   0  0  0  0  0  0
  -24.3575  -36.8931   22.2058 H   0  0  0  0  0  0
  -23.7253  -37.6535   23.6656 H   0  0  0  0  0  0
  -26.0502  -31.6106   20.6049 H   0  0  0  0  0  0
  -26.8129  -30.8854   21.9906 H   0  0  0  0  0  0
  -28.1023  -29.1182   21.1625 H   0  0  0  0  0  0
  -26.0649  -25.9754   19.0219 H   0  0  0  0  0  0
  -23.9811  -27.3037   19.0298 H   0  0  0  0  0  0
  -23.7148  -30.6083   19.4051 H   0  0  0  0  0  0
  -22.7331  -29.2498   19.8676 H   0  0  0  0  0  0
  -25.1272  -36.1974   25.0836 H   0  0  0  0  0  0
  -20.9977  -28.3243   24.1426 H   0  0  0  0  0  0
  -20.5645  -26.2281   23.3610 H   0  0  0  0  0  0
  -21.6626  -26.7433   22.1224 H   0  0  0  0  0  0
  -19.6892  -25.6300   21.1235 H   0  0  0  0  0  0
  -19.6671  -27.3201   20.6744 H   0  0  0  0  0  0
  -17.4183  -26.6684   21.4031 H   0  0  0  0  0  0
  -18.0315  -26.0065   22.9018 H   0  0  0  0  0  0
  -19.7924  -30.7249   24.2308 H   0  0  0  0  0  0
  -17.5010  -31.6268   24.5172 H   0  0  0  0  0  0
  -15.5349  -30.3011   23.7621 H   0  0  0  0  0  0
  -15.8662  -28.0842   22.7046 H   0  0  0  0  0  0
  -24.5863  -30.7115   25.7856 H   0  0  0  0  0  0
  -24.8966  -32.2895   26.5001 H   0  0  0  0  0  0
  -25.8088  -30.8859   27.0240 H   0  0  0  0  0  0
  -26.2837  -29.6807   24.1162 H   0  0  0  0  0  0
  -27.4010  -29.7276   25.4610 H   0  0  0  0  0  0
  -27.8697  -30.4350   23.9322 H   0  0  0  0  0  0
  -27.2645  -33.3613   26.2112 H   0  0  0  0  0  0
  -28.3795  -32.6955   25.0277 H   0  0  0  0  0  0
  -28.0761  -31.8446   26.5345 H   0  0  0  0  0  0
  -28.2600  -38.0101   24.7489 H   0  0  0  0  0  0
  -28.1065  -36.2631   24.6291 H   0  0  0  0  0  0
  -27.2304  -37.1476   25.8865 H   0  0  0  0  0  0
  -20.9263  -29.8792   21.6974 H   0  0  0  0  0  0
  -26.0171  -38.2873   24.1400 H   0  0  0  0  0  0
  -33.3601  -17.3125   22.7129 H   0  0  0  0  0  0
  -33.3938  -16.6336   21.0909 H   0  0  0  0  0  0
  -32.5968  -15.7827   22.4098 H   0  0  0  0  0  0
  -30.6039  -21.9446   20.5089 H   0  0  0  0  0  0
  -29.2388  -21.3326   19.6106 H   0  0  0  0  0  0
  -28.6259  -25.6626   21.8904 H   0  0  0  0  0  0
  -27.1786  -25.2126   21.0234 H   0  0  0  0  0  0
  -29.1413  -15.1592   21.6021 H   0  0  0  0  0  0
  -28.4149  -20.5263   21.8867 H   0  0  0  0  0  0
  1 25  1  0  0  0
  1 30  2  0  0  0
  1 81  1  0  0  0
  2  3  1  0  0  0
  2 25  1  0  0  0
  2 89  1  0  0  0
  2 90  1  0  0  0
  3  4  1  0  0  0
  3 91  1  0  0  0
  3 92  1  0  0  0
  4  5  1  0  0  0
  4 93  1  0  0  0
  4 94  1  0  0  0
  5  6  1  0  0  0
  5 26  1  0  0  0
  5 95  1  0  0  0
  6 25  1  0  0  0
  6 96  1  0  0  0
  6 97  1  0  0  0
  7  8  2  0  0  0
  7 26  1  0  0  0
  7 29  1  0  0  0
  8  9  1  0  0  0
  8 22  1  0  0  0
  9 10  1  0  0  0
  9 27  2  0  0  0
 10 11  2  0  0  0
 10 15  1  0  0  0
 11 12  1  0  0  0
 11 98  1  0  0  0
 12 13  2  0  0  0
 12 99  1  0  0  0
 13 14  1  0  0  0
 13 31  1  0  0  0
 14 15  2  0  0  0
 14100  1  0  0  0
 15101  1  0  0  0
 16 17  2  0  0  0
 16 21  1  0  0  0
 16 31  1  0  0  0
 17 18  1  0  0  0
 17102  1  0  0  0
 18 19  2  0  0  0
 18103  1  0  0  0
 19 20  1  0  0  0
 19 24  1  0  0  0
 20 21  2  0  0  0
 20104  1  0  0  0
 21 23  1  0  0  0
 22 28  1  0  0  0
 22 32  2  0  0  0
 26 27  1  0  0  0
 28105  1  0  0  0
 28106  1  0  0  0
 29107  1  0  0  0
 29108  1  0  0  0
 33 34  1  0  0  0
 33 66  1  0  0  0
 33 70  2  0  0  0
 34 36  1  0  0  0
 34 59  1  0  0  0
 34109  1  0  0  0
 35 44  2  0  0  0
 35 45  1  0  0  0
 35 68  1  0  0  0
 36 56  1  0  0  0
 36110  1  0  0  0
 37 39  1  0  0  0
 37 47  1  0  0  0
 37 66  1  0  0  0
 37111  1  0  0  0
 38 43  2  0  0  0
 38 46  1  0  0  0
 38 47  1  0  0  0
 39 64  1  0  0  0
 39 67  2  0  0  0
 40 52  1  0  0  0
 40 53  2  0  0  0
 40 58  1  0  0  0
 41112  1  0  0  0
 41113  1  0  0  0
 41114  1  0  0  0
 41 48  1  0  0  0
 42 43  1  0  0  0
 42 66  1  0  0  0
 42115  1  0  0  0
 42116  1  0  0  0
 43 44  1  0  0  0
 44117  1  0  0  0
 45 46  2  0  0  0
 45118  1  0  0  0
 46119  1  0  0  0
 47120  1  0  0  0
 47121  1  0  0  0
 48 56  1  0  0  0
 48 65  1  0  0  0
 48122  1  0  0  0
 49 50  1  0  0  0
 49 53  1  0  0  0
 49 64  1  0  0  0
 49123  1  0  0  0
 50 51  1  0  0  0
 50124  1  0  0  0
 50125  1  0  0  0
 51 52  1  0  0  0
 51126  1  0  0  0
 51127  1  0  0  0
 52128  1  0  0  0
 52129  1  0  0  0
 53 54  1  0  0  0
 54 55  2  0  0  0
 54130  1  0  0  0
 55 57  1  0  0  0
 55131  1  0  0  0
 56 69  2  0  0  0
 57 58  2  0  0  0
 57132  1  0  0  0
 58133  1  0  0  0
 59 60  1  0  0  0
 59 61  1  0  0  0
 59 62  1  0  0  0
 60134  1  0  0  0
 60135  1  0  0  0
 60136  1  0  0  0
 61137  1  0  0  0
 61138  1  0  0  0
 61139  1  0  0  0
 62140  1  0  0  0
 62141  1  0  0  0
 62142  1  0  0  0
 63 65  1  0  0  0
 63143  1  0  0  0
 63144  1  0  0  0
 63145  1  0  0  0
 64146  1  0  0  0
 65147  1  0  0  0
 68 79  1  0  0  0
 71 72  1  0  0  0
 71 73  2  0  0  0
 71 77  1  0  0  0
 72 74  2  0  0  0
 72 80  1  0  0  0
 73 81  1  0  0  0
 73 88  1  0  0  0
 74 82  1  0  0  0
 74 88  1  0  0  0
 75 76  1  0  0  0
 75 78  1  0  0  0
 75 83  2  0  0  0
 76 79  1  0  0  0
 76 84  2  0  0  0
 77148  1  0  0  0
 77149  1  0  0  0
 77150  1  0  0  0
 78 82  1  0  0  0
 78151  1  0  0  0
 78152  1  0  0  0
 79153  1  0  0  0
 79154  1  0  0  0
 80 85  1  0  0  0
 80 86  1  0  0  0
 80 87  1  0  0  0
 81155  1  0  0  0
 82156  1  0  0  0
M  ISO  4   1 100  68 101  79 101  81 100
M  END
> <chiral flag>
0

> <version>
0

> <s_m_source_file>
/data/baiqing/PycharmProjects/Reinvent-master-3.2/result/LINK_invent/BTK/process_docking_weight1_custom_product_contain_oxygen_bond_distance_aromatic_linkinvent_7_9_3/rearranged_h_0168.sdf

> <i_m_source_file_index>
88

> <r_mmod_Potential_Energy-OPLS-2005>
174.12141418457

> <r_mmod_Stretch_Energy-OPLS-2005>
40.7464790344238

> <r_mmod_Bend_Energy-OPLS-2005>
111.89395904541

> <r_mmod_Torsional_Energy-OPLS-2005>
253.896072387695

> <r_mmod_Improper_Torsional_Energy-OPLS-2005>
7.53181982040405

> <r_mmod_Van_der_Waal_Energy-OPLS-2005>
133.021820068359

> <r_mmod_Electrostatic_Energy-OPLS-2005>
-161.169006347656

> <r_mmod_Solvation_Energy-OPLS-2005>
-224.060043334961

> <b_mmod_Minimization_Converged-OPLS-2005>
0

> <r_mmod_RMS_Derivative-OPLS-2005>
2.13129711151123

$$$$
88
                    3D
 Structure written by MMmdl.
163171  0  0  1  0            999 V2000
  -30.7313  -14.4300   20.6120 C   0  0  0  0  0  0
  -30.4204  -12.2951   19.4155 C   0  0  0  0  0  0
  -29.4926  -12.5126   18.2033 C   0  0  0  0  0  0
  -28.0146  -12.3693   18.6148 C   0  0  0  0  0  0
  -27.6639  -13.2049   19.8750 C   0  0  2  0  0  0
  -28.7031  -12.9725   20.9956 C   0  0  0  0  0  0
  -25.2604  -13.8161   20.5675 C   0  0  0  0  0  0
  -24.1846  -13.0446   20.9163 C   0  0  0  0  0  0
  -24.6389  -11.6907   20.8717 C   0  0  0  0  0  0
  -23.9056  -10.4290   21.0392 C   0  0  0  0  0  0
  -24.3615   -9.4209   21.9172 C   0  0  0  0  0  0
  -23.6288   -8.2244   22.0749 C   0  0  0  0  0  0
  -22.4272   -8.0274   21.3541 C   0  0  0  0  0  0
  -21.9899   -9.0247   20.4651 C   0  0  0  0  0  0
  -22.7226  -10.2128   20.3045 C   0  0  0  0  0  0
  -21.6859   -6.0730   22.5276 C   0  0  0  0  0  0
  -21.4013   -6.5635   23.8210 C   0  0  0  0  0  0
  -21.3658   -5.6787   24.9175 C   0  0  0  0  0  0
  -21.6043   -4.3051   24.7224 C   0  0  0  0  0  0
  -21.8819   -3.8141   23.4343 C   0  0  0  0  0  0
  -21.9201   -4.6960   22.3401 C   0  0  0  0  0  0
  -22.7870  -13.5253   21.1833 C   0  0  0  0  0  0
  -22.1664   -4.2146   21.0979 F   0  0  0  0  0  0
  -21.5636   -3.4532   25.7734 F   0  0  0  0  0  0
  -30.0409  -13.2682   20.4508 N   0  0  0  0  0  0
  -26.3033  -12.9322   20.3352 N   0  0  0  0  0  0
  -25.9316  -11.6490   20.5755 N   0  0  0  0  0  0
  -22.0503  -12.8241   22.0389 N   0  0  0  0  0  0
  -25.4357  -15.1878   20.4117 N   0  0  0  0  0  0
  -31.8372  -14.6231   20.0944 O   0  0  0  0  0  0
  -21.6643   -6.8869   21.4236 O   0  0  0  0  0  0
  -22.3554  -14.5566   20.6698 O   0  0  0  0  0  0
  -24.6130  -31.8686   23.2109 C   0  0  0  0  0  0
  -25.9041  -32.4821   23.8397 C   0  0  1  0  0  0
  -27.2358  -27.4573   20.0926 C   0  0  0  0  0  0
  -25.5913  -33.8618   24.2341 N   0  0  0  0  0  0
  -23.3990  -30.4929   21.5498 C   0  0  2  0  0  0
  -24.8455  -28.9606   20.1136 C   0  0  0  0  0  0
  -22.7396  -29.4669   22.4992 C   0  0  0  0  0  0
  -18.0267  -28.1383   22.8486 C   0  0  0  0  0  0
  -24.1483  -36.7308   23.2639 C   0  0  0  0  0  0
  -25.9258  -30.8437   21.3580 C   0  0  0  0  0  0
  -26.0053  -29.4811   20.7028 C   0  0  0  0  0  0
  -27.2060  -28.7392   20.6827 C   0  0  0  0  0  0
  -26.0600  -26.9417   19.5060 C   0  0  0  0  0  0
  -24.8676  -27.6902   19.5111 C   0  0  0  0  0  0
  -23.6051  -29.8225   20.1645 C   0  0  0  0  0  0
  -25.4104  -36.3112   24.0346 C   0  0  1  0  0  0
  -20.5856  -28.3660   23.1327 C   0  0  2  0  0  0
  -20.6751  -26.9392   22.5440 C   0  0  0  0  0  0
  -19.5751  -26.6381   21.5214 C   0  0  0  0  0  0
  -18.1915  -26.7941   22.1587 C   0  0  0  0  0  0
  -19.1516  -28.8836   23.2907 C   0  0  0  0  0  0
  -18.9443  -30.1443   23.8916 C   0  0  0  0  0  0
  -17.6445  -30.6584   24.0566 C   0  0  0  0  0  0
  -25.9033  -34.9478   23.5136 C   0  0  0  0  0  0
  -16.5335  -29.9085   23.6332 C   0  0  0  0  0  0
  -16.7253  -28.6509   23.0340 C   0  0  0  0  0  0
  -26.4475  -31.6593   25.0719 C   0  0  0  0  0  0
  -25.3753  -31.3725   26.1484 C   0  0  0  0  0  0
  -27.0264  -30.3019   24.6093 C   0  0  0  0  0  0
  -27.6077  -32.4298   25.7460 C   0  0  0  0  0  0
  -27.5592  -37.1797   24.8460 C   0  0  0  0  0  0
  -21.4127  -29.3027   22.3728 N   0  0  0  0  0  0
  -26.4292  -37.3800   23.9423 N   0  0  0  0  0  0
  -24.6640  -31.0821   22.0983 N   0  0  0  0  0  0
  -23.4180  -28.8220   23.3032 O   0  0  0  0  0  0
  -28.4055  -26.7339   20.0952 O   0  0  0  0  0  0
  -26.5577  -34.8933   22.4684 O   0  0  0  0  0  0
  -23.5328  -32.1425   23.7524 O   0  0  0  0  0  0
  -31.5888  -17.2096   21.9016 C   0  0  0  0  0  0
  -31.9110  -18.5799   21.8844 C   0  0  0  0  0  0
  -31.0280  -19.4790   21.2558 C   0  0  0  0  0  0
  -29.8286  -18.9677   20.6920 C   0  0  0  0  0  0
  -30.3996  -16.7660   21.2866 C   0  0  0  0  0  0
  -28.7095  -20.9813   20.1416 C   0  0  0  0  0  0
  -27.3648  -23.1301   19.9049 C   0  0  0  0  0  0
  -33.1980  -19.0809   22.5096 C   0  0  0  0  0  0
  -25.9019  -20.6651   17.9505 C   0  0  0  0  0  0
  -28.3147  -24.3045   19.6084 C   0  0  0  0  0  0
  -28.3120  -25.4270   20.6742 C   0  0  0  0  0  0
  -27.6985  -21.7505   19.3003 C   0  0  2  0  0  0
  -29.5345  -17.6467   20.7289 N   0  0  0  0  0  0
  -28.8802  -19.7246   19.9837 N   0  0  0  0  0  0
  -30.0912  -15.3850   21.3065 N   0  0  0  0  0  0
  -26.4303  -20.9959   19.2892 N   0  3  0  0  0  0
  -26.3286  -23.3170   20.5545 O   0  0  0  0  0  0
  -31.3603  -20.7923   21.1812 F   0  0  0  0  0  0
  -31.4655  -12.3870   19.1143 H   0  0  0  0  0  0
  -30.3134  -11.2802   19.8026 H   0  0  0  0  0  0
  -29.7332  -11.8015   17.4117 H   0  0  0  0  0  0
  -29.6605  -13.5055   17.7818 H   0  0  0  0  0  0
  -27.8241  -11.3121   18.8060 H   0  0  0  0  0  0
  -27.3636  -12.6460   17.7846 H   0  0  0  0  0  0
  -27.7129  -14.2550   19.5843 H   0  0  0  0  0  0
  -28.6699  -11.9341   21.3305 H   0  0  0  0  0  0
  -28.4580  -13.5648   21.8776 H   0  0  0  0  0  0
  -25.2768   -9.5695   22.4736 H   0  0  0  0  0  0
  -24.0012   -7.4641   22.7465 H   0  0  0  0  0  0
  -21.0829   -8.8762   19.8959 H   0  0  0  0  0  0
  -22.3684  -10.9660   19.6147 H   0  0  0  0  0  0
  -21.1978   -7.6144   23.9713 H   0  0  0  0  0  0
  -21.1489   -6.0515   25.9081 H   0  0  0  0  0  0
  -22.0595   -2.7599   23.2843 H   0  0  0  0  0  0
  -22.4113  -11.9900   22.4775 H   0  0  0  0  0  0
  -21.1128  -13.1281   22.2603 H   0  0  0  0  0  0
  -24.6731  -15.8467   20.5271 H   0  0  0  0  0  0
  -26.2989  -15.6281   20.1169 H   0  0  0  0  0  0
  -26.7113  -32.5537   23.1162 H   0  0  0  0  0  0
  -25.0110  -33.9775   25.0519 H   0  0  0  0  0  0
  -22.6868  -31.3085   21.4109 H   0  0  0  0  0  0
  -23.3762  -35.9622   23.3275 H   0  0  0  0  0  0
  -24.3595  -36.8938   22.2060 H   0  0  0  0  0  0
  -23.7204  -37.6497   23.6659 H   0  0  0  0  0  0
  -26.0374  -31.6134   20.5931 H   0  0  0  0  0  0
  -26.8134  -30.8934   21.9774 H   0  0  0  0  0  0
  -28.1045  -29.1401   21.1321 H   0  0  0  0  0  0
  -26.0591  -25.9675   19.0400 H   0  0  0  0  0  0
  -23.9758  -27.2846   19.0526 H   0  0  0  0  0  0
  -23.7078  -30.5952   19.4022 H   0  0  0  0  0  0
  -22.7316  -29.2370   19.8723 H   0  0  0  0  0  0
  -25.1287  -36.1964   25.0843 H   0  0  0  0  0  0
  -20.9944  -28.3218   24.1450 H   0  0  0  0  0  0
  -20.5615  -26.2270   23.3630 H   0  0  0  0  0  0
  -21.6626  -26.7417   22.1249 H   0  0  0  0  0  0
  -19.6901  -25.6289   21.1240 H   0  0  0  0  0  0
  -19.6724  -27.3192   20.6751 H   0  0  0  0  0  0
  -17.4210  -26.6737   21.3958 H   0  0  0  0  0  0
  -18.0269  -26.0062   22.8954 H   0  0  0  0  0  0
  -19.7919  -30.7256   24.2288 H   0  0  0  0  0  0
  -17.5004  -31.6267   24.5163 H   0  0  0  0  0  0
  -15.5336  -30.2988   23.7670 H   0  0  0  0  0  0
  -15.8650  -28.0843   22.7041 H   0  0  0  0  0  0
  -24.5978  -30.6980   25.7879 H   0  0  0  0  0  0
  -24.8871  -32.2874   26.4859 H   0  0  0  0  0  0
  -25.8134  -30.9007   27.0288 H   0  0  0  0  0  0
  -26.2776  -29.6797   24.1175 H   0  0  0  0  0  0
  -27.4034  -29.7251   25.4550 H   0  0  0  0  0  0
  -27.8627  -30.4299   23.9216 H   0  0  0  0  0  0
  -27.2736  -33.3610   26.2053 H   0  0  0  0  0  0
  -28.3881  -32.6830   25.0269 H   0  0  0  0  0  0
  -28.0754  -31.8404   26.5360 H   0  0  0  0  0  0
  -28.2607  -38.0099   24.7515 H   0  0  0  0  0  0
  -28.1087  -36.2634   24.6248 H   0  0  0  0  0  0
  -27.2337  -37.1395   25.8871 H   0  0  0  0  0  0
  -20.9278  -29.8751   21.6958 H   0  0  0  0  0  0
  -26.0182  -38.2874   24.1449 H   0  0  0  0  0  0
  -32.2619  -16.5018   22.3653 H   0  0  0  0  0  0
  -29.2464  -21.5798   20.8819 H   0  0  0  0  0  0
  -33.7501  -18.2729   22.9895 H   0  0  0  0  0  0
  -32.9855  -19.8406   23.2618 H   0  0  0  0  0  0
  -33.8388  -19.5263   21.7487 H   0  0  0  0  0  0
  -24.9632  -20.1177   18.0414 H   0  0  0  0  0  0
  -26.6020  -20.0363   17.3993 H   0  0  0  0  0  0
  -25.7090  -21.5642   17.3644 H   0  0  0  0  0  0
  -28.0024  -24.7197   18.6509 H   0  0  0  0  0  0
  -29.3298  -23.9355   19.4603 H   0  0  0  0  0  0
  -29.1852  -25.2976   21.3139 H   0  0  0  0  0  0
  -27.4587  -25.3705   21.3534 H   0  0  0  0  0  0
  -28.0940  -21.8676   18.2912 H   0  0  0  0  0  0
  -29.1593  -15.1414   21.5984 H   0  0  0  0  0  0
  -26.5908  -20.1455   19.8063 H   0  0  0  0  0  0
  -25.7754  -21.5716   19.8032 H   0  0  0  0  0  0
  1 25  1  0  0  0
  1 30  2  0  0  0
  1 85  1  0  0  0
  2  3  1  0  0  0
  2 25  1  0  0  0
  2 89  1  0  0  0
  2 90  1  0  0  0
  3  4  1  0  0  0
  3 91  1  0  0  0
  3 92  1  0  0  0
  4  5  1  0  0  0
  4 93  1  0  0  0
  4 94  1  0  0  0
  5  6  1  0  0  0
  5 26  1  0  0  0
  5 95  1  0  0  0
  6 25  1  0  0  0
  6 96  1  0  0  0
  6 97  1  0  0  0
  7  8  2  0  0  0
  7 26  1  0  0  0
  7 29  1  0  0  0
  8  9  1  0  0  0
  8 22  1  0  0  0
  9 10  1  0  0  0
  9 27  2  0  0  0
 10 11  2  0  0  0
 10 15  1  0  0  0
 11 12  1  0  0  0
 11 98  1  0  0  0
 12 13  2  0  0  0
 12 99  1  0  0  0
 13 14  1  0  0  0
 13 31  1  0  0  0
 14 15  2  0  0  0
 14100  1  0  0  0
 15101  1  0  0  0
 16 17  2  0  0  0
 16 21  1  0  0  0
 16 31  1  0  0  0
 17 18  1  0  0  0
 17102  1  0  0  0
 18 19  2  0  0  0
 18103  1  0  0  0
 19 20  1  0  0  0
 19 24  1  0  0  0
 20 21  2  0  0  0
 20104  1  0  0  0
 21 23  1  0  0  0
 22 28  1  0  0  0
 22 32  2  0  0  0
 26 27  1  0  0  0
 28105  1  0  0  0
 28106  1  0  0  0
 29107  1  0  0  0
 29108  1  0  0  0
 33 34  1  0  0  0
 33 66  1  0  0  0
 33 70  2  0  0  0
 34 36  1  0  0  0
 34 59  1  0  0  0
 34109  1  0  0  0
 35 44  2  0  0  0
 35 45  1  0  0  0
 35 68  1  0  0  0
 36 56  1  0  0  0
 36110  1  0  0  0
 37 39  1  0  0  0
 37 47  1  0  0  0
 37 66  1  0  0  0
 37111  1  0  0  0
 38 43  2  0  0  0
 38 46  1  0  0  0
 38 47  1  0  0  0
 39 64  1  0  0  0
 39 67  2  0  0  0
 40 52  1  0  0  0
 40 53  2  0  0  0
 40 58  1  0  0  0
 41112  1  0  0  0
 41113  1  0  0  0
 41114  1  0  0  0
 41 48  1  0  0  0
 42 43  1  0  0  0
 42 66  1  0  0  0
 42115  1  0  0  0
 42116  1  0  0  0
 43 44  1  0  0  0
 44117  1  0  0  0
 45 46  2  0  0  0
 45118  1  0  0  0
 46119  1  0  0  0
 47120  1  0  0  0
 47121  1  0  0  0
 48 56  1  0  0  0
 48 65  1  0  0  0
 48122  1  0  0  0
 49 50  1  0  0  0
 49 53  1  0  0  0
 49 64  1  0  0  0
 49123  1  0  0  0
 50 51  1  0  0  0
 50124  1  0  0  0
 50125  1  0  0  0
 51 52  1  0  0  0
 51126  1  0  0  0
 51127  1  0  0  0
 52128  1  0  0  0
 52129  1  0  0  0
 53 54  1  0  0  0
 54 55  2  0  0  0
 54130  1  0  0  0
 55 57  1  0  0  0
 55131  1  0  0  0
 56 69  2  0  0  0
 57 58  2  0  0  0
 57132  1  0  0  0
 58133  1  0  0  0
 59 60  1  0  0  0
 59 61  1  0  0  0
 59 62  1  0  0  0
 60134  1  0  0  0
 60135  1  0  0  0
 60136  1  0  0  0
 61137  1  0  0  0
 61138  1  0  0  0
 61139  1  0  0  0
 62140  1  0  0  0
 62141  1  0  0  0
 62142  1  0  0  0
 63 65  1  0  0  0
 63143  1  0  0  0
 63144  1  0  0  0
 63145  1  0  0  0
 64146  1  0  0  0
 65147  1  0  0  0
 68 81  1  0  0  0
 71 72  2  0  0  0
 71 75  1  0  0  0
 71148  1  0  0  0
 72 73  1  0  0  0
 72 78  1  0  0  0
 73 74  2  0  0  0
 73 88  1  0  0  0
 74 83  1  0  0  0
 74 84  1  0  0  0
 75 83  2  0  0  0
 75 85  1  0  0  0
 76 82  1  0  0  0
 76 84  2  0  0  0
 76149  1  0  0  0
 77 80  1  0  0  0
 77 82  1  0  0  0
 77 87  2  0  0  0
 78150  1  0  0  0
 78151  1  0  0  0
 78152  1  0  0  0
 79 86  1  0  0  0
 79153  1  0  0  0
 79154  1  0  0  0
 79155  1  0  0  0
 80 81  1  0  0  0
 80156  1  0  0  0
 80157  1  0  0  0
 81158  1  0  0  0
 81159  1  0  0  0
 82 86  1  0  0  0
 82160  1  0  0  0
 85161  1  0  0  0
 86162  1  0  0  0
 86163  1  0  0  0
M  CHG  1  86   1
M  ISO  4   1 100  68 101  81 101  85 100
M  END
> <chiral flag>
0

> <version>
0

> <s_m_source_file>
/data/baiqing/PycharmProjects/Reinvent-master-3.2/result/LINK_invent/BTK/process_docking_weight1_custom_product_contain_oxygen_bond_distance_aromatic_linkinvent_7_9_3/rearranged_h_0168.sdf

> <i_m_source_file_index>
89

> <r_mmod_Potential_Energy-OPLS-2005>
-499.253204345703

> <r_mmod_Stretch_Energy-OPLS-2005>
35.8406944274902

> <r_mmod_Bend_Energy-OPLS-2005>
106.416999816895

> <r_mmod_Torsional_Energy-OPLS-2005>
263.897674560547

> <r_mmod_Improper_Torsional_Energy-OPLS-2005>
3.91702008247375

> <r_mmod_Van_der_Waal_Energy-OPLS-2005>
166.756408691406

> <r_mmod_Electrostatic_Energy-OPLS-2005>
-601.056884765625

> <r_mmod_Solvation_Energy-OPLS-2005>
-484.532623291016

> <b_mmod_Minimization_Converged-OPLS-2005>
0

> <r_mmod_RMS_Derivative-OPLS-2005>
1.43981599807739

$$$$
89
                    3D
 Structure written by MMmdl.
162170  0  0  1  0            999 V2000
  -28.7949  -14.6562   19.5649 C   0  0  0  0  0  0
  -30.3485  -12.7340   19.1171 C   0  0  0  0  0  0
  -29.3794  -12.1343   18.0973 C   0  0  0  0  0  0
  -28.1542  -11.4920   18.8336 C   0  0  0  0  0  0
  -27.8450  -12.2166   20.1895 C   0  0  2  0  0  0
  -28.9789  -12.7033   21.0059 C   0  0  0  0  0  0
  -26.2483  -13.6301   21.5649 C   0  0  0  0  0  0
  -24.9498  -13.5816   21.3769 C   0  0  0  0  0  0
  -24.9674  -11.9131   21.4532 C   0  0  0  0  0  0
  -24.0631  -10.5904   21.3161 C   0  0  0  0  0  0
  -24.4043   -9.4802   22.1355 C   0  0  0  0  0  0
  -23.6718   -8.2626   22.1708 C   0  0  0  0  0  0
  -22.5149   -8.0794   21.3850 C   0  0  0  0  0  0
  -22.1985   -9.0895   20.4694 C   0  0  0  0  0  0
  -22.9915  -10.2652   20.3889 C   0  0  0  0  0  0
  -21.7082   -6.1032   22.5122 C   0  0  0  0  0  0
  -21.4127   -6.5800   23.8088 C   0  0  0  0  0  0
  -21.3638   -5.6884   24.9029 C   0  0  0  0  0  0
  -21.6006   -4.3147   24.7049 C   0  0  0  0  0  0
  -21.8780   -3.8302   23.4133 C   0  0  0  0  0  0
  -21.9252   -4.7215   22.3237 C   0  0  0  0  0  0
  -23.0137  -15.0630   20.1672 C   0  0  0  0  0  0
  -22.1744   -4.2349   21.0842 F   0  0  0  0  0  0
  -21.5584   -3.4591   25.7555 F   0  0  0  0  0  0
  -29.4633  -13.5198   20.0030 N   0  0  0  0  0  0
  -26.6941  -12.5057   20.8580 N   0  0  0  0  0  0
  -26.0094  -11.4483   20.9164 N   0  0  0  0  0  0
  -21.6676  -15.0383   20.5767 N   0  0  0  0  0  0
  -26.9851  -14.7278   21.8854 N   0  0  0  0  0  0
  -29.8162  -15.4242   19.5108 O   0  0  0  0  0  0
  -21.7228   -6.9439   21.4206 O   0  0  0  0  0  0
  -22.9624  -15.5509   19.1005 O   0  0  0  0  0  0
  -24.6636  -31.8300   23.1836 C   0  0  0  0  0  0
  -25.9341  -32.4620   23.8251 C   0  0  1  0  0  0
  -26.8063  -26.7452   20.3734 C   0  0  0  0  0  0
  -25.6021  -33.8447   24.2140 N   0  0  0  0  0  0
  -23.4632  -30.4710   21.5296 C   0  0  2  0  0  0
  -24.8629  -28.8772   20.0797 C   0  0  0  0  0  0
  -22.7634  -29.4524   22.4712 C   0  0  0  0  0  0
  -18.0312  -28.1388   22.8467 C   0  0  0  0  0  0
  -24.1470  -36.7205   23.2647 C   0  0  0  0  0  0
  -26.0345  -30.5884   21.4352 C   0  0  0  0  0  0
  -26.0359  -29.1712   20.7896 C   0  0  0  0  0  0
  -27.0392  -28.1103   20.9184 C   0  0  0  0  0  0
  -25.7489  -26.6844   19.4714 C   0  0  0  0  0  0
  -24.7739  -27.6851   19.3593 C   0  0  0  0  0  0
  -23.6928  -29.8435   20.1301 C   0  0  0  0  0  0
  -25.4123  -36.3000   24.0306 C   0  0  1  0  0  0
  -20.5949  -28.3746   23.1153 C   0  0  2  0  0  0
  -20.6791  -26.9426   22.5376 C   0  0  0  0  0  0
  -19.5759  -26.6354   21.5196 C   0  0  0  0  0  0
  -18.1941  -26.7920   22.1615 C   0  0  0  0  0  0
  -19.1581  -28.8880   23.2804 C   0  0  0  0  0  0
  -18.9503  -30.1469   23.8842 C   0  0  0  0  0  0
  -17.6503  -30.6593   24.0540 C   0  0  0  0  0  0
  -25.9103  -34.9381   23.5037 C   0  0  0  0  0  0
  -16.5384  -29.9081   23.6344 C   0  0  0  0  0  0
  -16.7296  -28.6488   23.0378 C   0  0  0  0  0  0
  -26.4566  -31.6596   25.0813 C   0  0  0  0  0  0
  -25.3684  -31.3894   26.1482 C   0  0  0  0  0  0
  -27.0495  -30.2947   24.6645 C   0  0  0  0  0  0
  -27.6036  -32.4446   25.7617 C   0  0  0  0  0  0
  -27.5562  -37.1773   24.8465 C   0  0  0  0  0  0
  -21.4309  -29.3067   22.3495 N   0  0  0  0  0  0
  -26.4261  -37.3744   23.9423 N   0  0  0  0  0  0
  -24.7439  -30.9963   22.1000 N   0  0  0  0  0  0
  -23.4213  -28.8029   23.2886 O   0  0  0  0  0  0
  -27.3565  -25.3933   20.6636 O   0  0  0  0  0  0
  -26.5699  -34.8904   22.4625 O   0  0  0  0  0  0
  -23.5706  -32.1331   23.6920 O   0  0  0  0  0  0
  -24.0016  -13.0771   19.4216 C   0  0  0  0  0  0
  -23.2342  -14.5588   22.4666 C   0  0  0  0  0  0
  -25.4165  -14.5022   19.2891 C   0  0  0  0  0  0
  -24.4402  -15.9847   21.8899 C   0  0  0  0  0  0
  -25.3191  -15.8219   20.3853 C   0  0  0  0  0  0
  -22.8165  -13.0144   21.1866 C   0  0  0  0  0  0
  -25.3780  -20.8769   21.8624 C   0  0  0  0  0  0
  -26.3180  -22.2246   21.0208 C   0  0  0  0  0  0
  -22.9914  -21.4245   24.5452 C   0  0  0  0  0  0
  -25.1118  -19.0631   21.4847 C   0  0  0  0  0  0
  -26.4017  -24.0422   21.1553 C   0  0  0  0  0  0
  -23.8171  -20.5128   23.6279 C   0  0  0  0  0  0
  -24.7510  -21.3243   22.8820 N   0  0  0  0  0  0
  -26.1738  -16.8731   20.0888 N   0  0  0  0  0  0
  -27.2258  -14.7558   19.0226 N   0  0  0  0  0  0
  -24.6393  -17.5638   22.2516 N   0  0  0  0  0  0
  -27.0583  -21.7979   20.1238 O   0  0  0  0  0  0
  -21.7377  -12.2245   21.4239 F   0  0  0  0  0  0
  -31.0784  -13.3737   18.6189 H   0  0  0  0  0  0
  -30.9245  -11.9590   19.6239 H   0  0  0  0  0  0
  -29.8862  -11.3902   17.4807 H   0  0  0  0  0  0
  -29.0325  -12.8979   17.3983 H   0  0  0  0  0  0
  -28.4646  -10.4858   19.1163 H   0  0  0  0  0  0
  -27.3098  -11.3001   18.1525 H   0  0  0  0  0  0
  -27.3796  -12.6926   19.3908 H   0  0  0  0  0  0
  -29.6378  -11.8781   21.2806 H   0  0  0  0  0  0
  -28.8156  -13.2333   21.9380 H   0  0  0  0  0  0
  -25.2626   -9.5695   22.7850 H   0  0  0  0  0  0
  -24.0050   -7.4852   22.8365 H   0  0  0  0  0  0
  -21.3571   -8.9598   19.8026 H   0  0  0  0  0  0
  -22.6722  -10.9534   19.6281 H   0  0  0  0  0  0
  -21.2226   -7.6305   23.9655 H   0  0  0  0  0  0
  -21.1467   -6.0612   25.8925 H   0  0  0  0  0  0
  -22.0558   -2.7781   23.2531 H   0  0  0  0  0  0
  -21.3914  -14.5791   21.4330 H   0  0  0  0  0  0
  -20.9755  -15.5222   20.0215 H   0  0  0  0  0  0
  -26.6252  -15.1538   22.7328 H   0  0  0  0  0  0
  -26.7468  -15.4264   21.1845 H   0  0  0  0  0  0
  -26.7401  -32.5095   23.0937 H   0  0  0  0  0  0
  -25.0147  -33.9546   25.0273 H   0  0  0  0  0  0
  -22.7788  -31.3117   21.3909 H   0  0  0  0  0  0
  -23.3773  -35.9493   23.3282 H   0  0  0  0  0  0
  -24.3527  -36.8879   22.2065 H   0  0  0  0  0  0
  -23.7171  -37.6361   23.6711 H   0  0  0  0  0  0
  -26.2450  -31.3152   20.6494 H   0  0  0  0  0  0
  -26.8941  -30.6266   22.0905 H   0  0  0  0  0  0
  -27.8830  -28.2717   21.5731 H   0  0  0  0  0  0
  -25.5597  -25.7532   18.9528 H   0  0  0  0  0  0
  -23.9008  -27.4919   18.7467 H   0  0  0  0  0  0
  -23.8913  -30.6377   19.4108 H   0  0  0  0  0  0
  -22.7859  -29.3480   19.7766 H   0  0  0  0  0  0
  -25.1309  -36.1810   25.0794 H   0  0  0  0  0  0
  -21.0053  -28.3348   24.1271 H   0  0  0  0  0  0
  -20.5637  -26.2382   23.3624 H   0  0  0  0  0  0
  -21.6657  -26.7378   22.1204 H   0  0  0  0  0  0
  -19.6917  -25.6240   21.1282 H   0  0  0  0  0  0
  -19.6684  -27.3110   20.6680 H   0  0  0  0  0  0
  -17.4205  -26.6655   21.4023 H   0  0  0  0  0  0
  -18.0345  -26.0063   22.9014 H   0  0  0  0  0  0
  -19.7978  -30.7289   24.2196 H   0  0  0  0  0  0
  -17.5058  -31.6273   24.5143 H   0  0  0  0  0  0
  -15.5382  -30.2975   23.7702 H   0  0  0  0  0  0
  -15.8685  -28.0782   22.7160 H   0  0  0  0  0  0
  -24.5819  -30.7287   25.7822 H   0  0  0  0  0  0
  -24.8935  -32.3124   26.4822 H   0  0  0  0  0  0
  -25.7910  -30.9120   27.0332 H   0  0  0  0  0  0
  -26.3183  -29.6577   24.1666 H   0  0  0  0  0  0
  -27.3976  -29.7389   25.5363 H   0  0  0  0  0  0
  -27.9152  -30.4115   24.0128 H   0  0  0  0  0  0
  -27.2557  -33.3772   26.2079 H   0  0  0  0  0  0
  -28.3908  -32.6991   25.0510 H   0  0  0  0  0  0
  -28.0645  -31.8684   26.5649 H   0  0  0  0  0  0
  -28.2564  -38.0086   24.7553 H   0  0  0  0  0  0
  -28.1070  -36.2623   24.6242 H   0  0  0  0  0  0
  -27.2287  -37.1369   25.8867 H   0  0  0  0  0  0
  -20.9516  -29.8837   21.6722 H   0  0  0  0  0  0
  -26.0116  -38.2798   24.1451 H   0  0  0  0  0  0
  -23.9931  -12.2649   18.7104 H   0  0  0  0  0  0
  -22.6279  -14.6827   23.3504 H   0  0  0  0  0  0
  -22.2252  -20.8536   25.0701 H   0  0  0  0  0  0
  -22.4778  -22.2016   23.9777 H   0  0  0  0  0  0
  -23.6079  -21.9167   25.2968 H   0  0  0  0  0  0
  -26.0572  -18.9435   20.9656 H   0  0  0  0  0  0
  -24.3598  -19.1270   20.6933 H   0  0  0  0  0  0
  -27.3269  -23.7832   21.6755 H   0  0  0  0  0  0
  -26.2064  -23.9644   20.0857 H   0  0  0  0  0  0
  -23.1285  -19.9952   22.9573 H   0  0  0  0  0  0
  -24.3417  -19.7639   24.2269 H   0  0  0  0  0  0
  -27.1708  -16.6908   20.0843 H   0  0  0  0  0  0
  -25.9541  -17.5506   20.8169 H   0  0  0  0  0  0
  -27.2503  -15.6333   18.5245 H   0  0  0  0  0  0
  -24.2871  -17.7666   23.1840 H   0  0  0  0  0  0
  1 25  1  0  0  0
  1 30  2  0  0  0
  1 85  1  0  0  0
  2  3  1  0  0  0
  2 25  1  0  0  0
  2 89  1  0  0  0
  2 90  1  0  0  0
  3  4  1  0  0  0
  3 91  1  0  0  0
  3 92  1  0  0  0
  4  5  1  0  0  0
  4 93  1  0  0  0
  4 94  1  0  0  0
  5  6  1  0  0  0
  5 26  1  0  0  0
  5 95  1  0  0  0
  6 25  1  0  0  0
  6 96  1  0  0  0
  6 97  1  0  0  0
  7  8  2  0  0  0
  7 26  1  0  0  0
  7 29  1  0  0  0
  8  9  1  0  0  0
  8 22  1  0  0  0
  9 10  1  0  0  0
  9 27  2  0  0  0
 10 11  2  0  0  0
 10 15  1  0  0  0
 11 12  1  0  0  0
 11 98  1  0  0  0
 12 13  2  0  0  0
 12 99  1  0  0  0
 13 14  1  0  0  0
 13 31  1  0  0  0
 14 15  2  0  0  0
 14100  1  0  0  0
 15101  1  0  0  0
 16 17  2  0  0  0
 16 21  1  0  0  0
 16 31  1  0  0  0
 17 18  1  0  0  0
 17102  1  0  0  0
 18 19  2  0  0  0
 18103  1  0  0  0
 19 20  1  0  0  0
 19 24  1  0  0  0
 20 21  2  0  0  0
 20104  1  0  0  0
 21 23  1  0  0  0
 22 28  1  0  0  0
 22 32  2  0  0  0
 26 27  1  0  0  0
 28105  1  0  0  0
 28106  1  0  0  0
 29107  1  0  0  0
 29108  1  0  0  0
 33 34  1  0  0  0
 33 66  1  0  0  0
 33 70  2  0  0  0
 34 36  1  0  0  0
 34 59  1  0  0  0
 34109  1  0  0  0
 35 44  2  0  0  0
 35 45  1  0  0  0
 35 68  1  0  0  0
 36 56  1  0  0  0
 36110  1  0  0  0
 37 39  1  0  0  0
 37 47  1  0  0  0
 37 66  1  0  0  0
 37111  1  0  0  0
 38 43  2  0  0  0
 38 46  1  0  0  0
 38 47  1  0  0  0
 39 64  1  0  0  0
 39 67  2  0  0  0
 40 52  1  0  0  0
 40 53  2  0  0  0
 40 58  1  0  0  0
 41112  1  0  0  0
 41113  1  0  0  0
 41114  1  0  0  0
 41 48  1  0  0  0
 42 43  1  0  0  0
 42 66  1  0  0  0
 42115  1  0  0  0
 42116  1  0  0  0
 43 44  1  0  0  0
 44117  1  0  0  0
 45 46  2  0  0  0
 45118  1  0  0  0
 46119  1  0  0  0
 47120  1  0  0  0
 47121  1  0  0  0
 48 56  1  0  0  0
 48 65  1  0  0  0
 48122  1  0  0  0
 49 50  1  0  0  0
 49 53  1  0  0  0
 49 64  1  0  0  0
 49123  1  0  0  0
 50 51  1  0  0  0
 50124  1  0  0  0
 50125  1  0  0  0
 51 52  1  0  0  0
 51126  1  0  0  0
 51127  1  0  0  0
 52128  1  0  0  0
 52129  1  0  0  0
 53 54  1  0  0  0
 54 55  2  0  0  0
 54130  1  0  0  0
 55 57  1  0  0  0
 55131  1  0  0  0
 56 69  2  0  0  0
 57 58  2  0  0  0
 57132  1  0  0  0
 58133  1  0  0  0
 59 60  1  0  0  0
 59 61  1  0  0  0
 59 62  1  0  0  0
 60134  1  0  0  0
 60135  1  0  0  0
 60136  1  0  0  0
 61137  1  0  0  0
 61138  1  0  0  0
 61139  1  0  0  0
 62140  1  0  0  0
 62141  1  0  0  0
 62142  1  0  0  0
 63 65  1  0  0  0
 63143  1  0  0  0
 63144  1  0  0  0
 63145  1  0  0  0
 64146  1  0  0  0
 65147  1  0  0  0
 68 81  1  0  0  0
 71 73  2  0  0  0
 71 76  1  0  0  0
 71148  1  0  0  0
 72 74  1  0  0  0
 72 76  2  0  0  0
 72149  1  0  0  0
 73 75  1  0  0  0
 73 85  1  0  0  0
 74 75  2  0  0  0
 74 86  1  0  0  0
 75 84  1  0  0  0
 76 88  1  0  0  0
 77 78  1  0  0  0
 77 80  1  0  0  0
 77 83  2  0  0  0
 78 81  1  0  0  0
 78 87  2  0  0  0
 79 82  1  0  0  0
 79150  1  0  0  0
 79151  1  0  0  0
 79152  1  0  0  0
 80 86  1  0  0  0
 80153  1  0  0  0
 80154  1  0  0  0
 81155  1  0  0  0
 81156  1  0  0  0
 82 83  1  0  0  0
 82157  1  0  0  0
 82158  1  0  0  0
 84159  1  0  0  0
 84160  1  0  0  0
 85161  1  0  0  0
 86162  1  0  0  0
M  ISO  4   1 100  68 101  81 101  85 100
M  END
> <chiral flag>
0

> <version>
0

> <s_m_source_file>
/data/baiqing/PycharmProjects/Reinvent-master-3.2/result/LINK_invent/BTK/process_docking_weight1_custom_product_contain_oxygen_bond_distance_aromatic_linkinvent_7_9_3/rearranged_h_0168.sdf

> <i_m_source_file_index>
90

> <r_mmod_Potential_Energy-OPLS-2005>
16888.103515625

> <r_mmod_Stretch_Energy-OPLS-2005>
7835.09228515625

> <r_mmod_Bend_Energy-OPLS-2005>
1512.68176269531

> <r_mmod_Torsional_Energy-OPLS-2005>
588.236511230469

> <r_mmod_Improper_Torsional_Energy-OPLS-2005>
74.4746856689453

> <r_mmod_Van_der_Waal_Energy-OPLS-2005>
3360.86352539062

> <r_mmod_Electrostatic_Energy-OPLS-2005>
-488.357971191406

> <r_mmod_Solvation_Energy-OPLS-2005>
-233.522430419922

> <b_mmod_Minimization_Converged-OPLS-2005>
0

> <r_mmod_RMS_Derivative-OPLS-2005>
13.4767904281616

$$$$
90
                    3D
 Structure written by MMmdl.
162170  0  0  1  0            999 V2000
  -30.6120  -14.5262   20.5096 C   0  0  0  0  0  0
  -30.4425  -12.3138   19.4159 C   0  0  0  0  0  0
  -29.4977  -12.4765   18.2034 C   0  0  0  0  0  0
  -28.0185  -12.3218   18.6212 C   0  0  0  0  0  0
  -27.6546  -13.1785   19.8619 C   0  0  2  0  0  0
  -28.7038  -12.9744   20.9829 C   0  0  0  0  0  0
  -25.2596  -13.8101   20.5654 C   0  0  0  0  0  0
  -24.1824  -13.0419   20.9174 C   0  0  0  0  0  0
  -24.6345  -11.6875   20.8774 C   0  0  0  0  0  0
  -23.9016  -10.4271   21.0450 C   0  0  0  0  0  0
  -24.3584   -9.4187   21.9216 C   0  0  0  0  0  0
  -23.6262   -8.2225   22.0767 C   0  0  0  0  0  0
  -22.4254   -8.0259   21.3540 C   0  0  0  0  0  0
  -21.9881   -9.0240   20.4654 C   0  0  0  0  0  0
  -22.7204  -10.2121   20.3077 C   0  0  0  0  0  0
  -21.6856   -6.0715   22.5285 C   0  0  0  0  0  0
  -21.4003   -6.5629   23.8205 C   0  0  0  0  0  0
  -21.3663   -5.6790   24.9173 C   0  0  0  0  0  0
  -21.6046   -4.3051   24.7233 C   0  0  0  0  0  0
  -21.8826   -3.8133   23.4360 C   0  0  0  0  0  0
  -21.9179   -4.6941   22.3409 C   0  0  0  0  0  0
  -22.7861  -13.5247   21.1856 C   0  0  0  0  0  0
  -22.1658   -4.2128   21.0990 F   0  0  0  0  0  0
  -21.5636   -3.4536   25.7754 F   0  0  0  0  0  0
  -30.0272  -13.3002   20.4198 N   0  0  0  0  0  0
  -26.2978  -12.9192   20.3308 N   0  0  0  0  0  0
  -25.9249  -11.6392   20.5776 N   0  0  0  0  0  0
  -22.0506  -12.8224   22.0405 N   0  0  0  0  0  0
  -25.4347  -15.1813   20.4016 N   0  0  0  0  0  0
  -31.7899  -14.7498   20.2141 O   0  0  0  0  0  0
  -21.6623   -6.8863   21.4239 O   0  0  0  0  0  0
  -22.3562  -14.5567   20.6732 O   0  0  0  0  0  0
  -24.6149  -31.8653   23.2166 C   0  0  0  0  0  0
  -25.9048  -32.4815   23.8433 C   0  0  1  0  0  0
  -27.2226  -27.4206   20.0596 C   0  0  0  0  0  0
  -25.5912  -33.8619   24.2360 N   0  0  0  0  0  0
  -23.4000  -30.4919   21.5637 C   0  0  2  0  0  0
  -24.8349  -28.9621   20.1172 C   0  0  0  0  0  0
  -22.7402  -29.4625   22.5081 C   0  0  0  0  0  0
  -18.0213  -28.1364   22.8468 C   0  0  0  0  0  0
  -24.1461  -36.7296   23.2629 C   0  0  0  0  0  0
  -25.9296  -30.8272   21.3645 C   0  0  0  0  0  0
  -26.0026  -29.4640   20.7001 C   0  0  0  0  0  0
  -27.1992  -28.7039   20.6647 C   0  0  0  0  0  0
  -26.0217  -26.9344   19.4900 C   0  0  0  0  0  0
  -24.8399  -27.6950   19.5149 C   0  0  0  0  0  0
  -23.6001  -29.8348   20.1751 C   0  0  0  0  0  0
  -25.4089  -36.3120   24.0334 C   0  0  1  0  0  0
  -20.5797  -28.3639   23.1318 C   0  0  2  0  0  0
  -20.6694  -26.9379   22.5413 C   0  0  0  0  0  0
  -19.5706  -26.6380   21.5179 C   0  0  0  0  0  0
  -18.1883  -26.7898   22.1591 C   0  0  0  0  0  0
  -19.1467  -28.8823   23.2878 C   0  0  0  0  0  0
  -18.9407  -30.1414   23.8917 C   0  0  0  0  0  0
  -17.6419  -30.6583   24.0544 C   0  0  0  0  0  0
  -25.9040  -34.9475   23.5154 C   0  0  0  0  0  0
  -16.5299  -29.9099   23.6309 C   0  0  0  0  0  0
  -16.7196  -28.6486   23.0376 C   0  0  0  0  0  0
  -26.4474  -31.6583   25.0760 C   0  0  0  0  0  0
  -25.3763  -31.3644   26.1528 C   0  0  0  0  0  0
  -27.0265  -30.3021   24.6113 C   0  0  0  0  0  0
  -27.6083  -32.4253   25.7515 C   0  0  0  0  0  0
  -27.5555  -37.1810   24.8467 C   0  0  0  0  0  0
  -21.4130  -29.3025   22.3809 N   0  0  0  0  0  0
  -26.4275  -37.3799   23.9400 N   0  0  0  0  0  0
  -24.6669  -31.0754   22.1061 N   0  0  0  0  0  0
  -23.4185  -28.8147   23.3102 O   0  0  0  0  0  0
  -28.4128  -26.7051   20.0441 O   0  0  0  0  0  0
  -26.5597  -34.8919   22.4713 O   0  0  0  0  0  0
  -23.5345  -32.1415   23.7551 O   0  0  0  0  0  0
  -29.0658  -19.2673   22.3655 C   0  0  0  0  0  0
  -29.8366  -17.9870   20.4422 C   0  0  0  0  0  0
  -29.5279  -19.2462   21.0285 C   0  0  0  0  0  0
  -28.9179  -18.0830   23.1124 C   0  0  0  0  0  0
  -29.6913  -16.7799   21.1821 C   0  0  0  0  0  0
  -29.2276  -16.8362   22.5163 C   0  0  0  0  0  0
  -29.0033  -22.8901   19.8069 C   0  0  0  0  0  0
  -28.6871  -17.5526   25.5188 C   0  0  0  0  0  0
  -27.8010  -17.7772   26.7392 C   0  0  0  0  0  0
  -28.9731  -21.6757   20.7677 C   0  0  0  0  0  0
  -28.5101  -25.4383   19.3493 C   0  0  0  0  0  0
  -28.2693  -24.1885   20.2585 C   0  0  1  0  0  0
  -28.3186  -18.1840   24.3975 N   0  0  0  0  0  0
  -29.6827  -15.5033   20.5509 N   0  0  0  0  0  0
  -29.6270  -20.4420   20.2780 N   0  0  0  0  0  0
  -29.5381  -22.7949   18.6971 O   0  0  0  0  0  0
  -29.6971  -16.8536   25.6156 O   0  0  0  0  0  0
  -26.8748  -23.9181   20.3537 O   0  0  0  0  0  0
  -28.9826  -15.6757   23.1728 F   0  0  0  0  0  0
  -31.4815  -12.4503   19.1127 H   0  0  0  0  0  0
  -30.3701  -11.3040   19.8235 H   0  0  0  0  0  0
  -29.7403  -11.7349   17.4407 H   0  0  0  0  0  0
  -29.6540  -13.4516   17.7378 H   0  0  0  0  0  0
  -27.8526  -11.2675   18.8438 H   0  0  0  0  0  0
  -27.3590  -12.5576   17.7850 H   0  0  0  0  0  0
  -27.6771  -14.2141   19.5290 H   0  0  0  0  0  0
  -28.6940  -11.9409   21.3353 H   0  0  0  0  0  0
  -28.4738  -13.5853   21.8577 H   0  0  0  0  0  0
  -25.2755   -9.5658   22.4748 H   0  0  0  0  0  0
  -23.9986   -7.4615   22.7480 H   0  0  0  0  0  0
  -21.0815   -8.8754   19.8956 H   0  0  0  0  0  0
  -22.3693  -10.9645   19.6156 H   0  0  0  0  0  0
  -21.1997   -7.6133   23.9701 H   0  0  0  0  0  0
  -21.1485   -6.0522   25.9072 H   0  0  0  0  0  0
  -22.0600   -2.7592   23.2870 H   0  0  0  0  0  0
  -22.4145  -11.9861   22.4718 H   0  0  0  0  0  0
  -21.1148  -13.1263   22.2708 H   0  0  0  0  0  0
  -24.6688  -15.8370   20.5050 H   0  0  0  0  0  0
  -26.2718  -15.6143   20.0356 H   0  0  0  0  0  0
  -26.7099  -32.5518   23.1182 H   0  0  0  0  0  0
  -25.0058  -33.9761   25.0500 H   0  0  0  0  0  0
  -22.6877  -31.3113   21.4400 H   0  0  0  0  0  0
  -23.3741  -35.9612   23.3326 H   0  0  0  0  0  0
  -24.3549  -36.8884   22.2039 H   0  0  0  0  0  0
  -23.7223  -37.6507   23.6621 H   0  0  0  0  0  0
  -26.0460  -31.6041   20.6073 H   0  0  0  0  0  0
  -26.8142  -30.8688   21.9861 H   0  0  0  0  0  0
  -28.1104  -29.0985   21.0909 H   0  0  0  0  0  0
  -25.9597  -25.9618   19.0319 H   0  0  0  0  0  0
  -23.9327  -27.2986   19.0789 H   0  0  0  0  0  0
  -23.7162  -30.6203   19.4285 H   0  0  0  0  0  0
  -22.7142  -29.2719   19.8761 H   0  0  0  0  0  0
  -25.1272  -36.1992   25.0829 H   0  0  0  0  0  0
  -20.9807  -28.3178   24.1465 H   0  0  0  0  0  0
  -20.5529  -26.2263   23.3601 H   0  0  0  0  0  0
  -21.6581  -26.7415   22.1262 H   0  0  0  0  0  0
  -19.6890  -25.6314   21.1173 H   0  0  0  0  0  0
  -19.6634  -27.3206   20.6716 H   0  0  0  0  0  0
  -17.4135  -26.6586   21.4006 H   0  0  0  0  0  0
  -18.0329  -26.0047   22.8996 H   0  0  0  0  0  0
  -19.7898  -30.7177   24.2337 H   0  0  0  0  0  0
  -17.5001  -31.6263   24.5151 H   0  0  0  0  0  0
  -15.5319  -30.3029   23.7637 H   0  0  0  0  0  0
  -15.8566  -28.0797   22.7167 H   0  0  0  0  0  0
  -24.6031  -30.6878   25.7876 H   0  0  0  0  0  0
  -24.8851  -32.2750   26.4961 H   0  0  0  0  0  0
  -25.8177  -30.8876   27.0296 H   0  0  0  0  0  0
  -26.2779  -29.6864   24.1123 H   0  0  0  0  0  0
  -27.3971  -29.7214   25.4573 H   0  0  0  0  0  0
  -27.8649  -30.4317   23.9272 H   0  0  0  0  0  0
  -27.2757  -33.3560   26.2108 H   0  0  0  0  0  0
  -28.3892  -32.6786   25.0336 H   0  0  0  0  0  0
  -28.0733  -31.8356   26.5424 H   0  0  0  0  0  0
  -28.2615  -38.0065   24.7505 H   0  0  0  0  0  0
  -28.1028  -36.2623   24.6329 H   0  0  0  0  0  0
  -27.2269  -37.1492   25.8868 H   0  0  0  0  0  0
  -20.9341  -29.8779   21.7032 H   0  0  0  0  0  0
  -26.0185  -38.2861   24.1487 H   0  0  0  0  0  0
  -28.7894  -20.1954   22.8428 H   0  0  0  0  0  0
  -30.1163  -17.9411   19.3994 H   0  0  0  0  0  0
  -26.9473  -18.4180   26.5114 H   0  0  0  0  0  0
  -28.3733  -18.2454   27.5387 H   0  0  0  0  0  0
  -27.4176  -16.8241   27.1015 H   0  0  0  0  0  0
  -27.9283  -21.4545   20.9978 H   0  0  0  0  0  0
  -29.4529  -21.9922   21.6945 H   0  0  0  0  0  0
  -27.9186  -25.4012   18.4338 H   0  0  0  0  0  0
  -29.5403  -25.4124   18.9895 H   0  0  0  0  0  0
  -28.6446  -24.4194   21.2573 H   0  0  0  0  0  0
  -27.5545  -18.8379   24.4819 H   0  0  0  0  0  0
  -28.7698  -15.0786   20.5680 H   0  0  0  0  0  0
  -29.8138  -20.4059   19.2790 H   0  0  0  0  0  0
  -26.5747  -23.6572   19.4867 H   0  0  0  0  0  0
  1 25  1  0  0  0
  1 30  2  0  0  0
  1 84  1  0  0  0
  2  3  1  0  0  0
  2 25  1  0  0  0
  2 90  1  0  0  0
  2 91  1  0  0  0
  3  4  1  0  0  0
  3 92  1  0  0  0
  3 93  1  0  0  0
  4  5  1  0  0  0
  4 94  1  0  0  0
  4 95  1  0  0  0
  5  6  1  0  0  0
  5 26  1  0  0  0
  5 96  1  0  0  0
  6 25  1  0  0  0
  6 97  1  0  0  0
  6 98  1  0  0  0
  7  8  2  0  0  0
  7 26  1  0  0  0
  7 29  1  0  0  0
  8  9  1  0  0  0
  8 22  1  0  0  0
  9 10  1  0  0  0
  9 27  2  0  0  0
 10 11  2  0  0  0
 10 15  1  0  0  0
 11 12  1  0  0  0
 11 99  1  0  0  0
 12 13  2  0  0  0
 12100  1  0  0  0
 13 14  1  0  0  0
 13 31  1  0  0  0
 14 15  2  0  0  0
 14101  1  0  0  0
 15102  1  0  0  0
 16 17  2  0  0  0
 16 21  1  0  0  0
 16 31  1  0  0  0
 17 18  1  0  0  0
 17103  1  0  0  0
 18 19  2  0  0  0
 18104  1  0  0  0
 19 20  1  0  0  0
 19 24  1  0  0  0
 20 21  2  0  0  0
 20105  1  0  0  0
 21 23  1  0  0  0
 22 28  1  0  0  0
 22 32  2  0  0  0
 26 27  1  0  0  0
 28106  1  0  0  0
 28107  1  0  0  0
 29108  1  0  0  0
 29109  1  0  0  0
 33 34  1  0  0  0
 33 66  1  0  0  0
 33 70  2  0  0  0
 34 36  1  0  0  0
 34 59  1  0  0  0
 34110  1  0  0  0
 35 44  2  0  0  0
 35 45  1  0  0  0
 35 68  1  0  0  0
 36 56  1  0  0  0
 36111  1  0  0  0
 37 39  1  0  0  0
 37 47  1  0  0  0
 37 66  1  0  0  0
 37112  1  0  0  0
 38 43  2  0  0  0
 38 46  1  0  0  0
 38 47  1  0  0  0
 39 64  1  0  0  0
 39 67  2  0  0  0
 40 52  1  0  0  0
 40 53  2  0  0  0
 40 58  1  0  0  0
 41113  1  0  0  0
 41114  1  0  0  0
 41115  1  0  0  0
 41 48  1  0  0  0
 42 43  1  0  0  0
 42 66  1  0  0  0
 42116  1  0  0  0
 42117  1  0  0  0
 43 44  1  0  0  0
 44118  1  0  0  0
 45 46  2  0  0  0
 45119  1  0  0  0
 46120  1  0  0  0
 47121  1  0  0  0
 47122  1  0  0  0
 48 56  1  0  0  0
 48 65  1  0  0  0
 48123  1  0  0  0
 49 50  1  0  0  0
 49 53  1  0  0  0
 49 64  1  0  0  0
 49124  1  0  0  0
 50 51  1  0  0  0
 50125  1  0  0  0
 50126  1  0  0  0
 51 52  1  0  0  0
 51127  1  0  0  0
 51128  1  0  0  0
 52129  1  0  0  0
 52130  1  0  0  0
 53 54  1  0  0  0
 54 55  2  0  0  0
 54131  1  0  0  0
 55 57  1  0  0  0
 55132  1  0  0  0
 56 69  2  0  0  0
 57 58  2  0  0  0
 57133  1  0  0  0
 58134  1  0  0  0
 59 60  1  0  0  0
 59 61  1  0  0  0
 59 62  1  0  0  0
 60135  1  0  0  0
 60136  1  0  0  0
 60137  1  0  0  0
 61138  1  0  0  0
 61139  1  0  0  0
 61140  1  0  0  0
 62141  1  0  0  0
 62142  1  0  0  0
 62143  1  0  0  0
 63 65  1  0  0  0
 63144  1  0  0  0
 63145  1  0  0  0
 63146  1  0  0  0
 64147  1  0  0  0
 65148  1  0  0  0
 68 81  1  0  0  0
 71 73  2  0  0  0
 71 74  1  0  0  0
 71149  1  0  0  0
 72 73  1  0  0  0
 72 75  2  0  0  0
 72150  1  0  0  0
 73 85  1  0  0  0
 74 76  2  0  0  0
 74 83  1  0  0  0
 75 76  1  0  0  0
 75 84  1  0  0  0
 76 89  1  0  0  0
 77 80  1  0  0  0
 77 82  1  0  0  0
 77 86  2  0  0  0
 78 79  1  0  0  0
 78 83  1  0  0  0
 78 87  2  0  0  0
 79151  1  0  0  0
 79152  1  0  0  0
 79153  1  0  0  0
 80 85  1  0  0  0
 80154  1  0  0  0
 80155  1  0  0  0
 81 82  1  0  0  0
 81156  1  0  0  0
 81157  1  0  0  0
 82 88  1  0  0  0
 82158  1  0  0  0
 83159  1  0  0  0
 84160  1  0  0  0
 85161  1  0  0  0
 88162  1  0  0  0
M  ISO  4   1 100  68 101  81 101  84 100
M  END
> <chiral flag>
0

> <version>
0

> <s_m_source_file>
/data/baiqing/PycharmProjects/Reinvent-master-3.2/result/LINK_invent/BTK/process_docking_weight1_custom_product_contain_oxygen_bond_distance_aromatic_linkinvent_7_9_3/rearranged_h_0168.sdf

> <i_m_source_file_index>
91

> <r_mmod_Potential_Energy-OPLS-2005>
27.117431640625

> <r_mmod_Stretch_Energy-OPLS-2005>
45.2636947631836

> <r_mmod_Bend_Energy-OPLS-2005>
126.405693054199

> <r_mmod_Torsional_Energy-OPLS-2005>
278.630035400391

> <r_mmod_Improper_Torsional_Energy-OPLS-2005>
18.9862079620361

> <r_mmod_Van_der_Waal_Energy-OPLS-2005>
155.428512573242

> <r_mmod_Electrostatic_Energy-OPLS-2005>
-341.020721435547

> <r_mmod_Solvation_Energy-OPLS-2005>
-279.100646972656

> <b_mmod_Minimization_Converged-OPLS-2005>
0

> <r_mmod_RMS_Derivative-OPLS-2005>
4.23876523971558

$$$$
91
                    3D
 Structure written by MMmdl.
159167  0  0  1  0            999 V2000
  -30.6560  -14.5346   20.5031 C   0  0  0  0  0  0
  -30.4256  -12.3152   19.4500 C   0  0  0  0  0  0
  -29.5096  -12.4901   18.2193 C   0  0  0  0  0  0
  -28.0240  -12.3698   18.6164 C   0  0  0  0  0  0
  -27.6607  -13.2144   19.8691 C   0  0  2  0  0  0
  -28.6996  -13.0192   20.9965 C   0  0  0  0  0  0
  -25.2594  -13.8177   20.5676 C   0  0  0  0  0  0
  -24.1855  -13.0446   20.9175 C   0  0  0  0  0  0
  -24.6409  -11.6918   20.8724 C   0  0  0  0  0  0
  -23.9065  -10.4301   21.0395 C   0  0  0  0  0  0
  -24.3624   -9.4221   21.9172 C   0  0  0  0  0  0
  -23.6297   -8.2252   22.0747 C   0  0  0  0  0  0
  -22.4274   -8.0282   21.3541 C   0  0  0  0  0  0
  -21.9909   -9.0255   20.4650 C   0  0  0  0  0  0
  -22.7227  -10.2141   20.3050 C   0  0  0  0  0  0
  -21.6863   -6.0728   22.5272 C   0  0  0  0  0  0
  -21.4024   -6.5633   23.8202 C   0  0  0  0  0  0
  -21.3668   -5.6786   24.9168 C   0  0  0  0  0  0
  -21.6041   -4.3047   24.7216 C   0  0  0  0  0  0
  -21.8821   -3.8138   23.4342 C   0  0  0  0  0  0
  -21.9195   -4.6955   22.3397 C   0  0  0  0  0  0
  -22.7875  -13.5237   21.1822 C   0  0  0  0  0  0
  -22.1657   -4.2138   21.0969 F   0  0  0  0  0  0
  -21.5629   -3.4530   25.7734 F   0  0  0  0  0  0
  -30.0291  -13.3245   20.4461 N   0  0  0  0  0  0
  -26.3028  -12.9360   20.3324 N   0  0  0  0  0  0
  -25.9339  -11.6520   20.5754 N   0  0  0  0  0  0
  -22.0498  -12.8262   22.0391 N   0  0  0  0  0  0
  -25.4302  -15.1897   20.4096 N   0  0  0  0  0  0
  -31.8070  -14.7027   20.0831 O   0  0  0  0  0  0
  -21.6635   -6.8878   21.4239 O   0  0  0  0  0  0
  -22.3556  -14.5518   20.6625 O   0  0  0  0  0  0
  -24.6191  -31.8645   23.2088 C   0  0  0  0  0  0
  -25.9066  -32.4802   23.8397 C   0  0  1  0  0  0
  -27.2351  -27.3941   20.1061 C   0  0  0  0  0  0
  -25.5903  -33.8601   24.2323 N   0  0  0  0  0  0
  -23.4095  -30.4885   21.5498 C   0  0  2  0  0  0
  -24.8557  -28.9506   20.1152 C   0  0  0  0  0  0
  -22.7448  -29.4636   22.4977 C   0  0  0  0  0  0
  -18.0271  -28.1380   22.8489 C   0  0  0  0  0  0
  -24.1486  -36.7310   23.2643 C   0  0  0  0  0  0
  -25.9437  -30.8157   21.3730 C   0  0  0  0  0  0
  -26.0185  -29.4511   20.7125 C   0  0  0  0  0  0
  -27.2096  -28.6833   20.6979 C   0  0  0  0  0  0
  -26.0458  -26.9162   19.5044 C   0  0  0  0  0  0
  -24.8665  -27.6851   19.5065 C   0  0  0  0  0  0
  -23.6211  -29.8238   20.1641 C   0  0  0  0  0  0
  -25.4106  -36.3106   24.0345 C   0  0  1  0  0  0
  -20.5866  -28.3677   23.1300 C   0  0  2  0  0  0
  -20.6757  -26.9405   22.5421 C   0  0  0  0  0  0
  -19.5736  -26.6379   21.5216 C   0  0  0  0  0  0
  -18.1916  -26.7925   22.1620 C   0  0  0  0  0  0
  -19.1523  -28.8847   23.2885 C   0  0  0  0  0  0
  -18.9448  -30.1448   23.8905 C   0  0  0  0  0  0
  -17.6451  -30.6583   24.0563 C   0  0  0  0  0  0
  -25.9038  -34.9466   23.5138 C   0  0  0  0  0  0
  -16.5341  -29.9085   23.6323 C   0  0  0  0  0  0
  -16.7265  -28.6499   23.0352 C   0  0  0  0  0  0
  -26.4465  -31.6597   25.0757 C   0  0  0  0  0  0
  -25.3718  -31.3729   26.1509 C   0  0  0  0  0  0
  -27.0312  -30.3027   24.6196 C   0  0  0  0  0  0
  -27.6038  -32.4335   25.7503 C   0  0  0  0  0  0
  -27.5587  -37.1810   24.8457 C   0  0  0  0  0  0
  -21.4169  -29.3032   22.3705 N   0  0  0  0  0  0
  -26.4293  -37.3792   23.9415 N   0  0  0  0  0  0
  -24.6747  -31.0723   22.1007 N   0  0  0  0  0  0
  -23.4206  -28.8186   23.3035 O   0  0  0  0  0  0
  -28.4038  -26.6433   20.1452 O   0  0  0  0  0  0
  -26.5614  -34.8919   22.4708 O   0  0  0  0  0  0
  -23.5380  -32.1410   23.7462 O   0  0  0  0  0  0
  -29.3106  -18.2982   18.5895 C   0  0  0  0  0  0
  -29.6371  -19.2458   19.5395 C   0  0  0  0  0  0
  -29.8133  -16.8523   20.2888 C   0  0  0  0  0  0
  -29.4038  -21.6755   20.0237 C   0  0  0  0  0  0
  -28.8583  -18.5746   17.1855 C   0  0  0  0  0  0
  -29.9350  -24.3648   21.6090 C   0  0  0  0  0  0
  -30.8346  -25.3079   19.4979 C   0  0  0  0  0  0
  -29.7398  -23.0458   19.3525 C   0  0  0  0  0  0
  -28.3497  -25.2318   19.8092 C   0  0  0  0  0  0
  -29.6851  -24.4573   20.0880 C   0  0  0  0  0  0
  -29.4131  -16.9638   19.0175 N   0  0  0  0  0  0
  -29.7251  -20.5904   19.2823 N   0  0  0  0  0  0
  -29.8977  -15.5713   20.9255 N   0  0  0  0  0  0
  -28.8574  -21.5957   21.1254 O   0  0  0  0  0  0
  -30.0188  -18.4371   21.0665 S   0  0  0  0  0  0
  -31.4751  -12.4021   19.1633 H   0  0  0  0  0  0
  -30.3118  -11.3131   19.8674 H   0  0  0  0  0  0
  -29.7516  -11.7421   17.4634 H   0  0  0  0  0  0
  -29.6927  -13.4603   17.7555 H   0  0  0  0  0  0
  -27.8187  -11.3172   18.8090 H   0  0  0  0  0  0
  -27.3873  -12.6526   17.7764 H   0  0  0  0  0  0
  -27.6949  -14.2583   19.5598 H   0  0  0  0  0  0
  -28.6778  -11.9891   21.3554 H   0  0  0  0  0  0
  -28.4613  -13.6385   21.8621 H   0  0  0  0  0  0
  -25.2781   -9.5688   22.4738 H   0  0  0  0  0  0
  -23.9997   -7.4650   22.7476 H   0  0  0  0  0  0
  -21.0821   -8.8780   19.8981 H   0  0  0  0  0  0
  -22.3678  -10.9673   19.6151 H   0  0  0  0  0  0
  -21.2019   -7.6145   23.9704 H   0  0  0  0  0  0
  -21.1489   -6.0517   25.9066 H   0  0  0  0  0  0
  -22.0596   -2.7597   23.2838 H   0  0  0  0  0  0
  -22.4095  -11.9948   22.4851 H   0  0  0  0  0  0
  -21.1110  -13.1311   22.2541 H   0  0  0  0  0  0
  -24.6646  -15.8440   20.5262 H   0  0  0  0  0  0
  -26.2752  -15.6291   20.0664 H   0  0  0  0  0  0
  -26.7151  -32.5479   23.1164 H   0  0  0  0  0  0
  -25.0030  -33.9745   25.0462 H   0  0  0  0  0  0
  -22.7001  -31.3070   21.4114 H   0  0  0  0  0  0
  -23.3756  -35.9627   23.3279 H   0  0  0  0  0  0
  -24.3593  -36.8951   22.2060 H   0  0  0  0  0  0
  -23.7212  -37.6501   23.6671 H   0  0  0  0  0  0
  -26.0803  -31.5841   20.6105 H   0  0  0  0  0  0
  -26.8224  -30.8538   22.0049 H   0  0  0  0  0  0
  -28.1071  -29.0685   21.1613 H   0  0  0  0  0  0
  -26.0024  -25.9444   19.0353 H   0  0  0  0  0  0
  -23.9709  -27.2933   19.0435 H   0  0  0  0  0  0
  -23.7416  -30.6015   19.4089 H   0  0  0  0  0  0
  -22.7414  -29.2537   19.8605 H   0  0  0  0  0  0
  -25.1282  -36.1967   25.0840 H   0  0  0  0  0  0
  -20.9955  -28.3235   24.1420 H   0  0  0  0  0  0
  -20.5652  -26.2289   23.3615 H   0  0  0  0  0  0
  -21.6623  -26.7435   22.1211 H   0  0  0  0  0  0
  -19.6890  -25.6288   21.1241 H   0  0  0  0  0  0
  -19.6663  -27.3191   20.6746 H   0  0  0  0  0  0
  -17.4189  -26.6689   21.4013 H   0  0  0  0  0  0
  -18.0301  -26.0056   22.9002 H   0  0  0  0  0  0
  -19.7926  -30.7252   24.2285 H   0  0  0  0  0  0
  -17.5007  -31.6262   24.5164 H   0  0  0  0  0  0
  -15.5343  -30.2994   23.7634 H   0  0  0  0  0  0
  -15.8660  -28.0815   22.7077 H   0  0  0  0  0  0
  -24.5825  -30.7163   25.7832 H   0  0  0  0  0  0
  -24.8999  -32.2907   26.5031 H   0  0  0  0  0  0
  -25.8043  -30.8809   27.0232 H   0  0  0  0  0  0
  -26.2904  -29.6796   24.1175 H   0  0  0  0  0  0
  -27.3970  -29.7254   25.4698 H   0  0  0  0  0  0
  -27.8784  -30.4324   23.9457 H   0  0  0  0  0  0
  -27.2640  -33.3609   26.2121 H   0  0  0  0  0  0
  -28.3803  -32.6949   25.0304 H   0  0  0  0  0  0
  -28.0762  -31.8458   26.5380 H   0  0  0  0  0  0
  -28.2591  -38.0126   24.7548 H   0  0  0  0  0  0
  -28.1108  -36.2664   24.6228 H   0  0  0  0  0  0
  -27.2328  -37.1395   25.8868 H   0  0  0  0  0  0
  -20.9360  -29.8746   21.6894 H   0  0  0  0  0  0
  -26.0181  -38.2873   24.1426 H   0  0  0  0  0  0
  -28.2432  -19.4744   17.1382 H   0  0  0  0  0  0
  -28.2534  -17.7600   16.7853 H   0  0  0  0  0  0
  -29.7044  -18.7208   16.5155 H   0  0  0  0  0  0
  -30.8171  -23.7638   21.8323 H   0  0  0  0  0  0
  -29.0874  -23.9207   22.1305 H   0  0  0  0  0  0
  -30.0903  -25.3501   22.0509 H   0  0  0  0  0  0
  -31.8041  -24.8301   19.6466 H   0  0  0  0  0  0
  -30.8963  -26.2934   19.9630 H   0  0  0  0  0  0
  -30.7044  -25.4639   18.4261 H   0  0  0  0  0  0
  -29.1331  -23.1096   18.4482 H   0  0  0  0  0  0
  -30.7553  -22.9046   18.9781 H   0  0  0  0  0  0
  -27.5341  -24.7445   20.3458 H   0  0  0  0  0  0
  -28.1158  -25.1619   18.7458 H   0  0  0  0  0  0
  -30.0432  -20.8189   18.3491 H   0  0  0  0  0  0
  -29.0613  -15.2989   21.4181 H   0  0  0  0  0  0
  1 25  1  0  0  0
  1 30  2  0  0  0
  1 83  1  0  0  0
  2  3  1  0  0  0
  2 25  1  0  0  0
  2 86  1  0  0  0
  2 87  1  0  0  0
  3  4  1  0  0  0
  3 88  1  0  0  0
  3 89  1  0  0  0
  4  5  1  0  0  0
  4 90  1  0  0  0
  4 91  1  0  0  0
  5  6  1  0  0  0
  5 26  1  0  0  0
  5 92  1  0  0  0
  6 25  1  0  0  0
  6 93  1  0  0  0
  6 94  1  0  0  0
  7  8  2  0  0  0
  7 26  1  0  0  0
  7 29  1  0  0  0
  8  9  1  0  0  0
  8 22  1  0  0  0
  9 10  1  0  0  0
  9 27  2  0  0  0
 10 11  2  0  0  0
 10 15  1  0  0  0
 11 12  1  0  0  0
 11 95  1  0  0  0
 12 13  2  0  0  0
 12 96  1  0  0  0
 13 14  1  0  0  0
 13 31  1  0  0  0
 14 15  2  0  0  0
 14 97  1  0  0  0
 15 98  1  0  0  0
 16 17  2  0  0  0
 16 21  1  0  0  0
 16 31  1  0  0  0
 17 18  1  0  0  0
 17 99  1  0  0  0
 18 19  2  0  0  0
 18100  1  0  0  0
 19 20  1  0  0  0
 19 24  1  0  0  0
 20 21  2  0  0  0
 20101  1  0  0  0
 21 23  1  0  0  0
 22 28  1  0  0  0
 22 32  2  0  0  0
 26 27  1  0  0  0
 28102  1  0  0  0
 28103  1  0  0  0
 29104  1  0  0  0
 29105  1  0  0  0
 33 34  1  0  0  0
 33 66  1  0  0  0
 33 70  2  0  0  0
 34 36  1  0  0  0
 34 59  1  0  0  0
 34106  1  0  0  0
 35 44  2  0  0  0
 35 45  1  0  0  0
 35 68  1  0  0  0
 36 56  1  0  0  0
 36107  1  0  0  0
 37 39  1  0  0  0
 37 47  1  0  0  0
 37 66  1  0  0  0
 37108  1  0  0  0
 38 43  2  0  0  0
 38 46  1  0  0  0
 38 47  1  0  0  0
 39 64  1  0  0  0
 39 67  2  0  0  0
 40 52  1  0  0  0
 40 53  2  0  0  0
 40 58  1  0  0  0
 41109  1  0  0  0
 41110  1  0  0  0
 41111  1  0  0  0
 41 48  1  0  0  0
 42 43  1  0  0  0
 42 66  1  0  0  0
 42112  1  0  0  0
 42113  1  0  0  0
 43 44  1  0  0  0
 44114  1  0  0  0
 45 46  2  0  0  0
 45115  1  0  0  0
 46116  1  0  0  0
 47117  1  0  0  0
 47118  1  0  0  0
 48 56  1  0  0  0
 48 65  1  0  0  0
 48119  1  0  0  0
 49 50  1  0  0  0
 49 53  1  0  0  0
 49 64  1  0  0  0
 49120  1  0  0  0
 50 51  1  0  0  0
 50121  1  0  0  0
 50122  1  0  0  0
 51 52  1  0  0  0
 51123  1  0  0  0
 51124  1  0  0  0
 52125  1  0  0  0
 52126  1  0  0  0
 53 54  1  0  0  0
 54 55  2  0  0  0
 54127  1  0  0  0
 55 57  1  0  0  0
 55128  1  0  0  0
 56 69  2  0  0  0
 57 58  2  0  0  0
 57129  1  0  0  0
 58130  1  0  0  0
 59 60  1  0  0  0
 59 61  1  0  0  0
 59 62  1  0  0  0
 60131  1  0  0  0
 60132  1  0  0  0
 60133  1  0  0  0
 61134  1  0  0  0
 61135  1  0  0  0
 61136  1  0  0  0
 62137  1  0  0  0
 62138  1  0  0  0
 62139  1  0  0  0
 63 65  1  0  0  0
 63140  1  0  0  0
 63141  1  0  0  0
 63142  1  0  0  0
 64143  1  0  0  0
 65144  1  0  0  0
 68 79  1  0  0  0
 71 72  2  0  0  0
 71 75  1  0  0  0
 71 81  1  0  0  0
 72 82  1  0  0  0
 72 85  1  0  0  0
 73 81  2  0  0  0
 73 83  1  0  0  0
 73 85  1  0  0  0
 74 78  1  0  0  0
 74 82  1  0  0  0
 74 84  2  0  0  0
 75145  1  0  0  0
 75146  1  0  0  0
 75147  1  0  0  0
 76148  1  0  0  0
 76149  1  0  0  0
 76150  1  0  0  0
 76 80  1  0  0  0
 77 80  1  0  0  0
 77151  1  0  0  0
 77152  1  0  0  0
 77153  1  0  0  0
 78 80  1  0  0  0
 78154  1  0  0  0
 78155  1  0  0  0
 79 80  1  0  0  0
 79156  1  0  0  0
 79157  1  0  0  0
 82158  1  0  0  0
 83159  1  0  0  0
M  ISO  4   1 100  68 101  79 101  83 100
M  END
> <chiral flag>
0

> <version>
0

> <s_m_source_file>
/data/baiqing/PycharmProjects/Reinvent-master-3.2/result/LINK_invent/BTK/process_docking_weight1_custom_product_contain_oxygen_bond_distance_aromatic_linkinvent_7_9_3/rearranged_h_0168.sdf

> <i_m_source_file_index>
92

> <r_mmod_Potential_Energy-OPLS-2005>
-84.4667358398438

> <r_mmod_Stretch_Energy-OPLS-2005>
48.7424621582031

> <r_mmod_Bend_Energy-OPLS-2005>
137.035888671875

> <r_mmod_Torsional_Energy-OPLS-2005>
244.257614135742

> <r_mmod_Improper_Torsional_Energy-OPLS-2005>
6.04329681396484

> <r_mmod_Van_der_Waal_Energy-OPLS-2005>
128.664001464844

> <r_mmod_Electrostatic_Energy-OPLS-2005>
-436.437225341797

> <r_mmod_Solvation_Energy-OPLS-2005>
-234.871307373047

> <b_mmod_Minimization_Converged-OPLS-2005>
0

> <r_mmod_RMS_Derivative-OPLS-2005>
2.40989351272583

$$$$
92
                    3D
 Structure written by MMmdl.
150158  0  0  1  0            999 V2000
  -30.6178  -14.8139   20.4533 C   0  0  0  0  0  0
  -30.4261  -12.5025   19.4829 C   0  0  0  0  0  0
  -29.5086  -12.5106   18.2415 C   0  0  0  0  0  0
  -28.0387  -12.3227   18.6597 C   0  0  0  0  0  0
  -27.6338  -13.2416   19.8431 C   0  0  2  0  0  0
  -28.6790  -13.2286   20.9793 C   0  0  0  0  0  0
  -25.2475  -13.8215   20.5710 C   0  0  0  0  0  0
  -24.1783  -13.0443   20.9225 C   0  0  0  0  0  0
  -24.6392  -11.6926   20.8759 C   0  0  0  0  0  0
  -23.9076  -10.4295   21.0411 C   0  0  0  0  0  0
  -24.3625   -9.4208   21.9186 C   0  0  0  0  0  0
  -23.6298   -8.2244   22.0755 C   0  0  0  0  0  0
  -22.4280   -8.0283   21.3544 C   0  0  0  0  0  0
  -21.9918   -9.0257   20.4647 C   0  0  0  0  0  0
  -22.7249  -10.2136   20.3058 C   0  0  0  0  0  0
  -21.6855   -6.0738   22.5279 C   0  0  0  0  0  0
  -21.4015   -6.5641   23.8213 C   0  0  0  0  0  0
  -21.3660   -5.6793   24.9174 C   0  0  0  0  0  0
  -21.6044   -4.3056   24.7224 C   0  0  0  0  0  0
  -21.8819   -3.8148   23.4345 C   0  0  0  0  0  0
  -21.9193   -4.6965   22.3402 C   0  0  0  0  0  0
  -22.7802  -13.5215   21.1877 C   0  0  0  0  0  0
  -22.1662   -4.2150   21.0980 F   0  0  0  0  0  0
  -21.5628   -3.4539   25.7737 F   0  0  0  0  0  0
  -29.9685  -13.5937   20.3824 N   0  0  0  0  0  0
  -26.2902  -12.9439   20.3272 N   0  0  0  0  0  0
  -25.9324  -11.6573   20.5760 N   0  0  0  0  0  0
  -22.0453  -12.8200   22.0432 N   0  0  0  0  0  0
  -25.4140  -15.1943   20.4123 N   0  0  0  0  0  0
  -31.8140  -14.8406   20.1500 O   0  0  0  0  0  0
  -21.6643   -6.8881   21.4241 O   0  0  0  0  0  0
  -22.3485  -14.5518   20.6722 O   0  0  0  0  0  0
  -24.6364  -31.8510   23.1953 C   0  0  0  0  0  0
  -25.9170  -32.4730   23.8310 C   0  0  1  0  0  0
  -27.2134  -27.2042   20.1317 C   0  0  0  0  0  0
  -25.5947  -33.8534   24.2229 N   0  0  0  0  0  0
  -23.4351  -30.4741   21.5397 C   0  0  2  0  0  0
  -24.8812  -28.9145   20.1094 C   0  0  0  0  0  0
  -22.7527  -29.4583   22.4889 C   0  0  0  0  0  0
  -18.0298  -28.1391   22.8484 C   0  0  0  0  0  0
  -24.1491  -36.7270   23.2640 C   0  0  0  0  0  0
  -25.9864  -30.7442   21.3859 C   0  0  0  0  0  0
  -26.0550  -29.3622   20.7274 C   0  0  0  0  0  0
  -27.2196  -28.5187   20.7302 C   0  0  0  0  0  0
  -26.0139  -26.8463   19.4732 C   0  0  0  0  0  0
  -24.8691  -27.6669   19.4715 C   0  0  0  0  0  0
  -23.6562  -29.8091   20.1561 C   0  0  0  0  0  0
  -25.4121  -36.3053   24.0321 C   0  0  1  0  0  0
  -20.5905  -28.3707   23.1255 C   0  0  2  0  0  0
  -20.6783  -26.9419   22.5405 C   0  0  0  0  0  0
  -19.5757  -26.6384   21.5212 C   0  0  0  0  0  0
  -18.1939  -26.7933   22.1625 C   0  0  0  0  0  0
  -19.1553  -28.8867   23.2864 C   0  0  0  0  0  0
  -18.9471  -30.1466   23.8885 C   0  0  0  0  0  0
  -17.6469  -30.6590   24.0561 C   0  0  0  0  0  0
  -25.9065  -34.9426   23.5080 C   0  0  0  0  0  0
  -16.5360  -29.9084   23.6334 C   0  0  0  0  0  0
  -16.7283  -28.6502   23.0356 C   0  0  0  0  0  0
  -26.4515  -31.6576   25.0725 C   0  0  0  0  0  0
  -25.3718  -31.3744   26.1432 C   0  0  0  0  0  0
  -27.0376  -30.2983   24.6262 C   0  0  0  0  0  0
  -27.6057  -32.4330   25.7504 C   0  0  0  0  0  0
  -27.5577  -37.1792   24.8466 C   0  0  0  0  0  0
  -21.4228  -29.3047   22.3636 N   0  0  0  0  0  0
  -26.4289  -37.3759   23.9409 N   0  0  0  0  0  0
  -24.7053  -31.0428   22.0957 N   0  0  0  0  0  0
  -23.4206  -28.8124   23.3006 O   0  0  0  0  0  0
  -28.3011  -26.2805   20.2010 O   0  0  0  0  0  0
  -26.5642  -34.8910   22.4652 O   0  0  0  0  0  0
  -23.5502  -32.1358   23.7217 O   0  0  0  0  0  0
  -31.6751  -17.6061   21.2785 C   0  0  0  0  0  0
  -32.2358  -18.8686   21.5147 C   0  0  0  0  0  0
  -29.6022  -18.7016   20.5779 C   0  0  0  0  0  0
  -30.3580  -17.4396   20.7905 C   0  0  0  0  0  0
  -30.1771  -20.0399   20.8284 C   0  0  0  0  0  0
  -31.5084  -20.0454   21.2962 C   0  0  0  0  0  0
  -28.1702  -24.8514   19.9942 C   0  0  0  0  0  0
  -28.9053  -23.8083   20.5658 C   0  0  0  0  0  0
  -28.7289  -22.3071   20.2730 C   0  0  0  0  0  0
  -29.7156  -21.4732   20.7787 N   0  0  0  0  0  0
  -29.8910  -16.0112   20.6178 N   0  0  0  0  0  0
  -27.7850  -21.8409   19.6337 O   0  0  0  0  0  0
  -29.8361  -24.1526   21.4704 O   0  0  0  0  0  0
  -32.1091  -21.2326   21.5665 F   0  0  0  0  0  0
  -31.4661  -12.6213   19.1751 H   0  0  0  0  0  0
  -30.3774  -11.5399   19.9944 H   0  0  0  0  0  0
  -29.8038  -11.7234   17.5463 H   0  0  0  0  0  0
  -29.6220  -13.4537   17.7046 H   0  0  0  0  0  0
  -27.9121  -11.2777   18.9453 H   0  0  0  0  0  0
  -27.3774  -12.4865   17.8080 H   0  0  0  0  0  0
  -27.6116  -14.2528   19.4362 H   0  0  0  0  0  0
  -28.7341  -12.2468   21.4519 H   0  0  0  0  0  0
  -28.4035  -13.9350   21.7641 H   0  0  0  0  0  0
  -25.2769   -9.5684   22.4764 H   0  0  0  0  0  0
  -24.0006   -7.4635   22.7474 H   0  0  0  0  0  0
  -21.0850   -8.8778   19.8951 H   0  0  0  0  0  0
  -22.3708  -10.9676   19.6168 H   0  0  0  0  0  0
  -21.2008   -7.6149   23.9716 H   0  0  0  0  0  0
  -21.1481   -6.0524   25.9077 H   0  0  0  0  0  0
  -22.0598   -2.7610   23.2846 H   0  0  0  0  0  0
  -22.4077  -11.9865   22.4820 H   0  0  0  0  0  0
  -21.1067  -13.1215   22.2637 H   0  0  0  0  0  0
  -24.6429  -15.8443   20.5215 H   0  0  0  0  0  0
  -26.2548  -15.6362   20.0641 H   0  0  0  0  0  0
  -26.7232  -32.5356   23.1040 H   0  0  0  0  0  0
  -25.0084  -33.9660   25.0369 H   0  0  0  0  0  0
  -22.7343  -31.2984   21.3919 H   0  0  0  0  0  0
  -23.3757  -35.9597   23.3295 H   0  0  0  0  0  0
  -24.3578  -36.8905   22.2057 H   0  0  0  0  0  0
  -23.7240  -37.6464   23.6676 H   0  0  0  0  0  0
  -26.1360  -31.5021   20.6157 H   0  0  0  0  0  0
  -26.8601  -30.7910   22.0243 H   0  0  0  0  0  0
  -28.1154  -28.8539   21.2337 H   0  0  0  0  0  0
  -25.9102  -25.9033   18.9631 H   0  0  0  0  0  0
  -23.9723  -27.3212   18.9758 H   0  0  0  0  0  0
  -23.7872  -30.5860   19.4020 H   0  0  0  0  0  0
  -22.7721  -29.2484   19.8473 H   0  0  0  0  0  0
  -25.1306  -36.1889   25.0813 H   0  0  0  0  0  0
  -21.0002  -28.3290   24.1375 H   0  0  0  0  0  0
  -20.5682  -26.2318   23.3615 H   0  0  0  0  0  0
  -21.6649  -26.7436   22.1199 H   0  0  0  0  0  0
  -19.6917  -25.6292   21.1247 H   0  0  0  0  0  0
  -19.6693  -27.3189   20.6737 H   0  0  0  0  0  0
  -17.4207  -26.6680   21.4029 H   0  0  0  0  0  0
  -18.0340  -26.0077   22.9024 H   0  0  0  0  0  0
  -19.7946  -30.7287   24.2250 H   0  0  0  0  0  0
  -17.5020  -31.6269   24.5164 H   0  0  0  0  0  0
  -15.5359  -30.2981   23.7666 H   0  0  0  0  0  0
  -15.8684  -28.0816   22.7080 H   0  0  0  0  0  0
  -24.5903  -30.7082   25.7756 H   0  0  0  0  0  0
  -24.8898  -32.2918   26.4819 H   0  0  0  0  0  0
  -25.8018  -30.8946   27.0233 H   0  0  0  0  0  0
  -26.2980  -29.6715   24.1266 H   0  0  0  0  0  0
  -27.4011  -29.7267   25.4812 H   0  0  0  0  0  0
  -27.8877  -30.4240   23.9554 H   0  0  0  0  0  0
  -27.2658  -33.3644   26.2045 H   0  0  0  0  0  0
  -28.3887  -32.6869   25.0346 H   0  0  0  0  0  0
  -28.0703  -31.8480   26.5451 H   0  0  0  0  0  0
  -28.2591  -38.0093   24.7514 H   0  0  0  0  0  0
  -28.1077  -36.2623   24.6293 H   0  0  0  0  0  0
  -27.2294  -37.1440   25.8869 H   0  0  0  0  0  0
  -20.9422  -29.8766   21.6831 H   0  0  0  0  0  0
  -26.0161  -38.2830   24.1411 H   0  0  0  0  0  0
  -32.3009  -16.7582   21.5097 H   0  0  0  0  0  0
  -33.2468  -18.9381   21.8881 H   0  0  0  0  0  0
  -28.5795  -18.6433   20.2346 H   0  0  0  0  0  0
  -27.4123  -24.6060   19.2689 H   0  0  0  0  0  0
  -30.4571  -22.0445   21.1610 H   0  0  0  0  0  0
  -28.8912  -15.8803   20.6449 H   0  0  0  0  0  0
  -29.9898  -23.4007   22.0264 H   0  0  0  0  0  0
  1 25  1  0  0  0
  1 30  2  0  0  0
  1 81  1  0  0  0
  2  3  1  0  0  0
  2 25  1  0  0  0
  2 85  1  0  0  0
  2 86  1  0  0  0
  3  4  1  0  0  0
  3 87  1  0  0  0
  3 88  1  0  0  0
  4  5  1  0  0  0
  4 89  1  0  0  0
  4 90  1  0  0  0
  5  6  1  0  0  0
  5 26  1  0  0  0
  5 91  1  0  0  0
  6 25  1  0  0  0
  6 92  1  0  0  0
  6 93  1  0  0  0
  7  8  2  0  0  0
  7 26  1  0  0  0
  7 29  1  0  0  0
  8  9  1  0  0  0
  8 22  1  0  0  0
  9 10  1  0  0  0
  9 27  2  0  0  0
 10 11  2  0  0  0
 10 15  1  0  0  0
 11 12  1  0  0  0
 11 94  1  0  0  0
 12 13  2  0  0  0
 12 95  1  0  0  0
 13 14  1  0  0  0
 13 31  1  0  0  0
 14 15  2  0  0  0
 14 96  1  0  0  0
 15 97  1  0  0  0
 16 17  2  0  0  0
 16 21  1  0  0  0
 16 31  1  0  0  0
 17 18  1  0  0  0
 17 98  1  0  0  0
 18 19  2  0  0  0
 18 99  1  0  0  0
 19 20  1  0  0  0
 19 24  1  0  0  0
 20 21  2  0  0  0
 20100  1  0  0  0
 21 23  1  0  0  0
 22 28  1  0  0  0
 22 32  2  0  0  0
 26 27  1  0  0  0
 28101  1  0  0  0
 28102  1  0  0  0
 29103  1  0  0  0
 29104  1  0  0  0
 33 34  1  0  0  0
 33 66  1  0  0  0
 33 70  2  0  0  0
 34 36  1  0  0  0
 34 59  1  0  0  0
 34105  1  0  0  0
 35 44  2  0  0  0
 35 45  1  0  0  0
 35 68  1  0  0  0
 36 56  1  0  0  0
 36106  1  0  0  0
 37 39  1  0  0  0
 37 47  1  0  0  0
 37 66  1  0  0  0
 37107  1  0  0  0
 38 43  2  0  0  0
 38 46  1  0  0  0
 38 47  1  0  0  0
 39 64  1  0  0  0
 39 67  2  0  0  0
 40 52  1  0  0  0
 40 53  2  0  0  0
 40 58  1  0  0  0
 41108  1  0  0  0
 41109  1  0  0  0
 41110  1  0  0  0
 41 48  1  0  0  0
 42 43  1  0  0  0
 42 66  1  0  0  0
 42111  1  0  0  0
 42112  1  0  0  0
 43 44  1  0  0  0
 44113  1  0  0  0
 45 46  2  0  0  0
 45114  1  0  0  0
 46115  1  0  0  0
 47116  1  0  0  0
 47117  1  0  0  0
 48 56  1  0  0  0
 48 65  1  0  0  0
 48118  1  0  0  0
 49 50  1  0  0  0
 49 53  1  0  0  0
 49 64  1  0  0  0
 49119  1  0  0  0
 50 51  1  0  0  0
 50120  1  0  0  0
 50121  1  0  0  0
 51 52  1  0  0  0
 51122  1  0  0  0
 51123  1  0  0  0
 52124  1  0  0  0
 52125  1  0  0  0
 53 54  1  0  0  0
 54 55  2  0  0  0
 54126  1  0  0  0
 55 57  1  0  0  0
 55127  1  0  0  0
 56 69  2  0  0  0
 57 58  2  0  0  0
 57128  1  0  0  0
 58129  1  0  0  0
 59 60  1  0  0  0
 59 61  1  0  0  0
 59 62  1  0  0  0
 60130  1  0  0  0
 60131  1  0  0  0
 60132  1  0  0  0
 61133  1  0  0  0
 61134  1  0  0  0
 61135  1  0  0  0
 62136  1  0  0  0
 62137  1  0  0  0
 62138  1  0  0  0
 63 65  1  0  0  0
 63139  1  0  0  0
 63140  1  0  0  0
 63141  1  0  0  0
 64142  1  0  0  0
 65143  1  0  0  0
 68 77  1  0  0  0
 71 72  2  0  0  0
 71 74  1  0  0  0
 71144  1  0  0  0
 72 76  1  0  0  0
 72145  1  0  0  0
 73 74  2  0  0  0
 73 75  1  0  0  0
 73146  1  0  0  0
 74 81  1  0  0  0
 75 76  2  0  0  0
 75 80  1  0  0  0
 76 84  1  0  0  0
 77 78  2  0  0  0
 77147  1  0  0  0
 78 79  1  0  0  0
 78 83  1  0  0  0
 79 80  1  0  0  0
 79 82  2  0  0  0
 80148  1  0  0  0
 81149  1  0  0  0
 83150  1  0  0  0
M  ISO  4   1 100  68 101  77 101  81 100
M  END
> <chiral flag>
0

> <version>
0

> <s_m_source_file>
/data/baiqing/PycharmProjects/Reinvent-master-3.2/result/LINK_invent/BTK/process_docking_weight1_custom_product_contain_oxygen_bond_distance_aromatic_linkinvent_7_9_3/rearranged_h_0168.sdf

> <i_m_source_file_index>
93

> <r_mmod_Potential_Energy-OPLS-2005>
245.042602539062

> <r_mmod_Stretch_Energy-OPLS-2005>
166.747680664062

> <r_mmod_Bend_Energy-OPLS-2005>
245.594787597656

> <r_mmod_Torsional_Energy-OPLS-2005>
224.218872070312

> <r_mmod_Improper_Torsional_Energy-OPLS-2005>
6.05237197875977

> <r_mmod_Van_der_Waal_Energy-OPLS-2005>
148.673721313477

> <r_mmod_Electrostatic_Energy-OPLS-2005>
-430.092132568359

> <r_mmod_Solvation_Energy-OPLS-2005>
-236.019134521484

> <b_mmod_Minimization_Converged-OPLS-2005>
0

> <r_mmod_RMS_Derivative-OPLS-2005>
0.156905606389046

$$$$
93
                    3D
 Structure written by MMmdl.
167175  0  0  1  0            999 V2000
  -30.6643  -14.5751   20.4727 C   0  0  0  0  0  0
  -30.4187  -12.3420   19.4528 C   0  0  0  0  0  0
  -29.4934  -12.4822   18.2230 C   0  0  0  0  0  0
  -28.0168  -12.3442   18.6366 C   0  0  0  0  0  0
  -27.6524  -13.2159   19.8670 C   0  0  2  0  0  0
  -28.6978  -13.0715   20.9983 C   0  0  0  0  0  0
  -25.2553  -13.8171   20.5712 C   0  0  0  0  0  0
  -24.1819  -13.0439   20.9199 C   0  0  0  0  0  0
  -24.6383  -11.6907   20.8773 C   0  0  0  0  0  0
  -23.9050  -10.4295   21.0431 C   0  0  0  0  0  0
  -24.3607   -9.4218   21.9209 C   0  0  0  0  0  0
  -23.6288   -8.2246   22.0775 C   0  0  0  0  0  0
  -22.4285   -8.0282   21.3542 C   0  0  0  0  0  0
  -21.9913   -9.0252   20.4650 C   0  0  0  0  0  0
  -22.7230  -10.2143   20.3069 C   0  0  0  0  0  0
  -21.6849   -6.0744   22.5284 C   0  0  0  0  0  0
  -21.4015   -6.5653   23.8219 C   0  0  0  0  0  0
  -21.3651   -5.6813   24.9182 C   0  0  0  0  0  0
  -21.6040   -4.3071   24.7232 C   0  0  0  0  0  0
  -21.8816   -3.8155   23.4353 C   0  0  0  0  0  0
  -21.9187   -4.6970   22.3414 C   0  0  0  0  0  0
  -22.7843  -13.5240   21.1851 C   0  0  0  0  0  0
  -22.1671   -4.2160   21.0994 F   0  0  0  0  0  0
  -21.5613   -3.4553   25.7741 F   0  0  0  0  0  0
  -30.0206  -13.3719   20.4314 N   0  0  0  0  0  0
  -26.2991  -12.9363   20.3380 N   0  0  0  0  0  0
  -25.9310  -11.6522   20.5799 N   0  0  0  0  0  0
  -22.0481  -12.8218   22.0399 N   0  0  0  0  0  0
  -25.4229  -15.1898   20.4138 N   0  0  0  0  0  0
  -31.8393  -14.6969   20.1176 O   0  0  0  0  0  0
  -21.6632   -6.8888   21.4255 O   0  0  0  0  0  0
  -22.3535  -14.5554   20.6720 O   0  0  0  0  0  0
  -24.6207  -31.8604   23.2043 C   0  0  0  0  0  0
  -25.9089  -32.4774   23.8341 C   0  0  1  0  0  0
  -27.2334  -27.3713   20.0904 C   0  0  0  0  0  0
  -25.5939  -33.8575   24.2289 N   0  0  0  0  0  0
  -23.4115  -30.4844   21.5444 C   0  0  2  0  0  0
  -24.8584  -28.9421   20.1046 C   0  0  0  0  0  0
  -22.7450  -29.4626   22.4946 C   0  0  0  0  0  0
  -18.0288  -28.1371   22.8498 C   0  0  0  0  0  0
  -24.1499  -36.7282   23.2640 C   0  0  0  0  0  0
  -25.9466  -30.8037   21.3690 C   0  0  0  0  0  0
  -26.0198  -29.4340   20.7121 C   0  0  0  0  0  0
  -27.2043  -28.6511   20.7110 C   0  0  0  0  0  0
  -26.0531  -26.9146   19.4648 C   0  0  0  0  0  0
  -24.8732  -27.6848   19.4770 C   0  0  0  0  0  0
  -23.6224  -29.8152   20.1589 C   0  0  0  0  0  0
  -25.4124  -36.3088   24.0336 C   0  0  1  0  0  0
  -20.5882  -28.3676   23.1296 C   0  0  2  0  0  0
  -20.6767  -26.9403   22.5414 C   0  0  0  0  0  0
  -19.5748  -26.6374   21.5213 C   0  0  0  0  0  0
  -18.1923  -26.7916   22.1631 C   0  0  0  0  0  0
  -19.1537  -28.8840   23.2892 C   0  0  0  0  0  0
  -18.9460  -30.1438   23.8903 C   0  0  0  0  0  0
  -17.6464  -30.6581   24.0559 C   0  0  0  0  0  0
  -25.9057  -34.9455   23.5115 C   0  0  0  0  0  0
  -16.5356  -29.9075   23.6320 C   0  0  0  0  0  0
  -16.7277  -28.6485   23.0357 C   0  0  0  0  0  0
  -26.4493  -31.6561   25.0688 C   0  0  0  0  0  0
  -25.3749  -31.3661   26.1434 C   0  0  0  0  0  0
  -27.0335  -30.3002   24.6093 C   0  0  0  0  0  0
  -27.6066  -32.4275   25.7458 C   0  0  0  0  0  0
  -27.5587  -37.1804   24.8473 C   0  0  0  0  0  0
  -21.4172  -29.3034   22.3693 N   0  0  0  0  0  0
  -26.4299  -37.3784   23.9415 N   0  0  0  0  0  0
  -24.6773  -31.0664   22.0962 N   0  0  0  0  0  0
  -23.4200  -28.8177   23.3015 O   0  0  0  0  0  0
  -28.3722  -26.5766   20.1828 O   0  0  0  0  0  0
  -26.5612  -34.8920   22.4676 O   0  0  0  0  0  0
  -23.5390  -32.1383   23.7416 O   0  0  0  0  0  0
  -29.9997  -19.4448   18.6655 C   0  0  0  0  0  0
  -30.2600  -18.2401   17.9894 C   0  0  0  0  0  0
  -29.6990  -19.4493   20.0442 C   0  0  0  0  0  0
  -29.9730  -16.9546   20.0637 C   0  0  0  0  0  0
  -30.2349  -17.0097   18.6692 C   0  0  0  0  0  0
  -29.6962  -18.1912   20.7377 C   0  0  0  0  0  0
  -29.5070  -20.8023   20.7060 C   0  0  0  0  0  0
  -30.2723  -25.5871   19.0109 C   0  0  0  0  0  0
  -28.1803  -24.1415   19.2998 C   0  0  0  0  0  0
  -31.0899  -26.4149   19.9980 C   0  0  0  0  0  0
  -26.8423  -22.3349   22.2300 C   0  0  0  0  0  0
  -25.7530  -21.5900   20.0712 C   0  0  0  0  0  0
  -28.3512  -21.7530   20.1990 C   0  0  1  0  0  0
  -28.7363  -25.6145   19.1493 C   0  0  1  0  0  0
  -27.0106  -21.4849   20.9551 C   0  0  0  0  0  0
  -29.9052  -15.6706   20.7439 N   0  0  0  0  0  0
  -28.7033  -23.2131   20.1525 N   0  0  0  0  0  0
  -30.2290  -21.1616   21.6407 O   0  0  0  0  0  0
  -30.8453  -24.9478   18.1215 O   0  0  0  0  0  0
  -27.2684  -23.8125   18.5381 O   0  0  0  0  0  0
  -30.4258  -15.8800   17.9464 F   0  0  0  0  0  0
  -29.4144  -18.1593   22.0641 F   0  0  0  0  0  0
  -31.4639  -12.4286   19.1491 H   0  0  0  0  0  0
  -30.3169  -11.3507   19.8968 H   0  0  0  0  0  0
  -29.7384  -11.7267   17.4763 H   0  0  0  0  0  0
  -29.6507  -13.4492   17.7418 H   0  0  0  0  0  0
  -27.8352  -11.2917   18.8636 H   0  0  0  0  0  0
  -27.3653  -12.5894   17.7971 H   0  0  0  0  0  0
  -27.6735  -14.2516   19.5256 H   0  0  0  0  0  0
  -28.6887  -12.0592   21.4053 H   0  0  0  0  0  0
  -28.4596  -13.7297   21.8355 H   0  0  0  0  0  0
  -25.2763   -9.5701   22.4773 H   0  0  0  0  0  0
  -23.9996   -7.4644   22.7494 H   0  0  0  0  0  0
  -21.0844   -8.8780   19.8944 H   0  0  0  0  0  0
  -22.3693  -10.9689   19.6188 H   0  0  0  0  0  0
  -21.2035   -7.6166   23.9731 H   0  0  0  0  0  0
  -21.1468   -6.0542   25.9087 H   0  0  0  0  0  0
  -22.0595   -2.7612   23.2854 H   0  0  0  0  0  0
  -22.4103  -11.9883   22.4803 H   0  0  0  0  0  0
  -21.1107  -13.1249   22.2597 H   0  0  0  0  0  0
  -24.6485  -15.8355   20.5229 H   0  0  0  0  0  0
  -26.2665  -15.6373   20.0811 H   0  0  0  0  0  0
  -26.7159  -32.5477   23.1095 H   0  0  0  0  0  0
  -25.0102  -33.9701   25.0445 H   0  0  0  0  0  0
  -22.7026  -31.3025   21.4028 H   0  0  0  0  0  0
  -23.3767  -35.9608   23.3300 H   0  0  0  0  0  0
  -24.3586  -36.8896   22.2054 H   0  0  0  0  0  0
  -23.7236  -37.6482   23.6648 H   0  0  0  0  0  0
  -26.0761  -31.5690   20.6015 H   0  0  0  0  0  0
  -26.8288  -30.8512   21.9959 H   0  0  0  0  0  0
  -28.0949  -29.0165   21.2030 H   0  0  0  0  0  0
  -26.0088  -25.9460   18.9910 H   0  0  0  0  0  0
  -23.9802  -27.2993   19.0036 H   0  0  0  0  0  0
  -23.7326  -30.5877   19.3966 H   0  0  0  0  0  0
  -22.7440  -29.2364   19.8652 H   0  0  0  0  0  0
  -25.1302  -36.1943   25.0822 H   0  0  0  0  0  0
  -20.9984  -28.3246   24.1419 H   0  0  0  0  0  0
  -20.5674  -26.2278   23.3605 H   0  0  0  0  0  0
  -21.6640  -26.7423   22.1214 H   0  0  0  0  0  0
  -19.6900  -25.6295   21.1218 H   0  0  0  0  0  0
  -19.6664  -27.3194   20.6755 H   0  0  0  0  0  0
  -17.4199  -26.6677   21.4027 H   0  0  0  0  0  0
  -18.0312  -26.0039   22.9001 H   0  0  0  0  0  0
  -19.7936  -30.7251   24.2279 H   0  0  0  0  0  0
  -17.5016  -31.6261   24.5161 H   0  0  0  0  0  0
  -15.5347  -30.2989   23.7621 H   0  0  0  0  0  0
  -15.8672  -28.0795   22.7079 H   0  0  0  0  0  0
  -24.5944  -30.6988   25.7768 H   0  0  0  0  0  0
  -24.8912  -32.2803   26.4878 H   0  0  0  0  0  0
  -25.8106  -30.8835   27.0191 H   0  0  0  0  0  0
  -26.2885  -29.6745   24.1174 H   0  0  0  0  0  0
  -27.4128  -29.7265   25.4555 H   0  0  0  0  0  0
  -27.8708  -30.4313   23.9239 H   0  0  0  0  0  0
  -27.2702  -33.3581   26.2043 H   0  0  0  0  0  0
  -28.3877  -32.6818   25.0280 H   0  0  0  0  0  0
  -28.0730  -31.8380   26.5362 H   0  0  0  0  0  0
  -28.2626  -38.0089   24.7543 H   0  0  0  0  0  0
  -28.1067  -36.2623   24.6291 H   0  0  0  0  0  0
  -27.2296  -37.1456   25.8875 H   0  0  0  0  0  0
  -20.9336  -29.8774   21.6928 H   0  0  0  0  0  0
  -26.0183  -38.2863   24.1407 H   0  0  0  0  0  0
  -30.0502  -20.3721   18.1112 H   0  0  0  0  0  0
  -30.4744  -18.2564   16.9312 H   0  0  0  0  0  0
  -30.8491  -26.1236   21.0202 H   0  0  0  0  0  0
  -30.8635  -27.4742   19.8754 H   0  0  0  0  0  0
  -32.1565  -26.2640   19.8346 H   0  0  0  0  0  0
  -25.9883  -21.9923   22.8153 H   0  0  0  0  0  0
  -26.6734  -23.3862   21.9929 H   0  0  0  0  0  0
  -27.7247  -22.2748   22.8668 H   0  0  0  0  0  0
  -24.8889  -21.1461   20.5679 H   0  0  0  0  0  0
  -25.8850  -21.0674   19.1219 H   0  0  0  0  0  0
  -25.4913  -22.6245   19.8494 H   0  0  0  0  0  0
  -28.1927  -21.4613   19.1608 H   0  0  0  0  0  0
  -28.3757  -26.0007   18.1941 H   0  0  0  0  0  0
  -27.0353  -20.4414   21.2808 H   0  0  0  0  0  0
  -29.0580  -15.5038   21.2632 H   0  0  0  0  0  0
  -29.4536  -23.4952   20.7690 H   0  0  0  0  0  0
  1 25  1  0  0  0
  1 30  2  0  0  0
  1 86  1  0  0  0
  2  3  1  0  0  0
  2 25  1  0  0  0
  2 93  1  0  0  0
  2 94  1  0  0  0
  3  4  1  0  0  0
  3 95  1  0  0  0
  3 96  1  0  0  0
  4  5  1  0  0  0
  4 97  1  0  0  0
  4 98  1  0  0  0
  5  6  1  0  0  0
  5 26  1  0  0  0
  5 99  1  0  0  0
  6 25  1  0  0  0
  6100  1  0  0  0
  6101  1  0  0  0
  7  8  2  0  0  0
  7 26  1  0  0  0
  7 29  1  0  0  0
  8  9  1  0  0  0
  8 22  1  0  0  0
  9 10  1  0  0  0
  9 27  2  0  0  0
 10 11  2  0  0  0
 10 15  1  0  0  0
 11 12  1  0  0  0
 11102  1  0  0  0
 12 13  2  0  0  0
 12103  1  0  0  0
 13 14  1  0  0  0
 13 31  1  0  0  0
 14 15  2  0  0  0
 14104  1  0  0  0
 15105  1  0  0  0
 16 17  2  0  0  0
 16 21  1  0  0  0
 16 31  1  0  0  0
 17 18  1  0  0  0
 17106  1  0  0  0
 18 19  2  0  0  0
 18107  1  0  0  0
 19 20  1  0  0  0
 19 24  1  0  0  0
 20 21  2  0  0  0
 20108  1  0  0  0
 21 23  1  0  0  0
 22 28  1  0  0  0
 22 32  2  0  0  0
 26 27  1  0  0  0
 28109  1  0  0  0
 28110  1  0  0  0
 29111  1  0  0  0
 29112  1  0  0  0
 33 34  1  0  0  0
 33 66  1  0  0  0
 33 70  2  0  0  0
 34 36  1  0  0  0
 34 59  1  0  0  0
 34113  1  0  0  0
 35 44  2  0  0  0
 35 45  1  0  0  0
 35 68  1  0  0  0
 36 56  1  0  0  0
 36114  1  0  0  0
 37 39  1  0  0  0
 37 47  1  0  0  0
 37 66  1  0  0  0
 37115  1  0  0  0
 38 43  2  0  0  0
 38 46  1  0  0  0
 38 47  1  0  0  0
 39 64  1  0  0  0
 39 67  2  0  0  0
 40 52  1  0  0  0
 40 53  2  0  0  0
 40 58  1  0  0  0
 41116  1  0  0  0
 41117  1  0  0  0
 41118  1  0  0  0
 41 48  1  0  0  0
 42 43  1  0  0  0
 42 66  1  0  0  0
 42119  1  0  0  0
 42120  1  0  0  0
 43 44  1  0  0  0
 44121  1  0  0  0
 45 46  2  0  0  0
 45122  1  0  0  0
 46123  1  0  0  0
 47124  1  0  0  0
 47125  1  0  0  0
 48 56  1  0  0  0
 48 65  1  0  0  0
 48126  1  0  0  0
 49 50  1  0  0  0
 49 53  1  0  0  0
 49 64  1  0  0  0
 49127  1  0  0  0
 50 51  1  0  0  0
 50128  1  0  0  0
 50129  1  0  0  0
 51 52  1  0  0  0
 51130  1  0  0  0
 51131  1  0  0  0
 52132  1  0  0  0
 52133  1  0  0  0
 53 54  1  0  0  0
 54 55  2  0  0  0
 54134  1  0  0  0
 55 57  1  0  0  0
 55135  1  0  0  0
 56 69  2  0  0  0
 57 58  2  0  0  0
 57136  1  0  0  0
 58137  1  0  0  0
 59 60  1  0  0  0
 59 61  1  0  0  0
 59 62  1  0  0  0
 60138  1  0  0  0
 60139  1  0  0  0
 60140  1  0  0  0
 61141  1  0  0  0
 61142  1  0  0  0
 61143  1  0  0  0
 62144  1  0  0  0
 62145  1  0  0  0
 62146  1  0  0  0
 63 65  1  0  0  0
 63147  1  0  0  0
 63148  1  0  0  0
 63149  1  0  0  0
 64150  1  0  0  0
 65151  1  0  0  0
 68 84  1  0  0  0
 71 72  2  0  0  0
 71 73  1  0  0  0
 71152  1  0  0  0
 72 75  1  0  0  0
 72153  1  0  0  0
 73 76  2  0  0  0
 73 77  1  0  0  0
 74 75  2  0  0  0
 74 76  1  0  0  0
 74 86  1  0  0  0
 75 91  1  0  0  0
 76 92  1  0  0  0
 77 83  1  0  0  0
 77 88  2  0  0  0
 78 80  1  0  0  0
 78 84  1  0  0  0
 78 89  2  0  0  0
 79 84  1  0  0  0
 79 87  1  0  0  0
 79 90  2  0  0  0
 80154  1  0  0  0
 80155  1  0  0  0
 80156  1  0  0  0
 81157  1  0  0  0
 81158  1  0  0  0
 81159  1  0  0  0
 81 85  1  0  0  0
 82 85  1  0  0  0
 82160  1  0  0  0
 82161  1  0  0  0
 82162  1  0  0  0
 83 85  1  0  0  0
 83 87  1  0  0  0
 83163  1  0  0  0
 84164  1  0  0  0
 85165  1  0  0  0
 86166  1  0  0  0
 87167  1  0  0  0
M  ISO  4   1 100  68 101  84 101  86 100
M  END
> <chiral flag>
0

> <version>
0

> <s_m_source_file>
/data/baiqing/PycharmProjects/Reinvent-master-3.2/result/LINK_invent/BTK/process_docking_weight1_custom_product_contain_oxygen_bond_distance_aromatic_linkinvent_7_9_3/rearranged_h_0168.sdf

> <i_m_source_file_index>
94

> <r_mmod_Potential_Energy-OPLS-2005>
33.9622917175293

> <r_mmod_Stretch_Energy-OPLS-2005>
67.0478973388672

> <r_mmod_Bend_Energy-OPLS-2005>
133.613037109375

> <r_mmod_Torsional_Energy-OPLS-2005>
304.615173339844

> <r_mmod_Improper_Torsional_Energy-OPLS-2005>
6.31299448013306

> <r_mmod_Van_der_Waal_Energy-OPLS-2005>
143.081954956055

> <r_mmod_Electrostatic_Energy-OPLS-2005>
-418.959197998047

> <r_mmod_Solvation_Energy-OPLS-2005>
-234.742874145508

> <b_mmod_Minimization_Converged-OPLS-2005>
0

> <r_mmod_RMS_Derivative-OPLS-2005>
2.33828353881836

$$$$
94
                    3D
 Structure written by MMmdl.
156164  0  0  1  0            999 V2000
  -30.6475  -14.6279   20.5336 C   0  0  0  0  0  0
  -30.4503  -12.3903   19.4687 C   0  0  0  0  0  0
  -29.5222  -12.4993   18.2362 C   0  0  0  0  0  0
  -28.0383  -12.3666   18.6398 C   0  0  0  0  0  0
  -27.6657  -13.2236   19.8801 C   0  0  2  0  0  0
  -28.7115  -13.0541   21.0090 C   0  0  0  0  0  0
  -25.2610  -13.8200   20.5746 C   0  0  0  0  0  0
  -24.1867  -13.0467   20.9213 C   0  0  0  0  0  0
  -24.6424  -11.6928   20.8782 C   0  0  0  0  0  0
  -23.9089  -10.4298   21.0431 C   0  0  0  0  0  0
  -24.3629   -9.4190   21.9189 C   0  0  0  0  0  0
  -23.6286   -8.2219   22.0759 C   0  0  0  0  0  0
  -22.4271   -8.0279   21.3541 C   0  0  0  0  0  0
  -21.9908   -9.0291   20.4691 C   0  0  0  0  0  0
  -22.7260  -10.2159   20.3100 C   0  0  0  0  0  0
  -21.6852   -6.0762   22.5284 C   0  0  0  0  0  0
  -21.4011   -6.5656   23.8229 C   0  0  0  0  0  0
  -21.3655   -5.6791   24.9181 C   0  0  0  0  0  0
  -21.6041   -4.3064   24.7214 C   0  0  0  0  0  0
  -21.8818   -3.8168   23.4332 C   0  0  0  0  0  0
  -21.9174   -4.6991   22.3398 C   0  0  0  0  0  0
  -22.7882  -13.5258   21.1812 C   0  0  0  0  0  0
  -22.1654   -4.2177   21.0975 F   0  0  0  0  0  0
  -21.5612   -3.4549   25.7732 F   0  0  0  0  0  0
  -30.0277  -13.4059   20.4518 N   0  0  0  0  0  0
  -26.3068  -12.9401   20.3419 N   0  0  0  0  0  0
  -25.9361  -11.6547   20.5793 N   0  0  0  0  0  0
  -22.0485  -12.8356   22.0416 N   0  0  0  0  0  0
  -25.4262  -15.1933   20.4192 N   0  0  0  0  0  0
  -31.7827  -14.8092   20.0832 O   0  0  0  0  0  0
  -21.6622   -6.8896   21.4232 O   0  0  0  0  0  0
  -22.3571  -14.5529   20.6603 O   0  0  0  0  0  0
  -24.6285  -31.8596   23.1986 C   0  0  0  0  0  0
  -25.9097  -32.4800   23.8350 C   0  0  1  0  0  0
  -27.2437  -27.3042   20.1437 C   0  0  0  0  0  0
  -25.5888  -33.8583   24.2256 N   0  0  0  0  0  0
  -23.4274  -30.4764   21.5446 C   0  0  2  0  0  0
  -24.8756  -28.9171   20.1251 C   0  0  0  0  0  0
  -22.7511  -29.4614   22.4979 C   0  0  0  0  0  0
  -18.0282  -28.1410   22.8477 C   0  0  0  0  0  0
  -24.1449  -36.7267   23.2648 C   0  0  0  0  0  0
  -25.9713  -30.7785   21.3786 C   0  0  0  0  0  0
  -26.0452  -29.4052   20.7234 C   0  0  0  0  0  0
  -27.2347  -28.6135   20.7136 C   0  0  0  0  0  0
  -26.0507  -26.8548   19.5440 C   0  0  0  0  0  0
  -24.8782  -27.6430   19.5302 C   0  0  0  0  0  0
  -23.6456  -29.8021   20.1647 C   0  0  0  0  0  0
  -25.4088  -36.3096   24.0330 C   0  0  1  0  0  0
  -20.5891  -28.3695   23.1292 C   0  0  2  0  0  0
  -20.6787  -26.9415   22.5453 C   0  0  0  0  0  0
  -19.5764  -26.6375   21.5246 C   0  0  0  0  0  0
  -18.1926  -26.7947   22.1629 C   0  0  0  0  0  0
  -19.1540  -28.8872   23.2869 C   0  0  0  0  0  0
  -18.9478  -30.1465   23.8903 C   0  0  0  0  0  0
  -17.6485  -30.6613   24.0570 C   0  0  0  0  0  0
  -25.9042  -34.9470   23.5110 C   0  0  0  0  0  0
  -16.5367  -29.9116   23.6349 C   0  0  0  0  0  0
  -16.7271  -28.6533   23.0364 C   0  0  0  0  0  0
  -26.4453  -31.6667   25.0773 C   0  0  0  0  0  0
  -25.3672  -31.3851   26.1513 C   0  0  0  0  0  0
  -27.0341  -30.3098   24.6297 C   0  0  0  0  0  0
  -27.6032  -32.4445   25.7506 C   0  0  0  0  0  0
  -27.5554  -37.1786   24.8472 C   0  0  0  0  0  0
  -21.4239  -29.3014   22.3679 N   0  0  0  0  0  0
  -26.4270  -37.3800   23.9413 N   0  0  0  0  0  0
  -24.6958  -31.0550   22.0974 N   0  0  0  0  0  0
  -23.4207  -28.8208   23.3123 O   0  0  0  0  0  0
  -28.3798  -26.4784   20.1390 O   0  0  0  0  0  0
  -26.5665  -34.8955   22.4696 O   0  0  0  0  0  0
  -23.5432  -32.1402   23.7284 O   0  0  0  0  0  0
  -30.8227  -17.7947   19.9341 C   0  0  0  0  0  0
  -29.0634  -17.9608   21.5319 C   0  0  0  0  0  0
  -29.9663  -17.1124   20.8416 C   0  0  0  0  0  0
  -30.6844  -19.1985   19.7111 C   0  0  0  0  0  0
  -29.7200  -19.9607   20.4239 C   0  0  0  0  0  0
  -29.1497  -22.4963   20.7095 C   0  0  0  0  0  0
  -28.5022  -23.6936   18.5507 C   0  0  0  0  0  0
  -30.5774  -24.3810   19.8035 C   0  0  0  0  0  0
  -28.2862  -25.0899   20.6676 C   0  0  0  0  0  0
  -29.1149  -23.9073   19.9499 C   0  0  0  0  0  0
  -28.9473  -19.3116   21.3445 N   0  0  0  0  0  0
  -29.9067  -15.6576   21.0488 N   0  0  0  0  0  0
  -29.5849  -21.3707   20.0452 N   0  0  0  0  0  0
  -28.8289  -22.4637   21.9002 O   0  0  0  0  0  0
  -31.4743  -19.8135   18.7892 F   0  0  0  0  0  0
  -31.4962  -12.5123   19.1732 H   0  0  0  0  0  0
  -30.3856  -11.3959   19.9152 H   0  0  0  0  0  0
  -29.7803  -11.7252   17.5144 H   0  0  0  0  0  0
  -29.6849  -13.4472   17.7264 H   0  0  0  0  0  0
  -27.8505  -11.3151   18.8539 H   0  0  0  0  0  0
  -27.3970  -12.6265   17.7966 H   0  0  0  0  0  0
  -27.6923  -14.2649   19.5588 H   0  0  0  0  0  0
  -28.7201  -12.0249   21.3742 H   0  0  0  0  0  0
  -28.4601  -13.6646   21.8760 H   0  0  0  0  0  0
  -25.2788   -9.5642   22.4754 H   0  0  0  0  0  0
  -24.0020   -7.4607   22.7487 H   0  0  0  0  0  0
  -21.0830   -8.8860   19.9030 H   0  0  0  0  0  0
  -22.3735  -10.9716   19.6241 H   0  0  0  0  0  0
  -21.2013   -7.6166   23.9741 H   0  0  0  0  0  0
  -21.1480   -6.0522   25.9083 H   0  0  0  0  0  0
  -22.0585   -2.7620   23.2820 H   0  0  0  0  0  0
  -22.4090  -12.0100   22.4984 H   0  0  0  0  0  0
  -21.1119  -13.1454   22.2549 H   0  0  0  0  0  0
  -24.6487  -15.8361   20.5227 H   0  0  0  0  0  0
  -26.2609  -15.6352   20.0556 H   0  0  0  0  0  0
  -26.7209  -32.5439   23.1144 H   0  0  0  0  0  0
  -24.9949  -33.9728   25.0343 H   0  0  0  0  0  0
  -22.7221  -31.2969   21.3962 H   0  0  0  0  0  0
  -23.3748  -35.9575   23.3382 H   0  0  0  0  0  0
  -24.3525  -36.8822   22.2059 H   0  0  0  0  0  0
  -23.7181  -37.6464   23.6639 H   0  0  0  0  0  0
  -26.1162  -31.5384   20.6109 H   0  0  0  0  0  0
  -26.8461  -30.8247   22.0161 H   0  0  0  0  0  0
  -28.1359  -28.9882   21.1800 H   0  0  0  0  0  0
  -26.0137  -25.8712   19.0996 H   0  0  0  0  0  0
  -23.9783  -27.2467   19.0785 H   0  0  0  0  0  0
  -23.7849  -30.5757   19.4111 H   0  0  0  0  0  0
  -22.7666  -29.2392   19.8543 H   0  0  0  0  0  0
  -25.1276  -36.1973   25.0833 H   0  0  0  0  0  0
  -20.9938  -28.3291   24.1426 H   0  0  0  0  0  0
  -20.5700  -26.2312   23.3650 H   0  0  0  0  0  0
  -21.6659  -26.7470   22.1250 H   0  0  0  0  0  0
  -19.6942  -25.6275   21.1280 H   0  0  0  0  0  0
  -19.6730  -27.3191   20.6773 H   0  0  0  0  0  0
  -17.4220  -26.6703   21.4007 H   0  0  0  0  0  0
  -18.0308  -26.0092   22.9023 H   0  0  0  0  0  0
  -19.7960  -30.7261   24.2291 H   0  0  0  0  0  0
  -17.5057  -31.6296   24.5163 H   0  0  0  0  0  0
  -15.5372  -30.3045   23.7659 H   0  0  0  0  0  0
  -15.8662  -28.0853   22.7103 H   0  0  0  0  0  0
  -24.5753  -30.7335   25.7818 H   0  0  0  0  0  0
  -24.8976  -32.3051   26.5009 H   0  0  0  0  0  0
  -25.7938  -30.8933   27.0263 H   0  0  0  0  0  0
  -26.2977  -29.6865   24.1230 H   0  0  0  0  0  0
  -27.3938  -29.7369   25.4850 H   0  0  0  0  0  0
  -27.8873  -30.4428   23.9648 H   0  0  0  0  0  0
  -27.2629  -33.3703   26.2165 H   0  0  0  0  0  0
  -28.3733  -32.7112   25.0258 H   0  0  0  0  0  0
  -28.0851  -31.8571   26.5331 H   0  0  0  0  0  0
  -28.2647  -38.0013   24.7483 H   0  0  0  0  0  0
  -28.0969  -36.2556   24.6344 H   0  0  0  0  0  0
  -27.2279  -37.1520   25.8880 H   0  0  0  0  0  0
  -20.9465  -29.8634   21.6782 H   0  0  0  0  0  0
  -26.0161  -38.2873   24.1456 H   0  0  0  0  0  0
  -31.5640  -17.2462   19.3753 H   0  0  0  0  0  0
  -28.3811  -17.5369   22.2576 H   0  0  0  0  0  0
  -29.1549  -23.1153   17.8965 H   0  0  0  0  0  0
  -28.3196  -24.6472   18.0556 H   0  0  0  0  0  0
  -27.5407  -23.1804   18.6081 H   0  0  0  0  0  0
  -31.2280  -23.6032   19.4012 H   0  0  0  0  0  0
  -30.9955  -24.6800   20.7634 H   0  0  0  0  0  0
  -30.6450  -25.2371   19.1315 H   0  0  0  0  0  0
  -28.6339  -25.1600   21.6996 H   0  0  0  0  0  0
  -27.2434  -24.7810   20.7499 H   0  0  0  0  0  0
  -29.0855  -15.3379   21.5422 H   0  0  0  0  0  0
  -29.9023  -21.5530   19.1016 H   0  0  0  0  0  0
  1 25  1  0  0  0
  1 30  2  0  0  0
  1 82  1  0  0  0
  2  3  1  0  0  0
  2 25  1  0  0  0
  2 86  1  0  0  0
  2 87  1  0  0  0
  3  4  1  0  0  0
  3 88  1  0  0  0
  3 89  1  0  0  0
  4  5  1  0  0  0
  4 90  1  0  0  0
  4 91  1  0  0  0
  5  6  1  0  0  0
  5 26  1  0  0  0
  5 92  1  0  0  0
  6 25  1  0  0  0
  6 93  1  0  0  0
  6 94  1  0  0  0
  7  8  2  0  0  0
  7 26  1  0  0  0
  7 29  1  0  0  0
  8  9  1  0  0  0
  8 22  1  0  0  0
  9 10  1  0  0  0
  9 27  2  0  0  0
 10 11  2  0  0  0
 10 15  1  0  0  0
 11 12  1  0  0  0
 11 95  1  0  0  0
 12 13  2  0  0  0
 12 96  1  0  0  0
 13 14  1  0  0  0
 13 31  1  0  0  0
 14 15  2  0  0  0
 14 97  1  0  0  0
 15 98  1  0  0  0
 16 17  2  0  0  0
 16 21  1  0  0  0
 16 31  1  0  0  0
 17 18  1  0  0  0
 17 99  1  0  0  0
 18 19  2  0  0  0
 18100  1  0  0  0
 19 20  1  0  0  0
 19 24  1  0  0  0
 20 21  2  0  0  0
 20101  1  0  0  0
 21 23  1  0  0  0
 22 28  1  0  0  0
 22 32  2  0  0  0
 26 27  1  0  0  0
 28102  1  0  0  0
 28103  1  0  0  0
 29104  1  0  0  0
 29105  1  0  0  0
 33 34  1  0  0  0
 33 66  1  0  0  0
 33 70  2  0  0  0
 34 36  1  0  0  0
 34 59  1  0  0  0
 34106  1  0  0  0
 35 44  2  0  0  0
 35 45  1  0  0  0
 35 68  1  0  0  0
 36 56  1  0  0  0
 36107  1  0  0  0
 37 39  1  0  0  0
 37 47  1  0  0  0
 37 66  1  0  0  0
 37108  1  0  0  0
 38 43  2  0  0  0
 38 46  1  0  0  0
 38 47  1  0  0  0
 39 64  1  0  0  0
 39 67  2  0  0  0
 40 52  1  0  0  0
 40 53  2  0  0  0
 40 58  1  0  0  0
 41109  1  0  0  0
 41110  1  0  0  0
 41111  1  0  0  0
 41 48  1  0  0  0
 42 43  1  0  0  0
 42 66  1  0  0  0
 42112  1  0  0  0
 42113  1  0  0  0
 43 44  1  0  0  0
 44114  1  0  0  0
 45 46  2  0  0  0
 45115  1  0  0  0
 46116  1  0  0  0
 47117  1  0  0  0
 47118  1  0  0  0
 48 56  1  0  0  0
 48 65  1  0  0  0
 48119  1  0  0  0
 49 50  1  0  0  0
 49 53  1  0  0  0
 49 64  1  0  0  0
 49120  1  0  0  0
 50 51  1  0  0  0
 50121  1  0  0  0
 50122  1  0  0  0
 51 52  1  0  0  0
 51123  1  0  0  0
 51124  1  0  0  0
 52125  1  0  0  0
 52126  1  0  0  0
 53 54  1  0  0  0
 54 55  2  0  0  0
 54127  1  0  0  0
 55 57  1  0  0  0
 55128  1  0  0  0
 56 69  2  0  0  0
 57 58  2  0  0  0
 57129  1  0  0  0
 58130  1  0  0  0
 59 60  1  0  0  0
 59 61  1  0  0  0
 59 62  1  0  0  0
 60131  1  0  0  0
 60132  1  0  0  0
 60133  1  0  0  0
 61134  1  0  0  0
 61135  1  0  0  0
 61136  1  0  0  0
 62137  1  0  0  0
 62138  1  0  0  0
 62139  1  0  0  0
 63 65  1  0  0  0
 63140  1  0  0  0
 63141  1  0  0  0
 63142  1  0  0  0
 64143  1  0  0  0
 65144  1  0  0  0
 68 79  1  0  0  0
 71 73  2  0  0  0
 71 74  1  0  0  0
 71145  1  0  0  0
 72 73  1  0  0  0
 72 81  2  0  0  0
 72146  1  0  0  0
 73 82  1  0  0  0
 74 75  2  0  0  0
 74 85  1  0  0  0
 75 81  1  0  0  0
 75 83  1  0  0  0
 76 80  1  0  0  0
 76 83  1  0  0  0
 76 84  2  0  0  0
 77147  1  0  0  0
 77148  1  0  0  0
 77149  1  0  0  0
 77 80  1  0  0  0
 78 80  1  0  0  0
 78150  1  0  0  0
 78151  1  0  0  0
 78152  1  0  0  0
 79 80  1  0  0  0
 79153  1  0  0  0
 79154  1  0  0  0
 82155  1  0  0  0
 83156  1  0  0  0
M  ISO  4   1 100  68 101  79 101  82 100
M  END
> <chiral flag>
0

> <version>
0

> <s_m_source_file>
/data/baiqing/PycharmProjects/Reinvent-master-3.2/result/LINK_invent/BTK/process_docking_weight1_custom_product_contain_oxygen_bond_distance_aromatic_linkinvent_7_9_3/rearranged_h_0168.sdf

> <i_m_source_file_index>
95

> <r_mmod_Potential_Energy-OPLS-2005>
-103.757690429688

> <r_mmod_Stretch_Energy-OPLS-2005>
90.0975799560547

> <r_mmod_Bend_Energy-OPLS-2005>
146.684005737305

> <r_mmod_Torsional_Energy-OPLS-2005>
257.773468017578

> <r_mmod_Improper_Torsional_Energy-OPLS-2005>
3.6101770401001

> <r_mmod_Van_der_Waal_Energy-OPLS-2005>
140.569473266602

> <r_mmod_Electrostatic_Energy-OPLS-2005>
-553.248352050781

> <r_mmod_Solvation_Energy-OPLS-2005>
-236.653366088867

> <b_mmod_Minimization_Converged-OPLS-2005>
0

> <r_mmod_RMS_Derivative-OPLS-2005>
6.14419889450073

$$$$
95
                    3D
 Structure written by MMmdl.
158166  0  0  1  0            999 V2000
  -30.6790  -14.5860   20.4756 C   0  0  0  0  0  0
  -30.4073  -12.3623   19.4349 C   0  0  0  0  0  0
  -29.4840  -12.5034   18.2067 C   0  0  0  0  0  0
  -28.0085  -12.3595   18.6246 C   0  0  0  0  0  0
  -27.6448  -13.2260   19.8610 C   0  0  2  0  0  0
  -28.6948  -13.0955   20.9881 C   0  0  0  0  0  0
  -25.2506  -13.8193   20.5681 C   0  0  0  0  0  0
  -24.1801  -13.0430   20.9219 C   0  0  0  0  0  0
  -24.6392  -11.6914   20.8758 C   0  0  0  0  0  0
  -23.9068  -10.4297   21.0415 C   0  0  0  0  0  0
  -24.3619   -9.4208   21.9192 C   0  0  0  0  0  0
  -23.6294   -8.2237   22.0760 C   0  0  0  0  0  0
  -22.4284   -8.0274   21.3539 C   0  0  0  0  0  0
  -21.9916   -9.0254   20.4650 C   0  0  0  0  0  0
  -22.7242  -10.2136   20.3061 C   0  0  0  0  0  0
  -21.6857   -6.0726   22.5272 C   0  0  0  0  0  0
  -21.4023   -6.5639   23.8205 C   0  0  0  0  0  0
  -21.3660   -5.6791   24.9171 C   0  0  0  0  0  0
  -21.6042   -4.3056   24.7227 C   0  0  0  0  0  0
  -21.8818   -3.8144   23.4353 C   0  0  0  0  0  0
  -21.9195   -4.6953   22.3409 C   0  0  0  0  0  0
  -22.7817  -13.5199   21.1876 C   0  0  0  0  0  0
  -22.1663   -4.2126   21.0984 F   0  0  0  0  0  0
  -21.5624   -3.4555   25.7751 F   0  0  0  0  0  0
  -30.0049  -13.4002   20.4022 N   0  0  0  0  0  0
  -26.2951  -12.9402   20.3350 N   0  0  0  0  0  0
  -25.9324  -11.6539   20.5787 N   0  0  0  0  0  0
  -22.0495  -12.8162   22.0433 N   0  0  0  0  0  0
  -25.4171  -15.1910   20.4078 N   0  0  0  0  0  0
  -31.8535  -14.6667   20.1125 O   0  0  0  0  0  0
  -21.6652   -6.8873   21.4234 O   0  0  0  0  0  0
  -22.3505  -14.5521   20.6750 O   0  0  0  0  0  0
  -24.6168  -31.8678   23.2080 C   0  0  0  0  0  0
  -25.9051  -32.4812   23.8388 C   0  0  1  0  0  0
  -27.2105  -27.3967   20.1003 C   0  0  0  0  0  0
  -25.5898  -33.8602   24.2324 N   0  0  0  0  0  0
  -23.4036  -30.4891   21.5540 C   0  0  2  0  0  0
  -24.8453  -28.9531   20.1117 C   0  0  0  0  0  0
  -22.7428  -29.4641   22.5035 C   0  0  0  0  0  0
  -18.0257  -28.1362   22.8486 C   0  0  0  0  0  0
  -24.1485  -36.7322   23.2631 C   0  0  0  0  0  0
  -25.9340  -30.8214   21.3625 C   0  0  0  0  0  0
  -26.0103  -29.4524   20.7094 C   0  0  0  0  0  0
  -27.2018  -28.6831   20.6965 C   0  0  0  0  0  0
  -26.0316  -26.9231   19.4903 C   0  0  0  0  0  0
  -24.8523  -27.6908   19.4955 C   0  0  0  0  0  0
  -23.6078  -29.8237   20.1674 C   0  0  0  0  0  0
  -25.4096  -36.3108   24.0347 C   0  0  1  0  0  0
  -20.5847  -28.3649   23.1342 C   0  0  2  0  0  0
  -20.6760  -26.9402   22.5427 C   0  0  0  0  0  0
  -19.5749  -26.6379   21.5230 C   0  0  0  0  0  0
  -18.1908  -26.7905   22.1620 C   0  0  0  0  0  0
  -19.1508  -28.8824   23.2894 C   0  0  0  0  0  0
  -18.9438  -30.1420   23.8925 C   0  0  0  0  0  0
  -17.6450  -30.6576   24.0560 C   0  0  0  0  0  0
  -25.9039  -34.9466   23.5139 C   0  0  0  0  0  0
  -16.5337  -29.9081   23.6326 C   0  0  0  0  0  0
  -16.7252  -28.6489   23.0362 C   0  0  0  0  0  0
  -26.4460  -31.6581   25.0710 C   0  0  0  0  0  0
  -25.3701  -31.3663   26.1450 C   0  0  0  0  0  0
  -27.0305  -30.3039   24.6059 C   0  0  0  0  0  0
  -27.6069  -32.4264   25.7452 C   0  0  0  0  0  0
  -27.5603  -37.1773   24.8438 C   0  0  0  0  0  0
  -21.4163  -29.3023   22.3763 N   0  0  0  0  0  0
  -26.4277  -37.3812   23.9434 N   0  0  0  0  0  0
  -24.6707  -31.0719   22.1016 N   0  0  0  0  0  0
  -23.4198  -28.8190   23.3077 O   0  0  0  0  0  0
  -28.3312  -26.5894   20.1085 O   0  0  0  0  0  0
  -26.5631  -34.8936   22.4721 O   0  0  0  0  0  0
  -23.5364  -32.1459   23.7470 O   0  0  0  0  0  0
  -31.4675  -19.7434   21.0154 C   0  0  0  0  0  0
  -31.7612  -17.3400   21.2612 C   0  0  0  0  0  0
  -30.1354  -19.5718   20.5760 C   0  0  0  0  0  0
  -30.4481  -17.0881   20.7983 C   0  0  0  0  0  0
  -32.2687  -18.6451   21.3579 C   0  0  0  0  0  0
  -29.6325  -18.2258   20.4640 C   0  0  0  0  0  0
  -29.3539  -20.8349   20.3651 C   0  0  0  0  0  0
  -28.3500  -24.0493   20.1577 C   0  0  0  0  0  0
  -28.1986  -25.3961   20.9238 C   0  0  0  0  0  0
  -29.7787  -23.4413   20.0284 C   0  0  2  0  0  0
  -30.5365  -24.1754   18.9020 C   0  0  0  0  0  0
  -29.9536  -15.7162   20.7321 N   0  0  0  0  0  0
  -29.9442  -21.9471   19.8470 N   0  0  0  0  0  0
  -28.0910  -20.9428   20.7741 N   0  3  0  0  0  0
  -27.3416  -23.4633   19.7456 O   0  0  0  0  0  0
  -33.5327  -18.8452   21.8005 F   0  0  0  0  0  0
  -28.3585  -18.0186   20.0525 F   0  0  0  0  0  0
  -30.7424  -25.4546   19.2130 F   0  0  0  0  0  0
  -29.8547  -24.1202   17.7564 F   0  0  0  0  0  0
  -31.7232  -23.5942   18.7160 F   0  0  0  0  0  0
  -31.4515  -12.4499   19.1297 H   0  0  0  0  0  0
  -30.3075  -11.3697   19.8781 H   0  0  0  0  0  0
  -29.7316  -11.7539   17.4538 H   0  0  0  0  0  0
  -29.6360  -13.4745   17.7317 H   0  0  0  0  0  0
  -27.8283  -11.3076   18.8428 H   0  0  0  0  0  0
  -27.3542  -12.6130   17.7895 H   0  0  0  0  0  0
  -27.6574  -14.2621   19.5201 H   0  0  0  0  0  0
  -28.6943  -12.0866   21.4033 H   0  0  0  0  0  0
  -28.4619  -13.7651   21.8175 H   0  0  0  0  0  0
  -25.2761   -9.5683   22.4776 H   0  0  0  0  0  0
  -23.9997   -7.4638   22.7489 H   0  0  0  0  0  0
  -21.0838   -8.8776   19.8970 H   0  0  0  0  0  0
  -22.3693  -10.9676   19.6184 H   0  0  0  0  0  0
  -21.2032   -7.6150   23.9693 H   0  0  0  0  0  0
  -21.1478   -6.0542   25.9063 H   0  0  0  0  0  0
  -22.0601   -2.7605   23.2873 H   0  0  0  0  0  0
  -22.4144  -11.9807   22.4742 H   0  0  0  0  0  0
  -21.1123  -13.1170   22.2698 H   0  0  0  0  0  0
  -24.6405  -15.8361   20.5113 H   0  0  0  0  0  0
  -26.2454  -15.6333   20.0302 H   0  0  0  0  0  0
  -26.7114  -32.5524   23.1145 H   0  0  0  0  0  0
  -24.9950  -33.9755   25.0408 H   0  0  0  0  0  0
  -22.6943  -31.3070   21.4202 H   0  0  0  0  0  0
  -23.3780  -35.9626   23.3215 H   0  0  0  0  0  0
  -24.3594  -36.9027   22.2054 H   0  0  0  0  0  0
  -23.7190  -37.6475   23.6720 H   0  0  0  0  0  0
  -26.0366  -31.5849   20.5897 H   0  0  0  0  0  0
  -26.8238  -30.8833   21.9748 H   0  0  0  0  0  0
  -28.1002  -29.0530   21.1686 H   0  0  0  0  0  0
  -26.0227  -25.9527   19.0143 H   0  0  0  0  0  0
  -23.9572  -27.3039   19.0265 H   0  0  0  0  0  0
  -23.7026  -30.6012   19.4082 H   0  0  0  0  0  0
  -22.7301  -29.2402   19.8803 H   0  0  0  0  0  0
  -25.1243  -36.1973   25.0837 H   0  0  0  0  0  0
  -20.9901  -28.3223   24.1482 H   0  0  0  0  0  0
  -20.5690  -26.2270   23.3608 H   0  0  0  0  0  0
  -21.6620  -26.7472   22.1204 H   0  0  0  0  0  0
  -19.6935  -25.6306   21.1225 H   0  0  0  0  0  0
  -19.6683  -27.3212   20.6778 H   0  0  0  0  0  0
  -17.4182  -26.6660   21.3995 H   0  0  0  0  0  0
  -18.0287  -26.0034   22.8996 H   0  0  0  0  0  0
  -19.7929  -30.7186   24.2348 H   0  0  0  0  0  0
  -17.5020  -31.6277   24.5127 H   0  0  0  0  0  0
  -15.5345  -30.2988   23.7645 H   0  0  0  0  0  0
  -15.8650  -28.0809   22.7111 H   0  0  0  0  0  0
  -24.5920  -30.6969   25.7743 H   0  0  0  0  0  0
  -24.8819  -32.2779   26.4881 H   0  0  0  0  0  0
  -25.8005  -30.8824   27.0224 H   0  0  0  0  0  0
  -26.2836  -29.6770   24.1167 H   0  0  0  0  0  0
  -27.4138  -29.7300   25.4505 H   0  0  0  0  0  0
  -27.8644  -30.4381   23.9178 H   0  0  0  0  0  0
  -27.2781  -33.3620   26.1997 H   0  0  0  0  0  0
  -28.3893  -32.6701   25.0242 H   0  0  0  0  0  0
  -28.0728  -31.8365   26.5362 H   0  0  0  0  0  0
  -28.2505  -38.0178   24.7642 H   0  0  0  0  0  0
  -28.1205  -36.2707   24.6060 H   0  0  0  0  0  0
  -27.2347  -37.1174   25.8839 H   0  0  0  0  0  0
  -20.9357  -29.8746   21.6969 H   0  0  0  0  0  0
  -26.0175  -38.2880   24.1511 H   0  0  0  0  0  0
  -31.8893  -20.7309   21.1367 H   0  0  0  0  0  0
  -32.4108  -16.5371   21.5681 H   0  0  0  0  0  0
  -28.9420  -25.4337   21.7187 H   0  0  0  0  0  0
  -27.2303  -25.3802   21.4268 H   0  0  0  0  0  0
  -30.3052  -23.6731   20.9552 H   0  0  0  0  0  0
  -28.9578  -15.5981   20.8380 H   0  0  0  0  0  0
  -30.7803  -21.7581   19.3064 H   0  0  0  0  0  0
  -27.5911  -20.1289   21.0960 H   0  0  0  0  0  0
  -27.5656  -21.7718   20.5132 H   0  0  0  0  0  0
  1 25  1  0  0  0
  1 30  2  0  0  0
  1 82  1  0  0  0
  2  3  1  0  0  0
  2 25  1  0  0  0
  2 91  1  0  0  0
  2 92  1  0  0  0
  3  4  1  0  0  0
  3 93  1  0  0  0
  3 94  1  0  0  0
  4  5  1  0  0  0
  4 95  1  0  0  0
  4 96  1  0  0  0
  5  6  1  0  0  0
  5 26  1  0  0  0
  5 97  1  0  0  0
  6 25  1  0  0  0
  6 98  1  0  0  0
  6 99  1  0  0  0
  7  8  2  0  0  0
  7 26  1  0  0  0
  7 29  1  0  0  0
  8  9  1  0  0  0
  8 22  1  0  0  0
  9 10  1  0  0  0
  9 27  2  0  0  0
 10 11  2  0  0  0
 10 15  1  0  0  0
 11 12  1  0  0  0
 11100  1  0  0  0
 12 13  2  0  0  0
 12101  1  0  0  0
 13 14  1  0  0  0
 13 31  1  0  0  0
 14 15  2  0  0  0
 14102  1  0  0  0
 15103  1  0  0  0
 16 17  2  0  0  0
 16 21  1  0  0  0
 16 31  1  0  0  0
 17 18  1  0  0  0
 17104  1  0  0  0
 18 19  2  0  0  0
 18105  1  0  0  0
 19 20  1  0  0  0
 19 24  1  0  0  0
 20 21  2  0  0  0
 20106  1  0  0  0
 21 23  1  0  0  0
 22 28  1  0  0  0
 22 32  2  0  0  0
 26 27  1  0  0  0
 28107  1  0  0  0
 28108  1  0  0  0
 29109  1  0  0  0
 29110  1  0  0  0
 33 34  1  0  0  0
 33 66  1  0  0  0
 33 70  2  0  0  0
 34 36  1  0  0  0
 34 59  1  0  0  0
 34111  1  0  0  0
 35 44  2  0  0  0
 35 45  1  0  0  0
 35 68  1  0  0  0
 36 56  1  0  0  0
 36112  1  0  0  0
 37 39  1  0  0  0
 37 47  1  0  0  0
 37 66  1  0  0  0
 37113  1  0  0  0
 38 43  2  0  0  0
 38 46  1  0  0  0
 38 47  1  0  0  0
 39 64  1  0  0  0
 39 67  2  0  0  0
 40 52  1  0  0  0
 40 53  2  0  0  0
 40 58  1  0  0  0
 41114  1  0  0  0
 41115  1  0  0  0
 41116  1  0  0  0
 41 48  1  0  0  0
 42 43  1  0  0  0
 42 66  1  0  0  0
 42117  1  0  0  0
 42118  1  0  0  0
 43 44  1  0  0  0
 44119  1  0  0  0
 45 46  2  0  0  0
 45120  1  0  0  0
 46121  1  0  0  0
 47122  1  0  0  0
 47123  1  0  0  0
 48 56  1  0  0  0
 48 65  1  0  0  0
 48124  1  0  0  0
 49 50  1  0  0  0
 49 53  1  0  0  0
 49 64  1  0  0  0
 49125  1  0  0  0
 50 51  1  0  0  0
 50126  1  0  0  0
 50127  1  0  0  0
 51 52  1  0  0  0
 51128  1  0  0  0
 51129  1  0  0  0
 52130  1  0  0  0
 52131  1  0  0  0
 53 54  1  0  0  0
 54 55  2  0  0  0
 54132  1  0  0  0
 55 57  1  0  0  0
 55133  1  0  0  0
 56 69  2  0  0  0
 57 58  2  0  0  0
 57134  1  0  0  0
 58135  1  0  0  0
 59 60  1  0  0  0
 59 61  1  0  0  0
 59 62  1  0  0  0
 60136  1  0  0  0
 60137  1  0  0  0
 60138  1  0  0  0
 61139  1  0  0  0
 61140  1  0  0  0
 61141  1  0  0  0
 62142  1  0  0  0
 62143  1  0  0  0
 62144  1  0  0  0
 63 65  1  0  0  0
 63145  1  0  0  0
 63146  1  0  0  0
 63147  1  0  0  0
 64148  1  0  0  0
 65149  1  0  0  0
 68 79  1  0  0  0
 71 73  2  0  0  0
 71 75  1  0  0  0
 71150  1  0  0  0
 72 74  1  0  0  0
 72 75  2  0  0  0
 72151  1  0  0  0
 73 76  1  0  0  0
 73 77  1  0  0  0
 74 76  2  0  0  0
 74 82  1  0  0  0
 75 86  1  0  0  0
 76 87  1  0  0  0
 77 83  1  0  0  0
 77 84  2  0  0  0
 78 79  1  0  0  0
 78 80  1  0  0  0
 78 85  2  0  0  0
 79152  1  0  0  0
 79153  1  0  0  0
 80 81  1  0  0  0
 80 83  1  0  0  0
 80154  1  0  0  0
 81 88  1  0  0  0
 81 89  1  0  0  0
 81 90  1  0  0  0
 82155  1  0  0  0
 83156  1  0  0  0
 84157  1  0  0  0
 84158  1  0  0  0
M  CHG  1  84   1
M  ISO  4   1 100  68 101  79 101  82 100
M  END
> <chiral flag>
0

> <version>
0

> <s_m_source_file>
/data/baiqing/PycharmProjects/Reinvent-master-3.2/result/LINK_invent/BTK/process_docking_weight1_custom_product_contain_oxygen_bond_distance_aromatic_linkinvent_7_9_3/rearranged_h_0168.sdf

> <i_m_source_file_index>
96

> <r_mmod_Potential_Energy-OPLS-2005>
-385.992980957031

> <r_mmod_Stretch_Energy-OPLS-2005>
58.4987945556641

> <r_mmod_Bend_Energy-OPLS-2005>
127.099197387695

> <r_mmod_Torsional_Energy-OPLS-2005>
262.402862548828

> <r_mmod_Improper_Torsional_Energy-OPLS-2005>
8.08608531951904

> <r_mmod_Van_der_Waal_Energy-OPLS-2005>
160.133636474609

> <r_mmod_Electrostatic_Energy-OPLS-2005>
-596.065795898438

> <r_mmod_Solvation_Energy-OPLS-2005>
-437.225311279297

> <b_mmod_Minimization_Converged-OPLS-2005>
0

> <r_mmod_RMS_Derivative-OPLS-2005>
3.61847805976868

$$$$
96
                    3D
 Structure written by MMmdl.
159167  0  0  1  0            999 V2000
  -30.6111  -14.7222   20.4086 C   0  0  0  0  0  0
  -30.4226  -12.4297   19.4684 C   0  0  0  0  0  0
  -29.5011  -12.4969   18.2300 C   0  0  0  0  0  0
  -28.0261  -12.3329   18.6403 C   0  0  0  0  0  0
  -27.6356  -13.2317   19.8429 C   0  0  2  0  0  0
  -28.6809  -13.1637   20.9784 C   0  0  0  0  0  0
  -25.2453  -13.8176   20.5637 C   0  0  0  0  0  0
  -24.1758  -13.0427   20.9194 C   0  0  0  0  0  0
  -24.6360  -11.6913   20.8749 C   0  0  0  0  0  0
  -23.9050  -10.4279   21.0411 C   0  0  0  0  0  0
  -24.3602   -9.4187   21.9191 C   0  0  0  0  0  0
  -23.6268   -8.2236   22.0753 C   0  0  0  0  0  0
  -22.4264   -8.0268   21.3535 C   0  0  0  0  0  0
  -21.9894   -9.0241   20.4648 C   0  0  0  0  0  0
  -22.7222  -10.2114   20.3053 C   0  0  0  0  0  0
  -21.6846   -6.0710   22.5271 C   0  0  0  0  0  0
  -21.4000   -6.5622   23.8195 C   0  0  0  0  0  0
  -21.3669   -5.6786   24.9170 C   0  0  0  0  0  0
  -21.6046   -4.3051   24.7235 C   0  0  0  0  0  0
  -21.8822   -3.8130   23.4358 C   0  0  0  0  0  0
  -21.9183   -4.6936   22.3400 C   0  0  0  0  0  0
  -22.7791  -13.5213   21.1886 C   0  0  0  0  0  0
  -22.1655   -4.2121   21.0979 F   0  0  0  0  0  0
  -21.5645   -3.4541   25.7749 F   0  0  0  0  0  0
  -29.9893  -13.4955   20.3999 N   0  0  0  0  0  0
  -26.2890  -12.9403   20.3229 N   0  0  0  0  0  0
  -25.9289  -11.6546   20.5747 N   0  0  0  0  0  0
  -22.0437  -12.8167   22.0424 N   0  0  0  0  0  0
  -25.4130  -15.1886   20.3940 N   0  0  0  0  0  0
  -31.8004  -14.8141   20.0938 O   0  0  0  0  0  0
  -21.6637   -6.8854   21.4238 O   0  0  0  0  0  0
  -22.3472  -14.5546   20.6776 O   0  0  0  0  0  0
  -24.6314  -31.8528   23.1980 C   0  0  0  0  0  0
  -25.9134  -32.4743   23.8315 C   0  0  1  0  0  0
  -27.2036  -27.2523   20.1063 C   0  0  0  0  0  0
  -25.5920  -33.8537   24.2219 N   0  0  0  0  0  0
  -23.4253  -30.4798   21.5427 C   0  0  2  0  0  0
  -24.8709  -28.9335   20.1020 C   0  0  0  0  0  0
  -22.7489  -29.4590   22.4906 C   0  0  0  0  0  0
  -18.0268  -28.1406   22.8466 C   0  0  0  0  0  0
  -24.1492  -36.7263   23.2632 C   0  0  0  0  0  0
  -25.9737  -30.7611   21.3792 C   0  0  0  0  0  0
  -26.0431  -29.3849   20.7203 C   0  0  0  0  0  0
  -27.2118  -28.5535   20.7196 C   0  0  0  0  0  0
  -26.0180  -26.8981   19.4231 C   0  0  0  0  0  0
  -24.8623  -27.6983   19.4452 C   0  0  0  0  0  0
  -23.6406  -29.8181   20.1584 C   0  0  0  0  0  0
  -25.4104  -36.3036   24.0313 C   0  0  1  0  0  0
  -20.5888  -28.3686   23.1268 C   0  0  2  0  0  0
  -20.6776  -26.9406   22.5413 C   0  0  0  0  0  0
  -19.5763  -26.6378   21.5218 C   0  0  0  0  0  0
  -18.1917  -26.7950   22.1593 C   0  0  0  0  0  0
  -19.1529  -28.8861   23.2870 C   0  0  0  0  0  0
  -18.9479  -30.1468   23.8893 C   0  0  0  0  0  0
  -17.6492  -30.6614   24.0576 C   0  0  0  0  0  0
  -25.9057  -34.9415   23.5076 C   0  0  0  0  0  0
  -16.5352  -29.9106   23.6369 C   0  0  0  0  0  0
  -16.7259  -28.6534   23.0346 C   0  0  0  0  0  0
  -26.4524  -31.6558   25.0695 C   0  0  0  0  0  0
  -25.3723  -31.3695   26.1402 C   0  0  0  0  0  0
  -27.0389  -30.2984   24.6140 C   0  0  0  0  0  0
  -27.6074  -32.4302   25.7456 C   0  0  0  0  0  0
  -27.5561  -37.1768   24.8459 C   0  0  0  0  0  0
  -21.4198  -29.3033   22.3657 N   0  0  0  0  0  0
  -26.4260  -37.3743   23.9416 N   0  0  0  0  0  0
  -24.6960  -31.0502   22.0949 N   0  0  0  0  0  0
  -23.4185  -28.8105   23.2990 O   0  0  0  0  0  0
  -28.2739  -26.3228   20.1980 O   0  0  0  0  0  0
  -26.5642  -34.8898   22.4653 O   0  0  0  0  0  0
  -23.5463  -32.1331   23.7285 O   0  0  0  0  0  0
  -30.7373  -17.3527   18.8039 C   0  0  0  0  0  0
  -29.5256  -18.4784   20.5646 C   0  0  0  0  0  0
  -30.0430  -17.2276   20.0269 C   0  0  0  0  0  0
  -29.7618  -19.7554   19.8986 C   0  0  0  0  0  0
  -30.4935  -19.6684   18.6889 C   0  0  0  0  0  0
  -28.9804  -22.2313   19.7445 C   0  0  0  0  0  0
  -27.1899  -18.2489   21.5032 C   0  0  0  0  0  0
  -26.9394  -24.4441   21.1868 C   0  0  0  0  0  0
  -28.6798  -18.4389   21.8274 C   0  0  0  0  0  0
  -29.1778  -23.7397   20.2697 C   0  0  0  0  0  0
  -27.9907  -24.8337   20.1177 C   0  0  2  0  0  0
  -30.9469  -18.5142   18.1579 N   0  0  0  0  0  0
  -29.4314  -21.1114   20.4271 N   0  0  0  0  0  0
  -29.8394  -15.8619   20.5900 N   0  0  0  0  0  0
  -28.3917  -22.0824   18.6723 O   0  0  0  0  0  0
  -30.8442  -20.7928   18.0199 F   0  0  0  0  0  0
  -31.4662  -12.5384   19.1652 H   0  0  0  0  0  0
  -30.3554  -11.4518   19.9488 H   0  0  0  0  0  0
  -29.7768  -11.7250   17.5094 H   0  0  0  0  0  0
  -29.6371  -13.4521   17.7221 H   0  0  0  0  0  0
  -27.8682  -11.2823   18.8918 H   0  0  0  0  0  0
  -27.3744  -12.5362   17.7907 H   0  0  0  0  0  0
  -27.6294  -14.2538   19.4625 H   0  0  0  0  0  0
  -28.7024  -12.1676   21.4219 H   0  0  0  0  0  0
  -28.4201  -13.8511   21.7853 H   0  0  0  0  0  0
  -25.2739   -9.5677   22.4763 H   0  0  0  0  0  0
  -23.9977   -7.4634   22.7474 H   0  0  0  0  0  0
  -21.0825   -8.8747   19.8961 H   0  0  0  0  0  0
  -22.3670  -10.9649   19.6161 H   0  0  0  0  0  0
  -21.1973   -7.6131   23.9689 H   0  0  0  0  0  0
  -21.1500   -6.0523   25.9068 H   0  0  0  0  0  0
  -22.0594   -2.7588   23.2869 H   0  0  0  0  0  0
  -22.4018  -11.9770   22.4739 H   0  0  0  0  0  0
  -21.1071  -13.1215   22.2713 H   0  0  0  0  0  0
  -24.6409  -15.8399   20.4870 H   0  0  0  0  0  0
  -26.2423  -15.6131   20.0038 H   0  0  0  0  0  0
  -26.7178  -32.5416   23.1018 H   0  0  0  0  0  0
  -25.0079  -33.9685   25.0378 H   0  0  0  0  0  0
  -22.7204  -31.3020   21.3967 H   0  0  0  0  0  0
  -23.3778  -35.9584   23.3263 H   0  0  0  0  0  0
  -24.3579  -36.8938   22.2062 H   0  0  0  0  0  0
  -23.7240  -37.6429   23.6712 H   0  0  0  0  0  0
  -26.1049  -31.5114   20.6006 H   0  0  0  0  0  0
  -26.8563  -30.8145   22.0060 H   0  0  0  0  0  0
  -28.1041  -28.8736   21.2366 H   0  0  0  0  0  0
  -25.9407  -25.9643   18.8892 H   0  0  0  0  0  0
  -23.9655  -27.3583   18.9447 H   0  0  0  0  0  0
  -23.7600  -30.5927   19.3997 H   0  0  0  0  0  0
  -22.7586  -29.2483   19.8601 H   0  0  0  0  0  0
  -25.1297  -36.1848   25.0809 H   0  0  0  0  0  0
  -20.9948  -28.3267   24.1394 H   0  0  0  0  0  0
  -20.5707  -26.2279   23.3600 H   0  0  0  0  0  0
  -21.6647  -26.7452   22.1195 H   0  0  0  0  0  0
  -19.6950  -25.6293   21.1231 H   0  0  0  0  0  0
  -19.6748  -27.3183   20.6757 H   0  0  0  0  0  0
  -17.4202  -26.6704   21.3971 H   0  0  0  0  0  0
  -18.0309  -26.0084   22.8985 H   0  0  0  0  0  0
  -19.7969  -30.7286   24.2237 H   0  0  0  0  0  0
  -17.5049  -31.6301   24.5151 H   0  0  0  0  0  0
  -15.5365  -30.3014   23.7745 H   0  0  0  0  0  0
  -15.8638  -28.0884   22.7057 H   0  0  0  0  0  0
  -24.5963  -30.6958   25.7715 H   0  0  0  0  0  0
  -24.8838  -32.2860   26.4717 H   0  0  0  0  0  0
  -25.8013  -30.8955   27.0235 H   0  0  0  0  0  0
  -26.2964  -29.6688   24.1203 H   0  0  0  0  0  0
  -27.4168  -29.7258   25.4613 H   0  0  0  0  0  0
  -27.8785  -30.4292   23.9306 H   0  0  0  0  0  0
  -27.2713  -33.3655   26.1931 H   0  0  0  0  0  0
  -28.3934  -32.6748   25.0300 H   0  0  0  0  0  0
  -28.0677  -31.8477   26.5448 H   0  0  0  0  0  0
  -28.2543  -38.0101   24.7535 H   0  0  0  0  0  0
  -28.1112  -36.2623   24.6260 H   0  0  0  0  0  0
  -27.2300  -37.1372   25.8873 H   0  0  0  0  0  0
  -20.9352  -29.8742   21.6877 H   0  0  0  0  0  0
  -26.0139  -38.2807   24.1474 H   0  0  0  0  0  0
  -31.1193  -16.4876   18.2802 H   0  0  0  0  0  0
  -26.5986  -18.1285   22.4111 H   0  0  0  0  0  0
  -27.0314  -17.3677   20.8849 H   0  0  0  0  0  0
  -26.7928  -19.1074   20.9591 H   0  0  0  0  0  0
  -26.6765  -23.3888   21.1112 H   0  0  0  0  0  0
  -25.9997  -24.9847   21.1073 H   0  0  0  0  0  0
  -27.3245  -24.6156   22.1907 H   0  0  0  0  0  0
  -28.8145  -19.3580   22.3980 H   0  0  0  0  0  0
  -29.0312  -17.6355   22.4761 H   0  0  0  0  0  0
  -30.0350  -24.1270   19.7164 H   0  0  0  0  0  0
  -29.5082  -23.7072   21.3085 H   0  0  0  0  0  0
  -27.5754  -24.6455   19.1289 H   0  0  0  0  0  0
  -29.7276  -21.2815   21.3787 H   0  0  0  0  0  0
  -28.9389  -15.6903   21.0119 H   0  0  0  0  0  0
  1 25  1  0  0  0
  1 30  2  0  0  0
  1 84  1  0  0  0
  2  3  1  0  0  0
  2 25  1  0  0  0
  2 87  1  0  0  0
  2 88  1  0  0  0
  3  4  1  0  0  0
  3 89  1  0  0  0
  3 90  1  0  0  0
  4  5  1  0  0  0
  4 91  1  0  0  0
  4 92  1  0  0  0
  5  6  1  0  0  0
  5 26  1  0  0  0
  5 93  1  0  0  0
  6 25  1  0  0  0
  6 94  1  0  0  0
  6 95  1  0  0  0
  7  8  2  0  0  0
  7 26  1  0  0  0
  7 29  1  0  0  0
  8  9  1  0  0  0
  8 22  1  0  0  0
  9 10  1  0  0  0
  9 27  2  0  0  0
 10 11  2  0  0  0
 10 15  1  0  0  0
 11 12  1  0  0  0
 11 96  1  0  0  0
 12 13  2  0  0  0
 12 97  1  0  0  0
 13 14  1  0  0  0
 13 31  1  0  0  0
 14 15  2  0  0  0
 14 98  1  0  0  0
 15 99  1  0  0  0
 16 17  2  0  0  0
 16 21  1  0  0  0
 16 31  1  0  0  0
 17 18  1  0  0  0
 17100  1  0  0  0
 18 19  2  0  0  0
 18101  1  0  0  0
 19 20  1  0  0  0
 19 24  1  0  0  0
 20 21  2  0  0  0
 20102  1  0  0  0
 21 23  1  0  0  0
 22 28  1  0  0  0
 22 32  2  0  0  0
 26 27  1  0  0  0
 28103  1  0  0  0
 28104  1  0  0  0
 29105  1  0  0  0
 29106  1  0  0  0
 33 34  1  0  0  0
 33 66  1  0  0  0
 33 70  2  0  0  0
 34 36  1  0  0  0
 34 59  1  0  0  0
 34107  1  0  0  0
 35 44  2  0  0  0
 35 45  1  0  0  0
 35 68  1  0  0  0
 36 56  1  0  0  0
 36108  1  0  0  0
 37 39  1  0  0  0
 37 47  1  0  0  0
 37 66  1  0  0  0
 37109  1  0  0  0
 38 43  2  0  0  0
 38 46  1  0  0  0
 38 47  1  0  0  0
 39 64  1  0  0  0
 39 67  2  0  0  0
 40 52  1  0  0  0
 40 53  2  0  0  0
 40 58  1  0  0  0
 41110  1  0  0  0
 41111  1  0  0  0
 41112  1  0  0  0
 41 48  1  0  0  0
 42 43  1  0  0  0
 42 66  1  0  0  0
 42113  1  0  0  0
 42114  1  0  0  0
 43 44  1  0  0  0
 44115  1  0  0  0
 45 46  2  0  0  0
 45116  1  0  0  0
 46117  1  0  0  0
 47118  1  0  0  0
 47119  1  0  0  0
 48 56  1  0  0  0
 48 65  1  0  0  0
 48120  1  0  0  0
 49 50  1  0  0  0
 49 53  1  0  0  0
 49 64  1  0  0  0
 49121  1  0  0  0
 50 51  1  0  0  0
 50122  1  0  0  0
 50123  1  0  0  0
 51 52  1  0  0  0
 51124  1  0  0  0
 51125  1  0  0  0
 52126  1  0  0  0
 52127  1  0  0  0
 53 54  1  0  0  0
 54 55  2  0  0  0
 54128  1  0  0  0
 55 57  1  0  0  0
 55129  1  0  0  0
 56 69  2  0  0  0
 57 58  2  0  0  0
 57130  1  0  0  0
 58131  1  0  0  0
 59 60  1  0  0  0
 59 61  1  0  0  0
 59 62  1  0  0  0
 60132  1  0  0  0
 60133  1  0  0  0
 60134  1  0  0  0
 61135  1  0  0  0
 61136  1  0  0  0
 61137  1  0  0  0
 62138  1  0  0  0
 62139  1  0  0  0
 62140  1  0  0  0
 63 65  1  0  0  0
 63141  1  0  0  0
 63142  1  0  0  0
 63143  1  0  0  0
 64144  1  0  0  0
 65145  1  0  0  0
 68 81  1  0  0  0
 71 73  2  0  0  0
 71 82  1  0  0  0
 71146  1  0  0  0
 72 73  1  0  0  0
 72 74  2  0  0  0
 72 79  1  0  0  0
 73 84  1  0  0  0
 74 75  1  0  0  0
 74 83  1  0  0  0
 75 82  2  0  0  0
 75 86  1  0  0  0
 76 80  1  0  0  0
 76 83  1  0  0  0
 76 85  2  0  0  0
 77 79  1  0  0  0
 77147  1  0  0  0
 77148  1  0  0  0
 77149  1  0  0  0
 78150  1  0  0  0
 78151  1  0  0  0
 78152  1  0  0  0
 78 81  1  0  0  0
 79153  1  0  0  0
 79154  1  0  0  0
 80 81  1  0  0  0
 80155  1  0  0  0
 80156  1  0  0  0
 81157  1  0  0  0
 83158  1  0  0  0
 84159  1  0  0  0
M  ISO  4   1 100  68 101  81 101  84 100
M  END
> <chiral flag>
0

> <version>
0

> <s_m_source_file>
/data/baiqing/PycharmProjects/Reinvent-master-3.2/result/LINK_invent/BTK/process_docking_weight1_custom_product_contain_oxygen_bond_distance_aromatic_linkinvent_7_9_3/rearranged_h_0168.sdf

> <i_m_source_file_index>
97

> <r_mmod_Potential_Energy-OPLS-2005>
-58.5679588317871

> <r_mmod_Stretch_Energy-OPLS-2005>
128.672988891602

> <r_mmod_Bend_Energy-OPLS-2005>
158.211288452148

> <r_mmod_Torsional_Energy-OPLS-2005>
253.824111938477

> <r_mmod_Improper_Torsional_Energy-OPLS-2005>
5.95624113082886

> <r_mmod_Van_der_Waal_Energy-OPLS-2005>
147.469314575195

> <r_mmod_Electrostatic_Energy-OPLS-2005>
-600.340454101562

> <r_mmod_Solvation_Energy-OPLS-2005>
-241.505645751953

> <b_mmod_Minimization_Converged-OPLS-2005>
0

> <r_mmod_RMS_Derivative-OPLS-2005>
4.19089317321777

$$$$
97
                    3D
 Structure written by MMmdl.
157165  0  0  1  0            999 V2000
  -30.5600  -14.7005   20.5085 C   0  0  0  0  0  0
  -30.4433  -12.4313   19.4570 C   0  0  0  0  0  0
  -29.5065  -12.5050   18.2276 C   0  0  0  0  0  0
  -28.0327  -12.3085   18.6484 C   0  0  0  0  0  0
  -27.6419  -13.2041   19.8536 C   0  0  2  0  0  0
  -28.6832  -13.0870   20.9873 C   0  0  0  0  0  0
  -25.2526  -13.8148   20.5750 C   0  0  0  0  0  0
  -24.1778  -13.0414   20.9215 C   0  0  0  0  0  0
  -24.6323  -11.6882   20.8735 C   0  0  0  0  0  0
  -23.8996  -10.4272   21.0377 C   0  0  0  0  0  0
  -24.3567   -9.4203   21.9146 C   0  0  0  0  0  0
  -23.6260   -8.2224   22.0720 C   0  0  0  0  0  0
  -22.4232   -8.0254   21.3515 C   0  0  0  0  0  0
  -21.9846   -9.0231   20.4627 C   0  0  0  0  0  0
  -22.7157  -10.2126   20.3040 C   0  0  0  0  0  0
  -21.6845   -6.0726   22.5293 C   0  0  0  0  0  0
  -21.4004   -6.5622   23.8219 C   0  0  0  0  0  0
  -21.3657   -5.6782   24.9180 C   0  0  0  0  0  0
  -21.6050   -4.3041   24.7223 C   0  0  0  0  0  0
  -21.8848   -3.8143   23.4343 C   0  0  0  0  0  0
  -21.9189   -4.6968   22.3412 C   0  0  0  0  0  0
  -22.7814  -13.5236   21.1854 C   0  0  0  0  0  0
  -22.1659   -4.2155   21.0998 F   0  0  0  0  0  0
  -21.5633   -3.4522   25.7725 F   0  0  0  0  0  0
  -29.9871  -13.4572   20.4185 N   0  0  0  0  0  0
  -26.2902  -12.9275   20.3300 N   0  0  0  0  0  0
  -25.9239  -11.6441   20.5725 N   0  0  0  0  0  0
  -22.0452  -12.8238   22.0448 N   0  0  0  0  0  0
  -25.4225  -15.1876   20.4207 N   0  0  0  0  0  0
  -31.7537  -14.8730   20.2411 O   0  0  0  0  0  0
  -21.6590   -6.8855   21.4238 O   0  0  0  0  0  0
  -22.3517  -14.5540   20.6693 O   0  0  0  0  0  0
  -24.6317  -31.8588   23.1970 C   0  0  0  0  0  0
  -25.9181  -32.4736   23.8327 C   0  0  1  0  0  0
  -27.2312  -27.2771   20.1266 C   0  0  0  0  0  0
  -25.6088  -33.8556   24.2305 N   0  0  0  0  0  0
  -23.4247  -30.4823   21.5372 C   0  0  2  0  0  0
  -24.8786  -28.9330   20.1031 C   0  0  0  0  0  0
  -22.7475  -29.4647   22.4882 C   0  0  0  0  0  0
  -18.0282  -28.1388   22.8519 C   0  0  0  0  0  0
  -24.1499  -36.7193   23.2627 C   0  0  0  0  0  0
  -25.9673  -30.7733   21.3770 C   0  0  0  0  0  0
  -26.0451  -29.3960   20.7272 C   0  0  0  0  0  0
  -27.2195  -28.5763   20.7397 C   0  0  0  0  0  0
  -26.0445  -26.8942   19.4551 C   0  0  0  0  0  0
  -24.8832  -27.6898   19.4560 C   0  0  0  0  0  0
  -23.6467  -29.8167   20.1507 C   0  0  0  0  0  0
  -25.4127  -36.3057   24.0338 C   0  0  1  0  0  0
  -20.5897  -28.3705   23.1268 C   0  0  2  0  0  0
  -20.6784  -26.9419   22.5421 C   0  0  0  0  0  0
  -19.5738  -26.6383   21.5226 C   0  0  0  0  0  0
  -18.1923  -26.7927   22.1644 C   0  0  0  0  0  0
  -19.1550  -28.8855   23.2886 C   0  0  0  0  0  0
  -18.9485  -30.1462   23.8883 C   0  0  0  0  0  0
  -17.6496  -30.6607   24.0579 C   0  0  0  0  0  0
  -25.9093  -34.9440   23.5090 C   0  0  0  0  0  0
  -16.5372  -29.9114   23.6350 C   0  0  0  0  0  0
  -16.7274  -28.6531   23.0366 C   0  0  0  0  0  0
  -26.4546  -31.6493   25.0690 C   0  0  0  0  0  0
  -25.3800  -31.3634   26.1407 C   0  0  0  0  0  0
  -27.0309  -30.2911   24.6093 C   0  0  0  0  0  0
  -27.6122  -32.4101   25.7544 C   0  0  0  0  0  0
  -27.5552  -37.1757   24.8502 C   0  0  0  0  0  0
  -21.4187  -29.3056   22.3626 N   0  0  0  0  0  0
  -26.4272  -37.3767   23.9449 N   0  0  0  0  0  0
  -24.6925  -31.0562   22.0928 N   0  0  0  0  0  0
  -23.4196  -28.8178   23.2967 O   0  0  0  0  0  0
  -28.3278  -26.3815   20.1970 O   0  0  0  0  0  0
  -26.5571  -34.8903   22.4595 O   0  0  0  0  0  0
  -23.5483  -32.1440   23.7288 O   0  0  0  0  0  0
  -29.7543  -18.3634   20.3675 C   0  0  0  0  0  0
  -29.6374  -17.2433   22.5323 C   0  0  0  0  0  0
  -29.6492  -19.6870   20.9790 C   0  0  0  0  0  0
  -29.7623  -17.1219   21.1332 C   0  0  0  0  0  0
  -29.5339  -19.7002   22.3919 C   0  0  0  0  0  0
  -29.5318  -18.5050   23.1472 C   0  0  0  0  0  0
  -28.6971  -22.2552   20.1591 C   0  0  0  0  0  0
  -29.0871  -23.7945   20.3754 C   0  0  0  0  0  0
  -27.0960  -20.6442   19.4424 C   0  0  0  0  0  0
  -29.8119  -21.0860   20.2102 C   0  0  0  0  0  0
  -28.0567  -24.9305   19.9043 C   0  0  0  0  0  0
  -27.4865  -21.9799   19.8528 N   0  0  0  0  0  0
  -29.4313  -20.8979   23.0971 N   0  0  0  0  0  0
  -29.6664  -15.7518   20.5990 N   0  0  0  0  0  0
  -30.1701  -24.1343   20.8685 O   0  0  0  0  0  0
  -29.4285  -18.5783   24.4977 F   0  0  0  0  0  0
  -31.4862  -12.5763   19.1637 H   0  0  0  0  0  0
  -30.3941  -11.4402   19.9133 H   0  0  0  0  0  0
  -29.7846  -11.7472   17.4931 H   0  0  0  0  0  0
  -29.6223  -13.4705   17.7327 H   0  0  0  0  0  0
  -27.8985  -11.2551   18.9097 H   0  0  0  0  0  0
  -27.3650  -12.4966   17.8080 H   0  0  0  0  0  0
  -27.6467  -14.2262   19.4733 H   0  0  0  0  0  0
  -28.7067  -12.0683   21.3778 H   0  0  0  0  0  0
  -28.4211  -13.7226   21.8342 H   0  0  0  0  0  0
  -25.2687   -9.5689   22.4726 H   0  0  0  0  0  0
  -23.9991   -7.4621   22.7433 H   0  0  0  0  0  0
  -21.0765   -8.8734   19.8940 H   0  0  0  0  0  0
  -22.3561  -10.9679   19.6182 H   0  0  0  0  0  0
  -21.1995   -7.6121   23.9710 H   0  0  0  0  0  0
  -21.1443   -6.0508   25.9084 H   0  0  0  0  0  0
  -22.0626   -2.7602   23.2857 H   0  0  0  0  0  0
  -22.4080  -11.9902   22.4830 H   0  0  0  0  0  0
  -21.1103  -13.1315   22.2719 H   0  0  0  0  0  0
  -24.6490  -15.8317   20.5385 H   0  0  0  0  0  0
  -26.2640  -15.6457   20.0976 H   0  0  0  0  0  0
  -26.7245  -32.5424   23.1076 H   0  0  0  0  0  0
  -25.0578  -33.9727   25.0682 H   0  0  0  0  0  0
  -22.7215  -31.3046   21.3898 H   0  0  0  0  0  0
  -23.3816  -35.9466   23.3318 H   0  0  0  0  0  0
  -24.3615  -36.8750   22.2037 H   0  0  0  0  0  0
  -23.7153  -37.6375   23.6578 H   0  0  0  0  0  0
  -26.0941  -31.5254   20.5983 H   0  0  0  0  0  0
  -26.8489  -30.8365   22.0009 H   0  0  0  0  0  0
  -28.0990  -28.9205   21.2671 H   0  0  0  0  0  0
  -25.9847  -25.9571   18.9236 H   0  0  0  0  0  0
  -23.9932  -27.3339   18.9529 H   0  0  0  0  0  0
  -23.7717  -30.5936   19.3953 H   0  0  0  0  0  0
  -22.7656  -29.2497   19.8421 H   0  0  0  0  0  0
  -25.1292  -36.1890   25.0821 H   0  0  0  0  0  0
  -20.9998  -28.3274   24.1377 H   0  0  0  0  0  0
  -20.5695  -26.2324   23.3635 H   0  0  0  0  0  0
  -21.6650  -26.7437   22.1196 H   0  0  0  0  0  0
  -19.6893  -25.6286   21.1238 H   0  0  0  0  0  0
  -19.6645  -27.3224   20.6758 H   0  0  0  0  0  0
  -17.4194  -26.6724   21.4027 H   0  0  0  0  0  0
  -18.0285  -26.0051   22.9011 H   0  0  0  0  0  0
  -19.7967  -30.7296   24.2222 H   0  0  0  0  0  0
  -17.5053  -31.6276   24.5186 H   0  0  0  0  0  0
  -15.5384  -30.3029   23.7644 H   0  0  0  0  0  0
  -15.8677  -28.0847   22.7063 H   0  0  0  0  0  0
  -24.6059  -30.6871   25.7768 H   0  0  0  0  0  0
  -24.8939  -32.2812   26.4720 H   0  0  0  0  0  0
  -25.8216  -30.8937   27.0217 H   0  0  0  0  0  0
  -26.2929  -29.6843   24.0843 H   0  0  0  0  0  0
  -27.3708  -29.6945   25.4572 H   0  0  0  0  0  0
  -27.8930  -30.4198   23.9531 H   0  0  0  0  0  0
  -27.2782  -33.3397   26.2147 H   0  0  0  0  0  0
  -28.4042  -32.6554   25.0461 H   0  0  0  0  0  0
  -28.0665  -31.8150   26.5472 H   0  0  0  0  0  0
  -28.2599  -38.0033   24.7578 H   0  0  0  0  0  0
  -28.1011  -36.2567   24.6314 H   0  0  0  0  0  0
  -27.2294  -37.1407   25.8914 H   0  0  0  0  0  0
  -20.9329  -29.8771   21.6850 H   0  0  0  0  0  0
  -26.0154  -38.2821   24.1493 H   0  0  0  0  0  0
  -29.8220  -18.2959   19.2914 H   0  0  0  0  0  0
  -29.5856  -16.3653   23.1590 H   0  0  0  0  0  0
  -26.1870  -20.7039   18.8446 H   0  0  0  0  0  0
  -26.8879  -20.0009   20.2986 H   0  0  0  0  0  0
  -27.8379  -20.1597   18.8048 H   0  0  0  0  0  0
  -30.0751  -20.8553   19.1766 H   0  0  0  0  0  0
  -30.7231  -21.5277   20.6167 H   0  0  0  0  0  0
  -27.0938  -24.6631   20.3372 H   0  0  0  0  0  0
  -27.9599  -24.8235   18.8226 H   0  0  0  0  0  0
  -28.7645  -21.5630   22.7273 H   0  0  0  0  0  0
  -29.2478  -20.7427   24.0858 H   0  0  0  0  0  0
  -28.7302  -15.3831   20.6505 H   0  0  0  0  0  0
  1 25  1  0  0  0
  1 30  2  0  0  0
  1 84  1  0  0  0
  2  3  1  0  0  0
  2 25  1  0  0  0
  2 87  1  0  0  0
  2 88  1  0  0  0
  3  4  1  0  0  0
  3 89  1  0  0  0
  3 90  1  0  0  0
  4  5  1  0  0  0
  4 91  1  0  0  0
  4 92  1  0  0  0
  5  6  1  0  0  0
  5 26  1  0  0  0
  5 93  1  0  0  0
  6 25  1  0  0  0
  6 94  1  0  0  0
  6 95  1  0  0  0
  7  8  2  0  0  0
  7 26  1  0  0  0
  7 29  1  0  0  0
  8  9  1  0  0  0
  8 22  1  0  0  0
  9 10  1  0  0  0
  9 27  2  0  0  0
 10 11  2  0  0  0
 10 15  1  0  0  0
 11 12  1  0  0  0
 11 96  1  0  0  0
 12 13  2  0  0  0
 12 97  1  0  0  0
 13 14  1  0  0  0
 13 31  1  0  0  0
 14 15  2  0  0  0
 14 98  1  0  0  0
 15 99  1  0  0  0
 16 17  2  0  0  0
 16 21  1  0  0  0
 16 31  1  0  0  0
 17 18  1  0  0  0
 17100  1  0  0  0
 18 19  2  0  0  0
 18101  1  0  0  0
 19 20  1  0  0  0
 19 24  1  0  0  0
 20 21  2  0  0  0
 20102  1  0  0  0
 21 23  1  0  0  0
 22 28  1  0  0  0
 22 32  2  0  0  0
 26 27  1  0  0  0
 28103  1  0  0  0
 28104  1  0  0  0
 29105  1  0  0  0
 29106  1  0  0  0
 33 34  1  0  0  0
 33 66  1  0  0  0
 33 70  2  0  0  0
 34 36  1  0  0  0
 34 59  1  0  0  0
 34107  1  0  0  0
 35 44  2  0  0  0
 35 45  1  0  0  0
 35 68  1  0  0  0
 36 56  1  0  0  0
 36108  1  0  0  0
 37 39  1  0  0  0
 37 47  1  0  0  0
 37 66  1  0  0  0
 37109  1  0  0  0
 38 43  2  0  0  0
 38 46  1  0  0  0
 38 47  1  0  0  0
 39 64  1  0  0  0
 39 67  2  0  0  0
 40 52  1  0  0  0
 40 53  2  0  0  0
 40 58  1  0  0  0
 41110  1  0  0  0
 41111  1  0  0  0
 41112  1  0  0  0
 41 48  1  0  0  0
 42 43  1  0  0  0
 42 66  1  0  0  0
 42113  1  0  0  0
 42114  1  0  0  0
 43 44  1  0  0  0
 44115  1  0  0  0
 45 46  2  0  0  0
 45116  1  0  0  0
 46117  1  0  0  0
 47118  1  0  0  0
 47119  1  0  0  0
 48 56  1  0  0  0
 48 65  1  0  0  0
 48120  1  0  0  0
 49 50  1  0  0  0
 49 53  1  0  0  0
 49 64  1  0  0  0
 49121  1  0  0  0
 50 51  1  0  0  0
 50122  1  0  0  0
 50123  1  0  0  0
 51 52  1  0  0  0
 51124  1  0  0  0
 51125  1  0  0  0
 52126  1  0  0  0
 52127  1  0  0  0
 53 54  1  0  0  0
 54 55  2  0  0  0
 54128  1  0  0  0
 55 57  1  0  0  0
 55129  1  0  0  0
 56 69  2  0  0  0
 57 58  2  0  0  0
 57130  1  0  0  0
 58131  1  0  0  0
 59 60  1  0  0  0
 59 61  1  0  0  0
 59 62  1  0  0  0
 60132  1  0  0  0
 60133  1  0  0  0
 60134  1  0  0  0
 61135  1  0  0  0
 61136  1  0  0  0
 61137  1  0  0  0
 62138  1  0  0  0
 62139  1  0  0  0
 62140  1  0  0  0
 63 65  1  0  0  0
 63141  1  0  0  0
 63142  1  0  0  0
 63143  1  0  0  0
 64144  1  0  0  0
 65145  1  0  0  0
 68 81  1  0  0  0
 71 73  2  0  0  0
 71 74  1  0  0  0
 71146  1  0  0  0
 72 74  2  0  0  0
 72 76  1  0  0  0
 72147  1  0  0  0
 73 75  1  0  0  0
 73 80  1  0  0  0
 74 84  1  0  0  0
 75 76  2  0  0  0
 75 83  1  0  0  0
 76 86  1  0  0  0
 77 78  1  0  0  0
 77 80  1  0  0  0
 77 82  2  0  0  0
 78 81  1  0  0  0
 78 85  2  0  0  0
 79 82  1  0  0  0
 79148  1  0  0  0
 79149  1  0  0  0
 79150  1  0  0  0
 80151  1  0  0  0
 80152  1  0  0  0
 81153  1  0  0  0
 81154  1  0  0  0
 83155  1  0  0  0
 83156  1  0  0  0
 84157  1  0  0  0
M  ISO  4   1 100  68 101  81 101  84 100
M  END
> <chiral flag>
0

> <version>
0

> <s_m_source_file>
/data/baiqing/PycharmProjects/Reinvent-master-3.2/result/LINK_invent/BTK/process_docking_weight1_custom_product_contain_oxygen_bond_distance_aromatic_linkinvent_7_9_3/rearranged_h_0168.sdf

> <i_m_source_file_index>
98

> <r_mmod_Potential_Energy-OPLS-2005>
258.890167236328

> <r_mmod_Stretch_Energy-OPLS-2005>
130.926712036133

> <r_mmod_Bend_Energy-OPLS-2005>
169.130340576172

> <r_mmod_Torsional_Energy-OPLS-2005>
256.561706542969

> <r_mmod_Improper_Torsional_Energy-OPLS-2005>
17.2330799102783

> <r_mmod_Van_der_Waal_Energy-OPLS-2005>
144.814178466797

> <r_mmod_Electrostatic_Energy-OPLS-2005>
-295.453094482422

> <r_mmod_Solvation_Energy-OPLS-2005>
-240.986526489258

> <b_mmod_Minimization_Converged-OPLS-2005>
0

> <r_mmod_RMS_Derivative-OPLS-2005>
6.16671419143677

$$$$
98
                    3D
 Structure written by MMmdl.
153161  0  0  1  0            999 V2000
  -30.6735  -14.4999   20.5887 C   0  0  0  0  0  0
  -30.4286  -12.3231   19.4379 C   0  0  0  0  0  0
  -29.4981  -12.5003   18.2193 C   0  0  0  0  0  0
  -28.0213  -12.3450   18.6330 C   0  0  0  0  0  0
  -27.6594  -13.2020   19.8748 C   0  0  2  0  0  0
  -28.6956  -12.9901   21.0011 C   0  0  0  0  0  0
  -25.2576  -13.8159   20.5674 C   0  0  0  0  0  0
  -24.1824  -13.0446   20.9150 C   0  0  0  0  0  0
  -24.6371  -11.6907   20.8713 C   0  0  0  0  0  0
  -23.9040  -10.4294   21.0391 C   0  0  0  0  0  0
  -24.3595   -9.4211   21.9176 C   0  0  0  0  0  0
  -23.6278   -8.2242   22.0753 C   0  0  0  0  0  0
  -22.4265   -8.0272   21.3543 C   0  0  0  0  0  0
  -21.9890   -9.0238   20.4639 C   0  0  0  0  0  0
  -22.7209  -10.2121   20.3046 C   0  0  0  0  0  0
  -21.6845   -6.0726   22.5276 C   0  0  0  0  0  0
  -21.4013   -6.5635   23.8208 C   0  0  0  0  0  0
  -21.3655   -5.6791   24.9169 C   0  0  0  0  0  0
  -21.6041   -4.3055   24.7229 C   0  0  0  0  0  0
  -21.8819   -3.8142   23.4353 C   0  0  0  0  0  0
  -21.9194   -4.6954   22.3406 C   0  0  0  0  0  0
  -22.7847  -13.5227   21.1840 C   0  0  0  0  0  0
  -22.1659   -4.2143   21.0982 F   0  0  0  0  0  0
  -21.5628   -3.4544   25.7744 F   0  0  0  0  0  0
  -30.0249  -13.3093   20.4557 N   0  0  0  0  0  0
  -26.3002  -12.9315   20.3350 N   0  0  0  0  0  0
  -25.9297  -11.6483   20.5753 N   0  0  0  0  0  0
  -22.0505  -12.8227   22.0401 N   0  0  0  0  0  0
  -25.4362  -15.1882   20.4152 N   0  0  0  0  0  0
  -31.7946  -14.6906   20.1078 O   0  0  0  0  0  0
  -21.6634   -6.8868   21.4237 O   0  0  0  0  0  0
  -22.3534  -14.5540   20.6688 O   0  0  0  0  0  0
  -24.6155  -31.8653   23.2091 C   0  0  0  0  0  0
  -25.9060  -32.4809   23.8379 C   0  0  1  0  0  0
  -27.2301  -27.4106   20.1221 C   0  0  0  0  0  0
  -25.5924  -33.8610   24.2306 N   0  0  0  0  0  0
  -23.4037  -30.4858   21.5498 C   0  0  2  0  0  0
  -24.8536  -28.9494   20.1165 C   0  0  0  0  0  0
  -22.7421  -29.4622   22.5009 C   0  0  0  0  0  0
  -18.0263  -28.1372   22.8488 C   0  0  0  0  0  0
  -24.1491  -36.7296   23.2638 C   0  0  0  0  0  0
  -25.9330  -30.8293   21.3615 C   0  0  0  0  0  0
  -26.0150  -29.4617   20.7100 C   0  0  0  0  0  0
  -27.2110  -28.7027   20.7013 C   0  0  0  0  0  0
  -26.0525  -26.9146   19.5248 C   0  0  0  0  0  0
  -24.8682  -27.6772   19.5168 C   0  0  0  0  0  0
  -23.6136  -29.8148   20.1651 C   0  0  0  0  0  0
  -25.4123  -36.3098   24.0329 C   0  0  1  0  0  0
  -20.5845  -28.3653   23.1337 C   0  0  2  0  0  0
  -20.6748  -26.9391   22.5426 C   0  0  0  0  0  0
  -19.5739  -26.6378   21.5217 C   0  0  0  0  0  0
  -18.1899  -26.7913   22.1608 C   0  0  0  0  0  0
  -19.1513  -28.8830   23.2882 C   0  0  0  0  0  0
  -18.9450  -30.1434   23.8895 C   0  0  0  0  0  0
  -17.6465  -30.6592   24.0555 C   0  0  0  0  0  0
  -25.9052  -34.9468   23.5108 C   0  0  0  0  0  0
  -16.5356  -29.9090   23.6337 C   0  0  0  0  0  0
  -16.7254  -28.6497   23.0366 C   0  0  0  0  0  0
  -26.4491  -31.6611   25.0716 C   0  0  0  0  0  0
  -25.3764  -31.3748   26.1471 C   0  0  0  0  0  0
  -27.0314  -30.3043   24.6103 C   0  0  0  0  0  0
  -27.6044  -32.4347   25.7480 C   0  0  0  0  0  0
  -27.5583  -37.1800   24.8466 C   0  0  0  0  0  0
  -21.4146  -29.3012   22.3756 N   0  0  0  0  0  0
  -26.4307  -37.3784   23.9404 N   0  0  0  0  0  0
  -24.6687  -31.0751   22.0987 N   0  0  0  0  0  0
  -23.4202  -28.8168   23.3048 O   0  0  0  0  0  0
  -28.3745  -26.6384   20.1386 O   0  0  0  0  0  0
  -26.5604  -34.8916   22.4655 O   0  0  0  0  0  0
  -23.5347  -32.1424   23.7491 O   0  0  0  0  0  0
  -31.8179  -18.7557   21.4803 C   0  0  0  0  0  0
  -31.5394  -17.3757   21.5051 C   0  0  0  0  0  0
  -30.8270  -19.6835   21.1055 C   0  0  0  0  0  0
  -30.2581  -16.8992   21.1504 C   0  0  0  0  0  0
  -29.5298  -19.2449   20.7604 C   0  0  0  0  0  0
  -29.2505  -17.8451   20.8073 C   0  0  0  0  0  0
  -28.6972  -22.7365   20.6360 C   0  0  0  0  0  0
  -28.6117  -24.1485   19.9463 C   0  0  0  0  0  0
  -28.8384  -21.4704   19.7465 C   0  0  0  0  0  0
  -28.2467  -25.3667   20.8282 C   0  0  0  0  0  0
  -29.9606  -15.4939   21.1699 N   0  0  0  0  0  0
  -28.5225  -20.1646   20.3829 N   0  0  0  0  0  0
  -28.6874  -22.6343   21.8695 O   0  0  0  0  0  0
  -28.8334  -24.2809   18.7352 O   0  0  0  0  0  0
  -28.0060  -17.4002   20.4969 F   0  0  0  0  0  0
  -31.4721  -12.4351   19.1366 H   0  0  0  0  0  0
  -30.3470  -11.3123   19.8415 H   0  0  0  0  0  0
  -29.7467  -11.7744   17.4441 H   0  0  0  0  0  0
  -29.6523  -13.4871   17.7788 H   0  0  0  0  0  0
  -27.8516  -11.2911   18.8564 H   0  0  0  0  0  0
  -27.3639  -12.5857   17.7972 H   0  0  0  0  0  0
  -27.7036  -14.2460   19.5639 H   0  0  0  0  0  0
  -28.6770  -11.9510   21.3355 H   0  0  0  0  0  0
  -28.4471  -13.5813   21.8839 H   0  0  0  0  0  0
  -25.2740   -9.5693   22.4751 H   0  0  0  0  0  0
  -23.9989   -7.4639   22.7482 H   0  0  0  0  0  0
  -21.0821   -8.8743   19.8952 H   0  0  0  0  0  0
  -22.3656  -10.9654   19.6155 H   0  0  0  0  0  0
  -21.2010   -7.6143   23.9706 H   0  0  0  0  0  0
  -21.1473   -6.0526   25.9070 H   0  0  0  0  0  0
  -22.0605   -2.7608   23.2856 H   0  0  0  0  0  0
  -22.4123  -11.9868   22.4750 H   0  0  0  0  0  0
  -21.1128  -13.1247   22.2651 H   0  0  0  0  0  0
  -24.6811  -15.8509   20.5467 H   0  0  0  0  0  0
  -26.3102  -15.6317   20.1590 H   0  0  0  0  0  0
  -26.7133  -32.5527   23.1143 H   0  0  0  0  0  0
  -25.0102  -33.9764   25.0465 H   0  0  0  0  0  0
  -22.6907  -31.3006   21.4089 H   0  0  0  0  0  0
  -23.3742  -35.9636   23.3330 H   0  0  0  0  0  0
  -24.3581  -36.8890   22.2046 H   0  0  0  0  0  0
  -23.7262  -37.6510   23.6653 H   0  0  0  0  0  0
  -26.0501  -31.5980   20.5967 H   0  0  0  0  0  0
  -26.8159  -30.8803   21.9857 H   0  0  0  0  0  0
  -28.1051  -29.0898   21.1685 H   0  0  0  0  0  0
  -26.0472  -25.9329   19.0723 H   0  0  0  0  0  0
  -23.9750  -27.2749   19.0577 H   0  0  0  0  0  0
  -23.7145  -30.5873   19.4014 H   0  0  0  0  0  0
  -22.7409  -29.2280   19.8740 H   0  0  0  0  0  0
  -25.1301  -36.1965   25.0829 H   0  0  0  0  0  0
  -20.9898  -28.3216   24.1480 H   0  0  0  0  0  0
  -20.5666  -26.2254   23.3604 H   0  0  0  0  0  0
  -21.6616  -26.7449   22.1220 H   0  0  0  0  0  0
  -19.6895  -25.6290   21.1250 H   0  0  0  0  0  0
  -19.6700  -27.3179   20.6746 H   0  0  0  0  0  0
  -17.4177  -26.6682   21.3998 H   0  0  0  0  0  0
  -18.0282  -26.0049   22.8998 H   0  0  0  0  0  0
  -19.7933  -30.7223   24.2291 H   0  0  0  0  0  0
  -17.5030  -31.6284   24.5136 H   0  0  0  0  0  0
  -15.5349  -30.2990   23.7682 H   0  0  0  0  0  0
  -15.8642  -28.0830   22.7111 H   0  0  0  0  0  0
  -24.5905  -30.7135   25.7821 H   0  0  0  0  0  0
  -24.9002  -32.2921   26.4937 H   0  0  0  0  0  0
  -25.8098  -30.8904   27.0223 H   0  0  0  0  0  0
  -26.2843  -29.6799   24.1186 H   0  0  0  0  0  0
  -27.4104  -29.7316   25.4576 H   0  0  0  0  0  0
  -27.8682  -30.4333   23.9229 H   0  0  0  0  0  0
  -27.2646  -33.3641   26.2052 H   0  0  0  0  0  0
  -28.3849  -32.6925   25.0317 H   0  0  0  0  0  0
  -28.0706  -31.8496   26.5410 H   0  0  0  0  0  0
  -28.2608  -38.0085   24.7508 H   0  0  0  0  0  0
  -28.1066  -36.2624   24.6298 H   0  0  0  0  0  0
  -27.2297  -37.1464   25.8865 H   0  0  0  0  0  0
  -20.9337  -29.8756   21.6976 H   0  0  0  0  0  0
  -26.0194  -38.2859   24.1404 H   0  0  0  0  0  0
  -32.8041  -19.1049   21.7493 H   0  0  0  0  0  0
  -32.3183  -16.6884   21.8044 H   0  0  0  0  0  0
  -31.0790  -20.7348   21.1017 H   0  0  0  0  0  0
  -29.8415  -21.4554   19.3202 H   0  0  0  0  0  0
  -28.1662  -21.6060   18.8977 H   0  0  0  0  0  0
  -28.9094  -25.3755   21.6940 H   0  0  0  0  0  0
  -27.2397  -25.2210   21.2205 H   0  0  0  0  0  0
  -29.0276  -15.2455   21.4641 H   0  0  0  0  0  0
  -27.6321  -19.7466   20.1237 H   0  0  0  0  0  0
  1 25  1  0  0  0
  1 30  2  0  0  0
  1 81  1  0  0  0
  2  3  1  0  0  0
  2 25  1  0  0  0
  2 86  1  0  0  0
  2 87  1  0  0  0
  3  4  1  0  0  0
  3 88  1  0  0  0
  3 89  1  0  0  0
  4  5  1  0  0  0
  4 90  1  0  0  0
  4 91  1  0  0  0
  5  6  1  0  0  0
  5 26  1  0  0  0
  5 92  1  0  0  0
  6 25  1  0  0  0
  6 93  1  0  0  0
  6 94  1  0  0  0
  7  8  2  0  0  0
  7 26  1  0  0  0
  7 29  1  0  0  0
  8  9  1  0  0  0
  8 22  1  0  0  0
  9 10  1  0  0  0
  9 27  2  0  0  0
 10 11  2  0  0  0
 10 15  1  0  0  0
 11 12  1  0  0  0
 11 95  1  0  0  0
 12 13  2  0  0  0
 12 96  1  0  0  0
 13 14  1  0  0  0
 13 31  1  0  0  0
 14 15  2  0  0  0
 14 97  1  0  0  0
 15 98  1  0  0  0
 16 17  2  0  0  0
 16 21  1  0  0  0
 16 31  1  0  0  0
 17 18  1  0  0  0
 17 99  1  0  0  0
 18 19  2  0  0  0
 18100  1  0  0  0
 19 20  1  0  0  0
 19 24  1  0  0  0
 20 21  2  0  0  0
 20101  1  0  0  0
 21 23  1  0  0  0
 22 28  1  0  0  0
 22 32  2  0  0  0
 26 27  1  0  0  0
 28102  1  0  0  0
 28103  1  0  0  0
 29104  1  0  0  0
 29105  1  0  0  0
 33 34  1  0  0  0
 33 66  1  0  0  0
 33 70  2  0  0  0
 34 36  1  0  0  0
 34 59  1  0  0  0
 34106  1  0  0  0
 35 44  2  0  0  0
 35 45  1  0  0  0
 35 68  1  0  0  0
 36 56  1  0  0  0
 36107  1  0  0  0
 37 39  1  0  0  0
 37 47  1  0  0  0
 37 66  1  0  0  0
 37108  1  0  0  0
 38 43  2  0  0  0
 38 46  1  0  0  0
 38 47  1  0  0  0
 39 64  1  0  0  0
 39 67  2  0  0  0
 40 52  1  0  0  0
 40 53  2  0  0  0
 40 58  1  0  0  0
 41109  1  0  0  0
 41110  1  0  0  0
 41111  1  0  0  0
 41 48  1  0  0  0
 42 43  1  0  0  0
 42 66  1  0  0  0
 42112  1  0  0  0
 42113  1  0  0  0
 43 44  1  0  0  0
 44114  1  0  0  0
 45 46  2  0  0  0
 45115  1  0  0  0
 46116  1  0  0  0
 47117  1  0  0  0
 47118  1  0  0  0
 48 56  1  0  0  0
 48 65  1  0  0  0
 48119  1  0  0  0
 49 50  1  0  0  0
 49 53  1  0  0  0
 49 64  1  0  0  0
 49120  1  0  0  0
 50 51  1  0  0  0
 50121  1  0  0  0
 50122  1  0  0  0
 51 52  1  0  0  0
 51123  1  0  0  0
 51124  1  0  0  0
 52125  1  0  0  0
 52126  1  0  0  0
 53 54  1  0  0  0
 54 55  2  0  0  0
 54127  1  0  0  0
 55 57  1  0  0  0
 55128  1  0  0  0
 56 69  2  0  0  0
 57 58  2  0  0  0
 57129  1  0  0  0
 58130  1  0  0  0
 59 60  1  0  0  0
 59 61  1  0  0  0
 59 62  1  0  0  0
 60131  1  0  0  0
 60132  1  0  0  0
 60133  1  0  0  0
 61134  1  0  0  0
 61135  1  0  0  0
 61136  1  0  0  0
 62137  1  0  0  0
 62138  1  0  0  0
 62139  1  0  0  0
 63 65  1  0  0  0
 63140  1  0  0  0
 63141  1  0  0  0
 63142  1  0  0  0
 64143  1  0  0  0
 65144  1  0  0  0
 68 80  1  0  0  0
 71 72  2  0  0  0
 71 73  1  0  0  0
 71145  1  0  0  0
 72 74  1  0  0  0
 72146  1  0  0  0
 73 75  2  0  0  0
 73147  1  0  0  0
 74 76  2  0  0  0
 74 81  1  0  0  0
 75 76  1  0  0  0
 75 82  1  0  0  0
 76 85  1  0  0  0
 77 78  1  0  0  0
 77 79  1  0  0  0
 77 83  2  0  0  0
 78 80  1  0  0  0
 78 84  2  0  0  0
 79 82  1  0  0  0
 79148  1  0  0  0
 79149  1  0  0  0
 80150  1  0  0  0
 80151  1  0  0  0
 81152  1  0  0  0
 82153  1  0  0  0
M  ISO  4   1 100  68 101  80 101  81 100
M  END
> <chiral flag>
0

> <version>
0

> <s_m_source_file>
/data/baiqing/PycharmProjects/Reinvent-master-3.2/result/LINK_invent/BTK/process_docking_weight1_custom_product_contain_oxygen_bond_distance_aromatic_linkinvent_7_9_3/rearranged_h_0168.sdf

> <i_m_source_file_index>
99

> <r_mmod_Potential_Energy-OPLS-2005>
85.196907043457

> <r_mmod_Stretch_Energy-OPLS-2005>
47.5379447937012

> <r_mmod_Bend_Energy-OPLS-2005>
101.599174499512

> <r_mmod_Torsional_Energy-OPLS-2005>
232.30583190918

> <r_mmod_Improper_Torsional_Energy-OPLS-2005>
5.47138357162476

> <r_mmod_Van_der_Waal_Energy-OPLS-2005>
146.639343261719

> <r_mmod_Electrostatic_Energy-OPLS-2005>
-232.496871948242

> <r_mmod_Solvation_Energy-OPLS-2005>
-232.659774780273

> <b_mmod_Minimization_Converged-OPLS-2005>
0

> <r_mmod_RMS_Derivative-OPLS-2005>
3.30850672721863

$$$$
