0
                    3D
 Structure written by MMmdl.
167176  0  0  1  0            999 V2000
  -30.6478  -14.7056   20.4696 C   0  0  0  0  0  0
  -30.4205  -12.4185   19.4835 C   0  0  0  0  0  0
  -29.5089  -12.4803   18.2418 C   0  0  0  0  0  0
  -28.0332  -12.3210   18.6494 C   0  0  0  0  0  0
  -27.6411  -13.2276   19.8466 C   0  0  2  0  0  0
  -28.6818  -13.1623   20.9875 C   0  0  0  0  0  0
  -25.2482  -13.8166   20.5623 C   0  0  0  0  0  0
  -24.1794  -13.0450   20.9183 C   0  0  0  0  0  0
  -24.6369  -11.6918   20.8748 C   0  0  0  0  0  0
  -23.9051  -10.4287   21.0399 C   0  0  0  0  0  0
  -24.3600   -9.4195   21.9169 C   0  0  0  0  0  0
  -23.6275   -8.2237   22.0748 C   0  0  0  0  0  0
  -22.4260   -8.0260   21.3536 C   0  0  0  0  0  0
  -21.9896   -9.0233   20.4634 C   0  0  0  0  0  0
  -22.7226  -10.2118   20.3045 C   0  0  0  0  0  0
  -21.6852   -6.0716   22.5266 C   0  0  0  0  0  0
  -21.4012   -6.5627   23.8192 C   0  0  0  0  0  0
  -21.3649   -5.6786   24.9149 C   0  0  0  0  0  0
  -21.6052   -4.3050   24.7211 C   0  0  0  0  0  0
  -21.8819   -3.8126   23.4336 C   0  0  0  0  0  0
  -21.9195   -4.6942   22.3389 C   0  0  0  0  0  0
  -22.7817  -13.5219   21.1833 C   0  0  0  0  0  0
  -22.1664   -4.2143   21.0976 F   0  0  0  0  0  0
  -21.5624   -3.4537   25.7718 F   0  0  0  0  0  0
  -29.9882  -13.4952   20.4088 N   0  0  0  0  0  0
  -26.2915  -12.9388   20.3234 N   0  0  0  0  0  0
  -25.9286  -11.6546   20.5757 N   0  0  0  0  0  0
  -22.0471  -12.8226   22.0395 N   0  0  0  0  0  0
  -25.4206  -15.1878   20.3868 N   0  0  0  0  0  0
  -31.8268  -14.7397   20.1189 O   0  0  0  0  0  0
  -21.6633   -6.8860   21.4240 O   0  0  0  0  0  0
  -22.3508  -14.5515   20.6634 O   0  0  0  0  0  0
  -24.6309  -31.8572   23.1971 C   0  0  0  0  0  0
  -25.9101  -32.4803   23.8324 C   0  0  1  0  0  0
  -27.2020  -27.2547   20.0748 C   0  0  0  0  0  0
  -25.5907  -33.8612   24.2264 N   0  0  0  0  0  0
  -23.4284  -30.4802   21.5518 C   0  0  2  0  0  0
  -24.8632  -28.9379   20.1043 C   0  0  0  0  0  0
  -22.7545  -29.4532   22.4949 C   0  0  0  0  0  0
  -18.0314  -28.1342   22.8461 C   0  0  0  0  0  0
  -24.1513  -36.7272   23.2652 C   0  0  0  0  0  0
  -25.9772  -30.7705   21.3739 C   0  0  0  0  0  0
  -26.0493  -29.3939   20.7006 C   0  0  0  0  0  0
  -27.2191  -28.5669   20.6690 C   0  0  0  0  0  0
  -25.9897  -26.8775   19.4551 C   0  0  0  0  0  0
  -24.8447  -27.6886   19.4753 C   0  0  0  0  0  0
  -23.6401  -29.8328   20.1624 C   0  0  0  0  0  0
  -25.4128  -36.3071   24.0347 C   0  0  1  0  0  0
  -20.5930  -28.3598   23.1325 C   0  0  2  0  0  0
  -20.6827  -26.9344   22.5428 C   0  0  0  0  0  0
  -19.5785  -26.6332   21.5249 C   0  0  0  0  0  0
  -18.1949  -26.7914   22.1605 C   0  0  0  0  0  0
  -19.1575  -28.8793   23.2900 C   0  0  0  0  0  0
  -18.9476  -30.1449   23.8840 C   0  0  0  0  0  0
  -17.6461  -30.6548   24.0492 C   0  0  0  0  0  0
  -25.9055  -34.9466   23.5102 C   0  0  0  0  0  0
  -16.5342  -29.9031   23.6332 C   0  0  0  0  0  0
  -16.7304  -28.6468   23.0329 C   0  0  0  0  0  0
  -26.4433  -31.6596   25.0696 C   0  0  0  0  0  0
  -25.3654  -31.3761   26.1411 C   0  0  0  0  0  0
  -27.0252  -30.3048   24.6093 C   0  0  0  0  0  0
  -27.5997  -32.4329   25.7460 C   0  0  0  0  0  0
  -27.5577  -37.1793   24.8463 C   0  0  0  0  0  0
  -21.4232  -29.2955   22.3714 N   0  0  0  0  0  0
  -26.4270  -37.3785   23.9414 N   0  0  0  0  0  0
  -24.7008  -31.0520   22.0983 N   0  0  0  0  0  0
  -23.4243  -28.8026   23.3017 O   0  0  0  0  0  0
  -28.2884  -26.3421   20.0871 O   0  0  0  0  0  0
  -26.5639  -34.8924   22.4689 O   0  0  0  0  0  0
  -23.5418  -32.1438   23.7192 O   0  0  0  0  0  0
  -31.6467  -17.6817   20.4865 C   0  0  0  0  0  0
  -32.0948  -19.0144   20.4862 C   0  0  0  0  0  0
  -31.1946  -20.0958   20.6617 C   0  0  0  0  0  0
  -29.7865  -19.8694   20.7211 C   0  0  0  0  0  0
  -29.3644  -18.4509   20.7554 C   0  0  0  0  0  0
  -30.2930  -17.3214   20.6486 C   0  0  0  0  0  0
  -28.4006  -22.6537   18.8002 C   0  0  0  0  0  0
  -28.2878  -21.6564   17.8983 C   0  0  0  0  0  0
  -27.9678  -24.1261   18.6477 C   0  0  0  0  0  0
  -28.9965  -23.8431   20.8048 C   0  0  0  0  0  0
  -28.0399  -24.8389   20.0305 C   0  0  1  0  0  0
  -33.5932  -19.2386   20.3403 C   0  0  0  0  0  0
  -31.7688  -21.4946   20.8778 C   0  0  0  0  0  0
  -27.9039  -18.0899   20.9951 C   0  0  0  0  0  0
  -28.8252  -21.1628   20.8901 C   0  0  0  0  0  0
  -29.9192  -15.8680   20.7272 N   0  0  0  0  0  0
  -29.0872  -22.4818   20.1138 N   0  3  1  0  0  0
  -31.4650  -12.5068   19.1829 H   0  0  0  0  0  0
  -30.3446  -11.4447   19.9727 H   0  0  0  0  0  0
  -29.7868  -11.7041   17.5293 H   0  0  0  0  0  0
  -29.6493  -13.4344   17.7345 H   0  0  0  0  0  0
  -27.8726  -11.2733   18.9159 H   0  0  0  0  0  0
  -27.3836  -12.5119   17.7963 H   0  0  0  0  0  0
  -27.6409  -14.2487   19.4627 H   0  0  0  0  0  0
  -28.7029  -12.1623   21.4230 H   0  0  0  0  0  0
  -28.4182  -13.8456   21.7949 H   0  0  0  0  0  0
  -25.2748   -9.5677   22.4741 H   0  0  0  0  0  0
  -23.9984   -7.4628   22.7471 H   0  0  0  0  0  0
  -21.0835   -8.8709   19.8941 H   0  0  0  0  0  0
  -22.3654  -10.9625   19.6142 H   0  0  0  0  0  0
  -21.2004   -7.6135   23.9693 H   0  0  0  0  0  0
  -21.1481   -6.0512   25.9057 H   0  0  0  0  0  0
  -22.0617   -2.7601   23.2827 H   0  0  0  0  0  0
  -22.4084  -11.9887   22.4799 H   0  0  0  0  0  0
  -21.1072  -13.1218   22.2582 H   0  0  0  0  0  0
  -24.6340  -15.8260   20.4206 H   0  0  0  0  0  0
  -26.2197  -15.5716   19.8998 H   0  0  0  0  0  0
  -26.7137  -32.5375   23.1014 H   0  0  0  0  0  0
  -25.0078  -33.9799   25.0410 H   0  0  0  0  0  0
  -22.7279  -31.3068   21.4133 H   0  0  0  0  0  0
  -23.3803  -35.9566   23.3310 H   0  0  0  0  0  0
  -24.3659  -36.8904   22.2080 H   0  0  0  0  0  0
  -23.7286  -37.6483   23.6665 H   0  0  0  0  0  0
  -26.1320  -31.5497   20.6223 H   0  0  0  0  0  0
  -26.8534  -30.7989   22.0102 H   0  0  0  0  0  0
  -28.1339  -28.9192   21.1200 H   0  0  0  0  0  0
  -25.8880  -25.9379   18.9423 H   0  0  0  0  0  0
  -23.9410  -27.3251   19.0084 H   0  0  0  0  0  0
  -23.7800  -30.6272   19.4324 H   0  0  0  0  0  0
  -22.7527  -29.2999   19.8282 H   0  0  0  0  0  0
  -25.1339  -36.1888   25.0840 H   0  0  0  0  0  0
  -21.0026  -28.3072   24.1460 H   0  0  0  0  0  0
  -20.5861  -26.2140   23.3557 H   0  0  0  0  0  0
  -21.6667  -26.7455   22.1132 H   0  0  0  0  0  0
  -19.6986  -25.6283   21.1257 H   0  0  0  0  0  0
  -19.6775  -27.3135   20.6770 H   0  0  0  0  0  0
  -17.4291  -26.6698   21.3958 H   0  0  0  0  0  0
  -18.0235  -26.0094   22.9001 H   0  0  0  0  0  0
  -19.7954  -30.7306   24.2133 H   0  0  0  0  0  0
  -17.5006  -31.6233   24.5090 H   0  0  0  0  0  0
  -15.5353  -30.2849   23.7749 H   0  0  0  0  0  0
  -15.8695  -28.0768   22.6999 H   0  0  0  0  0  0
  -24.5891  -30.7034   25.7731 H   0  0  0  0  0  0
  -24.8758  -32.2925   26.4707 H   0  0  0  0  0  0
  -25.7958  -30.9049   27.0267 H   0  0  0  0  0  0
  -26.2779  -29.6888   24.1059 H   0  0  0  0  0  0
  -27.4011  -29.7175   25.4479 H   0  0  0  0  0  0
  -27.8623  -30.4466   23.9255 H   0  0  0  0  0  0
  -27.2649  -33.3721   26.1880 H   0  0  0  0  0  0
  -28.3818  -32.6789   25.0264 H   0  0  0  0  0  0
  -28.0607  -31.8584   26.5509 H   0  0  0  0  0  0
  -28.2527  -38.0142   24.7563 H   0  0  0  0  0  0
  -28.1167  -36.2700   24.6215 H   0  0  0  0  0  0
  -27.2327  -37.1328   25.8871 H   0  0  0  0  0  0
  -20.9359  -29.8791   21.7053 H   0  0  0  0  0  0
  -26.0164  -38.2844   24.1477 H   0  0  0  0  0  0
  -32.4161  -16.9330   20.4092 H   0  0  0  0  0  0
  -27.7839  -21.8086   16.9524 H   0  0  0  0  0  0
  -28.7086  -20.6754   18.0786 H   0  0  0  0  0  0
  -26.9675  -24.1809   18.2129 H   0  0  0  0  0  0
  -28.6515  -24.5778   17.9278 H   0  0  0  0  0  0
  -28.6817  -23.7643   21.8447 H   0  0  0  0  0  0
  -30.0025  -24.2716   20.8121 H   0  0  0  0  0  0
  -27.0759  -24.6722   20.5082 H   0  0  0  0  0  0
  -34.0763  -18.3895   19.8544 H   0  0  0  0  0  0
  -34.0487  -19.3702   21.3220 H   0  0  0  0  0  0
  -33.8145  -20.1154   19.7349 H   0  0  0  0  0  0
  -31.2109  -22.0339   21.6431 H   0  0  0  0  0  0
  -31.7790  -22.0640   19.9463 H   0  0  0  0  0  0
  -32.7832  -21.4769   21.2718 H   0  0  0  0  0  0
  -27.7115  -18.0261   22.0682 H   0  0  0  0  0  0
  -27.6634  -17.1149   20.5737 H   0  0  0  0  0  0
  -27.1978  -18.7948   20.5631 H   0  0  0  0  0  0
  -28.8421  -21.4005   21.9528 H   0  0  0  0  0  0
  -27.7941  -20.8920   20.6739 H   0  0  0  0  0  0
  -28.9533  -15.6888   20.9530 H   0  0  0  0  0  0
  -30.0729  -22.4069   19.9158 H   0  0  0  0  0  0
  1 25  1  0  0  0
  1 30  2  0  0  0
  1 86  1  0  0  0
  2  3  1  0  0  0
  2 25  1  0  0  0
  2 88  1  0  0  0
  2 89  1  0  0  0
  3  4  1  0  0  0
  3 90  1  0  0  0
  3 91  1  0  0  0
  4  5  1  0  0  0
  4 92  1  0  0  0
  4 93  1  0  0  0
  5  6  1  0  0  0
  5 26  1  0  0  0
  5 94  1  0  0  0
  6 25  1  0  0  0
  6 95  1  0  0  0
  6 96  1  0  0  0
  7  8  2  0  0  0
  7 26  1  0  0  0
  7 29  1  0  0  0
  8  9  1  0  0  0
  8 22  1  0  0  0
  9 10  1  0  0  0
  9 27  2  0  0  0
 10 11  2  0  0  0
 10 15  1  0  0  0
 11 12  1  0  0  0
 11 97  1  0  0  0
 12 13  2  0  0  0
 12 98  1  0  0  0
 13 14  1  0  0  0
 13 31  1  0  0  0
 14 15  2  0  0  0
 14 99  1  0  0  0
 15100  1  0  0  0
 16 17  2  0  0  0
 16 21  1  0  0  0
 16 31  1  0  0  0
 17 18  1  0  0  0
 17101  1  0  0  0
 18 19  2  0  0  0
 18102  1  0  0  0
 19 20  1  0  0  0
 19 24  1  0  0  0
 20 21  2  0  0  0
 20103  1  0  0  0
 21 23  1  0  0  0
 22 28  1  0  0  0
 22 32  2  0  0  0
 26 27  1  0  0  0
 28104  1  0  0  0
 28105  1  0  0  0
 29106  1  0  0  0
 29107  1  0  0  0
 33 34  1  0  0  0
 33 66  1  0  0  0
 33 70  2  0  0  0
 34 36  1  0  0  0
 34 59  1  0  0  0
 34108  1  0  0  0
 35 44  2  0  0  0
 35 45  1  0  0  0
 35 68  1  0  0  0
 36 56  1  0  0  0
 36109  1  0  0  0
 37 39  1  0  0  0
 37 47  1  0  0  0
 37 66  1  0  0  0
 37110  1  0  0  0
 38 43  2  0  0  0
 38 46  1  0  0  0
 38 47  1  0  0  0
 39 64  1  0  0  0
 39 67  2  0  0  0
 40 52  1  0  0  0
 40 53  2  0  0  0
 40 58  1  0  0  0
 41111  1  0  0  0
 41112  1  0  0  0
 41113  1  0  0  0
 41 48  1  0  0  0
 42 43  1  0  0  0
 42 66  1  0  0  0
 42114  1  0  0  0
 42115  1  0  0  0
 43 44  1  0  0  0
 44116  1  0  0  0
 45 46  2  0  0  0
 45117  1  0  0  0
 46118  1  0  0  0
 47119  1  0  0  0
 47120  1  0  0  0
 48 56  1  0  0  0
 48 65  1  0  0  0
 48121  1  0  0  0
 49 50  1  0  0  0
 49 53  1  0  0  0
 49 64  1  0  0  0
 49122  1  0  0  0
 50 51  1  0  0  0
 50123  1  0  0  0
 50124  1  0  0  0
 51 52  1  0  0  0
 51125  1  0  0  0
 51126  1  0  0  0
 52127  1  0  0  0
 52128  1  0  0  0
 53 54  1  0  0  0
 54 55  2  0  0  0
 54129  1  0  0  0
 55 57  1  0  0  0
 55130  1  0  0  0
 56 69  2  0  0  0
 57 58  2  0  0  0
 57131  1  0  0  0
 58132  1  0  0  0
 59 60  1  0  0  0
 59 61  1  0  0  0
 59 62  1  0  0  0
 60133  1  0  0  0
 60134  1  0  0  0
 60135  1  0  0  0
 61136  1  0  0  0
 61137  1  0  0  0
 61138  1  0  0  0
 62139  1  0  0  0
 62140  1  0  0  0
 62141  1  0  0  0
 63 65  1  0  0  0
 63142  1  0  0  0
 63143  1  0  0  0
 63144  1  0  0  0
 64145  1  0  0  0
 65146  1  0  0  0
 68 81  1  0  0  0
 71 72  2  0  0  0
 71 76  1  0  0  0
 71147  1  0  0  0
 72 73  1  0  0  0
 72 82  1  0  0  0
 73 74  2  0  0  0
 73 83  1  0  0  0
 74 75  1  0  0  0
 74 85  1  0  0  0
 75 76  2  0  0  0
 75 84  1  0  0  0
 76 86  1  0  0  0
 77 78  2  0  0  0
 77 79  1  0  0  0
 77 87  1  0  0  0
 78148  1  0  0  0
 78149  1  0  0  0
 79 81  1  0  0  0
 79150  1  0  0  0
 79151  1  0  0  0
 80 81  1  0  0  0
 80 87  1  0  0  0
 80152  1  0  0  0
 80153  1  0  0  0
 81154  1  0  0  0
 82155  1  0  0  0
 82156  1  0  0  0
 82157  1  0  0  0
 83158  1  0  0  0
 83159  1  0  0  0
 83160  1  0  0  0
 84161  1  0  0  0
 84162  1  0  0  0
 84163  1  0  0  0
 85164  1  0  0  0
 85165  1  0  0  0
 85 87  1  0  0  0
 86166  1  0  0  0
 87167  1  0  0  0
M  CHG  1  87   1
M  ISO  4   1 100  68 101  81 101  86 100
M  END
> <chiral flag>
0

> <version>
0

> <s_m_source_file>
/data/baiqing/PycharmProjects/Reinvent-master-3.2/result/LINK_invent/BTK/process_docking_weight1_custom_product_contain_oxygen_bond_distance_aromatic_linkinvent_7_9_3/rearranged_h_0032.sdf

> <i_m_source_file_index>
1

> <r_mmod_Potential_Energy-OPLS-2005>
121.146331787109

> <r_mmod_Stretch_Energy-OPLS-2005>
147.052200317383

> <r_mmod_Bend_Energy-OPLS-2005>
201.772842407227

> <r_mmod_Torsional_Energy-OPLS-2005>
253.922698974609

> <r_mmod_Improper_Torsional_Energy-OPLS-2005>
6.33102035522461

> <r_mmod_Van_der_Waal_Energy-OPLS-2005>
154.045791625977

> <r_mmod_Electrostatic_Energy-OPLS-2005>
-298.922821044922

> <r_mmod_Solvation_Energy-OPLS-2005>
-421.606506347656

> <b_mmod_Minimization_Converged-OPLS-2005>
0

> <r_mmod_RMS_Derivative-OPLS-2005>
7.80868244171143

$$$$
1
                    3D
 Structure written by MMmdl.
170180  0  0  1  0            999 V2000
  -30.5983  -14.6485   20.4966 C   0  0  0  0  0  0
  -30.4428  -12.3929   19.4548 C   0  0  0  0  0  0
  -29.5137  -12.5090   18.2252 C   0  0  0  0  0  0
  -28.0339  -12.3516   18.6305 C   0  0  0  0  0  0
  -27.6556  -13.2144   19.8644 C   0  0  2  0  0  0
  -28.6987  -13.0546   20.9933 C   0  0  0  0  0  0
  -25.2580  -13.8163   20.5678 C   0  0  0  0  0  0
  -24.1845  -13.0434   20.9186 C   0  0  0  0  0  0
  -24.6403  -11.6901   20.8720 C   0  0  0  0  0  0
  -23.9066  -10.4286   21.0382 C   0  0  0  0  0  0
  -24.3617   -9.4212   21.9165 C   0  0  0  0  0  0
  -23.6294   -8.2249   22.0743 C   0  0  0  0  0  0
  -22.4277   -8.0275   21.3542 C   0  0  0  0  0  0
  -21.9911   -9.0244   20.4641 C   0  0  0  0  0  0
  -22.7236  -10.2121   20.3038 C   0  0  0  0  0  0
  -21.6854   -6.0728   22.5283 C   0  0  0  0  0  0
  -21.4020   -6.5628   23.8220 C   0  0  0  0  0  0
  -21.3668   -5.6778   24.9177 C   0  0  0  0  0  0
  -21.6038   -4.3042   24.7221 C   0  0  0  0  0  0
  -21.8822   -3.8138   23.4346 C   0  0  0  0  0  0
  -21.9202   -4.6958   22.3404 C   0  0  0  0  0  0
  -22.7870  -13.5232   21.1849 C   0  0  0  0  0  0
  -22.1664   -4.2142   21.0981 F   0  0  0  0  0  0
  -21.5634   -3.4527   25.7737 F   0  0  0  0  0  0
  -30.0145  -13.4085   20.4380 N   0  0  0  0  0  0
  -26.3006  -12.9340   20.3304 N   0  0  0  0  0  0
  -25.9332  -11.6496   20.5736 N   0  0  0  0  0  0
  -22.0501  -12.8221   22.0397 N   0  0  0  0  0  0
  -25.4292  -15.1886   20.4094 N   0  0  0  0  0  0
  -31.7506  -14.8343   20.0945 O   0  0  0  0  0  0
  -21.6651   -6.8865   21.4241 O   0  0  0  0  0  0
  -22.3556  -14.5532   20.6685 O   0  0  0  0  0  0
  -24.6234  -31.8604   23.2023 C   0  0  0  0  0  0
  -25.9088  -32.4790   23.8344 C   0  0  1  0  0  0
  -27.2361  -27.3402   20.1281 C   0  0  0  0  0  0
  -25.5896  -33.8585   24.2279 N   0  0  0  0  0  0
  -23.4167  -30.4798   21.5452 C   0  0  2  0  0  0
  -24.8669  -28.9276   20.1193 C   0  0  0  0  0  0
  -22.7462  -29.4617   22.4971 C   0  0  0  0  0  0
  -18.0278  -28.1372   22.8491 C   0  0  0  0  0  0
  -24.1483  -36.7305   23.2641 C   0  0  0  0  0  0
  -25.9538  -30.7988   21.3684 C   0  0  0  0  0  0
  -26.0322  -29.4250   20.7155 C   0  0  0  0  0  0
  -27.2223  -28.6454   20.7027 C   0  0  0  0  0  0
  -26.0505  -26.8781   19.5204 C   0  0  0  0  0  0
  -24.8761  -27.6591   19.5126 C   0  0  0  0  0  0
  -23.6322  -29.8047   20.1639 C   0  0  0  0  0  0
  -25.4110  -36.3095   24.0330 C   0  0  1  0  0  0
  -20.5877  -28.3662   23.1301 C   0  0  2  0  0  0
  -20.6762  -26.9389   22.5418 C   0  0  0  0  0  0
  -19.5737  -26.6378   21.5216 C   0  0  0  0  0  0
  -18.1918  -26.7921   22.1629 C   0  0  0  0  0  0
  -19.1529  -28.8839   23.2893 C   0  0  0  0  0  0
  -18.9459  -30.1447   23.8898 C   0  0  0  0  0  0
  -17.6456  -30.6576   24.0564 C   0  0  0  0  0  0
  -25.9041  -34.9455   23.5112 C   0  0  0  0  0  0
  -16.5346  -29.9079   23.6322 C   0  0  0  0  0  0
  -16.7267  -28.6499   23.0342 C   0  0  0  0  0  0
  -26.4494  -31.6570   25.0693 C   0  0  0  0  0  0
  -25.3739  -31.3660   26.1414 C   0  0  0  0  0  0
  -27.0374  -30.3025   24.6083 C   0  0  0  0  0  0
  -27.6042  -32.4294   25.7498 C   0  0  0  0  0  0
  -27.5585  -37.1802   24.8454 C   0  0  0  0  0  0
  -21.4180  -29.3017   22.3705 N   0  0  0  0  0  0
  -26.4301  -37.3779   23.9394 N   0  0  0  0  0  0
  -24.6831  -31.0626   22.0964 N   0  0  0  0  0  0
  -23.4200  -28.8158   23.3039 O   0  0  0  0  0  0
  -28.3798  -26.5392   20.0988 O   0  0  0  0  0  0
  -26.5629  -34.8918   22.4687 O   0  0  0  0  0  0
  -23.5405  -32.1396   23.7370 O   0  0  0  0  0  0
  -30.4756  -19.2368   19.5928 C   0  0  0  0  0  0
  -30.6630  -17.8460   19.8692 C   0  0  0  0  0  0
  -28.6418  -17.8671   21.1693 C   0  0  0  0  0  0
  -29.3544  -19.9768   20.0678 C   0  0  0  0  0  0
  -29.7305  -17.1112   20.6491 C   0  0  0  0  0  0
  -28.4478  -19.2541   20.8861 C   0  0  0  0  0  0
  -30.5691  -25.0147   24.5995 C   0  0  0  0  0  0
  -30.3391  -26.3820   23.9427 C   0  0  0  0  0  0
  -30.8166  -23.9275   23.5428 C   0  0  0  0  0  0
  -29.2048  -26.3197   22.9084 C   0  0  0  0  0  0
  -29.9689  -22.7480   21.4646 C   0  0  0  0  0  0
  -28.6069  -23.9600   19.7900 C   0  0  0  0  0  0
  -29.6812  -23.8613   22.4979 C   0  0  2  0  0  0
  -29.4712  -25.2469   21.8252 C   0  0  1  0  0  0
  -28.3582  -25.2096   20.7434 C   0  0  1  0  0  0
  -29.0643  -21.4395   19.5402 C   0  0  0  0  0  0
  -29.7735  -15.6661   20.9059 N   0  0  0  0  0  0
  -28.8711  -22.6202   20.4798 N   0  3  1  0  0  0
  -27.0522  -20.0529   21.5187 Cl  0  0  0  0  0  0
  -31.4838  -12.5245   19.1546 H   0  0  0  0  0  0
  -30.3807  -11.3932   19.8890 H   0  0  0  0  0  0
  -29.7767  -11.7544   17.4823 H   0  0  0  0  0  0
  -29.6628  -13.4769   17.7428 H   0  0  0  0  0  0
  -27.8620  -11.2972   18.8505 H   0  0  0  0  0  0
  -27.3858  -12.5936   17.7880 H   0  0  0  0  0  0
  -27.6773  -14.2524   19.5329 H   0  0  0  0  0  0
  -28.7131  -12.0266   21.3573 H   0  0  0  0  0  0
  -28.4401  -13.6685   21.8571 H   0  0  0  0  0  0
  -25.2756   -9.5703   22.4739 H   0  0  0  0  0  0
  -24.0011   -7.4648   22.7461 H   0  0  0  0  0  0
  -21.0843   -8.8743   19.8953 H   0  0  0  0  0  0
  -22.3674  -10.9648   19.6145 H   0  0  0  0  0  0
  -21.2003   -7.6135   23.9717 H   0  0  0  0  0  0
  -21.1491   -6.0508   25.9078 H   0  0  0  0  0  0
  -22.0597   -2.7602   23.2850 H   0  0  0  0  0  0
  -22.4116  -11.9888   22.4804 H   0  0  0  0  0  0
  -21.1112  -13.1242   22.2565 H   0  0  0  0  0  0
  -24.6570  -15.8371   20.5137 H   0  0  0  0  0  0
  -26.2695  -15.6284   20.0570 H   0  0  0  0  0  0
  -26.7150  -32.5489   23.1097 H   0  0  0  0  0  0
  -24.9983  -33.9720   25.0388 H   0  0  0  0  0  0
  -22.7084  -31.2983   21.3991 H   0  0  0  0  0  0
  -23.3747  -35.9636   23.3308 H   0  0  0  0  0  0
  -24.3571  -36.8934   22.2054 H   0  0  0  0  0  0
  -23.7235  -37.6506   23.6664 H   0  0  0  0  0  0
  -26.0781  -31.5621   20.5992 H   0  0  0  0  0  0
  -26.8370  -30.8528   21.9939 H   0  0  0  0  0  0
  -28.1236  -29.0348   21.1549 H   0  0  0  0  0  0
  -26.0325  -25.9080   19.0442 H   0  0  0  0  0  0
  -23.9825  -27.2726   19.0423 H   0  0  0  0  0  0
  -23.7490  -30.5756   19.4015 H   0  0  0  0  0  0
  -22.7542  -29.2282   19.8679 H   0  0  0  0  0  0
  -25.1293  -36.1957   25.0827 H   0  0  0  0  0  0
  -20.9960  -28.3220   24.1426 H   0  0  0  0  0  0
  -20.5651  -26.2266   23.3610 H   0  0  0  0  0  0
  -21.6629  -26.7412   22.1212 H   0  0  0  0  0  0
  -19.6887  -25.6295   21.1232 H   0  0  0  0  0  0
  -19.6676  -27.3201   20.6753 H   0  0  0  0  0  0
  -17.4190  -26.6676   21.4028 H   0  0  0  0  0  0
  -18.0307  -26.0064   22.9023 H   0  0  0  0  0  0
  -19.7934  -30.7266   24.2262 H   0  0  0  0  0  0
  -17.5009  -31.6252   24.5169 H   0  0  0  0  0  0
  -15.5346  -30.2980   23.7642 H   0  0  0  0  0  0
  -15.8671  -28.0825   22.7037 H   0  0  0  0  0  0
  -24.5886  -30.7060   25.7711 H   0  0  0  0  0  0
  -24.8966  -32.2825   26.4898 H   0  0  0  0  0  0
  -25.8055  -30.8755   27.0154 H   0  0  0  0  0  0
  -26.2994  -29.6809   24.1000 H   0  0  0  0  0  0
  -27.4028  -29.7203   25.4551 H   0  0  0  0  0  0
  -27.8860  -30.4392   23.9378 H   0  0  0  0  0  0
  -27.2624  -33.3569   26.2102 H   0  0  0  0  0  0
  -28.3876  -32.6890   25.0367 H   0  0  0  0  0  0
  -28.0672  -31.8385   26.5418 H   0  0  0  0  0  0
  -28.2607  -38.0096   24.7509 H   0  0  0  0  0  0
  -28.1081  -36.2630   24.6279 H   0  0  0  0  0  0
  -27.2296  -37.1446   25.8855 H   0  0  0  0  0  0
  -20.9351  -29.8741   21.6926 H   0  0  0  0  0  0
  -26.0196  -38.2861   24.1389 H   0  0  0  0  0  0
  -31.1917  -19.7254   18.9450 H   0  0  0  0  0  0
  -31.5175  -17.3457   19.4350 H   0  0  0  0  0  0
  -27.9019  -17.3706   21.7800 H   0  0  0  0  0  0
  -29.7040  -24.7483   25.2083 H   0  0  0  0  0  0
  -31.4203  -25.0692   25.2804 H   0  0  0  0  0  0
  -31.2581  -26.7149   23.4589 H   0  0  0  0  0  0
  -30.1078  -27.1270   24.7057 H   0  0  0  0  0  0
  -30.9254  -22.9624   24.0392 H   0  0  0  0  0  0
  -31.7680  -24.1191   23.0434 H   0  0  0  0  0  0
  -29.1004  -27.3028   22.4518 H   0  0  0  0  0  0
  -28.2584  -26.1161   23.4122 H   0  0  0  0  0  0
  -30.0954  -21.7981   21.9850 H   0  0  0  0  0  0
  -30.9083  -22.9443   20.9425 H   0  0  0  0  0  0
  -29.4596  -24.1822   19.1475 H   0  0  0  0  0  0
  -27.7508  -23.8535   19.1238 H   0  0  0  0  0  0
  -28.7633  -23.5960   23.0252 H   0  0  0  0  0  0
  -30.3994  -25.5126   21.3167 H   0  0  0  0  0  0
  -27.3996  -25.0640   21.2450 H   0  0  0  0  0  0
  -28.1719  -21.3699   18.9174 H   0  0  0  0  0  0
  -29.8660  -21.7052   18.8501 H   0  0  0  0  0  0
  -28.9287  -15.3044   21.3221 H   0  0  0  0  0  0
  -28.0418  -22.3901   21.0106 H   0  0  0  0  0  0
  1 25  1  0  0  0
  1 30  2  0  0  0
  1 87  1  0  0  0
  2  3  1  0  0  0
  2 25  1  0  0  0
  2 90  1  0  0  0
  2 91  1  0  0  0
  3  4  1  0  0  0
  3 92  1  0  0  0
  3 93  1  0  0  0
  4  5  1  0  0  0
  4 94  1  0  0  0
  4 95  1  0  0  0
  5  6  1  0  0  0
  5 26  1  0  0  0
  5 96  1  0  0  0
  6 25  1  0  0  0
  6 97  1  0  0  0
  6 98  1  0  0  0
  7  8  2  0  0  0
  7 26  1  0  0  0
  7 29  1  0  0  0
  8  9  1  0  0  0
  8 22  1  0  0  0
  9 10  1  0  0  0
  9 27  2  0  0  0
 10 11  2  0  0  0
 10 15  1  0  0  0
 11 12  1  0  0  0
 11 99  1  0  0  0
 12 13  2  0  0  0
 12100  1  0  0  0
 13 14  1  0  0  0
 13 31  1  0  0  0
 14 15  2  0  0  0
 14101  1  0  0  0
 15102  1  0  0  0
 16 17  2  0  0  0
 16 21  1  0  0  0
 16 31  1  0  0  0
 17 18  1  0  0  0
 17103  1  0  0  0
 18 19  2  0  0  0
 18104  1  0  0  0
 19 20  1  0  0  0
 19 24  1  0  0  0
 20 21  2  0  0  0
 20105  1  0  0  0
 21 23  1  0  0  0
 22 28  1  0  0  0
 22 32  2  0  0  0
 26 27  1  0  0  0
 28106  1  0  0  0
 28107  1  0  0  0
 29108  1  0  0  0
 29109  1  0  0  0
 33 34  1  0  0  0
 33 66  1  0  0  0
 33 70  2  0  0  0
 34 36  1  0  0  0
 34 59  1  0  0  0
 34110  1  0  0  0
 35 44  2  0  0  0
 35 45  1  0  0  0
 35 68  1  0  0  0
 36 56  1  0  0  0
 36111  1  0  0  0
 37 39  1  0  0  0
 37 47  1  0  0  0
 37 66  1  0  0  0
 37112  1  0  0  0
 38 43  2  0  0  0
 38 46  1  0  0  0
 38 47  1  0  0  0
 39 64  1  0  0  0
 39 67  2  0  0  0
 40 52  1  0  0  0
 40 53  2  0  0  0
 40 58  1  0  0  0
 41113  1  0  0  0
 41114  1  0  0  0
 41115  1  0  0  0
 41 48  1  0  0  0
 42 43  1  0  0  0
 42 66  1  0  0  0
 42116  1  0  0  0
 42117  1  0  0  0
 43 44  1  0  0  0
 44118  1  0  0  0
 45 46  2  0  0  0
 45119  1  0  0  0
 46120  1  0  0  0
 47121  1  0  0  0
 47122  1  0  0  0
 48 56  1  0  0  0
 48 65  1  0  0  0
 48123  1  0  0  0
 49 50  1  0  0  0
 49 53  1  0  0  0
 49 64  1  0  0  0
 49124  1  0  0  0
 50 51  1  0  0  0
 50125  1  0  0  0
 50126  1  0  0  0
 51 52  1  0  0  0
 51127  1  0  0  0
 51128  1  0  0  0
 52129  1  0  0  0
 52130  1  0  0  0
 53 54  1  0  0  0
 54 55  2  0  0  0
 54131  1  0  0  0
 55 57  1  0  0  0
 55132  1  0  0  0
 56 69  2  0  0  0
 57 58  2  0  0  0
 57133  1  0  0  0
 58134  1  0  0  0
 59 60  1  0  0  0
 59 61  1  0  0  0
 59 62  1  0  0  0
 60135  1  0  0  0
 60136  1  0  0  0
 60137  1  0  0  0
 61138  1  0  0  0
 61139  1  0  0  0
 61140  1  0  0  0
 62141  1  0  0  0
 62142  1  0  0  0
 62143  1  0  0  0
 63 65  1  0  0  0
 63144  1  0  0  0
 63145  1  0  0  0
 63146  1  0  0  0
 64147  1  0  0  0
 65148  1  0  0  0
 68 85  1  0  0  0
 71 72  2  0  0  0
 71 74  1  0  0  0
 71149  1  0  0  0
 72 75  1  0  0  0
 72150  1  0  0  0
 73 75  2  0  0  0
 73 76  1  0  0  0
 73151  1  0  0  0
 74 76  2  0  0  0
 74 86  1  0  0  0
 75 87  1  0  0  0
 76 89  1  0  0  0
 77 78  1  0  0  0
 77 79  1  0  0  0
 77152  1  0  0  0
 77153  1  0  0  0
 78 80  1  0  0  0
 78154  1  0  0  0
 78155  1  0  0  0
 79156  1  0  0  0
 79157  1  0  0  0
 79 83  1  0  0  0
 80158  1  0  0  0
 80159  1  0  0  0
 80 84  1  0  0  0
 81 83  1  0  0  0
 81 88  1  0  0  0
 81160  1  0  0  0
 81161  1  0  0  0
 82 85  1  0  0  0
 82 88  1  0  0  0
 82162  1  0  0  0
 82163  1  0  0  0
 83 84  1  0  0  0
 83164  1  0  0  0
 84 85  1  0  0  0
 84165  1  0  0  0
 85166  1  0  0  0
 86167  1  0  0  0
 86168  1  0  0  0
 86 88  1  0  0  0
 87169  1  0  0  0
 88170  1  0  0  0
M  CHG  1  88   1
M  ISO  4   1 100  68 101  85 101  87 100
M  END
> <chiral flag>
0

> <version>
0

> <s_m_source_file>
/data/baiqing/PycharmProjects/Reinvent-master-3.2/result/LINK_invent/BTK/process_docking_weight1_custom_product_contain_oxygen_bond_distance_aromatic_linkinvent_7_9_3/rearranged_h_0032.sdf

> <i_m_source_file_index>
2

> <r_mmod_Potential_Energy-OPLS-2005>
37.9789924621582

> <r_mmod_Stretch_Energy-OPLS-2005>
81.3723831176758

> <r_mmod_Bend_Energy-OPLS-2005>
144.718215942383

> <r_mmod_Torsional_Energy-OPLS-2005>
281.073699951172

> <r_mmod_Improper_Torsional_Energy-OPLS-2005>
4.71040964126587

> <r_mmod_Van_der_Waal_Energy-OPLS-2005>
133.165298461914

> <r_mmod_Electrostatic_Energy-OPLS-2005>
-235.068450927734

> <r_mmod_Solvation_Energy-OPLS-2005>
-414.912200927734

> <b_mmod_Minimization_Converged-OPLS-2005>
0

> <r_mmod_RMS_Derivative-OPLS-2005>
1.60574460029602

$$$$
2
                    3D
 Structure written by MMmdl.
162170  0  0  1  0            999 V2000
  -30.7288  -14.5136   20.6158 C   0  0  0  0  0  0
  -30.4189  -12.3511   19.4431 C   0  0  0  0  0  0
  -29.4960  -12.5212   18.2166 C   0  0  0  0  0  0
  -28.0156  -12.3715   18.6171 C   0  0  0  0  0  0
  -27.6592  -13.2022   19.8771 C   0  0  2  0  0  0
  -28.6973  -12.9568   20.9905 C   0  0  0  0  0  0
  -25.2616  -13.8143   20.5707 C   0  0  0  0  0  0
  -24.1851  -13.0420   20.9186 C   0  0  0  0  0  0
  -24.6392  -11.6886   20.8752 C   0  0  0  0  0  0
  -23.9063  -10.4276   21.0417 C   0  0  0  0  0  0
  -24.3621   -9.4192   21.9193 C   0  0  0  0  0  0
  -23.6295   -8.2224   22.0763 C   0  0  0  0  0  0
  -22.4266   -8.0280   21.3561 C   0  0  0  0  0  0
  -21.9908   -9.0252   20.4649 C   0  0  0  0  0  0
  -22.7242  -10.2126   20.3060 C   0  0  0  0  0  0
  -21.6847   -6.0744   22.5285 C   0  0  0  0  0  0
  -21.4010   -6.5655   23.8216 C   0  0  0  0  0  0
  -21.3651   -5.6807   24.9185 C   0  0  0  0  0  0
  -21.6033   -4.3070   24.7237 C   0  0  0  0  0  0
  -21.8814   -3.8157   23.4366 C   0  0  0  0  0  0
  -21.9193   -4.6970   22.3420 C   0  0  0  0  0  0
  -22.7892  -13.5246   21.1854 C   0  0  0  0  0  0
  -22.1665   -4.2160   21.1000 F   0  0  0  0  0  0
  -21.5619   -3.4553   25.7753 F   0  0  0  0  0  0
  -30.0169  -13.3462   20.4629 N   0  0  0  0  0  0
  -26.3019  -12.9297   20.3364 N   0  0  0  0  0  0
  -25.9302  -11.6452   20.5735 N   0  0  0  0  0  0
  -22.0520  -12.8229   22.0393 N   0  0  0  0  0  0
  -25.4348  -15.1854   20.4202 N   0  0  0  0  0  0
  -31.8474  -14.6099   20.0984 O   0  0  0  0  0  0
  -21.6629   -6.8880   21.4246 O   0  0  0  0  0  0
  -22.3577  -14.5547   20.6691 O   0  0  0  0  0  0
  -24.6176  -31.8639   23.2068 C   0  0  0  0  0  0
  -25.9047  -32.4806   23.8370 C   0  0  1  0  0  0
  -27.2460  -27.4106   20.0723 C   0  0  0  0  0  0
  -25.5902  -33.8608   24.2312 N   0  0  0  0  0  0
  -23.4070  -30.4881   21.5476 C   0  0  2  0  0  0
  -24.8529  -28.9536   20.1074 C   0  0  0  0  0  0
  -22.7421  -29.4638   22.4962 C   0  0  0  0  0  0
  -18.0278  -28.1369   22.8492 C   0  0  0  0  0  0
  -24.1484  -36.7299   23.2640 C   0  0  0  0  0  0
  -25.9396  -30.8225   21.3631 C   0  0  0  0  0  0
  -26.0143  -29.4573   20.7019 C   0  0  0  0  0  0
  -27.2064  -28.6920   20.6818 C   0  0  0  0  0  0
  -26.0488  -26.9160   19.5089 C   0  0  0  0  0  0
  -24.8674  -27.6826   19.5074 C   0  0  0  0  0  0
  -23.6141  -29.8209   20.1619 C   0  0  0  0  0  0
  -25.4108  -36.3099   24.0340 C   0  0  1  0  0  0
  -20.5863  -28.3669   23.1314 C   0  0  2  0  0  0
  -20.6766  -26.9404   22.5420 C   0  0  0  0  0  0
  -19.5745  -26.6384   21.5211 C   0  0  0  0  0  0
  -18.1922  -26.7919   22.1621 C   0  0  0  0  0  0
  -19.1523  -28.8832   23.2900 C   0  0  0  0  0  0
  -18.9454  -30.1432   23.8919 C   0  0  0  0  0  0
  -17.6452  -30.6578   24.0563 C   0  0  0  0  0  0
  -25.9037  -34.9464   23.5119 C   0  0  0  0  0  0
  -16.5343  -29.9083   23.6312 C   0  0  0  0  0  0
  -16.7265  -28.6496   23.0351 C   0  0  0  0  0  0
  -26.4481  -31.6589   25.0705 C   0  0  0  0  0  0
  -25.3753  -31.3692   26.1458 C   0  0  0  0  0  0
  -27.0324  -30.3032   24.6100 C   0  0  0  0  0  0
  -27.6052  -32.4322   25.7473 C   0  0  0  0  0  0
  -27.5584  -37.1798   24.8465 C   0  0  0  0  0  0
  -21.4142  -29.3027   22.3716 N   0  0  0  0  0  0
  -26.4291  -37.3794   23.9408 N   0  0  0  0  0  0
  -24.6733  -31.0727   22.0973 N   0  0  0  0  0  0
  -23.4184  -28.8179   23.3012 O   0  0  0  0  0  0
  -28.4312  -26.6910   20.1557 O   0  0  0  0  0  0
  -26.5606  -34.8924   22.4689 O   0  0  0  0  0  0
  -23.5361  -32.1414   23.7445 O   0  0  0  0  0  0
  -30.1490  -19.4570   20.5715 C   0  0  0  0  0  0
  -28.4657  -20.2072   18.9879 C   0  0  0  0  0  0
  -29.4672  -20.5270   19.9325 C   0  0  0  0  0  0
  -29.8675  -18.0964   20.2741 C   0  0  0  0  0  0
  -28.8563  -17.8071   19.3291 C   0  0  0  0  0  0
  -28.1595  -18.8606   18.6960 C   0  0  0  0  0  0
  -28.1254  -25.2478   17.9864 C   0  0  0  0  0  0
  -29.2077  -15.6999   22.2659 C   0  0  0  0  0  0
  -30.7446  -16.9964   20.9015 C   0  0  0  0  0  0
  -29.9018  -21.9790   20.2350 C   0  0  0  0  0  0
  -29.5688  -24.4616   20.0285 C   0  0  0  0  0  0
  -28.9037  -25.6524   19.2540 C   0  0  2  0  0  0
  -30.1431  -15.6481   21.1352 N   0  0  0  0  0  0
  -28.9994  -23.0907   19.8036 N   0  3  0  0  0  0
  -28.5733  -16.5231   18.9986 F   0  0  0  0  0  0
  -26.9384  -18.5006   17.5273 Cl  0  0  0  0  0  0
  -31.4648  -12.4387   19.1457 H   0  0  0  0  0  0
  -30.3318  -11.3408   19.8496 H   0  0  0  0  0  0
  -29.7523  -11.7905   17.4483 H   0  0  0  0  0  0
  -29.6523  -13.5061   17.7734 H   0  0  0  0  0  0
  -27.8279  -11.3138   18.8084 H   0  0  0  0  0  0
  -27.3646  -12.6466   17.7858 H   0  0  0  0  0  0
  -27.7070  -14.2535   19.5972 H   0  0  0  0  0  0
  -28.7091  -11.8983   21.2505 H   0  0  0  0  0  0
  -28.4044  -13.4235   21.9209 H   0  0  0  0  0  0
  -25.2765   -9.5679   22.4771 H   0  0  0  0  0  0
  -24.0013   -7.4628   22.7492 H   0  0  0  0  0  0
  -21.0831   -8.8792   19.8965 H   0  0  0  0  0  0
  -22.3720  -10.9682   19.6175 H   0  0  0  0  0  0
  -21.2003   -7.6159   23.9742 H   0  0  0  0  0  0
  -21.1466   -6.0532   25.9092 H   0  0  0  0  0  0
  -22.0594   -2.7620   23.2868 H   0  0  0  0  0  0
  -22.4153  -11.9911   22.4795 H   0  0  0  0  0  0
  -21.1137  -13.1254   22.2580 H   0  0  0  0  0  0
  -24.6690  -15.8360   20.5534 H   0  0  0  0  0  0
  -26.2829  -15.6270   20.0880 H   0  0  0  0  0  0
  -26.7122  -32.5504   23.1130 H   0  0  0  0  0  0
  -25.0046  -33.9765   25.0458 H   0  0  0  0  0  0
  -22.6976  -31.3055   21.4079 H   0  0  0  0  0  0
  -23.3753  -35.9620   23.3295 H   0  0  0  0  0  0
  -24.3587  -36.8925   22.2055 H   0  0  0  0  0  0
  -23.7219  -37.6497   23.6665 H   0  0  0  0  0  0
  -26.0601  -31.5919   20.5990 H   0  0  0  0  0  0
  -26.8246  -30.8698   21.9863 H   0  0  0  0  0  0
  -28.1016  -29.0816   21.1469 H   0  0  0  0  0  0
  -25.9761  -25.9262   19.0993 H   0  0  0  0  0  0
  -23.9677  -27.2779   19.0635 H   0  0  0  0  0  0
  -23.7191  -30.5957   19.4023 H   0  0  0  0  0  0
  -22.7394  -29.2382   19.8679 H   0  0  0  0  0  0
  -25.1280  -36.1961   25.0838 H   0  0  0  0  0  0
  -20.9975  -28.3228   24.1421 H   0  0  0  0  0  0
  -20.5667  -26.2263   23.3602 H   0  0  0  0  0  0
  -21.6635  -26.7428   22.1203 H   0  0  0  0  0  0
  -19.6901  -25.6301   21.1220 H   0  0  0  0  0  0
  -19.6681  -27.3209   20.6755 H   0  0  0  0  0  0
  -17.4191  -26.6671   21.4026 H   0  0  0  0  0  0
  -18.0318  -26.0058   22.9017 H   0  0  0  0  0  0
  -19.7931  -30.7246   24.2304 H   0  0  0  0  0  0
  -17.5010  -31.6270   24.5153 H   0  0  0  0  0  0
  -15.5345  -30.2997   23.7628 H   0  0  0  0  0  0
  -15.8666  -28.0828   22.7052 H   0  0  0  0  0  0
  -24.5911  -30.7069   25.7786 H   0  0  0  0  0  0
  -24.8972  -32.2845   26.4950 H   0  0  0  0  0  0
  -25.8106  -30.8819   27.0188 H   0  0  0  0  0  0
  -26.2871  -29.6782   24.1175 H   0  0  0  0  0  0
  -27.4112  -29.7287   25.4560 H   0  0  0  0  0  0
  -27.8694  -30.4353   23.9244 H   0  0  0  0  0  0
  -27.2663  -33.3609   26.2081 H   0  0  0  0  0  0
  -28.3843  -32.6909   25.0288 H   0  0  0  0  0  0
  -28.0747  -31.8432   26.5366 H   0  0  0  0  0  0
  -28.2583  -38.0116   24.7540 H   0  0  0  0  0  0
  -28.1096  -36.2643   24.6249 H   0  0  0  0  0  0
  -27.2304  -37.1399   25.8872 H   0  0  0  0  0  0
  -20.9299  -29.8769   21.6961 H   0  0  0  0  0  0
  -26.0171  -38.2865   24.1439 H   0  0  0  0  0  0
  -30.9375  -19.6841   21.2775 H   0  0  0  0  0  0
  -27.9298  -20.9776   18.4546 H   0  0  0  0  0  0
  -28.7857  -24.7206   17.2976 H   0  0  0  0  0  0
  -27.7558  -26.1210   17.4504 H   0  0  0  0  0  0
  -27.2919  -24.5799   18.1933 H   0  0  0  0  0  0
  -29.2314  -16.6587   22.7861 H   0  0  0  0  0  0
  -29.4494  -14.9492   23.0185 H   0  0  0  0  0  0
  -28.1820  -15.5712   21.9182 H   0  0  0  0  0  0
  -31.1322  -17.3639   21.8553 H   0  0  0  0  0  0
  -31.6313  -16.9530   20.2674 H   0  0  0  0  0  0
  -30.8807  -22.1122   19.7695 H   0  0  0  0  0  0
  -30.0624  -22.0675   21.3109 H   0  0  0  0  0  0
  -29.5881  -24.6782   21.0981 H   0  0  0  0  0  0
  -30.6175  -24.4278   19.7242 H   0  0  0  0  0  0
  -29.7580  -26.1835   18.8327 H   0  0  0  0  0  0
  -28.1246  -23.0043   20.2988 H   0  0  0  0  0  0
  -28.8206  -22.9801   18.8188 H   0  0  0  0  0  0
  1 25  1  0  0  0
  1 30  2  0  0  0
  1 83  1  0  0  0
  2  3  1  0  0  0
  2 25  1  0  0  0
  2 87  1  0  0  0
  2 88  1  0  0  0
  3  4  1  0  0  0
  3 89  1  0  0  0
  3 90  1  0  0  0
  4  5  1  0  0  0
  4 91  1  0  0  0
  4 92  1  0  0  0
  5  6  1  0  0  0
  5 26  1  0  0  0
  5 93  1  0  0  0
  6 25  1  0  0  0
  6 94  1  0  0  0
  6 95  1  0  0  0
  7  8  2  0  0  0
  7 26  1  0  0  0
  7 29  1  0  0  0
  8  9  1  0  0  0
  8 22  1  0  0  0
  9 10  1  0  0  0
  9 27  2  0  0  0
 10 11  2  0  0  0
 10 15  1  0  0  0
 11 12  1  0  0  0
 11 96  1  0  0  0
 12 13  2  0  0  0
 12 97  1  0  0  0
 13 14  1  0  0  0
 13 31  1  0  0  0
 14 15  2  0  0  0
 14 98  1  0  0  0
 15 99  1  0  0  0
 16 17  2  0  0  0
 16 21  1  0  0  0
 16 31  1  0  0  0
 17 18  1  0  0  0
 17100  1  0  0  0
 18 19  2  0  0  0
 18101  1  0  0  0
 19 20  1  0  0  0
 19 24  1  0  0  0
 20 21  2  0  0  0
 20102  1  0  0  0
 21 23  1  0  0  0
 22 28  1  0  0  0
 22 32  2  0  0  0
 26 27  1  0  0  0
 28103  1  0  0  0
 28104  1  0  0  0
 29105  1  0  0  0
 29106  1  0  0  0
 33 34  1  0  0  0
 33 66  1  0  0  0
 33 70  2  0  0  0
 34 36  1  0  0  0
 34 59  1  0  0  0
 34107  1  0  0  0
 35 44  2  0  0  0
 35 45  1  0  0  0
 35 68  1  0  0  0
 36 56  1  0  0  0
 36108  1  0  0  0
 37 39  1  0  0  0
 37 47  1  0  0  0
 37 66  1  0  0  0
 37109  1  0  0  0
 38 43  2  0  0  0
 38 46  1  0  0  0
 38 47  1  0  0  0
 39 64  1  0  0  0
 39 67  2  0  0  0
 40 52  1  0  0  0
 40 53  2  0  0  0
 40 58  1  0  0  0
 41110  1  0  0  0
 41111  1  0  0  0
 41112  1  0  0  0
 41 48  1  0  0  0
 42 43  1  0  0  0
 42 66  1  0  0  0
 42113  1  0  0  0
 42114  1  0  0  0
 43 44  1  0  0  0
 44115  1  0  0  0
 45 46  2  0  0  0
 45116  1  0  0  0
 46117  1  0  0  0
 47118  1  0  0  0
 47119  1  0  0  0
 48 56  1  0  0  0
 48 65  1  0  0  0
 48120  1  0  0  0
 49 50  1  0  0  0
 49 53  1  0  0  0
 49 64  1  0  0  0
 49121  1  0  0  0
 50 51  1  0  0  0
 50122  1  0  0  0
 50123  1  0  0  0
 51 52  1  0  0  0
 51124  1  0  0  0
 51125  1  0  0  0
 52126  1  0  0  0
 52127  1  0  0  0
 53 54  1  0  0  0
 54 55  2  0  0  0
 54128  1  0  0  0
 55 57  1  0  0  0
 55129  1  0  0  0
 56 69  2  0  0  0
 57 58  2  0  0  0
 57130  1  0  0  0
 58131  1  0  0  0
 59 60  1  0  0  0
 59 61  1  0  0  0
 59 62  1  0  0  0
 60132  1  0  0  0
 60133  1  0  0  0
 60134  1  0  0  0
 61135  1  0  0  0
 61136  1  0  0  0
 61137  1  0  0  0
 62138  1  0  0  0
 62139  1  0  0  0
 62140  1  0  0  0
 63 65  1  0  0  0
 63141  1  0  0  0
 63142  1  0  0  0
 63143  1  0  0  0
 64144  1  0  0  0
 65145  1  0  0  0
 68 82  1  0  0  0
 71 73  2  0  0  0
 71 74  1  0  0  0
 71146  1  0  0  0
 72 73  1  0  0  0
 72 76  2  0  0  0
 72147  1  0  0  0
 73 80  1  0  0  0
 74 75  2  0  0  0
 74 79  1  0  0  0
 75 76  1  0  0  0
 75 85  1  0  0  0
 76 86  1  0  0  0
 77148  1  0  0  0
 77149  1  0  0  0
 77150  1  0  0  0
 77 82  1  0  0  0
 78 83  1  0  0  0
 78151  1  0  0  0
 78152  1  0  0  0
 78153  1  0  0  0
 79 83  1  0  0  0
 79154  1  0  0  0
 79155  1  0  0  0
 80 84  1  0  0  0
 80156  1  0  0  0
 80157  1  0  0  0
 81 82  1  0  0  0
 81 84  1  0  0  0
 81158  1  0  0  0
 81159  1  0  0  0
 82160  1  0  0  0
 84161  1  0  0  0
 84162  1  0  0  0
M  CHG  1  84   1
M  ISO  4   1 100  68 101  82 101  83 100
M  END
> <chiral flag>
0

> <version>
0

> <s_m_source_file>
/data/baiqing/PycharmProjects/Reinvent-master-3.2/result/LINK_invent/BTK/process_docking_weight1_custom_product_contain_oxygen_bond_distance_aromatic_linkinvent_7_9_3/rearranged_h_0032.sdf

> <i_m_source_file_index>
3

> <r_mmod_Potential_Energy-OPLS-2005>
15.7778387069702

> <r_mmod_Stretch_Energy-OPLS-2005>
54.2730827331543

> <r_mmod_Bend_Energy-OPLS-2005>
177.276443481445

> <r_mmod_Torsional_Energy-OPLS-2005>
260.513946533203

> <r_mmod_Improper_Torsional_Energy-OPLS-2005>
6.48507738113403

> <r_mmod_Van_der_Waal_Energy-OPLS-2005>
164.493637084961

> <r_mmod_Electrostatic_Energy-OPLS-2005>
-208.882247924805

> <r_mmod_Solvation_Energy-OPLS-2005>
-456.722503662109

> <b_mmod_Minimization_Converged-OPLS-2005>
0

> <r_mmod_RMS_Derivative-OPLS-2005>
3.05933856964111

$$$$
3
                    3D
 Structure written by MMmdl.
159168  0  0  1  0            999 V2000
  -30.6496  -14.6995   20.4569 C   0  0  0  0  0  0
  -30.4209  -12.4256   19.4735 C   0  0  0  0  0  0
  -29.5048  -12.4992   18.2337 C   0  0  0  0  0  0
  -28.0302  -12.3344   18.6470 C   0  0  0  0  0  0
  -27.6413  -13.2338   19.8515 C   0  0  2  0  0  0
  -28.6857  -13.1686   20.9876 C   0  0  0  0  0  0
  -25.2503  -13.8206   20.5701 C   0  0  0  0  0  0
  -24.1798  -13.0445   20.9208 C   0  0  0  0  0  0
  -24.6394  -11.6924   20.8751 C   0  0  0  0  0  0
  -23.9073  -10.4297   21.0409 C   0  0  0  0  0  0
  -24.3624   -9.4210   21.9186 C   0  0  0  0  0  0
  -23.6298   -8.2246   22.0754 C   0  0  0  0  0  0
  -22.4280   -8.0283   21.3544 C   0  0  0  0  0  0
  -21.9917   -9.0258   20.4647 C   0  0  0  0  0  0
  -22.7247  -10.2137   20.3057 C   0  0  0  0  0  0
  -21.6855   -6.0737   22.5279 C   0  0  0  0  0  0
  -21.4015   -6.5641   23.8212 C   0  0  0  0  0  0
  -21.3658   -5.6794   24.9173 C   0  0  0  0  0  0
  -21.6043   -4.3056   24.7224 C   0  0  0  0  0  0
  -21.8819   -3.8149   23.4346 C   0  0  0  0  0  0
  -21.9194   -4.6966   22.3402 C   0  0  0  0  0  0
  -22.7818  -13.5222   21.1867 C   0  0  0  0  0  0
  -22.1662   -4.2152   21.0979 F   0  0  0  0  0  0
  -21.5628   -3.4540   25.7737 F   0  0  0  0  0  0
  -29.9905  -13.4950   20.4025 N   0  0  0  0  0  0
  -26.2935  -12.9421   20.3297 N   0  0  0  0  0  0
  -25.9325  -11.6559   20.5764 N   0  0  0  0  0  0
  -22.0469  -12.8208   22.0423 N   0  0  0  0  0  0
  -25.4183  -15.1931   20.4116 N   0  0  0  0  0  0
  -31.8403  -14.7599   20.1412 O   0  0  0  0  0  0
  -21.6642   -6.8882   21.4241 O   0  0  0  0  0  0
  -22.3499  -14.5527   20.6715 O   0  0  0  0  0  0
  -24.6296  -31.8570   23.1998 C   0  0  0  0  0  0
  -25.9131  -32.4762   23.8338 C   0  0  1  0  0  0
  -27.2146  -27.2860   20.1279 C   0  0  0  0  0  0
  -25.5936  -33.8564   24.2264 N   0  0  0  0  0  0
  -23.4246  -30.4807   21.5429 C   0  0  2  0  0  0
  -24.8710  -28.9324   20.1074 C   0  0  0  0  0  0
  -22.7492  -29.4614   22.4917 C   0  0  0  0  0  0
  -18.0291  -28.1386   22.8487 C   0  0  0  0  0  0
  -24.1488  -36.7280   23.2637 C   0  0  0  0  0  0
  -25.9685  -30.7787   21.3751 C   0  0  0  0  0  0
  -26.0420  -29.4042   20.7151 C   0  0  0  0  0  0
  -27.2203  -28.5941   20.7119 C   0  0  0  0  0  0
  -26.0260  -26.8786   19.4844 C   0  0  0  0  0  0
  -24.8670  -27.6774   19.4796 C   0  0  0  0  0  0
  -23.6405  -29.8163   20.1578 C   0  0  0  0  0  0
  -25.4113  -36.3070   24.0328 C   0  0  1  0  0  0
  -20.5894  -28.3697   23.1272 C   0  0  2  0  0  0
  -20.6779  -26.9416   22.5408 C   0  0  0  0  0  0
  -19.5754  -26.6385   21.5213 C   0  0  0  0  0  0
  -18.1933  -26.7930   22.1623 C   0  0  0  0  0  0
  -19.1544  -28.8859   23.2875 C   0  0  0  0  0  0
  -18.9466  -30.1459   23.8894 C   0  0  0  0  0  0
  -17.6465  -30.6589   24.0564 C   0  0  0  0  0  0
  -25.9058  -34.9443   23.5097 C   0  0  0  0  0  0
  -16.5356  -29.9086   23.6333 C   0  0  0  0  0  0
  -16.7278  -28.6503   23.0357 C   0  0  0  0  0  0
  -26.4504  -31.6582   25.0720 C   0  0  0  0  0  0
  -25.3731  -31.3722   26.1443 C   0  0  0  0  0  0
  -27.0356  -30.3005   24.6195 C   0  0  0  0  0  0
  -27.6059  -32.4324   25.7493 C   0  0  0  0  0  0
  -27.5583  -37.1785   24.8458 C   0  0  0  0  0  0
  -21.4202  -29.3044   22.3660 N   0  0  0  0  0  0
  -26.4281  -37.3776   23.9423 N   0  0  0  0  0  0
  -24.6932  -31.0560   22.0959 N   0  0  0  0  0  0
  -23.4202  -28.8155   23.3009 O   0  0  0  0  0  0
  -28.2953  -26.3856   20.1952 O   0  0  0  0  0  0
  -26.5627  -34.8917   22.4664 O   0  0  0  0  0  0
  -23.5452  -32.1381   23.7312 O   0  0  0  0  0  0
  -29.6236  -19.4705   19.2796 C   0  0  0  0  0  0
  -29.1795  -20.8276   19.3316 C   0  0  0  0  0  0
  -29.7549  -18.6450   20.4283 C   0  0  0  0  0  0
  -29.3750  -19.2804   21.6477 C   0  0  0  0  0  0
  -28.8994  -20.6503   21.6816 C   0  0  0  0  0  0
  -28.8130  -21.5075   20.5263 C   0  0  0  0  0  0
  -28.0887  -23.8003   19.4168 C   0  0  0  0  0  0
  -28.9350  -24.0203   21.2798 C   0  0  0  0  0  0
  -27.9616  -24.9509   20.4789 C   0  0  0  0  0  0
  -29.5100  -18.4978   22.9509 C   0  0  0  0  0  0
  -28.4461  -21.2266   23.0218 C   0  0  0  0  0  0
  -30.5081  -17.2434   20.3111 C   0  0  0  0  0  0
  -28.2924  -22.8960   20.5682 N   0  0  0  0  0  0
  -29.9343  -15.8714   20.6218 N   0  0  0  0  0  0
  -31.4655  -12.5250   19.1734 H   0  0  0  0  0  0
  -30.3421  -11.4498   19.9553 H   0  0  0  0  0  0
  -29.7797  -11.7279   17.5129 H   0  0  0  0  0  0
  -29.6419  -13.4561   17.7274 H   0  0  0  0  0  0
  -27.8791  -11.2856   18.9053 H   0  0  0  0  0  0
  -27.3746  -12.5346   17.7987 H   0  0  0  0  0  0
  -27.6370  -14.2560   19.4724 H   0  0  0  0  0  0
  -28.7085  -12.1766   21.4409 H   0  0  0  0  0  0
  -28.4315  -13.8671   21.7865 H   0  0  0  0  0  0
  -25.2768   -9.5686   22.4761 H   0  0  0  0  0  0
  -24.0007   -7.4637   22.7473 H   0  0  0  0  0  0
  -21.0848   -8.8778   19.8952 H   0  0  0  0  0  0
  -22.3706  -10.9677   19.6167 H   0  0  0  0  0  0
  -21.2007   -7.6149   23.9716 H   0  0  0  0  0  0
  -21.1480   -6.0523   25.9076 H   0  0  0  0  0  0
  -22.0599   -2.7611   23.2845 H   0  0  0  0  0  0
  -22.4094  -11.9871   22.4808 H   0  0  0  0  0  0
  -21.1086  -13.1225   22.2634 H   0  0  0  0  0  0
  -24.6491  -15.8450   20.5209 H   0  0  0  0  0  0
  -26.2648  -15.6353   20.0773 H   0  0  0  0  0  0
  -26.7199  -32.5420   23.1082 H   0  0  0  0  0  0
  -25.0089  -33.9705   25.0413 H   0  0  0  0  0  0
  -22.7200  -31.3025   21.3990 H   0  0  0  0  0  0
  -23.3760  -35.9602   23.3281 H   0  0  0  0  0  0
  -24.3583  -36.8923   22.2056 H   0  0  0  0  0  0
  -23.7229  -37.6470   23.6674 H   0  0  0  0  0  0
  -26.1051  -31.5420   20.6078 H   0  0  0  0  0  0
  -26.8467  -30.8254   22.0075 H   0  0  0  0  0  0
  -28.1159  -28.9468   21.2037 H   0  0  0  0  0  0
  -25.9757  -25.9151   18.9981 H   0  0  0  0  0  0
  -23.9711  -27.3126   18.9961 H   0  0  0  0  0  0
  -23.7618  -30.5937   19.4025 H   0  0  0  0  0  0
  -22.7590  -29.2488   19.8542 H   0  0  0  0  0  0
  -25.1290  -36.1909   25.0818 H   0  0  0  0  0  0
  -20.9989  -28.3277   24.1392 H   0  0  0  0  0  0
  -20.5681  -26.2309   23.3612 H   0  0  0  0  0  0
  -21.6647  -26.7442   22.1200 H   0  0  0  0  0  0
  -19.6916  -25.6294   21.1245 H   0  0  0  0  0  0
  -19.6690  -27.3192   20.6739 H   0  0  0  0  0  0
  -17.4203  -26.6681   21.4024 H   0  0  0  0  0  0
  -18.0331  -26.0070   22.9018 H   0  0  0  0  0  0
  -19.7942  -30.7276   24.2262 H   0  0  0  0  0  0
  -17.5020  -31.6269   24.5164 H   0  0  0  0  0  0
  -15.5357  -30.2987   23.7660 H   0  0  0  0  0  0
  -15.8678  -28.0819   22.7079 H   0  0  0  0  0  0
  -24.5919  -30.7056   25.7770 H   0  0  0  0  0  0
  -24.8905  -32.2885   26.4853 H   0  0  0  0  0  0
  -25.8052  -30.8915   27.0228 H   0  0  0  0  0  0
  -26.2938  -29.6745   24.1222 H   0  0  0  0  0  0
  -27.4052  -29.7273   25.4707 H   0  0  0  0  0  0
  -27.8806  -30.4288   23.9427 H   0  0  0  0  0  0
  -27.2672  -33.3632   26.2054 H   0  0  0  0  0  0
  -28.3879  -32.6871   25.0326 H   0  0  0  0  0  0
  -28.0718  -31.8460   26.5424 H   0  0  0  0  0  0
  -28.2565  -38.0118   24.7562 H   0  0  0  0  0  0
  -28.1116  -36.2654   24.6208 H   0  0  0  0  0  0
  -27.2311  -37.1341   25.8860 H   0  0  0  0  0  0
  -20.9384  -29.8766   21.6866 H   0  0  0  0  0  0
  -26.0155  -38.2839   24.1463 H   0  0  0  0  0  0
  -29.9139  -19.0731   18.3170 H   0  0  0  0  0  0
  -29.1243  -21.3669   18.3968 H   0  0  0  0  0  0
  -28.9653  -23.8860   18.7713 H   0  0  0  0  0  0
  -27.1764  -23.6082   18.8510 H   0  0  0  0  0  0
  -28.7735  -24.0352   22.3579 H   0  0  0  0  0  0
  -29.9880  -24.1478   21.0203 H   0  0  0  0  0  0
  -26.9842  -24.9077   20.9691 H   0  0  0  0  0  0
  -30.1275  -17.6070   22.8554 H   0  0  0  0  0  0
  -28.5291  -18.1779   23.3029 H   0  0  0  0  0  0
  -29.9726  -19.1083   23.7269 H   0  0  0  0  0  0
  -28.0003  -20.4722   23.6684 H   0  0  0  0  0  0
  -27.6769  -21.9882   22.9002 H   0  0  0  0  0  0
  -29.2903  -21.6747   23.5457 H   0  0  0  0  0  0
  -31.4164  -17.3460   20.9074 H   0  0  0  0  0  0
  -30.8758  -17.1807   19.2855 H   0  0  0  0  0  0
  -28.9499  -15.8053   20.8300 H   0  0  0  0  0  0
  1 25  1  0  0  0
  1 30  2  0  0  0
  1 84  1  0  0  0
  2  3  1  0  0  0
  2 25  1  0  0  0
  2 85  1  0  0  0
  2 86  1  0  0  0
  3  4  1  0  0  0
  3 87  1  0  0  0
  3 88  1  0  0  0
  4  5  1  0  0  0
  4 89  1  0  0  0
  4 90  1  0  0  0
  5  6  1  0  0  0
  5 26  1  0  0  0
  5 91  1  0  0  0
  6 25  1  0  0  0
  6 92  1  0  0  0
  6 93  1  0  0  0
  7  8  2  0  0  0
  7 26  1  0  0  0
  7 29  1  0  0  0
  8  9  1  0  0  0
  8 22  1  0  0  0
  9 10  1  0  0  0
  9 27  2  0  0  0
 10 11  2  0  0  0
 10 15  1  0  0  0
 11 12  1  0  0  0
 11 94  1  0  0  0
 12 13  2  0  0  0
 12 95  1  0  0  0
 13 14  1  0  0  0
 13 31  1  0  0  0
 14 15  2  0  0  0
 14 96  1  0  0  0
 15 97  1  0  0  0
 16 17  2  0  0  0
 16 21  1  0  0  0
 16 31  1  0  0  0
 17 18  1  0  0  0
 17 98  1  0  0  0
 18 19  2  0  0  0
 18 99  1  0  0  0
 19 20  1  0  0  0
 19 24  1  0  0  0
 20 21  2  0  0  0
 20100  1  0  0  0
 21 23  1  0  0  0
 22 28  1  0  0  0
 22 32  2  0  0  0
 26 27  1  0  0  0
 28101  1  0  0  0
 28102  1  0  0  0
 29103  1  0  0  0
 29104  1  0  0  0
 33 34  1  0  0  0
 33 66  1  0  0  0
 33 70  2  0  0  0
 34 36  1  0  0  0
 34 59  1  0  0  0
 34105  1  0  0  0
 35 44  2  0  0  0
 35 45  1  0  0  0
 35 68  1  0  0  0
 36 56  1  0  0  0
 36106  1  0  0  0
 37 39  1  0  0  0
 37 47  1  0  0  0
 37 66  1  0  0  0
 37107  1  0  0  0
 38 43  2  0  0  0
 38 46  1  0  0  0
 38 47  1  0  0  0
 39 64  1  0  0  0
 39 67  2  0  0  0
 40 52  1  0  0  0
 40 53  2  0  0  0
 40 58  1  0  0  0
 41108  1  0  0  0
 41109  1  0  0  0
 41110  1  0  0  0
 41 48  1  0  0  0
 42 43  1  0  0  0
 42 66  1  0  0  0
 42111  1  0  0  0
 42112  1  0  0  0
 43 44  1  0  0  0
 44113  1  0  0  0
 45 46  2  0  0  0
 45114  1  0  0  0
 46115  1  0  0  0
 47116  1  0  0  0
 47117  1  0  0  0
 48 56  1  0  0  0
 48 65  1  0  0  0
 48118  1  0  0  0
 49 50  1  0  0  0
 49 53  1  0  0  0
 49 64  1  0  0  0
 49119  1  0  0  0
 50 51  1  0  0  0
 50120  1  0  0  0
 50121  1  0  0  0
 51 52  1  0  0  0
 51122  1  0  0  0
 51123  1  0  0  0
 52124  1  0  0  0
 52125  1  0  0  0
 53 54  1  0  0  0
 54 55  2  0  0  0
 54126  1  0  0  0
 55 57  1  0  0  0
 55127  1  0  0  0
 56 69  2  0  0  0
 57 58  2  0  0  0
 57128  1  0  0  0
 58129  1  0  0  0
 59 60  1  0  0  0
 59 61  1  0  0  0
 59 62  1  0  0  0
 60130  1  0  0  0
 60131  1  0  0  0
 60132  1  0  0  0
 61133  1  0  0  0
 61134  1  0  0  0
 61135  1  0  0  0
 62136  1  0  0  0
 62137  1  0  0  0
 62138  1  0  0  0
 63 65  1  0  0  0
 63139  1  0  0  0
 63140  1  0  0  0
 63141  1  0  0  0
 64142  1  0  0  0
 65143  1  0  0  0
 68 79  1  0  0  0
 71 72  2  0  0  0
 71 73  1  0  0  0
 71144  1  0  0  0
 72 76  1  0  0  0
 72145  1  0  0  0
 73 74  2  0  0  0
 73 82  1  0  0  0
 74 75  1  0  0  0
 74 80  1  0  0  0
 75 76  2  0  0  0
 75 81  1  0  0  0
 76 83  1  0  0  0
 77 79  1  0  0  0
 77 83  1  0  0  0
 77146  1  0  0  0
 77147  1  0  0  0
 78 79  1  0  0  0
 78 83  1  0  0  0
 78148  1  0  0  0
 78149  1  0  0  0
 79150  1  0  0  0
 80151  1  0  0  0
 80152  1  0  0  0
 80153  1  0  0  0
 81154  1  0  0  0
 81155  1  0  0  0
 81156  1  0  0  0
 82 84  1  0  0  0
 82157  1  0  0  0
 82158  1  0  0  0
 84159  1  0  0  0
M  ISO  4   1 100  68 101  79 101  84 100
M  END
> <chiral flag>
0

> <version>
0

> <s_m_source_file>
/data/baiqing/PycharmProjects/Reinvent-master-3.2/result/LINK_invent/BTK/process_docking_weight1_custom_product_contain_oxygen_bond_distance_aromatic_linkinvent_7_9_3/rearranged_h_0032.sdf

> <i_m_source_file_index>
4

> <r_mmod_Potential_Energy-OPLS-2005>
154.646621704102

> <r_mmod_Stretch_Energy-OPLS-2005>
101.250267028809

> <r_mmod_Bend_Energy-OPLS-2005>
223.23762512207

> <r_mmod_Torsional_Energy-OPLS-2005>
246.089981079102

> <r_mmod_Improper_Torsional_Energy-OPLS-2005>
13.731761932373

> <r_mmod_Van_der_Waal_Energy-OPLS-2005>
153.552810668945

> <r_mmod_Electrostatic_Energy-OPLS-2005>
-435.027374267578

> <r_mmod_Solvation_Energy-OPLS-2005>
-221.344009399414

> <b_mmod_Minimization_Converged-OPLS-2005>
0

> <r_mmod_RMS_Derivative-OPLS-2005>
0.278476864099503

$$$$
4
                    3D
 Structure written by MMmdl.
169178  0  0  1  0            999 V2000
  -30.5688  -14.7972   20.4470 C   0  0  0  0  0  0
  -30.4443  -12.4914   19.4612 C   0  0  0  0  0  0
  -29.5109  -12.5052   18.2297 C   0  0  0  0  0  0
  -28.0396  -12.3166   18.6510 C   0  0  0  0  0  0
  -27.6374  -13.2267   19.8411 C   0  0  2  0  0  0
  -28.6856  -13.1766   20.9720 C   0  0  0  0  0  0
  -25.2500  -13.8178   20.5671 C   0  0  0  0  0  0
  -24.1801  -13.0431   20.9217 C   0  0  0  0  0  0
  -24.6390  -11.6907   20.8754 C   0  0  0  0  0  0
  -23.9064  -10.4289   21.0418 C   0  0  0  0  0  0
  -24.3617   -9.4200   21.9190 C   0  0  0  0  0  0
  -23.6293   -8.2234   22.0755 C   0  0  0  0  0  0
  -22.4274   -8.0275   21.3541 C   0  0  0  0  0  0
  -21.9909   -9.0250   20.4643 C   0  0  0  0  0  0
  -22.7239  -10.2130   20.3060 C   0  0  0  0  0  0
  -21.6849   -6.0731   22.5275 C   0  0  0  0  0  0
  -21.4013   -6.5638   23.8209 C   0  0  0  0  0  0
  -21.3658   -5.6791   24.9172 C   0  0  0  0  0  0
  -21.6046   -4.3054   24.7225 C   0  0  0  0  0  0
  -21.8819   -3.8143   23.4347 C   0  0  0  0  0  0
  -21.9195   -4.6958   22.3400 C   0  0  0  0  0  0
  -22.7822  -13.5210   21.1881 C   0  0  0  0  0  0
  -22.1661   -4.2144   21.0977 F   0  0  0  0  0  0
  -21.5632   -3.4538   25.7738 F   0  0  0  0  0  0
  -29.9753  -13.5541   20.3794 N   0  0  0  0  0  0
  -26.2917  -12.9374   20.3242 N   0  0  0  0  0  0
  -25.9317  -11.6525   20.5746 N   0  0  0  0  0  0
  -22.0473  -12.8195   22.0436 N   0  0  0  0  0  0
  -25.4169  -15.1907   20.4057 N   0  0  0  0  0  0
  -31.7804  -14.9004   20.2387 O   0  0  0  0  0  0
  -21.6637   -6.8874   21.4237 O   0  0  0  0  0  0
  -22.3507  -14.5517   20.6731 O   0  0  0  0  0  0
  -24.6335  -31.8516   23.1943 C   0  0  0  0  0  0
  -25.9149  -32.4737   23.8305 C   0  0  1  0  0  0
  -27.2228  -27.2320   20.1522 C   0  0  0  0  0  0
  -25.5936  -33.8541   24.2229 N   0  0  0  0  0  0
  -23.4333  -30.4699   21.5383 C   0  0  2  0  0  0
  -24.8816  -28.9022   20.1190 C   0  0  0  0  0  0
  -22.7518  -29.4574   22.4911 C   0  0  0  0  0  0
  -18.0291  -28.1383   22.8473 C   0  0  0  0  0  0
  -24.1494  -36.7274   23.2644 C   0  0  0  0  0  0
  -25.9789  -30.7578   21.3751 C   0  0  0  0  0  0
  -26.0541  -29.3728   20.7257 C   0  0  0  0  0  0
  -27.2309  -28.5535   20.7219 C   0  0  0  0  0  0
  -26.0274  -26.8244   19.5270 C   0  0  0  0  0  0
  -24.8741  -27.6369   19.5072 C   0  0  0  0  0  0
  -23.6550  -29.7957   20.1582 C   0  0  0  0  0  0
  -25.4118  -36.3055   24.0323 C   0  0  1  0  0  0
  -20.5894  -28.3695   23.1264 C   0  0  2  0  0  0
  -20.6780  -26.9408   22.5408 C   0  0  0  0  0  0
  -19.5758  -26.6378   21.5207 C   0  0  0  0  0  0
  -18.1936  -26.7925   22.1615 C   0  0  0  0  0  0
  -19.1542  -28.8856   23.2863 C   0  0  0  0  0  0
  -18.9475  -30.1457   23.8881 C   0  0  0  0  0  0
  -17.6474  -30.6588   24.0556 C   0  0  0  0  0  0
  -25.9061  -34.9431   23.5077 C   0  0  0  0  0  0
  -16.5359  -29.9079   23.6337 C   0  0  0  0  0  0
  -16.7278  -28.6499   23.0348 C   0  0  0  0  0  0
  -26.4499  -31.6576   25.0711 C   0  0  0  0  0  0
  -25.3708  -31.3736   26.1431 C   0  0  0  0  0  0
  -27.0367  -30.3002   24.6206 C   0  0  0  0  0  0
  -27.6047  -32.4332   25.7481 C   0  0  0  0  0  0
  -27.5578  -37.1783   24.8461 C   0  0  0  0  0  0
  -21.4219  -29.3039   22.3657 N   0  0  0  0  0  0
  -26.4286  -37.3754   23.9411 N   0  0  0  0  0  0
  -24.7010  -31.0456   22.0924 N   0  0  0  0  0  0
  -23.4204  -28.8117   23.3025 O   0  0  0  0  0  0
  -28.3289  -26.3500   20.1203 O   0  0  0  0  0  0
  -26.5640  -34.8908   22.4654 O   0  0  0  0  0  0
  -23.5477  -32.1347   23.7225 O   0  0  0  0  0  0
  -31.2564  -19.8091   17.2971 C   0  0  0  0  0  0
  -31.1327  -17.8686   18.7001 C   0  0  0  0  0  0
  -31.6671  -18.5115   17.5845 C   0  0  0  0  0  0
  -30.3362  -20.4757   18.1254 C   0  0  0  0  0  0
  -30.2155  -18.4740   19.5905 C   0  0  0  0  0  0
  -29.8214  -19.9001   19.3374 C   0  0  0  0  0  0
  -29.5207  -23.7487   22.6587 C   0  0  0  0  0  0
  -29.4122  -25.0114   21.7781 C   0  0  0  0  0  0
  -28.9245  -22.4527   22.0616 C   0  0  0  0  0  0
  -28.4606  -23.5748   19.9032 C   0  0  0  0  0  0
  -28.2787  -24.9693   20.7458 C   0  0  2  0  0  0
  -32.6598  -17.7911   16.6929 C   0  0  0  0  0  0
  -29.9136  -21.8318   17.5920 C   0  0  0  0  0  0
  -29.8473  -17.4429   20.7501 C   0  0  0  0  0  0
  -28.7949  -20.8484   20.1463 C   0  0  0  0  0  0
  -29.7253  -15.9074   20.5360 N   0  0  0  0  0  0
  -29.1143  -22.3243   20.5928 N   0  3  2  0  0  0
  -31.4783  -12.6497   19.1497 H   0  0  0  0  0  0
  -30.4217  -11.5197   19.9571 H   0  0  0  0  0  0
  -29.8012  -11.7228   17.5273 H   0  0  0  0  0  0
  -29.6199  -13.4505   17.6958 H   0  0  0  0  0  0
  -27.9116  -11.2706   18.9310 H   0  0  0  0  0  0
  -27.3760  -12.4864   17.8023 H   0  0  0  0  0  0
  -27.6232  -14.2422   19.4464 H   0  0  0  0  0  0
  -28.7407  -12.1788   21.4105 H   0  0  0  0  0  0
  -28.4153  -13.8537   21.7846 H   0  0  0  0  0  0
  -25.2764   -9.5673   22.4765 H   0  0  0  0  0  0
  -23.9998   -7.4625   22.7474 H   0  0  0  0  0  0
  -21.0842   -8.8772   19.8950 H   0  0  0  0  0  0
  -22.3701  -10.9671   19.6169 H   0  0  0  0  0  0
  -21.2001   -7.6147   23.9708 H   0  0  0  0  0  0
  -21.1482   -6.0523   25.9074 H   0  0  0  0  0  0
  -22.0602   -2.7605   23.2849 H   0  0  0  0  0  0
  -22.4099  -11.9852   22.4807 H   0  0  0  0  0  0
  -21.1092  -13.1212   22.2657 H   0  0  0  0  0  0
  -24.6385  -15.8342   20.4999 H   0  0  0  0  0  0
  -26.2447  -15.6291   20.0244 H   0  0  0  0  0  0
  -26.7219  -32.5384   23.1051 H   0  0  0  0  0  0
  -25.0066  -33.9662   25.0364 H   0  0  0  0  0  0
  -22.7314  -31.2928   21.3865 H   0  0  0  0  0  0
  -23.3756  -35.9611   23.3299 H   0  0  0  0  0  0
  -24.3576  -36.8910   22.2061 H   0  0  0  0  0  0
  -23.7260  -37.6469   23.6681 H   0  0  0  0  0  0
  -26.1148  -31.5140   20.6000 H   0  0  0  0  0  0
  -26.8571  -30.8142   22.0069 H   0  0  0  0  0  0
  -28.1369  -28.9160   21.1885 H   0  0  0  0  0  0
  -25.9818  -25.8545   19.0525 H   0  0  0  0  0  0
  -23.9765  -27.2725   19.0252 H   0  0  0  0  0  0
  -23.7844  -30.5671   19.3988 H   0  0  0  0  0  0
  -22.7728  -29.2302   19.8539 H   0  0  0  0  0  0
  -25.1302  -36.1884   25.0813 H   0  0  0  0  0  0
  -20.9979  -28.3282   24.1383 H   0  0  0  0  0  0
  -20.5683  -26.2301   23.3612 H   0  0  0  0  0  0
  -21.6649  -26.7431   22.1196 H   0  0  0  0  0  0
  -19.6922  -25.6284   21.1243 H   0  0  0  0  0  0
  -19.6705  -27.3189   20.6739 H   0  0  0  0  0  0
  -17.4203  -26.6675   21.4014 H   0  0  0  0  0  0
  -18.0326  -26.0073   22.9016 H   0  0  0  0  0  0
  -19.7955  -30.7273   24.2243 H   0  0  0  0  0  0
  -17.5030  -31.6269   24.5163 H   0  0  0  0  0  0
  -15.5356  -30.2977   23.7678 H   0  0  0  0  0  0
  -15.8676  -28.0825   22.7057 H   0  0  0  0  0  0
  -24.5884  -30.7083   25.7745 H   0  0  0  0  0  0
  -24.8889  -32.2908   26.4832 H   0  0  0  0  0  0
  -25.8010  -30.8921   27.0224 H   0  0  0  0  0  0
  -26.2959  -29.6730   24.1235 H   0  0  0  0  0  0
  -27.4061  -29.7284   25.4723 H   0  0  0  0  0  0
  -27.8822  -30.4288   23.9449 H   0  0  0  0  0  0
  -27.2662  -33.3658   26.2007 H   0  0  0  0  0  0
  -28.3872  -32.6857   25.0314 H   0  0  0  0  0  0
  -28.0698  -31.8498   26.5430 H   0  0  0  0  0  0
  -28.2567  -38.0105   24.7520 H   0  0  0  0  0  0
  -28.1096  -36.2628   24.6267 H   0  0  0  0  0  0
  -27.2287  -37.1404   25.8860 H   0  0  0  0  0  0
  -20.9416  -29.8772   21.6863 H   0  0  0  0  0  0
  -26.0159  -38.2819   24.1435 H   0  0  0  0  0  0
  -31.6428  -20.2950   16.4103 H   0  0  0  0  0  0
  -31.4698  -16.8613   18.8676 H   0  0  0  0  0  0
  -29.0287  -23.9337   23.6150 H   0  0  0  0  0  0
  -30.5711  -23.5857   22.9029 H   0  0  0  0  0  0
  -30.3518  -25.1515   21.2427 H   0  0  0  0  0  0
  -29.3032  -25.8880   22.4179 H   0  0  0  0  0  0
  -27.8546  -22.4073   22.2758 H   0  0  0  0  0  0
  -29.3730  -21.6039   22.5812 H   0  0  0  0  0  0
  -29.0477  -23.8464   19.0327 H   0  0  0  0  0  0
  -27.4809  -23.2871   19.5213 H   0  0  0  0  0  0
  -27.3413  -24.8939   21.2995 H   0  0  0  0  0  0
  -32.9937  -18.4220   15.8684 H   0  0  0  0  0  0
  -32.2099  -16.8915   16.2712 H   0  0  0  0  0  0
  -33.5385  -17.4945   17.2672 H   0  0  0  0  0  0
  -30.0785  -21.9003   16.5160 H   0  0  0  0  0  0
  -30.5159  -22.6162   18.0490 H   0  0  0  0  0  0
  -28.8496  -22.0149   17.7300 H   0  0  0  0  0  0
  -28.9026  -17.7724   21.1828 H   0  0  0  0  0  0
  -30.5864  -17.5887   21.5389 H   0  0  0  0  0  0
  -28.5162  -20.2650   21.0237 H   0  0  0  0  0  0
  -27.8712  -20.8803   19.5689 H   0  0  0  0  0  0
  -28.7633  -15.6100   20.5793 H   0  0  0  0  0  0
  -30.1117  -22.4165   20.4666 H   0  0  0  0  0  0
  1 25  1  0  0  0
  1 30  2  0  0  0
  1 86  1  0  0  0
  2  3  1  0  0  0
  2 25  1  0  0  0
  2 88  1  0  0  0
  2 89  1  0  0  0
  3  4  1  0  0  0
  3 90  1  0  0  0
  3 91  1  0  0  0
  4  5  1  0  0  0
  4 92  1  0  0  0
  4 93  1  0  0  0
  5  6  1  0  0  0
  5 26  1  0  0  0
  5 94  1  0  0  0
  6 25  1  0  0  0
  6 95  1  0  0  0
  6 96  1  0  0  0
  7  8  2  0  0  0
  7 26  1  0  0  0
  7 29  1  0  0  0
  8  9  1  0  0  0
  8 22  1  0  0  0
  9 10  1  0  0  0
  9 27  2  0  0  0
 10 11  2  0  0  0
 10 15  1  0  0  0
 11 12  1  0  0  0
 11 97  1  0  0  0
 12 13  2  0  0  0
 12 98  1  0  0  0
 13 14  1  0  0  0
 13 31  1  0  0  0
 14 15  2  0  0  0
 14 99  1  0  0  0
 15100  1  0  0  0
 16 17  2  0  0  0
 16 21  1  0  0  0
 16 31  1  0  0  0
 17 18  1  0  0  0
 17101  1  0  0  0
 18 19  2  0  0  0
 18102  1  0  0  0
 19 20  1  0  0  0
 19 24  1  0  0  0
 20 21  2  0  0  0
 20103  1  0  0  0
 21 23  1  0  0  0
 22 28  1  0  0  0
 22 32  2  0  0  0
 26 27  1  0  0  0
 28104  1  0  0  0
 28105  1  0  0  0
 29106  1  0  0  0
 29107  1  0  0  0
 33 34  1  0  0  0
 33 66  1  0  0  0
 33 70  2  0  0  0
 34 36  1  0  0  0
 34 59  1  0  0  0
 34108  1  0  0  0
 35 44  2  0  0  0
 35 45  1  0  0  0
 35 68  1  0  0  0
 36 56  1  0  0  0
 36109  1  0  0  0
 37 39  1  0  0  0
 37 47  1  0  0  0
 37 66  1  0  0  0
 37110  1  0  0  0
 38 43  2  0  0  0
 38 46  1  0  0  0
 38 47  1  0  0  0
 39 64  1  0  0  0
 39 67  2  0  0  0
 40 52  1  0  0  0
 40 53  2  0  0  0
 40 58  1  0  0  0
 41111  1  0  0  0
 41112  1  0  0  0
 41113  1  0  0  0
 41 48  1  0  0  0
 42 43  1  0  0  0
 42 66  1  0  0  0
 42114  1  0  0  0
 42115  1  0  0  0
 43 44  1  0  0  0
 44116  1  0  0  0
 45 46  2  0  0  0
 45117  1  0  0  0
 46118  1  0  0  0
 47119  1  0  0  0
 47120  1  0  0  0
 48 56  1  0  0  0
 48 65  1  0  0  0
 48121  1  0  0  0
 49 50  1  0  0  0
 49 53  1  0  0  0
 49 64  1  0  0  0
 49122  1  0  0  0
 50 51  1  0  0  0
 50123  1  0  0  0
 50124  1  0  0  0
 51 52  1  0  0  0
 51125  1  0  0  0
 51126  1  0  0  0
 52127  1  0  0  0
 52128  1  0  0  0
 53 54  1  0  0  0
 54 55  2  0  0  0
 54129  1  0  0  0
 55 57  1  0  0  0
 55130  1  0  0  0
 56 69  2  0  0  0
 57 58  2  0  0  0
 57131  1  0  0  0
 58132  1  0  0  0
 59 60  1  0  0  0
 59 61  1  0  0  0
 59 62  1  0  0  0
 60133  1  0  0  0
 60134  1  0  0  0
 60135  1  0  0  0
 61136  1  0  0  0
 61137  1  0  0  0
 61138  1  0  0  0
 62139  1  0  0  0
 62140  1  0  0  0
 62141  1  0  0  0
 63 65  1  0  0  0
 63142  1  0  0  0
 63143  1  0  0  0
 63144  1  0  0  0
 64145  1  0  0  0
 65146  1  0  0  0
 68 81  1  0  0  0
 71 73  2  0  0  0
 71 74  1  0  0  0
 71147  1  0  0  0
 72 73  1  0  0  0
 72 75  2  0  0  0
 72148  1  0  0  0
 73 82  1  0  0  0
 74 76  2  0  0  0
 74 83  1  0  0  0
 75 76  1  0  0  0
 75 84  1  0  0  0
 76 85  1  0  0  0
 77 78  1  0  0  0
 77 79  1  0  0  0
 77149  1  0  0  0
 77150  1  0  0  0
 78 81  1  0  0  0
 78151  1  0  0  0
 78152  1  0  0  0
 79 87  1  0  0  0
 79153  1  0  0  0
 79154  1  0  0  0
 80 81  1  0  0  0
 80 87  1  0  0  0
 80155  1  0  0  0
 80156  1  0  0  0
 81157  1  0  0  0
 82158  1  0  0  0
 82159  1  0  0  0
 82160  1  0  0  0
 83161  1  0  0  0
 83162  1  0  0  0
 83163  1  0  0  0
 84 86  1  0  0  0
 84164  1  0  0  0
 84165  1  0  0  0
 85166  1  0  0  0
 85167  1  0  0  0
 85 87  1  0  0  0
 86168  1  0  0  0
 87169  1  0  0  0
M  CHG  1  87   1
M  ISO  4   1 100  68 101  81 101  86 100
M  END
> <chiral flag>
0

> <version>
0

> <s_m_source_file>
/data/baiqing/PycharmProjects/Reinvent-master-3.2/result/LINK_invent/BTK/process_docking_weight1_custom_product_contain_oxygen_bond_distance_aromatic_linkinvent_7_9_3/rearranged_h_0032.sdf

> <i_m_source_file_index>
5

> <r_mmod_Potential_Energy-OPLS-2005>
244.505554199219

> <r_mmod_Stretch_Energy-OPLS-2005>
177.364028930664

> <r_mmod_Bend_Energy-OPLS-2005>
252.05744934082

> <r_mmod_Torsional_Energy-OPLS-2005>
282.814025878906

> <r_mmod_Improper_Torsional_Energy-OPLS-2005>
5.6344633102417

> <r_mmod_Van_der_Waal_Energy-OPLS-2005>
145.259017944336

> <r_mmod_Electrostatic_Energy-OPLS-2005>
-295.272430419922

> <r_mmod_Solvation_Energy-OPLS-2005>
-429.378479003906

> <b_mmod_Minimization_Converged-OPLS-2005>
0

> <r_mmod_RMS_Derivative-OPLS-2005>
1.36036038398743

$$$$
5
                    3D
 Structure written by MMmdl.
166176  0  0  1  0            999 V2000
  -30.7189  -14.7305   20.2735 C   0  0  0  0  0  0
  -30.4416  -12.4168   19.4204 C   0  0  0  0  0  0
  -29.4755  -12.2767   18.2254 C   0  0  0  0  0  0
  -28.0099  -12.2056   18.6822 C   0  0  0  0  0  0
  -27.6321  -13.2143   19.7995 C   0  0  2  0  0  0
  -28.7158  -13.2774   20.8973 C   0  0  0  0  0  0
  -25.2572  -13.8222   20.5733 C   0  0  0  0  0  0
  -24.1807  -13.0486   20.9259 C   0  0  0  0  0  0
  -24.6362  -11.6957   20.8814 C   0  0  0  0  0  0
  -23.9037  -10.4301   21.0472 C   0  0  0  0  0  0
  -24.3591   -9.4193   21.9231 C   0  0  0  0  0  0
  -23.6244   -8.2232   22.0770 C   0  0  0  0  0  0
  -22.4232   -8.0279   21.3565 C   0  0  0  0  0  0
  -21.9890   -9.0253   20.4684 C   0  0  0  0  0  0
  -22.7216  -10.2146   20.3099 C   0  0  0  0  0  0
  -21.6830   -6.0722   22.5269 C   0  0  0  0  0  0
  -21.4004   -6.5625   23.8208 C   0  0  0  0  0  0
  -21.3653   -5.6786   24.9173 C   0  0  0  0  0  0
  -21.6034   -4.3045   24.7223 C   0  0  0  0  0  0
  -21.8802   -3.8122   23.4344 C   0  0  0  0  0  0
  -21.9173   -4.6945   22.3394 C   0  0  0  0  0  0
  -22.7842  -13.5309   21.1859 C   0  0  0  0  0  0
  -22.1665   -4.2129   21.0973 F   0  0  0  0  0  0
  -21.5618   -3.4534   25.7750 F   0  0  0  0  0  0
  -29.9876  -13.5678   20.2167 N   0  0  0  0  0  0
  -26.2949  -12.9383   20.3261 N   0  0  0  0  0  0
  -25.9281  -11.6574   20.5861 N   0  0  0  0  0  0
  -22.0430  -12.8320   22.0407 N   0  0  0  0  0  0
  -25.4329  -15.1911   20.4109 N   0  0  0  0  0  0
  -31.9193  -14.6577   20.5265 O   0  0  0  0  0  0
  -21.6614   -6.8868   21.4234 O   0  0  0  0  0  0
  -22.3561  -14.5604   20.6713 O   0  0  0  0  0  0
  -24.6241  -31.8614   23.2027 C   0  0  0  0  0  0
  -25.9109  -32.4788   23.8366 C   0  0  1  0  0  0
  -27.2325  -27.3160   20.1578 C   0  0  0  0  0  0
  -25.5904  -33.8582   24.2291 N   0  0  0  0  0  0
  -23.4211  -30.4819   21.5428 C   0  0  2  0  0  0
  -24.8736  -28.9355   20.1078 C   0  0  0  0  0  0
  -22.7459  -29.4612   22.4922 C   0  0  0  0  0  0
  -18.0272  -28.1414   22.8400 C   0  0  0  0  0  0
  -24.1485  -36.7303   23.2640 C   0  0  0  0  0  0
  -25.9583  -30.7915   21.3753 C   0  0  0  0  0  0
  -26.0348  -29.4157   20.7287 C   0  0  0  0  0  0
  -27.2146  -28.6171   20.7478 C   0  0  0  0  0  0
  -26.0628  -26.8980   19.4841 C   0  0  0  0  0  0
  -24.8934  -27.6834   19.4690 C   0  0  0  0  0  0
  -23.6393  -29.8165   20.1553 C   0  0  0  0  0  0
  -25.4098  -36.3086   24.0346 C   0  0  1  0  0  0
  -20.5874  -28.3700   23.1238 C   0  0  2  0  0  0
  -20.6839  -26.9491   22.5272 C   0  0  0  0  0  0
  -19.5858  -26.6573   21.5020 C   0  0  0  0  0  0
  -18.1988  -26.8072   22.1364 C   0  0  0  0  0  0
  -19.1516  -28.8824   23.2882 C   0  0  0  0  0  0
  -18.9431  -30.1387   23.8988 C   0  0  0  0  0  0
  -17.6437  -30.6540   24.0566 C   0  0  0  0  0  0
  -25.9035  -34.9442   23.5138 C   0  0  0  0  0  0
  -16.5365  -29.9030   23.6303 C   0  0  0  0  0  0
  -16.7253  -28.6468   23.0303 C   0  0  0  0  0  0
  -26.4496  -31.6578   25.0717 C   0  0  0  0  0  0
  -25.3746  -31.3711   26.1456 C   0  0  0  0  0  0
  -27.0332  -30.3014   24.6152 C   0  0  0  0  0  0
  -27.6090  -32.4261   25.7471 C   0  0  0  0  0  0
  -27.5578  -37.1809   24.8470 C   0  0  0  0  0  0
  -21.4180  -29.3114   22.3718 N   0  0  0  0  0  0
  -26.4294  -37.3780   23.9408 N   0  0  0  0  0  0
  -24.6876  -31.0610   22.0979 N   0  0  0  0  0  0
  -23.4181  -28.8105   23.2957 O   0  0  0  0  0  0
  -28.3540  -26.4732   20.2159 O   0  0  0  0  0  0
  -26.5609  -34.8893   22.4701 O   0  0  0  0  0  0
  -23.5391  -32.1416   23.7323 O   0  0  0  0  0  0
  -30.1980  -19.6528   19.2844 C   0  0  0  0  0  0
  -29.0631  -17.5655   20.7643 C   0  0  0  0  0  0
  -30.6205  -18.3081   19.1011 C   0  0  0  0  0  0
  -29.1575  -20.0104   20.1674 C   0  0  0  0  0  0
  -28.6167  -18.9230   20.9315 C   0  0  0  0  0  0
  -30.0515  -17.1948   19.8163 C   0  0  0  0  0  0
  -30.9355  -15.7164   18.2073 C   0  0  0  0  0  0
  -31.6330  -18.0636   17.9900 C   0  0  0  0  0  0
  -32.1515  -16.6301   18.0237 C   0  0  0  0  0  0
  -28.5461  -24.6442   21.9811 C   0  0  0  0  0  0
  -28.7821  -23.1051   21.9559 C   0  0  0  0  0  0
  -29.0137  -23.9773   19.7452 C   0  0  0  0  0  0
  -28.1627  -25.0299   20.5378 C   0  0  2  0  0  0
  -27.4606  -19.1492   21.8902 C   0  0  0  0  0  0
  -28.5053  -21.4493   20.0426 C   0  0  0  0  0  0
  -30.3442  -15.7796   19.4311 N   0  0  0  0  0  0
  -29.1789  -22.7136   20.5714 N   0  3  2  0  0  0
  -30.4537  -15.1720   17.2119 O   0  0  0  0  0  0
  -31.4660  -12.5478   19.0634 H   0  0  0  0  0  0
  -30.4471  -11.5103   20.0281 H   0  0  0  0  0  0
  -29.7214  -11.3687   17.6728 H   0  0  0  0  0  0
  -29.5760  -13.0622   17.4916 H   0  0  0  0  0  0
  -27.8656  -11.1890   19.0509 H   0  0  0  0  0  0
  -27.3407  -12.3074   17.8267 H   0  0  0  0  0  0
  -27.5908  -14.1945   19.3221 H   0  0  0  0  0  0
  -28.7764  -12.3435   21.4564 H   0  0  0  0  0  0
  -28.4807  -14.0671   21.6132 H   0  0  0  0  0  0
  -25.2765   -9.5645   22.4793 H   0  0  0  0  0  0
  -23.9949   -7.4615   22.7479 H   0  0  0  0  0  0
  -21.0821   -8.8766   19.8986 H   0  0  0  0  0  0
  -22.3686  -10.9671   19.6177 H   0  0  0  0  0  0
  -21.2027   -7.6135   23.9719 H   0  0  0  0  0  0
  -21.1509   -6.0520   25.9085 H   0  0  0  0  0  0
  -22.0601   -2.7576   23.2849 H   0  0  0  0  0  0
  -22.4003  -11.9996   22.4851 H   0  0  0  0  0  0
  -21.1036  -13.1381   22.2504 H   0  0  0  0  0  0
  -24.6813  -15.8579   20.5460 H   0  0  0  0  0  0
  -26.2984  -15.6253   20.1158 H   0  0  0  0  0  0
  -26.7188  -32.5496   23.1120 H   0  0  0  0  0  0
  -25.0056  -33.9726   25.0444 H   0  0  0  0  0  0
  -22.7113  -31.3005   21.3954 H   0  0  0  0  0  0
  -23.3745  -35.9662   23.3337 H   0  0  0  0  0  0
  -24.3573  -36.8878   22.2052 H   0  0  0  0  0  0
  -23.7248  -37.6519   23.6618 H   0  0  0  0  0  0
  -26.0788  -31.5472   20.5974 H   0  0  0  0  0  0
  -26.8408  -30.8469   22.0029 H   0  0  0  0  0  0
  -28.0979  -28.9700   21.2598 H   0  0  0  0  0  0
  -26.0341  -25.9486   18.9709 H   0  0  0  0  0  0
  -24.0164  -27.3144   18.9582 H   0  0  0  0  0  0
  -23.7586  -30.5940   19.3998 H   0  0  0  0  0  0
  -22.7583  -29.2445   19.8527 H   0  0  0  0  0  0
  -25.1264  -36.1976   25.0850 H   0  0  0  0  0  0
  -20.9938  -28.3253   24.1359 H   0  0  0  0  0  0
  -20.5795  -26.2235   23.3341 H   0  0  0  0  0  0
  -21.6699  -26.7699   22.0955 H   0  0  0  0  0  0
  -19.7005  -25.6558   21.0860 H   0  0  0  0  0  0
  -19.6816  -27.3503   20.6665 H   0  0  0  0  0  0
  -17.4322  -26.7040   21.3682 H   0  0  0  0  0  0
  -18.0212  -26.0136   22.8574 H   0  0  0  0  0  0
  -19.7893  -30.7141   24.2448 H   0  0  0  0  0  0
  -17.5008  -31.6204   24.5167 H   0  0  0  0  0  0
  -15.5377  -30.2924   23.7544 H   0  0  0  0  0  0
  -15.8661  -28.0814   22.6934 H   0  0  0  0  0  0
  -24.5949  -30.7016   25.7808 H   0  0  0  0  0  0
  -24.8907  -32.2860   26.4859 H   0  0  0  0  0  0
  -25.8081  -30.8928   27.0261 H   0  0  0  0  0  0
  -26.2909  -29.6748   24.1203 H   0  0  0  0  0  0
  -27.4071  -29.7253   25.4633 H   0  0  0  0  0  0
  -27.8746  -30.4301   23.9356 H   0  0  0  0  0  0
  -27.2773  -33.3582   26.2065 H   0  0  0  0  0  0
  -28.3893  -32.6789   25.0275 H   0  0  0  0  0  0
  -28.0786  -31.8378   26.5359 H   0  0  0  0  0  0
  -28.2613  -38.0085   24.7457 H   0  0  0  0  0  0
  -28.1044  -36.2604   24.6360 H   0  0  0  0  0  0
  -27.2291  -37.1545   25.8876 H   0  0  0  0  0  0
  -20.9375  -29.8919   21.6980 H   0  0  0  0  0  0
  -26.0186  -38.2888   24.1370 H   0  0  0  0  0  0
  -30.6168  -20.4154   18.6433 H   0  0  0  0  0  0
  -28.5655  -16.7831   21.3164 H   0  0  0  0  0  0
  -32.4565  -18.7737   18.0718 H   0  0  0  0  0  0
  -31.1452  -18.2529   17.0329 H   0  0  0  0  0  0
  -32.7014  -16.3861   17.1165 H   0  0  0  0  0  0
  -32.8472  -16.5005   18.8524 H   0  0  0  0  0  0
  -29.4660  -25.1495   22.2816 H   0  0  0  0  0  0
  -27.7768  -24.9092   22.7089 H   0  0  0  0  0  0
  -27.8673  -22.5931   22.2636 H   0  0  0  0  0  0
  -29.5467  -22.8165   22.6791 H   0  0  0  0  0  0
  -30.0147  -24.3932   19.6089 H   0  0  0  0  0  0
  -28.6218  -23.7999   18.7418 H   0  0  0  0  0  0
  -27.1205  -24.7356   20.4118 H   0  0  0  0  0  0
  -27.3571  -18.3108   22.5792 H   0  0  0  0  0  0
  -26.5239  -19.2398   21.3383 H   0  0  0  0  0  0
  -27.6074  -20.0473   22.4888 H   0  0  0  0  0  0
  -27.4740  -21.4229   20.3961 H   0  0  0  0  0  0
  -28.4024  -21.5936   18.9682 H   0  0  0  0  0  0
  -30.1703  -22.5190   20.5756 H   0  0  0  0  0  0
  1 25  1  0  0  0
  1 30  2  0  0  0
  1 86  1  0  0  0
  2  3  1  0  0  0
  2 25  1  0  0  0
  2 89  1  0  0  0
  2 90  1  0  0  0
  3  4  1  0  0  0
  3 91  1  0  0  0
  3 92  1  0  0  0
  4  5  1  0  0  0
  4 93  1  0  0  0
  4 94  1  0  0  0
  5  6  1  0  0  0
  5 26  1  0  0  0
  5 95  1  0  0  0
  6 25  1  0  0  0
  6 96  1  0  0  0
  6 97  1  0  0  0
  7  8  2  0  0  0
  7 26  1  0  0  0
  7 29  1  0  0  0
  8  9  1  0  0  0
  8 22  1  0  0  0
  9 10  1  0  0  0
  9 27  2  0  0  0
 10 11  2  0  0  0
 10 15  1  0  0  0
 11 12  1  0  0  0
 11 98  1  0  0  0
 12 13  2  0  0  0
 12 99  1  0  0  0
 13 14  1  0  0  0
 13 31  1  0  0  0
 14 15  2  0  0  0
 14100  1  0  0  0
 15101  1  0  0  0
 16 17  2  0  0  0
 16 21  1  0  0  0
 16 31  1  0  0  0
 17 18  1  0  0  0
 17102  1  0  0  0
 18 19  2  0  0  0
 18103  1  0  0  0
 19 20  1  0  0  0
 19 24  1  0  0  0
 20 21  2  0  0  0
 20104  1  0  0  0
 21 23  1  0  0  0
 22 28  1  0  0  0
 22 32  2  0  0  0
 26 27  1  0  0  0
 28105  1  0  0  0
 28106  1  0  0  0
 29107  1  0  0  0
 29108  1  0  0  0
 33 34  1  0  0  0
 33 66  1  0  0  0
 33 70  2  0  0  0
 34 36  1  0  0  0
 34 59  1  0  0  0
 34109  1  0  0  0
 35 44  2  0  0  0
 35 45  1  0  0  0
 35 68  1  0  0  0
 36 56  1  0  0  0
 36110  1  0  0  0
 37 39  1  0  0  0
 37 47  1  0  0  0
 37 66  1  0  0  0
 37111  1  0  0  0
 38 43  2  0  0  0
 38 46  1  0  0  0
 38 47  1  0  0  0
 39 64  1  0  0  0
 39 67  2  0  0  0
 40 52  1  0  0  0
 40 53  2  0  0  0
 40 58  1  0  0  0
 41112  1  0  0  0
 41113  1  0  0  0
 41114  1  0  0  0
 41 48  1  0  0  0
 42 43  1  0  0  0
 42 66  1  0  0  0
 42115  1  0  0  0
 42116  1  0  0  0
 43 44  1  0  0  0
 44117  1  0  0  0
 45 46  2  0  0  0
 45118  1  0  0  0
 46119  1  0  0  0
 47120  1  0  0  0
 47121  1  0  0  0
 48 56  1  0  0  0
 48 65  1  0  0  0
 48122  1  0  0  0
 49 50  1  0  0  0
 49 53  1  0  0  0
 49 64  1  0  0  0
 49123  1  0  0  0
 50 51  1  0  0  0
 50124  1  0  0  0
 50125  1  0  0  0
 51 52  1  0  0  0
 51126  1  0  0  0
 51127  1  0  0  0
 52128  1  0  0  0
 52129  1  0  0  0
 53 54  1  0  0  0
 54 55  2  0  0  0
 54130  1  0  0  0
 55 57  1  0  0  0
 55131  1  0  0  0
 56 69  2  0  0  0
 57 58  2  0  0  0
 57132  1  0  0  0
 58133  1  0  0  0
 59 60  1  0  0  0
 59 61  1  0  0  0
 59 62  1  0  0  0
 60134  1  0  0  0
 60135  1  0  0  0
 60136  1  0  0  0
 61137  1  0  0  0
 61138  1  0  0  0
 61139  1  0  0  0
 62140  1  0  0  0
 62141  1  0  0  0
 62142  1  0  0  0
 63 65  1  0  0  0
 63143  1  0  0  0
 63144  1  0  0  0
 63145  1  0  0  0
 64146  1  0  0  0
 65147  1  0  0  0
 68 83  1  0  0  0
 71 73  2  0  0  0
 71 74  1  0  0  0
 71148  1  0  0  0
 72 75  1  0  0  0
 72 76  2  0  0  0
 72149  1  0  0  0
 73 76  1  0  0  0
 73 78  1  0  0  0
 74 75  2  0  0  0
 74 85  1  0  0  0
 75 84  1  0  0  0
 76 86  1  0  0  0
 77 79  1  0  0  0
 77 86  1  0  0  0
 77 88  2  0  0  0
 78 79  1  0  0  0
 78150  1  0  0  0
 78151  1  0  0  0
 79152  1  0  0  0
 79153  1  0  0  0
 80 81  1  0  0  0
 80 83  1  0  0  0
 80154  1  0  0  0
 80155  1  0  0  0
 81 87  1  0  0  0
 81156  1  0  0  0
 81157  1  0  0  0
 82 83  1  0  0  0
 82 87  1  0  0  0
 82158  1  0  0  0
 82159  1  0  0  0
 83160  1  0  0  0
 84161  1  0  0  0
 84162  1  0  0  0
 84163  1  0  0  0
 85164  1  0  0  0
 85165  1  0  0  0
 85 87  1  0  0  0
 87166  1  0  0  0
M  CHG  1  87   1
M  ISO  4   1 100  68 101  83 101  86 100
M  END
> <chiral flag>
0

> <version>
0

> <s_m_source_file>
/data/baiqing/PycharmProjects/Reinvent-master-3.2/result/LINK_invent/BTK/process_docking_weight1_custom_product_contain_oxygen_bond_distance_aromatic_linkinvent_7_9_3/rearranged_h_0032.sdf

> <i_m_source_file_index>
6

> <r_mmod_Potential_Energy-OPLS-2005>
373.432342529297

> <r_mmod_Stretch_Energy-OPLS-2005>
98.148307800293

> <r_mmod_Bend_Energy-OPLS-2005>
189.680435180664

> <r_mmod_Torsional_Energy-OPLS-2005>
466.243682861328

> <r_mmod_Improper_Torsional_Energy-OPLS-2005>
35.4669418334961

> <r_mmod_Van_der_Waal_Energy-OPLS-2005>
159.989303588867

> <r_mmod_Electrostatic_Energy-OPLS-2005>
-275.689025878906

> <r_mmod_Solvation_Energy-OPLS-2005>
-426.371032714844

> <b_mmod_Minimization_Converged-OPLS-2005>
0

> <r_mmod_RMS_Derivative-OPLS-2005>
6.35669755935669

$$$$
6
                    3D
 Structure written by MMmdl.
158167  0  0  1  0            999 V2000
  -30.7228  -14.5275   20.5908 C   0  0  0  0  0  0
  -30.4226  -12.3575   19.4317 C   0  0  0  0  0  0
  -29.5057  -12.5497   18.2090 C   0  0  0  0  0  0
  -28.0280  -12.3913   18.6128 C   0  0  0  0  0  0
  -27.6584  -13.2226   19.8740 C   0  0  2  0  0  0
  -28.6999  -13.0377   21.0003 C   0  0  0  0  0  0
  -25.2570  -13.8208   20.5595 C   0  0  0  0  0  0
  -24.1834  -13.0460   20.9129 C   0  0  0  0  0  0
  -24.6432  -11.6949   20.8708 C   0  0  0  0  0  0
  -23.9106  -10.4296   21.0410 C   0  0  0  0  0  0
  -24.3639   -9.4202   21.9195 C   0  0  0  0  0  0
  -23.6300   -8.2240   22.0770 C   0  0  0  0  0  0
  -22.4280   -8.0280   21.3541 C   0  0  0  0  0  0
  -21.9918   -9.0262   20.4657 C   0  0  0  0  0  0
  -22.7276  -10.2132   20.3068 C   0  0  0  0  0  0
  -21.6860   -6.0739   22.5289 C   0  0  0  0  0  0
  -21.4040   -6.5654   23.8229 C   0  0  0  0  0  0
  -21.3669   -5.6790   24.9184 C   0  0  0  0  0  0
  -21.6032   -4.3047   24.7232 C   0  0  0  0  0  0
  -21.8830   -3.8157   23.4349 C   0  0  0  0  0  0
  -21.9202   -4.6969   22.3410 C   0  0  0  0  0  0
  -22.7868  -13.5272   21.1794 C   0  0  0  0  0  0
  -22.1643   -4.2168   21.0969 F   0  0  0  0  0  0
  -21.5619   -3.4531   25.7721 F   0  0  0  0  0  0
  -30.0304  -13.3551   20.4461 N   0  0  0  0  0  0
  -26.3003  -12.9386   20.3308 N   0  0  0  0  0  0
  -25.9367  -11.6524   20.5743 N   0  0  0  0  0  0
  -22.0495  -12.8281   22.0355 N   0  0  0  0  0  0
  -25.4312  -15.1907   20.3992 N   0  0  0  0  0  0
  -31.8458  -14.6912   20.1048 O   0  0  0  0  0  0
  -21.6655   -6.8853   21.4224 O   0  0  0  0  0  0
  -22.3548  -14.5533   20.6609 O   0  0  0  0  0  0
  -24.6248  -31.8653   23.2082 C   0  0  0  0  0  0
  -25.9116  -32.4829   23.8418 C   0  0  1  0  0  0
  -27.2123  -27.3498   20.1252 C   0  0  0  0  0  0
  -25.5994  -33.8650   24.2342 N   0  0  0  0  0  0
  -23.4185  -30.4905   21.5434 C   0  0  2  0  0  0
  -24.8683  -28.9586   20.0982 C   0  0  0  0  0  0
  -22.7479  -29.4625   22.4899 C   0  0  0  0  0  0
  -18.0301  -28.1430   22.8471 C   0  0  0  0  0  0
  -24.1471  -36.7285   23.2619 C   0  0  0  0  0  0
  -25.9571  -30.8016   21.3769 C   0  0  0  0  0  0
  -26.0276  -29.4315   20.7226 C   0  0  0  0  0  0
  -27.2055  -28.6356   20.7339 C   0  0  0  0  0  0
  -26.0527  -26.9397   19.4291 C   0  0  0  0  0  0
  -24.8832  -27.7204   19.4314 C   0  0  0  0  0  0
  -23.6358  -29.8396   20.1531 C   0  0  0  0  0  0
  -25.4080  -36.3114   24.0325 C   0  0  1  0  0  0
  -20.5904  -28.3732   23.1296 C   0  0  2  0  0  0
  -20.6802  -26.9457   22.5416 C   0  0  0  0  0  0
  -19.5754  -26.6388   21.5262 C   0  0  0  0  0  0
  -18.1922  -26.7963   22.1630 C   0  0  0  0  0  0
  -19.1548  -28.8892   23.2887 C   0  0  0  0  0  0
  -18.9489  -30.1503   23.8911 C   0  0  0  0  0  0
  -17.6494  -30.6614   24.0603 C   0  0  0  0  0  0
  -25.9058  -34.9494   23.5102 C   0  0  0  0  0  0
  -16.5383  -29.9142   23.6339 C   0  0  0  0  0  0
  -16.7301  -28.6569   23.0334 C   0  0  0  0  0  0
  -26.4493  -31.6625   25.0772 C   0  0  0  0  0  0
  -25.3773  -31.3791   26.1538 C   0  0  0  0  0  0
  -27.0307  -30.3047   24.6171 C   0  0  0  0  0  0
  -27.6049  -32.4345   25.7574 C   0  0  0  0  0  0
  -27.5560  -37.1765   24.8441 C   0  0  0  0  0  0
  -21.4189  -29.3119   22.3701 N   0  0  0  0  0  0
  -26.4250  -37.3816   23.9430 N   0  0  0  0  0  0
  -24.6859  -31.0670   22.1021 N   0  0  0  0  0  0
  -23.4235  -28.8163   23.2959 O   0  0  0  0  0  0
  -28.3086  -26.4943   20.1993 O   0  0  0  0  0  0
  -26.5579  -34.8940   22.4646 O   0  0  0  0  0  0
  -23.5406  -32.1476   23.7398 O   0  0  0  0  0  0
  -29.6060  -19.0835   21.1012 C   0  0  0  0  0  0
  -30.7656  -20.6254   19.6083 C   0  0  0  0  0  0
  -31.7110  -18.4081   20.0774 C   0  0  0  0  0  0
  -29.6554  -20.3557   20.4372 C   0  0  0  0  0  0
  -30.6326  -18.0997   20.9348 C   0  0  0  0  0  0
  -31.7811  -19.6600   19.4282 C   0  0  0  0  0  0
  -28.5915  -23.3225   22.1116 C   0  0  0  0  0  0
  -28.4276  -24.8437   22.0948 C   0  0  0  0  0  0
  -28.7065  -23.9211   19.8854 C   0  0  0  0  0  0
  -28.0281  -25.1167   20.6364 C   0  0  2  0  0  0
  -28.4856  -21.3782   20.5245 C   0  0  0  0  0  0
  -30.6979  -16.7870   21.7648 C   0  0  0  0  0  0
  -28.7553  -22.8140   20.8710 N   0  0  0  0  0  0
  -30.0915  -15.5371   21.2346 N   0  0  0  0  0  0
  -28.4968  -22.6741   23.1599 O   0  0  0  0  0  0
  -33.1279  -20.0078   18.4048 Cl  0  0  0  0  0  0
  -31.4744  -12.4516   19.1453 H   0  0  0  0  0  0
  -30.2920  -11.3486   19.8317 H   0  0  0  0  0  0
  -29.7759  -11.8443   17.4208 H   0  0  0  0  0  0
  -29.6620  -13.5477   17.8024 H   0  0  0  0  0  0
  -27.8544  -11.3291   18.7855 H   0  0  0  0  0  0
  -27.3808  -12.6759   17.7799 H   0  0  0  0  0  0
  -27.6905  -14.2721   19.5814 H   0  0  0  0  0  0
  -28.6779  -12.0140   21.3750 H   0  0  0  0  0  0
  -28.4386  -13.6568   21.8558 H   0  0  0  0  0  0
  -25.2803   -9.5704   22.4729 H   0  0  0  0  0  0
  -24.0035   -7.4668   22.7527 H   0  0  0  0  0  0
  -21.0826   -8.8797   19.8977 H   0  0  0  0  0  0
  -22.3738  -10.9660   19.6157 H   0  0  0  0  0  0
  -21.2041   -7.6180   23.9721 H   0  0  0  0  0  0
  -21.1470   -6.0529   25.9062 H   0  0  0  0  0  0
  -22.0594   -2.7631   23.2859 H   0  0  0  0  0  0
  -22.4075  -11.9972   22.4810 H   0  0  0  0  0  0
  -21.1118  -13.1331   22.2498 H   0  0  0  0  0  0
  -24.6653  -15.8502   20.4657 H   0  0  0  0  0  0
  -26.2908  -15.6235   20.0870 H   0  0  0  0  0  0
  -26.7197  -32.5477   23.1176 H   0  0  0  0  0  0
  -25.0379  -33.9862   25.0646 H   0  0  0  0  0  0
  -22.7125  -31.3123   21.4070 H   0  0  0  0  0  0
  -23.3742  -35.9635   23.3365 H   0  0  0  0  0  0
  -24.3578  -36.8820   22.2031 H   0  0  0  0  0  0
  -23.7220  -37.6506   23.6596 H   0  0  0  0  0  0
  -26.0790  -31.5581   20.5991 H   0  0  0  0  0  0
  -26.8419  -30.8552   21.9998 H   0  0  0  0  0  0
  -28.0889  -28.9813   21.2523 H   0  0  0  0  0  0
  -26.0497  -26.0084   18.8778 H   0  0  0  0  0  0
  -24.0055  -27.3742   18.9009 H   0  0  0  0  0  0
  -23.7693  -30.6301   19.4141 H   0  0  0  0  0  0
  -22.7551  -29.2858   19.8315 H   0  0  0  0  0  0
  -25.1247  -36.1972   25.0819 H   0  0  0  0  0  0
  -21.0018  -28.3309   24.1413 H   0  0  0  0  0  0
  -20.5763  -26.2358   23.3642 H   0  0  0  0  0  0
  -21.6657  -26.7512   22.1179 H   0  0  0  0  0  0
  -19.6930  -25.6308   21.1277 H   0  0  0  0  0  0
  -19.6667  -27.3254   20.6858 H   0  0  0  0  0  0
  -17.4195  -26.6786   21.4016 H   0  0  0  0  0  0
  -18.0239  -26.0130   22.9042 H   0  0  0  0  0  0
  -19.7998  -30.7308   24.2224 H   0  0  0  0  0  0
  -17.5087  -31.6284   24.5248 H   0  0  0  0  0  0
  -15.5396  -30.3079   23.7667 H   0  0  0  0  0  0
  -15.8696  -28.0959   22.6989 H   0  0  0  0  0  0
  -24.5985  -30.7050   25.7918 H   0  0  0  0  0  0
  -24.8921  -32.3004   26.4830 H   0  0  0  0  0  0
  -25.8139  -30.9115   27.0386 H   0  0  0  0  0  0
  -26.2889  -29.6844   24.1114 H   0  0  0  0  0  0
  -27.4009  -29.7221   25.4612 H   0  0  0  0  0  0
  -27.8781  -30.4339   23.9424 H   0  0  0  0  0  0
  -27.2641  -33.3635   26.2162 H   0  0  0  0  0  0
  -28.3879  -32.6903   25.0426 H   0  0  0  0  0  0
  -28.0733  -31.8476   26.5484 H   0  0  0  0  0  0
  -28.2490  -38.0135   24.7597 H   0  0  0  0  0  0
  -28.1110  -36.2663   24.6109 H   0  0  0  0  0  0
  -27.2324  -37.1263   25.8851 H   0  0  0  0  0  0
  -20.9342  -29.8946   21.7013 H   0  0  0  0  0  0
  -26.0114  -38.2862   24.1563 H   0  0  0  0  0  0
  -28.7801  -18.8583   21.7602 H   0  0  0  0  0  0
  -30.8440  -21.5693   19.0851 H   0  0  0  0  0  0
  -32.5271  -17.7059   19.9521 H   0  0  0  0  0  0
  -29.3782  -25.3055   22.3575 H   0  0  0  0  0  0
  -27.6750  -25.1815   22.8074 H   0  0  0  0  0  0
  -29.7258  -24.1756   19.5895 H   0  0  0  0  0  0
  -28.1652  -23.6446   18.9759 H   0  0  0  0  0  0
  -26.9537  -24.9042   20.5987 H   0  0  0  0  0  0
  -27.7643  -20.9731   21.2380 H   0  0  0  0  0  0
  -27.9465  -21.3384   19.5734 H   0  0  0  0  0  0
  -30.2826  -16.9797   22.7593 H   0  0  0  0  0  0
  -31.7552  -16.5884   21.9581 H   0  0  0  0  0  0
  -29.1687  -15.3115   21.5733 H   0  0  0  0  0  0
  1 25  1  0  0  0
  1 30  2  0  0  0
  1 84  1  0  0  0
  2  3  1  0  0  0
  2 25  1  0  0  0
  2 87  1  0  0  0
  2 88  1  0  0  0
  3  4  1  0  0  0
  3 89  1  0  0  0
  3 90  1  0  0  0
  4  5  1  0  0  0
  4 91  1  0  0  0
  4 92  1  0  0  0
  5  6  1  0  0  0
  5 26  1  0  0  0
  5 93  1  0  0  0
  6 25  1  0  0  0
  6 94  1  0  0  0
  6 95  1  0  0  0
  7  8  2  0  0  0
  7 26  1  0  0  0
  7 29  1  0  0  0
  8  9  1  0  0  0
  8 22  1  0  0  0
  9 10  1  0  0  0
  9 27  2  0  0  0
 10 11  2  0  0  0
 10 15  1  0  0  0
 11 12  1  0  0  0
 11 96  1  0  0  0
 12 13  2  0  0  0
 12 97  1  0  0  0
 13 14  1  0  0  0
 13 31  1  0  0  0
 14 15  2  0  0  0
 14 98  1  0  0  0
 15 99  1  0  0  0
 16 17  2  0  0  0
 16 21  1  0  0  0
 16 31  1  0  0  0
 17 18  1  0  0  0
 17100  1  0  0  0
 18 19  2  0  0  0
 18101  1  0  0  0
 19 20  1  0  0  0
 19 24  1  0  0  0
 20 21  2  0  0  0
 20102  1  0  0  0
 21 23  1  0  0  0
 22 28  1  0  0  0
 22 32  2  0  0  0
 26 27  1  0  0  0
 28103  1  0  0  0
 28104  1  0  0  0
 29105  1  0  0  0
 29106  1  0  0  0
 33 34  1  0  0  0
 33 66  1  0  0  0
 33 70  2  0  0  0
 34 36  1  0  0  0
 34 59  1  0  0  0
 34107  1  0  0  0
 35 44  2  0  0  0
 35 45  1  0  0  0
 35 68  1  0  0  0
 36 56  1  0  0  0
 36108  1  0  0  0
 37 39  1  0  0  0
 37 47  1  0  0  0
 37 66  1  0  0  0
 37109  1  0  0  0
 38 43  2  0  0  0
 38 46  1  0  0  0
 38 47  1  0  0  0
 39 64  1  0  0  0
 39 67  2  0  0  0
 40 52  1  0  0  0
 40 53  2  0  0  0
 40 58  1  0  0  0
 41110  1  0  0  0
 41111  1  0  0  0
 41112  1  0  0  0
 41 48  1  0  0  0
 42 43  1  0  0  0
 42 66  1  0  0  0
 42113  1  0  0  0
 42114  1  0  0  0
 43 44  1  0  0  0
 44115  1  0  0  0
 45 46  2  0  0  0
 45116  1  0  0  0
 46117  1  0  0  0
 47118  1  0  0  0
 47119  1  0  0  0
 48 56  1  0  0  0
 48 65  1  0  0  0
 48120  1  0  0  0
 49 50  1  0  0  0
 49 53  1  0  0  0
 49 64  1  0  0  0
 49121  1  0  0  0
 50 51  1  0  0  0
 50122  1  0  0  0
 50123  1  0  0  0
 51 52  1  0  0  0
 51124  1  0  0  0
 51125  1  0  0  0
 52126  1  0  0  0
 52127  1  0  0  0
 53 54  1  0  0  0
 54 55  2  0  0  0
 54128  1  0  0  0
 55 57  1  0  0  0
 55129  1  0  0  0
 56 69  2  0  0  0
 57 58  2  0  0  0
 57130  1  0  0  0
 58131  1  0  0  0
 59 60  1  0  0  0
 59 61  1  0  0  0
 59 62  1  0  0  0
 60132  1  0  0  0
 60133  1  0  0  0
 60134  1  0  0  0
 61135  1  0  0  0
 61136  1  0  0  0
 61137  1  0  0  0
 62138  1  0  0  0
 62139  1  0  0  0
 62140  1  0  0  0
 63 65  1  0  0  0
 63141  1  0  0  0
 63142  1  0  0  0
 63143  1  0  0  0
 64144  1  0  0  0
 65145  1  0  0  0
 68 80  1  0  0  0
 71 74  2  0  0  0
 71 75  1  0  0  0
 71146  1  0  0  0
 72 74  1  0  0  0
 72 76  2  0  0  0
 72147  1  0  0  0
 73 75  2  0  0  0
 73 76  1  0  0  0
 73148  1  0  0  0
 74 81  1  0  0  0
 75 82  1  0  0  0
 76 86  1  0  0  0
 77 78  1  0  0  0
 77 83  1  0  0  0
 77 85  2  0  0  0
 78 80  1  0  0  0
 78149  1  0  0  0
 78150  1  0  0  0
 79 80  1  0  0  0
 79 83  1  0  0  0
 79151  1  0  0  0
 79152  1  0  0  0
 80153  1  0  0  0
 81 83  1  0  0  0
 81154  1  0  0  0
 81155  1  0  0  0
 82 84  1  0  0  0
 82156  1  0  0  0
 82157  1  0  0  0
 84158  1  0  0  0
M  ISO  4   1 100  68 101  80 101  84 100
M  END
> <chiral flag>
0

> <version>
0

> <s_m_source_file>
/data/baiqing/PycharmProjects/Reinvent-master-3.2/result/LINK_invent/BTK/process_docking_weight1_custom_product_contain_oxygen_bond_distance_aromatic_linkinvent_7_9_3/rearranged_h_0032.sdf

> <i_m_source_file_index>
7

> <r_mmod_Potential_Energy-OPLS-2005>
-43.624095916748

> <r_mmod_Stretch_Energy-OPLS-2005>
62.4622077941895

> <r_mmod_Bend_Energy-OPLS-2005>
149.020309448242

> <r_mmod_Torsional_Energy-OPLS-2005>
242.853881835938

> <r_mmod_Improper_Torsional_Energy-OPLS-2005>
4.95502042770386

> <r_mmod_Van_der_Waal_Energy-OPLS-2005>
136.017929077148

> <r_mmod_Electrostatic_Energy-OPLS-2005>
-435.385131835938

> <r_mmod_Solvation_Energy-OPLS-2005>
-236.539886474609

> <b_mmod_Minimization_Converged-OPLS-2005>
0

> <r_mmod_RMS_Derivative-OPLS-2005>
7.93875074386597

$$$$
7
                    3D
 Structure written by MMmdl.
157166  0  0  1  0            999 V2000
  -30.5864  -14.8195   20.4236 C   0  0  0  0  0  0
  -30.4296  -12.4977   19.4895 C   0  0  0  0  0  0
  -29.5115  -12.5104   18.2467 C   0  0  0  0  0  0
  -28.0401  -12.3224   18.6615 C   0  0  0  0  0  0
  -27.6353  -13.2393   19.8463 C   0  0  2  0  0  0
  -28.6771  -13.2155   20.9850 C   0  0  0  0  0  0
  -25.2484  -13.8211   20.5698 C   0  0  0  0  0  0
  -24.1789  -13.0445   20.9218 C   0  0  0  0  0  0
  -24.6395  -11.6925   20.8764 C   0  0  0  0  0  0
  -23.9074  -10.4297   21.0420 C   0  0  0  0  0  0
  -24.3624   -9.4206   21.9192 C   0  0  0  0  0  0
  -23.6301   -8.2241   22.0755 C   0  0  0  0  0  0
  -22.4280   -8.0287   21.3546 C   0  0  0  0  0  0
  -21.9921   -9.0255   20.4642 C   0  0  0  0  0  0
  -22.7251  -10.2137   20.3060 C   0  0  0  0  0  0
  -21.6853   -6.0740   22.5275 C   0  0  0  0  0  0
  -21.4013   -6.5640   23.8210 C   0  0  0  0  0  0
  -21.3662   -5.6790   24.9172 C   0  0  0  0  0  0
  -21.6044   -4.3054   24.7218 C   0  0  0  0  0  0
  -21.8818   -3.8149   23.4339 C   0  0  0  0  0  0
  -21.9193   -4.6968   22.3397 C   0  0  0  0  0  0
  -22.7809  -13.5219   21.1872 C   0  0  0  0  0  0
  -22.1660   -4.2154   21.0974 F   0  0  0  0  0  0
  -21.5631   -3.4535   25.7732 F   0  0  0  0  0  0
  -29.9698  -13.5817   20.3961 N   0  0  0  0  0  0
  -26.2907  -12.9430   20.3271 N   0  0  0  0  0  0
  -25.9327  -11.6568   20.5766 N   0  0  0  0  0  0
  -22.0459  -12.8199   22.0422 N   0  0  0  0  0  0
  -25.4170  -15.1935   20.4082 N   0  0  0  0  0  0
  -31.7888  -14.8684   20.1473 O   0  0  0  0  0  0
  -21.6645   -6.8887   21.4240 O   0  0  0  0  0  0
  -22.3485  -14.5526   20.6729 O   0  0  0  0  0  0
  -24.6353  -31.8500   23.1942 C   0  0  0  0  0  0
  -25.9157  -32.4725   23.8312 C   0  0  1  0  0  0
  -27.2176  -27.2170   20.1422 C   0  0  0  0  0  0
  -25.5936  -33.8532   24.2238 N   0  0  0  0  0  0
  -23.4347  -30.4717   21.5364 C   0  0  2  0  0  0
  -24.8812  -28.9099   20.1068 C   0  0  0  0  0  0
  -22.7524  -29.4577   22.4876 C   0  0  0  0  0  0
  -18.0302  -28.1378   22.8491 C   0  0  0  0  0  0
  -24.1488  -36.7269   23.2651 C   0  0  0  0  0  0
  -25.9832  -30.7502   21.3788 C   0  0  0  0  0  0
  -26.0531  -29.3688   20.7213 C   0  0  0  0  0  0
  -27.2206  -28.5354   20.7252 C   0  0  0  0  0  0
  -26.0221  -26.8316   19.4977 C   0  0  0  0  0  0
  -24.8745  -27.6517   19.4834 C   0  0  0  0  0  0
  -23.6548  -29.8033   20.1527 C   0  0  0  0  0  0
  -25.4114  -36.3052   24.0334 C   0  0  1  0  0  0
  -20.5914  -28.3691   23.1254 C   0  0  2  0  0  0
  -20.6779  -26.9398   22.5413 C   0  0  0  0  0  0
  -19.5754  -26.6372   21.5219 C   0  0  0  0  0  0
  -18.1933  -26.7926   22.1621 C   0  0  0  0  0  0
  -19.1562  -28.8850   23.2871 C   0  0  0  0  0  0
  -18.9485  -30.1452   23.8884 C   0  0  0  0  0  0
  -17.6482  -30.6576   24.0560 C   0  0  0  0  0  0
  -25.9054  -34.9424   23.5089 C   0  0  0  0  0  0
  -16.5368  -29.9073   23.6332 C   0  0  0  0  0  0
  -16.7288  -28.6493   23.0355 C   0  0  0  0  0  0
  -26.4516  -31.6570   25.0720 C   0  0  0  0  0  0
  -25.3739  -31.3741   26.1441 C   0  0  0  0  0  0
  -27.0374  -30.2988   24.6232 C   0  0  0  0  0  0
  -27.6062  -32.4329   25.7491 C   0  0  0  0  0  0
  -27.5577  -37.1786   24.8467 C   0  0  0  0  0  0
  -21.4226  -29.3039   22.3629 N   0  0  0  0  0  0
  -26.4281  -37.3760   23.9419 N   0  0  0  0  0  0
  -24.7041  -31.0436   22.0924 N   0  0  0  0  0  0
  -23.4211  -28.8121   23.2988 O   0  0  0  0  0  0
  -28.3090  -26.3105   20.2349 O   0  0  0  0  0  0
  -26.5636  -34.8914   22.4668 O   0  0  0  0  0  0
  -23.5494  -32.1326   23.7210 O   0  0  0  0  0  0
  -31.1123  -17.6892   19.2824 C   0  0  0  0  0  0
  -31.4446  -18.9911   18.8778 C   0  0  0  0  0  0
  -29.3371  -18.6342   20.6512 C   0  0  0  0  0  0
  -29.6595  -20.0249   20.2350 C   0  0  0  0  0  0
  -30.0776  -17.4319   20.2069 C   0  0  0  0  0  0
  -30.7675  -20.1288   19.3525 C   0  0  0  0  0  0
  -27.6085  -23.6608   20.5752 C   0  0  0  0  0  0
  -29.4920  -23.9235   19.9888 C   0  0  0  0  0  0
  -28.2463  -24.8583   19.7792 C   0  0  2  0  0  0
  -28.1846  -18.4310   21.6240 C   0  0  0  0  0  0
  -28.9836  -21.3984   20.8190 C   0  0  0  0  0  0
  -29.8184  -15.9892   20.5867 N   0  0  0  0  0  0
  -28.6216  -22.6936   20.0101 N   0  3  1  0  0  0
  -31.3970  -21.6452   18.8310 Cl  0  0  0  0  0  0
  -31.4699  -12.6243   19.1851 H   0  0  0  0  0  0
  -30.3843  -11.5321   19.9958 H   0  0  0  0  0  0
  -29.8068  -11.7249   17.5499 H   0  0  0  0  0  0
  -29.6250  -13.4545   17.7112 H   0  0  0  0  0  0
  -27.9122  -11.2768   18.9460 H   0  0  0  0  0  0
  -27.3796  -12.4889   17.8096 H   0  0  0  0  0  0
  -27.6169  -14.2528   19.4445 H   0  0  0  0  0  0
  -28.7286  -12.2295   21.4483 H   0  0  0  0  0  0
  -28.3999  -13.9137   21.7762 H   0  0  0  0  0  0
  -25.2772   -9.5682   22.4764 H   0  0  0  0  0  0
  -24.0008   -7.4632   22.7471 H   0  0  0  0  0  0
  -21.0856   -8.8778   19.8940 H   0  0  0  0  0  0
  -22.3715  -10.9679   19.6167 H   0  0  0  0  0  0
  -21.2004   -7.6149   23.9716 H   0  0  0  0  0  0
  -21.1483   -6.0519   25.9075 H   0  0  0  0  0  0
  -22.0597   -2.7610   23.2832 H   0  0  0  0  0  0
  -22.4086  -11.9861   22.4805 H   0  0  0  0  0  0
  -21.1071  -13.1206   22.2639 H   0  0  0  0  0  0
  -24.6427  -15.8423   20.5008 H   0  0  0  0  0  0
  -26.2511  -15.6251   20.0321 H   0  0  0  0  0  0
  -26.7222  -32.5350   23.1045 H   0  0  0  0  0  0
  -25.0084  -33.9671   25.0386 H   0  0  0  0  0  0
  -22.7346  -31.2955   21.3869 H   0  0  0  0  0  0
  -23.3765  -35.9585   23.3287 H   0  0  0  0  0  0
  -24.3584  -36.8913   22.2071 H   0  0  0  0  0  0
  -23.7227  -37.6461   23.6682 H   0  0  0  0  0  0
  -26.1314  -31.5082   20.6082 H   0  0  0  0  0  0
  -26.8579  -30.7957   22.0153 H   0  0  0  0  0  0
  -28.1154  -28.8821   21.2233 H   0  0  0  0  0  0
  -25.9408  -25.8648   19.0245 H   0  0  0  0  0  0
  -23.9758  -27.2940   18.9992 H   0  0  0  0  0  0
  -23.7865  -30.5786   19.3972 H   0  0  0  0  0  0
  -22.7704  -29.2433   19.8434 H   0  0  0  0  0  0
  -25.1306  -36.1886   25.0828 H   0  0  0  0  0  0
  -21.0019  -28.3253   24.1368 H   0  0  0  0  0  0
  -20.5671  -26.2299   23.3627 H   0  0  0  0  0  0
  -21.6643  -26.7399   22.1212 H   0  0  0  0  0  0
  -19.6914  -25.6292   21.1233 H   0  0  0  0  0  0
  -19.6686  -27.3187   20.6758 H   0  0  0  0  0  0
  -17.4211  -26.6698   21.4005 H   0  0  0  0  0  0
  -18.0307  -26.0064   22.9012 H   0  0  0  0  0  0
  -19.7962  -30.7279   24.2232 H   0  0  0  0  0  0
  -17.5035  -31.6252   24.5165 H   0  0  0  0  0  0
  -15.5371  -30.2972   23.7665 H   0  0  0  0  0  0
  -15.8689  -28.0804   22.7079 H   0  0  0  0  0  0
  -24.5907  -30.7086   25.7791 H   0  0  0  0  0  0
  -24.8943  -32.2919   26.4851 H   0  0  0  0  0  0
  -25.8061  -30.8938   27.0226 H   0  0  0  0  0  0
  -26.2957  -29.6717   24.1265 H   0  0  0  0  0  0
  -27.4073  -29.7271   25.4757 H   0  0  0  0  0  0
  -27.8828  -30.4291   23.9472 H   0  0  0  0  0  0
  -27.2671  -33.3671   26.1984 H   0  0  0  0  0  0
  -28.3906  -32.6811   25.0327 H   0  0  0  0  0  0
  -28.0674  -31.8496   26.5473 H   0  0  0  0  0  0
  -28.2582  -38.0094   24.7519 H   0  0  0  0  0  0
  -28.1081  -36.2626   24.6271 H   0  0  0  0  0  0
  -27.2294  -37.1403   25.8868 H   0  0  0  0  0  0
  -20.9401  -29.8780   21.6854 H   0  0  0  0  0  0
  -26.0152  -38.2829   24.1431 H   0  0  0  0  0  0
  -31.6925  -16.8881   18.8525 H   0  0  0  0  0  0
  -32.2681  -19.1246   18.1907 H   0  0  0  0  0  0
  -26.5821  -23.4320   20.2873 H   0  0  0  0  0  0
  -27.6832  -23.7729   21.6600 H   0  0  0  0  0  0
  -30.0109  -24.0955   20.9350 H   0  0  0  0  0  0
  -30.1873  -23.9780   19.1535 H   0  0  0  0  0  0
  -27.9501  -24.8269   18.7281 H   0  0  0  0  0  0
  -28.3440  -19.0065   22.5362 H   0  0  0  0  0  0
  -28.0635  -17.3898   21.9188 H   0  0  0  0  0  0
  -27.2448  -18.7505   21.1725 H   0  0  0  0  0  0
  -29.5904  -21.7087   21.6691 H   0  0  0  0  0  0
  -28.0369  -21.0909   21.2593 H   0  0  0  0  0  0
  -28.8876  -15.8051   20.9282 H   0  0  0  0  0  0
  -28.3322  -22.4429   19.0774 H   0  0  0  0  0  0
  1 25  1  0  0  0
  1 30  2  0  0  0
  1 82  1  0  0  0
  2  3  1  0  0  0
  2 25  1  0  0  0
  2 85  1  0  0  0
  2 86  1  0  0  0
  3  4  1  0  0  0
  3 87  1  0  0  0
  3 88  1  0  0  0
  4  5  1  0  0  0
  4 89  1  0  0  0
  4 90  1  0  0  0
  5  6  1  0  0  0
  5 26  1  0  0  0
  5 91  1  0  0  0
  6 25  1  0  0  0
  6 92  1  0  0  0
  6 93  1  0  0  0
  7  8  2  0  0  0
  7 26  1  0  0  0
  7 29  1  0  0  0
  8  9  1  0  0  0
  8 22  1  0  0  0
  9 10  1  0  0  0
  9 27  2  0  0  0
 10 11  2  0  0  0
 10 15  1  0  0  0
 11 12  1  0  0  0
 11 94  1  0  0  0
 12 13  2  0  0  0
 12 95  1  0  0  0
 13 14  1  0  0  0
 13 31  1  0  0  0
 14 15  2  0  0  0
 14 96  1  0  0  0
 15 97  1  0  0  0
 16 17  2  0  0  0
 16 21  1  0  0  0
 16 31  1  0  0  0
 17 18  1  0  0  0
 17 98  1  0  0  0
 18 19  2  0  0  0
 18 99  1  0  0  0
 19 20  1  0  0  0
 19 24  1  0  0  0
 20 21  2  0  0  0
 20100  1  0  0  0
 21 23  1  0  0  0
 22 28  1  0  0  0
 22 32  2  0  0  0
 26 27  1  0  0  0
 28101  1  0  0  0
 28102  1  0  0  0
 29103  1  0  0  0
 29104  1  0  0  0
 33 34  1  0  0  0
 33 66  1  0  0  0
 33 70  2  0  0  0
 34 36  1  0  0  0
 34 59  1  0  0  0
 34105  1  0  0  0
 35 44  2  0  0  0
 35 45  1  0  0  0
 35 68  1  0  0  0
 36 56  1  0  0  0
 36106  1  0  0  0
 37 39  1  0  0  0
 37 47  1  0  0  0
 37 66  1  0  0  0
 37107  1  0  0  0
 38 43  2  0  0  0
 38 46  1  0  0  0
 38 47  1  0  0  0
 39 64  1  0  0  0
 39 67  2  0  0  0
 40 52  1  0  0  0
 40 53  2  0  0  0
 40 58  1  0  0  0
 41108  1  0  0  0
 41109  1  0  0  0
 41110  1  0  0  0
 41 48  1  0  0  0
 42 43  1  0  0  0
 42 66  1  0  0  0
 42111  1  0  0  0
 42112  1  0  0  0
 43 44  1  0  0  0
 44113  1  0  0  0
 45 46  2  0  0  0
 45114  1  0  0  0
 46115  1  0  0  0
 47116  1  0  0  0
 47117  1  0  0  0
 48 56  1  0  0  0
 48 65  1  0  0  0
 48118  1  0  0  0
 49 50  1  0  0  0
 49 53  1  0  0  0
 49 64  1  0  0  0
 49119  1  0  0  0
 50 51  1  0  0  0
 50120  1  0  0  0
 50121  1  0  0  0
 51 52  1  0  0  0
 51122  1  0  0  0
 51123  1  0  0  0
 52124  1  0  0  0
 52125  1  0  0  0
 53 54  1  0  0  0
 54 55  2  0  0  0
 54126  1  0  0  0
 55 57  1  0  0  0
 55127  1  0  0  0
 56 69  2  0  0  0
 57 58  2  0  0  0
 57128  1  0  0  0
 58129  1  0  0  0
 59 60  1  0  0  0
 59 61  1  0  0  0
 59 62  1  0  0  0
 60130  1  0  0  0
 60131  1  0  0  0
 60132  1  0  0  0
 61133  1  0  0  0
 61134  1  0  0  0
 61135  1  0  0  0
 62136  1  0  0  0
 62137  1  0  0  0
 62138  1  0  0  0
 63 65  1  0  0  0
 63139  1  0  0  0
 63140  1  0  0  0
 63141  1  0  0  0
 64142  1  0  0  0
 65143  1  0  0  0
 68 79  1  0  0  0
 71 72  2  0  0  0
 71 75  1  0  0  0
 71144  1  0  0  0
 72 76  1  0  0  0
 72145  1  0  0  0
 73 74  1  0  0  0
 73 75  2  0  0  0
 73 80  1  0  0  0
 74 76  2  0  0  0
 74 81  1  0  0  0
 75 82  1  0  0  0
 76 84  1  0  0  0
 77 79  1  0  0  0
 77 83  1  0  0  0
 77146  1  0  0  0
 77147  1  0  0  0
 78 79  1  0  0  0
 78 83  1  0  0  0
 78148  1  0  0  0
 78149  1  0  0  0
 79150  1  0  0  0
 80151  1  0  0  0
 80152  1  0  0  0
 80153  1  0  0  0
 81154  1  0  0  0
 81155  1  0  0  0
 81 83  1  0  0  0
 82156  1  0  0  0
 83157  1  0  0  0
M  CHG  1  83   1
M  ISO  4   1 100  68 101  79 101  82 100
M  END
> <chiral flag>
0

> <version>
0

> <s_m_source_file>
/data/baiqing/PycharmProjects/Reinvent-master-3.2/result/LINK_invent/BTK/process_docking_weight1_custom_product_contain_oxygen_bond_distance_aromatic_linkinvent_7_9_3/rearranged_h_0032.sdf

> <i_m_source_file_index>
8

> <r_mmod_Potential_Energy-OPLS-2005>
59.2580223083496

> <r_mmod_Stretch_Energy-OPLS-2005>
173.689605712891

> <r_mmod_Bend_Energy-OPLS-2005>
233.980453491211

> <r_mmod_Torsional_Energy-OPLS-2005>
222.434829711914

> <r_mmod_Improper_Torsional_Energy-OPLS-2005>
4.79869079589844

> <r_mmod_Van_der_Waal_Energy-OPLS-2005>
143.582275390625

> <r_mmod_Electrostatic_Energy-OPLS-2005>
-368.038116455078

> <r_mmod_Solvation_Energy-OPLS-2005>
-469.615509033203

> <b_mmod_Minimization_Converged-OPLS-2005>
0

> <r_mmod_RMS_Derivative-OPLS-2005>
1.42068231105804

$$$$
8
                    3D
 Structure written by MMmdl.
157165  0  0  1  0            999 V2000
  -30.6182  -14.6453   20.5027 C   0  0  0  0  0  0
  -30.4403  -12.3958   19.4537 C   0  0  0  0  0  0
  -29.5083  -12.5094   18.2261 C   0  0  0  0  0  0
  -28.0313  -12.3465   18.6377 C   0  0  0  0  0  0
  -27.6548  -13.2165   19.8665 C   0  0  2  0  0  0
  -28.6997  -13.0660   20.9956 C   0  0  0  0  0  0
  -25.2564  -13.8170   20.5677 C   0  0  0  0  0  0
  -24.1834  -13.0437   20.9193 C   0  0  0  0  0  0
  -24.6400  -11.6907   20.8746 C   0  0  0  0  0  0
  -23.9066  -10.4290   21.0409 C   0  0  0  0  0  0
  -24.3618   -9.4206   21.9187 C   0  0  0  0  0  0
  -23.6292   -8.2243   22.0757 C   0  0  0  0  0  0
  -22.4275   -8.0282   21.3547 C   0  0  0  0  0  0
  -21.9911   -9.0255   20.4649 C   0  0  0  0  0  0
  -22.7239  -10.2134   20.3059 C   0  0  0  0  0  0
  -21.6851   -6.0738   22.5279 C   0  0  0  0  0  0
  -21.4013   -6.5642   23.8212 C   0  0  0  0  0  0
  -21.3659   -5.6795   24.9175 C   0  0  0  0  0  0
  -21.6043   -4.3058   24.7225 C   0  0  0  0  0  0
  -21.8819   -3.8150   23.4346 C   0  0  0  0  0  0
  -21.9191   -4.6967   22.3403 C   0  0  0  0  0  0
  -22.7855  -13.5233   21.1849 C   0  0  0  0  0  0
  -22.1661   -4.2153   21.0980 F   0  0  0  0  0  0
  -21.5628   -3.4541   25.7737 F   0  0  0  0  0  0
  -30.0156  -13.4147   20.4352 N   0  0  0  0  0  0
  -26.2997  -12.9352   20.3332 N   0  0  0  0  0  0
  -25.9331  -11.6507   20.5772 N   0  0  0  0  0  0
  -22.0495  -12.8229   22.0406 N   0  0  0  0  0  0
  -25.4256  -15.1886   20.4053 N   0  0  0  0  0  0
  -31.7738  -14.8115   20.1002 O   0  0  0  0  0  0
  -21.6638   -6.8881   21.4241 O   0  0  0  0  0  0
  -22.3541  -14.5537   20.6693 O   0  0  0  0  0  0
  -24.6264  -31.8599   23.2017 C   0  0  0  0  0  0
  -25.9113  -32.4780   23.8345 C   0  0  1  0  0  0
  -27.2262  -27.3189   20.1148 C   0  0  0  0  0  0
  -25.5928  -33.8579   24.2271 N   0  0  0  0  0  0
  -23.4200  -30.4838   21.5446 C   0  0  2  0  0  0
  -24.8666  -28.9387   20.1110 C   0  0  0  0  0  0
  -22.7479  -29.4623   22.4927 C   0  0  0  0  0  0
  -18.0290  -28.1385   22.8481 C   0  0  0  0  0  0
  -24.1495  -36.7289   23.2640 C   0  0  0  0  0  0
  -25.9618  -30.7905   21.3732 C   0  0  0  0  0  0
  -26.0360  -29.4184   20.7137 C   0  0  0  0  0  0
  -27.2186  -28.6207   20.7044 C   0  0  0  0  0  0
  -26.0305  -26.8904   19.4920 C   0  0  0  0  0  0
  -24.8653  -27.6798   19.4923 C   0  0  0  0  0  0
  -23.6352  -29.8197   20.1597 C   0  0  0  0  0  0
  -25.4121  -36.3084   24.0332 C   0  0  1  0  0  0
  -20.5891  -28.3688   23.1280 C   0  0  2  0  0  0
  -20.6780  -26.9411   22.5409 C   0  0  0  0  0  0
  -19.5756  -26.6382   21.5212 C   0  0  0  0  0  0
  -18.1934  -26.7927   22.1623 C   0  0  0  0  0  0
  -19.1543  -28.8852   23.2874 C   0  0  0  0  0  0
  -18.9469  -30.1452   23.8892 C   0  0  0  0  0  0
  -17.6470  -30.6585   24.0563 C   0  0  0  0  0  0
  -25.9057  -34.9454   23.5102 C   0  0  0  0  0  0
  -16.5358  -29.9086   23.6331 C   0  0  0  0  0  0
  -16.7278  -28.6507   23.0345 C   0  0  0  0  0  0
  -26.4495  -31.6594   25.0715 C   0  0  0  0  0  0
  -25.3722  -31.3739   26.1438 C   0  0  0  0  0  0
  -27.0341  -30.3021   24.6170 C   0  0  0  0  0  0
  -27.6054  -32.4329   25.7489 C   0  0  0  0  0  0
  -27.5584  -37.1801   24.8467 C   0  0  0  0  0  0
  -21.4193  -29.3042   22.3675 N   0  0  0  0  0  0
  -26.4299  -37.3778   23.9410 N   0  0  0  0  0  0
  -24.6882  -31.0611   22.0968 N   0  0  0  0  0  0
  -23.4203  -28.8160   23.3006 O   0  0  0  0  0  0
  -28.3496  -26.4765   20.1612 O   0  0  0  0  0  0
  -26.5624  -34.8922   22.4665 O   0  0  0  0  0  0
  -23.5426  -32.1400   23.7344 O   0  0  0  0  0  0
  -30.8259  -19.2389   19.8477 C   0  0  0  0  0  0
  -30.8207  -17.8207   19.9632 C   0  0  0  0  0  0
  -29.9146  -20.0893   20.5353 C   0  0  0  0  0  0
  -28.9622  -19.4186   21.3694 C   0  0  0  0  0  0
  -28.9238  -17.9747   21.4473 C   0  0  0  0  0  0
  -29.8771  -17.1428   20.7723 C   0  0  0  0  0  0
  -30.1419  -21.6249   20.4632 C   0  0  0  0  0  0
  -28.0019  -20.2398   22.2322 C   0  0  0  0  0  0
  -27.8467  -17.3040   22.2998 C   0  0  0  0  0  0
  -29.3542  -24.0497   20.3986 C   0  0  0  0  0  0
  -28.1424  -25.0125   20.0434 C   0  0  0  0  0  0
  -29.8157  -15.6803   20.9111 N   0  0  0  0  0  0
  -29.1356  -22.5503   20.3741 N   0  0  0  0  0  0
  -31.3113  -22.0154   20.4603 O   0  0  0  0  0  0
  -31.4807  -12.5245   19.1501 H   0  0  0  0  0  0
  -30.3797  -11.3991   19.8935 H   0  0  0  0  0  0
  -29.7728  -11.7579   17.4811 H   0  0  0  0  0  0
  -29.6490  -13.4788   17.7455 H   0  0  0  0  0  0
  -27.8677  -11.2932   18.8681 H   0  0  0  0  0  0
  -27.3765  -12.5777   17.7964 H   0  0  0  0  0  0
  -27.6747  -14.2525   19.5283 H   0  0  0  0  0  0
  -28.7128  -12.0413   21.3702 H   0  0  0  0  0  0
  -28.4426  -13.6891   21.8532 H   0  0  0  0  0  0
  -25.2763   -9.5682   22.4761 H   0  0  0  0  0  0
  -24.0001   -7.4636   22.7478 H   0  0  0  0  0  0
  -21.0842   -8.8777   19.8956 H   0  0  0  0  0  0
  -22.3700  -10.9676   19.6170 H   0  0  0  0  0  0
  -21.2005   -7.6150   23.9717 H   0  0  0  0  0  0
  -21.1480   -6.0525   25.9077 H   0  0  0  0  0  0
  -22.0598   -2.7613   23.2845 H   0  0  0  0  0  0
  -22.4109  -11.9890   22.4793 H   0  0  0  0  0  0
  -21.1116  -13.1265   22.2613 H   0  0  0  0  0  0
  -24.6520  -15.8369   20.5023 H   0  0  0  0  0  0
  -26.2623  -15.6246   20.0397 H   0  0  0  0  0  0
  -26.7179  -32.5451   23.1091 H   0  0  0  0  0  0
  -25.0085  -33.9724   25.0423 H   0  0  0  0  0  0
  -22.7138  -31.3041   21.4014 H   0  0  0  0  0  0
  -23.3761  -35.9617   23.3307 H   0  0  0  0  0  0
  -24.3584  -36.8903   22.2052 H   0  0  0  0  0  0
  -23.7243  -37.6490   23.6658 H   0  0  0  0  0  0
  -26.0951  -31.5550   20.6063 H   0  0  0  0  0  0
  -26.8413  -30.8367   22.0037 H   0  0  0  0  0  0
  -28.1157  -28.9851   21.1849 H   0  0  0  0  0  0
  -25.9658  -25.9293   19.0052 H   0  0  0  0  0  0
  -23.9685  -27.3049   19.0183 H   0  0  0  0  0  0
  -23.7561  -30.5968   19.4042 H   0  0  0  0  0  0
  -22.7549  -29.2510   19.8559 H   0  0  0  0  0  0
  -25.1301  -36.1938   25.0826 H   0  0  0  0  0  0
  -20.9983  -28.3264   24.1402 H   0  0  0  0  0  0
  -20.5690  -26.2295   23.3608 H   0  0  0  0  0  0
  -21.6648  -26.7442   22.1197 H   0  0  0  0  0  0
  -19.6921  -25.6293   21.1240 H   0  0  0  0  0  0
  -19.6699  -27.3193   20.6743 H   0  0  0  0  0  0
  -17.4205  -26.6673   21.4024 H   0  0  0  0  0  0
  -18.0331  -26.0072   22.9022 H   0  0  0  0  0  0
  -19.7946  -30.7265   24.2261 H   0  0  0  0  0  0
  -17.5028  -31.6268   24.5161 H   0  0  0  0  0  0
  -15.5358  -30.2987   23.7659 H   0  0  0  0  0  0
  -15.8679  -28.0829   22.7054 H   0  0  0  0  0  0
  -24.5896  -30.7093   25.7762 H   0  0  0  0  0  0
  -24.8913  -32.2910   26.4851 H   0  0  0  0  0  0
  -25.8033  -30.8920   27.0222 H   0  0  0  0  0  0
  -26.2915  -29.6769   24.1198 H   0  0  0  0  0  0
  -27.4051  -29.7279   25.4670 H   0  0  0  0  0  0
  -27.8778  -30.4314   23.9387 H   0  0  0  0  0  0
  -27.2667  -33.3633   26.2061 H   0  0  0  0  0  0
  -28.3868  -32.6886   25.0320 H   0  0  0  0  0  0
  -28.0721  -31.8458   26.5410 H   0  0  0  0  0  0
  -28.2602  -38.0097   24.7509 H   0  0  0  0  0  0
  -28.1076  -36.2626   24.6300 H   0  0  0  0  0  0
  -27.2295  -37.1455   25.8867 H   0  0  0  0  0  0
  -20.9367  -29.8773   21.6895 H   0  0  0  0  0  0
  -26.0182  -38.2854   24.1404 H   0  0  0  0  0  0
  -31.5874  -19.6907   19.2264 H   0  0  0  0  0  0
  -31.5626  -17.2618   19.4110 H   0  0  0  0  0  0
  -28.4358  -21.1868   22.5495 H   0  0  0  0  0  0
  -27.7406  -19.7329   23.1601 H   0  0  0  0  0  0
  -27.0810  -20.4483   21.6875 H   0  0  0  0  0  0
  -26.8928  -17.8248   22.2176 H   0  0  0  0  0  0
  -28.1470  -17.2944   23.3476 H   0  0  0  0  0  0
  -27.6400  -16.2774   22.0039 H   0  0  0  0  0  0
  -29.7100  -24.3076   21.3966 H   0  0  0  0  0  0
  -30.1765  -24.2891   19.7222 H   0  0  0  0  0  0
  -27.3027  -24.7354   20.6826 H   0  0  0  0  0  0
  -27.8434  -24.7903   19.0186 H   0  0  0  0  0  0
  -28.9541  -15.3469   21.3128 H   0  0  0  0  0  0
  -28.1851  -22.2094   20.3379 H   0  0  0  0  0  0
  1 25  1  0  0  0
  1 30  2  0  0  0
  1 82  1  0  0  0
  2  3  1  0  0  0
  2 25  1  0  0  0
  2 85  1  0  0  0
  2 86  1  0  0  0
  3  4  1  0  0  0
  3 87  1  0  0  0
  3 88  1  0  0  0
  4  5  1  0  0  0
  4 89  1  0  0  0
  4 90  1  0  0  0
  5  6  1  0  0  0
  5 26  1  0  0  0
  5 91  1  0  0  0
  6 25  1  0  0  0
  6 92  1  0  0  0
  6 93  1  0  0  0
  7  8  2  0  0  0
  7 26  1  0  0  0
  7 29  1  0  0  0
  8  9  1  0  0  0
  8 22  1  0  0  0
  9 10  1  0  0  0
  9 27  2  0  0  0
 10 11  2  0  0  0
 10 15  1  0  0  0
 11 12  1  0  0  0
 11 94  1  0  0  0
 12 13  2  0  0  0
 12 95  1  0  0  0
 13 14  1  0  0  0
 13 31  1  0  0  0
 14 15  2  0  0  0
 14 96  1  0  0  0
 15 97  1  0  0  0
 16 17  2  0  0  0
 16 21  1  0  0  0
 16 31  1  0  0  0
 17 18  1  0  0  0
 17 98  1  0  0  0
 18 19  2  0  0  0
 18 99  1  0  0  0
 19 20  1  0  0  0
 19 24  1  0  0  0
 20 21  2  0  0  0
 20100  1  0  0  0
 21 23  1  0  0  0
 22 28  1  0  0  0
 22 32  2  0  0  0
 26 27  1  0  0  0
 28101  1  0  0  0
 28102  1  0  0  0
 29103  1  0  0  0
 29104  1  0  0  0
 33 34  1  0  0  0
 33 66  1  0  0  0
 33 70  2  0  0  0
 34 36  1  0  0  0
 34 59  1  0  0  0
 34105  1  0  0  0
 35 44  2  0  0  0
 35 45  1  0  0  0
 35 68  1  0  0  0
 36 56  1  0  0  0
 36106  1  0  0  0
 37 39  1  0  0  0
 37 47  1  0  0  0
 37 66  1  0  0  0
 37107  1  0  0  0
 38 43  2  0  0  0
 38 46  1  0  0  0
 38 47  1  0  0  0
 39 64  1  0  0  0
 39 67  2  0  0  0
 40 52  1  0  0  0
 40 53  2  0  0  0
 40 58  1  0  0  0
 41108  1  0  0  0
 41109  1  0  0  0
 41110  1  0  0  0
 41 48  1  0  0  0
 42 43  1  0  0  0
 42 66  1  0  0  0
 42111  1  0  0  0
 42112  1  0  0  0
 43 44  1  0  0  0
 44113  1  0  0  0
 45 46  2  0  0  0
 45114  1  0  0  0
 46115  1  0  0  0
 47116  1  0  0  0
 47117  1  0  0  0
 48 56  1  0  0  0
 48 65  1  0  0  0
 48118  1  0  0  0
 49 50  1  0  0  0
 49 53  1  0  0  0
 49 64  1  0  0  0
 49119  1  0  0  0
 50 51  1  0  0  0
 50120  1  0  0  0
 50121  1  0  0  0
 51 52  1  0  0  0
 51122  1  0  0  0
 51123  1  0  0  0
 52124  1  0  0  0
 52125  1  0  0  0
 53 54  1  0  0  0
 54 55  2  0  0  0
 54126  1  0  0  0
 55 57  1  0  0  0
 55127  1  0  0  0
 56 69  2  0  0  0
 57 58  2  0  0  0
 57128  1  0  0  0
 58129  1  0  0  0
 59 60  1  0  0  0
 59 61  1  0  0  0
 59 62  1  0  0  0
 60130  1  0  0  0
 60131  1  0  0  0
 60132  1  0  0  0
 61133  1  0  0  0
 61134  1  0  0  0
 61135  1  0  0  0
 62136  1  0  0  0
 62137  1  0  0  0
 62138  1  0  0  0
 63 65  1  0  0  0
 63139  1  0  0  0
 63140  1  0  0  0
 63141  1  0  0  0
 64142  1  0  0  0
 65143  1  0  0  0
 68 81  1  0  0  0
 71 72  2  0  0  0
 71 73  1  0  0  0
 71144  1  0  0  0
 72 76  1  0  0  0
 72145  1  0  0  0
 73 74  2  0  0  0
 73 77  1  0  0  0
 74 75  1  0  0  0
 74 78  1  0  0  0
 75 76  2  0  0  0
 75 79  1  0  0  0
 76 82  1  0  0  0
 77 83  1  0  0  0
 77 84  2  0  0  0
 78146  1  0  0  0
 78147  1  0  0  0
 78148  1  0  0  0
 79149  1  0  0  0
 79150  1  0  0  0
 79151  1  0  0  0
 80 81  1  0  0  0
 80 83  1  0  0  0
 80152  1  0  0  0
 80153  1  0  0  0
 81154  1  0  0  0
 81155  1  0  0  0
 82156  1  0  0  0
 83157  1  0  0  0
M  ISO  4   1 100  68 101  81 101  82 100
M  END
> <chiral flag>
0

> <version>
0

> <s_m_source_file>
/data/baiqing/PycharmProjects/Reinvent-master-3.2/result/LINK_invent/BTK/process_docking_weight1_custom_product_contain_oxygen_bond_distance_aromatic_linkinvent_7_9_3/rearranged_h_0032.sdf

> <i_m_source_file_index>
9

> <r_mmod_Potential_Energy-OPLS-2005>
-7.04639196395874

> <r_mmod_Stretch_Energy-OPLS-2005>
86.1297607421875

> <r_mmod_Bend_Energy-OPLS-2005>
143.056442260742

> <r_mmod_Torsional_Energy-OPLS-2005>
223.526794433594

> <r_mmod_Improper_Torsional_Energy-OPLS-2005>
4.34453821182251

> <r_mmod_Van_der_Waal_Energy-OPLS-2005>
157.07389831543

> <r_mmod_Electrostatic_Energy-OPLS-2005>
-435.160095214844

> <r_mmod_Solvation_Energy-OPLS-2005>
-234.598739624023

> <b_mmod_Minimization_Converged-OPLS-2005>
0

> <r_mmod_RMS_Derivative-OPLS-2005>
0.547259330749512

$$$$
9
                    3D
 Structure written by MMmdl.
162171  0  0  1  0            999 V2000
  -30.6741  -14.6365   20.4724 C   0  0  0  0  0  0
  -30.4160  -12.3884   19.4645 C   0  0  0  0  0  0
  -29.4995  -12.4924   18.2281 C   0  0  0  0  0  0
  -28.0239  -12.3382   18.6413 C   0  0  0  0  0  0
  -27.6436  -13.2298   19.8546 C   0  0  2  0  0  0
  -28.6881  -13.1390   20.9891 C   0  0  0  0  0  0
  -25.2511  -13.8206   20.5703 C   0  0  0  0  0  0
  -24.1798  -13.0449   20.9208 C   0  0  0  0  0  0
  -24.6387  -11.6926   20.8755 C   0  0  0  0  0  0
  -23.9066  -10.4299   21.0410 C   0  0  0  0  0  0
  -24.3617   -9.4213   21.9184 C   0  0  0  0  0  0
  -23.6293   -8.2246   22.0752 C   0  0  0  0  0  0
  -22.4276   -8.0282   21.3541 C   0  0  0  0  0  0
  -21.9914   -9.0257   20.4643 C   0  0  0  0  0  0
  -22.7242  -10.2138   20.3055 C   0  0  0  0  0  0
  -21.6853   -6.0734   22.5277 C   0  0  0  0  0  0
  -21.4015   -6.5639   23.8210 C   0  0  0  0  0  0
  -21.3660   -5.6793   24.9173 C   0  0  0  0  0  0
  -21.6044   -4.3056   24.7224 C   0  0  0  0  0  0
  -21.8820   -3.8146   23.4346 C   0  0  0  0  0  0
  -21.9193   -4.6961   22.3400 C   0  0  0  0  0  0
  -22.7819  -13.5225   21.1867 C   0  0  0  0  0  0
  -22.1662   -4.2148   21.0977 F   0  0  0  0  0  0
  -21.5628   -3.4540   25.7736 F   0  0  0  0  0  0
  -29.9993  -13.4469   20.4077 N   0  0  0  0  0  0
  -26.2941  -12.9414   20.3308 N   0  0  0  0  0  0
  -25.9315  -11.6556   20.5768 N   0  0  0  0  0  0
  -22.0467  -12.8209   22.0421 N   0  0  0  0  0  0
  -25.4203  -15.1928   20.4109 N   0  0  0  0  0  0
  -31.8626  -14.6977   20.1503 O   0  0  0  0  0  0
  -21.6640   -6.8877   21.4238 O   0  0  0  0  0  0
  -22.3501  -14.5529   20.6716 O   0  0  0  0  0  0
  -24.6243  -31.8609   23.2029 C   0  0  0  0  0  0
  -25.9096  -32.4785   23.8357 C   0  0  1  0  0  0
  -27.2214  -27.3354   20.1233 C   0  0  0  0  0  0
  -25.5918  -33.8583   24.2289 N   0  0  0  0  0  0
  -23.4177  -30.4829   21.5459 C   0  0  2  0  0  0
  -24.8647  -28.9383   20.1120 C   0  0  0  0  0  0
  -22.7464  -29.4618   22.4951 C   0  0  0  0  0  0
  -18.0281  -28.1377   22.8487 C   0  0  0  0  0  0
  -24.1490  -36.7296   23.2638 C   0  0  0  0  0  0
  -25.9560  -30.7981   21.3703 C   0  0  0  0  0  0
  -26.0325  -29.4259   20.7141 C   0  0  0  0  0  0
  -27.2183  -28.6364   20.7073 C   0  0  0  0  0  0
  -26.0370  -26.8931   19.4983 C   0  0  0  0  0  0
  -24.8674  -27.6766   19.4944 C   0  0  0  0  0  0
  -23.6317  -29.8166   20.1613 C   0  0  0  0  0  0
  -25.4113  -36.3088   24.0332 C   0  0  1  0  0  0
  -20.5882  -28.3681   23.1291 C   0  0  2  0  0  0
  -20.6775  -26.9405   22.5415 C   0  0  0  0  0  0
  -19.5754  -26.6384   21.5213 C   0  0  0  0  0  0
  -18.1930  -26.7923   22.1620 C   0  0  0  0  0  0
  -19.1533  -28.8845   23.2883 C   0  0  0  0  0  0
  -18.9459  -30.1447   23.8902 C   0  0  0  0  0  0
  -17.6462  -30.6584   24.0562 C   0  0  0  0  0  0
  -25.9050  -34.9456   23.5111 C   0  0  0  0  0  0
  -16.5351  -29.9084   23.6330 C   0  0  0  0  0  0
  -16.7269  -28.6498   23.0354 C   0  0  0  0  0  0
  -26.4491  -31.6586   25.0718 C   0  0  0  0  0  0
  -25.3729  -31.3709   26.1449 C   0  0  0  0  0  0
  -27.0336  -30.3016   24.6145 C   0  0  0  0  0  0
  -27.6057  -32.4317   25.7487 C   0  0  0  0  0  0
  -27.5581  -37.1795   24.8460 C   0  0  0  0  0  0
  -21.4179  -29.3034   22.3690 N   0  0  0  0  0  0
  -26.4292  -37.3782   23.9409 N   0  0  0  0  0  0
  -24.6848  -31.0636   22.0972 N   0  0  0  0  0  0
  -23.4191  -28.8162   23.3028 O   0  0  0  0  0  0
  -28.3285  -26.4846   20.1475 O   0  0  0  0  0  0
  -26.5618  -34.8926   22.4678 O   0  0  0  0  0  0
  -23.5409  -32.1399   23.7368 O   0  0  0  0  0  0
  -29.6161  -20.9018   19.6301 C   0  0  0  0  0  0
  -29.0744  -18.9705   21.6016 C   0  0  0  0  0  0
  -28.5726  -20.3192   21.7168 C   0  0  0  0  0  0
  -29.8385  -18.5534   20.4704 C   0  0  0  0  0  0
  -28.9008  -21.3440   20.7650 C   0  0  0  0  0  0
  -30.0675  -19.5608   19.4784 C   0  0  0  0  0  0
  -29.0001  -24.9153   21.9365 C   0  0  0  0  0  0
  -28.9480  -23.3955   22.2059 C   0  0  0  0  0  0
  -28.4535  -23.8099   19.9272 C   0  0  0  0  0  0
  -28.1133  -25.1353   20.7114 C   0  0  2  0  0  0
  -28.8330  -17.9711   22.7312 C   0  0  0  0  0  0
  -27.6356  -20.6530   22.8752 C   0  0  0  0  0  0
  -30.5782  -17.1526   20.3690 C   0  0  0  0  0  0
  -28.5618  -22.7371   20.9538 N   0  0  0  0  0  0
  -29.9686  -15.8012   20.6537 N   0  0  0  0  0  0
  -30.9780  -19.2215   18.0460 Cl  0  0  0  0  0  0
  -31.4615  -12.4786   19.1646 H   0  0  0  0  0  0
  -30.3249  -11.4073   19.9332 H   0  0  0  0  0  0
  -29.7640  -11.7287   17.4955 H   0  0  0  0  0  0
  -29.6468  -13.4549   17.7353 H   0  0  0  0  0  0
  -27.8626  -11.2887   18.8894 H   0  0  0  0  0  0
  -27.3699  -12.5533   17.7954 H   0  0  0  0  0  0
  -27.6479  -14.2563   19.4881 H   0  0  0  0  0  0
  -28.6953  -12.1420   21.4313 H   0  0  0  0  0  0
  -28.4441  -13.8316   21.7961 H   0  0  0  0  0  0
  -25.2760   -9.5688   22.4765 H   0  0  0  0  0  0
  -24.0003   -7.4634   22.7472 H   0  0  0  0  0  0
  -21.0847   -8.8774   19.8947 H   0  0  0  0  0  0
  -22.3698  -10.9676   19.6167 H   0  0  0  0  0  0
  -21.2009   -7.6148   23.9713 H   0  0  0  0  0  0
  -21.1482   -6.0523   25.9075 H   0  0  0  0  0  0
  -22.0599   -2.7608   23.2846 H   0  0  0  0  0  0
  -22.4092  -11.9871   22.4805 H   0  0  0  0  0  0
  -21.1079  -13.1223   22.2624 H   0  0  0  0  0  0
  -24.6518  -15.8456   20.5182 H   0  0  0  0  0  0
  -26.2651  -15.6325   20.0691 H   0  0  0  0  0  0
  -26.7161  -32.5468   23.1109 H   0  0  0  0  0  0
  -25.0065  -33.9731   25.0432 H   0  0  0  0  0  0
  -22.7109  -31.3029   21.4031 H   0  0  0  0  0  0
  -23.3759  -35.9621   23.3299 H   0  0  0  0  0  0
  -24.3582  -36.8915   22.2052 H   0  0  0  0  0  0
  -23.7237  -37.6493   23.6665 H   0  0  0  0  0  0
  -26.0807  -31.5628   20.6024 H   0  0  0  0  0  0
  -26.8383  -30.8500   21.9965 H   0  0  0  0  0  0
  -28.1170  -29.0038   21.1834 H   0  0  0  0  0  0
  -26.0125  -25.9223   19.0234 H   0  0  0  0  0  0
  -23.9725  -27.2979   19.0197 H   0  0  0  0  0  0
  -23.7480  -30.5936   19.4047 H   0  0  0  0  0  0
  -22.7522  -29.2439   19.8616 H   0  0  0  0  0  0
  -25.1290  -36.1944   25.0825 H   0  0  0  0  0  0
  -20.9963  -28.3259   24.1417 H   0  0  0  0  0  0
  -20.5683  -26.2287   23.3610 H   0  0  0  0  0  0
  -21.6643  -26.7445   22.1200 H   0  0  0  0  0  0
  -19.6923  -25.6297   21.1237 H   0  0  0  0  0  0
  -19.6700  -27.3204   20.6751 H   0  0  0  0  0  0
  -17.4201  -26.6673   21.4018 H   0  0  0  0  0  0
  -18.0319  -26.0064   22.9014 H   0  0  0  0  0  0
  -19.7939  -30.7250   24.2281 H   0  0  0  0  0  0
  -17.5023  -31.6269   24.5154 H   0  0  0  0  0  0
  -15.5351  -30.2987   23.7658 H   0  0  0  0  0  0
  -15.8668  -28.0820   22.7070 H   0  0  0  0  0  0
  -24.5919  -30.7040   25.7777 H   0  0  0  0  0  0
  -24.8900  -32.2865   26.4871 H   0  0  0  0  0  0
  -25.8059  -30.8895   27.0227 H   0  0  0  0  0  0
  -26.2901  -29.6761   24.1189 H   0  0  0  0  0  0
  -27.4072  -29.7272   25.4632 H   0  0  0  0  0  0
  -27.8755  -30.4318   23.9340 H   0  0  0  0  0  0
  -27.2678  -33.3627   26.2056 H   0  0  0  0  0  0
  -28.3871  -32.6855   25.0309 H   0  0  0  0  0  0
  -28.0724  -31.8442   26.5404 H   0  0  0  0  0  0
  -28.2584  -38.0107   24.7529 H   0  0  0  0  0  0
  -28.1093  -36.2637   24.6264 H   0  0  0  0  0  0
  -27.2302  -37.1414   25.8864 H   0  0  0  0  0  0
  -20.9356  -29.8755   21.6900 H   0  0  0  0  0  0
  -26.0178  -38.2854   24.1429 H   0  0  0  0  0  0
  -29.8716  -21.6124   18.8585 H   0  0  0  0  0  0
  -30.0240  -25.2098   21.7026 H   0  0  0  0  0  0
  -28.6780  -25.5011   22.7975 H   0  0  0  0  0  0
  -28.1995  -23.2115   22.9745 H   0  0  0  0  0  0
  -29.9042  -23.0270   22.5816 H   0  0  0  0  0  0
  -29.4035  -23.9133   19.4008 H   0  0  0  0  0  0
  -27.6856  -23.5780   19.1884 H   0  0  0  0  0  0
  -27.0819  -25.0436   21.0577 H   0  0  0  0  0  0
  -28.7341  -18.4560   23.7018 H   0  0  0  0  0  0
  -29.6664  -17.2804   22.8486 H   0  0  0  0  0  0
  -27.9293  -17.3910   22.5435 H   0  0  0  0  0  0
  -27.0049  -19.8071   23.1463 H   0  0  0  0  0  0
  -26.9401  -21.4475   22.6067 H   0  0  0  0  0  0
  -28.2021  -20.9603   23.7542 H   0  0  0  0  0  0
  -31.4490  -17.2456   21.0204 H   0  0  0  0  0  0
  -30.9996  -17.0538   19.3709 H   0  0  0  0  0  0
  -28.9819  -15.7457   20.8508 H   0  0  0  0  0  0
  1 25  1  0  0  0
  1 30  2  0  0  0
  1 85  1  0  0  0
  2  3  1  0  0  0
  2 25  1  0  0  0
  2 87  1  0  0  0
  2 88  1  0  0  0
  3  4  1  0  0  0
  3 89  1  0  0  0
  3 90  1  0  0  0
  4  5  1  0  0  0
  4 91  1  0  0  0
  4 92  1  0  0  0
  5  6  1  0  0  0
  5 26  1  0  0  0
  5 93  1  0  0  0
  6 25  1  0  0  0
  6 94  1  0  0  0
  6 95  1  0  0  0
  7  8  2  0  0  0
  7 26  1  0  0  0
  7 29  1  0  0  0
  8  9  1  0  0  0
  8 22  1  0  0  0
  9 10  1  0  0  0
  9 27  2  0  0  0
 10 11  2  0  0  0
 10 15  1  0  0  0
 11 12  1  0  0  0
 11 96  1  0  0  0
 12 13  2  0  0  0
 12 97  1  0  0  0
 13 14  1  0  0  0
 13 31  1  0  0  0
 14 15  2  0  0  0
 14 98  1  0  0  0
 15 99  1  0  0  0
 16 17  2  0  0  0
 16 21  1  0  0  0
 16 31  1  0  0  0
 17 18  1  0  0  0
 17100  1  0  0  0
 18 19  2  0  0  0
 18101  1  0  0  0
 19 20  1  0  0  0
 19 24  1  0  0  0
 20 21  2  0  0  0
 20102  1  0  0  0
 21 23  1  0  0  0
 22 28  1  0  0  0
 22 32  2  0  0  0
 26 27  1  0  0  0
 28103  1  0  0  0
 28104  1  0  0  0
 29105  1  0  0  0
 29106  1  0  0  0
 33 34  1  0  0  0
 33 66  1  0  0  0
 33 70  2  0  0  0
 34 36  1  0  0  0
 34 59  1  0  0  0
 34107  1  0  0  0
 35 44  2  0  0  0
 35 45  1  0  0  0
 35 68  1  0  0  0
 36 56  1  0  0  0
 36108  1  0  0  0
 37 39  1  0  0  0
 37 47  1  0  0  0
 37 66  1  0  0  0
 37109  1  0  0  0
 38 43  2  0  0  0
 38 46  1  0  0  0
 38 47  1  0  0  0
 39 64  1  0  0  0
 39 67  2  0  0  0
 40 52  1  0  0  0
 40 53  2  0  0  0
 40 58  1  0  0  0
 41110  1  0  0  0
 41111  1  0  0  0
 41112  1  0  0  0
 41 48  1  0  0  0
 42 43  1  0  0  0
 42 66  1  0  0  0
 42113  1  0  0  0
 42114  1  0  0  0
 43 44  1  0  0  0
 44115  1  0  0  0
 45 46  2  0  0  0
 45116  1  0  0  0
 46117  1  0  0  0
 47118  1  0  0  0
 47119  1  0  0  0
 48 56  1  0  0  0
 48 65  1  0  0  0
 48120  1  0  0  0
 49 50  1  0  0  0
 49 53  1  0  0  0
 49 64  1  0  0  0
 49121  1  0  0  0
 50 51  1  0  0  0
 50122  1  0  0  0
 50123  1  0  0  0
 51 52  1  0  0  0
 51124  1  0  0  0
 51125  1  0  0  0
 52126  1  0  0  0
 52127  1  0  0  0
 53 54  1  0  0  0
 54 55  2  0  0  0
 54128  1  0  0  0
 55 57  1  0  0  0
 55129  1  0  0  0
 56 69  2  0  0  0
 57 58  2  0  0  0
 57130  1  0  0  0
 58131  1  0  0  0
 59 60  1  0  0  0
 59 61  1  0  0  0
 59 62  1  0  0  0
 60132  1  0  0  0
 60133  1  0  0  0
 60134  1  0  0  0
 61135  1  0  0  0
 61136  1  0  0  0
 61137  1  0  0  0
 62138  1  0  0  0
 62139  1  0  0  0
 62140  1  0  0  0
 63 65  1  0  0  0
 63141  1  0  0  0
 63142  1  0  0  0
 63143  1  0  0  0
 64144  1  0  0  0
 65145  1  0  0  0
 68 80  1  0  0  0
 71 75  2  0  0  0
 71 76  1  0  0  0
 71146  1  0  0  0
 72 73  2  0  0  0
 72 74  1  0  0  0
 72 81  1  0  0  0
 73 75  1  0  0  0
 73 82  1  0  0  0
 74 76  2  0  0  0
 74 83  1  0  0  0
 75 84  1  0  0  0
 76 86  1  0  0  0
 77 78  1  0  0  0
 77 80  1  0  0  0
 77147  1  0  0  0
 77148  1  0  0  0
 78 84  1  0  0  0
 78149  1  0  0  0
 78150  1  0  0  0
 79 80  1  0  0  0
 79 84  1  0  0  0
 79151  1  0  0  0
 79152  1  0  0  0
 80153  1  0  0  0
 81154  1  0  0  0
 81155  1  0  0  0
 81156  1  0  0  0
 82157  1  0  0  0
 82158  1  0  0  0
 82159  1  0  0  0
 83 85  1  0  0  0
 83160  1  0  0  0
 83161  1  0  0  0
 85162  1  0  0  0
M  ISO  4   1 100  68 101  80 101  85 100
M  END
> <chiral flag>
0

> <version>
0

> <s_m_source_file>
/data/baiqing/PycharmProjects/Reinvent-master-3.2/result/LINK_invent/BTK/process_docking_weight1_custom_product_contain_oxygen_bond_distance_aromatic_linkinvent_7_9_3/rearranged_h_0032.sdf

> <i_m_source_file_index>
10

> <r_mmod_Potential_Energy-OPLS-2005>
144.086853027344

> <r_mmod_Stretch_Energy-OPLS-2005>
81.1762161254883

> <r_mmod_Bend_Energy-OPLS-2005>
192.213653564453

> <r_mmod_Torsional_Energy-OPLS-2005>
283.866882324219

> <r_mmod_Improper_Torsional_Energy-OPLS-2005>
9.03377246856689

> <r_mmod_Van_der_Waal_Energy-OPLS-2005>
155.40217590332

> <r_mmod_Electrostatic_Energy-OPLS-2005>
-410.255889892578

> <r_mmod_Solvation_Energy-OPLS-2005>
-216.460311889648

> <b_mmod_Minimization_Converged-OPLS-2005>
0

> <r_mmod_RMS_Derivative-OPLS-2005>
0.744091808795929

$$$$
10
                    3D
 Structure written by MMmdl.
155164  0  0  1  0            999 V2000
  -30.6116  -14.8163   20.4485 C   0  0  0  0  0  0
  -30.4302  -12.5025   19.4850 C   0  0  0  0  0  0
  -29.5109  -12.5106   18.2439 C   0  0  0  0  0  0
  -28.0412  -12.3203   18.6619 C   0  0  0  0  0  0
  -27.6358  -13.2399   19.8445 C   0  0  2  0  0  0
  -28.6808  -13.2253   20.9810 C   0  0  0  0  0  0
  -25.2480  -13.8210   20.5696 C   0  0  0  0  0  0
  -24.1786  -13.0444   20.9216 C   0  0  0  0  0  0
  -24.6390  -11.6922   20.8749 C   0  0  0  0  0  0
  -23.9068  -10.4293   21.0405 C   0  0  0  0  0  0
  -24.3620   -9.4208   21.9186 C   0  0  0  0  0  0
  -23.6294   -8.2245   22.0756 C   0  0  0  0  0  0
  -22.4275   -8.0279   21.3545 C   0  0  0  0  0  0
  -21.9914   -9.0250   20.4646 C   0  0  0  0  0  0
  -22.7240  -10.2132   20.3053 C   0  0  0  0  0  0
  -21.6856   -6.0729   22.5272 C   0  0  0  0  0  0
  -21.4016   -6.5635   23.8203 C   0  0  0  0  0  0
  -21.3658   -5.6790   24.9169 C   0  0  0  0  0  0
  -21.6045   -4.3054   24.7222 C   0  0  0  0  0  0
  -21.8822   -3.8142   23.4344 C   0  0  0  0  0  0
  -21.9195   -4.6956   22.3398 C   0  0  0  0  0  0
  -22.7806  -13.5220   21.1874 C   0  0  0  0  0  0
  -22.1663   -4.2141   21.0975 F   0  0  0  0  0  0
  -21.5630   -3.4536   25.7735 F   0  0  0  0  0  0
  -29.9727  -13.5900   20.3881 N   0  0  0  0  0  0
  -26.2909  -12.9430   20.3270 N   0  0  0  0  0  0
  -25.9322  -11.6564   20.5760 N   0  0  0  0  0  0
  -22.0458  -12.8193   22.0428 N   0  0  0  0  0  0
  -25.4159  -15.1935   20.4077 N   0  0  0  0  0  0
  -31.8077  -14.8561   20.1473 O   0  0  0  0  0  0
  -21.6645   -6.8870   21.4235 O   0  0  0  0  0  0
  -22.3483  -14.5525   20.6723 O   0  0  0  0  0  0
  -24.6349  -31.8509   23.1943 C   0  0  0  0  0  0
  -25.9151  -32.4739   23.8305 C   0  0  1  0  0  0
  -27.2139  -27.2116   20.1414 C   0  0  0  0  0  0
  -25.5929  -33.8542   24.2231 N   0  0  0  0  0  0
  -23.4358  -30.4724   21.5390 C   0  0  2  0  0  0
  -24.8836  -28.9145   20.1081 C   0  0  0  0  0  0
  -22.7534  -29.4576   22.4887 C   0  0  0  0  0  0
  -18.0302  -28.1403   22.8484 C   0  0  0  0  0  0
  -24.1486  -36.7272   23.2647 C   0  0  0  0  0  0
  -25.9855  -30.7480   21.3828 C   0  0  0  0  0  0
  -26.0568  -29.3661   20.7258 C   0  0  0  0  0  0
  -27.2242  -28.5280   20.7311 C   0  0  0  0  0  0
  -26.0236  -26.8531   19.4694 C   0  0  0  0  0  0
  -24.8756  -27.6684   19.4656 C   0  0  0  0  0  0
  -23.6575  -29.8075   20.1550 C   0  0  0  0  0  0
  -25.4116  -36.3061   24.0324 C   0  0  1  0  0  0
  -20.5909  -28.3707   23.1264 C   0  0  2  0  0  0
  -20.6790  -26.9421   22.5411 C   0  0  0  0  0  0
  -19.5762  -26.6388   21.5223 C   0  0  0  0  0  0
  -18.1940  -26.7948   22.1624 C   0  0  0  0  0  0
  -19.1559  -28.8873   23.2869 C   0  0  0  0  0  0
  -18.9477  -30.1479   23.8881 C   0  0  0  0  0  0
  -17.6476  -30.6604   24.0567 C   0  0  0  0  0  0
  -25.9053  -34.9433   23.5085 C   0  0  0  0  0  0
  -16.5363  -29.9096   23.6343 C   0  0  0  0  0  0
  -16.7288  -28.6520   23.0357 C   0  0  0  0  0  0
  -26.4500  -31.6583   25.0715 C   0  0  0  0  0  0
  -25.3697  -31.3767   26.1421 C   0  0  0  0  0  0
  -27.0349  -30.2990   24.6231 C   0  0  0  0  0  0
  -27.6040  -32.4337   25.7498 C   0  0  0  0  0  0
  -27.5575  -37.1796   24.8471 C   0  0  0  0  0  0
  -21.4234  -29.3044   22.3643 N   0  0  0  0  0  0
  -26.4286  -37.3766   23.9411 N   0  0  0  0  0  0
  -24.7051  -31.0431   22.0943 N   0  0  0  0  0  0
  -23.4219  -28.8125   23.3003 O   0  0  0  0  0  0
  -28.2801  -26.2679   20.2148 O   0  0  0  0  0  0
  -26.5643  -34.8923   22.4664 O   0  0  0  0  0  0
  -23.5478  -32.1342   23.7200 O   0  0  0  0  0  0
  -29.3665  -18.6214   20.4876 C   0  0  0  0  0  0
  -31.6171  -17.8019   20.8060 C   0  0  0  0  0  0
  -29.7854  -20.0376   20.5113 C   0  0  0  0  0  0
  -30.2602  -17.4589   20.6206 C   0  0  0  0  0  0
  -31.1848  -20.2358   20.6863 C   0  0  0  0  0  0
  -32.0673  -19.1364   20.8313 C   0  0  0  0  0  0
  -28.7627  -23.8515   21.2181 C   0  0  0  0  0  0
  -29.0258  -23.9441   22.5327 C   0  0  0  0  0  0
  -28.5916  -23.7280   19.2400 C   0  0  0  0  0  0
  -27.9695  -24.7691   20.2595 C   0  0  2  0  0  0
  -28.7630  -21.3011   20.3657 C   0  0  0  0  0  0
  -29.8637  -15.9987   20.6129 N   0  0  0  0  0  0
  -29.1892  -22.8068   20.2757 N   0  3  2  0  0  0
  -31.8744  -21.8245   20.7353 Cl  0  0  0  0  0  0
  -33.9385  -19.4274   21.0777 Br  0  0  0  0  0  0
  -31.4693  -12.6264   19.1760 H   0  0  0  0  0  0
  -30.3855  -11.5391   19.9941 H   0  0  0  0  0  0
  -29.8068  -11.7237   17.5483 H   0  0  0  0  0  0
  -29.6227  -13.4542   17.7071 H   0  0  0  0  0  0
  -27.9164  -11.2756   18.9480 H   0  0  0  0  0  0
  -27.3799  -12.4836   17.8104 H   0  0  0  0  0  0
  -27.6149  -14.2511   19.4371 H   0  0  0  0  0  0
  -28.7346  -12.2431   21.4533 H   0  0  0  0  0  0
  -28.4038  -13.9304   21.7660 H   0  0  0  0  0  0
  -25.2764   -9.5684   22.4760 H   0  0  0  0  0  0
  -23.9997   -7.4638   22.7479 H   0  0  0  0  0  0
  -21.0846   -8.8766   19.8950 H   0  0  0  0  0  0
  -22.3699  -10.9665   19.6157 H   0  0  0  0  0  0
  -21.2008   -7.6144   23.9704 H   0  0  0  0  0  0
  -21.1479   -6.0521   25.9071 H   0  0  0  0  0  0
  -22.0603   -2.7601   23.2847 H   0  0  0  0  0  0
  -22.4082  -11.9843   22.4786 H   0  0  0  0  0  0
  -21.1078  -13.1206   22.2656 H   0  0  0  0  0  0
  -24.6440  -15.8433   20.5050 H   0  0  0  0  0  0
  -26.2529  -15.6283   20.0422 H   0  0  0  0  0  0
  -26.7213  -32.5363   23.1039 H   0  0  0  0  0  0
  -25.0068  -33.9677   25.0371 H   0  0  0  0  0  0
  -22.7345  -31.2956   21.3900 H   0  0  0  0  0  0
  -23.3758  -35.9594   23.3304 H   0  0  0  0  0  0
  -24.3577  -36.8894   22.2063 H   0  0  0  0  0  0
  -23.7228  -37.6466   23.6670 H   0  0  0  0  0  0
  -26.1311  -31.5050   20.6115 H   0  0  0  0  0  0
  -26.8616  -30.7974   22.0175 H   0  0  0  0  0  0
  -28.1171  -28.8663   21.2375 H   0  0  0  0  0  0
  -25.9523  -25.9114   18.9457 H   0  0  0  0  0  0
  -23.9828  -27.3244   18.9627 H   0  0  0  0  0  0
  -23.7874  -30.5844   19.4004 H   0  0  0  0  0  0
  -22.7733  -29.2460   19.8467 H   0  0  0  0  0  0
  -25.1303  -36.1899   25.0813 H   0  0  0  0  0  0
  -20.9998  -28.3278   24.1384 H   0  0  0  0  0  0
  -20.5705  -26.2309   23.3612 H   0  0  0  0  0  0
  -21.6653  -26.7450   22.1188 H   0  0  0  0  0  0
  -19.6920  -25.6299   21.1254 H   0  0  0  0  0  0
  -19.6702  -27.3200   20.6755 H   0  0  0  0  0  0
  -17.4212  -26.6703   21.4026 H   0  0  0  0  0  0
  -18.0322  -26.0100   22.9025 H   0  0  0  0  0  0
  -19.7955  -30.7311   24.2219 H   0  0  0  0  0  0
  -17.5033  -31.6277   24.5183 H   0  0  0  0  0  0
  -15.5368  -30.2999   23.7687 H   0  0  0  0  0  0
  -15.8684  -28.0849   22.7064 H   0  0  0  0  0  0
  -24.5895  -30.7081   25.7772 H   0  0  0  0  0  0
  -24.8862  -32.2944   26.4772 H   0  0  0  0  0  0
  -25.7995  -30.9018   27.0250 H   0  0  0  0  0  0
  -26.2943  -29.6735   24.1232 H   0  0  0  0  0  0
  -27.4005  -29.7259   25.4764 H   0  0  0  0  0  0
  -27.8831  -30.4276   23.9504 H   0  0  0  0  0  0
  -27.2646  -33.3679   26.1997 H   0  0  0  0  0  0
  -28.3894  -32.6823   25.0344 H   0  0  0  0  0  0
  -28.0646  -31.8496   26.5481 H   0  0  0  0  0  0
  -28.2597  -38.0091   24.7515 H   0  0  0  0  0  0
  -28.1067  -36.2621   24.6300 H   0  0  0  0  0  0
  -27.2293  -37.1446   25.8876 H   0  0  0  0  0  0
  -20.9417  -29.8759   21.6844 H   0  0  0  0  0  0
  -26.0159  -38.2835   24.1422 H   0  0  0  0  0  0
  -28.3112  -18.4237   20.3602 H   0  0  0  0  0  0
  -32.3667  -17.0407   20.9473 H   0  0  0  0  0  0
  -28.6496  -24.7748   23.1118 H   0  0  0  0  0  0
  -29.6121  -23.1979   23.0495 H   0  0  0  0  0  0
  -29.3663  -24.1711   18.6123 H   0  0  0  0  0  0
  -27.8393  -23.2468   18.6148 H   0  0  0  0  0  0
  -26.8998  -24.5964   20.3744 H   0  0  0  0  0  0
  -28.0442  -21.2242   21.1803 H   0  0  0  0  0  0
  -28.1839  -21.0914   19.4677 H   0  0  0  0  0  0
  -28.8757  -15.8279   20.7226 H   0  0  0  0  0  0
  -30.1965  -22.8268   20.1822 H   0  0  0  0  0  0
  1 25  1  0  0  0
  1 30  2  0  0  0
  1 82  1  0  0  0
  2  3  1  0  0  0
  2 25  1  0  0  0
  2 86  1  0  0  0
  2 87  1  0  0  0
  3  4  1  0  0  0
  3 88  1  0  0  0
  3 89  1  0  0  0
  4  5  1  0  0  0
  4 90  1  0  0  0
  4 91  1  0  0  0
  5  6  1  0  0  0
  5 26  1  0  0  0
  5 92  1  0  0  0
  6 25  1  0  0  0
  6 93  1  0  0  0
  6 94  1  0  0  0
  7  8  2  0  0  0
  7 26  1  0  0  0
  7 29  1  0  0  0
  8  9  1  0  0  0
  8 22  1  0  0  0
  9 10  1  0  0  0
  9 27  2  0  0  0
 10 11  2  0  0  0
 10 15  1  0  0  0
 11 12  1  0  0  0
 11 95  1  0  0  0
 12 13  2  0  0  0
 12 96  1  0  0  0
 13 14  1  0  0  0
 13 31  1  0  0  0
 14 15  2  0  0  0
 14 97  1  0  0  0
 15 98  1  0  0  0
 16 17  2  0  0  0
 16 21  1  0  0  0
 16 31  1  0  0  0
 17 18  1  0  0  0
 17 99  1  0  0  0
 18 19  2  0  0  0
 18100  1  0  0  0
 19 20  1  0  0  0
 19 24  1  0  0  0
 20 21  2  0  0  0
 20101  1  0  0  0
 21 23  1  0  0  0
 22 28  1  0  0  0
 22 32  2  0  0  0
 26 27  1  0  0  0
 28102  1  0  0  0
 28103  1  0  0  0
 29104  1  0  0  0
 29105  1  0  0  0
 33 34  1  0  0  0
 33 66  1  0  0  0
 33 70  2  0  0  0
 34 36  1  0  0  0
 34 59  1  0  0  0
 34106  1  0  0  0
 35 44  2  0  0  0
 35 45  1  0  0  0
 35 68  1  0  0  0
 36 56  1  0  0  0
 36107  1  0  0  0
 37 39  1  0  0  0
 37 47  1  0  0  0
 37 66  1  0  0  0
 37108  1  0  0  0
 38 43  2  0  0  0
 38 46  1  0  0  0
 38 47  1  0  0  0
 39 64  1  0  0  0
 39 67  2  0  0  0
 40 52  1  0  0  0
 40 53  2  0  0  0
 40 58  1  0  0  0
 41109  1  0  0  0
 41110  1  0  0  0
 41111  1  0  0  0
 41 48  1  0  0  0
 42 43  1  0  0  0
 42 66  1  0  0  0
 42112  1  0  0  0
 42113  1  0  0  0
 43 44  1  0  0  0
 44114  1  0  0  0
 45 46  2  0  0  0
 45115  1  0  0  0
 46116  1  0  0  0
 47117  1  0  0  0
 47118  1  0  0  0
 48 56  1  0  0  0
 48 65  1  0  0  0
 48119  1  0  0  0
 49 50  1  0  0  0
 49 53  1  0  0  0
 49 64  1  0  0  0
 49120  1  0  0  0
 50 51  1  0  0  0
 50121  1  0  0  0
 50122  1  0  0  0
 51 52  1  0  0  0
 51123  1  0  0  0
 51124  1  0  0  0
 52125  1  0  0  0
 52126  1  0  0  0
 53 54  1  0  0  0
 54 55  2  0  0  0
 54127  1  0  0  0
 55 57  1  0  0  0
 55128  1  0  0  0
 56 69  2  0  0  0
 57 58  2  0  0  0
 57129  1  0  0  0
 58130  1  0  0  0
 59 60  1  0  0  0
 59 61  1  0  0  0
 59 62  1  0  0  0
 60131  1  0  0  0
 60132  1  0  0  0
 60133  1  0  0  0
 61134  1  0  0  0
 61135  1  0  0  0
 61136  1  0  0  0
 62137  1  0  0  0
 62138  1  0  0  0
 62139  1  0  0  0
 63 65  1  0  0  0
 63140  1  0  0  0
 63141  1  0  0  0
 63142  1  0  0  0
 64143  1  0  0  0
 65144  1  0  0  0
 68 80  1  0  0  0
 71 73  2  0  0  0
 71 74  1  0  0  0
 71145  1  0  0  0
 72 74  2  0  0  0
 72 76  1  0  0  0
 72146  1  0  0  0
 73 75  1  0  0  0
 73 81  1  0  0  0
 74 82  1  0  0  0
 75 76  2  0  0  0
 75 84  1  0  0  0
 76 85  1  0  0  0
 77 78  2  0  0  0
 77 80  1  0  0  0
 77 83  1  0  0  0
 78147  1  0  0  0
 78148  1  0  0  0
 79 80  1  0  0  0
 79 83  1  0  0  0
 79149  1  0  0  0
 79150  1  0  0  0
 80151  1  0  0  0
 81152  1  0  0  0
 81153  1  0  0  0
 81 83  1  0  0  0
 82154  1  0  0  0
 83155  1  0  0  0
M  CHG  1  83   1
M  ISO  4   1 100  68 101  80 101  82 100
M  END
> <chiral flag>
0

> <version>
0

> <s_m_source_file>
/data/baiqing/PycharmProjects/Reinvent-master-3.2/result/LINK_invent/BTK/process_docking_weight1_custom_product_contain_oxygen_bond_distance_aromatic_linkinvent_7_9_3/rearranged_h_0032.sdf

> <i_m_source_file_index>
11

> <r_mmod_Potential_Energy-OPLS-2005>
108.491233825684

> <r_mmod_Stretch_Energy-OPLS-2005>
167.437713623047

> <r_mmod_Bend_Energy-OPLS-2005>
221.154800415039

> <r_mmod_Torsional_Energy-OPLS-2005>
237.83024597168

> <r_mmod_Improper_Torsional_Energy-OPLS-2005>
5.23092555999756

> <r_mmod_Van_der_Waal_Energy-OPLS-2005>
146.045272827148

> <r_mmod_Electrostatic_Energy-OPLS-2005>
-314.264007568359

> <r_mmod_Solvation_Energy-OPLS-2005>
-476.288360595703

> <b_mmod_Minimization_Converged-OPLS-2005>
0

> <r_mmod_RMS_Derivative-OPLS-2005>
1.49676477909088

$$$$
11
                    3D
 Structure written by MMmdl.
156165  0  0  1  0            999 V2000
  -30.6552  -14.6937   20.4636 C   0  0  0  0  0  0
  -30.4177  -12.4243   19.4698 C   0  0  0  0  0  0
  -29.5012  -12.4999   18.2309 C   0  0  0  0  0  0
  -28.0268  -12.3359   18.6458 C   0  0  0  0  0  0
  -27.6400  -13.2351   19.8516 C   0  0  2  0  0  0
  -28.6852  -13.1707   20.9867 C   0  0  0  0  0  0
  -25.2506  -13.8215   20.5712 C   0  0  0  0  0  0
  -24.1796  -13.0450   20.9208 C   0  0  0  0  0  0
  -24.6395  -11.6931   20.8751 C   0  0  0  0  0  0
  -23.9079  -10.4301   21.0410 C   0  0  0  0  0  0
  -24.3627   -9.4216   21.9190 C   0  0  0  0  0  0
  -23.6300   -8.2251   22.0759 C   0  0  0  0  0  0
  -22.4284   -8.0288   21.3546 C   0  0  0  0  0  0
  -21.9921   -9.0264   20.4651 C   0  0  0  0  0  0
  -22.7250  -10.2143   20.3060 C   0  0  0  0  0  0
  -21.6854   -6.0743   22.5281 C   0  0  0  0  0  0
  -21.4018   -6.5646   23.8215 C   0  0  0  0  0  0
  -21.3656   -5.6797   24.9175 C   0  0  0  0  0  0
  -21.6039   -4.3060   24.7226 C   0  0  0  0  0  0
  -21.8816   -3.8155   23.4346 C   0  0  0  0  0  0
  -21.9194   -4.6972   22.3402 C   0  0  0  0  0  0
  -22.7819  -13.5229   21.1863 C   0  0  0  0  0  0
  -22.1661   -4.2158   21.0979 F   0  0  0  0  0  0
  -21.5624   -3.4541   25.7737 F   0  0  0  0  0  0
  -29.9885  -13.4946   20.3980 N   0  0  0  0  0  0
  -26.2931  -12.9429   20.3306 N   0  0  0  0  0  0
  -25.9328  -11.6568   20.5772 N   0  0  0  0  0  0
  -22.0469  -12.8213   22.0420 N   0  0  0  0  0  0
  -25.4190  -15.1938   20.4151 N   0  0  0  0  0  0
  -31.8482  -14.7467   20.1556 O   0  0  0  0  0  0
  -21.6642   -6.8887   21.4243 O   0  0  0  0  0  0
  -22.3496  -14.5528   20.6708 O   0  0  0  0  0  0
  -24.6292  -31.8568   23.1985 C   0  0  0  0  0  0
  -25.9128  -32.4762   23.8327 C   0  0  1  0  0  0
  -27.2150  -27.2837   20.1319 C   0  0  0  0  0  0
  -25.5931  -33.8563   24.2252 N   0  0  0  0  0  0
  -23.4249  -30.4792   21.5419 C   0  0  2  0  0  0
  -24.8713  -28.9294   20.1080 C   0  0  0  0  0  0
  -22.7495  -29.4610   22.4919 C   0  0  0  0  0  0
  -18.0296  -28.1386   22.8478 C   0  0  0  0  0  0
  -24.1494  -36.7284   23.2640 C   0  0  0  0  0  0
  -25.9686  -30.7777   21.3745 C   0  0  0  0  0  0
  -26.0423  -29.4031   20.7143 C   0  0  0  0  0  0
  -27.2208  -28.5945   20.7098 C   0  0  0  0  0  0
  -26.0255  -26.8705   19.4951 C   0  0  0  0  0  0
  -24.8673  -27.6711   19.4858 C   0  0  0  0  0  0
  -23.6401  -29.8123   20.1578 C   0  0  0  0  0  0
  -25.4122  -36.3073   24.0327 C   0  0  1  0  0  0
  -20.5897  -28.3698   23.1273 C   0  0  2  0  0  0
  -20.6784  -26.9417   22.5412 C   0  0  0  0  0  0
  -19.5763  -26.6383   21.5213 C   0  0  0  0  0  0
  -18.1937  -26.7927   22.1618 C   0  0  0  0  0  0
  -19.1548  -28.8858   23.2867 C   0  0  0  0  0  0
  -18.9469  -30.1457   23.8889 C   0  0  0  0  0  0
  -17.6469  -30.6588   24.0560 C   0  0  0  0  0  0
  -25.9062  -34.9444   23.5093 C   0  0  0  0  0  0
  -16.5362  -29.9087   23.6333 C   0  0  0  0  0  0
  -16.7282  -28.6505   23.0350 C   0  0  0  0  0  0
  -26.4492  -31.6588   25.0715 C   0  0  0  0  0  0
  -25.3701  -31.3748   26.1429 C   0  0  0  0  0  0
  -27.0348  -30.3009   24.6206 C   0  0  0  0  0  0
  -27.6048  -32.4333   25.7485 C   0  0  0  0  0  0
  -27.5585  -37.1796   24.8464 C   0  0  0  0  0  0
  -21.4208  -29.3041   22.3658 N   0  0  0  0  0  0
  -26.4298  -37.3771   23.9405 N   0  0  0  0  0  0
  -24.6932  -31.0555   22.0946 N   0  0  0  0  0  0
  -23.4205  -28.8154   23.3011 O   0  0  0  0  0  0
  -28.2990  -26.3890   20.1956 O   0  0  0  0  0  0
  -26.5634  -34.8918   22.4665 O   0  0  0  0  0  0
  -23.5450  -32.1387   23.7297 O   0  0  0  0  0  0
  -30.6650  -19.7713   19.9999 C   0  0  0  0  0  0
  -28.1669  -20.4047   20.9222 C   0  0  0  0  0  0
  -30.2148  -21.1331   19.9853 C   0  0  0  0  0  0
  -29.8990  -18.6726   20.4778 C   0  0  0  0  0  0
  -28.9297  -21.5342   20.4722 C   0  0  0  0  0  0
  -28.6088  -19.0363   20.9373 C   0  0  0  0  0  0
  -28.0260  -23.7991   19.4646 C   0  0  0  0  0  0
  -29.0382  -24.0452   21.2299 C   0  0  0  0  0  0
  -27.9842  -24.9596   20.5210 C   0  0  0  0  0  0
  -31.1843  -22.1670   19.4409 C   0  0  0  0  0  0
  -30.5977  -17.2422   20.5362 C   0  0  0  0  0  0
  -28.3533  -22.8977   20.5941 N   0  0  0  0  0  0
  -29.9535  -15.8707   20.6536 N   0  0  0  0  0  0
  -27.7866  -18.0777   21.4280 F   0  0  0  0  0  0
  -31.4623  -12.5224   19.1689 H   0  0  0  0  0  0
  -30.3370  -11.4480   19.9510 H   0  0  0  0  0  0
  -29.7750  -11.7295   17.5087 H   0  0  0  0  0  0
  -29.6381  -13.4574   17.7260 H   0  0  0  0  0  0
  -27.8739  -11.2870   18.9038 H   0  0  0  0  0  0
  -27.3706  -12.5384   17.7981 H   0  0  0  0  0  0
  -27.6355  -14.2573   19.4726 H   0  0  0  0  0  0
  -28.7081  -12.1805   21.4449 H   0  0  0  0  0  0
  -28.4331  -13.8734   21.7829 H   0  0  0  0  0  0
  -25.2771   -9.5692   22.4766 H   0  0  0  0  0  0
  -24.0008   -7.4642   22.7477 H   0  0  0  0  0  0
  -21.0853   -8.8789   19.8953 H   0  0  0  0  0  0
  -22.3716  -10.9687   19.6170 H   0  0  0  0  0  0
  -21.2016   -7.6156   23.9723 H   0  0  0  0  0  0
  -21.1475   -6.0527   25.9078 H   0  0  0  0  0  0
  -22.0597   -2.7619   23.2844 H   0  0  0  0  0  0
  -22.4085  -11.9871   22.4796 H   0  0  0  0  0  0
  -21.1092  -13.1241   22.2637 H   0  0  0  0  0  0
  -24.6568  -15.8496   20.5442 H   0  0  0  0  0  0
  -26.2779  -15.6434   20.1249 H   0  0  0  0  0  0
  -26.7191  -32.5415   23.1066 H   0  0  0  0  0  0
  -25.0065  -33.9699   25.0386 H   0  0  0  0  0  0
  -22.7204  -31.3005   21.3952 H   0  0  0  0  0  0
  -23.3762  -35.9609   23.3305 H   0  0  0  0  0  0
  -24.3583  -36.8911   22.2054 H   0  0  0  0  0  0
  -23.7245  -37.6482   23.6670 H   0  0  0  0  0  0
  -26.1073  -31.5418   20.6087 H   0  0  0  0  0  0
  -26.8467  -30.8236   22.0079 H   0  0  0  0  0  0
  -28.1176  -28.9511   21.1962 H   0  0  0  0  0  0
  -25.9757  -25.9019   19.0184 H   0  0  0  0  0  0
  -23.9710  -27.3042   19.0053 H   0  0  0  0  0  0
  -23.7571  -30.5884   19.4005 H   0  0  0  0  0  0
  -22.7599  -29.2408   19.8562 H   0  0  0  0  0  0
  -25.1300  -36.1924   25.0818 H   0  0  0  0  0  0
  -20.9985  -28.3289   24.1396 H   0  0  0  0  0  0
  -20.5699  -26.2308   23.3616 H   0  0  0  0  0  0
  -21.6650  -26.7447   22.1195 H   0  0  0  0  0  0
  -19.6934  -25.6294   21.1250 H   0  0  0  0  0  0
  -19.6709  -27.3183   20.6730 H   0  0  0  0  0  0
  -17.4208  -26.6677   21.4017 H   0  0  0  0  0  0
  -18.0329  -26.0068   22.9011 H   0  0  0  0  0  0
  -19.7946  -30.7269   24.2258 H   0  0  0  0  0  0
  -17.5026  -31.6268   24.5162 H   0  0  0  0  0  0
  -15.5364  -30.2986   23.7666 H   0  0  0  0  0  0
  -15.8680  -28.0830   22.7064 H   0  0  0  0  0  0
  -24.5901  -30.7070   25.7754 H   0  0  0  0  0  0
  -24.8851  -32.2913   26.4794 H   0  0  0  0  0  0
  -25.7992  -30.8973   27.0245 H   0  0  0  0  0  0
  -26.2936  -29.6752   24.1216 H   0  0  0  0  0  0
  -27.4021  -29.7278   25.4729 H   0  0  0  0  0  0
  -27.8810  -30.4290   23.9455 H   0  0  0  0  0  0
  -27.2665  -33.3659   26.2015 H   0  0  0  0  0  0
  -28.3872  -32.6858   25.0316 H   0  0  0  0  0  0
  -28.0694  -31.8485   26.5435 H   0  0  0  0  0  0
  -28.2596  -38.0097   24.7518 H   0  0  0  0  0  0
  -28.1089  -36.2629   24.6285 H   0  0  0  0  0  0
  -27.2299  -37.1435   25.8865 H   0  0  0  0  0  0
  -20.9398  -29.8757   21.6855 H   0  0  0  0  0  0
  -26.0185  -38.2851   24.1399 H   0  0  0  0  0  0
  -31.6646  -19.5593   19.6471 H   0  0  0  0  0  0
  -27.1769  -20.5955   21.3087 H   0  0  0  0  0  0
  -28.8231  -23.9093   18.7285 H   0  0  0  0  0  0
  -27.0639  -23.5954   18.9937 H   0  0  0  0  0  0
  -28.9775  -24.0569   22.3189 H   0  0  0  0  0  0
  -30.0555  -24.2183   20.8811 H   0  0  0  0  0  0
  -27.0525  -24.9209   21.0937 H   0  0  0  0  0  0
  -32.0516  -21.6982   18.9753 H   0  0  0  0  0  0
  -31.5570  -22.8045   20.2405 H   0  0  0  0  0  0
  -30.7092  -22.7860   18.6821 H   0  0  0  0  0  0
  -31.3099  -17.3054   21.3600 H   0  0  0  0  0  0
  -31.2171  -17.2008   19.6385 H   0  0  0  0  0  0
  -28.9653  -15.8219   20.8502 H   0  0  0  0  0  0
  1 25  1  0  0  0
  1 30  2  0  0  0
  1 83  1  0  0  0
  2  3  1  0  0  0
  2 25  1  0  0  0
  2 85  1  0  0  0
  2 86  1  0  0  0
  3  4  1  0  0  0
  3 87  1  0  0  0
  3 88  1  0  0  0
  4  5  1  0  0  0
  4 89  1  0  0  0
  4 90  1  0  0  0
  5  6  1  0  0  0
  5 26  1  0  0  0
  5 91  1  0  0  0
  6 25  1  0  0  0
  6 92  1  0  0  0
  6 93  1  0  0  0
  7  8  2  0  0  0
  7 26  1  0  0  0
  7 29  1  0  0  0
  8  9  1  0  0  0
  8 22  1  0  0  0
  9 10  1  0  0  0
  9 27  2  0  0  0
 10 11  2  0  0  0
 10 15  1  0  0  0
 11 12  1  0  0  0
 11 94  1  0  0  0
 12 13  2  0  0  0
 12 95  1  0  0  0
 13 14  1  0  0  0
 13 31  1  0  0  0
 14 15  2  0  0  0
 14 96  1  0  0  0
 15 97  1  0  0  0
 16 17  2  0  0  0
 16 21  1  0  0  0
 16 31  1  0  0  0
 17 18  1  0  0  0
 17 98  1  0  0  0
 18 19  2  0  0  0
 18 99  1  0  0  0
 19 20  1  0  0  0
 19 24  1  0  0  0
 20 21  2  0  0  0
 20100  1  0  0  0
 21 23  1  0  0  0
 22 28  1  0  0  0
 22 32  2  0  0  0
 26 27  1  0  0  0
 28101  1  0  0  0
 28102  1  0  0  0
 29103  1  0  0  0
 29104  1  0  0  0
 33 34  1  0  0  0
 33 66  1  0  0  0
 33 70  2  0  0  0
 34 36  1  0  0  0
 34 59  1  0  0  0
 34105  1  0  0  0
 35 44  2  0  0  0
 35 45  1  0  0  0
 35 68  1  0  0  0
 36 56  1  0  0  0
 36106  1  0  0  0
 37 39  1  0  0  0
 37 47  1  0  0  0
 37 66  1  0  0  0
 37107  1  0  0  0
 38 43  2  0  0  0
 38 46  1  0  0  0
 38 47  1  0  0  0
 39 64  1  0  0  0
 39 67  2  0  0  0
 40 52  1  0  0  0
 40 53  2  0  0  0
 40 58  1  0  0  0
 41108  1  0  0  0
 41109  1  0  0  0
 41110  1  0  0  0
 41 48  1  0  0  0
 42 43  1  0  0  0
 42 66  1  0  0  0
 42111  1  0  0  0
 42112  1  0  0  0
 43 44  1  0  0  0
 44113  1  0  0  0
 45 46  2  0  0  0
 45114  1  0  0  0
 46115  1  0  0  0
 47116  1  0  0  0
 47117  1  0  0  0
 48 56  1  0  0  0
 48 65  1  0  0  0
 48118  1  0  0  0
 49 50  1  0  0  0
 49 53  1  0  0  0
 49 64  1  0  0  0
 49119  1  0  0  0
 50 51  1  0  0  0
 50120  1  0  0  0
 50121  1  0  0  0
 51 52  1  0  0  0
 51122  1  0  0  0
 51123  1  0  0  0
 52124  1  0  0  0
 52125  1  0  0  0
 53 54  1  0  0  0
 54 55  2  0  0  0
 54126  1  0  0  0
 55 57  1  0  0  0
 55127  1  0  0  0
 56 69  2  0  0  0
 57 58  2  0  0  0
 57128  1  0  0  0
 58129  1  0  0  0
 59 60  1  0  0  0
 59 61  1  0  0  0
 59 62  1  0  0  0
 60130  1  0  0  0
 60131  1  0  0  0
 60132  1  0  0  0
 61133  1  0  0  0
 61134  1  0  0  0
 61135  1  0  0  0
 62136  1  0  0  0
 62137  1  0  0  0
 62138  1  0  0  0
 63 65  1  0  0  0
 63139  1  0  0  0
 63140  1  0  0  0
 63141  1  0  0  0
 64142  1  0  0  0
 65143  1  0  0  0
 68 79  1  0  0  0
 71 73  2  0  0  0
 71 74  1  0  0  0
 71144  1  0  0  0
 72 75  2  0  0  0
 72 76  1  0  0  0
 72145  1  0  0  0
 73 75  1  0  0  0
 73 80  1  0  0  0
 74 76  2  0  0  0
 74 81  1  0  0  0
 75 82  1  0  0  0
 76 84  1  0  0  0
 77 79  1  0  0  0
 77 82  1  0  0  0
 77146  1  0  0  0
 77147  1  0  0  0
 78 79  1  0  0  0
 78 82  1  0  0  0
 78148  1  0  0  0
 78149  1  0  0  0
 79150  1  0  0  0
 80151  1  0  0  0
 80152  1  0  0  0
 80153  1  0  0  0
 81 83  1  0  0  0
 81154  1  0  0  0
 81155  1  0  0  0
 83156  1  0  0  0
M  ISO  4   1 100  68 101  79 101  83 100
M  END
> <chiral flag>
0

> <version>
0

> <s_m_source_file>
/data/baiqing/PycharmProjects/Reinvent-master-3.2/result/LINK_invent/BTK/process_docking_weight1_custom_product_contain_oxygen_bond_distance_aromatic_linkinvent_7_9_3/rearranged_h_0032.sdf

> <i_m_source_file_index>
12

> <r_mmod_Potential_Energy-OPLS-2005>
190.238464355469

> <r_mmod_Stretch_Energy-OPLS-2005>
98.2685623168945

> <r_mmod_Bend_Energy-OPLS-2005>
232.972305297852

> <r_mmod_Torsional_Energy-OPLS-2005>
247.053619384766

> <r_mmod_Improper_Torsional_Energy-OPLS-2005>
11.7825002670288

> <r_mmod_Van_der_Waal_Energy-OPLS-2005>
144.258163452148

> <r_mmod_Electrostatic_Energy-OPLS-2005>
-401.932495117188

> <r_mmod_Solvation_Energy-OPLS-2005>
-214.628372192383

> <b_mmod_Minimization_Converged-OPLS-2005>
0

> <r_mmod_RMS_Derivative-OPLS-2005>
1.02913212776184

$$$$
12
                    3D
 Structure written by MMmdl.
167176  0  0  1  0            999 V2000
  -30.6371  -14.6601   20.4436 C   0  0  0  0  0  0
  -30.4526  -12.3729   19.4782 C   0  0  0  0  0  0
  -29.5171  -12.3813   18.2467 C   0  0  0  0  0  0
  -28.0314  -12.3002   18.6554 C   0  0  0  0  0  0
  -27.6539  -13.2096   19.8569 C   0  0  2  0  0  0
  -28.7037  -13.1091   20.9866 C   0  0  0  0  0  0
  -25.2611  -13.8179   20.5732 C   0  0  0  0  0  0
  -24.1861  -13.0454   20.9215 C   0  0  0  0  0  0
  -24.6414  -11.6912   20.8763 C   0  0  0  0  0  0
  -23.9089  -10.4290   21.0430 C   0  0  0  0  0  0
  -24.3643   -9.4196   21.9195 C   0  0  0  0  0  0
  -23.6317   -8.2227   22.0762 C   0  0  0  0  0  0
  -22.4290   -8.0279   21.3566 C   0  0  0  0  0  0
  -21.9935   -9.0249   20.4670 C   0  0  0  0  0  0
  -22.7267  -10.2129   20.3081 C   0  0  0  0  0  0
  -21.6838   -6.0746   22.5270 C   0  0  0  0  0  0
  -21.3994   -6.5654   23.8206 C   0  0  0  0  0  0
  -21.3660   -5.6815   24.9173 C   0  0  0  0  0  0
  -21.6038   -4.3071   24.7231 C   0  0  0  0  0  0
  -21.8815   -3.8165   23.4346 C   0  0  0  0  0  0
  -21.9184   -4.6974   22.3403 C   0  0  0  0  0  0
  -22.7882  -13.5251   21.1863 C   0  0  0  0  0  0
  -22.1655   -4.2158   21.0981 F   0  0  0  0  0  0
  -21.5647   -3.4564   25.7746 F   0  0  0  0  0  0
  -30.0180  -13.4344   20.4097 N   0  0  0  0  0  0
  -26.3014  -12.9334   20.3351 N   0  0  0  0  0  0
  -25.9339  -11.6502   20.5822 N   0  0  0  0  0  0
  -22.0540  -12.8197   22.0393 N   0  0  0  0  0  0
  -25.4377  -15.1897   20.4170 N   0  0  0  0  0  0
  -31.8105  -14.7993   20.0866 O   0  0  0  0  0  0
  -21.6659   -6.8869   21.4231 O   0  0  0  0  0  0
  -22.3577  -14.5580   20.6744 O   0  0  0  0  0  0
  -24.6284  -31.8592   23.2006 C   0  0  0  0  0  0
  -25.9124  -32.4774   23.8358 C   0  0  1  0  0  0
  -27.2301  -27.3206   20.1112 C   0  0  0  0  0  0
  -25.5914  -33.8571   24.2290 N   0  0  0  0  0  0
  -23.4236  -30.4810   21.5429 C   0  0  2  0  0  0
  -24.8680  -28.9413   20.1068 C   0  0  0  0  0  0
  -22.7519  -29.4634   22.4946 C   0  0  0  0  0  0
  -18.0318  -28.1345   22.8570 C   0  0  0  0  0  0
  -24.1492  -36.7303   23.2642 C   0  0  0  0  0  0
  -25.9646  -30.7890   21.3741 C   0  0  0  0  0  0
  -26.0370  -29.4192   20.7116 C   0  0  0  0  0  0
  -27.2171  -28.6204   20.7050 C   0  0  0  0  0  0
  -26.0433  -26.9071   19.4616 C   0  0  0  0  0  0
  -24.8722  -27.6888   19.4740 C   0  0  0  0  0  0
  -23.6353  -29.8189   20.1579 C   0  0  0  0  0  0
  -25.4113  -36.3089   24.0336 C   0  0  1  0  0  0
  -20.5930  -28.3676   23.1229 C   0  0  2  0  0  0
  -20.6832  -26.9413   22.5316 C   0  0  0  0  0  0
  -19.5722  -26.6383   21.5214 C   0  0  0  0  0  0
  -18.2016  -26.7793   22.1898 C   0  0  0  0  0  0
  -19.1588  -28.8861   23.2852 C   0  0  0  0  0  0
  -18.9543  -30.1507   23.8783 C   0  0  0  0  0  0
  -17.6549  -30.6608   24.0551 C   0  0  0  0  0  0
  -25.9054  -34.9456   23.5112 C   0  0  0  0  0  0
  -16.5415  -29.9077   23.6412 C   0  0  0  0  0  0
  -16.7303  -28.6461   23.0452 C   0  0  0  0  0  0
  -26.4484  -31.6584   25.0749 C   0  0  0  0  0  0
  -25.3728  -31.3732   26.1486 C   0  0  0  0  0  0
  -27.0314  -30.2995   24.6233 C   0  0  0  0  0  0
  -27.6032  -32.4337   25.7518 C   0  0  0  0  0  0
  -27.5577  -37.1797   24.8460 C   0  0  0  0  0  0
  -21.4232  -29.3035   22.3652 N   0  0  0  0  0  0
  -26.4289  -37.3785   23.9406 N   0  0  0  0  0  0
  -24.6905  -31.0609   22.0958 N   0  0  0  0  0  0
  -23.4217  -28.8210   23.3073 O   0  0  0  0  0  0
  -28.3533  -26.4780   20.1890 O   0  0  0  0  0  0
  -26.5633  -34.8910   22.4688 O   0  0  0  0  0  0
  -23.5433  -32.1387   23.7309 O   0  0  0  0  0  0
  -30.2387  -19.5213   21.0372 C   0  0  0  0  0  0
  -30.3352  -18.1175   21.2620 C   0  0  0  0  0  0
  -29.6633  -20.0669   19.8588 C   0  0  0  0  0  0
  -29.2781  -19.1063   18.8621 C   0  0  0  0  0  0
  -29.4166  -17.6742   19.0618 C   0  0  0  0  0  0
  -29.9192  -17.1514   20.3073 C   0  0  0  0  0  0
  -27.5551  -22.8004   20.8366 C   0  0  0  0  0  0
  -26.6534  -21.8357   21.1095 C   0  0  0  0  0  0
  -27.2136  -24.2869   20.8509 C   0  0  0  0  0  0
  -29.4745  -24.1012   20.2332 C   0  0  0  0  0  0
  -28.2248  -25.0117   19.9630 C   0  0  2  0  0  0
  -28.7177  -19.6551   17.5437 C   0  0  0  0  0  0
  -26.8466  -20.3441   21.2141 C   0  0  0  0  0  0
  -29.5944  -21.6387   19.5855 C   0  0  0  0  0  0
  -29.0106  -16.7405   17.9020 C   0  0  0  0  0  0
  -29.8378  -15.7403   20.7235 N   0  0  0  0  0  0
  -29.0362  -22.6793   20.5558 N   0  3  2  0  0  0
  -27.7097  -16.8804   17.6411 F   0  0  0  0  0  0
  -29.7204  -17.0245   16.8099 F   0  0  0  0  0  0
  -29.2003  -15.4533   18.1161 F   0  0  0  0  0  0
  -31.4850  -12.5077   19.1516 H   0  0  0  0  0  0
  -30.4276  -11.4030   19.9769 H   0  0  0  0  0  0
  -29.7548  -11.5193   17.6206 H   0  0  0  0  0  0
  -29.7045  -13.2486   17.6194 H   0  0  0  0  0  0
  -27.8440  -11.2604   18.9253 H   0  0  0  0  0  0
  -27.3877  -12.5055   17.8010 H   0  0  0  0  0  0
  -27.6560  -14.2333   19.4889 H   0  0  0  0  0  0
  -28.7156  -12.1060   21.4164 H   0  0  0  0  0  0
  -28.4489  -13.7815   21.8063 H   0  0  0  0  0  0
  -25.2798   -9.5640   22.4771 H   0  0  0  0  0  0
  -24.0028   -7.4611   22.7475 H   0  0  0  0  0  0
  -21.0864   -8.8750   19.8985 H   0  0  0  0  0  0
  -22.3729  -10.9664   19.6187 H   0  0  0  0  0  0
  -21.1972   -7.6158   23.9706 H   0  0  0  0  0  0
  -21.1501   -6.0554   25.9075 H   0  0  0  0  0  0
  -22.0599   -2.7631   23.2838 H   0  0  0  0  0  0
  -22.4220  -11.9864   22.4734 H   0  0  0  0  0  0
  -21.1174  -13.1178   22.2709 H   0  0  0  0  0  0
  -24.6806  -15.8505   20.5490 H   0  0  0  0  0  0
  -26.2893  -15.6247   20.0880 H   0  0  0  0  0  0
  -26.7194  -32.5453   23.1103 H   0  0  0  0  0  0
  -25.0004  -33.9738   25.0386 H   0  0  0  0  0  0
  -22.7158  -31.3002   21.4013 H   0  0  0  0  0  0
  -23.3763  -35.9630   23.3318 H   0  0  0  0  0  0
  -24.3588  -36.8914   22.2055 H   0  0  0  0  0  0
  -23.7239  -37.6498   23.6667 H   0  0  0  0  0  0
  -26.1122  -31.5572   20.6145 H   0  0  0  0  0  0
  -26.8397  -30.8285   22.0121 H   0  0  0  0  0  0
  -28.1102  -28.9819   21.1948 H   0  0  0  0  0  0
  -25.9882  -25.9646   18.9408 H   0  0  0  0  0  0
  -23.9809  -27.3193   18.9878 H   0  0  0  0  0  0
  -23.7472  -30.5977   19.4008 H   0  0  0  0  0  0
  -22.7557  -29.2463   19.8625 H   0  0  0  0  0  0
  -25.1297  -36.1928   25.0830 H   0  0  0  0  0  0
  -21.0030  -28.3195   24.1350 H   0  0  0  0  0  0
  -20.5852  -26.2288   23.3530 H   0  0  0  0  0  0
  -21.6658  -26.7498   22.0972 H   0  0  0  0  0  0
  -19.6921  -25.6333   21.1119 H   0  0  0  0  0  0
  -19.6498  -27.3289   20.6797 H   0  0  0  0  0  0
  -17.4056  -26.6090   21.4632 H   0  0  0  0  0  0
  -18.0868  -26.0124   22.9580 H   0  0  0  0  0  0
  -19.8045  -30.7364   24.2004 H   0  0  0  0  0  0
  -17.5146  -31.6314   24.5121 H   0  0  0  0  0  0
  -15.5421  -30.2971   23.7820 H   0  0  0  0  0  0
  -15.8689  -28.0761   22.7243 H   0  0  0  0  0  0
  -24.5882  -30.7089   25.7840 H   0  0  0  0  0  0
  -24.8950  -32.2904   26.4935 H   0  0  0  0  0  0
  -25.8062  -30.8892   27.0246 H   0  0  0  0  0  0
  -26.2887  -29.6759   24.1236 H   0  0  0  0  0  0
  -27.3953  -29.7233   25.4750 H   0  0  0  0  0  0
  -27.8796  -30.4279   23.9512 H   0  0  0  0  0  0
  -27.2617  -33.3619   26.2106 H   0  0  0  0  0  0
  -28.3819  -32.6923   25.0343 H   0  0  0  0  0  0
  -28.0731  -31.8474   26.5415 H   0  0  0  0  0  0
  -28.2599  -38.0089   24.7503 H   0  0  0  0  0  0
  -28.1062  -36.2615   24.6286 H   0  0  0  0  0  0
  -27.2303  -37.1452   25.8866 H   0  0  0  0  0  0
  -20.9435  -29.8691   21.6795 H   0  0  0  0  0  0
  -26.0170  -38.2865   24.1373 H   0  0  0  0  0  0
  -30.6037  -20.1836   21.8092 H   0  0  0  0  0  0
  -30.7302  -17.7754   22.2079 H   0  0  0  0  0  0
  -25.6343  -22.1507   21.2847 H   0  0  0  0  0  0
  -27.3020  -24.6393   21.8785 H   0  0  0  0  0  0
  -26.1792  -24.4400   20.5448 H   0  0  0  0  0  0
  -30.0001  -24.4876   21.1062 H   0  0  0  0  0  0
  -30.1759  -24.1516   19.3995 H   0  0  0  0  0  0
  -27.9447  -24.8635   18.9195 H   0  0  0  0  0  0
  -27.8409  -20.2758   17.7294 H   0  0  0  0  0  0
  -28.3911  -18.9239   16.8121 H   0  0  0  0  0  0
  -29.4690  -20.2599   17.0330 H   0  0  0  0  0  0
  -27.7635  -20.0981   21.7457 H   0  0  0  0  0  0
  -26.8433  -19.8827   20.2271 H   0  0  0  0  0  0
  -26.0228  -19.9173   21.7878 H   0  0  0  0  0  0
  -29.1181  -21.8589   18.6334 H   0  0  0  0  0  0
  -30.6390  -21.9075   19.4257 H   0  0  0  0  0  0
  -28.9380  -15.4711   21.0884 H   0  0  0  0  0  0
  -29.4896  -22.4559   21.4290 H   0  0  0  0  0  0
  1 25  1  0  0  0
  1 30  2  0  0  0
  1 86  1  0  0  0
  2  3  1  0  0  0
  2 25  1  0  0  0
  2 91  1  0  0  0
  2 92  1  0  0  0
  3  4  1  0  0  0
  3 93  1  0  0  0
  3 94  1  0  0  0
  4  5  1  0  0  0
  4 95  1  0  0  0
  4 96  1  0  0  0
  5  6  1  0  0  0
  5 26  1  0  0  0
  5 97  1  0  0  0
  6 25  1  0  0  0
  6 98  1  0  0  0
  6 99  1  0  0  0
  7  8  2  0  0  0
  7 26  1  0  0  0
  7 29  1  0  0  0
  8  9  1  0  0  0
  8 22  1  0  0  0
  9 10  1  0  0  0
  9 27  2  0  0  0
 10 11  2  0  0  0
 10 15  1  0  0  0
 11 12  1  0  0  0
 11100  1  0  0  0
 12 13  2  0  0  0
 12101  1  0  0  0
 13 14  1  0  0  0
 13 31  1  0  0  0
 14 15  2  0  0  0
 14102  1  0  0  0
 15103  1  0  0  0
 16 17  2  0  0  0
 16 21  1  0  0  0
 16 31  1  0  0  0
 17 18  1  0  0  0
 17104  1  0  0  0
 18 19  2  0  0  0
 18105  1  0  0  0
 19 20  1  0  0  0
 19 24  1  0  0  0
 20 21  2  0  0  0
 20106  1  0  0  0
 21 23  1  0  0  0
 22 28  1  0  0  0
 22 32  2  0  0  0
 26 27  1  0  0  0
 28107  1  0  0  0
 28108  1  0  0  0
 29109  1  0  0  0
 29110  1  0  0  0
 33 34  1  0  0  0
 33 66  1  0  0  0
 33 70  2  0  0  0
 34 36  1  0  0  0
 34 59  1  0  0  0
 34111  1  0  0  0
 35 44  2  0  0  0
 35 45  1  0  0  0
 35 68  1  0  0  0
 36 56  1  0  0  0
 36112  1  0  0  0
 37 39  1  0  0  0
 37 47  1  0  0  0
 37 66  1  0  0  0
 37113  1  0  0  0
 38 43  2  0  0  0
 38 46  1  0  0  0
 38 47  1  0  0  0
 39 64  1  0  0  0
 39 67  2  0  0  0
 40 52  1  0  0  0
 40 53  2  0  0  0
 40 58  1  0  0  0
 41114  1  0  0  0
 41115  1  0  0  0
 41116  1  0  0  0
 41 48  1  0  0  0
 42 43  1  0  0  0
 42 66  1  0  0  0
 42117  1  0  0  0
 42118  1  0  0  0
 43 44  1  0  0  0
 44119  1  0  0  0
 45 46  2  0  0  0
 45120  1  0  0  0
 46121  1  0  0  0
 47122  1  0  0  0
 47123  1  0  0  0
 48 56  1  0  0  0
 48 65  1  0  0  0
 48124  1  0  0  0
 49 50  1  0  0  0
 49 53  1  0  0  0
 49 64  1  0  0  0
 49125  1  0  0  0
 50 51  1  0  0  0
 50126  1  0  0  0
 50127  1  0  0  0
 51 52  1  0  0  0
 51128  1  0  0  0
 51129  1  0  0  0
 52130  1  0  0  0
 52131  1  0  0  0
 53 54  1  0  0  0
 54 55  2  0  0  0
 54132  1  0  0  0
 55 57  1  0  0  0
 55133  1  0  0  0
 56 69  2  0  0  0
 57 58  2  0  0  0
 57134  1  0  0  0
 58135  1  0  0  0
 59 60  1  0  0  0
 59 61  1  0  0  0
 59 62  1  0  0  0
 60136  1  0  0  0
 60137  1  0  0  0
 60138  1  0  0  0
 61139  1  0  0  0
 61140  1  0  0  0
 61141  1  0  0  0
 62142  1  0  0  0
 62143  1  0  0  0
 62144  1  0  0  0
 63 65  1  0  0  0
 63145  1  0  0  0
 63146  1  0  0  0
 63147  1  0  0  0
 64148  1  0  0  0
 65149  1  0  0  0
 68 81  1  0  0  0
 71 72  2  0  0  0
 71 73  1  0  0  0
 71150  1  0  0  0
 72 76  1  0  0  0
 72151  1  0  0  0
 73 74  2  0  0  0
 73 84  1  0  0  0
 74 75  1  0  0  0
 74 82  1  0  0  0
 75 76  2  0  0  0
 75 85  1  0  0  0
 76 86  1  0  0  0
 77 78  2  0  0  0
 77 79  1  0  0  0
 77 87  1  0  0  0
 78 83  1  0  0  0
 78152  1  0  0  0
 79 81  1  0  0  0
 79153  1  0  0  0
 79154  1  0  0  0
 80 81  1  0  0  0
 80 87  1  0  0  0
 80155  1  0  0  0
 80156  1  0  0  0
 81157  1  0  0  0
 82158  1  0  0  0
 82159  1  0  0  0
 82160  1  0  0  0
 83161  1  0  0  0
 83162  1  0  0  0
 83163  1  0  0  0
 84164  1  0  0  0
 84165  1  0  0  0
 84 87  1  0  0  0
 85 88  1  0  0  0
 85 89  1  0  0  0
 85 90  1  0  0  0
 86166  1  0  0  0
 87167  1  0  0  0
M  CHG  1  87   1
M  ISO  4   1 100  68 101  81 101  86 100
M  END
> <chiral flag>
0

> <version>
0

> <s_m_source_file>
/data/baiqing/PycharmProjects/Reinvent-master-3.2/result/LINK_invent/BTK/process_docking_weight1_custom_product_contain_oxygen_bond_distance_aromatic_linkinvent_7_9_3/rearranged_h_0032.sdf

> <i_m_source_file_index>
13

> <r_mmod_Potential_Energy-OPLS-2005>
163.49836730957

> <r_mmod_Stretch_Energy-OPLS-2005>
97.1751251220703

> <r_mmod_Bend_Energy-OPLS-2005>
202.015258789062

> <r_mmod_Torsional_Energy-OPLS-2005>
277.714874267578

> <r_mmod_Improper_Torsional_Energy-OPLS-2005>
5.91032409667969

> <r_mmod_Van_der_Waal_Energy-OPLS-2005>
156.064331054688

> <r_mmod_Electrostatic_Energy-OPLS-2005>
-188.231155395508

> <r_mmod_Solvation_Energy-OPLS-2005>
-444.371398925781

> <b_mmod_Minimization_Converged-OPLS-2005>
0

> <r_mmod_RMS_Derivative-OPLS-2005>
3.89436078071594

$$$$
13
                    3D
 Structure written by MMmdl.
168177  0  0  1  0            999 V2000
  -30.6026  -14.6565   20.5154 C   0  0  0  0  0  0
  -30.4268  -12.4057   19.4502 C   0  0  0  0  0  0
  -29.4973  -12.5462   18.2235 C   0  0  0  0  0  0
  -28.0158  -12.3888   18.6263 C   0  0  0  0  0  0
  -27.6532  -13.2287   19.8786 C   0  0  2  0  0  0
  -28.7007  -13.0510   21.0010 C   0  0  0  0  0  0
  -25.2544  -13.8226   20.5768 C   0  0  0  0  0  0
  -24.1813  -13.0449   20.9248 C   0  0  0  0  0  0
  -24.6400  -11.6935   20.8744 C   0  0  0  0  0  0
  -23.9091  -10.4290   21.0416 C   0  0  0  0  0  0
  -24.3645   -9.4204   21.9198 C   0  0  0  0  0  0
  -23.6317   -8.2233   22.0763 C   0  0  0  0  0  0
  -22.4288   -8.0272   21.3551 C   0  0  0  0  0  0
  -21.9912   -9.0256   20.4661 C   0  0  0  0  0  0
  -22.7250  -10.2142   20.3071 C   0  0  0  0  0  0
  -21.6834   -6.0738   22.5289 C   0  0  0  0  0  0
  -21.4009   -6.5655   23.8225 C   0  0  0  0  0  0
  -21.3662   -5.6814   24.9190 C   0  0  0  0  0  0
  -21.6043   -4.3071   24.7250 C   0  0  0  0  0  0
  -21.8811   -3.8156   23.4375 C   0  0  0  0  0  0
  -21.9194   -4.6962   22.3429 C   0  0  0  0  0  0
  -22.7831  -13.5208   21.1912 C   0  0  0  0  0  0
  -22.1651   -4.2145   21.1005 F   0  0  0  0  0  0
  -21.5637   -3.4560   25.7772 F   0  0  0  0  0  0
  -30.0097  -13.4174   20.4429 N   0  0  0  0  0  0
  -26.2989  -12.9412   20.3436 N   0  0  0  0  0  0
  -25.9334  -11.6549   20.5797 N   0  0  0  0  0  0
  -22.0510  -12.8164   22.0474 N   0  0  0  0  0  0
  -25.4248  -15.1966   20.4196 N   0  0  0  0  0  0
  -31.7394  -14.8430   20.0755 O   0  0  0  0  0  0
  -21.6641   -6.8873   21.4236 O   0  0  0  0  0  0
  -22.3496  -14.5498   20.6760 O   0  0  0  0  0  0
  -24.6235  -31.8597   23.2020 C   0  0  0  0  0  0
  -25.9073  -32.4796   23.8359 C   0  0  1  0  0  0
  -27.2471  -27.2990   20.1400 C   0  0  0  0  0  0
  -25.5905  -33.8588   24.2288 N   0  0  0  0  0  0
  -23.4211  -30.4752   21.5459 C   0  0  2  0  0  0
  -24.8770  -28.9209   20.1254 C   0  0  0  0  0  0
  -22.7492  -29.4603   22.4981 C   0  0  0  0  0  0
  -18.0326  -28.1417   22.8444 C   0  0  0  0  0  0
  -24.1483  -36.7283   23.2650 C   0  0  0  0  0  0
  -25.9637  -30.7790   21.3835 C   0  0  0  0  0  0
  -26.0424  -29.3978   20.7393 C   0  0  0  0  0  0
  -27.2252  -28.5963   20.7446 C   0  0  0  0  0  0
  -26.0723  -26.9009   19.4660 C   0  0  0  0  0  0
  -24.8956  -27.6739   19.4808 C   0  0  0  0  0  0
  -23.6432  -29.8007   20.1649 C   0  0  0  0  0  0
  -25.4111  -36.3078   24.0338 C   0  0  1  0  0  0
  -20.5927  -28.3621   23.1262 C   0  0  2  0  0  0
  -20.6798  -26.9466   22.5110 C   0  0  0  0  0  0
  -19.5737  -26.6706   21.4867 C   0  0  0  0  0  0
  -18.1911  -26.8071   22.1339 C   0  0  0  0  0  0
  -19.1581  -28.8812   23.2899 C   0  0  0  0  0  0
  -18.9518  -30.1374   23.9024 C   0  0  0  0  0  0
  -17.6541  -30.6533   24.0719 C   0  0  0  0  0  0
  -25.9050  -34.9458   23.5109 C   0  0  0  0  0  0
  -16.5425  -29.9100   23.6421 C   0  0  0  0  0  0
  -16.7331  -28.6558   23.0361 C   0  0  0  0  0  0
  -26.4486  -31.6598   25.0724 C   0  0  0  0  0  0
  -25.3698  -31.3742   26.1437 C   0  0  0  0  0  0
  -27.0348  -30.3004   24.6223 C   0  0  0  0  0  0
  -27.6059  -32.4324   25.7487 C   0  0  0  0  0  0
  -27.5579  -37.1797   24.8469 C   0  0  0  0  0  0
  -21.4206  -29.3052   22.3750 N   0  0  0  0  0  0
  -26.4290  -37.3767   23.9410 N   0  0  0  0  0  0
  -24.6865  -31.0580   22.0978 N   0  0  0  0  0  0
  -23.4221  -28.8157   23.3067 O   0  0  0  0  0  0
  -28.3941  -26.4838   20.0740 O   0  0  0  0  0  0
  -26.5627  -34.8918   22.4675 O   0  0  0  0  0  0
  -23.5398  -32.1396   23.7325 O   0  0  0  0  0  0
  -29.9115  -19.3644   19.7907 C   0  0  0  0  0  0
  -29.7894  -17.8801   22.1420 C   0  0  0  0  0  0
  -29.7920  -20.1086   21.0012 C   0  0  0  0  0  0
  -29.9418  -17.9289   19.7470 C   0  0  0  0  0  0
  -29.7407  -19.3077   22.1896 C   0  0  0  0  0  0
  -29.9108  -17.1425   20.9375 C   0  0  0  0  0  0
  -27.4887  -22.7924   20.7669 C   0  0  0  0  0  0
  -25.4432  -19.6786   20.5692 C   0  0  0  0  0  0
  -26.4986  -21.8750   20.8336 C   0  0  0  0  0  0
  -26.5283  -20.4663   20.4807 C   0  0  0  0  0  0
  -27.2270  -24.2867   20.9843 C   0  0  0  0  0  0
  -29.4139  -24.0301   20.0091 C   0  0  0  0  0  0
  -28.4883  -25.1135   20.6848 C   0  0  1  0  0  0
  -29.9607  -17.2416   18.3939 C   0  0  0  0  0  0
  -29.6577  -19.9380   23.5724 C   0  0  0  0  0  0
  -29.8597  -21.7026   21.0356 C   0  0  0  0  0  0
  -29.8160  -15.6765   20.9971 N   0  0  0  0  0  0
  -28.9008  -22.6174   20.2639 N   0  3  1  0  0  0
  -31.4711  -12.5163   19.1580 H   0  0  0  0  0  0
  -30.3476  -11.4047   19.8764 H   0  0  0  0  0  0
  -29.7579  -11.8163   17.4567 H   0  0  0  0  0  0
  -29.6430  -13.5288   17.7706 H   0  0  0  0  0  0
  -27.8206  -11.3303   18.8113 H   0  0  0  0  0  0
  -27.3709  -12.6737   17.7921 H   0  0  0  0  0  0
  -27.6760  -14.2724   19.5673 H   0  0  0  0  0  0
  -28.7198  -12.0141   21.3404 H   0  0  0  0  0  0
  -28.4495  -13.6434   21.8823 H   0  0  0  0  0  0
  -25.2787   -9.5684   22.4783 H   0  0  0  0  0  0
  -24.0026   -7.4618   22.7481 H   0  0  0  0  0  0
  -21.0833   -8.8774   19.8986 H   0  0  0  0  0  0
  -22.3689  -10.9686   19.6194 H   0  0  0  0  0  0
  -21.1973   -7.6160   23.9717 H   0  0  0  0  0  0
  -21.1494   -6.0563   25.9105 H   0  0  0  0  0  0
  -22.0580   -2.7609   23.2894 H   0  0  0  0  0  0
  -22.4097  -11.9781   22.4799 H   0  0  0  0  0  0
  -21.1156  -13.1190   22.2776 H   0  0  0  0  0  0
  -24.6592  -15.8521   20.5345 H   0  0  0  0  0  0
  -26.2784  -15.6345   20.0961 H   0  0  0  0  0  0
  -26.7136  -32.5474   23.1123 H   0  0  0  0  0  0
  -24.9979  -33.9737   25.0377 H   0  0  0  0  0  0
  -22.7131  -31.2921   21.3946 H   0  0  0  0  0  0
  -23.3743  -35.9616   23.3317 H   0  0  0  0  0  0
  -24.3592  -36.8881   22.2064 H   0  0  0  0  0  0
  -23.7228  -37.6489   23.6656 H   0  0  0  0  0  0
  -26.0952  -31.5374   20.6105 H   0  0  0  0  0  0
  -26.8428  -30.8404   22.0133 H   0  0  0  0  0  0
  -28.1143  -28.9687   21.2302 H   0  0  0  0  0  0
  -26.0648  -25.9865   18.8930 H   0  0  0  0  0  0
  -24.0149  -27.3082   18.9736 H   0  0  0  0  0  0
  -23.7566  -30.5727   19.4012 H   0  0  0  0  0  0
  -22.7668  -29.2201   19.8696 H   0  0  0  0  0  0
  -25.1293  -36.1942   25.0833 H   0  0  0  0  0  0
  -21.0082  -28.2944   24.1330 H   0  0  0  0  0  0
  -20.5754  -26.2128   23.3120 H   0  0  0  0  0  0
  -21.6621  -26.7599   22.0765 H   0  0  0  0  0  0
  -19.6566  -27.3856   20.6647 H   0  0  0  0  0  0
  -19.6941  -25.6825   21.0439 H   0  0  0  0  0  0
  -17.4213  -26.7037   21.3666 H   0  0  0  0  0  0
  -18.0268  -26.0020   22.8486 H   0  0  0  0  0  0
  -19.8014  -30.7114   24.2511 H   0  0  0  0  0  0
  -17.5128  -31.6184   24.5395 H   0  0  0  0  0  0
  -15.5441  -30.3034   23.7762 H   0  0  0  0  0  0
  -15.8723  -28.0972   22.7014 H   0  0  0  0  0  0
  -24.5861  -30.7138   25.7733 H   0  0  0  0  0  0
  -24.8918  -32.2904   26.4879 H   0  0  0  0  0  0
  -25.8000  -30.8869   27.0184 H   0  0  0  0  0  0
  -26.2942  -29.6733   24.1254 H   0  0  0  0  0  0
  -27.4017  -29.7326   25.4782 H   0  0  0  0  0  0
  -27.8824  -30.4293   23.9495 H   0  0  0  0  0  0
  -27.2689  -33.3608   26.2116 H   0  0  0  0  0  0
  -28.3846  -32.6900   25.0294 H   0  0  0  0  0  0
  -28.0754  -31.8394   26.5350 H   0  0  0  0  0  0
  -28.2606  -38.0088   24.7497 H   0  0  0  0  0  0
  -28.1072  -36.2613   24.6312 H   0  0  0  0  0  0
  -27.2311  -37.1464   25.8881 H   0  0  0  0  0  0
  -20.9354  -29.8766   21.6984 H   0  0  0  0  0  0
  -26.0176  -38.2855   24.1362 H   0  0  0  0  0  0
  -29.9663  -19.9110   18.8585 H   0  0  0  0  0  0
  -29.7370  -17.3244   23.0675 H   0  0  0  0  0  0
  -25.4892  -18.6325   20.3036 H   0  0  0  0  0  0
  -24.4862  -20.0549   20.9006 H   0  0  0  0  0  0
  -25.5396  -22.2625   21.1492 H   0  0  0  0  0  0
  -27.4349  -20.0086   20.1257 H   0  0  0  0  0  0
  -26.8812  -24.4611   22.0020 H   0  0  0  0  0  0
  -26.4035  -24.5167   20.3199 H   0  0  0  0  0  0
  -30.4524  -24.1530   20.3278 H   0  0  0  0  0  0
  -29.4137  -24.1890   18.9287 H   0  0  0  0  0  0
  -28.9396  -25.3156   21.6561 H   0  0  0  0  0  0
  -29.2486  -16.4161   18.3781 H   0  0  0  0  0  0
  -30.9531  -16.8404   18.1963 H   0  0  0  0  0  0
  -29.6963  -17.9274   17.5878 H   0  0  0  0  0  0
  -29.6669  -19.1759   24.3529 H   0  0  0  0  0  0
  -28.7304  -20.4980   23.6942 H   0  0  0  0  0  0
  -30.5086  -20.5943   23.7677 H   0  0  0  0  0  0
  -30.8687  -21.9187   20.6767 H   0  0  0  0  0  0
  -29.8564  -22.0581   22.0628 H   0  0  0  0  0  0
  -28.9983  -15.3369   21.4789 H   0  0  0  0  0  0
  -28.8601  -22.2022   19.3448 H   0  0  0  0  0  0
  1 25  1  0  0  0
  1 30  2  0  0  0
  1 87  1  0  0  0
  2  3  1  0  0  0
  2 25  1  0  0  0
  2 89  1  0  0  0
  2 90  1  0  0  0
  3  4  1  0  0  0
  3 91  1  0  0  0
  3 92  1  0  0  0
  4  5  1  0  0  0
  4 93  1  0  0  0
  4 94  1  0  0  0
  5  6  1  0  0  0
  5 26  1  0  0  0
  5 95  1  0  0  0
  6 25  1  0  0  0
  6 96  1  0  0  0
  6 97  1  0  0  0
  7  8  2  0  0  0
  7 26  1  0  0  0
  7 29  1  0  0  0
  8  9  1  0  0  0
  8 22  1  0  0  0
  9 10  1  0  0  0
  9 27  2  0  0  0
 10 11  2  0  0  0
 10 15  1  0  0  0
 11 12  1  0  0  0
 11 98  1  0  0  0
 12 13  2  0  0  0
 12 99  1  0  0  0
 13 14  1  0  0  0
 13 31  1  0  0  0
 14 15  2  0  0  0
 14100  1  0  0  0
 15101  1  0  0  0
 16 17  2  0  0  0
 16 21  1  0  0  0
 16 31  1  0  0  0
 17 18  1  0  0  0
 17102  1  0  0  0
 18 19  2  0  0  0
 18103  1  0  0  0
 19 20  1  0  0  0
 19 24  1  0  0  0
 20 21  2  0  0  0
 20104  1  0  0  0
 21 23  1  0  0  0
 22 28  1  0  0  0
 22 32  2  0  0  0
 26 27  1  0  0  0
 28105  1  0  0  0
 28106  1  0  0  0
 29107  1  0  0  0
 29108  1  0  0  0
 33 34  1  0  0  0
 33 66  1  0  0  0
 33 70  2  0  0  0
 34 36  1  0  0  0
 34 59  1  0  0  0
 34109  1  0  0  0
 35 44  2  0  0  0
 35 45  1  0  0  0
 35 68  1  0  0  0
 36 56  1  0  0  0
 36110  1  0  0  0
 37 39  1  0  0  0
 37 47  1  0  0  0
 37 66  1  0  0  0
 37111  1  0  0  0
 38 43  2  0  0  0
 38 46  1  0  0  0
 38 47  1  0  0  0
 39 64  1  0  0  0
 39 67  2  0  0  0
 40 52  1  0  0  0
 40 53  2  0  0  0
 40 58  1  0  0  0
 41112  1  0  0  0
 41113  1  0  0  0
 41114  1  0  0  0
 41 48  1  0  0  0
 42 43  1  0  0  0
 42 66  1  0  0  0
 42115  1  0  0  0
 42116  1  0  0  0
 43 44  1  0  0  0
 44117  1  0  0  0
 45 46  2  0  0  0
 45118  1  0  0  0
 46119  1  0  0  0
 47120  1  0  0  0
 47121  1  0  0  0
 48 56  1  0  0  0
 48 65  1  0  0  0
 48122  1  0  0  0
 49 50  1  0  0  0
 49 53  1  0  0  0
 49 64  1  0  0  0
 49123  1  0  0  0
 50 51  1  0  0  0
 50124  1  0  0  0
 50125  1  0  0  0
 51 52  1  0  0  0
 51126  1  0  0  0
 51127  1  0  0  0
 52128  1  0  0  0
 52129  1  0  0  0
 53 54  1  0  0  0
 54 55  2  0  0  0
 54130  1  0  0  0
 55 57  1  0  0  0
 55131  1  0  0  0
 56 69  2  0  0  0
 57 58  2  0  0  0
 57132  1  0  0  0
 58133  1  0  0  0
 59 60  1  0  0  0
 59 61  1  0  0  0
 59 62  1  0  0  0
 60134  1  0  0  0
 60135  1  0  0  0
 60136  1  0  0  0
 61137  1  0  0  0
 61138  1  0  0  0
 61139  1  0  0  0
 62140  1  0  0  0
 62141  1  0  0  0
 62142  1  0  0  0
 63 65  1  0  0  0
 63143  1  0  0  0
 63144  1  0  0  0
 63145  1  0  0  0
 64146  1  0  0  0
 65147  1  0  0  0
 68 83  1  0  0  0
 71 73  2  0  0  0
 71 74  1  0  0  0
 71148  1  0  0  0
 72 75  2  0  0  0
 72 76  1  0  0  0
 72149  1  0  0  0
 73 75  1  0  0  0
 73 86  1  0  0  0
 74 76  2  0  0  0
 74 84  1  0  0  0
 75 85  1  0  0  0
 76 87  1  0  0  0
 77 79  2  0  0  0
 77 81  1  0  0  0
 77 88  1  0  0  0
 78 80  2  0  0  0
 78150  1  0  0  0
 78151  1  0  0  0
 79 80  1  0  0  0
 79152  1  0  0  0
 80153  1  0  0  0
 81 83  1  0  0  0
 81154  1  0  0  0
 81155  1  0  0  0
 82 83  1  0  0  0
 82 88  1  0  0  0
 82156  1  0  0  0
 82157  1  0  0  0
 83158  1  0  0  0
 84159  1  0  0  0
 84160  1  0  0  0
 84161  1  0  0  0
 85162  1  0  0  0
 85163  1  0  0  0
 85164  1  0  0  0
 86165  1  0  0  0
 86166  1  0  0  0
 86 88  1  0  0  0
 87167  1  0  0  0
 88168  1  0  0  0
M  CHG  1  88   1
M  ISO  4   1 100  68 101  83 101  87 100
M  END
> <chiral flag>
0

> <version>
0

> <s_m_source_file>
/data/baiqing/PycharmProjects/Reinvent-master-3.2/result/LINK_invent/BTK/process_docking_weight1_custom_product_contain_oxygen_bond_distance_aromatic_linkinvent_7_9_3/rearranged_h_0032.sdf

> <i_m_source_file_index>
14

> <r_mmod_Potential_Energy-OPLS-2005>
60.869743347168

> <r_mmod_Stretch_Energy-OPLS-2005>
97.1237030029297

> <r_mmod_Bend_Energy-OPLS-2005>
207.279693603516

> <r_mmod_Torsional_Energy-OPLS-2005>
286.371459960938

> <r_mmod_Improper_Torsional_Energy-OPLS-2005>
4.84710788726807

> <r_mmod_Van_der_Waal_Energy-OPLS-2005>
130.908081054688

> <r_mmod_Electrostatic_Energy-OPLS-2005>
-291.548370361328

> <r_mmod_Solvation_Energy-OPLS-2005>
-424.376434326172

> <b_mmod_Minimization_Converged-OPLS-2005>
0

> <r_mmod_RMS_Derivative-OPLS-2005>
5.59481287002563

$$$$
14
                    3D
 Structure written by MMmdl.
159168  0  0  1  0            999 V2000
  -30.5313  -14.9042   20.4362 C   0  0  0  0  0  0
  -30.4492  -12.5566   19.4969 C   0  0  0  0  0  0
  -29.5250  -12.5334   18.2558 C   0  0  0  0  0  0
  -28.0563  -12.3222   18.6709 C   0  0  0  0  0  0
  -27.6392  -13.2395   19.8496 C   0  0  2  0  0  0
  -28.6819  -13.2237   20.9891 C   0  0  0  0  0  0
  -25.2499  -13.8201   20.5707 C   0  0  0  0  0  0
  -24.1798  -13.0438   20.9211 C   0  0  0  0  0  0
  -24.6402  -11.6921   20.8744 C   0  0  0  0  0  0
  -23.9078  -10.4295   21.0405 C   0  0  0  0  0  0
  -24.3624   -9.4208   21.9185 C   0  0  0  0  0  0
  -23.6294   -8.2246   22.0755 C   0  0  0  0  0  0
  -22.4274   -8.0286   21.3547 C   0  0  0  0  0  0
  -21.9914   -9.0263   20.4648 C   0  0  0  0  0  0
  -22.7247  -10.2138   20.3056 C   0  0  0  0  0  0
  -21.6853   -6.0736   22.5280 C   0  0  0  0  0  0
  -21.4015   -6.5639   23.8213 C   0  0  0  0  0  0
  -21.3659   -5.6791   24.9175 C   0  0  0  0  0  0
  -21.6042   -4.3055   24.7223 C   0  0  0  0  0  0
  -21.8817   -3.8146   23.4345 C   0  0  0  0  0  0
  -21.9193   -4.6965   22.3400 C   0  0  0  0  0  0
  -22.7817  -13.5218   21.1867 C   0  0  0  0  0  0
  -22.1660   -4.2152   21.0979 F   0  0  0  0  0  0
  -21.5631   -3.4536   25.7734 F   0  0  0  0  0  0
  -29.9689  -13.6319   20.4081 N   0  0  0  0  0  0
  -26.2928  -12.9420   20.3271 N   0  0  0  0  0  0
  -25.9335  -11.6559   20.5743 N   0  0  0  0  0  0
  -22.0461  -12.8213   22.0427 N   0  0  0  0  0  0
  -25.4180  -15.1929   20.4148 N   0  0  0  0  0  0
  -31.7135  -15.0244   20.0969 O   0  0  0  0  0  0
  -21.6639   -6.8882   21.4242 O   0  0  0  0  0  0
  -22.3503  -14.5523   20.6712 O   0  0  0  0  0  0
  -24.6422  -31.8452   23.1896 C   0  0  0  0  0  0
  -25.9202  -32.4700   23.8280 C   0  0  1  0  0  0
  -27.2183  -27.1481   20.1415 C   0  0  0  0  0  0
  -25.5951  -33.8505   24.2195 N   0  0  0  0  0  0
  -23.4445  -30.4649   21.5354 C   0  0  2  0  0  0
  -24.8941  -28.8974   20.1064 C   0  0  0  0  0  0
  -22.7560  -29.4547   22.4869 C   0  0  0  0  0  0
  -18.0302  -28.1399   22.8477 C   0  0  0  0  0  0
  -24.1488  -36.7255   23.2642 C   0  0  0  0  0  0
  -25.9996  -30.7212   21.3884 C   0  0  0  0  0  0
  -26.0695  -29.3344   20.7286 C   0  0  0  0  0  0
  -27.2287  -28.4730   20.7355 C   0  0  0  0  0  0
  -26.0184  -26.8181   19.4692 C   0  0  0  0  0  0
  -24.8810  -27.6522   19.4625 C   0  0  0  0  0  0
  -23.6696  -29.7968   20.1531 C   0  0  0  0  0  0
  -25.4122  -36.3033   24.0315 C   0  0  1  0  0  0
  -20.5913  -28.3719   23.1243 C   0  0  2  0  0  0
  -20.6787  -26.9424   22.5409 C   0  0  0  0  0  0
  -19.5760  -26.6386   21.5215 C   0  0  0  0  0  0
  -18.1940  -26.7938   22.1625 C   0  0  0  0  0  0
  -19.1558  -28.8876   23.2851 C   0  0  0  0  0  0
  -18.9479  -30.1473   23.8878 C   0  0  0  0  0  0
  -17.6476  -30.6594   24.0558 C   0  0  0  0  0  0
  -25.9075  -34.9410   23.5066 C   0  0  0  0  0  0
  -16.5367  -29.9088   23.6335 C   0  0  0  0  0  0
  -16.7286  -28.6507   23.0355 C   0  0  0  0  0  0
  -26.4525  -31.6568   25.0721 C   0  0  0  0  0  0
  -25.3710  -31.3764   26.1417 C   0  0  0  0  0  0
  -27.0390  -30.2963   24.6304 C   0  0  0  0  0  0
  -27.6051  -32.4338   25.7508 C   0  0  0  0  0  0
  -27.5574  -37.1782   24.8467 C   0  0  0  0  0  0
  -21.4254  -29.3045   22.3617 N   0  0  0  0  0  0
  -26.4284  -37.3747   23.9410 N   0  0  0  0  0  0
  -24.7150  -31.0316   22.0929 N   0  0  0  0  0  0
  -23.4207  -28.8090   23.3011 O   0  0  0  0  0  0
  -28.2784  -26.1739   20.2459 O   0  0  0  0  0  0
  -26.5660  -34.8905   22.4645 O   0  0  0  0  0  0
  -23.5545  -32.1328   23.7124 O   0  0  0  0  0  0
  -28.8353  -19.5007   19.1044 C   0  0  0  0  0  0
  -30.0108  -18.5547   21.3936 C   0  0  0  0  0  0
  -29.0723  -18.0803   19.2804 C   0  0  0  0  0  0
  -29.1796  -20.5573   20.0240 C   0  0  0  0  0  0
  -29.6929  -17.5178   20.4413 C   0  0  0  0  0  0
  -29.7801  -19.9867   21.2042 C   0  0  0  0  0  0
  -28.4296  -23.3388   17.6480 C   0  0  0  0  0  0
  -28.5401  -24.7181   18.3168 C   0  0  0  0  0  0
  -29.3602  -22.3083   18.3072 C   0  0  0  0  0  0
  -28.8943  -23.3308   20.4878 C   0  0  0  0  0  0
  -28.1535  -24.6873   19.8069 C   0  0  1  0  0  0
  -28.6000  -17.1381   18.1861 C   0  0  0  0  0  0
  -28.9429  -21.9996   19.6809 N   0  0  0  0  0  0
  -29.7034  -16.0141   20.7237 N   0  0  0  0  0  0
  -30.1549  -20.8258   22.2013 F   0  0  0  0  0  0
  -31.4835  -12.7169   19.1890 H   0  0  0  0  0  0
  -30.4382  -11.5919   20.0068 H   0  0  0  0  0  0
  -29.8361  -11.7488   17.5650 H   0  0  0  0  0  0
  -29.6197  -13.4744   17.7116 H   0  0  0  0  0  0
  -27.9446  -11.2768   18.9621 H   0  0  0  0  0  0
  -27.3943  -12.4732   17.8179 H   0  0  0  0  0  0
  -27.6162  -14.2500   19.4423 H   0  0  0  0  0  0
  -28.7551  -12.2316   21.4371 H   0  0  0  0  0  0
  -28.3855  -13.8995   21.7928 H   0  0  0  0  0  0
  -25.2772   -9.5676   22.4760 H   0  0  0  0  0  0
  -24.0000   -7.4630   22.7467 H   0  0  0  0  0  0
  -21.0847   -8.8780   19.8951 H   0  0  0  0  0  0
  -22.3709  -10.9676   19.6162 H   0  0  0  0  0  0
  -21.2010   -7.6148   23.9715 H   0  0  0  0  0  0
  -21.1483   -6.0524   25.9077 H   0  0  0  0  0  0
  -22.0598   -2.7610   23.2842 H   0  0  0  0  0  0
  -22.4082  -11.9885   22.4830 H   0  0  0  0  0  0
  -21.1077  -13.1237   22.2622 H   0  0  0  0  0  0
  -24.6473  -15.8423   20.5278 H   0  0  0  0  0  0
  -26.2626  -15.6380   20.0825 H   0  0  0  0  0  0
  -26.7266  -32.5311   23.1008 H   0  0  0  0  0  0
  -25.0069  -33.9620   25.0321 H   0  0  0  0  0  0
  -22.7462  -31.2904   21.3825 H   0  0  0  0  0  0
  -23.3757  -35.9581   23.3299 H   0  0  0  0  0  0
  -24.3572  -36.8895   22.2058 H   0  0  0  0  0  0
  -23.7238  -37.6446   23.6685 H   0  0  0  0  0  0
  -26.1568  -31.4774   20.6179 H   0  0  0  0  0  0
  -26.8695  -30.7687   22.0320 H   0  0  0  0  0  0
  -28.1201  -28.7990   21.2529 H   0  0  0  0  0  0
  -25.9117  -25.8761   18.9554 H   0  0  0  0  0  0
  -23.9850  -27.3158   18.9595 H   0  0  0  0  0  0
  -23.8031  -30.5720   19.3977 H   0  0  0  0  0  0
  -22.7853  -29.2372   19.8432 H   0  0  0  0  0  0
  -25.1308  -36.1864   25.0805 H   0  0  0  0  0  0
  -20.9996  -28.3315   24.1369 H   0  0  0  0  0  0
  -20.5687  -26.2330   23.3625 H   0  0  0  0  0  0
  -21.6652  -26.7433   22.1204 H   0  0  0  0  0  0
  -19.6919  -25.6293   21.1258 H   0  0  0  0  0  0
  -19.6703  -27.3186   20.6736 H   0  0  0  0  0  0
  -17.4207  -26.6678   21.4033 H   0  0  0  0  0  0
  -18.0340  -26.0091   22.9033 H   0  0  0  0  0  0
  -19.7955  -30.7290   24.2245 H   0  0  0  0  0  0
  -17.5031  -31.6271   24.5164 H   0  0  0  0  0  0
  -15.5367  -30.2984   23.7672 H   0  0  0  0  0  0
  -15.8686  -28.0818   22.7085 H   0  0  0  0  0  0
  -24.5894  -30.7103   25.7749 H   0  0  0  0  0  0
  -24.8894  -32.2950   26.4782 H   0  0  0  0  0  0
  -25.7995  -30.8986   27.0235 H   0  0  0  0  0  0
  -26.3007  -29.6689   24.1296 H   0  0  0  0  0  0
  -27.3985  -29.7263   25.4882 H   0  0  0  0  0  0
  -27.8924  -30.4202   23.9633 H   0  0  0  0  0  0
  -27.2635  -33.3654   26.2032 H   0  0  0  0  0  0
  -28.3889  -32.6874   25.0357 H   0  0  0  0  0  0
  -28.0686  -31.8501   26.5473 H   0  0  0  0  0  0
  -28.2586  -38.0082   24.7508 H   0  0  0  0  0  0
  -28.1071  -36.2611   24.6296 H   0  0  0  0  0  0
  -27.2290  -37.1433   25.8868 H   0  0  0  0  0  0
  -20.9469  -29.8759   21.6795 H   0  0  0  0  0  0
  -26.0155  -38.2815   24.1415 H   0  0  0  0  0  0
  -28.3253  -19.7811   18.1954 H   0  0  0  0  0  0
  -30.4323  -18.2516   22.3404 H   0  0  0  0  0  0
  -28.6978  -23.4352   16.5950 H   0  0  0  0  0  0
  -27.3974  -22.9863   17.6667 H   0  0  0  0  0  0
  -27.9171  -25.4302   17.7765 H   0  0  0  0  0  0
  -29.5644  -25.0800   18.2211 H   0  0  0  0  0  0
  -30.3767  -22.7056   18.3375 H   0  0  0  0  0  0
  -29.4253  -21.4386   17.6568 H   0  0  0  0  0  0
  -28.4342  -23.1285   21.4558 H   0  0  0  0  0  0
  -29.9283  -23.5954   20.7117 H   0  0  0  0  0  0
  -27.0990  -24.4272   19.8759 H   0  0  0  0  0  0
  -28.3030  -17.6774   17.2864 H   0  0  0  0  0  0
  -27.7427  -16.5585   18.5270 H   0  0  0  0  0  0
  -29.3940  -16.4455   17.9056 H   0  0  0  0  0  0
  -28.8069  -15.6867   21.0502 H   0  0  0  0  0  0
  1 25  1  0  0  0
  1 30  2  0  0  0
  1 84  1  0  0  0
  2  3  1  0  0  0
  2 25  1  0  0  0
  2 86  1  0  0  0
  2 87  1  0  0  0
  3  4  1  0  0  0
  3 88  1  0  0  0
  3 89  1  0  0  0
  4  5  1  0  0  0
  4 90  1  0  0  0
  4 91  1  0  0  0
  5  6  1  0  0  0
  5 26  1  0  0  0
  5 92  1  0  0  0
  6 25  1  0  0  0
  6 93  1  0  0  0
  6 94  1  0  0  0
  7  8  2  0  0  0
  7 26  1  0  0  0
  7 29  1  0  0  0
  8  9  1  0  0  0
  8 22  1  0  0  0
  9 10  1  0  0  0
  9 27  2  0  0  0
 10 11  2  0  0  0
 10 15  1  0  0  0
 11 12  1  0  0  0
 11 95  1  0  0  0
 12 13  2  0  0  0
 12 96  1  0  0  0
 13 14  1  0  0  0
 13 31  1  0  0  0
 14 15  2  0  0  0
 14 97  1  0  0  0
 15 98  1  0  0  0
 16 17  2  0  0  0
 16 21  1  0  0  0
 16 31  1  0  0  0
 17 18  1  0  0  0
 17 99  1  0  0  0
 18 19  2  0  0  0
 18100  1  0  0  0
 19 20  1  0  0  0
 19 24  1  0  0  0
 20 21  2  0  0  0
 20101  1  0  0  0
 21 23  1  0  0  0
 22 28  1  0  0  0
 22 32  2  0  0  0
 26 27  1  0  0  0
 28102  1  0  0  0
 28103  1  0  0  0
 29104  1  0  0  0
 29105  1  0  0  0
 33 34  1  0  0  0
 33 66  1  0  0  0
 33 70  2  0  0  0
 34 36  1  0  0  0
 34 59  1  0  0  0
 34106  1  0  0  0
 35 44  2  0  0  0
 35 45  1  0  0  0
 35 68  1  0  0  0
 36 56  1  0  0  0
 36107  1  0  0  0
 37 39  1  0  0  0
 37 47  1  0  0  0
 37 66  1  0  0  0
 37108  1  0  0  0
 38 43  2  0  0  0
 38 46  1  0  0  0
 38 47  1  0  0  0
 39 64  1  0  0  0
 39 67  2  0  0  0
 40 52  1  0  0  0
 40 53  2  0  0  0
 40 58  1  0  0  0
 41109  1  0  0  0
 41110  1  0  0  0
 41111  1  0  0  0
 41 48  1  0  0  0
 42 43  1  0  0  0
 42 66  1  0  0  0
 42112  1  0  0  0
 42113  1  0  0  0
 43 44  1  0  0  0
 44114  1  0  0  0
 45 46  2  0  0  0
 45115  1  0  0  0
 46116  1  0  0  0
 47117  1  0  0  0
 47118  1  0  0  0
 48 56  1  0  0  0
 48 65  1  0  0  0
 48119  1  0  0  0
 49 50  1  0  0  0
 49 53  1  0  0  0
 49 64  1  0  0  0
 49120  1  0  0  0
 50 51  1  0  0  0
 50121  1  0  0  0
 50122  1  0  0  0
 51 52  1  0  0  0
 51123  1  0  0  0
 51124  1  0  0  0
 52125  1  0  0  0
 52126  1  0  0  0
 53 54  1  0  0  0
 54 55  2  0  0  0
 54127  1  0  0  0
 55 57  1  0  0  0
 55128  1  0  0  0
 56 69  2  0  0  0
 57 58  2  0  0  0
 57129  1  0  0  0
 58130  1  0  0  0
 59 60  1  0  0  0
 59 61  1  0  0  0
 59 62  1  0  0  0
 60131  1  0  0  0
 60132  1  0  0  0
 60133  1  0  0  0
 61134  1  0  0  0
 61135  1  0  0  0
 61136  1  0  0  0
 62137  1  0  0  0
 62138  1  0  0  0
 62139  1  0  0  0
 63 65  1  0  0  0
 63140  1  0  0  0
 63141  1  0  0  0
 63142  1  0  0  0
 64143  1  0  0  0
 65144  1  0  0  0
 68 81  1  0  0  0
 71 73  2  0  0  0
 71 74  1  0  0  0
 71145  1  0  0  0
 72 75  2  0  0  0
 72 76  1  0  0  0
 72146  1  0  0  0
 73 75  1  0  0  0
 73 82  1  0  0  0
 74 76  2  0  0  0
 74 83  1  0  0  0
 75 84  1  0  0  0
 76 85  1  0  0  0
 77 78  1  0  0  0
 77 79  1  0  0  0
 77147  1  0  0  0
 77148  1  0  0  0
 78 81  1  0  0  0
 78149  1  0  0  0
 78150  1  0  0  0
 79 83  1  0  0  0
 79151  1  0  0  0
 79152  1  0  0  0
 80 81  1  0  0  0
 80 83  1  0  0  0
 80153  1  0  0  0
 80154  1  0  0  0
 81155  1  0  0  0
 82156  1  0  0  0
 82157  1  0  0  0
 82158  1  0  0  0
 84159  1  0  0  0
M  ISO  4   1 100  68 101  81 101  84 100
M  END
> <chiral flag>
0

> <version>
0

> <s_m_source_file>
/data/baiqing/PycharmProjects/Reinvent-master-3.2/result/LINK_invent/BTK/process_docking_weight1_custom_product_contain_oxygen_bond_distance_aromatic_linkinvent_7_9_3/rearranged_h_0032.sdf

> <i_m_source_file_index>
15

> <r_mmod_Potential_Energy-OPLS-2005>
516.385131835938

> <r_mmod_Stretch_Energy-OPLS-2005>
222.962951660156

> <r_mmod_Bend_Energy-OPLS-2005>
265.817901611328

> <r_mmod_Torsional_Energy-OPLS-2005>
269.296173095703

> <r_mmod_Improper_Torsional_Energy-OPLS-2005>
7.6307635307312

> <r_mmod_Van_der_Waal_Energy-OPLS-2005>
139.894943237305

> <r_mmod_Electrostatic_Energy-OPLS-2005>
-338.258392333984

> <r_mmod_Solvation_Energy-OPLS-2005>
-223.075073242188

> <b_mmod_Minimization_Converged-OPLS-2005>
0

> <r_mmod_RMS_Derivative-OPLS-2005>
0.726321220397949

$$$$
15
                    3D
 Structure written by MMmdl.
158167  0  0  1  0            999 V2000
  -30.7107  -14.4889   20.5846 C   0  0  0  0  0  0
  -30.4249  -12.3345   19.4025 C   0  0  0  0  0  0
  -29.4921  -12.5178   18.1895 C   0  0  0  0  0  0
  -28.0155  -12.3680   18.6105 C   0  0  0  0  0  0
  -27.6629  -13.2046   19.8710 C   0  0  2  0  0  0
  -28.7082  -13.0010   20.9890 C   0  0  0  0  0  0
  -25.2638  -13.8162   20.5688 C   0  0  0  0  0  0
  -24.1869  -13.0460   20.9183 C   0  0  0  0  0  0
  -24.6412  -11.6923   20.8753 C   0  0  0  0  0  0
  -23.9060  -10.4310   21.0401 C   0  0  0  0  0  0
  -24.3604   -9.4224   21.9176 C   0  0  0  0  0  0
  -23.6273   -8.2266   22.0759 C   0  0  0  0  0  0
  -22.4268   -8.0294   21.3536 C   0  0  0  0  0  0
  -21.9898   -9.0276   20.4653 C   0  0  0  0  0  0
  -22.7231  -10.2148   20.3047 C   0  0  0  0  0  0
  -21.6864   -6.0730   22.5262 C   0  0  0  0  0  0
  -21.4025   -6.5634   23.8192 C   0  0  0  0  0  0
  -21.3651   -5.6790   24.9152 C   0  0  0  0  0  0
  -21.6034   -4.3055   24.7209 C   0  0  0  0  0  0
  -21.8819   -3.8142   23.4334 C   0  0  0  0  0  0
  -21.9199   -4.6955   22.3387 C   0  0  0  0  0  0
  -22.7894  -13.5264   21.1828 C   0  0  0  0  0  0
  -22.1673   -4.2128   21.0973 F   0  0  0  0  0  0
  -21.5609   -3.4550   25.7730 F   0  0  0  0  0  0
  -30.0284  -13.3197   20.4263 N   0  0  0  0  0  0
  -26.3060  -12.9317   20.3365 N   0  0  0  0  0  0
  -25.9341  -11.6495   20.5786 N   0  0  0  0  0  0
  -22.0502  -12.8270   22.0374 N   0  0  0  0  0  0
  -25.4412  -15.1861   20.4014 N   0  0  0  0  0  0
  -31.8250  -14.6801   20.0963 O   0  0  0  0  0  0
  -21.6645   -6.8878   21.4228 O   0  0  0  0  0  0
  -22.3603  -14.5573   20.6678 O   0  0  0  0  0  0
  -24.6189  -31.8648   23.2042 C   0  0  0  0  0  0
  -25.9075  -32.4786   23.8369 C   0  0  1  0  0  0
  -27.2424  -27.3913   20.1177 C   0  0  0  0  0  0
  -25.5928  -33.8586   24.2295 N   0  0  0  0  0  0
  -23.4114  -30.4856   21.5449 C   0  0  2  0  0  0
  -24.8575  -28.9374   20.1164 C   0  0  0  0  0  0
  -22.7433  -29.4693   22.4970 C   0  0  0  0  0  0
  -18.0312  -28.1370   22.8518 C   0  0  0  0  0  0
  -24.1480  -36.7297   23.2641 C   0  0  0  0  0  0
  -25.9404  -30.8168   21.3628 C   0  0  0  0  0  0
  -26.0168  -29.4472   20.7106 C   0  0  0  0  0  0
  -27.2083  -28.6837   20.7022 C   0  0  0  0  0  0
  -26.0651  -26.9027   19.5088 C   0  0  0  0  0  0
  -24.8786  -27.6673   19.5093 C   0  0  0  0  0  0
  -23.6195  -29.8067   20.1632 C   0  0  0  0  0  0
  -25.4105  -36.3084   24.0320 C   0  0  1  0  0  0
  -20.5870  -28.3735   23.1305 C   0  0  2  0  0  0
  -20.6812  -26.9454   22.5462 C   0  0  0  0  0  0
  -19.5818  -26.6393   21.5248 C   0  0  0  0  0  0
  -18.1971  -26.7915   22.1644 C   0  0  0  0  0  0
  -19.1528  -28.8884   23.2901 C   0  0  0  0  0  0
  -18.9461  -30.1512   23.8907 C   0  0  0  0  0  0
  -17.6438  -30.6628   24.0532 C   0  0  0  0  0  0
  -25.9037  -34.9457   23.5100 C   0  0  0  0  0  0
  -16.5363  -29.9077   23.6340 C   0  0  0  0  0  0
  -16.7304  -28.6463   23.0403 C   0  0  0  0  0  0
  -26.4494  -31.6586   25.0736 C   0  0  0  0  0  0
  -25.3765  -31.3715   26.1489 C   0  0  0  0  0  0
  -27.0330  -30.3015   24.6150 C   0  0  0  0  0  0
  -27.6063  -32.4310   25.7519 C   0  0  0  0  0  0
  -27.5565  -37.1798   24.8472 C   0  0  0  0  0  0
  -21.4139  -29.3109   22.3718 N   0  0  0  0  0  0
  -26.4285  -37.3766   23.9410 N   0  0  0  0  0  0
  -24.6748  -31.0724   22.0947 N   0  0  0  0  0  0
  -23.4183  -28.8230   23.3017 O   0  0  0  0  0  0
  -28.4234  -26.6667   20.1862 O   0  0  0  0  0  0
  -26.5605  -34.8910   22.4664 O   0  0  0  0  0  0
  -23.5379  -32.1434   23.7399 O   0  0  0  0  0  0
  -29.7194  -18.1515   22.5334 C   0  0  0  0  0  0
  -29.6043  -19.4146   23.1391 C   0  0  0  0  0  0
  -29.3373  -17.9696   21.1871 C   0  0  0  0  0  0
  -28.7684  -20.4088   21.0524 C   0  0  0  0  0  0
  -29.1301  -20.5324   22.4215 C   0  0  0  0  0  0
  -28.8587  -19.1038   20.4613 C   0  0  0  0  0  0
  -29.9370  -23.3646   20.0183 C   0  0  0  0  0  0
  -30.0154  -24.8749   19.8344 C   0  0  0  0  0  0
  -27.8121  -24.1561   20.4484 C   0  0  0  0  0  0
  -28.5450  -25.3073   19.7013 C   0  0  1  0  0  0
  -28.1648  -21.5996   20.2486 C   0  0  0  0  0  0
  -29.3774  -16.5642   20.5328 C   0  0  0  0  0  0
  -28.7027  -22.9809   20.3701 N   0  0  0  0  0  0
  -30.0925  -15.4868   21.2508 N   0  0  0  0  0  0
  -30.8958  -22.6180   19.8075 O   0  0  0  0  0  0
  -28.9390  -22.0096   23.3001 Cl  0  0  0  0  0  0
  -28.3209  -18.8613   18.8302 Cl  0  0  0  0  0  0
  -30.3341  -11.3209   19.7970 H   0  0  0  0  0  0
  -31.4673  -12.4367   19.0923 H   0  0  0  0  0  0
  -29.7394  -11.7992   17.4063 H   0  0  0  0  0  0
  -29.6443  -13.5059   17.7530 H   0  0  0  0  0  0
  -27.8299  -11.3095   18.7991 H   0  0  0  0  0  0
  -27.3655  -12.6513   17.7832 H   0  0  0  0  0  0
  -27.7028  -14.2498   19.5723 H   0  0  0  0  0  0
  -28.7042  -11.9667   21.3402 H   0  0  0  0  0  0
  -28.4732  -13.6113   21.8625 H   0  0  0  0  0  0
  -25.2741   -9.5723   22.4742 H   0  0  0  0  0  0
  -23.9976   -7.4658   22.7487 H   0  0  0  0  0  0
  -21.0824   -8.8801   19.8961 H   0  0  0  0  0  0
  -22.3677  -10.9679   19.6148 H   0  0  0  0  0  0
  -21.2051   -7.6148   23.9686 H   0  0  0  0  0  0
  -21.1465   -6.0531   25.9048 H   0  0  0  0  0  0
  -22.0618   -2.7609   23.2843 H   0  0  0  0  0  0
  -22.4112  -11.9915   22.4729 H   0  0  0  0  0  0
  -21.1113  -13.1313   22.2554 H   0  0  0  0  0  0
  -24.6883  -15.8570   20.5096 H   0  0  0  0  0  0
  -26.2928  -15.6038   20.0511 H   0  0  0  0  0  0
  -26.7185  -32.5462   23.1159 H   0  0  0  0  0  0
  -25.0078  -33.9756   25.0431 H   0  0  0  0  0  0
  -22.7017  -31.3028   21.3965 H   0  0  0  0  0  0
  -23.3722  -35.9647   23.3319 H   0  0  0  0  0  0
  -24.3591  -36.8910   22.2065 H   0  0  0  0  0  0
  -23.7249  -37.6506   23.6650 H   0  0  0  0  0  0
  -26.0650  -31.5809   20.5942 H   0  0  0  0  0  0
  -26.8254  -30.8642   21.9871 H   0  0  0  0  0  0
  -28.1035  -29.0779   21.1597 H   0  0  0  0  0  0
  -26.0457  -25.9285   19.0433 H   0  0  0  0  0  0
  -23.9889  -27.2652   19.0468 H   0  0  0  0  0  0
  -23.7247  -30.5742   19.3953 H   0  0  0  0  0  0
  -22.7451  -29.2232   19.8748 H   0  0  0  0  0  0
  -25.1279  -36.1940   25.0806 H   0  0  0  0  0  0
  -20.9998  -28.3364   24.1417 H   0  0  0  0  0  0
  -20.5757  -26.2330   23.3645 H   0  0  0  0  0  0
  -21.6695  -26.7523   22.1269 H   0  0  0  0  0  0
  -19.7111  -25.6314   21.1264 H   0  0  0  0  0  0
  -19.6754  -27.3242   20.6817 H   0  0  0  0  0  0
  -17.4289  -26.6713   21.3995 H   0  0  0  0  0  0
  -18.0371  -26.0033   22.9002 H   0  0  0  0  0  0
  -19.7920  -30.7371   24.2271 H   0  0  0  0  0  0
  -17.4963  -31.6352   24.5028 H   0  0  0  0  0  0
  -15.5344  -30.2958   23.7604 H   0  0  0  0  0  0
  -15.8703  -28.0751   22.7166 H   0  0  0  0  0  0
  -24.5910  -30.7085   25.7838 H   0  0  0  0  0  0
  -24.8995  -32.2885   26.4961 H   0  0  0  0  0  0
  -25.8145  -30.8880   27.0228 H   0  0  0  0  0  0
  -26.2889  -29.6772   24.1186 H   0  0  0  0  0  0
  -27.4063  -29.7260   25.4631 H   0  0  0  0  0  0
  -27.8733  -30.4310   23.9322 H   0  0  0  0  0  0
  -27.2658  -33.3571   26.2142 H   0  0  0  0  0  0
  -28.3861  -32.6930   25.0363 H   0  0  0  0  0  0
  -28.0718  -31.8410   26.5420 H   0  0  0  0  0  0
  -28.2596  -38.0082   24.7494 H   0  0  0  0  0  0
  -28.1051  -36.2621   24.6312 H   0  0  0  0  0  0
  -27.2300  -37.1454   25.8880 H   0  0  0  0  0  0
  -20.9322  -29.8802   21.6908 H   0  0  0  0  0  0
  -26.0173  -38.2832   24.1411 H   0  0  0  0  0  0
  -30.0715  -17.3255   23.1340 H   0  0  0  0  0  0
  -29.8675  -19.5205   24.1827 H   0  0  0  0  0  0
  -30.6179  -25.1582   18.9712 H   0  0  0  0  0  0
  -30.4760  -25.2978   20.7257 H   0  0  0  0  0  0
  -26.8375  -23.9440   20.0072 H   0  0  0  0  0  0
  -27.6516  -24.4159   21.4940 H   0  0  0  0  0  0
  -28.2771  -25.2768   18.6441 H   0  0  0  0  0  0
  -27.1023  -21.6177   20.4857 H   0  0  0  0  0  0
  -28.2141  -21.3919   19.1823 H   0  0  0  0  0  0
  -28.3417  -16.2461   20.4072 H   0  0  0  0  0  0
  -29.7987  -16.6638   19.5314 H   0  0  0  0  0  0
  -30.7447  -15.9052   21.8958 H   0  0  0  0  0  0
  1 25  1  0  0  0
  1 30  2  0  0  0
  1 84  1  0  0  0
  2  3  1  0  0  0
  2 25  1  0  0  0
  2 88  1  0  0  0
  2 89  1  0  0  0
  3  4  1  0  0  0
  3 90  1  0  0  0
  3 91  1  0  0  0
  4  5  1  0  0  0
  4 92  1  0  0  0
  4 93  1  0  0  0
  5  6  1  0  0  0
  5 26  1  0  0  0
  5 94  1  0  0  0
  6 25  1  0  0  0
  6 95  1  0  0  0
  6 96  1  0  0  0
  7  8  2  0  0  0
  7 26  1  0  0  0
  7 29  1  0  0  0
  8  9  1  0  0  0
  8 22  1  0  0  0
  9 10  1  0  0  0
  9 27  2  0  0  0
 10 11  2  0  0  0
 10 15  1  0  0  0
 11 12  1  0  0  0
 11 97  1  0  0  0
 12 13  2  0  0  0
 12 98  1  0  0  0
 13 14  1  0  0  0
 13 31  1  0  0  0
 14 15  2  0  0  0
 14 99  1  0  0  0
 15100  1  0  0  0
 16 17  2  0  0  0
 16 21  1  0  0  0
 16 31  1  0  0  0
 17 18  1  0  0  0
 17101  1  0  0  0
 18 19  2  0  0  0
 18102  1  0  0  0
 19 20  1  0  0  0
 19 24  1  0  0  0
 20 21  2  0  0  0
 20103  1  0  0  0
 21 23  1  0  0  0
 22 28  1  0  0  0
 22 32  2  0  0  0
 26 27  1  0  0  0
 28104  1  0  0  0
 28105  1  0  0  0
 29106  1  0  0  0
 29107  1  0  0  0
 33 34  1  0  0  0
 33 66  1  0  0  0
 33 70  2  0  0  0
 34 36  1  0  0  0
 34 59  1  0  0  0
 34108  1  0  0  0
 35 44  2  0  0  0
 35 45  1  0  0  0
 35 68  1  0  0  0
 36 56  1  0  0  0
 36109  1  0  0  0
 37 39  1  0  0  0
 37 47  1  0  0  0
 37 66  1  0  0  0
 37110  1  0  0  0
 38 43  2  0  0  0
 38 46  1  0  0  0
 38 47  1  0  0  0
 39 64  1  0  0  0
 39 67  2  0  0  0
 40 52  1  0  0  0
 40 53  2  0  0  0
 40 58  1  0  0  0
 41111  1  0  0  0
 41112  1  0  0  0
 41113  1  0  0  0
 41 48  1  0  0  0
 42 43  1  0  0  0
 42 66  1  0  0  0
 42114  1  0  0  0
 42115  1  0  0  0
 43 44  1  0  0  0
 44116  1  0  0  0
 45 46  2  0  0  0
 45117  1  0  0  0
 46118  1  0  0  0
 47119  1  0  0  0
 47120  1  0  0  0
 48 56  1  0  0  0
 48 65  1  0  0  0
 48121  1  0  0  0
 49 50  1  0  0  0
 49 53  1  0  0  0
 49 64  1  0  0  0
 49122  1  0  0  0
 50 51  1  0  0  0
 50123  1  0  0  0
 50124  1  0  0  0
 51 52  1  0  0  0
 51125  1  0  0  0
 51126  1  0  0  0
 52127  1  0  0  0
 52128  1  0  0  0
 53 54  1  0  0  0
 54 55  2  0  0  0
 54129  1  0  0  0
 55 57  1  0  0  0
 55130  1  0  0  0
 56 69  2  0  0  0
 57 58  2  0  0  0
 57131  1  0  0  0
 58132  1  0  0  0
 59 60  1  0  0  0
 59 61  1  0  0  0
 59 62  1  0  0  0
 60133  1  0  0  0
 60134  1  0  0  0
 60135  1  0  0  0
 61136  1  0  0  0
 61137  1  0  0  0
 61138  1  0  0  0
 62139  1  0  0  0
 62140  1  0  0  0
 62141  1  0  0  0
 63 65  1  0  0  0
 63142  1  0  0  0
 63143  1  0  0  0
 63144  1  0  0  0
 64145  1  0  0  0
 65146  1  0  0  0
 68 80  1  0  0  0
 71 72  2  0  0  0
 71 73  1  0  0  0
 71147  1  0  0  0
 72 75  1  0  0  0
 72148  1  0  0  0
 73 76  2  0  0  0
 73 82  1  0  0  0
 74 75  2  0  0  0
 74 76  1  0  0  0
 74 81  1  0  0  0
 75 86  1  0  0  0
 76 87  1  0  0  0
 77 78  1  0  0  0
 77 83  1  0  0  0
 77 85  2  0  0  0
 78 80  1  0  0  0
 78149  1  0  0  0
 78150  1  0  0  0
 79 80  1  0  0  0
 79 83  1  0  0  0
 79151  1  0  0  0
 79152  1  0  0  0
 80153  1  0  0  0
 81 83  1  0  0  0
 81154  1  0  0  0
 81155  1  0  0  0
 82 84  1  0  0  0
 82156  1  0  0  0
 82157  1  0  0  0
 84158  1  0  0  0
M  ISO  4   1 100  68 101  80 101  84 100
M  END
> <chiral flag>
0

> <version>
0

> <s_m_source_file>
/data/baiqing/PycharmProjects/Reinvent-master-3.2/result/LINK_invent/BTK/process_docking_weight1_custom_product_contain_oxygen_bond_distance_aromatic_linkinvent_7_9_3/rearranged_h_0032.sdf

> <i_m_source_file_index>
16

> <r_mmod_Potential_Energy-OPLS-2005>
-1.15558731555939

> <r_mmod_Stretch_Energy-OPLS-2005>
50.0815734863281

> <r_mmod_Bend_Energy-OPLS-2005>
162.075119018555

> <r_mmod_Torsional_Energy-OPLS-2005>
273.060302734375

> <r_mmod_Improper_Torsional_Energy-OPLS-2005>
9.09578132629395

> <r_mmod_Van_der_Waal_Energy-OPLS-2005>
140.143707275391

> <r_mmod_Electrostatic_Energy-OPLS-2005>
-429.412048339844

> <r_mmod_Solvation_Energy-OPLS-2005>
-224.457717895508

> <b_mmod_Minimization_Converged-OPLS-2005>
0

> <r_mmod_RMS_Derivative-OPLS-2005>
4.54885387420654

$$$$
16
                    3D
 Structure written by MMmdl.
164173  0  0  1  0            999 V2000
  -30.6066  -14.6330   20.5042 C   0  0  0  0  0  0
  -30.4455  -12.3901   19.4422 C   0  0  0  0  0  0
  -29.5081  -12.5067   18.2187 C   0  0  0  0  0  0
  -28.0301  -12.3430   18.6318 C   0  0  0  0  0  0
  -27.6534  -13.2107   19.8615 C   0  0  2  0  0  0
  -28.7002  -13.0520   20.9877 C   0  0  0  0  0  0
  -25.2565  -13.8157   20.5679 C   0  0  0  0  0  0
  -24.1827  -13.0426   20.9176 C   0  0  0  0  0  0
  -24.6391  -11.6898   20.8730 C   0  0  0  0  0  0
  -23.9058  -10.4286   21.0401 C   0  0  0  0  0  0
  -24.3611   -9.4204   21.9182 C   0  0  0  0  0  0
  -23.6286   -8.2240   22.0755 C   0  0  0  0  0  0
  -22.4269   -8.0276   21.3543 C   0  0  0  0  0  0
  -21.9902   -9.0249   20.4647 C   0  0  0  0  0  0
  -22.7229  -10.2129   20.3053 C   0  0  0  0  0  0
  -21.6851   -6.0731   22.5279 C   0  0  0  0  0  0
  -21.4013   -6.5637   23.8211 C   0  0  0  0  0  0
  -21.3658   -5.6791   24.9174 C   0  0  0  0  0  0
  -21.6046   -4.3053   24.7226 C   0  0  0  0  0  0
  -21.8818   -3.8145   23.4347 C   0  0  0  0  0  0
  -21.9191   -4.6960   22.3403 C   0  0  0  0  0  0
  -22.7851  -13.5225   21.1846 C   0  0  0  0  0  0
  -22.1661   -4.2146   21.0980 F   0  0  0  0  0  0
  -21.5629   -3.4538   25.7739 F   0  0  0  0  0  0
  -30.0153  -13.4010   20.4249 N   0  0  0  0  0  0
  -26.2989  -12.9328   20.3307 N   0  0  0  0  0  0
  -25.9316  -11.6487   20.5744 N   0  0  0  0  0  0
  -22.0494  -12.8223   22.0408 N   0  0  0  0  0  0
  -25.4239  -15.1885   20.4131 N   0  0  0  0  0  0
  -31.7793  -14.8178   20.1643 O   0  0  0  0  0  0
  -21.6634   -6.8873   21.4241 O   0  0  0  0  0  0
  -22.3532  -14.5528   20.6692 O   0  0  0  0  0  0
  -24.6261  -31.8605   23.2028 C   0  0  0  0  0  0
  -25.9112  -32.4780   23.8352 C   0  0  1  0  0  0
  -27.2265  -27.3168   20.1022 C   0  0  0  0  0  0
  -25.5931  -33.8580   24.2281 N   0  0  0  0  0  0
  -23.4176  -30.4855   21.5468 C   0  0  2  0  0  0
  -24.8591  -28.9373   20.1173 C   0  0  0  0  0  0
  -22.7466  -29.4637   22.4950 C   0  0  0  0  0  0
  -18.0285  -28.1387   22.8489 C   0  0  0  0  0  0
  -24.1490  -36.7292   23.2639 C   0  0  0  0  0  0
  -25.9589  -30.7900   21.3725 C   0  0  0  0  0  0
  -26.0287  -29.4166   20.7155 C   0  0  0  0  0  0
  -27.2088  -28.6180   20.6977 C   0  0  0  0  0  0
  -26.0190  -26.8827   19.5090 C   0  0  0  0  0  0
  -24.8556  -27.6741   19.5105 C   0  0  0  0  0  0
  -23.6301  -29.8201   20.1624 C   0  0  0  0  0  0
  -25.4116  -36.3085   24.0330 C   0  0  1  0  0  0
  -20.5884  -28.3690   23.1288 C   0  0  2  0  0  0
  -20.6776  -26.9416   22.5410 C   0  0  0  0  0  0
  -19.5751  -26.6389   21.5214 C   0  0  0  0  0  0
  -18.1931  -26.7931   22.1626 C   0  0  0  0  0  0
  -19.1537  -28.8854   23.2886 C   0  0  0  0  0  0
  -18.9460  -30.1456   23.8902 C   0  0  0  0  0  0
  -17.6461  -30.6589   24.0565 C   0  0  0  0  0  0
  -25.9051  -34.9454   23.5106 C   0  0  0  0  0  0
  -16.5352  -29.9089   23.6330 C   0  0  0  0  0  0
  -16.7272  -28.6506   23.0353 C   0  0  0  0  0  0
  -26.4495  -31.6589   25.0721 C   0  0  0  0  0  0
  -25.3729  -31.3724   26.1449 C   0  0  0  0  0  0
  -27.0339  -30.3016   24.6171 C   0  0  0  0  0  0
  -27.6056  -32.4322   25.7493 C   0  0  0  0  0  0
  -27.5579  -37.1805   24.8466 C   0  0  0  0  0  0
  -21.4182  -29.3047   22.3688 N   0  0  0  0  0  0
  -26.4295  -37.3779   23.9405 N   0  0  0  0  0  0
  -24.6867  -31.0621   22.0976 N   0  0  0  0  0  0
  -23.4196  -28.8176   23.3027 O   0  0  0  0  0  0
  -28.4111  -26.5595   20.1265 O   0  0  0  0  0  0
  -26.5618  -34.8922   22.4671 O   0  0  0  0  0  0
  -23.5428  -32.1402   23.7363 O   0  0  0  0  0  0
  -28.6360  -19.2697   20.4042 C   0  0  0  0  0  0
  -30.9474  -17.8683   21.1589 C   0  0  0  0  0  0
  -29.7223  -20.0415   20.8958 C   0  0  0  0  0  0
  -29.8381  -17.1090   20.7158 C   0  0  0  0  0  0
  -28.6889  -17.8467   20.3316 C   0  0  0  0  0  0
  -30.8849  -19.2908   21.2725 C   0  0  0  0  0  0
  -29.6316  -22.6617   18.8252 C   0  0  0  0  0  0
  -30.8942  -22.3982   18.4244 C   0  0  0  0  0  0
  -28.5890  -23.2950   17.9011 C   0  0  0  0  0  0
  -27.8614  -24.5243   18.5139 C   0  0  0  0  0  0
  -28.8689  -24.0236   20.7847 C   0  0  0  0  0  0
  -28.6449  -25.1519   19.6906 C   0  0  2  0  0  0
  -32.0955  -21.9626   19.2329 C   0  0  0  0  0  0
  -29.5723  -21.5840   21.2244 C   0  0  0  0  0  0
  -29.7395  -15.6553   20.7654 N   0  0  0  0  0  0
  -29.0728  -22.6174   20.2213 N   0  3  1  0  0  0
  -27.5923  -17.1657   19.9195 F   0  0  0  0  0  0
  -32.2510  -20.0645   21.9970 Cl  0  0  0  0  0  0
  -31.4842  -12.5313   19.1382 H   0  0  0  0  0  0
  -30.3920  -11.3913   19.8783 H   0  0  0  0  0  0
  -29.7717  -11.7587   17.4696 H   0  0  0  0  0  0
  -29.6477  -13.4778   17.7411 H   0  0  0  0  0  0
  -27.8666  -11.2895   18.8611 H   0  0  0  0  0  0
  -27.3750  -12.5751   17.7915 H   0  0  0  0  0  0
  -27.6703  -14.2462   19.5219 H   0  0  0  0  0  0
  -28.7121  -12.0256   21.3573 H   0  0  0  0  0  0
  -28.4484  -13.6727   21.8494 H   0  0  0  0  0  0
  -25.2757   -9.5680   22.4754 H   0  0  0  0  0  0
  -23.9994   -7.4633   22.7475 H   0  0  0  0  0  0
  -21.0832   -8.8766   19.8955 H   0  0  0  0  0  0
  -22.3686  -10.9666   19.6162 H   0  0  0  0  0  0
  -21.2006   -7.6146   23.9714 H   0  0  0  0  0  0
  -21.1482   -6.0522   25.9076 H   0  0  0  0  0  0
  -22.0599   -2.7607   23.2848 H   0  0  0  0  0  0
  -22.4106  -11.9885   22.4799 H   0  0  0  0  0  0
  -21.1114  -13.1254   22.2615 H   0  0  0  0  0  0
  -24.6506  -15.8320   20.5349 H   0  0  0  0  0  0
  -26.2699  -15.6557   20.1052 H   0  0  0  0  0  0
  -26.7177  -32.5443   23.1097 H   0  0  0  0  0  0
  -25.0082  -33.9728   25.0428 H   0  0  0  0  0  0
  -22.7116  -31.3063   21.4048 H   0  0  0  0  0  0
  -23.3754  -35.9624   23.3306 H   0  0  0  0  0  0
  -24.3579  -36.8907   22.2052 H   0  0  0  0  0  0
  -23.7242  -37.6496   23.6657 H   0  0  0  0  0  0
  -26.0910  -31.5531   20.6044 H   0  0  0  0  0  0
  -26.8400  -30.8366   22.0013 H   0  0  0  0  0  0
  -28.1111  -28.9917   21.1614 H   0  0  0  0  0  0
  -25.9081  -25.9303   19.0341 H   0  0  0  0  0  0
  -23.9546  -27.2954   19.0476 H   0  0  0  0  0  0
  -23.7526  -30.5957   19.4053 H   0  0  0  0  0  0
  -22.7486  -29.2520   19.8600 H   0  0  0  0  0  0
  -25.1298  -36.1939   25.0823 H   0  0  0  0  0  0
  -20.9975  -28.3262   24.1409 H   0  0  0  0  0  0
  -20.5685  -26.2298   23.3608 H   0  0  0  0  0  0
  -21.6644  -26.7453   22.1199 H   0  0  0  0  0  0
  -19.6913  -25.6302   21.1241 H   0  0  0  0  0  0
  -19.6688  -27.3201   20.6746 H   0  0  0  0  0  0
  -17.4201  -26.6679   21.4028 H   0  0  0  0  0  0
  -18.0331  -26.0074   22.9023 H   0  0  0  0  0  0
  -19.7935  -30.7271   24.2275 H   0  0  0  0  0  0
  -17.5015  -31.6270   24.5166 H   0  0  0  0  0  0
  -15.5353  -30.2994   23.7651 H   0  0  0  0  0  0
  -15.8672  -28.0827   22.7067 H   0  0  0  0  0  0
  -24.5905  -30.7072   25.7776 H   0  0  0  0  0  0
  -24.8919  -32.2889   26.4876 H   0  0  0  0  0  0
  -25.8055  -30.8900   27.0222 H   0  0  0  0  0  0
  -26.2911  -29.6767   24.1198 H   0  0  0  0  0  0
  -27.4043  -29.7271   25.4672 H   0  0  0  0  0  0
  -27.8778  -30.4309   23.9391 H   0  0  0  0  0  0
  -27.2669  -33.3618   26.2079 H   0  0  0  0  0  0
  -28.3864  -32.6887   25.0321 H   0  0  0  0  0  0
  -28.0728  -31.8441   26.5402 H   0  0  0  0  0  0
  -28.2604  -38.0095   24.7510 H   0  0  0  0  0  0
  -28.1069  -36.2628   24.6302 H   0  0  0  0  0  0
  -27.2295  -37.1466   25.8869 H   0  0  0  0  0  0
  -20.9357  -29.8770   21.6899 H   0  0  0  0  0  0
  -26.0177  -38.2856   24.1400 H   0  0  0  0  0  0
  -27.7102  -19.7570   20.1373 H   0  0  0  0  0  0
  -31.8387  -17.3584   21.4941 H   0  0  0  0  0  0
  -31.1100  -22.5163   17.3714 H   0  0  0  0  0  0
  -27.8687  -22.5386   17.5860 H   0  0  0  0  0  0
  -29.0950  -23.6164   16.9895 H   0  0  0  0  0  0
  -26.8984  -24.1661   18.8745 H   0  0  0  0  0  0
  -27.6719  -25.2619   17.7334 H   0  0  0  0  0  0
  -28.0186  -24.0024   21.4665 H   0  0  0  0  0  0
  -29.7378  -24.2957   21.3846 H   0  0  0  0  0  0
  -29.6392  -25.2988   19.2657 H   0  0  0  0  0  0
  -32.9981  -22.3746   18.7803 H   0  0  0  0  0  0
  -32.1903  -20.8773   19.2255 H   0  0  0  0  0  0
  -32.0706  -22.3325   20.2541 H   0  0  0  0  0  0
  -30.4909  -21.9659   21.6595 H   0  0  0  0  0  0
  -28.8702  -21.6212   22.0578 H   0  0  0  0  0  0
  -28.7921  -15.3271   20.8724 H   0  0  0  0  0  0
  -28.1226  -22.3038   20.0907 H   0  0  0  0  0  0
  1 25  1  0  0  0
  1 30  2  0  0  0
  1 85  1  0  0  0
  2  3  1  0  0  0
  2 25  1  0  0  0
  2 89  1  0  0  0
  2 90  1  0  0  0
  3  4  1  0  0  0
  3 91  1  0  0  0
  3 92  1  0  0  0
  4  5  1  0  0  0
  4 93  1  0  0  0
  4 94  1  0  0  0
  5  6  1  0  0  0
  5 26  1  0  0  0
  5 95  1  0  0  0
  6 25  1  0  0  0
  6 96  1  0  0  0
  6 97  1  0  0  0
  7  8  2  0  0  0
  7 26  1  0  0  0
  7 29  1  0  0  0
  8  9  1  0  0  0
  8 22  1  0  0  0
  9 10  1  0  0  0
  9 27  2  0  0  0
 10 11  2  0  0  0
 10 15  1  0  0  0
 11 12  1  0  0  0
 11 98  1  0  0  0
 12 13  2  0  0  0
 12 99  1  0  0  0
 13 14  1  0  0  0
 13 31  1  0  0  0
 14 15  2  0  0  0
 14100  1  0  0  0
 15101  1  0  0  0
 16 17  2  0  0  0
 16 21  1  0  0  0
 16 31  1  0  0  0
 17 18  1  0  0  0
 17102  1  0  0  0
 18 19  2  0  0  0
 18103  1  0  0  0
 19 20  1  0  0  0
 19 24  1  0  0  0
 20 21  2  0  0  0
 20104  1  0  0  0
 21 23  1  0  0  0
 22 28  1  0  0  0
 22 32  2  0  0  0
 26 27  1  0  0  0
 28105  1  0  0  0
 28106  1  0  0  0
 29107  1  0  0  0
 29108  1  0  0  0
 33 34  1  0  0  0
 33 66  1  0  0  0
 33 70  2  0  0  0
 34 36  1  0  0  0
 34 59  1  0  0  0
 34109  1  0  0  0
 35 44  2  0  0  0
 35 45  1  0  0  0
 35 68  1  0  0  0
 36 56  1  0  0  0
 36110  1  0  0  0
 37 39  1  0  0  0
 37 47  1  0  0  0
 37 66  1  0  0  0
 37111  1  0  0  0
 38 43  2  0  0  0
 38 46  1  0  0  0
 38 47  1  0  0  0
 39 64  1  0  0  0
 39 67  2  0  0  0
 40 52  1  0  0  0
 40 53  2  0  0  0
 40 58  1  0  0  0
 41112  1  0  0  0
 41113  1  0  0  0
 41114  1  0  0  0
 41 48  1  0  0  0
 42 43  1  0  0  0
 42 66  1  0  0  0
 42115  1  0  0  0
 42116  1  0  0  0
 43 44  1  0  0  0
 44117  1  0  0  0
 45 46  2  0  0  0
 45118  1  0  0  0
 46119  1  0  0  0
 47120  1  0  0  0
 47121  1  0  0  0
 48 56  1  0  0  0
 48 65  1  0  0  0
 48122  1  0  0  0
 49 50  1  0  0  0
 49 53  1  0  0  0
 49 64  1  0  0  0
 49123  1  0  0  0
 50 51  1  0  0  0
 50124  1  0  0  0
 50125  1  0  0  0
 51 52  1  0  0  0
 51126  1  0  0  0
 51127  1  0  0  0
 52128  1  0  0  0
 52129  1  0  0  0
 53 54  1  0  0  0
 54 55  2  0  0  0
 54130  1  0  0  0
 55 57  1  0  0  0
 55131  1  0  0  0
 56 69  2  0  0  0
 57 58  2  0  0  0
 57132  1  0  0  0
 58133  1  0  0  0
 59 60  1  0  0  0
 59 61  1  0  0  0
 59 62  1  0  0  0
 60134  1  0  0  0
 60135  1  0  0  0
 60136  1  0  0  0
 61137  1  0  0  0
 61138  1  0  0  0
 61139  1  0  0  0
 62140  1  0  0  0
 62141  1  0  0  0
 62142  1  0  0  0
 63 65  1  0  0  0
 63143  1  0  0  0
 63144  1  0  0  0
 63145  1  0  0  0
 64146  1  0  0  0
 65147  1  0  0  0
 68 82  1  0  0  0
 71 73  2  0  0  0
 71 75  1  0  0  0
 71148  1  0  0  0
 72 74  1  0  0  0
 72 76  2  0  0  0
 72149  1  0  0  0
 73 76  1  0  0  0
 73 84  1  0  0  0
 74 75  2  0  0  0
 74 85  1  0  0  0
 75 87  1  0  0  0
 76 88  1  0  0  0
 77 78  2  0  0  0
 77 79  1  0  0  0
 77 86  1  0  0  0
 78 83  1  0  0  0
 78150  1  0  0  0
 79 80  1  0  0  0
 79151  1  0  0  0
 79152  1  0  0  0
 80 82  1  0  0  0
 80153  1  0  0  0
 80154  1  0  0  0
 81 82  1  0  0  0
 81 86  1  0  0  0
 81155  1  0  0  0
 81156  1  0  0  0
 82157  1  0  0  0
 83158  1  0  0  0
 83159  1  0  0  0
 83160  1  0  0  0
 84161  1  0  0  0
 84162  1  0  0  0
 84 86  1  0  0  0
 85163  1  0  0  0
 86164  1  0  0  0
M  CHG  1  86   1
M  ISO  4   1 100  68 101  82 101  85 100
M  END
> <chiral flag>
0

> <version>
0

> <s_m_source_file>
/data/baiqing/PycharmProjects/Reinvent-master-3.2/result/LINK_invent/BTK/process_docking_weight1_custom_product_contain_oxygen_bond_distance_aromatic_linkinvent_7_9_3/rearranged_h_0032.sdf

> <i_m_source_file_index>
17

> <r_mmod_Potential_Energy-OPLS-2005>
-3.17894816398621

> <r_mmod_Stretch_Energy-OPLS-2005>
83.5893325805664

> <r_mmod_Bend_Energy-OPLS-2005>
218.795806884766

> <r_mmod_Torsional_Energy-OPLS-2005>
249.495788574219

> <r_mmod_Improper_Torsional_Energy-OPLS-2005>
7.43919372558594

> <r_mmod_Van_der_Waal_Energy-OPLS-2005>
151.354202270508

> <r_mmod_Electrostatic_Energy-OPLS-2005>
-326.203155517578

> <r_mmod_Solvation_Energy-OPLS-2005>
-431.42041015625

> <b_mmod_Minimization_Converged-OPLS-2005>
0

> <r_mmod_RMS_Derivative-OPLS-2005>
0.381394237279892

$$$$
17
                    3D
 Structure written by MMmdl.
174184  0  0  1  0            999 V2000
  -30.6637  -14.6180   20.4066 C   0  0  0  0  0  0
  -30.4226  -12.3390   19.4721 C   0  0  0  0  0  0
  -29.4972  -12.3717   18.2365 C   0  0  0  0  0  0
  -28.0206  -12.2574   18.6577 C   0  0  0  0  0  0
  -27.6428  -13.1806   19.8451 C   0  0  2  0  0  0
  -28.6939  -13.1256   20.9779 C   0  0  0  0  0  0
  -25.2566  -13.8046   20.5829 C   0  0  0  0  0  0
  -24.1775  -13.0338   20.9251 C   0  0  0  0  0  0
  -24.6315  -11.6815   20.8747 C   0  0  0  0  0  0
  -23.8978  -10.4218   21.0403 C   0  0  0  0  0  0
  -24.3553   -9.4152   21.9188 C   0  0  0  0  0  0
  -23.6254   -8.2175   22.0748 C   0  0  0  0  0  0
  -22.4246   -8.0217   21.3524 C   0  0  0  0  0  0
  -21.9854   -9.0179   20.4627 C   0  0  0  0  0  0
  -22.7151  -10.2075   20.3043 C   0  0  0  0  0  0
  -21.6832   -6.0692   22.5270 C   0  0  0  0  0  0
  -21.3999   -6.5615   23.8197 C   0  0  0  0  0  0
  -21.3653   -5.6784   24.9171 C   0  0  0  0  0  0
  -21.6062   -4.3044   24.7245 C   0  0  0  0  0  0
  -21.8811   -3.8123   23.4368 C   0  0  0  0  0  0
  -21.9193   -4.6926   22.3412 C   0  0  0  0  0  0
  -22.7813  -13.5186   21.1926 C   0  0  0  0  0  0
  -22.1648   -4.2105   21.0990 F   0  0  0  0  0  0
  -21.5649   -3.4538   25.7764 F   0  0  0  0  0  0
  -30.0004  -13.4217   20.3810 N   0  0  0  0  0  0
  -26.2927  -12.9173   20.3314 N   0  0  0  0  0  0
  -25.9241  -11.6364   20.5777 N   0  0  0  0  0  0
  -22.0428  -12.8187   22.0470 N   0  0  0  0  0  0
  -25.4376  -15.1777   20.4590 N   0  0  0  0  0  0
  -31.8705  -14.6798   20.1809 O   0  0  0  0  0  0
  -21.6603   -6.8827   21.4228 O   0  0  0  0  0  0
  -22.3527  -14.5491   20.6764 O   0  0  0  0  0  0
  -24.6210  -31.8658   23.2041 C   0  0  0  0  0  0
  -25.9090  -32.4786   23.8361 C   0  0  1  0  0  0
  -27.2351  -27.3758   20.1141 C   0  0  0  0  0  0
  -25.5963  -33.8572   24.2317 N   0  0  0  0  0  0
  -23.4099  -30.4804   21.5478 C   0  0  2  0  0  0
  -24.8588  -28.9322   20.1190 C   0  0  0  0  0  0
  -22.7445  -29.4616   22.5003 C   0  0  0  0  0  0
  -18.0274  -28.1298   22.8420 C   0  0  0  0  0  0
  -24.1529  -36.7298   23.2639 C   0  0  0  0  0  0
  -25.9407  -30.8119   21.3651 C   0  0  0  0  0  0
  -26.0204  -29.4375   20.7147 C   0  0  0  0  0  0
  -27.2148  -28.6683   20.7011 C   0  0  0  0  0  0
  -26.0551  -26.8959   19.5076 C   0  0  0  0  0  0
  -24.8727  -27.6636   19.5084 C   0  0  0  0  0  0
  -23.6236  -29.8074   20.1637 C   0  0  0  0  0  0
  -25.4118  -36.3072   24.0332 C   0  0  1  0  0  0
  -20.5853  -28.3647   23.1282 C   0  0  2  0  0  0
  -20.6783  -26.9392   22.5365 C   0  0  0  0  0  0
  -19.5785  -26.6338   21.5128 C   0  0  0  0  0  0
  -18.1945  -26.7850   22.1539 C   0  0  0  0  0  0
  -19.1507  -28.8786   23.2837 C   0  0  0  0  0  0
  -18.9481  -30.1380   23.8854 C   0  0  0  0  0  0
  -17.6494  -30.6528   24.0498 C   0  0  0  0  0  0
  -25.9046  -34.9438   23.5108 C   0  0  0  0  0  0
  -16.5369  -29.9008   23.6287 C   0  0  0  0  0  0
  -16.7271  -28.6419   23.0302 C   0  0  0  0  0  0
  -26.4470  -31.6587   25.0725 C   0  0  0  0  0  0
  -25.3733  -31.3696   26.1515 C   0  0  0  0  0  0
  -27.0332  -30.3041   24.6122 C   0  0  0  0  0  0
  -27.6041  -32.4340   25.7490 C   0  0  0  0  0  0
  -27.5588  -37.1805   24.8451 C   0  0  0  0  0  0
  -21.4170  -29.3005   22.3716 N   0  0  0  0  0  0
  -26.4298  -37.3763   23.9398 N   0  0  0  0  0  0
  -24.6738  -31.0682   22.0980 N   0  0  0  0  0  0
  -23.4182  -28.8195   23.3096 O   0  0  0  0  0  0
  -28.3906  -26.6079   20.0994 O   0  0  0  0  0  0
  -26.5592  -34.8887   22.4660 O   0  0  0  0  0  0
  -23.5393  -32.1463   23.7400 O   0  0  0  0  0  0
  -27.1617  -19.3174   19.5104 C   0  0  0  0  0  0
  -27.5326  -20.5383   20.0906 C   0  0  0  0  0  0
  -28.0771  -18.2534   19.4111 C   0  0  0  0  0  0
  -29.3694  -18.3423   19.9995 C   0  0  0  0  0  0
  -28.8451  -20.7513   20.5493 C   0  0  0  0  0  0
  -29.7710  -19.6410   20.5045 C   0  0  0  0  0  0
  -29.6531  -24.6023   20.8226 C   0  0  0  0  0  0
  -30.8424  -25.0674   21.2533 C   0  0  0  0  0  0
  -27.6806  -17.0896   18.5261 C   0  0  0  0  0  0
  -28.5312  -17.0316   17.2406 C   0  0  0  0  0  0
  -29.9128  -16.3822   17.4166 C   0  0  0  0  0  0
  -30.8579  -17.0679   18.4246 C   0  0  0  0  0  0
  -28.0708  -24.0388   19.7428 C   0  0  0  0  0  0
  -30.3502  -17.1143   19.8908 C   0  0  2  0  0  0
  -28.3016  -25.2701   20.6738 C   0  0  2  0  0  0
  -31.2024  -19.8637   20.9886 C   0  0  0  0  0  0
  -32.1554  -24.3120   21.2961 C   0  0  0  0  0  0
  -29.1390  -22.1561   21.1737 C   0  0  0  0  0  0
  -29.9006  -15.7556   20.3740 N   0  0  0  0  0  0
  -29.2903  -23.3324   20.2384 N   0  3  2  0  0  0
  -31.4679  -12.4267   19.1695 H   0  0  0  0  0  0
  -30.3321  -11.3729   19.9728 H   0  0  0  0  0  0
  -29.7362  -11.5411   17.5689 H   0  0  0  0  0  0
  -29.6673  -13.2676   17.6507 H   0  0  0  0  0  0
  -27.8559  -11.2199   18.9501 H   0  0  0  0  0  0
  -27.3614  -12.4353   17.8064 H   0  0  0  0  0  0
  -27.6385  -14.1775   19.4319 H   0  0  0  0  0  0
  -28.7050  -12.1398   21.4478 H   0  0  0  0  0  0
  -28.4586  -13.8464   21.7640 H   0  0  0  0  0  0
  -25.2693   -9.5652   22.4771 H   0  0  0  0  0  0
  -23.9942   -7.4581   22.7493 H   0  0  0  0  0  0
  -21.0767   -8.8706   19.8962 H   0  0  0  0  0  0
  -22.3596  -10.9620   19.6160 H   0  0  0  0  0  0
  -21.1950   -7.6120   23.9684 H   0  0  0  0  0  0
  -21.1497   -6.0517   25.9073 H   0  0  0  0  0  0
  -22.0602   -2.7581   23.2889 H   0  0  0  0  0  0
  -22.3986  -11.9847   22.4883 H   0  0  0  0  0  0
  -21.1047  -13.1233   22.2632 H   0  0  0  0  0  0
  -24.6998  -15.8293   20.7019 H   0  0  0  0  0  0
  -26.3383  -15.6236   20.3588 H   0  0  0  0  0  0
  -26.7166  -32.5479   23.1132 H   0  0  0  0  0  0
  -25.0127  -33.9699   25.0475 H   0  0  0  0  0  0
  -22.6967  -31.2938   21.3996 H   0  0  0  0  0  0
  -23.3763  -35.9681   23.3289 H   0  0  0  0  0  0
  -24.3620  -36.8931   22.2069 H   0  0  0  0  0  0
  -23.7318  -37.6500   23.6662 H   0  0  0  0  0  0
  -26.0592  -31.5847   20.6044 H   0  0  0  0  0  0
  -26.8220  -30.8630   21.9910 H   0  0  0  0  0  0
  -28.1188  -29.0553   21.1512 H   0  0  0  0  0  0
  -26.0458  -25.9295   19.0229 H   0  0  0  0  0  0
  -23.9796  -27.2711   19.0411 H   0  0  0  0  0  0
  -23.7390  -30.5851   19.4046 H   0  0  0  0  0  0
  -22.7445  -29.2350   19.8685 H   0  0  0  0  0  0
  -25.1307  -36.1904   25.0823 H   0  0  0  0  0  0
  -20.9897  -28.3233   24.1434 H   0  0  0  0  0  0
  -20.5673  -26.2284   23.3564 H   0  0  0  0  0  0
  -21.6665  -26.7419   22.1187 H   0  0  0  0  0  0
  -19.6991  -25.6244   21.1185 H   0  0  0  0  0  0
  -19.6711  -27.3113   20.6620 H   0  0  0  0  0  0
  -17.4211  -26.6530   21.3948 H   0  0  0  0  0  0
  -18.0402  -25.9960   22.8920 H   0  0  0  0  0  0
  -19.7977  -30.7137   24.2237 H   0  0  0  0  0  0
  -17.5052  -31.6211   24.5119 H   0  0  0  0  0  0
  -15.5364  -30.2884   23.7645 H   0  0  0  0  0  0
  -15.8666  -28.0730   22.7033 H   0  0  0  0  0  0
  -24.5885  -30.7026   25.7892 H   0  0  0  0  0  0
  -24.8929  -32.2871   26.4956 H   0  0  0  0  0  0
  -25.8138  -30.8893   27.0275 H   0  0  0  0  0  0
  -26.2890  -29.6788   24.1203 H   0  0  0  0  0  0
  -27.4110  -29.7302   25.4581 H   0  0  0  0  0  0
  -27.8712  -30.4333   23.9274 H   0  0  0  0  0  0
  -27.2646  -33.3657   26.2024 H   0  0  0  0  0  0
  -28.3884  -32.6883   25.0346 H   0  0  0  0  0  0
  -28.0671  -31.8489   26.5455 H   0  0  0  0  0  0
  -28.2563  -38.0152   24.7524 H   0  0  0  0  0  0
  -28.1150  -36.2673   24.6254 H   0  0  0  0  0  0
  -27.2318  -37.1398   25.8863 H   0  0  0  0  0  0
  -20.9355  -29.8729   21.6930 H   0  0  0  0  0  0
  -26.0178  -38.2831   24.1402 H   0  0  0  0  0  0
  -26.1628  -19.2162   19.1082 H   0  0  0  0  0  0
  -26.7922  -21.3239   20.1485 H   0  0  0  0  0  0
  -30.8848  -26.0883   21.6063 H   0  0  0  0  0  0
  -26.6258  -17.1701   18.2563 H   0  0  0  0  0  0
  -27.7543  -16.1773   19.0922 H   0  0  0  0  0  0
  -28.6273  -18.0278   16.8075 H   0  0  0  0  0  0
  -27.9951  -16.4433   16.4927 H   0  0  0  0  0  0
  -30.4035  -16.3556   16.4427 H   0  0  0  0  0  0
  -29.7749  -15.3481   17.7011 H   0  0  0  0  0  0
  -31.0971  -18.0739   18.0796 H   0  0  0  0  0  0
  -31.8107  -16.5416   18.3949 H   0  0  0  0  0  0
  -28.1586  -24.2890   18.6842 H   0  0  0  0  0  0
  -27.1269  -23.5227   19.9277 H   0  0  0  0  0  0
  -31.2148  -17.3123   20.5166 H   0  0  0  0  0  0
  -27.6759  -25.2363   21.5691 H   0  0  0  0  0  0
  -31.2717  -19.6670   22.0579 H   0  0  0  0  0  0
  -31.5343  -20.8828   20.8083 H   0  0  0  0  0  0
  -31.9440  -19.2594   20.4644 H   0  0  0  0  0  0
  -32.0650  -23.2839   20.9403 H   0  0  0  0  0  0
  -32.5228  -24.2831   22.3247 H   0  0  0  0  0  0
  -32.9018  -24.8259   20.6843 H   0  0  0  0  0  0
  -30.0414  -22.0953   21.7785 H   0  0  0  0  0  0
  -28.3656  -22.3818   21.9076 H   0  0  0  0  0  0
  -28.9209  -15.6525   20.5735 H   0  0  0  0  0  0
  -29.9015  -23.0994   19.4726 H   0  0  0  0  0  0
  1 25  1  0  0  0
  1 30  2  0  0  0
  1 89  1  0  0  0
  2  3  1  0  0  0
  2 25  1  0  0  0
  2 91  1  0  0  0
  2 92  1  0  0  0
  3  4  1  0  0  0
  3 93  1  0  0  0
  3 94  1  0  0  0
  4  5  1  0  0  0
  4 95  1  0  0  0
  4 96  1  0  0  0
  5  6  1  0  0  0
  5 26  1  0  0  0
  5 97  1  0  0  0
  6 25  1  0  0  0
  6 98  1  0  0  0
  6 99  1  0  0  0
  7  8  2  0  0  0
  7 26  1  0  0  0
  7 29  1  0  0  0
  8  9  1  0  0  0
  8 22  1  0  0  0
  9 10  1  0  0  0
  9 27  2  0  0  0
 10 11  2  0  0  0
 10 15  1  0  0  0
 11 12  1  0  0  0
 11100  1  0  0  0
 12 13  2  0  0  0
 12101  1  0  0  0
 13 14  1  0  0  0
 13 31  1  0  0  0
 14 15  2  0  0  0
 14102  1  0  0  0
 15103  1  0  0  0
 16 17  2  0  0  0
 16 21  1  0  0  0
 16 31  1  0  0  0
 17 18  1  0  0  0
 17104  1  0  0  0
 18 19  2  0  0  0
 18105  1  0  0  0
 19 20  1  0  0  0
 19 24  1  0  0  0
 20 21  2  0  0  0
 20106  1  0  0  0
 21 23  1  0  0  0
 22 28  1  0  0  0
 22 32  2  0  0  0
 26 27  1  0  0  0
 28107  1  0  0  0
 28108  1  0  0  0
 29109  1  0  0  0
 29110  1  0  0  0
 33 34  1  0  0  0
 33 66  1  0  0  0
 33 70  2  0  0  0
 34 36  1  0  0  0
 34 59  1  0  0  0
 34111  1  0  0  0
 35 44  2  0  0  0
 35 45  1  0  0  0
 35 68  1  0  0  0
 36 56  1  0  0  0
 36112  1  0  0  0
 37 39  1  0  0  0
 37 47  1  0  0  0
 37 66  1  0  0  0
 37113  1  0  0  0
 38 43  2  0  0  0
 38 46  1  0  0  0
 38 47  1  0  0  0
 39 64  1  0  0  0
 39 67  2  0  0  0
 40 52  1  0  0  0
 40 53  2  0  0  0
 40 58  1  0  0  0
 41114  1  0  0  0
 41115  1  0  0  0
 41116  1  0  0  0
 41 48  1  0  0  0
 42 43  1  0  0  0
 42 66  1  0  0  0
 42117  1  0  0  0
 42118  1  0  0  0
 43 44  1  0  0  0
 44119  1  0  0  0
 45 46  2  0  0  0
 45120  1  0  0  0
 46121  1  0  0  0
 47122  1  0  0  0
 47123  1  0  0  0
 48 56  1  0  0  0
 48 65  1  0  0  0
 48124  1  0  0  0
 49 50  1  0  0  0
 49 53  1  0  0  0
 49 64  1  0  0  0
 49125  1  0  0  0
 50 51  1  0  0  0
 50126  1  0  0  0
 50127  1  0  0  0
 51 52  1  0  0  0
 51128  1  0  0  0
 51129  1  0  0  0
 52130  1  0  0  0
 52131  1  0  0  0
 53 54  1  0  0  0
 54 55  2  0  0  0
 54132  1  0  0  0
 55 57  1  0  0  0
 55133  1  0  0  0
 56 69  2  0  0  0
 57 58  2  0  0  0
 57134  1  0  0  0
 58135  1  0  0  0
 59 60  1  0  0  0
 59 61  1  0  0  0
 59 62  1  0  0  0
 60136  1  0  0  0
 60137  1  0  0  0
 60138  1  0  0  0
 61139  1  0  0  0
 61140  1  0  0  0
 61141  1  0  0  0
 62142  1  0  0  0
 62143  1  0  0  0
 62144  1  0  0  0
 63 65  1  0  0  0
 63145  1  0  0  0
 63146  1  0  0  0
 63147  1  0  0  0
 64148  1  0  0  0
 65149  1  0  0  0
 68 85  1  0  0  0
 71 72  2  0  0  0
 71 73  1  0  0  0
 71150  1  0  0  0
 72 75  1  0  0  0
 72151  1  0  0  0
 73 74  2  0  0  0
 73 79  1  0  0  0
 74 76  1  0  0  0
 74 84  1  0  0  0
 75 76  2  0  0  0
 75 88  1  0  0  0
 76 86  1  0  0  0
 77 78  2  0  0  0
 77 85  1  0  0  0
 77 90  1  0  0  0
 78 87  1  0  0  0
 78152  1  0  0  0
 79 80  1  0  0  0
 79153  1  0  0  0
 79154  1  0  0  0
 80 81  1  0  0  0
 80155  1  0  0  0
 80156  1  0  0  0
 81 82  1  0  0  0
 81157  1  0  0  0
 81158  1  0  0  0
 82 84  1  0  0  0
 82159  1  0  0  0
 82160  1  0  0  0
 83 85  1  0  0  0
 83 90  1  0  0  0
 83161  1  0  0  0
 83162  1  0  0  0
 84 89  1  0  0  0
 84163  1  0  0  0
 85164  1  0  0  0
 86165  1  0  0  0
 86166  1  0  0  0
 86167  1  0  0  0
 87168  1  0  0  0
 87169  1  0  0  0
 87170  1  0  0  0
 88171  1  0  0  0
 88172  1  0  0  0
 88 90  1  0  0  0
 89173  1  0  0  0
 90174  1  0  0  0
M  CHG  1  90   1
M  ISO  4   1 100  68 101  85 101  89 100
M  END
> <chiral flag>
0

> <version>
0

> <s_m_source_file>
/data/baiqing/PycharmProjects/Reinvent-master-3.2/result/LINK_invent/BTK/process_docking_weight1_custom_product_contain_oxygen_bond_distance_aromatic_linkinvent_7_9_3/rearranged_h_0032.sdf

> <i_m_source_file_index>
18

> <r_mmod_Potential_Energy-OPLS-2005>
-98.1336898803711

> <r_mmod_Stretch_Energy-OPLS-2005>
72.2900009155273

> <r_mmod_Bend_Energy-OPLS-2005>
158.787872314453

> <r_mmod_Torsional_Energy-OPLS-2005>
262.558013916016

> <r_mmod_Improper_Torsional_Energy-OPLS-2005>
9.79862976074219

> <r_mmod_Van_der_Waal_Energy-OPLS-2005>
139.838897705078

> <r_mmod_Electrostatic_Energy-OPLS-2005>
-352.627014160156

> <r_mmod_Solvation_Energy-OPLS-2005>
-434.345123291016

> <b_mmod_Minimization_Converged-OPLS-2005>
0

> <r_mmod_RMS_Derivative-OPLS-2005>
5.51073694229126

$$$$
18
                    3D
 Structure written by MMmdl.
162170  0  0  1  0            999 V2000
  -30.6695  -14.5214   20.6210 C   0  0  0  0  0  0
  -30.4442  -12.3577   19.4152 C   0  0  0  0  0  0
  -29.4991  -12.5377   18.2067 C   0  0  0  0  0  0
  -28.0228  -12.3781   18.6207 C   0  0  0  0  0  0
  -27.6692  -13.2075   19.8827 C   0  0  2  0  0  0
  -28.7126  -12.9666   20.9969 C   0  0  0  0  0  0
  -25.2624  -13.8169   20.5701 C   0  0  0  0  0  0
  -24.1861  -13.0446   20.9174 C   0  0  0  0  0  0
  -24.6410  -11.6915   20.8729 C   0  0  0  0  0  0
  -23.9070  -10.4300   21.0401 C   0  0  0  0  0  0
  -24.3619   -9.4214   21.9178 C   0  0  0  0  0  0
  -23.6294   -8.2250   22.0751 C   0  0  0  0  0  0
  -22.4275   -8.0287   21.3543 C   0  0  0  0  0  0
  -21.9912   -9.0266   20.4648 C   0  0  0  0  0  0
  -22.7243  -10.2143   20.3055 C   0  0  0  0  0  0
  -21.6854   -6.0738   22.5279 C   0  0  0  0  0  0
  -21.4018   -6.5641   23.8215 C   0  0  0  0  0  0
  -21.3660   -5.6792   24.9176 C   0  0  0  0  0  0
  -21.6045   -4.3057   24.7223 C   0  0  0  0  0  0
  -21.8820   -3.8149   23.4344 C   0  0  0  0  0  0
  -21.9196   -4.6967   22.3401 C   0  0  0  0  0  0
  -22.7884  -13.5250   21.1845 C   0  0  0  0  0  0
  -22.1661   -4.2153   21.0980 F   0  0  0  0  0  0
  -21.5630   -3.4540   25.7736 F   0  0  0  0  0  0
  -30.0480  -13.3128   20.4664 N   0  0  0  0  0  0
  -26.3069  -12.9337   20.3402 N   0  0  0  0  0  0
  -25.9342  -11.6496   20.5766 N   0  0  0  0  0  0
  -22.0513  -12.8242   22.0396 N   0  0  0  0  0  0
  -25.4351  -15.1887   20.4144 N   0  0  0  0  0  0
  -31.6951  -14.8311   20.0066 O   0  0  0  0  0  0
  -21.6642   -6.8879   21.4237 O   0  0  0  0  0  0
  -22.3572  -14.5555   20.6697 O   0  0  0  0  0  0
  -24.6223  -31.8639   23.2084 C   0  0  0  0  0  0
  -25.9090  -32.4803   23.8392 C   0  0  1  0  0  0
  -27.2266  -27.3610   20.0974 C   0  0  0  0  0  0
  -25.5912  -33.8604   24.2314 N   0  0  0  0  0  0
  -23.4136  -30.4899   21.5505 C   0  0  2  0  0  0
  -24.8581  -28.9543   20.1107 C   0  0  0  0  0  0
  -22.7454  -29.4643   22.4961 C   0  0  0  0  0  0
  -18.0285  -28.1395   22.8504 C   0  0  0  0  0  0
  -24.1481  -36.7301   23.2639 C   0  0  0  0  0  0
  -25.9515  -30.8051   21.3747 C   0  0  0  0  0  0
  -26.0243  -29.4359   20.7172 C   0  0  0  0  0  0
  -27.2075  -28.6467   20.7102 C   0  0  0  0  0  0
  -26.0390  -26.9329   19.4542 C   0  0  0  0  0  0
  -24.8646  -27.7051   19.4751 C   0  0  0  0  0  0
  -23.6252  -29.8297   20.1630 C   0  0  0  0  0  0
  -25.4106  -36.3100   24.0336 C   0  0  1  0  0  0
  -20.5885  -28.3688   23.1307 C   0  0  2  0  0  0
  -20.6776  -26.9418   22.5420 C   0  0  0  0  0  0
  -19.5746  -26.6396   21.5226 C   0  0  0  0  0  0
  -18.1927  -26.7942   22.1638 C   0  0  0  0  0  0
  -19.1539  -28.8858   23.2901 C   0  0  0  0  0  0
  -18.9458  -30.1463   23.8914 C   0  0  0  0  0  0
  -17.6457  -30.6597   24.0574 C   0  0  0  0  0  0
  -25.9042  -34.9466   23.5124 C   0  0  0  0  0  0
  -16.5351  -29.9099   23.6331 C   0  0  0  0  0  0
  -16.7270  -28.6517   23.0354 C   0  0  0  0  0  0
  -26.4492  -31.6599   25.0741 C   0  0  0  0  0  0
  -25.3734  -31.3728   26.1469 C   0  0  0  0  0  0
  -27.0326  -30.3032   24.6163 C   0  0  0  0  0  0
  -27.6059  -32.4325   25.7504 C   0  0  0  0  0  0
  -27.5579  -37.1809   24.8472 C   0  0  0  0  0  0
  -21.4174  -29.3042   22.3697 N   0  0  0  0  0  0
  -26.4292  -37.3787   23.9413 N   0  0  0  0  0  0
  -24.6812  -31.0684   22.1020 N   0  0  0  0  0  0
  -23.4197  -28.8180   23.3022 O   0  0  0  0  0  0
  -28.3665  -26.5511   20.1546 O   0  0  0  0  0  0
  -26.5605  -34.8923   22.4688 O   0  0  0  0  0  0
  -23.5397  -32.1416   23.7439 O   0  0  0  0  0  0
  -29.8816  -17.7582   20.7659 C   0  0  0  0  0  0
  -28.4226  -16.7243   22.4124 C   0  0  0  0  0  0
  -29.1292  -18.9855   20.8513 C   0  0  0  0  0  0
  -27.6617  -17.9004   22.5058 C   0  0  0  0  0  0
  -27.9780  -19.0253   21.7023 C   0  0  0  0  0  0
  -29.5142  -16.6075   21.5338 C   0  0  0  0  0  0
  -29.4815  -20.1726   20.0015 C   0  0  0  0  0  0
  -26.4891  -17.9085   23.4767 C   0  0  0  0  0  0
  -27.0376  -20.2366   21.7464 C   0  0  0  0  0  0
  -29.2475  -24.0999   20.3714 C   0  0  0  0  0  0
  -29.3122  -22.7212   19.6071 C   0  0  0  0  0  0
  -28.2606  -25.1484   19.7403 C   0  0  0  0  0  0
  -29.8350  -19.9672   18.7352 N   0  0  0  0  0  0
  -30.1393  -15.3065   21.5816 N   0  0  0  0  0  0
  -29.3880  -21.4649   20.4339 N   0  3  0  0  0  0
  -31.4817  -12.4972   19.1057 H   0  0  0  0  0  0
  -30.3859  -11.3371   19.7979 H   0  0  0  0  0  0
  -29.7469  -11.8176   17.4257 H   0  0  0  0  0  0
  -29.6507  -13.5259   17.7692 H   0  0  0  0  0  0
  -27.8426  -11.3190   18.8107 H   0  0  0  0  0  0
  -27.3674  -12.6542   17.7934 H   0  0  0  0  0  0
  -27.7191  -14.2600   19.6017 H   0  0  0  0  0  0
  -28.7028  -11.9173   21.2972 H   0  0  0  0  0  0
  -28.4418  -13.5192   21.8962 H   0  0  0  0  0  0
  -25.2766   -9.5697   22.4746 H   0  0  0  0  0  0
  -24.0015   -7.4645   22.7467 H   0  0  0  0  0  0
  -21.0842   -8.8788   19.8950 H   0  0  0  0  0  0
  -22.3706  -10.9682   19.6166 H   0  0  0  0  0  0
  -21.2005   -7.6151   23.9721 H   0  0  0  0  0  0
  -21.1482   -6.0519   25.9080 H   0  0  0  0  0  0
  -22.0594   -2.7610   23.2845 H   0  0  0  0  0  0
  -22.4123  -11.9910   22.4801 H   0  0  0  0  0  0
  -21.1127  -13.1270   22.2586 H   0  0  0  0  0  0
  -24.6672  -15.8426   20.5203 H   0  0  0  0  0  0
  -26.2911  -15.6299   20.1027 H   0  0  0  0  0  0
  -26.7158  -32.5492   23.1145 H   0  0  0  0  0  0
  -25.0067  -33.9764   25.0462 H   0  0  0  0  0  0
  -22.7065  -31.3105   21.4141 H   0  0  0  0  0  0
  -23.3742  -35.9635   23.3314 H   0  0  0  0  0  0
  -24.3570  -36.8903   22.2051 H   0  0  0  0  0  0
  -23.7234  -37.6510   23.6642 H   0  0  0  0  0  0
  -26.0769  -31.5690   20.6058 H   0  0  0  0  0  0
  -26.8348  -30.8544   21.9999 H   0  0  0  0  0  0
  -28.1014  -29.0111   21.1968 H   0  0  0  0  0  0
  -25.9807  -25.9959   18.9221 H   0  0  0  0  0  0
  -23.9720  -27.3365   18.9882 H   0  0  0  0  0  0
  -23.7416  -30.6087   19.4085 H   0  0  0  0  0  0
  -22.7463  -29.2574   19.8610 H   0  0  0  0  0  0
  -25.1283  -36.1964   25.0830 H   0  0  0  0  0  0
  -20.9987  -28.3257   24.1424 H   0  0  0  0  0  0
  -20.5700  -26.2293   23.3611 H   0  0  0  0  0  0
  -21.6643  -26.7464   22.1199 H   0  0  0  0  0  0
  -19.6903  -25.6308   21.1251 H   0  0  0  0  0  0
  -19.6683  -27.3214   20.6762 H   0  0  0  0  0  0
  -17.4198  -26.6702   21.4036 H   0  0  0  0  0  0
  -18.0317  -26.0082   22.9033 H   0  0  0  0  0  0
  -19.7929  -30.7283   24.2291 H   0  0  0  0  0  0
  -17.5006  -31.6280   24.5174 H   0  0  0  0  0  0
  -15.5353  -30.3005   23.7644 H   0  0  0  0  0  0
  -15.8670  -28.0840   22.7060 H   0  0  0  0  0  0
  -24.5913  -30.7071   25.7800 H   0  0  0  0  0  0
  -24.8916  -32.2892   26.4894 H   0  0  0  0  0  0
  -25.8062  -30.8913   27.0245 H   0  0  0  0  0  0
  -26.2891  -29.6795   24.1185 H   0  0  0  0  0  0
  -27.4040  -29.7275   25.4652 H   0  0  0  0  0  0
  -27.8753  -30.4338   23.9368 H   0  0  0  0  0  0
  -27.2678  -33.3623   26.2093 H   0  0  0  0  0  0
  -28.3858  -32.6891   25.0320 H   0  0  0  0  0  0
  -28.0731  -31.8440   26.5409 H   0  0  0  0  0  0
  -28.2611  -38.0093   24.7504 H   0  0  0  0  0  0
  -28.1059  -36.2626   24.6310 H   0  0  0  0  0  0
  -27.2297  -37.1475   25.8876 H   0  0  0  0  0  0
  -20.9342  -29.8763   21.6912 H   0  0  0  0  0  0
  -26.0179  -38.2867   24.1406 H   0  0  0  0  0  0
  -30.7369  -17.7023   20.1064 H   0  0  0  0  0  0
  -28.1387  -15.8793   23.0236 H   0  0  0  0  0  0
  -26.4887  -18.8123   24.0862 H   0  0  0  0  0  0
  -26.5294  -17.0600   24.1606 H   0  0  0  0  0  0
  -25.5446  -17.8501   22.9357 H   0  0  0  0  0  0
  -26.8776  -20.6594   20.7548 H   0  0  0  0  0  0
  -27.4362  -21.0114   22.4015 H   0  0  0  0  0  0
  -26.0384  -19.9923   22.1017 H   0  0  0  0  0  0
  -30.2480  -24.5323   20.3697 H   0  0  0  0  0  0
  -28.9911  -23.9472   21.4194 H   0  0  0  0  0  0
  -30.1508  -22.7488   18.9093 H   0  0  0  0  0  0
  -28.4201  -22.6311   18.9846 H   0  0  0  0  0  0
  -28.3543  -25.1225   18.6538 H   0  0  0  0  0  0
  -27.2761  -24.7498   19.9831 H   0  0  0  0  0  0
  -30.1196  -20.7156   18.1270 H   0  0  0  0  0  0
  -29.8240  -19.0289   18.3643 H   0  0  0  0  0  0
  -29.6701  -14.7074   22.2427 H   0  0  0  0  0  0
  -29.2021  -21.5656   21.4234 H   0  0  0  0  0  0
  1 25  1  0  0  0
  1 30  2  0  0  0
  1 84  1  0  0  0
  2  3  1  0  0  0
  2 25  1  0  0  0
  2 86  1  0  0  0
  2 87  1  0  0  0
  3  4  1  0  0  0
  3 88  1  0  0  0
  3 89  1  0  0  0
  4  5  1  0  0  0
  4 90  1  0  0  0
  4 91  1  0  0  0
  5  6  1  0  0  0
  5 26  1  0  0  0
  5 92  1  0  0  0
  6 25  1  0  0  0
  6 93  1  0  0  0
  6 94  1  0  0  0
  7  8  2  0  0  0
  7 26  1  0  0  0
  7 29  1  0  0  0
  8  9  1  0  0  0
  8 22  1  0  0  0
  9 10  1  0  0  0
  9 27  2  0  0  0
 10 11  2  0  0  0
 10 15  1  0  0  0
 11 12  1  0  0  0
 11 95  1  0  0  0
 12 13  2  0  0  0
 12 96  1  0  0  0
 13 14  1  0  0  0
 13 31  1  0  0  0
 14 15  2  0  0  0
 14 97  1  0  0  0
 15 98  1  0  0  0
 16 17  2  0  0  0
 16 21  1  0  0  0
 16 31  1  0  0  0
 17 18  1  0  0  0
 17 99  1  0  0  0
 18 19  2  0  0  0
 18100  1  0  0  0
 19 20  1  0  0  0
 19 24  1  0  0  0
 20 21  2  0  0  0
 20101  1  0  0  0
 21 23  1  0  0  0
 22 28  1  0  0  0
 22 32  2  0  0  0
 26 27  1  0  0  0
 28102  1  0  0  0
 28103  1  0  0  0
 29104  1  0  0  0
 29105  1  0  0  0
 33 34  1  0  0  0
 33 66  1  0  0  0
 33 70  2  0  0  0
 34 36  1  0  0  0
 34 59  1  0  0  0
 34106  1  0  0  0
 35 44  2  0  0  0
 35 45  1  0  0  0
 35 68  1  0  0  0
 36 56  1  0  0  0
 36107  1  0  0  0
 37 39  1  0  0  0
 37 47  1  0  0  0
 37 66  1  0  0  0
 37108  1  0  0  0
 38 43  2  0  0  0
 38 46  1  0  0  0
 38 47  1  0  0  0
 39 64  1  0  0  0
 39 67  2  0  0  0
 40 52  1  0  0  0
 40 53  2  0  0  0
 40 58  1  0  0  0
 41109  1  0  0  0
 41110  1  0  0  0
 41111  1  0  0  0
 41 48  1  0  0  0
 42 43  1  0  0  0
 42 66  1  0  0  0
 42112  1  0  0  0
 42113  1  0  0  0
 43 44  1  0  0  0
 44114  1  0  0  0
 45 46  2  0  0  0
 45115  1  0  0  0
 46116  1  0  0  0
 47117  1  0  0  0
 47118  1  0  0  0
 48 56  1  0  0  0
 48 65  1  0  0  0
 48119  1  0  0  0
 49 50  1  0  0  0
 49 53  1  0  0  0
 49 64  1  0  0  0
 49120  1  0  0  0
 50 51  1  0  0  0
 50121  1  0  0  0
 50122  1  0  0  0
 51 52  1  0  0  0
 51123  1  0  0  0
 51124  1  0  0  0
 52125  1  0  0  0
 52126  1  0  0  0
 53 54  1  0  0  0
 54 55  2  0  0  0
 54127  1  0  0  0
 55 57  1  0  0  0
 55128  1  0  0  0
 56 69  2  0  0  0
 57 58  2  0  0  0
 57129  1  0  0  0
 58130  1  0  0  0
 59 60  1  0  0  0
 59 61  1  0  0  0
 59 62  1  0  0  0
 60131  1  0  0  0
 60132  1  0  0  0
 60133  1  0  0  0
 61134  1  0  0  0
 61135  1  0  0  0
 61136  1  0  0  0
 62137  1  0  0  0
 62138  1  0  0  0
 62139  1  0  0  0
 63 65  1  0  0  0
 63140  1  0  0  0
 63141  1  0  0  0
 63142  1  0  0  0
 64143  1  0  0  0
 65144  1  0  0  0
 68 82  1  0  0  0
 71 73  2  0  0  0
 71 76  1  0  0  0
 71145  1  0  0  0
 72 74  1  0  0  0
 72 76  2  0  0  0
 72146  1  0  0  0
 73 75  1  0  0  0
 73 77  1  0  0  0
 74 75  2  0  0  0
 74 78  1  0  0  0
 75 79  1  0  0  0
 76 84  1  0  0  0
 77 83  1  0  0  0
 77 85  2  0  0  0
 78147  1  0  0  0
 78148  1  0  0  0
 78149  1  0  0  0
 79150  1  0  0  0
 79151  1  0  0  0
 79152  1  0  0  0
 80 81  1  0  0  0
 80 82  1  0  0  0
 80153  1  0  0  0
 80154  1  0  0  0
 81 85  1  0  0  0
 81155  1  0  0  0
 81156  1  0  0  0
 82157  1  0  0  0
 82158  1  0  0  0
 83159  1  0  0  0
 83160  1  0  0  0
 84161  1  0  0  0
 85162  1  0  0  0
M  CHG  1  85   1
M  ISO  4   1 100  68 101  82 101  84 100
M  END
> <chiral flag>
0

> <version>
0

> <s_m_source_file>
/data/baiqing/PycharmProjects/Reinvent-master-3.2/result/LINK_invent/BTK/process_docking_weight1_custom_product_contain_oxygen_bond_distance_aromatic_linkinvent_7_9_3/rearranged_h_0032.sdf

> <i_m_source_file_index>
19

> <r_mmod_Potential_Energy-OPLS-2005>
-150.516540527344

> <r_mmod_Stretch_Energy-OPLS-2005>
63.9093589782715

> <r_mmod_Bend_Energy-OPLS-2005>
138.601455688477

> <r_mmod_Torsional_Energy-OPLS-2005>
238.844833374023

> <r_mmod_Improper_Torsional_Energy-OPLS-2005>
6.79600954055786

> <r_mmod_Van_der_Waal_Energy-OPLS-2005>
158.285827636719

> <r_mmod_Electrostatic_Energy-OPLS-2005>
-374.713592529297

> <r_mmod_Solvation_Energy-OPLS-2005>
-409.585144042969

> <b_mmod_Minimization_Converged-OPLS-2005>
0

> <r_mmod_RMS_Derivative-OPLS-2005>
1.12484800815582

$$$$
19
                    3D
 Structure written by MMmdl.
160169  0  0  1  0            999 V2000
  -30.6746  -14.6239   20.4832 C   0  0  0  0  0  0
  -30.4198  -12.3846   19.4488 C   0  0  0  0  0  0
  -29.4935  -12.4824   18.2185 C   0  0  0  0  0  0
  -28.0184  -12.3327   18.6385 C   0  0  0  0  0  0
  -27.6442  -13.2254   19.8536 C   0  0  2  0  0  0
  -28.6923  -13.1242   20.9831 C   0  0  0  0  0  0
  -25.2522  -13.8201   20.5724 C   0  0  0  0  0  0
  -24.1801  -13.0442   20.9220 C   0  0  0  0  0  0
  -24.6388  -11.6913   20.8763 C   0  0  0  0  0  0
  -23.9075  -10.4290   21.0427 C   0  0  0  0  0  0
  -24.3627   -9.4211   21.9202 C   0  0  0  0  0  0
  -23.6308   -8.2246   22.0755 C   0  0  0  0  0  0
  -22.4289   -8.0283   21.3551 C   0  0  0  0  0  0
  -21.9936   -9.0256   20.4640 C   0  0  0  0  0  0
  -22.7260  -10.2136   20.3063 C   0  0  0  0  0  0
  -21.6852   -6.0755   22.5286 C   0  0  0  0  0  0
  -21.4004   -6.5644   23.8220 C   0  0  0  0  0  0
  -21.3652   -5.6789   24.9180 C   0  0  0  0  0  0
  -21.6042   -4.3066   24.7224 C   0  0  0  0  0  0
  -21.8817   -3.8164   23.4343 C   0  0  0  0  0  0
  -21.9190   -4.6980   22.3408 C   0  0  0  0  0  0
  -22.7815  -13.5226   21.1887 C   0  0  0  0  0  0
  -22.1660   -4.2171   21.0991 F   0  0  0  0  0  0
  -21.5629   -3.4550   25.7738 F   0  0  0  0  0  0
  -30.0009  -13.4357   20.3968 N   0  0  0  0  0  0
  -26.2954  -12.9396   20.3331 N   0  0  0  0  0  0
  -25.9321  -11.6542   20.5790 N   0  0  0  0  0  0
  -22.0457  -12.8189   22.0414 N   0  0  0  0  0  0
  -25.4214  -15.1929   20.4147 N   0  0  0  0  0  0
  -31.8622  -14.6960   20.1630 O   0  0  0  0  0  0
  -21.6643   -6.8897   21.4246 O   0  0  0  0  0  0
  -22.3496  -14.5548   20.6751 O   0  0  0  0  0  0
  -24.6264  -31.8603   23.2047 C   0  0  0  0  0  0
  -25.9117  -32.4785   23.8361 C   0  0  1  0  0  0
  -27.2093  -27.3116   20.1083 C   0  0  0  0  0  0
  -25.5947  -33.8584   24.2286 N   0  0  0  0  0  0
  -23.4167  -30.4899   21.5465 C   0  0  2  0  0  0
  -24.8622  -28.9552   20.1026 C   0  0  0  0  0  0
  -22.7467  -29.4635   22.4906 C   0  0  0  0  0  0
  -18.0295  -28.1388   22.8491 C   0  0  0  0  0  0
  -24.1462  -36.7240   23.2631 C   0  0  0  0  0  0
  -25.9607  -30.7889   21.3788 C   0  0  0  0  0  0
  -26.0321  -29.4180   20.7177 C   0  0  0  0  0  0
  -27.2084  -28.6066   20.7163 C   0  0  0  0  0  0
  -26.0158  -26.9218   19.4526 C   0  0  0  0  0  0
  -24.8578  -27.7137   19.4598 C   0  0  0  0  0  0
  -23.6296  -29.8338   20.1576 C   0  0  0  0  0  0
  -25.4086  -36.3061   24.0329 C   0  0  1  0  0  0
  -20.5895  -28.3682   23.1277 C   0  0  2  0  0  0
  -20.6786  -26.9401   22.5398 C   0  0  0  0  0  0
  -19.5750  -26.6388   21.5210 C   0  0  0  0  0  0
  -18.1925  -26.7930   22.1623 C   0  0  0  0  0  0
  -19.1554  -28.8846   23.2880 C   0  0  0  0  0  0
  -18.9482  -30.1468   23.8880 C   0  0  0  0  0  0
  -17.6486  -30.6598   24.0583 C   0  0  0  0  0  0
  -25.9051  -34.9456   23.5099 C   0  0  0  0  0  0
  -16.5376  -29.9096   23.6358 C   0  0  0  0  0  0
  -16.7286  -28.6524   23.0352 C   0  0  0  0  0  0
  -26.4500  -31.6593   25.0728 C   0  0  0  0  0  0
  -25.3753  -31.3720   26.1461 C   0  0  0  0  0  0
  -27.0368  -30.3031   24.6170 C   0  0  0  0  0  0
  -27.6047  -32.4355   25.7500 C   0  0  0  0  0  0
  -27.5563  -37.1749   24.8456 C   0  0  0  0  0  0
  -21.4172  -29.3054   22.3685 N   0  0  0  0  0  0
  -26.4235  -37.3786   23.9469 N   0  0  0  0  0  0
  -24.6862  -31.0623   22.0996 N   0  0  0  0  0  0
  -23.4186  -28.8149   23.2962 O   0  0  0  0  0  0
  -28.3097  -26.4315   20.1768 O   0  0  0  0  0  0
  -26.5605  -34.8938   22.4658 O   0  0  0  0  0  0
  -23.5420  -32.1404   23.7378 O   0  0  0  0  0  0
  -30.1735  -19.1302   19.3722 C   0  0  0  0  0  0
  -29.7819  -20.4721   19.1114 C   0  0  0  0  0  0
  -28.7526  -20.6063   21.2740 C   0  0  0  0  0  0
  -29.8802  -18.4811   20.5966 C   0  0  0  0  0  0
  -29.1268  -19.2454   21.5378 C   0  0  0  0  0  0
  -29.0690  -21.2630   20.0520 C   0  0  0  0  0  0
  -28.2466  -23.0643   18.4797 C   0  0  0  0  0  0
  -27.7673  -22.3139   17.4726 C   0  0  0  0  0  0
  -28.2541  -24.5837   18.4585 C   0  0  0  0  0  0
  -28.8549  -23.7938   20.6159 C   0  0  0  0  0  0
  -28.0711  -24.9820   19.9274 C   0  0  1  0  0  0
  -28.7347  -18.6211   22.8667 C   0  0  0  0  0  0
  -30.5876  -17.1184   20.9468 C   0  0  0  0  0  0
  -28.6715  -22.6110   19.7275 N   0  0  0  0  0  0
  -29.9643  -15.7653   20.7497 N   0  0  0  0  0  0
  -31.4620  -12.4861   19.1404 H   0  0  0  0  0  0
  -30.3426  -11.4001   19.9140 H   0  0  0  0  0  0
  -29.7502  -11.7111   17.4912 H   0  0  0  0  0  0
  -29.6386  -13.4406   17.7168 H   0  0  0  0  0  0
  -27.8553  -11.2831   18.8874 H   0  0  0  0  0  0
  -27.3613  -12.5493   17.7950 H   0  0  0  0  0  0
  -27.6503  -14.2532   19.4891 H   0  0  0  0  0  0
  -28.6992  -12.1230   21.4171 H   0  0  0  0  0  0
  -28.4509  -13.8083   21.7980 H   0  0  0  0  0  0
  -25.2770   -9.5689   22.4790 H   0  0  0  0  0  0
  -24.0016   -7.4636   22.7477 H   0  0  0  0  0  0
  -21.0880   -8.8780   19.8939 H   0  0  0  0  0  0
  -22.3739  -10.9680   19.6169 H   0  0  0  0  0  0
  -21.1986   -7.6144   23.9735 H   0  0  0  0  0  0
  -21.1471   -6.0521   25.9084 H   0  0  0  0  0  0
  -22.0601   -2.7623   23.2843 H   0  0  0  0  0  0
  -22.4067  -11.9822   22.4754 H   0  0  0  0  0  0
  -21.1070  -13.1184   22.2630 H   0  0  0  0  0  0
  -24.6540  -15.8467   20.5323 H   0  0  0  0  0  0
  -26.2707  -15.6374   20.0893 H   0  0  0  0  0  0
  -26.7175  -32.5438   23.1090 H   0  0  0  0  0  0
  -25.0193  -33.9745   25.0500 H   0  0  0  0  0  0
  -22.7114  -31.3110   21.4067 H   0  0  0  0  0  0
  -23.3771  -35.9525   23.3257 H   0  0  0  0  0  0
  -24.3557  -36.8878   22.2050 H   0  0  0  0  0  0
  -23.7162  -37.6408   23.6675 H   0  0  0  0  0  0
  -26.0957  -31.5529   20.6122 H   0  0  0  0  0  0
  -26.8419  -30.8349   22.0072 H   0  0  0  0  0  0
  -28.0993  -28.9539   21.2197 H   0  0  0  0  0  0
  -25.9261  -25.9857   18.9273 H   0  0  0  0  0  0
  -23.9655  -27.3601   18.9618 H   0  0  0  0  0  0
  -23.7413  -30.6165   19.4059 H   0  0  0  0  0  0
  -22.7497  -29.2623   19.8532 H   0  0  0  0  0  0
  -25.1253  -36.1874   25.0809 H   0  0  0  0  0  0
  -21.0015  -28.3257   24.1385 H   0  0  0  0  0  0
  -20.5702  -26.2282   23.3598 H   0  0  0  0  0  0
  -21.6645  -26.7430   22.1166 H   0  0  0  0  0  0
  -19.6908  -25.6303   21.1224 H   0  0  0  0  0  0
  -19.6696  -27.3234   20.6764 H   0  0  0  0  0  0
  -17.4201  -26.6726   21.4016 H   0  0  0  0  0  0
  -18.0303  -26.0053   22.8993 H   0  0  0  0  0  0
  -19.7965  -30.7311   24.2190 H   0  0  0  0  0  0
  -17.5046  -31.6274   24.5197 H   0  0  0  0  0  0
  -15.5384  -30.3008   23.7683 H   0  0  0  0  0  0
  -15.8678  -28.0872   22.7033 H   0  0  0  0  0  0
  -24.5984  -30.6973   25.7824 H   0  0  0  0  0  0
  -24.8890  -32.2880   26.4837 H   0  0  0  0  0  0
  -25.8112  -30.8978   27.0262 H   0  0  0  0  0  0
  -26.2954  -29.6767   24.1181 H   0  0  0  0  0  0
  -27.4085  -29.7272   25.4655 H   0  0  0  0  0  0
  -27.8802  -30.4339   23.9384 H   0  0  0  0  0  0
  -27.2676  -33.3728   26.1933 H   0  0  0  0  0  0
  -28.3938  -32.6772   25.0373 H   0  0  0  0  0  0
  -28.0604  -31.8558   26.5534 H   0  0  0  0  0  0
  -28.2491  -38.0136   24.7660 H   0  0  0  0  0  0
  -28.1142  -36.2683   24.6072 H   0  0  0  0  0  0
  -27.2316  -37.1132   25.8857 H   0  0  0  0  0  0
  -20.9339  -29.8804   21.6929 H   0  0  0  0  0  0
  -26.0082  -38.2805   24.1643 H   0  0  0  0  0  0
  -30.7604  -18.6120   18.6280 H   0  0  0  0  0  0
  -30.0646  -20.9091   18.1641 H   0  0  0  0  0  0
  -28.1887  -21.1457   22.0221 H   0  0  0  0  0  0
  -27.4060  -22.7697   16.5607 H   0  0  0  0  0  0
  -27.7008  -21.2374   17.5381 H   0  0  0  0  0  0
  -27.4825  -24.9856   17.8032 H   0  0  0  0  0  0
  -29.2175  -24.9249   18.0777 H   0  0  0  0  0  0
  -28.4902  -23.6069   21.6264 H   0  0  0  0  0  0
  -29.9204  -24.0182   20.6804 H   0  0  0  0  0  0
  -27.0457  -24.7534   20.2200 H   0  0  0  0  0  0
  -27.9742  -19.2105   23.3804 H   0  0  0  0  0  0
  -29.5974  -18.5393   23.5277 H   0  0  0  0  0  0
  -28.3234  -17.6229   22.7125 H   0  0  0  0  0  0
  -30.8963  -17.1618   21.9912 H   0  0  0  0  0  0
  -31.5308  -17.1430   20.3969 H   0  0  0  0  0  0
  -28.9750  -15.6763   20.9195 H   0  0  0  0  0  0
  1 25  1  0  0  0
  1 30  2  0  0  0
  1 85  1  0  0  0
  2  3  1  0  0  0
  2 25  1  0  0  0
  2 86  1  0  0  0
  2 87  1  0  0  0
  3  4  1  0  0  0
  3 88  1  0  0  0
  3 89  1  0  0  0
  4  5  1  0  0  0
  4 90  1  0  0  0
  4 91  1  0  0  0
  5  6  1  0  0  0
  5 26  1  0  0  0
  5 92  1  0  0  0
  6 25  1  0  0  0
  6 93  1  0  0  0
  6 94  1  0  0  0
  7  8  2  0  0  0
  7 26  1  0  0  0
  7 29  1  0  0  0
  8  9  1  0  0  0
  8 22  1  0  0  0
  9 10  1  0  0  0
  9 27  2  0  0  0
 10 11  2  0  0  0
 10 15  1  0  0  0
 11 12  1  0  0  0
 11 95  1  0  0  0
 12 13  2  0  0  0
 12 96  1  0  0  0
 13 14  1  0  0  0
 13 31  1  0  0  0
 14 15  2  0  0  0
 14 97  1  0  0  0
 15 98  1  0  0  0
 16 17  2  0  0  0
 16 21  1  0  0  0
 16 31  1  0  0  0
 17 18  1  0  0  0
 17 99  1  0  0  0
 18 19  2  0  0  0
 18100  1  0  0  0
 19 20  1  0  0  0
 19 24  1  0  0  0
 20 21  2  0  0  0
 20101  1  0  0  0
 21 23  1  0  0  0
 22 28  1  0  0  0
 22 32  2  0  0  0
 26 27  1  0  0  0
 28102  1  0  0  0
 28103  1  0  0  0
 29104  1  0  0  0
 29105  1  0  0  0
 33 34  1  0  0  0
 33 66  1  0  0  0
 33 70  2  0  0  0
 34 36  1  0  0  0
 34 59  1  0  0  0
 34106  1  0  0  0
 35 44  2  0  0  0
 35 45  1  0  0  0
 35 68  1  0  0  0
 36 56  1  0  0  0
 36107  1  0  0  0
 37 39  1  0  0  0
 37 47  1  0  0  0
 37 66  1  0  0  0
 37108  1  0  0  0
 38 43  2  0  0  0
 38 46  1  0  0  0
 38 47  1  0  0  0
 39 64  1  0  0  0
 39 67  2  0  0  0
 40 52  1  0  0  0
 40 53  2  0  0  0
 40 58  1  0  0  0
 41109  1  0  0  0
 41110  1  0  0  0
 41111  1  0  0  0
 41 48  1  0  0  0
 42 43  1  0  0  0
 42 66  1  0  0  0
 42112  1  0  0  0
 42113  1  0  0  0
 43 44  1  0  0  0
 44114  1  0  0  0
 45 46  2  0  0  0
 45115  1  0  0  0
 46116  1  0  0  0
 47117  1  0  0  0
 47118  1  0  0  0
 48 56  1  0  0  0
 48 65  1  0  0  0
 48119  1  0  0  0
 49 50  1  0  0  0
 49 53  1  0  0  0
 49 64  1  0  0  0
 49120  1  0  0  0
 50 51  1  0  0  0
 50121  1  0  0  0
 50122  1  0  0  0
 51 52  1  0  0  0
 51123  1  0  0  0
 51124  1  0  0  0
 52125  1  0  0  0
 52126  1  0  0  0
 53 54  1  0  0  0
 54 55  2  0  0  0
 54127  1  0  0  0
 55 57  1  0  0  0
 55128  1  0  0  0
 56 69  2  0  0  0
 57 58  2  0  0  0
 57129  1  0  0  0
 58130  1  0  0  0
 59 60  1  0  0  0
 59 61  1  0  0  0
 59 62  1  0  0  0
 60131  1  0  0  0
 60132  1  0  0  0
 60133  1  0  0  0
 61134  1  0  0  0
 61135  1  0  0  0
 61136  1  0  0  0
 62137  1  0  0  0
 62138  1  0  0  0
 62139  1  0  0  0
 63 65  1  0  0  0
 63140  1  0  0  0
 63141  1  0  0  0
 63142  1  0  0  0
 64143  1  0  0  0
 65144  1  0  0  0
 68 81  1  0  0  0
 71 72  2  0  0  0
 71 74  1  0  0  0
 71145  1  0  0  0
 72 76  1  0  0  0
 72146  1  0  0  0
 73 75  1  0  0  0
 73 76  2  0  0  0
 73147  1  0  0  0
 74 75  2  0  0  0
 74 83  1  0  0  0
 75 82  1  0  0  0
 76 84  1  0  0  0
 77 78  2  0  0  0
 77 79  1  0  0  0
 77 84  1  0  0  0
 78148  1  0  0  0
 78149  1  0  0  0
 79 81  1  0  0  0
 79150  1  0  0  0
 79151  1  0  0  0
 80 81  1  0  0  0
 80 84  1  0  0  0
 80152  1  0  0  0
 80153  1  0  0  0
 81154  1  0  0  0
 82155  1  0  0  0
 82156  1  0  0  0
 82157  1  0  0  0
 83 85  1  0  0  0
 83158  1  0  0  0
 83159  1  0  0  0
 85160  1  0  0  0
M  ISO  4   1 100  68 101  81 101  85 100
M  END
> <chiral flag>
0

> <version>
0

> <s_m_source_file>
/data/baiqing/PycharmProjects/Reinvent-master-3.2/result/LINK_invent/BTK/process_docking_weight1_custom_product_contain_oxygen_bond_distance_aromatic_linkinvent_7_9_3/rearranged_h_0032.sdf

> <i_m_source_file_index>
20

> <r_mmod_Potential_Energy-OPLS-2005>
92.6555404663086

> <r_mmod_Stretch_Energy-OPLS-2005>
77.7186508178711

> <r_mmod_Bend_Energy-OPLS-2005>
193.375381469727

> <r_mmod_Torsional_Energy-OPLS-2005>
232.789932250977

> <r_mmod_Improper_Torsional_Energy-OPLS-2005>
5.64904594421387

> <r_mmod_Van_der_Waal_Energy-OPLS-2005>
153.398864746094

> <r_mmod_Electrostatic_Energy-OPLS-2005>
-420.331115722656

> <r_mmod_Solvation_Energy-OPLS-2005>
-204.144271850586

> <b_mmod_Minimization_Converged-OPLS-2005>
0

> <r_mmod_RMS_Derivative-OPLS-2005>
2.402024269104

$$$$
20
                    3D
 Structure written by MMmdl.
173182  0  0  1  0            999 V2000
  -30.6283  -14.6257   20.4740 C   0  0  0  0  0  0
  -30.4178  -12.3782   19.4510 C   0  0  0  0  0  0
  -29.4932  -12.4954   18.2230 C   0  0  0  0  0  0
  -28.0149  -12.3506   18.6240 C   0  0  0  0  0  0
  -27.6411  -13.2197   19.8542 C   0  0  2  0  0  0
  -28.6858  -13.0817   20.9822 C   0  0  0  0  0  0
  -25.2499  -13.8166   20.5703 C   0  0  0  0  0  0
  -24.1794  -13.0412   20.9198 C   0  0  0  0  0  0
  -24.6374  -11.6902   20.8733 C   0  0  0  0  0  0
  -23.9052  -10.4298   21.0388 C   0  0  0  0  0  0
  -24.3618   -9.4224   21.9135 C   0  0  0  0  0  0
  -23.6296   -8.2249   22.0727 C   0  0  0  0  0  0
  -22.4245   -8.0284   21.3546 C   0  0  0  0  0  0
  -21.9914   -9.0247   20.4644 C   0  0  0  0  0  0
  -22.7229  -10.2134   20.3036 C   0  0  0  0  0  0
  -21.6819   -6.0773   22.5301 C   0  0  0  0  0  0
  -21.3999   -6.5665   23.8235 C   0  0  0  0  0  0
  -21.3677   -5.6803   24.9194 C   0  0  0  0  0  0
  -21.6050   -4.3051   24.7233 C   0  0  0  0  0  0
  -21.8802   -3.8170   23.4332 C   0  0  0  0  0  0
  -21.9158   -4.7017   22.3401 C   0  0  0  0  0  0
  -22.7807  -13.5205   21.1834 C   0  0  0  0  0  0
  -22.1629   -4.2204   21.0974 F   0  0  0  0  0  0
  -21.5642   -3.4528   25.7730 F   0  0  0  0  0  0
  -30.0051  -13.4087   20.4224 N   0  0  0  0  0  0
  -26.2920  -12.9378   20.3307 N   0  0  0  0  0  0
  -25.9298  -11.6521   20.5779 N   0  0  0  0  0  0
  -22.0475  -12.8174   22.0410 N   0  0  0  0  0  0
  -25.4104  -15.1888   20.4164 N   0  0  0  0  0  0
  -31.7966  -14.7603   20.1043 O   0  0  0  0  0  0
  -21.6605   -6.8884   21.4236 O   0  0  0  0  0  0
  -22.3462  -14.5522   20.6692 O   0  0  0  0  0  0
  -24.6287  -31.8605   23.2035 C   0  0  0  0  0  0
  -25.9150  -32.4779   23.8344 C   0  0  1  0  0  0
  -27.2264  -27.3154   20.0898 C   0  0  0  0  0  0
  -25.5949  -33.8583   24.2276 N   0  0  0  0  0  0
  -23.4228  -30.4874   21.5445 C   0  0  2  0  0  0
  -24.8683  -28.9452   20.1074 C   0  0  0  0  0  0
  -22.7487  -29.4656   22.4924 C   0  0  0  0  0  0
  -18.0298  -28.1412   22.8465 C   0  0  0  0  0  0
  -24.1494  -36.7307   23.2634 C   0  0  0  0  0  0
  -25.9661  -30.7837   21.3809 C   0  0  0  0  0  0
  -26.0377  -29.4142   20.7194 C   0  0  0  0  0  0
  -27.2138  -28.6032   20.7155 C   0  0  0  0  0  0
  -26.0414  -26.9339   19.4120 C   0  0  0  0  0  0
  -24.8717  -27.7088   19.4526 C   0  0  0  0  0  0
  -23.6375  -29.8229   20.1605 C   0  0  0  0  0  0
  -25.4112  -36.3089   24.0328 C   0  0  1  0  0  0
  -20.5895  -28.3739   23.1250 C   0  0  2  0  0  0
  -20.6790  -26.9454   22.5405 C   0  0  0  0  0  0
  -19.5753  -26.6400   21.5209 C   0  0  0  0  0  0
  -18.1937  -26.7957   22.1618 C   0  0  0  0  0  0
  -19.1547  -28.8880   23.2858 C   0  0  0  0  0  0
  -18.9469  -30.1477   23.8879 C   0  0  0  0  0  0
  -17.6465  -30.6594   24.0570 C   0  0  0  0  0  0
  -25.9052  -34.9461   23.5100 C   0  0  0  0  0  0
  -16.5356  -29.9096   23.6335 C   0  0  0  0  0  0
  -16.7288  -28.6527   23.0333 C   0  0  0  0  0  0
  -26.4505  -31.6586   25.0728 C   0  0  0  0  0  0
  -25.3695  -31.3741   26.1407 C   0  0  0  0  0  0
  -27.0359  -30.3001   24.6238 C   0  0  0  0  0  0
  -27.6073  -32.4308   25.7496 C   0  0  0  0  0  0
  -27.5577  -37.1812   24.8458 C   0  0  0  0  0  0
  -21.4198  -29.3079   22.3644 N   0  0  0  0  0  0
  -26.4293  -37.3781   23.9405 N   0  0  0  0  0  0
  -24.6911  -31.0606   22.0986 N   0  0  0  0  0  0
  -23.4221  -28.8165   23.2976 O   0  0  0  0  0  0
  -28.3311  -26.4427   20.1685 O   0  0  0  0  0  0
  -26.5608  -34.8934   22.4662 O   0  0  0  0  0  0
  -23.5443  -32.1391   23.7355 O   0  0  0  0  0  0
  -30.9870  -19.1161   19.4447 C   0  0  0  0  0  0
  -30.9270  -17.7109   19.6733 C   0  0  0  0  0  0
  -29.0877  -18.0557   21.1892 C   0  0  0  0  0  0
  -30.1026  -20.0300   20.0800 C   0  0  0  0  0  0
  -29.9803  -17.1347   20.5627 C   0  0  0  0  0  0
  -29.1518  -19.4643   20.9661 C   0  0  0  0  0  0
  -27.8740  -22.2436   19.1037 C   0  0  0  0  0  0
  -31.1288  -15.5167   15.6097 C   0  0  0  0  0  0
  -27.7790  -21.5643   17.9356 C   0  0  0  0  0  0
  -30.8953  -16.8220   15.4045 C   0  0  0  0  0  0
  -28.8327  -20.9309   17.1676 C   0  0  0  0  0  0
  -29.9380  -17.5687   16.1944 C   0  0  0  0  0  0
  -28.8144  -19.6113   16.9186 C   0  0  0  0  0  0
  -29.8064  -18.9041   16.1312 C   0  0  0  0  0  0
  -26.6918  -22.9531   19.7661 C   0  0  0  0  0  0
  -27.0718  -24.2287   20.5684 C   0  0  0  0  0  0
  -29.4447  -24.0309   19.8825 C   0  0  0  0  0  0
  -28.1779  -25.0001   19.8011 C   0  0  2  0  0  0
  -30.2801  -21.5781   19.8420 C   0  0  0  0  0  0
  -29.8394  -15.6967   20.8098 N   0  0  0  0  0  0
  -29.1067  -22.5350   19.9061 N   0  3  2  0  0  0
  -28.2883  -20.2851   21.6104 F   0  0  0  0  0  0
  -31.4599  -12.4876   19.1458 H   0  0  0  0  0  0
  -30.3395  -11.3870   19.8991 H   0  0  0  0  0  0
  -29.7608  -11.7444   17.4746 H   0  0  0  0  0  0
  -29.6394  -13.4621   17.7442 H   0  0  0  0  0  0
  -27.8290  -11.2934   18.8347 H   0  0  0  0  0  0
  -27.3781  -12.5958   17.7754 H   0  0  0  0  0  0
  -27.6489  -14.2559   19.5152 H   0  0  0  0  0  0
  -28.4275  -13.7220   21.8272 H   0  0  0  0  0  0
  -28.7013  -12.0613   21.3720 H   0  0  0  0  0  0
  -25.2796   -9.5675   22.4670 H   0  0  0  0  0  0
  -24.0021   -7.4627   22.7418 H   0  0  0  0  0  0
  -21.0839   -8.8730   19.8926 H   0  0  0  0  0  0
  -22.3665  -10.9630   19.6131 H   0  0  0  0  0  0
  -21.1995   -7.6160   23.9746 H   0  0  0  0  0  0
  -21.1511   -6.0535   25.9091 H   0  0  0  0  0  0
  -22.0551   -2.7627   23.2799 H   0  0  0  0  0  0
  -22.4189  -11.9897   22.4867 H   0  0  0  0  0  0
  -21.1076  -13.1098   22.2656 H   0  0  0  0  0  0
  -24.6278  -15.8252   20.5236 H   0  0  0  0  0  0
  -26.2499  -15.6388   20.0765 H   0  0  0  0  0  0
  -26.7202  -32.5441   23.1069 H   0  0  0  0  0  0
  -25.0100  -33.9695   25.0421 H   0  0  0  0  0  0
  -22.7172  -31.3097   21.4002 H   0  0  0  0  0  0
  -23.3745  -35.9650   23.3309 H   0  0  0  0  0  0
  -24.3570  -36.8914   22.2042 H   0  0  0  0  0  0
  -23.7257  -37.6527   23.6634 H   0  0  0  0  0  0
  -26.1039  -31.5488   20.6165 H   0  0  0  0  0  0
  -26.8438  -30.8273   22.0167 H   0  0  0  0  0  0
  -28.1049  -28.9411   21.2271 H   0  0  0  0  0  0
  -25.9695  -26.0145   18.8526 H   0  0  0  0  0  0
  -23.9782  -27.3540   18.9601 H   0  0  0  0  0  0
  -23.7548  -30.5981   19.4014 H   0  0  0  0  0  0
  -22.7540  -29.2552   19.8613 H   0  0  0  0  0  0
  -25.1289  -36.1943   25.0816 H   0  0  0  0  0  0
  -20.9990  -28.3339   24.1362 H   0  0  0  0  0  0
  -20.5707  -26.2347   23.3619 H   0  0  0  0  0  0
  -21.6660  -26.7478   22.1178 H   0  0  0  0  0  0
  -19.6928  -25.6305   21.1245 H   0  0  0  0  0  0
  -19.6701  -27.3202   20.6730 H   0  0  0  0  0  0
  -17.4221  -26.6701   21.4022 H   0  0  0  0  0  0
  -18.0348  -26.0102   22.9011 H   0  0  0  0  0  0
  -19.7939  -30.7309   24.2247 H   0  0  0  0  0  0
  -17.5013  -31.6269   24.5200 H   0  0  0  0  0  0
  -15.5358  -30.2990   23.7670 H   0  0  0  0  0  0
  -15.8690  -28.0853   22.7027 H   0  0  0  0  0  0
  -24.5882  -30.7096   25.7687 H   0  0  0  0  0  0
  -24.8850  -32.2903   26.4790 H   0  0  0  0  0  0
  -25.7943  -30.8909   27.0209 H   0  0  0  0  0  0
  -26.2962  -29.6733   24.1239 H   0  0  0  0  0  0
  -27.3997  -29.7290   25.4791 H   0  0  0  0  0  0
  -27.8853  -30.4273   23.9525 H   0  0  0  0  0  0
  -27.2716  -33.3615   26.2083 H   0  0  0  0  0  0
  -28.3880  -32.6852   25.0317 H   0  0  0  0  0  0
  -28.0747  -31.8417   26.5395 H   0  0  0  0  0  0
  -28.2602  -38.0107   24.7504 H   0  0  0  0  0  0
  -28.1073  -36.2636   24.6288 H   0  0  0  0  0  0
  -27.2292  -37.1466   25.8863 H   0  0  0  0  0  0
  -20.9415  -29.8794   21.6811 H   0  0  0  0  0  0
  -26.0185  -38.2871   24.1377 H   0  0  0  0  0  0
  -31.7413  -19.4910   18.7613 H   0  0  0  0  0  0
  -31.6111  -17.0689   19.1346 H   0  0  0  0  0  0
  -28.3263  -17.6899   21.8623 H   0  0  0  0  0  0
  -31.8355  -14.9686   15.0075 H   0  0  0  0  0  0
  -30.6206  -14.9760   16.3931 H   0  0  0  0  0  0
  -26.7930  -21.5257   17.4950 H   0  0  0  0  0  0
  -31.4352  -17.3216   14.6097 H   0  0  0  0  0  0
  -29.6350  -21.5402   16.7736 H   0  0  0  0  0  0
  -29.2947  -17.0192   16.8720 H   0  0  0  0  0  0
  -27.9936  -19.0357   17.3273 H   0  0  0  0  0  0
  -30.4519  -19.4596   15.4635 H   0  0  0  0  0  0
  -26.1503  -22.2419   20.3894 H   0  0  0  0  0  0
  -26.0048  -23.2498   18.9687 H   0  0  0  0  0  0
  -27.4313  -23.9787   21.5677 H   0  0  0  0  0  0
  -26.1679  -24.8032   20.7511 H   0  0  0  0  0  0
  -30.0237  -24.2571   20.7777 H   0  0  0  0  0  0
  -30.1001  -24.2357   19.0337 H   0  0  0  0  0  0
  -27.8914  -25.0209   18.7491 H   0  0  0  0  0  0
  -30.7714  -21.7219   18.8794 H   0  0  0  0  0  0
  -31.0011  -21.9086   20.5868 H   0  0  0  0  0  0
  -28.9562  -15.4221   21.2074 H   0  0  0  0  0  0
  -28.8093  -22.3820   20.8590 H   0  0  0  0  0  0
  1 25  1  0  0  0
  1 30  2  0  0  0
  1 90  1  0  0  0
  2  3  1  0  0  0
  2 25  1  0  0  0
  2 93  1  0  0  0
  2 94  1  0  0  0
  3  4  1  0  0  0
  3 95  1  0  0  0
  3 96  1  0  0  0
  4  5  1  0  0  0
  4 97  1  0  0  0
  4 98  1  0  0  0
  5  6  1  0  0  0
  5 26  1  0  0  0
  5 99  1  0  0  0
  6 25  1  0  0  0
  6100  1  0  0  0
  6101  1  0  0  0
  7  8  2  0  0  0
  7 26  1  0  0  0
  7 29  1  0  0  0
  8  9  1  0  0  0
  8 22  1  0  0  0
  9 10  1  0  0  0
  9 27  2  0  0  0
 10 11  2  0  0  0
 10 15  1  0  0  0
 11 12  1  0  0  0
 11102  1  0  0  0
 12 13  2  0  0  0
 12103  1  0  0  0
 13 14  1  0  0  0
 13 31  1  0  0  0
 14 15  2  0  0  0
 14104  1  0  0  0
 15105  1  0  0  0
 16 17  2  0  0  0
 16 21  1  0  0  0
 16 31  1  0  0  0
 17 18  1  0  0  0
 17106  1  0  0  0
 18 19  2  0  0  0
 18107  1  0  0  0
 19 20  1  0  0  0
 19 24  1  0  0  0
 20 21  2  0  0  0
 20108  1  0  0  0
 21 23  1  0  0  0
 22 28  1  0  0  0
 22 32  2  0  0  0
 26 27  1  0  0  0
 28109  1  0  0  0
 28110  1  0  0  0
 29111  1  0  0  0
 29112  1  0  0  0
 33 34  1  0  0  0
 33 66  1  0  0  0
 33 70  2  0  0  0
 34 36  1  0  0  0
 34 59  1  0  0  0
 34113  1  0  0  0
 35 44  2  0  0  0
 35 45  1  0  0  0
 35 68  1  0  0  0
 36 56  1  0  0  0
 36114  1  0  0  0
 37 39  1  0  0  0
 37 47  1  0  0  0
 37 66  1  0  0  0
 37115  1  0  0  0
 38 43  2  0  0  0
 38 46  1  0  0  0
 38 47  1  0  0  0
 39 64  1  0  0  0
 39 67  2  0  0  0
 40 52  1  0  0  0
 40 53  2  0  0  0
 40 58  1  0  0  0
 41116  1  0  0  0
 41117  1  0  0  0
 41118  1  0  0  0
 41 48  1  0  0  0
 42 43  1  0  0  0
 42 66  1  0  0  0
 42119  1  0  0  0
 42120  1  0  0  0
 43 44  1  0  0  0
 44121  1  0  0  0
 45 46  2  0  0  0
 45122  1  0  0  0
 46123  1  0  0  0
 47124  1  0  0  0
 47125  1  0  0  0
 48 56  1  0  0  0
 48 65  1  0  0  0
 48126  1  0  0  0
 49 50  1  0  0  0
 49 53  1  0  0  0
 49 64  1  0  0  0
 49127  1  0  0  0
 50 51  1  0  0  0
 50128  1  0  0  0
 50129  1  0  0  0
 51 52  1  0  0  0
 51130  1  0  0  0
 51131  1  0  0  0
 52132  1  0  0  0
 52133  1  0  0  0
 53 54  1  0  0  0
 54 55  2  0  0  0
 54134  1  0  0  0
 55 57  1  0  0  0
 55135  1  0  0  0
 56 69  2  0  0  0
 57 58  2  0  0  0
 57136  1  0  0  0
 58137  1  0  0  0
 59 60  1  0  0  0
 59 61  1  0  0  0
 59 62  1  0  0  0
 60138  1  0  0  0
 60139  1  0  0  0
 60140  1  0  0  0
 61141  1  0  0  0
 61142  1  0  0  0
 61143  1  0  0  0
 62144  1  0  0  0
 62145  1  0  0  0
 62146  1  0  0  0
 63 65  1  0  0  0
 63147  1  0  0  0
 63148  1  0  0  0
 63149  1  0  0  0
 64150  1  0  0  0
 65151  1  0  0  0
 68 88  1  0  0  0
 71 72  2  0  0  0
 71 74  1  0  0  0
 71152  1  0  0  0
 72 75  1  0  0  0
 72153  1  0  0  0
 73 75  2  0  0  0
 73 76  1  0  0  0
 73154  1  0  0  0
 74 76  2  0  0  0
 74 89  1  0  0  0
 75 90  1  0  0  0
 76 92  1  0  0  0
 77 79  2  0  0  0
 77 85  1  0  0  0
 77 91  1  0  0  0
 78 80  2  0  0  0
 78155  1  0  0  0
 78156  1  0  0  0
 79 81  1  0  0  0
 79157  1  0  0  0
 80 82  1  0  0  0
 80158  1  0  0  0
 81 83  2  0  0  0
 81159  1  0  0  0
 82 84  2  0  0  0
 82160  1  0  0  0
 83 84  1  0  0  0
 83161  1  0  0  0
 84162  1  0  0  0
 85 86  1  0  0  0
 85163  1  0  0  0
 85164  1  0  0  0
 86 88  1  0  0  0
 86165  1  0  0  0
 86166  1  0  0  0
 87 88  1  0  0  0
 87 91  1  0  0  0
 87167  1  0  0  0
 87168  1  0  0  0
 88169  1  0  0  0
 89170  1  0  0  0
 89171  1  0  0  0
 89 91  1  0  0  0
 90172  1  0  0  0
 91173  1  0  0  0
M  CHG  1  91   1
M  ISO  4   1 100  68 101  88 101  90 100
M  END
> <chiral flag>
0

> <version>
0

> <s_m_source_file>
/data/baiqing/PycharmProjects/Reinvent-master-3.2/result/LINK_invent/BTK/process_docking_weight1_custom_product_contain_oxygen_bond_distance_aromatic_linkinvent_7_9_3/rearranged_h_0032.sdf

> <i_m_source_file_index>
21

> <r_mmod_Potential_Energy-OPLS-2005>
22.0429039001465

> <r_mmod_Stretch_Energy-OPLS-2005>
86.4355392456055

> <r_mmod_Bend_Energy-OPLS-2005>
172.876831054688

> <r_mmod_Torsional_Energy-OPLS-2005>
256.050109863281

> <r_mmod_Improper_Torsional_Energy-OPLS-2005>
4.283127784729

> <r_mmod_Van_der_Waal_Energy-OPLS-2005>
148.60400390625

> <r_mmod_Electrostatic_Energy-OPLS-2005>
-289.770812988281

> <r_mmod_Solvation_Energy-OPLS-2005>
-407.413208007812

> <b_mmod_Minimization_Converged-OPLS-2005>
0

> <r_mmod_RMS_Derivative-OPLS-2005>
6.48020505905151

$$$$
21
                    3D
 Structure written by MMmdl.
167176  0  0  1  0            999 V2000
  -30.5876  -14.7741   20.4250 C   0  0  0  0  0  0
  -30.4316  -12.4501   19.4904 C   0  0  0  0  0  0
  -29.5081  -12.3849   18.2515 C   0  0  0  0  0  0
  -28.0238  -12.2919   18.6556 C   0  0  0  0  0  0
  -27.6327  -13.2275   19.8337 C   0  0  2  0  0  0
  -28.6734  -13.1938   20.9714 C   0  0  0  0  0  0
  -25.2488  -13.8198   20.5715 C   0  0  0  0  0  0
  -24.1770  -13.0450   20.9221 C   0  0  0  0  0  0
  -24.6357  -11.6932   20.8760 C   0  0  0  0  0  0
  -23.9050  -10.4311   21.0429 C   0  0  0  0  0  0
  -24.3616   -9.4229   21.9192 C   0  0  0  0  0  0
  -23.6303   -8.2252   22.0742 C   0  0  0  0  0  0
  -22.4288   -8.0289   21.3534 C   0  0  0  0  0  0
  -21.9926   -9.0267   20.4642 C   0  0  0  0  0  0
  -22.7241  -10.2147   20.3053 C   0  0  0  0  0  0
  -21.6848   -6.0748   22.5276 C   0  0  0  0  0  0
  -21.4018   -6.5642   23.8222 C   0  0  0  0  0  0
  -21.3669   -5.6779   24.9174 C   0  0  0  0  0  0
  -21.6035   -4.3045   24.7209 C   0  0  0  0  0  0
  -21.8825   -3.8144   23.4332 C   0  0  0  0  0  0
  -21.9204   -4.6973   22.3391 C   0  0  0  0  0  0
  -22.7812  -13.5260   21.1867 C   0  0  0  0  0  0
  -22.1658   -4.2156   21.0971 F   0  0  0  0  0  0
  -21.5647   -3.4527   25.7733 F   0  0  0  0  0  0
  -29.9570  -13.5482   20.3681 N   0  0  0  0  0  0
  -26.2886  -12.9397   20.3252 N   0  0  0  0  0  0
  -25.9281  -11.6554   20.5787 N   0  0  0  0  0  0
  -22.0467  -12.8235   22.0431 N   0  0  0  0  0  0
  -25.4218  -15.1914   20.4185 N   0  0  0  0  0  0
  -31.8069  -14.8107   20.2175 O   0  0  0  0  0  0
  -21.6636   -6.8886   21.4241 O   0  0  0  0  0  0
  -22.3513  -14.5560   20.6716 O   0  0  0  0  0  0
  -24.6318  -31.8566   23.1975 C   0  0  0  0  0  0
  -25.9151  -32.4759   23.8322 C   0  0  1  0  0  0
  -27.2085  -27.2563   20.1621 C   0  0  0  0  0  0
  -25.5959  -33.8562   24.2264 N   0  0  0  0  0  0
  -23.4274  -30.4786   21.5399 C   0  0  2  0  0  0
  -24.8729  -28.9151   20.1185 C   0  0  0  0  0  0
  -22.7503  -29.4630   22.4934 C   0  0  0  0  0  0
  -18.0294  -28.1377   22.8495 C   0  0  0  0  0  0
  -24.1475  -36.7237   23.2641 C   0  0  0  0  0  0
  -25.9715  -30.7712   21.3745 C   0  0  0  0  0  0
  -26.0433  -29.3891   20.7262 C   0  0  0  0  0  0
  -27.2184  -28.5730   20.7343 C   0  0  0  0  0  0
  -26.0231  -26.8465   19.5247 C   0  0  0  0  0  0
  -24.8670  -27.6515   19.5048 C   0  0  0  0  0  0
  -23.6453  -29.8050   20.1583 C   0  0  0  0  0  0
  -25.4100  -36.3056   24.0340 C   0  0  1  0  0  0
  -20.5901  -28.3692   23.1268 C   0  0  2  0  0  0
  -20.6774  -26.9412   22.5397 C   0  0  0  0  0  0
  -19.5744  -26.6395   21.5203 C   0  0  0  0  0  0
  -18.1929  -26.7930   22.1613 C   0  0  0  0  0  0
  -19.1551  -28.8848   23.2881 C   0  0  0  0  0  0
  -18.9473  -30.1456   23.8898 C   0  0  0  0  0  0
  -17.6467  -30.6572   24.0575 C   0  0  0  0  0  0
  -25.9060  -34.9441   23.5085 C   0  0  0  0  0  0
  -16.5356  -29.9073   23.6347 C   0  0  0  0  0  0
  -16.7280  -28.6492   23.0364 C   0  0  0  0  0  0
  -26.4499  -31.6593   25.0714 C   0  0  0  0  0  0
  -25.3730  -31.3726   26.1439 C   0  0  0  0  0  0
  -27.0366  -30.3025   24.6196 C   0  0  0  0  0  0
  -27.6072  -32.4309   25.7470 C   0  0  0  0  0  0
  -27.5573  -37.1756   24.8456 C   0  0  0  0  0  0
  -21.4218  -29.3050   22.3668 N   0  0  0  0  0  0
  -26.4252  -37.3778   23.9449 N   0  0  0  0  0  0
  -24.6958  -31.0538   22.0926 N   0  0  0  0  0  0
  -23.4222  -28.8203   23.3044 O   0  0  0  0  0  0
  -28.2885  -26.3540   20.1530 O   0  0  0  0  0  0
  -26.5621  -34.8929   22.4649 O   0  0  0  0  0  0
  -23.5466  -32.1367   23.7288 O   0  0  0  0  0  0
  -29.8645  -19.7894   22.3497 C   0  0  0  0  0  0
  -30.4939  -18.6415   22.8589 C   0  0  0  0  0  0
  -29.1069  -19.7585   21.1661 C   0  0  0  0  0  0
  -28.9413  -18.4209   20.5924 C   0  0  0  0  0  0
  -29.7243  -17.2217   20.9924 C   0  0  0  0  0  0
  -30.4523  -17.3903   22.2126 C   0  0  0  0  0  0
  -28.0121  -23.6775   20.4803 C   0  0  0  0  0  0
  -30.6423  -24.2708   21.2730 C   0  0  0  0  0  0
  -29.5810  -25.2016   21.8742 C   0  0  0  0  0  0
  -30.1520  -22.8121   21.3761 C   0  0  0  0  0  0
  -28.2706  -25.1629   21.0701 C   0  0  1  0  0  0
  -27.7595  -18.2857   19.6395 C   0  0  0  0  0  0
  -30.7765  -17.1943   18.1877 C   0  0  0  0  0  0
  -28.3716  -21.0985   20.6217 C   0  0  0  0  0  0
  -29.7570  -16.1559   18.7103 C   0  0  0  0  0  0
  -28.7960  -22.5732   20.8471 N   0  0  0  0  0  0
  -29.8253  -15.9376   20.1818 N   0  0  0  0  0  0
  -27.0235  -23.5177   19.7588 O   0  0  0  0  0  0
  -31.2933  -16.1283   23.0522 Cl  0  0  0  0  0  0
  -31.4666  -12.5885   19.1749 H   0  0  0  0  0  0
  -30.4138  -11.5021   20.0310 H   0  0  0  0  0  0
  -29.7715  -11.5070   17.6609 H   0  0  0  0  0  0
  -29.6665  -13.2300   17.5888 H   0  0  0  0  0  0
  -27.8401  -11.2550   18.9390 H   0  0  0  0  0  0
  -27.3842  -12.4759   17.7919 H   0  0  0  0  0  0
  -27.6193  -14.2385   19.4238 H   0  0  0  0  0  0
  -28.7186  -12.2028   21.4253 H   0  0  0  0  0  0
  -28.4094  -13.8938   21.7659 H   0  0  0  0  0  0
  -25.2768   -9.5720   22.4750 H   0  0  0  0  0  0
  -24.0027   -7.4645   22.7453 H   0  0  0  0  0  0
  -21.0862   -8.8791   19.8931 H   0  0  0  0  0  0
  -22.3724  -10.9686   19.6140 H   0  0  0  0  0  0
  -21.1981   -7.6140   23.9742 H   0  0  0  0  0  0
  -21.1487   -6.0489   25.9085 H   0  0  0  0  0  0
  -22.0596   -2.7604   23.2817 H   0  0  0  0  0  0
  -22.4079  -11.9850   22.4725 H   0  0  0  0  0  0
  -21.1094  -13.1252   22.2654 H   0  0  0  0  0  0
  -24.6642  -15.8523   20.5480 H   0  0  0  0  0  0
  -26.2915  -15.6307   20.1475 H   0  0  0  0  0  0
  -26.7236  -32.5406   23.1080 H   0  0  0  0  0  0
  -25.0159  -33.9688   25.0445 H   0  0  0  0  0  0
  -22.7254  -31.3014   21.3888 H   0  0  0  0  0  0
  -23.3785  -35.9520   23.3249 H   0  0  0  0  0  0
  -24.3595  -36.8898   22.2067 H   0  0  0  0  0  0
  -23.7160  -37.6398   23.6682 H   0  0  0  0  0  0
  -26.1085  -31.5304   20.6033 H   0  0  0  0  0  0
  -26.8501  -30.8224   22.0048 H   0  0  0  0  0  0
  -28.1161  -28.9360   21.2150 H   0  0  0  0  0  0
  -25.9850  -25.8744   19.0534 H   0  0  0  0  0  0
  -23.9703  -27.2822   19.0250 H   0  0  0  0  0  0
  -23.7752  -30.5748   19.3951 H   0  0  0  0  0  0
  -22.7643  -29.2367   19.8543 H   0  0  0  0  0  0
  -25.1275  -36.1868   25.0831 H   0  0  0  0  0  0
  -20.9999  -28.3242   24.1384 H   0  0  0  0  0  0
  -20.5658  -26.2310   23.3606 H   0  0  0  0  0  0
  -21.6639  -26.7429   22.1187 H   0  0  0  0  0  0
  -19.6906  -25.6323   21.1198 H   0  0  0  0  0  0
  -19.6655  -27.3246   20.6767 H   0  0  0  0  0  0
  -17.4204  -26.6735   21.3996 H   0  0  0  0  0  0
  -18.0286  -26.0046   22.8973 H   0  0  0  0  0  0
  -19.7955  -30.7281   24.2254 H   0  0  0  0  0  0
  -17.5018  -31.6255   24.5178 H   0  0  0  0  0  0
  -15.5352  -30.2967   23.7671 H   0  0  0  0  0  0
  -15.8687  -28.0808   22.7072 H   0  0  0  0  0  0
  -24.5943  -30.7022   25.7765 H   0  0  0  0  0  0
  -24.8870  -32.2883   26.4817 H   0  0  0  0  0  0
  -25.8053  -30.8947   27.0245 H   0  0  0  0  0  0
  -26.2957  -29.6748   24.1232 H   0  0  0  0  0  0
  -27.4097  -29.7292   25.4698 H   0  0  0  0  0  0
  -27.8801  -30.4332   23.9416 H   0  0  0  0  0  0
  -27.2753  -33.3679   26.1944 H   0  0  0  0  0  0
  -28.3929  -32.6741   25.0302 H   0  0  0  0  0  0
  -28.0691  -31.8489   26.5452 H   0  0  0  0  0  0
  -28.2524  -38.0126   24.7625 H   0  0  0  0  0  0
  -28.1135  -36.2662   24.6105 H   0  0  0  0  0  0
  -27.2328  -37.1187   25.8868 H   0  0  0  0  0  0
  -20.9421  -29.8766   21.6857 H   0  0  0  0  0  0
  -26.0109  -38.2827   24.1541 H   0  0  0  0  0  0
  -29.9234  -20.6746   22.9528 H   0  0  0  0  0  0
  -31.0413  -18.7288   23.7860 H   0  0  0  0  0  0
  -31.5865  -24.3812   21.8093 H   0  0  0  0  0  0
  -30.8469  -24.5434   20.2355 H   0  0  0  0  0  0
  -29.9532  -26.2237   21.9459 H   0  0  0  0  0  0
  -29.3798  -24.8868   22.9008 H   0  0  0  0  0  0
  -30.1525  -22.5868   22.4383 H   0  0  0  0  0  0
  -30.8623  -22.1417   20.8873 H   0  0  0  0  0  0
  -27.4595  -25.3390   21.7800 H   0  0  0  0  0  0
  -26.9458  -18.9544   19.9219 H   0  0  0  0  0  0
  -27.3213  -17.2910   19.7025 H   0  0  0  0  0  0
  -28.0307  -18.5128   18.6094 H   0  0  0  0  0  0
  -30.5174  -17.5087   17.1777 H   0  0  0  0  0  0
  -31.7810  -16.7703   18.1524 H   0  0  0  0  0  0
  -30.8334  -18.1014   18.7850 H   0  0  0  0  0  0
  -27.3521  -21.0325   21.0049 H   0  0  0  0  0  0
  -28.2723  -20.9879   19.5418 H   0  0  0  0  0  0
  -29.9346  -15.2456   18.1419 H   0  0  0  0  0  0
  -28.7534  -16.4062   18.3889 H   0  0  0  0  0  0
  1 25  1  0  0  0
  1 30  2  0  0  0
  1 87  1  0  0  0
  2  3  1  0  0  0
  2 25  1  0  0  0
  2 90  1  0  0  0
  2 91  1  0  0  0
  3  4  1  0  0  0
  3 92  1  0  0  0
  3 93  1  0  0  0
  4  5  1  0  0  0
  4 94  1  0  0  0
  4 95  1  0  0  0
  5  6  1  0  0  0
  5 26  1  0  0  0
  5 96  1  0  0  0
  6 25  1  0  0  0
  6 97  1  0  0  0
  6 98  1  0  0  0
  7  8  2  0  0  0
  7 26  1  0  0  0
  7 29  1  0  0  0
  8  9  1  0  0  0
  8 22  1  0  0  0
  9 10  1  0  0  0
  9 27  2  0  0  0
 10 11  2  0  0  0
 10 15  1  0  0  0
 11 12  1  0  0  0
 11 99  1  0  0  0
 12 13  2  0  0  0
 12100  1  0  0  0
 13 14  1  0  0  0
 13 31  1  0  0  0
 14 15  2  0  0  0
 14101  1  0  0  0
 15102  1  0  0  0
 16 17  2  0  0  0
 16 21  1  0  0  0
 16 31  1  0  0  0
 17 18  1  0  0  0
 17103  1  0  0  0
 18 19  2  0  0  0
 18104  1  0  0  0
 19 20  1  0  0  0
 19 24  1  0  0  0
 20 21  2  0  0  0
 20105  1  0  0  0
 21 23  1  0  0  0
 22 28  1  0  0  0
 22 32  2  0  0  0
 26 27  1  0  0  0
 28106  1  0  0  0
 28107  1  0  0  0
 29108  1  0  0  0
 29109  1  0  0  0
 33 34  1  0  0  0
 33 66  1  0  0  0
 33 70  2  0  0  0
 34 36  1  0  0  0
 34 59  1  0  0  0
 34110  1  0  0  0
 35 44  2  0  0  0
 35 45  1  0  0  0
 35 68  1  0  0  0
 36 56  1  0  0  0
 36111  1  0  0  0
 37 39  1  0  0  0
 37 47  1  0  0  0
 37 66  1  0  0  0
 37112  1  0  0  0
 38 43  2  0  0  0
 38 46  1  0  0  0
 38 47  1  0  0  0
 39 64  1  0  0  0
 39 67  2  0  0  0
 40 52  1  0  0  0
 40 53  2  0  0  0
 40 58  1  0  0  0
 41113  1  0  0  0
 41114  1  0  0  0
 41115  1  0  0  0
 41 48  1  0  0  0
 42 43  1  0  0  0
 42 66  1  0  0  0
 42116  1  0  0  0
 42117  1  0  0  0
 43 44  1  0  0  0
 44118  1  0  0  0
 45 46  2  0  0  0
 45119  1  0  0  0
 46120  1  0  0  0
 47121  1  0  0  0
 47122  1  0  0  0
 48 56  1  0  0  0
 48 65  1  0  0  0
 48123  1  0  0  0
 49 50  1  0  0  0
 49 53  1  0  0  0
 49 64  1  0  0  0
 49124  1  0  0  0
 50 51  1  0  0  0
 50125  1  0  0  0
 50126  1  0  0  0
 51 52  1  0  0  0
 51127  1  0  0  0
 51128  1  0  0  0
 52129  1  0  0  0
 52130  1  0  0  0
 53 54  1  0  0  0
 54 55  2  0  0  0
 54131  1  0  0  0
 55 57  1  0  0  0
 55132  1  0  0  0
 56 69  2  0  0  0
 57 58  2  0  0  0
 57133  1  0  0  0
 58134  1  0  0  0
 59 60  1  0  0  0
 59 61  1  0  0  0
 59 62  1  0  0  0
 60135  1  0  0  0
 60136  1  0  0  0
 60137  1  0  0  0
 61138  1  0  0  0
 61139  1  0  0  0
 61140  1  0  0  0
 62141  1  0  0  0
 62142  1  0  0  0
 62143  1  0  0  0
 63 65  1  0  0  0
 63144  1  0  0  0
 63145  1  0  0  0
 63146  1  0  0  0
 64147  1  0  0  0
 65148  1  0  0  0
 68 81  1  0  0  0
 71 72  2  0  0  0
 71 73  1  0  0  0
 71149  1  0  0  0
 72 76  1  0  0  0
 72150  1  0  0  0
 73 74  2  0  0  0
 73 84  1  0  0  0
 74 75  1  0  0  0
 74 82  1  0  0  0
 75 76  2  0  0  0
 75 87  1  0  0  0
 76 89  1  0  0  0
 77 81  1  0  0  0
 77 86  1  0  0  0
 77 88  2  0  0  0
 78 79  1  0  0  0
 78 80  1  0  0  0
 78151  1  0  0  0
 78152  1  0  0  0
 79 81  1  0  0  0
 79153  1  0  0  0
 79154  1  0  0  0
 80 86  1  0  0  0
 80155  1  0  0  0
 80156  1  0  0  0
 81157  1  0  0  0
 82158  1  0  0  0
 82159  1  0  0  0
 82160  1  0  0  0
 83 85  1  0  0  0
 83161  1  0  0  0
 83162  1  0  0  0
 83163  1  0  0  0
 84 86  1  0  0  0
 84164  1  0  0  0
 84165  1  0  0  0
 85 87  1  0  0  0
 85166  1  0  0  0
 85167  1  0  0  0
M  ISO  4   1 100  68 101  81 101  87 100
M  END
> <chiral flag>
0

> <version>
0

> <s_m_source_file>
/data/baiqing/PycharmProjects/Reinvent-master-3.2/result/LINK_invent/BTK/process_docking_weight1_custom_product_contain_oxygen_bond_distance_aromatic_linkinvent_7_9_3/rearranged_h_0032.sdf

> <i_m_source_file_index>
22

> <r_mmod_Potential_Energy-OPLS-2005>
560.237609863281

> <r_mmod_Stretch_Energy-OPLS-2005>
169.469589233398

> <r_mmod_Bend_Energy-OPLS-2005>
207.11442565918

> <r_mmod_Torsional_Energy-OPLS-2005>
369.477416992188

> <r_mmod_Improper_Torsional_Energy-OPLS-2005>
21.7612018585205

> <r_mmod_Van_der_Waal_Energy-OPLS-2005>
171.847366333008

> <r_mmod_Electrostatic_Energy-OPLS-2005>
-270.957397460938

> <r_mmod_Solvation_Energy-OPLS-2005>
-208.255279541016

> <b_mmod_Minimization_Converged-OPLS-2005>
0

> <r_mmod_RMS_Derivative-OPLS-2005>
3.75423121452332

$$$$
22
                    3D
 Structure written by MMmdl.
161170  0  0  1  0            999 V2000
  -30.6332  -14.7291   20.4687 C   0  0  0  0  0  0
  -30.4345  -12.4470   19.4849 C   0  0  0  0  0  0
  -29.5134  -12.5080   18.2465 C   0  0  0  0  0  0
  -28.0402  -12.3348   18.6575 C   0  0  0  0  0  0
  -27.6480  -13.2338   19.8592 C   0  0  2  0  0  0
  -28.6895  -13.1646   20.9981 C   0  0  0  0  0  0
  -25.2533  -13.8210   20.5701 C   0  0  0  0  0  0
  -24.1817  -13.0452   20.9214 C   0  0  0  0  0  0
  -24.6417  -11.6931   20.8756 C   0  0  0  0  0  0
  -23.9098  -10.4300   21.0416 C   0  0  0  0  0  0
  -24.3640   -9.4209   21.9191 C   0  0  0  0  0  0
  -23.6303   -8.2252   22.0757 C   0  0  0  0  0  0
  -22.4286   -8.0295   21.3547 C   0  0  0  0  0  0
  -21.9934   -9.0273   20.4649 C   0  0  0  0  0  0
  -22.7272  -10.2146   20.3061 C   0  0  0  0  0  0
  -21.6847   -6.0745   22.5282 C   0  0  0  0  0  0
  -21.4012   -6.5649   23.8217 C   0  0  0  0  0  0
  -21.3660   -5.6796   24.9173 C   0  0  0  0  0  0
  -21.6041   -4.3061   24.7220 C   0  0  0  0  0  0
  -21.8819   -3.8158   23.4341 C   0  0  0  0  0  0
  -21.9196   -4.6974   22.3398 C   0  0  0  0  0  0
  -22.7839  -13.5232   21.1862 C   0  0  0  0  0  0
  -22.1660   -4.2164   21.0971 F   0  0  0  0  0  0
  -21.5632   -3.4541   25.7734 F   0  0  0  0  0  0
  -29.9976  -13.5082   20.4243 N   0  0  0  0  0  0
  -26.2970  -12.9428   20.3316 N   0  0  0  0  0  0
  -25.9355  -11.6574   20.5780 N   0  0  0  0  0  0
  -22.0486  -12.8217   22.0406 N   0  0  0  0  0  0
  -25.4251  -15.1927   20.4118 N   0  0  0  0  0  0
  -31.8164  -14.8048   20.1206 O   0  0  0  0  0  0
  -21.6643   -6.8893   21.4245 O   0  0  0  0  0  0
  -22.3527  -14.5534   20.6707 O   0  0  0  0  0  0
  -24.6335  -31.8529   23.2006 C   0  0  0  0  0  0
  -25.9145  -32.4737   23.8365 C   0  0  1  0  0  0
  -27.2250  -27.2494   20.1195 C   0  0  0  0  0  0
  -25.5927  -33.8546   24.2269 N   0  0  0  0  0  0
  -23.4342  -30.4748   21.5437 C   0  0  2  0  0  0
  -24.8836  -28.9269   20.1108 C   0  0  0  0  0  0
  -22.7532  -29.4569   22.4919 C   0  0  0  0  0  0
  -18.0294  -28.1372   22.8483 C   0  0  0  0  0  0
  -24.1483  -36.7275   23.2640 C   0  0  0  0  0  0
  -25.9839  -30.7587   21.3916 C   0  0  0  0  0  0
  -26.0548  -29.3834   20.7268 C   0  0  0  0  0  0
  -27.2252  -28.5533   20.7275 C   0  0  0  0  0  0
  -26.0444  -26.8969   19.4320 C   0  0  0  0  0  0
  -24.8831  -27.6893   19.4561 C   0  0  0  0  0  0
  -23.6538  -29.8107   20.1603 C   0  0  0  0  0  0
  -25.4106  -36.3053   24.0330 C   0  0  1  0  0  0
  -20.5902  -28.3682   23.1258 C   0  0  2  0  0  0
  -20.6781  -26.9394   22.5405 C   0  0  0  0  0  0
  -19.5747  -26.6360   21.5213 C   0  0  0  0  0  0
  -18.1924  -26.7917   22.1619 C   0  0  0  0  0  0
  -19.1554  -28.8844   23.2853 C   0  0  0  0  0  0
  -18.9470  -30.1451   23.8866 C   0  0  0  0  0  0
  -17.6465  -30.6579   24.0553 C   0  0  0  0  0  0
  -25.9053  -34.9425   23.5105 C   0  0  0  0  0  0
  -16.5356  -29.9069   23.6343 C   0  0  0  0  0  0
  -16.7284  -28.6488   23.0371 C   0  0  0  0  0  0
  -26.4518  -31.6582   25.0778 C   0  0  0  0  0  0
  -25.3723  -31.3751   26.1489 C   0  0  0  0  0  0
  -27.0405  -30.2979   24.6349 C   0  0  0  0  0  0
  -27.6060  -32.4374   25.7538 C   0  0  0  0  0  0
  -27.5584  -37.1762   24.8454 C   0  0  0  0  0  0
  -21.4239  -29.3022   22.3663 N   0  0  0  0  0  0
  -26.4285  -37.3753   23.9411 N   0  0  0  0  0  0
  -24.7022  -31.0485   22.1007 N   0  0  0  0  0  0
  -23.4213  -28.8102   23.3023 O   0  0  0  0  0  0
  -28.3120  -26.3409   20.2272 O   0  0  0  0  0  0
  -26.5646  -34.8904   22.4691 O   0  0  0  0  0  0
  -23.5476  -32.1376   23.7267 O   0  0  0  0  0  0
  -30.4763  -19.9270   19.1844 C   0  0  0  0  0  0
  -30.8040  -17.4964   19.0879 C   0  0  0  0  0  0
  -31.0053  -18.7848   18.5517 C   0  0  0  0  0  0
  -29.7583  -19.8326   20.3907 C   0  0  0  0  0  0
  -29.5612  -18.4837   20.9336 C   0  0  0  0  0  0
  -30.0907  -17.2809   20.2905 C   0  0  0  0  0  0
  -27.4855  -22.5535   20.2198 C   0  0  0  0  0  0
  -27.0106  -24.0075   20.0460 C   0  0  0  0  0  0
  -29.3498  -23.8544   20.4335 C   0  0  0  0  0  0
  -28.2739  -24.8737   19.8257 C   0  0  2  0  0  0
  -31.8367  -18.9430   17.2943 C   0  0  0  0  0  0
  -28.7999  -18.3307   22.2418 C   0  0  0  0  0  0
  -29.4175  -21.2176   21.1124 C   0  0  0  0  0  0
  -28.8070  -22.4433   20.4209 N   0  0  0  0  0  0
  -29.8989  -15.8749   20.7557 N   0  0  0  0  0  0
  -26.6904  -21.6094   20.2275 O   0  0  0  0  0  0
  -31.4745  -12.5646   19.1762 H   0  0  0  0  0  0
  -30.3785  -11.4683   19.9638 H   0  0  0  0  0  0
  -29.7945  -11.7360   17.5289 H   0  0  0  0  0  0
  -29.6432  -13.4637   17.7356 H   0  0  0  0  0  0
  -27.8960  -11.2867   18.9185 H   0  0  0  0  0  0
  -27.3846  -12.5294   17.8088 H   0  0  0  0  0  0
  -27.6467  -14.2567   19.4834 H   0  0  0  0  0  0
  -28.7177  -12.1678   21.4411 H   0  0  0  0  0  0
  -28.4248  -13.8502   21.8052 H   0  0  0  0  0  0
  -25.2786   -9.5680   22.4767 H   0  0  0  0  0  0
  -24.0011   -7.4643   22.7478 H   0  0  0  0  0  0
  -21.0872   -8.8802   19.8950 H   0  0  0  0  0  0
  -22.3740  -10.9696   19.6170 H   0  0  0  0  0  0
  -21.1997   -7.6156   23.9722 H   0  0  0  0  0  0
  -21.1479   -6.0524   25.9075 H   0  0  0  0  0  0
  -22.0597   -2.7623   23.2834 H   0  0  0  0  0  0
  -22.4116  -11.9876   22.4795 H   0  0  0  0  0  0
  -21.1102  -13.1236   22.2614 H   0  0  0  0  0  0
  -24.6623  -15.8512   20.5278 H   0  0  0  0  0  0
  -26.2726  -15.6287   20.0720 H   0  0  0  0  0  0
  -26.7233  -32.5364   23.1129 H   0  0  0  0  0  0
  -25.0008  -33.9696   25.0368 H   0  0  0  0  0  0
  -22.7310  -31.2970   21.3946 H   0  0  0  0  0  0
  -23.3749  -35.9603   23.3283 H   0  0  0  0  0  0
  -24.3553  -36.8940   22.2058 H   0  0  0  0  0  0
  -23.7250  -37.6470   23.6700 H   0  0  0  0  0  0
  -26.1385  -31.5253   20.6316 H   0  0  0  0  0  0
  -26.8555  -30.7972   22.0339 H   0  0  0  0  0  0
  -28.1190  -28.8909   21.2339 H   0  0  0  0  0  0
  -25.9831  -25.9920   18.8592 H   0  0  0  0  0  0
  -23.9933  -27.3381   18.9519 H   0  0  0  0  0  0
  -23.7779  -30.5886   19.4058 H   0  0  0  0  0  0
  -22.7757  -29.2412   19.8536 H   0  0  0  0  0  0
  -25.1279  -36.1906   25.0825 H   0  0  0  0  0  0
  -20.9988  -28.3266   24.1382 H   0  0  0  0  0  0
  -20.5671  -26.2289   23.3613 H   0  0  0  0  0  0
  -21.6639  -26.7413   22.1184 H   0  0  0  0  0  0
  -19.6898  -25.6263   21.1255 H   0  0  0  0  0  0
  -19.6682  -27.3169   20.6738 H   0  0  0  0  0  0
  -17.4195  -26.6685   21.4019 H   0  0  0  0  0  0
  -18.0284  -26.0059   22.9005 H   0  0  0  0  0  0
  -19.7955  -30.7270   24.2214 H   0  0  0  0  0  0
  -17.5028  -31.6258   24.5152 H   0  0  0  0  0  0
  -15.5352  -30.2949   23.7698 H   0  0  0  0  0  0
  -15.8683  -28.0795   22.7101 H   0  0  0  0  0  0
  -24.5903  -30.7109   25.7798 H   0  0  0  0  0  0
  -24.8894  -32.2916   26.4894 H   0  0  0  0  0  0
  -25.7998  -30.8934   27.0290 H   0  0  0  0  0  0
  -26.3031  -29.6654   24.1395 H   0  0  0  0  0  0
  -27.4056  -29.7330   25.4936 H   0  0  0  0  0  0
  -27.8923  -30.4210   23.9656 H   0  0  0  0  0  0
  -27.2675  -33.3711   26.2055 H   0  0  0  0  0  0
  -28.3889  -32.6886   25.0367 H   0  0  0  0  0  0
  -28.0719  -31.8549   26.5505 H   0  0  0  0  0  0
  -28.2550  -38.0099   24.7547 H   0  0  0  0  0  0
  -28.1128  -36.2629   24.6232 H   0  0  0  0  0  0
  -27.2294  -37.1373   25.8850 H   0  0  0  0  0  0
  -20.9440  -29.8785   21.6891 H   0  0  0  0  0  0
  -26.0162  -38.2819   24.1436 H   0  0  0  0  0  0
  -30.6706  -20.9056   18.7653 H   0  0  0  0  0  0
  -31.2178  -16.6587   18.5460 H   0  0  0  0  0  0
  -26.4650  -24.3175   20.9372 H   0  0  0  0  0  0
  -26.3336  -24.0150   19.1942 H   0  0  0  0  0  0
  -29.5709  -24.1273   21.4662 H   0  0  0  0  0  0
  -30.2862  -23.9078   19.8778 H   0  0  0  0  0  0
  -28.4384  -24.8871   18.7460 H   0  0  0  0  0  0
  -32.1369  -19.9808   17.1435 H   0  0  0  0  0  0
  -31.2753  -18.6208   16.4177 H   0  0  0  0  0  0
  -32.7460  -18.3438   17.3600 H   0  0  0  0  0  0
  -29.4209  -18.6419   23.0831 H   0  0  0  0  0  0
  -28.4840  -17.3034   22.4224 H   0  0  0  0  0  0
  -27.8957  -18.9398   22.2358 H   0  0  0  0  0  0
  -30.3704  -21.5594   21.5140 H   0  0  0  0  0  0
  -28.8160  -21.0156   21.9975 H   0  0  0  0  0  0
  -29.0257  -15.6955   21.2276 H   0  0  0  0  0  0
  1 25  1  0  0  0
  1 30  2  0  0  0
  1 85  1  0  0  0
  2  3  1  0  0  0
  2 25  1  0  0  0
  2 87  1  0  0  0
  2 88  1  0  0  0
  3  4  1  0  0  0
  3 89  1  0  0  0
  3 90  1  0  0  0
  4  5  1  0  0  0
  4 91  1  0  0  0
  4 92  1  0  0  0
  5  6  1  0  0  0
  5 26  1  0  0  0
  5 93  1  0  0  0
  6 25  1  0  0  0
  6 94  1  0  0  0
  6 95  1  0  0  0
  7  8  2  0  0  0
  7 26  1  0  0  0
  7 29  1  0  0  0
  8  9  1  0  0  0
  8 22  1  0  0  0
  9 10  1  0  0  0
  9 27  2  0  0  0
 10 11  2  0  0  0
 10 15  1  0  0  0
 11 12  1  0  0  0
 11 96  1  0  0  0
 12 13  2  0  0  0
 12 97  1  0  0  0
 13 14  1  0  0  0
 13 31  1  0  0  0
 14 15  2  0  0  0
 14 98  1  0  0  0
 15 99  1  0  0  0
 16 17  2  0  0  0
 16 21  1  0  0  0
 16 31  1  0  0  0
 17 18  1  0  0  0
 17100  1  0  0  0
 18 19  2  0  0  0
 18101  1  0  0  0
 19 20  1  0  0  0
 19 24  1  0  0  0
 20 21  2  0  0  0
 20102  1  0  0  0
 21 23  1  0  0  0
 22 28  1  0  0  0
 22 32  2  0  0  0
 26 27  1  0  0  0
 28103  1  0  0  0
 28104  1  0  0  0
 29105  1  0  0  0
 29106  1  0  0  0
 33 34  1  0  0  0
 33 66  1  0  0  0
 33 70  2  0  0  0
 34 36  1  0  0  0
 34 59  1  0  0  0
 34107  1  0  0  0
 35 44  2  0  0  0
 35 45  1  0  0  0
 35 68  1  0  0  0
 36 56  1  0  0  0
 36108  1  0  0  0
 37 39  1  0  0  0
 37 47  1  0  0  0
 37 66  1  0  0  0
 37109  1  0  0  0
 38 43  2  0  0  0
 38 46  1  0  0  0
 38 47  1  0  0  0
 39 64  1  0  0  0
 39 67  2  0  0  0
 40 52  1  0  0  0
 40 53  2  0  0  0
 40 58  1  0  0  0
 41110  1  0  0  0
 41111  1  0  0  0
 41112  1  0  0  0
 41 48  1  0  0  0
 42 43  1  0  0  0
 42 66  1  0  0  0
 42113  1  0  0  0
 42114  1  0  0  0
 43 44  1  0  0  0
 44115  1  0  0  0
 45 46  2  0  0  0
 45116  1  0  0  0
 46117  1  0  0  0
 47118  1  0  0  0
 47119  1  0  0  0
 48 56  1  0  0  0
 48 65  1  0  0  0
 48120  1  0  0  0
 49 50  1  0  0  0
 49 53  1  0  0  0
 49 64  1  0  0  0
 49121  1  0  0  0
 50 51  1  0  0  0
 50122  1  0  0  0
 50123  1  0  0  0
 51 52  1  0  0  0
 51124  1  0  0  0
 51125  1  0  0  0
 52126  1  0  0  0
 52127  1  0  0  0
 53 54  1  0  0  0
 54 55  2  0  0  0
 54128  1  0  0  0
 55 57  1  0  0  0
 55129  1  0  0  0
 56 69  2  0  0  0
 57 58  2  0  0  0
 57130  1  0  0  0
 58131  1  0  0  0
 59 60  1  0  0  0
 59 61  1  0  0  0
 59 62  1  0  0  0
 60132  1  0  0  0
 60133  1  0  0  0
 60134  1  0  0  0
 61135  1  0  0  0
 61136  1  0  0  0
 61137  1  0  0  0
 62138  1  0  0  0
 62139  1  0  0  0
 62140  1  0  0  0
 63 65  1  0  0  0
 63141  1  0  0  0
 63142  1  0  0  0
 63143  1  0  0  0
 64144  1  0  0  0
 65145  1  0  0  0
 68 80  1  0  0  0
 71 73  2  0  0  0
 71 74  1  0  0  0
 71146  1  0  0  0
 72 73  1  0  0  0
 72 76  2  0  0  0
 72147  1  0  0  0
 73 81  1  0  0  0
 74 75  2  0  0  0
 74 83  1  0  0  0
 75 76  1  0  0  0
 75 82  1  0  0  0
 76 85  1  0  0  0
 77 78  1  0  0  0
 77 84  1  0  0  0
 77 86  2  0  0  0
 78 80  1  0  0  0
 78148  1  0  0  0
 78149  1  0  0  0
 79 80  1  0  0  0
 79 84  1  0  0  0
 79150  1  0  0  0
 79151  1  0  0  0
 80152  1  0  0  0
 81153  1  0  0  0
 81154  1  0  0  0
 81155  1  0  0  0
 82156  1  0  0  0
 82157  1  0  0  0
 82158  1  0  0  0
 83 84  1  0  0  0
 83159  1  0  0  0
 83160  1  0  0  0
 85161  1  0  0  0
M  ISO  4   1 100  68 101  80 101  85 100
M  END
> <chiral flag>
0

> <version>
0

> <s_m_source_file>
/data/baiqing/PycharmProjects/Reinvent-master-3.2/result/LINK_invent/BTK/process_docking_weight1_custom_product_contain_oxygen_bond_distance_aromatic_linkinvent_7_9_3/rearranged_h_0032.sdf

> <i_m_source_file_index>
23

> <r_mmod_Potential_Energy-OPLS-2005>
179.909973144531

> <r_mmod_Stretch_Energy-OPLS-2005>
130.826950073242

> <r_mmod_Bend_Energy-OPLS-2005>
211.711654663086

> <r_mmod_Torsional_Energy-OPLS-2005>
250.94709777832

> <r_mmod_Improper_Torsional_Energy-OPLS-2005>
6.21210813522339

> <r_mmod_Van_der_Waal_Energy-OPLS-2005>
138.531585693359

> <r_mmod_Electrostatic_Energy-OPLS-2005>
-413.534881591797

> <r_mmod_Solvation_Energy-OPLS-2005>
-231.741897583008

> <b_mmod_Minimization_Converged-OPLS-2005>
0

> <r_mmod_RMS_Derivative-OPLS-2005>
2.69997358322144

$$$$
23
                    3D
 Structure written by MMmdl.
161170  0  0  1  0            999 V2000
  -30.6148  -14.6707   20.5064 C   0  0  0  0  0  0
  -30.4499  -12.4237   19.4350 C   0  0  0  0  0  0
  -29.4982  -12.4969   18.2181 C   0  0  0  0  0  0
  -28.0243  -12.3404   18.6410 C   0  0  0  0  0  0
  -27.6534  -13.2188   19.8624 C   0  0  2  0  0  0
  -28.7066  -13.0708   20.9842 C   0  0  0  0  0  0
  -25.2484  -13.8177   20.5537 C   0  0  0  0  0  0
  -24.1804  -13.0463   20.9189 C   0  0  0  0  0  0
  -24.6411  -11.6928   20.8817 C   0  0  0  0  0  0
  -23.9090  -10.4302   21.0457 C   0  0  0  0  0  0
  -24.3634   -9.4197   21.9216 C   0  0  0  0  0  0
  -23.6299   -8.2247   22.0768 C   0  0  0  0  0  0
  -22.4285   -8.0300   21.3556 C   0  0  0  0  0  0
  -21.9931   -9.0276   20.4667 C   0  0  0  0  0  0
  -22.7269  -10.2150   20.3083 C   0  0  0  0  0  0
  -21.6848   -6.0755   22.5284 C   0  0  0  0  0  0
  -21.4011   -6.5654   23.8215 C   0  0  0  0  0  0
  -21.3636   -5.6797   24.9169 C   0  0  0  0  0  0
  -21.6032   -4.3064   24.7212 C   0  0  0  0  0  0
  -21.8825   -3.8164   23.4341 C   0  0  0  0  0  0
  -21.9189   -4.6983   22.3401 C   0  0  0  0  0  0
  -22.7811  -13.5213   21.1875 C   0  0  0  0  0  0
  -22.1655   -4.2171   21.0980 F   0  0  0  0  0  0
  -21.5606   -3.4549   25.7724 F   0  0  0  0  0  0
  -30.0143  -13.4371   20.4188 N   0  0  0  0  0  0
  -26.2979  -12.9369   20.3344 N   0  0  0  0  0  0
  -25.9342  -11.6537   20.5898 N   0  0  0  0  0  0
  -22.0481  -12.8194   22.0445 N   0  0  0  0  0  0
  -25.4101  -15.1874   20.3518 N   0  0  0  0  0  0
  -31.7761  -14.8384   20.1252 O   0  0  0  0  0  0
  -21.6640   -6.8909   21.4252 O   0  0  0  0  0  0
  -22.3473  -14.5529   20.6748 O   0  0  0  0  0  0
  -24.6264  -31.8521   23.2047 C   0  0  0  0  0  0
  -25.9161  -32.4678   23.8351 C   0  0  1  0  0  0
  -27.2153  -27.2998   20.1250 C   0  0  0  0  0  0
  -25.5988  -33.8459   24.2268 N   0  0  0  0  0  0
  -23.4166  -30.4877   21.5394 C   0  0  2  0  0  0
  -24.8575  -28.9346   20.1097 C   0  0  0  0  0  0
  -22.7494  -29.4610   22.4832 C   0  0  0  0  0  0
  -18.0333  -28.1294   22.8439 C   0  0  0  0  0  0
  -24.1528  -36.7181   23.2661 C   0  0  0  0  0  0
  -25.9622  -30.7707   21.3882 C   0  0  0  0  0  0
  -26.0253  -29.4055   20.7175 C   0  0  0  0  0  0
  -27.1989  -28.5982   20.7199 C   0  0  0  0  0  0
  -26.0271  -26.8894   19.4765 C   0  0  0  0  0  0
  -24.8584  -27.6797   19.4858 C   0  0  0  0  0  0
  -23.6321  -29.8274   20.1533 C   0  0  0  0  0  0
  -25.4124  -36.2928   24.0367 C   0  0  1  0  0  0
  -20.5948  -28.3603   23.1226 C   0  0  2  0  0  0
  -20.6829  -26.9323   22.5341 C   0  0  0  0  0  0
  -19.5801  -26.6289   21.5152 C   0  0  0  0  0  0
  -18.1984  -26.7848   22.1563 C   0  0  0  0  0  0
  -19.1590  -28.8762   23.2842 C   0  0  0  0  0  0
  -18.9514  -30.1360   23.8852 C   0  0  0  0  0  0
  -17.6525  -30.6523   24.0478 C   0  0  0  0  0  0
  -25.9046  -34.9326   23.5071 C   0  0  0  0  0  0
  -16.5414  -29.8969   23.6312 C   0  0  0  0  0  0
  -16.7326  -28.6385   23.0346 C   0  0  0  0  0  0
  -26.4549  -31.6558   25.0734 C   0  0  0  0  0  0
  -25.3795  -31.3707   26.1458 C   0  0  0  0  0  0
  -27.0449  -30.3018   24.6212 C   0  0  0  0  0  0
  -27.6093  -32.4331   25.7509 C   0  0  0  0  0  0
  -27.5575  -37.1710   24.8482 C   0  0  0  0  0  0
  -21.4185  -29.2993   22.3624 N   0  0  0  0  0  0
  -26.4246  -37.3667   23.9451 N   0  0  0  0  0  0
  -24.6849  -31.0579   22.0985 N   0  0  0  0  0  0
  -23.4263  -28.8142   23.2872 O   0  0  0  0  0  0
  -28.3536  -26.4721   20.2060 O   0  0  0  0  0  0
  -26.5551  -34.8817   22.4605 O   0  0  0  0  0  0
  -23.5452  -32.1361   23.7408 O   0  0  0  0  0  0
  -28.8919  -19.4001   21.4619 C   0  0  0  0  0  0
  -30.9400  -17.9199   20.2805 C   0  0  0  0  0  0
  -29.9636  -20.1444   20.9079 C   0  0  0  0  0  0
  -28.8372  -17.9685   21.4533 C   0  0  0  0  0  0
  -30.9987  -19.3532   20.3106 C   0  0  0  0  0  0
  -29.8790  -17.1772   20.8702 C   0  0  0  0  0  0
  -29.5738  -23.1235   19.1065 C   0  0  0  0  0  0
  -29.0213  -24.5160   18.7439 C   0  0  0  0  0  0
  -28.8995  -24.0365   21.0964 C   0  0  0  0  0  0
  -28.2785  -24.9953   20.0067 C   0  0  1  0  0  0
  -27.6275  -17.3232   22.1262 C   0  0  0  0  0  0
  -32.2486  -20.0134   19.7512 C   0  0  0  0  0  0
  -30.0922  -21.7057   21.1896 C   0  0  0  0  0  0
  -29.4085  -22.8111   20.4082 N   0  0  0  0  0  0
  -29.7943  -15.7052   20.8965 N   0  0  0  0  0  0
  -30.1504  -22.4297   18.2645 O   0  0  0  0  0  0
  -31.4775  -12.5848   19.1024 H   0  0  0  0  0  0
  -30.4390  -11.4273   19.8807 H   0  0  0  0  0  0
  -29.7540  -11.7201   17.4937 H   0  0  0  0  0  0
  -29.6286  -13.4488   17.7028 H   0  0  0  0  0  0
  -27.8612  -11.2896   18.8848 H   0  0  0  0  0  0
  -27.3628  -12.5607   17.8020 H   0  0  0  0  0  0
  -27.6716  -14.2523   19.5137 H   0  0  0  0  0  0
  -28.7342  -12.0409   21.3474 H   0  0  0  0  0  0
  -28.4536  -13.6889   21.8467 H   0  0  0  0  0  0
  -25.2783   -9.5635   22.4795 H   0  0  0  0  0  0
  -23.9999   -7.4617   22.7472 H   0  0  0  0  0  0
  -21.0866   -8.8809   19.8949 H   0  0  0  0  0  0
  -22.3762  -10.9700   19.6189 H   0  0  0  0  0  0
  -21.2027   -7.6166   23.9732 H   0  0  0  0  0  0
  -21.1435   -6.0526   25.9073 H   0  0  0  0  0  0
  -22.0631   -2.7633   23.2840 H   0  0  0  0  0  0
  -22.4108  -11.9869   22.4872 H   0  0  0  0  0  0
  -21.1112  -13.1216   22.2720 H   0  0  0  0  0  0
  -24.5893  -15.7812   20.3050 H   0  0  0  0  0  0
  -26.1726  -15.5450   19.7901 H   0  0  0  0  0  0
  -26.7178  -32.5308   23.1060 H   0  0  0  0  0  0
  -25.0255  -33.9611   25.0487 H   0  0  0  0  0  0
  -22.7044  -31.3027   21.3953 H   0  0  0  0  0  0
  -23.3759  -35.9534   23.3269 H   0  0  0  0  0  0
  -24.3635  -36.8816   22.2073 H   0  0  0  0  0  0
  -23.7315  -37.6386   23.6710 H   0  0  0  0  0  0
  -26.1354  -31.5475   20.6448 H   0  0  0  0  0  0
  -26.8283  -30.7794   22.0382 H   0  0  0  0  0  0
  -28.0856  -28.9438   21.2253 H   0  0  0  0  0  0
  -25.9675  -25.9511   18.9480 H   0  0  0  0  0  0
  -23.9618  -27.3071   19.0080 H   0  0  0  0  0  0
  -23.7563  -30.6090   19.3992 H   0  0  0  0  0  0
  -22.7479  -29.2649   19.8466 H   0  0  0  0  0  0
  -25.1310  -36.1718   25.0859 H   0  0  0  0  0  0
  -21.0041  -28.3134   24.1345 H   0  0  0  0  0  0
  -20.5648  -26.2215   23.3539 H   0  0  0  0  0  0
  -21.6713  -26.7247   22.1201 H   0  0  0  0  0  0
  -19.6959  -25.6169   21.1259 H   0  0  0  0  0  0
  -19.6810  -27.3003   20.6634 H   0  0  0  0  0  0
  -17.4255  -26.6578   21.3970 H   0  0  0  0  0  0
  -18.0382  -25.9966   22.8951 H   0  0  0  0  0  0
  -19.8000  -30.7149   24.2257 H   0  0  0  0  0  0
  -17.5075  -31.6245   24.4976 H   0  0  0  0  0  0
  -15.5403  -30.2823   23.7671 H   0  0  0  0  0  0
  -15.8738  -28.0647   22.7105 H   0  0  0  0  0  0
  -24.5991  -30.7025   25.7822 H   0  0  0  0  0  0
  -24.8939  -32.2841   26.4870 H   0  0  0  0  0  0
  -25.8091  -30.8916   27.0256 H   0  0  0  0  0  0
  -26.3018  -29.6660   24.1384 H   0  0  0  0  0  0
  -27.4367  -29.7377   25.4685 H   0  0  0  0  0  0
  -27.8799  -30.4357   23.9329 H   0  0  0  0  0  0
  -27.2769  -33.3708   26.1994 H   0  0  0  0  0  0
  -28.3986  -32.6789   25.0374 H   0  0  0  0  0  0
  -28.0709  -31.8514   26.5500 H   0  0  0  0  0  0
  -28.2498  -38.0090   24.7480 H   0  0  0  0  0  0
  -28.1162  -36.2566   24.6351 H   0  0  0  0  0  0
  -27.2272  -37.1392   25.8886 H   0  0  0  0  0  0
  -20.9301  -29.8787   21.6927 H   0  0  0  0  0  0
  -26.0084  -38.2715   24.1499 H   0  0  0  0  0  0
  -28.1093  -19.9428   21.9765 H   0  0  0  0  0  0
  -31.7489  -17.3836   19.8024 H   0  0  0  0  0  0
  -28.3660  -24.4793   17.8713 H   0  0  0  0  0  0
  -29.8610  -25.1738   18.5032 H   0  0  0  0  0  0
  -28.1766  -23.7678   21.8723 H   0  0  0  0  0  0
  -29.7382  -24.5248   21.6018 H   0  0  0  0  0  0
  -27.2465  -24.6603   19.9217 H   0  0  0  0  0  0
  -27.4529  -17.7740   23.1035 H   0  0  0  0  0  0
  -27.7327  -16.2530   22.2933 H   0  0  0  0  0  0
  -26.7223  -17.4787   21.5375 H   0  0  0  0  0  0
  -32.8842  -19.3042   19.2209 H   0  0  0  0  0  0
  -32.8409  -20.4455   20.5589 H   0  0  0  0  0  0
  -31.9901  -20.8060   19.0511 H   0  0  0  0  0  0
  -31.1496  -21.9716   21.2227 H   0  0  0  0  0  0
  -29.7812  -21.8234   22.2305 H   0  0  0  0  0  0
  -28.9067  -15.3610   21.2255 H   0  0  0  0  0  0
  1 25  1  0  0  0
  1 30  2  0  0  0
  1 85  1  0  0  0
  2  3  1  0  0  0
  2 25  1  0  0  0
  2 87  1  0  0  0
  2 88  1  0  0  0
  3  4  1  0  0  0
  3 89  1  0  0  0
  3 90  1  0  0  0
  4  5  1  0  0  0
  4 91  1  0  0  0
  4 92  1  0  0  0
  5  6  1  0  0  0
  5 26  1  0  0  0
  5 93  1  0  0  0
  6 25  1  0  0  0
  6 94  1  0  0  0
  6 95  1  0  0  0
  7  8  2  0  0  0
  7 26  1  0  0  0
  7 29  1  0  0  0
  8  9  1  0  0  0
  8 22  1  0  0  0
  9 10  1  0  0  0
  9 27  2  0  0  0
 10 11  2  0  0  0
 10 15  1  0  0  0
 11 12  1  0  0  0
 11 96  1  0  0  0
 12 13  2  0  0  0
 12 97  1  0  0  0
 13 14  1  0  0  0
 13 31  1  0  0  0
 14 15  2  0  0  0
 14 98  1  0  0  0
 15 99  1  0  0  0
 16 17  2  0  0  0
 16 21  1  0  0  0
 16 31  1  0  0  0
 17 18  1  0  0  0
 17100  1  0  0  0
 18 19  2  0  0  0
 18101  1  0  0  0
 19 20  1  0  0  0
 19 24  1  0  0  0
 20 21  2  0  0  0
 20102  1  0  0  0
 21 23  1  0  0  0
 22 28  1  0  0  0
 22 32  2  0  0  0
 26 27  1  0  0  0
 28103  1  0  0  0
 28104  1  0  0  0
 29105  1  0  0  0
 29106  1  0  0  0
 33 34  1  0  0  0
 33 66  1  0  0  0
 33 70  2  0  0  0
 34 36  1  0  0  0
 34 59  1  0  0  0
 34107  1  0  0  0
 35 44  2  0  0  0
 35 45  1  0  0  0
 35 68  1  0  0  0
 36 56  1  0  0  0
 36108  1  0  0  0
 37 39  1  0  0  0
 37 47  1  0  0  0
 37 66  1  0  0  0
 37109  1  0  0  0
 38 43  2  0  0  0
 38 46  1  0  0  0
 38 47  1  0  0  0
 39 64  1  0  0  0
 39 67  2  0  0  0
 40 52  1  0  0  0
 40 53  2  0  0  0
 40 58  1  0  0  0
 41110  1  0  0  0
 41111  1  0  0  0
 41112  1  0  0  0
 41 48  1  0  0  0
 42 43  1  0  0  0
 42 66  1  0  0  0
 42113  1  0  0  0
 42114  1  0  0  0
 43 44  1  0  0  0
 44115  1  0  0  0
 45 46  2  0  0  0
 45116  1  0  0  0
 46117  1  0  0  0
 47118  1  0  0  0
 47119  1  0  0  0
 48 56  1  0  0  0
 48 65  1  0  0  0
 48120  1  0  0  0
 49 50  1  0  0  0
 49 53  1  0  0  0
 49 64  1  0  0  0
 49121  1  0  0  0
 50 51  1  0  0  0
 50122  1  0  0  0
 50123  1  0  0  0
 51 52  1  0  0  0
 51124  1  0  0  0
 51125  1  0  0  0
 52126  1  0  0  0
 52127  1  0  0  0
 53 54  1  0  0  0
 54 55  2  0  0  0
 54128  1  0  0  0
 55 57  1  0  0  0
 55129  1  0  0  0
 56 69  2  0  0  0
 57 58  2  0  0  0
 57130  1  0  0  0
 58131  1  0  0  0
 59 60  1  0  0  0
 59 61  1  0  0  0
 59 62  1  0  0  0
 60132  1  0  0  0
 60133  1  0  0  0
 60134  1  0  0  0
 61135  1  0  0  0
 61136  1  0  0  0
 61137  1  0  0  0
 62138  1  0  0  0
 62139  1  0  0  0
 62140  1  0  0  0
 63 65  1  0  0  0
 63141  1  0  0  0
 63142  1  0  0  0
 63143  1  0  0  0
 64144  1  0  0  0
 65145  1  0  0  0
 68 80  1  0  0  0
 71 73  2  0  0  0
 71 74  1  0  0  0
 71146  1  0  0  0
 72 75  2  0  0  0
 72 76  1  0  0  0
 72147  1  0  0  0
 73 75  1  0  0  0
 73 83  1  0  0  0
 74 76  2  0  0  0
 74 81  1  0  0  0
 75 82  1  0  0  0
 76 85  1  0  0  0
 77 78  1  0  0  0
 77 84  1  0  0  0
 77 86  2  0  0  0
 78 80  1  0  0  0
 78148  1  0  0  0
 78149  1  0  0  0
 79 80  1  0  0  0
 79 84  1  0  0  0
 79150  1  0  0  0
 79151  1  0  0  0
 80152  1  0  0  0
 81153  1  0  0  0
 81154  1  0  0  0
 81155  1  0  0  0
 82156  1  0  0  0
 82157  1  0  0  0
 82158  1  0  0  0
 83 84  1  0  0  0
 83159  1  0  0  0
 83160  1  0  0  0
 85161  1  0  0  0
M  ISO  4   1 100  68 101  80 101  85 100
M  END
> <chiral flag>
0

> <version>
0

> <s_m_source_file>
/data/baiqing/PycharmProjects/Reinvent-master-3.2/result/LINK_invent/BTK/process_docking_weight1_custom_product_contain_oxygen_bond_distance_aromatic_linkinvent_7_9_3/rearranged_h_0032.sdf

> <i_m_source_file_index>
24

> <r_mmod_Potential_Energy-OPLS-2005>
75.3875732421875

> <r_mmod_Stretch_Energy-OPLS-2005>
91.6822891235352

> <r_mmod_Bend_Energy-OPLS-2005>
188.145980834961

> <r_mmod_Torsional_Energy-OPLS-2005>
245.309066772461

> <r_mmod_Improper_Torsional_Energy-OPLS-2005>
8.89262104034424

> <r_mmod_Van_der_Waal_Energy-OPLS-2005>
135.583221435547

> <r_mmod_Electrostatic_Energy-OPLS-2005>
-421.179107666016

> <r_mmod_Solvation_Energy-OPLS-2005>
-231.337997436523

> <b_mmod_Minimization_Converged-OPLS-2005>
0

> <r_mmod_RMS_Derivative-OPLS-2005>
6.30597591400146

$$$$
24
                    3D
 Structure written by MMmdl.
152160  0  0  1  0            999 V2000
  -30.5240  -15.0053   20.4052 C   0  0  0  0  0  0
  -30.4362  -12.6219   19.5117 C   0  0  0  0  0  0
  -29.5217  -12.5289   18.2675 C   0  0  0  0  0  0
  -28.0572  -12.3079   18.6888 C   0  0  0  0  0  0
  -27.6236  -13.2546   19.8386 C   0  0  2  0  0  0
  -28.6646  -13.3138   20.9764 C   0  0  0  0  0  0
  -25.2382  -13.8189   20.5681 C   0  0  0  0  0  0
  -24.1728  -13.0398   20.9221 C   0  0  0  0  0  0
  -24.6383  -11.6898   20.8776 C   0  0  0  0  0  0
  -23.9081  -10.4266   21.0426 C   0  0  0  0  0  0
  -24.3624   -9.4181   21.9198 C   0  0  0  0  0  0
  -23.6287   -8.2219   22.0760 C   0  0  0  0  0  0
  -22.4268   -8.0268   21.3548 C   0  0  0  0  0  0
  -21.9910   -9.0250   20.4655 C   0  0  0  0  0  0
  -22.7256  -10.2119   20.3074 C   0  0  0  0  0  0
  -21.6844   -6.0732   22.5285 C   0  0  0  0  0  0
  -21.4014   -6.5640   23.8218 C   0  0  0  0  0  0
  -21.3658   -5.6795   24.9187 C   0  0  0  0  0  0
  -21.6043   -4.3056   24.7231 C   0  0  0  0  0  0
  -21.8815   -3.8146   23.4353 C   0  0  0  0  0  0
  -21.9186   -4.6963   22.3415 C   0  0  0  0  0  0
  -22.7754  -13.5171   21.1890 C   0  0  0  0  0  0
  -22.1655   -4.2148   21.0984 F   0  0  0  0  0  0
  -21.5622   -3.4541   25.7745 F   0  0  0  0  0  0
  -29.9341  -13.7364   20.3713 N   0  0  0  0  0  0
  -26.2852  -12.9463   20.3273 N   0  0  0  0  0  0
  -25.9325  -11.6587   20.5779 N   0  0  0  0  0  0
  -22.0407  -12.8175   22.0459 N   0  0  0  0  0  0
  -25.3923  -15.1903   20.4051 N   0  0  0  0  0  0
  -31.7294  -15.0551   20.1361 O   0  0  0  0  0  0
  -21.6621   -6.8875   21.4245 O   0  0  0  0  0  0
  -22.3439  -14.5480   20.6746 O   0  0  0  0  0  0
  -24.6460  -31.8408   23.1853 C   0  0  0  0  0  0
  -25.9217  -32.4679   23.8261 C   0  0  1  0  0  0
  -27.2146  -27.0925   20.1658 C   0  0  0  0  0  0
  -25.5950  -33.8487   24.2173 N   0  0  0  0  0  0
  -23.4527  -30.4586   21.5305 C   0  0  2  0  0  0
  -24.9030  -28.8725   20.1143 C   0  0  0  0  0  0
  -22.7582  -29.4543   22.4838 C   0  0  0  0  0  0
  -18.0314  -28.1400   22.8481 C   0  0  0  0  0  0
  -24.1490  -36.7248   23.2651 C   0  0  0  0  0  0
  -26.0110  -30.6962   21.3950 C   0  0  0  0  0  0
  -26.0788  -29.3006   20.7440 C   0  0  0  0  0  0
  -27.2336  -28.4242   20.7581 C   0  0  0  0  0  0
  -26.0175  -26.7759   19.4907 C   0  0  0  0  0  0
  -24.8857  -27.6232   19.4742 C   0  0  0  0  0  0
  -23.6831  -29.7829   20.1515 C   0  0  0  0  0  0
  -25.4122  -36.3021   24.0319 C   0  0  1  0  0  0
  -20.5928  -28.3736   23.1219 C   0  0  2  0  0  0
  -20.6793  -26.9434   22.5401 C   0  0  0  0  0  0
  -19.5767  -26.6378   21.5212 C   0  0  0  0  0  0
  -18.1949  -26.7939   22.1625 C   0  0  0  0  0  0
  -19.1572  -28.8884   23.2845 C   0  0  0  0  0  0
  -18.9488  -30.1477   23.8880 C   0  0  0  0  0  0
  -17.6482  -30.6593   24.0563 C   0  0  0  0  0  0
  -25.9077  -34.9399   23.5056 C   0  0  0  0  0  0
  -16.5374  -29.9087   23.6337 C   0  0  0  0  0  0
  -16.7298  -28.6502   23.0363 C   0  0  0  0  0  0
  -26.4520  -31.6569   25.0725 C   0  0  0  0  0  0
  -25.3686  -31.3771   26.1410 C   0  0  0  0  0  0
  -27.0406  -30.2965   24.6347 C   0  0  0  0  0  0
  -27.6055  -32.4342   25.7497 C   0  0  0  0  0  0
  -27.5568  -37.1783   24.8468 C   0  0  0  0  0  0
  -21.4273  -29.3050   22.3582 N   0  0  0  0  0  0
  -26.4284  -37.3733   23.9407 N   0  0  0  0  0  0
  -24.7231  -31.0222   22.0910 N   0  0  0  0  0  0
  -23.4201  -28.8102   23.3019 O   0  0  0  0  0  0
  -28.2614  -26.0889   20.1709 O   0  0  0  0  0  0
  -26.5668  -34.8900   22.4644 O   0  0  0  0  0  0
  -23.5576  -32.1315   23.7040 O   0  0  0  0  0  0
  -27.3490  -21.4382   21.0860 C   0  0  0  0  0  0
  -27.0156  -20.1104   21.4389 C   0  0  0  0  0  0
  -28.5749  -21.7696   20.4772 C   0  0  0  0  0  0
  -29.4413  -20.5630   20.2267 C   0  0  0  0  0  0
  -29.1205  -19.1290   20.5727 C   0  0  0  0  0  0
  -27.8602  -18.9971   21.2115 C   0  0  0  0  0  0
  -30.7871  -20.8105   19.5696 C   0  0  0  0  0  0
  -28.8455  -23.3985   20.1668 C   0  0  0  0  0  0
  -30.0821  -17.7653   20.3421 C   0  0  0  0  0  0
  -29.7513  -16.2074   20.5299 N   0  0  0  0  0  0
  -27.8308  -24.5622   20.4724 N   0  0  0  0  0  0
  -27.3010  -17.4678   21.7863 Cl  0  0  0  0  0  0
  -31.4689  -12.7797   19.1984 H   0  0  0  0  0  0
  -30.4355  -11.6810   20.0656 H   0  0  0  0  0  0
  -29.8499  -11.7192   17.6145 H   0  0  0  0  0  0
  -29.6029  -13.4472   17.6835 H   0  0  0  0  0  0
  -27.9673  -11.2722   19.0202 H   0  0  0  0  0  0
  -27.3913  -12.4127   17.8317 H   0  0  0  0  0  0
  -27.5769  -14.2497   19.3954 H   0  0  0  0  0  0
  -28.7634  -12.3479   21.4736 H   0  0  0  0  0  0
  -28.3549  -14.0271   21.7426 H   0  0  0  0  0  0
  -25.2762   -9.5651   22.4789 H   0  0  0  0  0  0
  -23.9988   -7.4611   22.7484 H   0  0  0  0  0  0
  -21.0834   -8.8798   19.8971 H   0  0  0  0  0  0
  -22.3721  -10.9675   19.6199 H   0  0  0  0  0  0
  -21.2009   -7.6149   23.9731 H   0  0  0  0  0  0
  -21.1482   -6.0517   25.9089 H   0  0  0  0  0  0
  -22.0589   -2.7608   23.2856 H   0  0  0  0  0  0
  -22.4021  -11.9843   22.4869 H   0  0  0  0  0  0
  -21.1045  -13.1245   22.2697 H   0  0  0  0  0  0
  -24.6254  -15.8342   20.5610 H   0  0  0  0  0  0
  -26.2529  -15.6600   20.1585 H   0  0  0  0  0  0
  -26.7285  -32.5267   23.0987 H   0  0  0  0  0  0
  -25.0045  -33.9602   25.0287 H   0  0  0  0  0  0
  -22.7583  -31.2868   21.3717 H   0  0  0  0  0  0
  -23.3750  -35.9583   23.3310 H   0  0  0  0  0  0
  -24.3568  -36.8888   22.2065 H   0  0  0  0  0  0
  -23.7255  -37.6450   23.6690 H   0  0  0  0  0  0
  -26.1753  -31.4445   20.6182 H   0  0  0  0  0  0
  -26.8788  -30.7485   22.0406 H   0  0  0  0  0  0
  -28.1313  -28.7473   21.2661 H   0  0  0  0  0  0
  -25.9394  -25.8182   18.9956 H   0  0  0  0  0  0
  -23.9890  -27.2913   18.9681 H   0  0  0  0  0  0
  -23.8260  -30.5565   19.3960 H   0  0  0  0  0  0
  -22.7955  -29.2298   19.8382 H   0  0  0  0  0  0
  -25.1312  -36.1844   25.0811 H   0  0  0  0  0  0
  -21.0031  -28.3334   24.1337 H   0  0  0  0  0  0
  -20.5680  -26.2355   23.3626 H   0  0  0  0  0  0
  -21.6658  -26.7427   22.1203 H   0  0  0  0  0  0
  -19.6926  -25.6277   21.1267 H   0  0  0  0  0  0
  -19.6700  -27.3165   20.6723 H   0  0  0  0  0  0
  -17.4215  -26.6696   21.4030 H   0  0  0  0  0  0
  -18.0353  -26.0083   22.9024 H   0  0  0  0  0  0
  -19.7960  -30.7303   24.2243 H   0  0  0  0  0  0
  -17.5032  -31.6274   24.5162 H   0  0  0  0  0  0
  -15.5373  -30.2982   23.7666 H   0  0  0  0  0  0
  -15.8702  -28.0806   22.7098 H   0  0  0  0  0  0
  -24.5854  -30.7140   25.7711 H   0  0  0  0  0  0
  -24.8884  -32.2959   26.4791 H   0  0  0  0  0  0
  -25.7943  -30.8955   27.0222 H   0  0  0  0  0  0
  -26.3048  -29.6669   24.1330 H   0  0  0  0  0  0
  -27.3992  -29.7288   25.4944 H   0  0  0  0  0  0
  -27.8967  -30.4212   23.9710 H   0  0  0  0  0  0
  -27.2658  -33.3667   26.2014 H   0  0  0  0  0  0
  -28.3882  -32.6864   25.0329 H   0  0  0  0  0  0
  -28.0704  -31.8509   26.5457 H   0  0  0  0  0  0
  -28.2591  -38.0071   24.7483 H   0  0  0  0  0  0
  -28.1057  -36.2597   24.6326 H   0  0  0  0  0  0
  -27.2282  -37.1471   25.8872 H   0  0  0  0  0  0
  -20.9499  -29.8747   21.6736 H   0  0  0  0  0  0
  -26.0148  -38.2809   24.1385 H   0  0  0  0  0  0
  -26.6387  -22.2223   21.3079 H   0  0  0  0  0  0
  -26.0657  -19.9369   21.9250 H   0  0  0  0  0  0
  -30.8949  -21.8393   19.2268 H   0  0  0  0  0  0
  -30.9188  -20.1618   18.7032 H   0  0  0  0  0  0
  -31.5935  -20.6065   20.2735 H   0  0  0  0  0  0
  -29.0839  -23.4701   19.1052 H   0  0  0  0  0  0
  -29.7701  -23.6522   20.6859 H   0  0  0  0  0  0
  -30.9554  -17.9393   20.9704 H   0  0  0  0  0  0
  -30.4597  -17.8454   19.3220 H   0  0  0  0  0  0
  -28.7787  -16.0380   20.7372 H   0  0  0  0  0  0
  -27.6325  -24.5418   21.4691 H   0  0  0  0  0  0
  1 25  1  0  0  0
  1 30  2  0  0  0
  1 80  1  0  0  0
  2  3  1  0  0  0
  2 25  1  0  0  0
  2 83  1  0  0  0
  2 84  1  0  0  0
  3  4  1  0  0  0
  3 85  1  0  0  0
  3 86  1  0  0  0
  4  5  1  0  0  0
  4 87  1  0  0  0
  4 88  1  0  0  0
  5  6  1  0  0  0
  5 26  1  0  0  0
  5 89  1  0  0  0
  6 25  1  0  0  0
  6 90  1  0  0  0
  6 91  1  0  0  0
  7  8  2  0  0  0
  7 26  1  0  0  0
  7 29  1  0  0  0
  8  9  1  0  0  0
  8 22  1  0  0  0
  9 10  1  0  0  0
  9 27  2  0  0  0
 10 11  2  0  0  0
 10 15  1  0  0  0
 11 12  1  0  0  0
 11 92  1  0  0  0
 12 13  2  0  0  0
 12 93  1  0  0  0
 13 14  1  0  0  0
 13 31  1  0  0  0
 14 15  2  0  0  0
 14 94  1  0  0  0
 15 95  1  0  0  0
 16 17  2  0  0  0
 16 21  1  0  0  0
 16 31  1  0  0  0
 17 18  1  0  0  0
 17 96  1  0  0  0
 18 19  2  0  0  0
 18 97  1  0  0  0
 19 20  1  0  0  0
 19 24  1  0  0  0
 20 21  2  0  0  0
 20 98  1  0  0  0
 21 23  1  0  0  0
 22 28  1  0  0  0
 22 32  2  0  0  0
 26 27  1  0  0  0
 28 99  1  0  0  0
 28100  1  0  0  0
 29101  1  0  0  0
 29102  1  0  0  0
 33 34  1  0  0  0
 33 66  1  0  0  0
 33 70  2  0  0  0
 34 36  1  0  0  0
 34 59  1  0  0  0
 34103  1  0  0  0
 35 44  2  0  0  0
 35 45  1  0  0  0
 35 68  1  0  0  0
 36 56  1  0  0  0
 36104  1  0  0  0
 37 39  1  0  0  0
 37 47  1  0  0  0
 37 66  1  0  0  0
 37105  1  0  0  0
 38 43  2  0  0  0
 38 46  1  0  0  0
 38 47  1  0  0  0
 39 64  1  0  0  0
 39 67  2  0  0  0
 40 52  1  0  0  0
 40 53  2  0  0  0
 40 58  1  0  0  0
 41106  1  0  0  0
 41107  1  0  0  0
 41108  1  0  0  0
 41 48  1  0  0  0
 42 43  1  0  0  0
 42 66  1  0  0  0
 42109  1  0  0  0
 42110  1  0  0  0
 43 44  1  0  0  0
 44111  1  0  0  0
 45 46  2  0  0  0
 45112  1  0  0  0
 46113  1  0  0  0
 47114  1  0  0  0
 47115  1  0  0  0
 48 56  1  0  0  0
 48 65  1  0  0  0
 48116  1  0  0  0
 49 50  1  0  0  0
 49 53  1  0  0  0
 49 64  1  0  0  0
 49117  1  0  0  0
 50 51  1  0  0  0
 50118  1  0  0  0
 50119  1  0  0  0
 51 52  1  0  0  0
 51120  1  0  0  0
 51121  1  0  0  0
 52122  1  0  0  0
 52123  1  0  0  0
 53 54  1  0  0  0
 54 55  2  0  0  0
 54124  1  0  0  0
 55 57  1  0  0  0
 55125  1  0  0  0
 56 69  2  0  0  0
 57 58  2  0  0  0
 57126  1  0  0  0
 58127  1  0  0  0
 59 60  1  0  0  0
 59 61  1  0  0  0
 59 62  1  0  0  0
 60128  1  0  0  0
 60129  1  0  0  0
 60130  1  0  0  0
 61131  1  0  0  0
 61132  1  0  0  0
 61133  1  0  0  0
 62134  1  0  0  0
 62135  1  0  0  0
 62136  1  0  0  0
 63 65  1  0  0  0
 63137  1  0  0  0
 63138  1  0  0  0
 63139  1  0  0  0
 64140  1  0  0  0
 65141  1  0  0  0
 68 81  1  0  0  0
 71 72  2  0  0  0
 71 73  1  0  0  0
 71142  1  0  0  0
 72 76  1  0  0  0
 72143  1  0  0  0
 73 74  2  0  0  0
 73 78  1  0  0  0
 74 75  1  0  0  0
 74 77  1  0  0  0
 75 76  2  0  0  0
 75 79  1  0  0  0
 76 82  1  0  0  0
 77144  1  0  0  0
 77145  1  0  0  0
 77146  1  0  0  0
 78 81  1  0  0  0
 78147  1  0  0  0
 78148  1  0  0  0
 79 80  1  0  0  0
 79149  1  0  0  0
 79150  1  0  0  0
 80151  1  0  0  0
 81152  1  0  0  0
M  ISO  4   1 100  68 101  80 100  81 101
M  END
> <chiral flag>
0

> <version>
0

> <s_m_source_file>
/data/baiqing/PycharmProjects/Reinvent-master-3.2/result/LINK_invent/BTK/process_docking_weight1_custom_product_contain_oxygen_bond_distance_aromatic_linkinvent_7_9_3/rearranged_h_0032.sdf

> <i_m_source_file_index>
25

> <r_mmod_Potential_Energy-OPLS-2005>
541.487731933594

> <r_mmod_Stretch_Energy-OPLS-2005>
312.8046875

> <r_mmod_Bend_Energy-OPLS-2005>
259.560760498047

> <r_mmod_Torsional_Energy-OPLS-2005>
202.011352539062

> <r_mmod_Improper_Torsional_Energy-OPLS-2005>
4.26165628433228

> <r_mmod_Van_der_Waal_Energy-OPLS-2005>
127.803527832031

> <r_mmod_Electrostatic_Energy-OPLS-2005>
-389.3369140625

> <r_mmod_Solvation_Energy-OPLS-2005>
-207.964538574219

> <b_mmod_Minimization_Converged-OPLS-2005>
0

> <r_mmod_RMS_Derivative-OPLS-2005>
1.72647988796234

$$$$
25
                    3D
 Structure written by MMmdl.
164173  0  0  1  0            999 V2000
  -30.5679  -14.7821   20.4564 C   0  0  0  0  0  0
  -30.4508  -12.4890   19.4485 C   0  0  0  0  0  0
  -29.5069  -12.4758   18.2249 C   0  0  0  0  0  0
  -28.0283  -12.3245   18.6439 C   0  0  0  0  0  0
  -27.6381  -13.2239   19.8477 C   0  0  2  0  0  0
  -28.6897  -13.1543   20.9729 C   0  0  0  0  0  0
  -25.2474  -13.8201   20.5613 C   0  0  0  0  0  0
  -24.1777  -13.0447   20.9210 C   0  0  0  0  0  0
  -24.6371  -11.6932   20.8821 C   0  0  0  0  0  0
  -23.9062  -10.4307   21.0478 C   0  0  0  0  0  0
  -24.3614   -9.4191   21.9210 C   0  0  0  0  0  0
  -23.6291   -8.2232   22.0765 C   0  0  0  0  0  0
  -22.4272   -8.0281   21.3558 C   0  0  0  0  0  0
  -21.9928   -9.0253   20.4656 C   0  0  0  0  0  0
  -22.7258  -10.2126   20.3099 C   0  0  0  0  0  0
  -21.6856   -6.0731   22.5260 C   0  0  0  0  0  0
  -21.4009   -6.5650   23.8180 C   0  0  0  0  0  0
  -21.3652   -5.6804   24.9139 C   0  0  0  0  0  0
  -21.6044   -4.3076   24.7192 C   0  0  0  0  0  0
  -21.8824   -3.8153   23.4324 C   0  0  0  0  0  0
  -21.9188   -4.6968   22.3372 C   0  0  0  0  0  0
  -22.7789  -13.5206   21.1861 C   0  0  0  0  0  0
  -22.1661   -4.2183   21.0948 F   0  0  0  0  0  0
  -21.5637   -3.4538   25.7698 F   0  0  0  0  0  0
  -29.9764  -13.5424   20.3728 N   0  0  0  0  0  0
  -26.2899  -12.9373   20.3288 N   0  0  0  0  0  0
  -25.9294  -11.6535   20.5838 N   0  0  0  0  0  0
  -22.0456  -12.8173   22.0429 N   0  0  0  0  0  0
  -25.4173  -15.1889   20.3723 N   0  0  0  0  0  0
  -31.7676  -14.9113   20.1809 O   0  0  0  0  0  0
  -21.6643   -6.8868   21.4228 O   0  0  0  0  0  0
  -22.3461  -14.5484   20.6692 O   0  0  0  0  0  0
  -24.6282  -31.8492   23.1934 C   0  0  0  0  0  0
  -25.9107  -32.4706   23.8287 C   0  0  1  0  0  0
  -27.2231  -27.2356   20.1590 C   0  0  0  0  0  0
  -25.5912  -33.8516   24.2200 N   0  0  0  0  0  0
  -23.4260  -30.4693   21.5295 C   0  0  2  0  0  0
  -24.8756  -28.9058   20.1076 C   0  0  0  0  0  0
  -22.7473  -29.4551   22.4802 C   0  0  0  0  0  0
  -18.0284  -28.1341   22.8408 C   0  0  0  0  0  0
  -24.1500  -36.7281   23.2642 C   0  0  0  0  0  0
  -25.9665  -30.7573   21.3719 C   0  0  0  0  0  0
  -26.0445  -29.3771   20.7197 C   0  0  0  0  0  0
  -27.2141  -28.5533   20.7304 C   0  0  0  0  0  0
  -26.0329  -26.8255   19.5166 C   0  0  0  0  0  0
  -24.8794  -27.6417   19.4920 C   0  0  0  0  0  0
  -23.6479  -29.8011   20.1489 C   0  0  0  0  0  0
  -25.4100  -36.3004   24.0316 C   0  0  1  0  0  0
  -20.5885  -28.3661   23.1206 C   0  0  2  0  0  0
  -20.6753  -26.9361   22.5363 C   0  0  0  0  0  0
  -19.5755  -26.6329   21.5132 C   0  0  0  0  0  0
  -18.1943  -26.7858   22.1547 C   0  0  0  0  0  0
  -19.1541  -28.8798   23.2823 C   0  0  0  0  0  0
  -18.9514  -30.1391   23.8870 C   0  0  0  0  0  0
  -17.6525  -30.6571   24.0521 C   0  0  0  0  0  0
  -25.9030  -34.9392   23.5040 C   0  0  0  0  0  0
  -16.5388  -29.9065   23.6348 C   0  0  0  0  0  0
  -16.7275  -28.6487   23.0315 C   0  0  0  0  0  0
  -26.4472  -31.6554   25.0699 C   0  0  0  0  0  0
  -25.3683  -31.3808   26.1449 C   0  0  0  0  0  0
  -27.0307  -30.2970   24.6160 C   0  0  0  0  0  0
  -27.5996  -32.4337   25.7485 C   0  0  0  0  0  0
  -27.5547  -37.1752   24.8430 C   0  0  0  0  0  0
  -21.4157  -29.3061   22.3612 N   0  0  0  0  0  0
  -26.4245  -37.3712   23.9407 N   0  0  0  0  0  0
  -24.6916  -31.0439   22.0903 N   0  0  0  0  0  0
  -23.4219  -28.8017   23.2818 O   0  0  0  0  0  0
  -28.3464  -26.3803   20.2682 O   0  0  0  0  0  0
  -26.5616  -34.8865   22.4608 O   0  0  0  0  0  0
  -23.5428  -32.1306   23.7239 O   0  0  0  0  0  0
  -29.6797  -19.8993   22.2959 C   0  0  0  0  0  0
  -29.3480  -18.4312   20.4080 C   0  0  0  0  0  0
  -29.2638  -19.7773   20.9573 C   0  0  0  0  0  0
  -30.1737  -18.8073   23.0501 C   0  0  0  0  0  0
  -30.3022  -17.4902   22.4796 C   0  0  0  0  0  0
  -29.8628  -17.2650   21.1249 C   0  0  0  0  0  0
  -30.1265  -23.0862   19.6601 C   0  0  0  0  0  0
  -31.0799  -22.3762   19.0286 C   0  0  0  0  0  0
  -29.9160  -24.6038   19.5944 C   0  0  0  0  0  0
  -28.0588  -23.6543   20.7336 C   0  0  0  0  0  0
  -28.4338  -24.9321   19.8375 C   0  0  1  0  0  0
  -30.5170  -19.1351   24.5101 C   0  0  0  0  0  0
  -28.5891  -21.0570   20.2458 C   0  0  0  0  0  0
  -30.9028  -16.3229   23.3089 C   0  0  0  0  0  0
  -29.7255  -15.8843   20.5644 N   0  0  0  0  0  0
  -29.0636  -22.5058   20.5416 N   0  3  1  0  0  0
  -31.0205  -16.5322   24.6165 F   0  0  0  0  0  0
  -30.1809  -15.2059   23.2182 F   0  0  0  0  0  0
  -32.1330  -16.0803   22.8559 F   0  0  0  0  0  0
  -31.4737  -12.6740   19.1165 H   0  0  0  0  0  0
  -30.4654  -11.5197   19.9503 H   0  0  0  0  0  0
  -29.7830  -11.6536   17.5630 H   0  0  0  0  0  0
  -29.6334  -13.3924   17.6464 H   0  0  0  0  0  0
  -27.8632  -11.2757   18.8941 H   0  0  0  0  0  0
  -27.3808  -12.5383   17.7917 H   0  0  0  0  0  0
  -27.6320  -14.2471   19.4703 H   0  0  0  0  0  0
  -28.7491  -12.1499   21.3970 H   0  0  0  0  0  0
  -28.4128  -13.8178   21.7939 H   0  0  0  0  0  0
  -25.2751   -9.5636   22.4795 H   0  0  0  0  0  0
  -23.9993   -7.4610   22.7486 H   0  0  0  0  0  0
  -21.0855   -8.8715   19.8969 H   0  0  0  0  0  0
  -22.3687  -10.9634   19.6204 H   0  0  0  0  0  0
  -21.2028   -7.6157   23.9673 H   0  0  0  0  0  0
  -21.1472   -6.0544   25.9031 H   0  0  0  0  0  0
  -22.0634   -2.7634   23.2778 H   0  0  0  0  0  0
  -22.4088  -11.9791   22.4725 H   0  0  0  0  0  0
  -21.1080  -13.1189   22.2703 H   0  0  0  0  0  0
  -24.6330  -15.8301   20.4190 H   0  0  0  0  0  0
  -26.1992  -15.5739   19.8605 H   0  0  0  0  0  0
  -26.7134  -32.5307   23.0974 H   0  0  0  0  0  0
  -25.0017  -33.9659   25.0318 H   0  0  0  0  0  0
  -22.7217  -31.2914   21.3761 H   0  0  0  0  0  0
  -23.3738  -35.9646   23.3262 H   0  0  0  0  0  0
  -24.3625  -36.8968   22.2083 H   0  0  0  0  0  0
  -23.7296  -37.6474   23.6711 H   0  0  0  0  0  0
  -26.0902  -31.5124   20.5934 H   0  0  0  0  0  0
  -26.8539  -30.8206   21.9912 H   0  0  0  0  0  0
  -28.1025  -28.9084   21.2341 H   0  0  0  0  0  0
  -25.9610  -25.8503   19.0596 H   0  0  0  0  0  0
  -23.9810  -27.2673   19.0158 H   0  0  0  0  0  0
  -23.7759  -30.5797   19.3960 H   0  0  0  0  0  0
  -22.7699  -29.2396   19.8324 H   0  0  0  0  0  0
  -25.1282  -36.1825   25.0809 H   0  0  0  0  0  0
  -20.9978  -28.3220   24.1330 H   0  0  0  0  0  0
  -20.5557  -26.2265   23.3562 H   0  0  0  0  0  0
  -21.6640  -26.7283   22.1234 H   0  0  0  0  0  0
  -19.6953  -25.6247   21.1183 H   0  0  0  0  0  0
  -19.6753  -27.3121   20.6648 H   0  0  0  0  0  0
  -17.4192  -26.6577   21.3983 H   0  0  0  0  0  0
  -18.0400  -25.9995   22.8956 H   0  0  0  0  0  0
  -19.8030  -30.7169   24.2232 H   0  0  0  0  0  0
  -17.5131  -31.6242   24.5129 H   0  0  0  0  0  0
  -15.5427  -30.2991   23.7671 H   0  0  0  0  0  0
  -15.8645  -28.0823   22.7032 H   0  0  0  0  0  0
  -24.5942  -30.6989   25.7889 H   0  0  0  0  0  0
  -24.8764  -32.3026   26.4615 H   0  0  0  0  0  0
  -25.8053  -30.9270   27.0372 H   0  0  0  0  0  0
  -26.2876  -29.6739   24.1162 H   0  0  0  0  0  0
  -27.4003  -29.7212   25.4654 H   0  0  0  0  0  0
  -27.8720  -30.4287   23.9361 H   0  0  0  0  0  0
  -27.2608  -33.3767   26.1812 H   0  0  0  0  0  0
  -28.3942  -32.6694   25.0387 H   0  0  0  0  0  0
  -28.0436  -31.8587   26.5623 H   0  0  0  0  0  0
  -28.2441  -38.0144   24.7511 H   0  0  0  0  0  0
  -28.1175  -36.2661   24.6212 H   0  0  0  0  0  0
  -27.2287  -37.1315   25.8838 H   0  0  0  0  0  0
  -20.9279  -29.8929   21.6980 H   0  0  0  0  0  0
  -26.0116  -38.2751   24.1561 H   0  0  0  0  0  0
  -29.5914  -20.8591   22.7851 H   0  0  0  0  0  0
  -28.9505  -18.2830   19.4137 H   0  0  0  0  0  0
  -31.8080  -22.8729   18.4012 H   0  0  0  0  0  0
  -31.1658  -21.3018   19.1144 H   0  0  0  0  0  0
  -30.2641  -25.0167   18.6506 H   0  0  0  0  0  0
  -30.5256  -25.0459   20.3824 H   0  0  0  0  0  0
  -27.0277  -23.3408   20.5633 H   0  0  0  0  0  0
  -28.1241  -23.9423   21.7830 H   0  0  0  0  0  0
  -27.9287  -24.8260   18.8767 H   0  0  0  0  0  0
  -30.3255  -20.1801   24.7682 H   0  0  0  0  0  0
  -31.5714  -18.9450   24.7176 H   0  0  0  0  0  0
  -29.8963  -18.5634   25.2060 H   0  0  0  0  0  0
  -27.5320  -21.0004   20.5084 H   0  0  0  0  0  0
  -28.6103  -20.9050   19.1645 H   0  0  0  0  0  0
  -28.7639  -15.6341   20.3949 H   0  0  0  0  0  0
  -29.4610  -22.4166   21.4644 H   0  0  0  0  0  0
  1 25  1  0  0  0
  1 30  2  0  0  0
  1 85  1  0  0  0
  2  3  1  0  0  0
  2 25  1  0  0  0
  2 90  1  0  0  0
  2 91  1  0  0  0
  3  4  1  0  0  0
  3 92  1  0  0  0
  3 93  1  0  0  0
  4  5  1  0  0  0
  4 94  1  0  0  0
  4 95  1  0  0  0
  5  6  1  0  0  0
  5 26  1  0  0  0
  5 96  1  0  0  0
  6 25  1  0  0  0
  6 97  1  0  0  0
  6 98  1  0  0  0
  7  8  2  0  0  0
  7 26  1  0  0  0
  7 29  1  0  0  0
  8  9  1  0  0  0
  8 22  1  0  0  0
  9 10  1  0  0  0
  9 27  2  0  0  0
 10 11  2  0  0  0
 10 15  1  0  0  0
 11 12  1  0  0  0
 11 99  1  0  0  0
 12 13  2  0  0  0
 12100  1  0  0  0
 13 14  1  0  0  0
 13 31  1  0  0  0
 14 15  2  0  0  0
 14101  1  0  0  0
 15102  1  0  0  0
 16 17  2  0  0  0
 16 21  1  0  0  0
 16 31  1  0  0  0
 17 18  1  0  0  0
 17103  1  0  0  0
 18 19  2  0  0  0
 18104  1  0  0  0
 19 20  1  0  0  0
 19 24  1  0  0  0
 20 21  2  0  0  0
 20105  1  0  0  0
 21 23  1  0  0  0
 22 28  1  0  0  0
 22 32  2  0  0  0
 26 27  1  0  0  0
 28106  1  0  0  0
 28107  1  0  0  0
 29108  1  0  0  0
 29109  1  0  0  0
 33 34  1  0  0  0
 33 66  1  0  0  0
 33 70  2  0  0  0
 34 36  1  0  0  0
 34 59  1  0  0  0
 34110  1  0  0  0
 35 44  2  0  0  0
 35 45  1  0  0  0
 35 68  1  0  0  0
 36 56  1  0  0  0
 36111  1  0  0  0
 37 39  1  0  0  0
 37 47  1  0  0  0
 37 66  1  0  0  0
 37112  1  0  0  0
 38 43  2  0  0  0
 38 46  1  0  0  0
 38 47  1  0  0  0
 39 64  1  0  0  0
 39 67  2  0  0  0
 40 52  1  0  0  0
 40 53  2  0  0  0
 40 58  1  0  0  0
 41113  1  0  0  0
 41114  1  0  0  0
 41115  1  0  0  0
 41 48  1  0  0  0
 42 43  1  0  0  0
 42 66  1  0  0  0
 42116  1  0  0  0
 42117  1  0  0  0
 43 44  1  0  0  0
 44118  1  0  0  0
 45 46  2  0  0  0
 45119  1  0  0  0
 46120  1  0  0  0
 47121  1  0  0  0
 47122  1  0  0  0
 48 56  1  0  0  0
 48 65  1  0  0  0
 48123  1  0  0  0
 49 50  1  0  0  0
 49 53  1  0  0  0
 49 64  1  0  0  0
 49124  1  0  0  0
 50 51  1  0  0  0
 50125  1  0  0  0
 50126  1  0  0  0
 51 52  1  0  0  0
 51127  1  0  0  0
 51128  1  0  0  0
 52129  1  0  0  0
 52130  1  0  0  0
 53 54  1  0  0  0
 54 55  2  0  0  0
 54131  1  0  0  0
 55 57  1  0  0  0
 55132  1  0  0  0
 56 69  2  0  0  0
 57 58  2  0  0  0
 57133  1  0  0  0
 58134  1  0  0  0
 59 60  1  0  0  0
 59 61  1  0  0  0
 59 62  1  0  0  0
 60135  1  0  0  0
 60136  1  0  0  0
 60137  1  0  0  0
 61138  1  0  0  0
 61139  1  0  0  0
 61140  1  0  0  0
 62141  1  0  0  0
 62142  1  0  0  0
 62143  1  0  0  0
 63 65  1  0  0  0
 63144  1  0  0  0
 63145  1  0  0  0
 63146  1  0  0  0
 64147  1  0  0  0
 65148  1  0  0  0
 68 81  1  0  0  0
 71 73  2  0  0  0
 71 74  1  0  0  0
 71149  1  0  0  0
 72 73  1  0  0  0
 72 76  2  0  0  0
 72150  1  0  0  0
 73 83  1  0  0  0
 74 75  2  0  0  0
 74 82  1  0  0  0
 75 76  1  0  0  0
 75 84  1  0  0  0
 76 85  1  0  0  0
 77 78  2  0  0  0
 77 79  1  0  0  0
 77 86  1  0  0  0
 78151  1  0  0  0
 78152  1  0  0  0
 79 81  1  0  0  0
 79153  1  0  0  0
 79154  1  0  0  0
 80 81  1  0  0  0
 80 86  1  0  0  0
 80155  1  0  0  0
 80156  1  0  0  0
 81157  1  0  0  0
 82158  1  0  0  0
 82159  1  0  0  0
 82160  1  0  0  0
 83161  1  0  0  0
 83162  1  0  0  0
 83 86  1  0  0  0
 84 87  1  0  0  0
 84 88  1  0  0  0
 84 89  1  0  0  0
 85163  1  0  0  0
 86164  1  0  0  0
M  CHG  1  86   1
M  ISO  4   1 100  68 101  81 101  85 100
M  END
> <chiral flag>
0

> <version>
0

> <s_m_source_file>
/data/baiqing/PycharmProjects/Reinvent-master-3.2/result/LINK_invent/BTK/process_docking_weight1_custom_product_contain_oxygen_bond_distance_aromatic_linkinvent_7_9_3/rearranged_h_0032.sdf

> <i_m_source_file_index>
26

> <r_mmod_Potential_Energy-OPLS-2005>
278.224792480469

> <r_mmod_Stretch_Energy-OPLS-2005>
140.709884643555

> <r_mmod_Bend_Energy-OPLS-2005>
227.773666381836

> <r_mmod_Torsional_Energy-OPLS-2005>
275.540100097656

> <r_mmod_Improper_Torsional_Energy-OPLS-2005>
10.4438610076904

> <r_mmod_Van_der_Waal_Energy-OPLS-2005>
139.374618530273

> <r_mmod_Electrostatic_Energy-OPLS-2005>
-171.801132202148

> <r_mmod_Solvation_Energy-OPLS-2005>
-447.227447509766

> <b_mmod_Minimization_Converged-OPLS-2005>
0

> <r_mmod_RMS_Derivative-OPLS-2005>
7.1728196144104

$$$$
26
                    3D
 Structure written by MMmdl.
160169  0  0  1  0            999 V2000
  -30.5778  -14.6735   20.4988 C   0  0  0  0  0  0
  -30.4496  -12.4137   19.4517 C   0  0  0  0  0  0
  -29.5133  -12.5121   18.2253 C   0  0  0  0  0  0
  -28.0357  -12.3348   18.6350 C   0  0  0  0  0  0
  -27.6527  -13.1988   19.8644 C   0  0  2  0  0  0
  -28.6982  -13.0570   20.9929 C   0  0  0  0  0  0
  -25.2567  -13.8104   20.5678 C   0  0  0  0  0  0
  -24.1821  -13.0402   20.9209 C   0  0  0  0  0  0
  -24.6370  -11.6868   20.8749 C   0  0  0  0  0  0
  -23.9030  -10.4272   21.0417 C   0  0  0  0  0  0
  -24.3594   -9.4192   21.9193 C   0  0  0  0  0  0
  -23.6275   -8.2223   22.0754 C   0  0  0  0  0  0
  -22.4260   -8.0264   21.3537 C   0  0  0  0  0  0
  -21.9889   -9.0239   20.4648 C   0  0  0  0  0  0
  -22.7207  -10.2123   20.3060 C   0  0  0  0  0  0
  -21.6846   -6.0726   22.5273 C   0  0  0  0  0  0
  -21.4011   -6.5635   23.8207 C   0  0  0  0  0  0
  -21.3662   -5.6786   24.9168 C   0  0  0  0  0  0
  -21.6051   -4.3049   24.7222 C   0  0  0  0  0  0
  -21.8822   -3.8140   23.4340 C   0  0  0  0  0  0
  -21.9192   -4.6952   22.3400 C   0  0  0  0  0  0
  -22.7853  -13.5234   21.1863 C   0  0  0  0  0  0
  -22.1660   -4.2139   21.0975 F   0  0  0  0  0  0
  -21.5636   -3.4539   25.7737 F   0  0  0  0  0  0
  -30.0080  -13.4266   20.4305 N   0  0  0  0  0  0
  -26.2972  -12.9252   20.3302 N   0  0  0  0  0  0
  -25.9290  -11.6430   20.5746 N   0  0  0  0  0  0
  -22.0465  -12.8246   22.0407 N   0  0  0  0  0  0
  -25.4277  -15.1809   20.4081 N   0  0  0  0  0  0
  -31.7420  -14.8684   20.1377 O   0  0  0  0  0  0
  -21.6623   -6.8861   21.4235 O   0  0  0  0  0  0
  -22.3563  -14.5552   20.6700 O   0  0  0  0  0  0
  -24.6250  -31.8588   23.2009 C   0  0  0  0  0  0
  -25.9096  -32.4777   23.8347 C   0  0  1  0  0  0
  -27.2311  -27.3198   20.1159 C   0  0  0  0  0  0
  -25.5911  -33.8576   24.2270 N   0  0  0  0  0  0
  -23.4178  -30.4803   21.5431 C   0  0  2  0  0  0
  -24.8644  -28.9285   20.1128 C   0  0  0  0  0  0
  -22.7467  -29.4605   22.4935 C   0  0  0  0  0  0
  -18.0282  -28.1384   22.8483 C   0  0  0  0  0  0
  -24.1481  -36.7298   23.2640 C   0  0  0  0  0  0
  -25.9569  -30.7895   21.3699 C   0  0  0  0  0  0
  -26.0303  -29.4145   20.7161 C   0  0  0  0  0  0
  -27.2123  -28.6198   20.7086 C   0  0  0  0  0  0
  -26.0376  -26.8739   19.5038 C   0  0  0  0  0  0
  -24.8701  -27.6642   19.5008 C   0  0  0  0  0  0
  -23.6319  -29.8090   20.1601 C   0  0  0  0  0  0
  -25.4113  -36.3085   24.0325 C   0  0  1  0  0  0
  -20.5881  -28.3683   23.1294 C   0  0  2  0  0  0
  -20.6767  -26.9405   22.5417 C   0  0  0  0  0  0
  -19.5747  -26.6377   21.5216 C   0  0  0  0  0  0
  -18.1927  -26.7930   22.1621 C   0  0  0  0  0  0
  -19.1531  -28.8851   23.2889 C   0  0  0  0  0  0
  -18.9457  -30.1459   23.8903 C   0  0  0  0  0  0
  -17.6455  -30.6589   24.0559 C   0  0  0  0  0  0
  -25.9047  -34.9448   23.5097 C   0  0  0  0  0  0
  -16.5346  -29.9085   23.6330 C   0  0  0  0  0  0
  -16.7271  -28.6501   23.0355 C   0  0  0  0  0  0
  -26.4483  -31.6610   25.0734 C   0  0  0  0  0  0
  -25.3720  -31.3763   26.1470 C   0  0  0  0  0  0
  -27.0324  -30.3036   24.6191 C   0  0  0  0  0  0
  -27.6046  -32.4351   25.7501 C   0  0  0  0  0  0
  -27.5582  -37.1804   24.8459 C   0  0  0  0  0  0
  -21.4180  -29.3035   22.3690 N   0  0  0  0  0  0
  -26.4292  -37.3783   23.9402 N   0  0  0  0  0  0
  -24.6853  -31.0599   22.0954 N   0  0  0  0  0  0
  -23.4202  -28.8145   23.3003 O   0  0  0  0  0  0
  -28.3876  -26.5294   20.1655 O   0  0  0  0  0  0
  -26.5615  -34.8914   22.4662 O   0  0  0  0  0  0
  -23.5413  -32.1376   23.7352 O   0  0  0  0  0  0
  -30.2473  -19.4155   21.5335 C   0  0  0  0  0  0
  -29.2046  -20.0554   20.8008 C   0  0  0  0  0  0
  -28.4593  -19.1972   19.9353 C   0  0  0  0  0  0
  -29.7179  -17.1445   20.6725 C   0  0  0  0  0  0
  -30.4882  -18.0069   21.4977 C   0  0  0  0  0  0
  -28.7330  -17.7872   19.8640 C   0  0  0  0  0  0
  -29.9057  -24.7048   19.4696 C   0  0  0  0  0  0
  -29.9841  -23.1554   19.5877 C   0  0  0  0  0  0
  -28.0045  -23.9442   20.6321 C   0  0  0  0  0  0
  -28.4449  -25.1235   19.6984 C   0  0  1  0  0  0
  -27.2935  -19.7401   19.1154 C   0  0  0  0  0  0
  -28.7938  -21.5430   21.1777 C   0  0  0  0  0  0
  -29.7021  -15.6809   20.8110 N   0  0  0  0  0  0
  -28.7075  -22.6826   20.1710 N   0  3  2  0  0  0
  -31.6662  -17.3518   22.5800 Cl  0  0  0  0  0  0
  -27.7861  -16.8104   18.7936 Cl  0  0  0  0  0  0
  -31.4871  -12.5656   19.1484 H   0  0  0  0  0  0
  -30.4106  -11.4165   19.8929 H   0  0  0  0  0  0
  -29.7888  -11.7634   17.4811 H   0  0  0  0  0  0
  -29.6420  -13.4835   17.7442 H   0  0  0  0  0  0
  -27.8748  -11.2800   18.8609 H   0  0  0  0  0  0
  -27.3815  -12.5654   17.7936 H   0  0  0  0  0  0
  -27.6686  -14.2279   19.5184 H   0  0  0  0  0  0
  -28.7240  -12.0330   21.3662 H   0  0  0  0  0  0
  -28.4332  -13.6749   21.8525 H   0  0  0  0  0  0
  -25.2737   -9.5685   22.4770 H   0  0  0  0  0  0
  -24.0001   -7.4619   22.7473 H   0  0  0  0  0  0
  -21.0824   -8.8762   19.8956 H   0  0  0  0  0  0
  -22.3672  -10.9670   19.6178 H   0  0  0  0  0  0
  -21.1993   -7.6140   23.9714 H   0  0  0  0  0  0
  -21.1490   -6.0506   25.9078 H   0  0  0  0  0  0
  -22.0602   -2.7602   23.2827 H   0  0  0  0  0  0
  -22.4060  -11.9911   22.4817 H   0  0  0  0  0  0
  -21.1095  -13.1317   22.2609 H   0  0  0  0  0  0
  -24.6485  -15.8226   20.4938 H   0  0  0  0  0  0
  -26.2384  -15.6063   19.9743 H   0  0  0  0  0  0
  -26.7156  -32.5440   23.1090 H   0  0  0  0  0  0
  -25.0062  -33.9713   25.0416 H   0  0  0  0  0  0
  -22.7116  -31.3010   21.3985 H   0  0  0  0  0  0
  -23.3741  -35.9632   23.3297 H   0  0  0  0  0  0
  -24.3569  -36.8931   22.2058 H   0  0  0  0  0  0
  -23.7234  -37.6496   23.6666 H   0  0  0  0  0  0
  -26.0853  -31.5509   20.5997 H   0  0  0  0  0  0
  -26.8382  -30.8411   21.9980 H   0  0  0  0  0  0
  -28.1100  -28.9922   21.1833 H   0  0  0  0  0  0
  -25.9736  -25.9037   19.0359 H   0  0  0  0  0  0
  -23.9722  -27.2842   19.0323 H   0  0  0  0  0  0
  -23.7481  -30.5820   19.4000 H   0  0  0  0  0  0
  -22.7528  -29.2363   19.8608 H   0  0  0  0  0  0
  -25.1294  -36.1938   25.0819 H   0  0  0  0  0  0
  -20.9983  -28.3254   24.1414 H   0  0  0  0  0  0
  -20.5678  -26.2286   23.3615 H   0  0  0  0  0  0
  -21.6629  -26.7439   22.1203 H   0  0  0  0  0  0
  -19.6903  -25.6284   21.1253 H   0  0  0  0  0  0
  -19.6697  -27.3177   20.6743 H   0  0  0  0  0  0
  -17.4202  -26.6690   21.4021 H   0  0  0  0  0  0
  -18.0322  -26.0084   22.9024 H   0  0  0  0  0  0
  -19.7934  -30.7274   24.2281 H   0  0  0  0  0  0
  -17.5007  -31.6272   24.5149 H   0  0  0  0  0  0
  -15.5342  -30.2979   23.7664 H   0  0  0  0  0  0
  -15.8676  -28.0823   22.7068 H   0  0  0  0  0  0
  -24.5835  -30.7195   25.7780 H   0  0  0  0  0  0
  -24.8988  -32.2947   26.4956 H   0  0  0  0  0  0
  -25.8035  -30.8867   27.0211 H   0  0  0  0  0  0
  -26.2896  -29.6804   24.1200 H   0  0  0  0  0  0
  -27.3999  -29.7291   25.4704 H   0  0  0  0  0  0
  -27.8775  -30.4318   23.9422 H   0  0  0  0  0  0
  -27.2642  -33.3625   26.2115 H   0  0  0  0  0  0
  -28.3835  -32.6969   25.0328 H   0  0  0  0  0  0
  -28.0742  -31.8472   26.5396 H   0  0  0  0  0  0
  -28.2593  -38.0106   24.7504 H   0  0  0  0  0  0
  -28.1078  -36.2634   24.6275 H   0  0  0  0  0  0
  -27.2295  -37.1448   25.8860 H   0  0  0  0  0  0
  -20.9361  -29.8778   21.6918 H   0  0  0  0  0  0
  -26.0172  -38.2854   24.1412 H   0  0  0  0  0  0
  -30.8276  -20.0016   22.2324 H   0  0  0  0  0  0
  -30.2836  -25.0651   18.5124 H   0  0  0  0  0  0
  -30.5300  -25.1491   20.2447 H   0  0  0  0  0  0
  -30.8352  -22.8667   20.2060 H   0  0  0  0  0  0
  -30.1221  -22.6889   18.6121 H   0  0  0  0  0  0
  -26.9225  -23.8166   20.6427 H   0  0  0  0  0  0
  -28.3137  -24.1682   21.6539 H   0  0  0  0  0  0
  -27.9349  -25.0298   18.7394 H   0  0  0  0  0  0
  -27.0870  -20.7933   19.2810 H   0  0  0  0  0  0
  -26.3776  -19.2000   19.3583 H   0  0  0  0  0  0
  -27.4888  -19.6082   18.0508 H   0  0  0  0  0  0
  -29.4422  -21.8774   21.9877 H   0  0  0  0  0  0
  -27.8084  -21.4626   21.6374 H   0  0  0  0  0  0
  -28.7785  -15.3149   20.9750 H   0  0  0  0  0  0
  -28.1678  -22.3316   19.3937 H   0  0  0  0  0  0
  1 25  1  0  0  0
  1 30  2  0  0  0
  1 83  1  0  0  0
  2  3  1  0  0  0
  2 25  1  0  0  0
  2 87  1  0  0  0
  2 88  1  0  0  0
  3  4  1  0  0  0
  3 89  1  0  0  0
  3 90  1  0  0  0
  4  5  1  0  0  0
  4 91  1  0  0  0
  4 92  1  0  0  0
  5  6  1  0  0  0
  5 26  1  0  0  0
  5 93  1  0  0  0
  6 25  1  0  0  0
  6 94  1  0  0  0
  6 95  1  0  0  0
  7  8  2  0  0  0
  7 26  1  0  0  0
  7 29  1  0  0  0
  8  9  1  0  0  0
  8 22  1  0  0  0
  9 10  1  0  0  0
  9 27  2  0  0  0
 10 11  2  0  0  0
 10 15  1  0  0  0
 11 12  1  0  0  0
 11 96  1  0  0  0
 12 13  2  0  0  0
 12 97  1  0  0  0
 13 14  1  0  0  0
 13 31  1  0  0  0
 14 15  2  0  0  0
 14 98  1  0  0  0
 15 99  1  0  0  0
 16 17  2  0  0  0
 16 21  1  0  0  0
 16 31  1  0  0  0
 17 18  1  0  0  0
 17100  1  0  0  0
 18 19  2  0  0  0
 18101  1  0  0  0
 19 20  1  0  0  0
 19 24  1  0  0  0
 20 21  2  0  0  0
 20102  1  0  0  0
 21 23  1  0  0  0
 22 28  1  0  0  0
 22 32  2  0  0  0
 26 27  1  0  0  0
 28103  1  0  0  0
 28104  1  0  0  0
 29105  1  0  0  0
 29106  1  0  0  0
 33 34  1  0  0  0
 33 66  1  0  0  0
 33 70  2  0  0  0
 34 36  1  0  0  0
 34 59  1  0  0  0
 34107  1  0  0  0
 35 44  2  0  0  0
 35 45  1  0  0  0
 35 68  1  0  0  0
 36 56  1  0  0  0
 36108  1  0  0  0
 37 39  1  0  0  0
 37 47  1  0  0  0
 37 66  1  0  0  0
 37109  1  0  0  0
 38 43  2  0  0  0
 38 46  1  0  0  0
 38 47  1  0  0  0
 39 64  1  0  0  0
 39 67  2  0  0  0
 40 52  1  0  0  0
 40 53  2  0  0  0
 40 58  1  0  0  0
 41110  1  0  0  0
 41111  1  0  0  0
 41112  1  0  0  0
 41 48  1  0  0  0
 42 43  1  0  0  0
 42 66  1  0  0  0
 42113  1  0  0  0
 42114  1  0  0  0
 43 44  1  0  0  0
 44115  1  0  0  0
 45 46  2  0  0  0
 45116  1  0  0  0
 46117  1  0  0  0
 47118  1  0  0  0
 47119  1  0  0  0
 48 56  1  0  0  0
 48 65  1  0  0  0
 48120  1  0  0  0
 49 50  1  0  0  0
 49 53  1  0  0  0
 49 64  1  0  0  0
 49121  1  0  0  0
 50 51  1  0  0  0
 50122  1  0  0  0
 50123  1  0  0  0
 51 52  1  0  0  0
 51124  1  0  0  0
 51125  1  0  0  0
 52126  1  0  0  0
 52127  1  0  0  0
 53 54  1  0  0  0
 54 55  2  0  0  0
 54128  1  0  0  0
 55 57  1  0  0  0
 55129  1  0  0  0
 56 69  2  0  0  0
 57 58  2  0  0  0
 57130  1  0  0  0
 58131  1  0  0  0
 59 60  1  0  0  0
 59 61  1  0  0  0
 59 62  1  0  0  0
 60132  1  0  0  0
 60133  1  0  0  0
 60134  1  0  0  0
 61135  1  0  0  0
 61136  1  0  0  0
 61137  1  0  0  0
 62138  1  0  0  0
 62139  1  0  0  0
 62140  1  0  0  0
 63 65  1  0  0  0
 63141  1  0  0  0
 63142  1  0  0  0
 63143  1  0  0  0
 64144  1  0  0  0
 65145  1  0  0  0
 68 80  1  0  0  0
 71 72  2  0  0  0
 71 75  1  0  0  0
 71146  1  0  0  0
 72 73  1  0  0  0
 72 82  1  0  0  0
 73 76  2  0  0  0
 73 81  1  0  0  0
 74 75  2  0  0  0
 74 76  1  0  0  0
 74 83  1  0  0  0
 75 85  1  0  0  0
 76 86  1  0  0  0
 77 78  1  0  0  0
 77 80  1  0  0  0
 77147  1  0  0  0
 77148  1  0  0  0
 78 84  1  0  0  0
 78149  1  0  0  0
 78150  1  0  0  0
 79 80  1  0  0  0
 79 84  1  0  0  0
 79151  1  0  0  0
 79152  1  0  0  0
 80153  1  0  0  0
 81154  1  0  0  0
 81155  1  0  0  0
 81156  1  0  0  0
 82157  1  0  0  0
 82158  1  0  0  0
 82 84  1  0  0  0
 83159  1  0  0  0
 84160  1  0  0  0
M  CHG  1  84   1
M  ISO  4   1 100  68 101  80 101  83 100
M  END
> <chiral flag>
0

> <version>
0

> <s_m_source_file>
/data/baiqing/PycharmProjects/Reinvent-master-3.2/result/LINK_invent/BTK/process_docking_weight1_custom_product_contain_oxygen_bond_distance_aromatic_linkinvent_7_9_3/rearranged_h_0032.sdf

> <i_m_source_file_index>
27

> <r_mmod_Potential_Energy-OPLS-2005>
-24.8760013580322

> <r_mmod_Stretch_Energy-OPLS-2005>
81.8936462402344

> <r_mmod_Bend_Energy-OPLS-2005>
182.322769165039

> <r_mmod_Torsional_Energy-OPLS-2005>
290.540435791016

> <r_mmod_Improper_Torsional_Energy-OPLS-2005>
8.97262191772461

> <r_mmod_Van_der_Waal_Energy-OPLS-2005>
132.270309448242

> <r_mmod_Electrostatic_Energy-OPLS-2005>
-316.820892333984

> <r_mmod_Solvation_Energy-OPLS-2005>
-457.105499267578

> <b_mmod_Minimization_Converged-OPLS-2005>
0

> <r_mmod_RMS_Derivative-OPLS-2005>
1.69472432136536

$$$$
27
                    3D
 Structure written by MMmdl.
170179  0  0  1  0            999 V2000
  -30.6715  -14.6517   20.6228 C   0  0  0  0  0  0
  -30.4283  -12.4331   19.4810 C   0  0  0  0  0  0
  -29.5237  -12.5343   18.2355 C   0  0  0  0  0  0
  -28.0507  -12.3383   18.6394 C   0  0  0  0  0  0
  -27.6495  -13.2239   19.8480 C   0  0  2  0  0  0
  -28.6730  -13.1007   20.9987 C   0  0  0  0  0  0
  -25.2494  -13.8154   20.5564 C   0  0  0  0  0  0
  -24.1800  -13.0417   20.9103 C   0  0  0  0  0  0
  -24.6357  -11.6850   20.8670 C   0  0  0  0  0  0
  -23.9037  -10.4256   21.0365 C   0  0  0  0  0  0
  -24.3599   -9.4166   21.9139 C   0  0  0  0  0  0
  -23.6243   -8.2215   22.0746 C   0  0  0  0  0  0
  -22.4204   -8.0269   21.3570 C   0  0  0  0  0  0
  -21.9862   -9.0216   20.4629 C   0  0  0  0  0  0
  -22.7205  -10.2073   20.3025 C   0  0  0  0  0  0
  -21.6773   -6.0692   22.5297 C   0  0  0  0  0  0
  -21.3952   -6.5594   23.8214 C   0  0  0  0  0  0
  -21.3720   -5.6754   24.9203 C   0  0  0  0  0  0
  -21.6090   -4.3019   24.7236 C   0  0  0  0  0  0
  -21.8784   -3.8105   23.4335 C   0  0  0  0  0  0
  -21.9135   -4.6932   22.3400 C   0  0  0  0  0  0
  -22.7804  -13.5195   21.1769 C   0  0  0  0  0  0
  -22.1591   -4.2123   21.0960 F   0  0  0  0  0  0
  -21.5713   -3.4511   25.7749 F   0  0  0  0  0  0
  -30.0002  -13.4549   20.4688 N   0  0  0  0  0  0
  -26.2911  -12.9367   20.3096 N   0  0  0  0  0  0
  -25.9314  -11.6500   20.5660 N   0  0  0  0  0  0
  -22.0372  -12.8280   22.0315 N   0  0  0  0  0  0
  -25.4167  -15.1918   20.4030 N   0  0  0  0  0  0
  -31.7655  -14.8077   20.0687 O   0  0  0  0  0  0
  -21.6556   -6.8869   21.4266 O   0  0  0  0  0  0
  -22.3550  -14.5538   20.6600 O   0  0  0  0  0  0
  -24.6297  -31.8656   23.2030 C   0  0  0  0  0  0
  -25.9190  -32.4810   23.8358 C   0  0  1  0  0  0
  -27.2145  -27.2986   20.0674 C   0  0  0  0  0  0
  -25.5994  -33.8618   24.2250 N   0  0  0  0  0  0
  -23.4223  -30.4916   21.5449 C   0  0  2  0  0  0
  -24.8595  -28.9348   20.1192 C   0  0  0  0  0  0
  -22.7463  -29.4701   22.4875 C   0  0  0  0  0  0
  -18.0326  -28.1432   22.8483 C   0  0  0  0  0  0
  -24.1521  -36.7295   23.2596 C   0  0  0  0  0  0
  -25.9723  -30.7794   21.3834 C   0  0  0  0  0  0
  -26.0405  -29.4085   20.7087 C   0  0  0  0  0  0
  -27.2237  -28.6065   20.6662 C   0  0  0  0  0  0
  -26.0000  -26.8802   19.4823 C   0  0  0  0  0  0
  -24.8364  -27.6719   19.5090 C   0  0  0  0  0  0
  -23.6403  -29.8334   20.1598 C   0  0  0  0  0  0
  -25.4147  -36.3072   24.0266 C   0  0  1  0  0  0
  -20.5914  -28.3768   23.1249 C   0  0  2  0  0  0
  -20.6787  -26.9478   22.5383 C   0  0  0  0  0  0
  -19.5771  -26.6438   21.5164 C   0  0  0  0  0  0
  -18.1951  -26.7981   22.1584 C   0  0  0  0  0  0
  -19.1564  -28.8896   23.2885 C   0  0  0  0  0  0
  -18.9464  -30.1463   23.8966 C   0  0  0  0  0  0
  -17.6461  -30.6624   24.0579 C   0  0  0  0  0  0
  -25.9090  -34.9471   23.5033 C   0  0  0  0  0  0
  -16.5369  -29.9133   23.6331 C   0  0  0  0  0  0
  -16.7298  -28.6537   23.0385 C   0  0  0  0  0  0
  -26.4520  -31.6684   25.0790 C   0  0  0  0  0  0
  -25.3714  -31.3955   26.1502 C   0  0  0  0  0  0
  -27.0266  -30.3043   24.6356 C   0  0  0  0  0  0
  -27.6086  -32.4391   25.7585 C   0  0  0  0  0  0
  -27.5610  -37.1823   24.8427 C   0  0  0  0  0  0
  -21.4171  -29.3147   22.3652 N   0  0  0  0  0  0
  -26.4333  -37.3764   23.9370 N   0  0  0  0  0  0
  -24.6931  -31.0655   22.0975 N   0  0  0  0  0  0
  -23.4196  -28.8219   23.2931 O   0  0  0  0  0  0
  -28.3365  -26.4438   20.0219 O   0  0  0  0  0  0
  -26.5626  -34.8914   22.4592 O   0  0  0  0  0  0
  -23.5487  -32.1470   23.7377 O   0  0  0  0  0  0
  -30.8686  -19.2631   20.2791 C   0  0  0  0  0  0
  -30.9364  -17.8422   20.4230 C   0  0  0  0  0  0
  -29.8075  -20.0524   20.8042 C   0  0  0  0  0  0
  -28.7748  -19.3074   21.4599 C   0  0  0  0  0  0
  -28.8448  -17.8662   21.6064 C   0  0  0  0  0  0
  -29.9529  -17.0852   21.1169 C   0  0  0  0  0  0
  -28.4907  -22.7201   18.9536 C   0  0  0  0  0  0
  -28.3445  -21.7725   17.9949 C   0  0  0  0  0  0
  -27.7719  -24.0814   18.9046 C   0  0  0  0  0  0
  -29.3841  -24.1542   20.7046 C   0  0  0  0  0  0
  -28.1623  -24.9504   20.1340 C   0  0  2  0  0  0
  -27.6176  -20.0649   22.1159 C   0  0  0  0  0  0
  -27.6955  -17.1685   22.3337 C   0  0  0  0  0  0
  -29.1325  -20.5034   17.7493 C   0  0  0  0  0  0
  -30.4859  -15.3946   22.8611 C   0  0  0  0  0  0
  -29.9864  -21.6337   20.9631 C   0  0  0  0  0  0
  -30.1521  -15.6431   21.4469 N   0  0  0  0  0  0
  -29.5323  -22.7907   20.0356 N   0  3  2  0  0  0
  -31.4793  -12.5274   19.2027 H   0  0  0  0  0  0
  -30.3392  -11.4347   19.9139 H   0  0  0  0  0  0
  -29.8138  -11.7732   17.5132 H   0  0  0  0  0  0
  -29.6745  -13.4979   17.7420 H   0  0  0  0  0  0
  -27.9395  -11.2931   18.9209 H   0  0  0  0  0  0
  -27.3925  -12.4921   17.7855 H   0  0  0  0  0  0
  -27.6681  -14.2577   19.4960 H   0  0  0  0  0  0
  -28.6873  -12.0813   21.3850 H   0  0  0  0  0  0
  -28.3587  -13.7390   21.8232 H   0  0  0  0  0  0
  -25.2754   -9.5615   22.4720 H   0  0  0  0  0  0
  -23.9915   -7.4584   22.7471 H   0  0  0  0  0  0
  -21.0781   -8.8715   19.8947 H   0  0  0  0  0  0
  -22.3638  -10.9620   19.6141 H   0  0  0  0  0  0
  -21.1881   -7.6074   23.9726 H   0  0  0  0  0  0
  -21.1622   -6.0476   25.9120 H   0  0  0  0  0  0
  -22.0504   -2.7555   23.2828 H   0  0  0  0  0  0
  -22.3888  -12.0072   22.5018 H   0  0  0  0  0  0
  -21.1010  -13.1464   22.2420 H   0  0  0  0  0  0
  -24.6452  -15.8381   20.5320 H   0  0  0  0  0  0
  -26.2431  -15.6473   20.0442 H   0  0  0  0  0  0
  -26.7249  -32.5412   23.1074 H   0  0  0  0  0  0
  -25.0207  -33.9759   25.0433 H   0  0  0  0  0  0
  -22.7230  -31.3172   21.4008 H   0  0  0  0  0  0
  -23.3749  -35.9664   23.3290 H   0  0  0  0  0  0
  -24.3635  -36.8898   22.2015 H   0  0  0  0  0  0
  -23.7325  -37.6512   23.6630 H   0  0  0  0  0  0
  -26.1304  -31.5529   20.6317 H   0  0  0  0  0  0
  -26.8428  -30.8070   22.0296 H   0  0  0  0  0  0
  -28.1356  -28.9771   21.1131 H   0  0  0  0  0  0
  -25.9275  -25.9287   18.9878 H   0  0  0  0  0  0
  -23.9184  -27.3092   19.0614 H   0  0  0  0  0  0
  -23.7837  -30.6181   19.4132 H   0  0  0  0  0  0
  -22.7537  -29.2847   19.8389 H   0  0  0  0  0  0
  -25.1341  -36.1875   25.0746 H   0  0  0  0  0  0
  -21.0031  -28.3322   24.1360 H   0  0  0  0  0  0
  -20.5585  -26.2390   23.3601 H   0  0  0  0  0  0
  -21.6661  -26.7451   22.1217 H   0  0  0  0  0  0
  -19.6896  -25.6316   21.1266 H   0  0  0  0  0  0
  -19.6708  -27.3188   20.6629 H   0  0  0  0  0  0
  -17.4208  -26.6782   21.3994 H   0  0  0  0  0  0
  -18.0327  -26.0117   22.8967 H   0  0  0  0  0  0
  -19.7927  -30.7242   24.2419 H   0  0  0  0  0  0
  -17.5037  -31.6301   24.5180 H   0  0  0  0  0  0
  -15.5369  -30.3076   23.7592 H   0  0  0  0  0  0
  -15.8705  -28.0842   22.7147 H   0  0  0  0  0  0
  -24.5966  -30.7146   25.7942 H   0  0  0  0  0  0
  -24.8799  -32.3179   26.4628 H   0  0  0  0  0  0
  -25.8035  -30.9446   27.0440 H   0  0  0  0  0  0
  -26.2860  -29.6926   24.1193 H   0  0  0  0  0  0
  -27.3597  -29.7211   25.4940 H   0  0  0  0  0  0
  -27.8908  -30.4157   23.9804 H   0  0  0  0  0  0
  -27.2694  -33.3689   26.2142 H   0  0  0  0  0  0
  -28.3981  -32.6950   25.0516 H   0  0  0  0  0  0
  -28.0679  -31.8537   26.5548 H   0  0  0  0  0  0
  -28.2549  -38.0179   24.7518 H   0  0  0  0  0  0
  -28.1178  -36.2723   24.6188 H   0  0  0  0  0  0
  -27.2373  -37.1392   25.8832 H   0  0  0  0  0  0
  -20.9333  -29.8931   21.6926 H   0  0  0  0  0  0
  -26.0175  -38.2809   24.1375 H   0  0  0  0  0  0
  -31.7041  -19.7602   19.8053 H   0  0  0  0  0  0
  -31.8255  -17.3470   20.0572 H   0  0  0  0  0  0
  -27.5667  -21.9225   17.2674 H   0  0  0  0  0  0
  -26.6999  -23.8915   18.8586 H   0  0  0  0  0  0
  -28.0404  -24.5760   17.9687 H   0  0  0  0  0  0
  -29.2576  -24.0722   21.7826 H   0  0  0  0  0  0
  -30.2870  -24.7445   20.5522 H   0  0  0  0  0  0
  -27.3580  -24.8158   20.8549 H   0  0  0  0  0  0
  -27.6218  -21.1372   21.9239 H   0  0  0  0  0  0
  -27.6587  -19.9386   23.1949 H   0  0  0  0  0  0
  -26.6498  -19.6897   21.7825 H   0  0  0  0  0  0
  -27.7045  -16.0905   22.1936 H   0  0  0  0  0  0
  -26.7317  -17.5176   21.9598 H   0  0  0  0  0  0
  -27.7352  -17.3774   23.4041 H   0  0  0  0  0  0
  -30.1562  -20.5524   18.1165 H   0  0  0  0  0  0
  -29.2038  -20.3345   16.6713 H   0  0  0  0  0  0
  -28.6237  -19.6383   18.1776 H   0  0  0  0  0  0
  -29.9817  -14.5099   23.2516 H   0  0  0  0  0  0
  -30.2342  -16.2310   23.5095 H   0  0  0  0  0  0
  -31.5599  -15.2292   22.9880 H   0  0  0  0  0  0
  -31.0720  -21.7605   20.9681 H   0  0  0  0  0  0
  -29.7198  -21.8629   21.9972 H   0  0  0  0  0  0
  -30.3904  -22.9150   19.5201 H   0  0  0  0  0  0
  1 25  1  0  0  0
  1 30  2  0  0  0
  1 87  1  0  0  0
  2  3  1  0  0  0
  2 25  1  0  0  0
  2 89  1  0  0  0
  2 90  1  0  0  0
  3  4  1  0  0  0
  3 91  1  0  0  0
  3 92  1  0  0  0
  4  5  1  0  0  0
  4 93  1  0  0  0
  4 94  1  0  0  0
  5  6  1  0  0  0
  5 26  1  0  0  0
  5 95  1  0  0  0
  6 25  1  0  0  0
  6 96  1  0  0  0
  6 97  1  0  0  0
  7  8  2  0  0  0
  7 26  1  0  0  0
  7 29  1  0  0  0
  8  9  1  0  0  0
  8 22  1  0  0  0
  9 10  1  0  0  0
  9 27  2  0  0  0
 10 11  2  0  0  0
 10 15  1  0  0  0
 11 12  1  0  0  0
 11 98  1  0  0  0
 12 13  2  0  0  0
 12 99  1  0  0  0
 13 14  1  0  0  0
 13 31  1  0  0  0
 14 15  2  0  0  0
 14100  1  0  0  0
 15101  1  0  0  0
 16 17  2  0  0  0
 16 21  1  0  0  0
 16 31  1  0  0  0
 17 18  1  0  0  0
 17102  1  0  0  0
 18 19  2  0  0  0
 18103  1  0  0  0
 19 20  1  0  0  0
 19 24  1  0  0  0
 20 21  2  0  0  0
 20104  1  0  0  0
 21 23  1  0  0  0
 22 28  1  0  0  0
 22 32  2  0  0  0
 26 27  1  0  0  0
 28105  1  0  0  0
 28106  1  0  0  0
 29107  1  0  0  0
 29108  1  0  0  0
 33 34  1  0  0  0
 33 66  1  0  0  0
 33 70  2  0  0  0
 34 36  1  0  0  0
 34 59  1  0  0  0
 34109  1  0  0  0
 35 44  2  0  0  0
 35 45  1  0  0  0
 35 68  1  0  0  0
 36 56  1  0  0  0
 36110  1  0  0  0
 37 39  1  0  0  0
 37 47  1  0  0  0
 37 66  1  0  0  0
 37111  1  0  0  0
 38 43  2  0  0  0
 38 46  1  0  0  0
 38 47  1  0  0  0
 39 64  1  0  0  0
 39 67  2  0  0  0
 40 52  1  0  0  0
 40 53  2  0  0  0
 40 58  1  0  0  0
 41112  1  0  0  0
 41113  1  0  0  0
 41114  1  0  0  0
 41 48  1  0  0  0
 42 43  1  0  0  0
 42 66  1  0  0  0
 42115  1  0  0  0
 42116  1  0  0  0
 43 44  1  0  0  0
 44117  1  0  0  0
 45 46  2  0  0  0
 45118  1  0  0  0
 46119  1  0  0  0
 47120  1  0  0  0
 47121  1  0  0  0
 48 56  1  0  0  0
 48 65  1  0  0  0
 48122  1  0  0  0
 49 50  1  0  0  0
 49 53  1  0  0  0
 49 64  1  0  0  0
 49123  1  0  0  0
 50 51  1  0  0  0
 50124  1  0  0  0
 50125  1  0  0  0
 51 52  1  0  0  0
 51126  1  0  0  0
 51127  1  0  0  0
 52128  1  0  0  0
 52129  1  0  0  0
 53 54  1  0  0  0
 54 55  2  0  0  0
 54130  1  0  0  0
 55 57  1  0  0  0
 55131  1  0  0  0
 56 69  2  0  0  0
 57 58  2  0  0  0
 57132  1  0  0  0
 58133  1  0  0  0
 59 60  1  0  0  0
 59 61  1  0  0  0
 59 62  1  0  0  0
 60134  1  0  0  0
 60135  1  0  0  0
 60136  1  0  0  0
 61137  1  0  0  0
 61138  1  0  0  0
 61139  1  0  0  0
 62140  1  0  0  0
 62141  1  0  0  0
 62142  1  0  0  0
 63 65  1  0  0  0
 63143  1  0  0  0
 63144  1  0  0  0
 63145  1  0  0  0
 64146  1  0  0  0
 65147  1  0  0  0
 68 81  1  0  0  0
 71 72  2  0  0  0
 71 73  1  0  0  0
 71148  1  0  0  0
 72 76  1  0  0  0
 72149  1  0  0  0
 73 74  2  0  0  0
 73 86  1  0  0  0
 74 75  1  0  0  0
 74 82  1  0  0  0
 75 76  2  0  0  0
 75 83  1  0  0  0
 76 87  1  0  0  0
 77 78  2  0  0  0
 77 79  1  0  0  0
 77 88  1  0  0  0
 78 84  1  0  0  0
 78150  1  0  0  0
 79 81  1  0  0  0
 79151  1  0  0  0
 79152  1  0  0  0
 80 81  1  0  0  0
 80 88  1  0  0  0
 80153  1  0  0  0
 80154  1  0  0  0
 81155  1  0  0  0
 82156  1  0  0  0
 82157  1  0  0  0
 82158  1  0  0  0
 83159  1  0  0  0
 83160  1  0  0  0
 83161  1  0  0  0
 84162  1  0  0  0
 84163  1  0  0  0
 84164  1  0  0  0
 85 87  1  0  0  0
 85165  1  0  0  0
 85166  1  0  0  0
 85167  1  0  0  0
 86168  1  0  0  0
 86169  1  0  0  0
 86 88  1  0  0  0
 88170  1  0  0  0
M  CHG  1  88   1
M  ISO  4   1 100  68 101  81 101  87 100
M  END
> <chiral flag>
0

> <version>
0

> <s_m_source_file>
/data/baiqing/PycharmProjects/Reinvent-master-3.2/result/LINK_invent/BTK/process_docking_weight1_custom_product_contain_oxygen_bond_distance_aromatic_linkinvent_7_9_3/rearranged_h_0032.sdf

> <i_m_source_file_index>
28

> <r_mmod_Potential_Energy-OPLS-2005>
286.99462890625

> <r_mmod_Stretch_Energy-OPLS-2005>
120.842292785645

> <r_mmod_Bend_Energy-OPLS-2005>
242.261825561523

> <r_mmod_Torsional_Energy-OPLS-2005>
357.496459960938

> <r_mmod_Improper_Torsional_Energy-OPLS-2005>
8.41693210601807

> <r_mmod_Van_der_Waal_Energy-OPLS-2005>
138.297622680664

> <r_mmod_Electrostatic_Energy-OPLS-2005>
-229.02473449707

> <r_mmod_Solvation_Energy-OPLS-2005>
-405.677886962891

> <b_mmod_Minimization_Converged-OPLS-2005>
0

> <r_mmod_RMS_Derivative-OPLS-2005>
9.20366382598877

$$$$
28
                    3D
 Structure written by MMmdl.
150158  0  0  1  0            999 V2000
  -30.4824  -15.1820   20.3820 C   0  0  0  0  0  0
  -30.4385  -12.7510   19.5176 C   0  0  0  0  0  0
  -29.5294  -12.5556   18.2793 C   0  0  0  0  0  0
  -28.0757  -12.2955   18.7103 C   0  0  0  0  0  0
  -27.6154  -13.2679   19.8252 C   0  0  2  0  0  0
  -28.6535  -13.4148   20.9583 C   0  0  0  0  0  0
  -25.2411  -13.8244   20.5744 C   0  0  0  0  0  0
  -24.1751  -13.0439   20.9244 C   0  0  0  0  0  0
  -24.6401  -11.6934   20.8763 C   0  0  0  0  0  0
  -23.9097  -10.4293   21.0412 C   0  0  0  0  0  0
  -24.3642   -9.4203   21.9187 C   0  0  0  0  0  0
  -23.6304   -8.2245   22.0760 C   0  0  0  0  0  0
  -22.4285   -8.0287   21.3550 C   0  0  0  0  0  0
  -21.9929   -9.0263   20.4650 C   0  0  0  0  0  0
  -22.7268  -10.2135   20.3059 C   0  0  0  0  0  0
  -21.6855   -6.0740   22.5278 C   0  0  0  0  0  0
  -21.4014   -6.5642   23.8210 C   0  0  0  0  0  0
  -21.3656   -5.6791   24.9169 C   0  0  0  0  0  0
  -21.6044   -4.3054   24.7218 C   0  0  0  0  0  0
  -21.8818   -3.8150   23.4338 C   0  0  0  0  0  0
  -21.9192   -4.6970   22.3396 C   0  0  0  0  0  0
  -22.7768  -13.5197   21.1886 C   0  0  0  0  0  0
  -22.1661   -4.2159   21.0971 F   0  0  0  0  0  0
  -21.5628   -3.4534   25.7730 F   0  0  0  0  0  0
  -29.8959  -13.8933   20.3339 N   0  0  0  0  0  0
  -26.2835  -12.9504   20.3234 N   0  0  0  0  0  0
  -25.9335  -11.6618   20.5739 N   0  0  0  0  0  0
  -22.0426  -12.8180   22.0442 N   0  0  0  0  0  0
  -25.4060  -15.1978   20.4183 N   0  0  0  0  0  0
  -31.7014  -15.1802   20.1683 O   0  0  0  0  0  0
  -21.6644   -6.8888   21.4242 O   0  0  0  0  0  0
  -22.3450  -14.5501   20.6727 O   0  0  0  0  0  0
  -24.6586  -31.8294   23.1756 C   0  0  0  0  0  0
  -25.9286  -32.4621   23.8202 C   0  0  1  0  0  0
  -27.2169  -26.9781   20.1693 C   0  0  0  0  0  0
  -25.5967  -33.8433   24.2106 N   0  0  0  0  0  0
  -23.4709  -30.4448   21.5243 C   0  0  2  0  0  0
  -24.9246  -28.8469   20.1088 C   0  0  0  0  0  0
  -22.7648  -29.4477   22.4803 C   0  0  0  0  0  0
  -18.0321  -28.1417   22.8462 C   0  0  0  0  0  0
  -24.1492  -36.7217   23.2648 C   0  0  0  0  0  0
  -26.0390  -30.6514   21.3997 C   0  0  0  0  0  0
  -26.1077  -29.2479   20.7415 C   0  0  0  0  0  0
  -27.2503  -28.3333   20.7516 C   0  0  0  0  0  0
  -26.0059  -26.7274   19.4825 C   0  0  0  0  0  0
  -24.8968  -27.6056   19.4588 C   0  0  0  0  0  0
  -23.7069  -29.7663   20.1481 C   0  0  0  0  0  0
  -25.4131  -36.2988   24.0306 C   0  0  1  0  0  0
  -20.5944  -28.3753   23.1203 C   0  0  2  0  0  0
  -20.6798  -26.9441   22.5410 C   0  0  0  0  0  0
  -19.5773  -26.6385   21.5221 C   0  0  0  0  0  0
  -18.1950  -26.7951   22.1615 C   0  0  0  0  0  0
  -19.1585  -28.8904   23.2820 C   0  0  0  0  0  0
  -18.9498  -30.1492   23.8858 C   0  0  0  0  0  0
  -17.6493  -30.6603   24.0561 C   0  0  0  0  0  0
  -25.9096  -34.9369   23.5025 C   0  0  0  0  0  0
  -16.5381  -29.9096   23.6349 C   0  0  0  0  0  0
  -16.7305  -28.6517   23.0359 C   0  0  0  0  0  0
  -26.4555  -31.6546   25.0709 C   0  0  0  0  0  0
  -25.3694  -31.3788   26.1377 C   0  0  0  0  0  0
  -27.0434  -30.2914   24.6406 C   0  0  0  0  0  0
  -27.6066  -32.4339   25.7492 C   0  0  0  0  0  0
  -27.5574  -37.1759   24.8465 C   0  0  0  0  0  0
  -21.4324  -29.3045   22.3550 N   0  0  0  0  0  0
  -26.4278  -37.3722   23.9416 N   0  0  0  0  0  0
  -24.7440  -31.0005   22.0870 N   0  0  0  0  0  0
  -23.4215  -28.8041   23.3025 O   0  0  0  0  0  0
  -28.2049  -25.8731   20.2548 O   0  0  0  0  0  0
  -26.5707  -34.8889   22.4622 O   0  0  0  0  0  0
  -23.5666  -32.1246   23.6875 O   0  0  0  0  0  0
  -28.7396  -20.2406   19.2819 C   0  0  0  0  0  0
  -29.2318  -22.1081   21.2366 C   0  0  0  0  0  0
  -28.3179  -21.6598   19.1648 C   0  0  0  0  0  0
  -29.4420  -19.6067   20.3785 C   0  0  0  0  0  0
  -28.5395  -22.7453   20.1286 C   0  0  0  0  0  0
  -29.6573  -20.6860   21.3477 C   0  0  0  0  0  0
  -27.5607  -22.0050   17.8926 C   0  0  0  0  0  0
  -30.1882  -18.0345   20.3925 C   0  0  0  0  0  0
  -27.8084  -24.3222   19.9944 C   0  0  0  0  0  0
  -29.7448  -16.4512   20.4645 N   0  0  0  0  0  0
  -30.5231  -20.2853   22.7876 Cl  0  0  0  0  0  0
  -31.4609  -12.9390   19.1874 H   0  0  0  0  0  0
  -30.4866  -11.8381   20.1130 H   0  0  0  0  0  0
  -29.8933  -11.7289   17.6676 H   0  0  0  0  0  0
  -29.5711  -13.4459   17.6497 H   0  0  0  0  0  0
  -28.0229  -11.2695   19.0777 H   0  0  0  0  0  0
  -27.4042  -12.3461   17.8524 H   0  0  0  0  0  0
  -27.5402  -14.2410   19.3381 H   0  0  0  0  0  0
  -28.8022  -12.4723   21.4877 H   0  0  0  0  0  0
  -28.3097  -14.1381   21.6990 H   0  0  0  0  0  0
  -25.2787   -9.5674   22.4763 H   0  0  0  0  0  0
  -24.0004   -7.4640   22.7486 H   0  0  0  0  0  0
  -21.0859   -8.8790   19.8960 H   0  0  0  0  0  0
  -22.3732  -10.9676   19.6171 H   0  0  0  0  0  0
  -21.2009   -7.6151   23.9718 H   0  0  0  0  0  0
  -21.1477   -6.0518   25.9072 H   0  0  0  0  0  0
  -22.0602   -2.7615   23.2829 H   0  0  0  0  0  0
  -22.4053  -11.9839   22.4817 H   0  0  0  0  0  0
  -21.1049  -13.1204   22.2669 H   0  0  0  0  0  0
  -24.6388  -15.8497   20.5390 H   0  0  0  0  0  0
  -26.2499  -15.6395   20.0782 H   0  0  0  0  0  0
  -26.7354  -32.5169   23.0918 H   0  0  0  0  0  0
  -25.0054  -33.9525   25.0216 H   0  0  0  0  0  0
  -22.7819  -31.2753   21.3579 H   0  0  0  0  0  0
  -23.3768  -35.9532   23.3278 H   0  0  0  0  0  0
  -24.3571  -36.8896   22.2071 H   0  0  0  0  0  0
  -23.7228  -37.6391   23.6718 H   0  0  0  0  0  0
  -26.2137  -31.3961   20.6222 H   0  0  0  0  0  0
  -26.9019  -30.7069   22.0514 H   0  0  0  0  0  0
  -28.1428  -28.6358   21.2810 H   0  0  0  0  0  0
  -25.8654  -25.7856   18.9762 H   0  0  0  0  0  0
  -24.0003  -27.2945   18.9406 H   0  0  0  0  0  0
  -23.8529  -30.5375   19.3910 H   0  0  0  0  0  0
  -22.8181  -29.2166   19.8334 H   0  0  0  0  0  0
  -25.1323  -36.1792   25.0798 H   0  0  0  0  0  0
  -21.0030  -28.3353   24.1328 H   0  0  0  0  0  0
  -20.5686  -26.2373   23.3646 H   0  0  0  0  0  0
  -21.6661  -26.7424   22.1217 H   0  0  0  0  0  0
  -19.6945  -25.6290   21.1269 H   0  0  0  0  0  0
  -19.6722  -27.3177   20.6734 H   0  0  0  0  0  0
  -17.4230  -26.6708   21.4009 H   0  0  0  0  0  0
  -18.0331  -26.0104   22.9022 H   0  0  0  0  0  0
  -19.7977  -30.7316   24.2205 H   0  0  0  0  0  0
  -17.5050  -31.6278   24.5175 H   0  0  0  0  0  0
  -15.5381  -30.2987   23.7701 H   0  0  0  0  0  0
  -15.8700  -28.0824   22.7100 H   0  0  0  0  0  0
  -24.5915  -30.7082   25.7706 H   0  0  0  0  0  0
  -24.8832  -32.2980   26.4652 H   0  0  0  0  0  0
  -25.7943  -30.9080   27.0249 H   0  0  0  0  0  0
  -26.3085  -29.6607   24.1392 H   0  0  0  0  0  0
  -27.3965  -29.7261   25.5038 H   0  0  0  0  0  0
  -27.9029  -30.4110   23.9807 H   0  0  0  0  0  0
  -27.2669  -33.3708   26.1919 H   0  0  0  0  0  0
  -28.3948  -32.6784   25.0361 H   0  0  0  0  0  0
  -28.0646  -31.8556   26.5531 H   0  0  0  0  0  0
  -28.2572  -38.0073   24.7515 H   0  0  0  0  0  0
  -28.1083  -36.2598   24.6274 H   0  0  0  0  0  0
  -27.2290  -37.1385   25.8867 H   0  0  0  0  0  0
  -20.9573  -29.8735   21.6682 H   0  0  0  0  0  0
  -26.0129  -38.2780   24.1433 H   0  0  0  0  0  0
  -28.5309  -19.5926   18.4422 H   0  0  0  0  0  0
  -29.4553  -22.7413   22.0828 H   0  0  0  0  0  0
  -27.4326  -21.1391   17.2419 H   0  0  0  0  0  0
  -28.0981  -22.7641   17.3236 H   0  0  0  0  0  0
  -26.5655  -22.3842   18.1261 H   0  0  0  0  0  0
  -30.9391  -18.1048   21.1782 H   0  0  0  0  0  0
  -30.7877  -18.0637   19.4825 H   0  0  0  0  0  0
  -26.8655  -24.1966   20.5269 H   0  0  0  0  0  0
  -27.5268  -24.3639   18.9449 H   0  0  0  0  0  0
  -28.7523  -16.3180   20.5870 H   0  0  0  0  0  0
  1 25  1  0  0  0
  1 30  2  0  0  0
  1 80  1  0  0  0
  2  3  1  0  0  0
  2 25  1  0  0  0
  2 82  1  0  0  0
  2 83  1  0  0  0
  3  4  1  0  0  0
  3 84  1  0  0  0
  3 85  1  0  0  0
  4  5  1  0  0  0
  4 86  1  0  0  0
  4 87  1  0  0  0
  5  6  1  0  0  0
  5 26  1  0  0  0
  5 88  1  0  0  0
  6 25  1  0  0  0
  6 89  1  0  0  0
  6 90  1  0  0  0
  7  8  2  0  0  0
  7 26  1  0  0  0
  7 29  1  0  0  0
  8  9  1  0  0  0
  8 22  1  0  0  0
  9 10  1  0  0  0
  9 27  2  0  0  0
 10 11  2  0  0  0
 10 15  1  0  0  0
 11 12  1  0  0  0
 11 91  1  0  0  0
 12 13  2  0  0  0
 12 92  1  0  0  0
 13 14  1  0  0  0
 13 31  1  0  0  0
 14 15  2  0  0  0
 14 93  1  0  0  0
 15 94  1  0  0  0
 16 17  2  0  0  0
 16 21  1  0  0  0
 16 31  1  0  0  0
 17 18  1  0  0  0
 17 95  1  0  0  0
 18 19  2  0  0  0
 18 96  1  0  0  0
 19 20  1  0  0  0
 19 24  1  0  0  0
 20 21  2  0  0  0
 20 97  1  0  0  0
 21 23  1  0  0  0
 22 28  1  0  0  0
 22 32  2  0  0  0
 26 27  1  0  0  0
 28 98  1  0  0  0
 28 99  1  0  0  0
 29100  1  0  0  0
 29101  1  0  0  0
 33 34  1  0  0  0
 33 66  1  0  0  0
 33 70  2  0  0  0
 34 36  1  0  0  0
 34 59  1  0  0  0
 34102  1  0  0  0
 35 44  2  0  0  0
 35 45  1  0  0  0
 35 68  1  0  0  0
 36 56  1  0  0  0
 36103  1  0  0  0
 37 39  1  0  0  0
 37 47  1  0  0  0
 37 66  1  0  0  0
 37104  1  0  0  0
 38 43  2  0  0  0
 38 46  1  0  0  0
 38 47  1  0  0  0
 39 64  1  0  0  0
 39 67  2  0  0  0
 40 52  1  0  0  0
 40 53  2  0  0  0
 40 58  1  0  0  0
 41105  1  0  0  0
 41106  1  0  0  0
 41107  1  0  0  0
 41 48  1  0  0  0
 42 43  1  0  0  0
 42 66  1  0  0  0
 42108  1  0  0  0
 42109  1  0  0  0
 43 44  1  0  0  0
 44110  1  0  0  0
 45 46  2  0  0  0
 45111  1  0  0  0
 46112  1  0  0  0
 47113  1  0  0  0
 47114  1  0  0  0
 48 56  1  0  0  0
 48 65  1  0  0  0
 48115  1  0  0  0
 49 50  1  0  0  0
 49 53  1  0  0  0
 49 64  1  0  0  0
 49116  1  0  0  0
 50 51  1  0  0  0
 50117  1  0  0  0
 50118  1  0  0  0
 51 52  1  0  0  0
 51119  1  0  0  0
 51120  1  0  0  0
 52121  1  0  0  0
 52122  1  0  0  0
 53 54  1  0  0  0
 54 55  2  0  0  0
 54123  1  0  0  0
 55 57  1  0  0  0
 55124  1  0  0  0
 56 69  2  0  0  0
 57 58  2  0  0  0
 57125  1  0  0  0
 58126  1  0  0  0
 59 60  1  0  0  0
 59 61  1  0  0  0
 59 62  1  0  0  0
 60127  1  0  0  0
 60128  1  0  0  0
 60129  1  0  0  0
 61130  1  0  0  0
 61131  1  0  0  0
 61132  1  0  0  0
 62133  1  0  0  0
 62134  1  0  0  0
 62135  1  0  0  0
 63 65  1  0  0  0
 63136  1  0  0  0
 63137  1  0  0  0
 63138  1  0  0  0
 64139  1  0  0  0
 65140  1  0  0  0
 68 79  1  0  0  0
 71 73  2  0  0  0
 71 74  1  0  0  0
 71141  1  0  0  0
 72 75  2  0  0  0
 72 76  1  0  0  0
 72142  1  0  0  0
 73 75  1  0  0  0
 73 77  1  0  0  0
 74 76  2  0  0  0
 74 78  1  0  0  0
 75 79  1  0  0  0
 76 81  1  0  0  0
 77143  1  0  0  0
 77144  1  0  0  0
 77145  1  0  0  0
 78 80  1  0  0  0
 78146  1  0  0  0
 78147  1  0  0  0
 79148  1  0  0  0
 79149  1  0  0  0
 80150  1  0  0  0
M  ISO  4   1 100  68 101  79 101  80 100
M  END
> <chiral flag>
0

> <version>
0

> <s_m_source_file>
/data/baiqing/PycharmProjects/Reinvent-master-3.2/result/LINK_invent/BTK/process_docking_weight1_custom_product_contain_oxygen_bond_distance_aromatic_linkinvent_7_9_3/rearranged_h_0032.sdf

> <i_m_source_file_index>
29

> <r_mmod_Potential_Energy-OPLS-2005>
1029.20263671875

> <r_mmod_Stretch_Energy-OPLS-2005>
451.771850585938

> <r_mmod_Bend_Energy-OPLS-2005>
418.722534179688

> <r_mmod_Torsional_Energy-OPLS-2005>
222.014190673828

> <r_mmod_Improper_Torsional_Energy-OPLS-2005>
8.22108364105225

> <r_mmod_Van_der_Waal_Energy-OPLS-2005>
136.158493041992

> <r_mmod_Electrostatic_Energy-OPLS-2005>
-379.213073730469

> <r_mmod_Solvation_Energy-OPLS-2005>
-212.366226196289

> <b_mmod_Minimization_Converged-OPLS-2005>
0

> <r_mmod_RMS_Derivative-OPLS-2005>
1.15549468994141

$$$$
29
                    3D
 Structure written by MMmdl.
160169  0  0  1  0            999 V2000
  -30.5788  -14.7312   20.4660 C   0  0  0  0  0  0
  -30.4471  -12.4456   19.4633 C   0  0  0  0  0  0
  -29.5151  -12.5130   18.2312 C   0  0  0  0  0  0
  -28.0396  -12.3352   18.6435 C   0  0  0  0  0  0
  -27.6479  -13.2210   19.8553 C   0  0  2  0  0  0
  -28.6945  -13.1174   20.9878 C   0  0  0  0  0  0
  -25.2542  -13.8163   20.5698 C   0  0  0  0  0  0
  -24.1819  -13.0422   20.9198 C   0  0  0  0  0  0
  -24.6396  -11.6899   20.8733 C   0  0  0  0  0  0
  -23.9068  -10.4283   21.0403 C   0  0  0  0  0  0
  -24.3619   -9.4202   21.9180 C   0  0  0  0  0  0
  -23.6294   -8.2237   22.0752 C   0  0  0  0  0  0
  -22.4275   -8.0276   21.3544 C   0  0  0  0  0  0
  -21.9910   -9.0252   20.4647 C   0  0  0  0  0  0
  -22.7239  -10.2128   20.3054 C   0  0  0  0  0  0
  -21.6850   -6.0736   22.5281 C   0  0  0  0  0  0
  -21.4011   -6.5637   23.8217 C   0  0  0  0  0  0
  -21.3659   -5.6786   24.9177 C   0  0  0  0  0  0
  -21.6045   -4.3051   24.7226 C   0  0  0  0  0  0
  -21.8819   -3.8145   23.4345 C   0  0  0  0  0  0
  -21.9195   -4.6963   22.3403 C   0  0  0  0  0  0
  -22.7843  -13.5218   21.1865 C   0  0  0  0  0  0
  -22.1663   -4.2151   21.0980 F   0  0  0  0  0  0
  -21.5632   -3.4533   25.7738 F   0  0  0  0  0  0
  -29.9999  -13.4834   20.4173 N   0  0  0  0  0  0
  -26.2967  -12.9355   20.3285 N   0  0  0  0  0  0
  -25.9324  -11.6507   20.5734 N   0  0  0  0  0  0
  -22.0478  -12.8217   22.0418 N   0  0  0  0  0  0
  -25.4221  -15.1894   20.4164 N   0  0  0  0  0  0
  -31.7567  -14.8899   20.1306 O   0  0  0  0  0  0
  -21.6635   -6.8878   21.4244 O   0  0  0  0  0  0
  -22.3535  -14.5528   20.6714 O   0  0  0  0  0  0
  -24.6310  -31.8550   23.1983 C   0  0  0  0  0  0
  -25.9140  -32.4749   23.8324 C   0  0  1  0  0  0
  -27.2266  -27.2767   20.1301 C   0  0  0  0  0  0
  -25.5948  -33.8550   24.2266 N   0  0  0  0  0  0
  -23.4276  -30.4769   21.5408 C   0  0  2  0  0  0
  -24.8762  -28.9232   20.1100 C   0  0  0  0  0  0
  -22.7501  -29.4599   22.4910 C   0  0  0  0  0  0
  -18.0292  -28.1394   22.8475 C   0  0  0  0  0  0
  -24.1493  -36.7273   23.2641 C   0  0  0  0  0  0
  -25.9711  -30.7749   21.3733 C   0  0  0  0  0  0
  -26.0466  -29.3979   20.7158 C   0  0  0  0  0  0
  -27.2264  -28.5886   20.7098 C   0  0  0  0  0  0
  -26.0348  -26.8639   19.4955 C   0  0  0  0  0  0
  -24.8746  -27.6646   19.4874 C   0  0  0  0  0  0
  -23.6458  -29.8087   20.1572 C   0  0  0  0  0  0
  -25.4115  -36.3061   24.0335 C   0  0  1  0  0  0
  -20.5895  -28.3701   23.1271 C   0  0  2  0  0  0
  -20.6779  -26.9418   22.5411 C   0  0  0  0  0  0
  -19.5758  -26.6388   21.5209 C   0  0  0  0  0  0
  -18.1936  -26.7937   22.1617 C   0  0  0  0  0  0
  -19.1546  -28.8864   23.2867 C   0  0  0  0  0  0
  -18.9464  -30.1464   23.8883 C   0  0  0  0  0  0
  -17.6462  -30.6586   24.0562 C   0  0  0  0  0  0
  -25.9051  -34.9433   23.5095 C   0  0  0  0  0  0
  -16.5354  -29.9082   23.6334 C   0  0  0  0  0  0
  -16.7278  -28.6508   23.0341 C   0  0  0  0  0  0
  -26.4522  -31.6566   25.0703 C   0  0  0  0  0  0
  -25.3760  -31.3699   26.1435 C   0  0  0  0  0  0
  -27.0371  -30.2989   24.6166 C   0  0  0  0  0  0
  -27.6080  -32.4305   25.7471 C   0  0  0  0  0  0
  -27.5582  -37.1788   24.8468 C   0  0  0  0  0  0
  -21.4210  -29.3045   22.3660 N   0  0  0  0  0  0
  -26.4289  -37.3762   23.9417 N   0  0  0  0  0  0
  -24.6954  -31.0534   22.0942 N   0  0  0  0  0  0
  -23.4204  -28.8140   23.3007 O   0  0  0  0  0  0
  -28.3276  -26.3950   20.1814 O   0  0  0  0  0  0
  -26.5608  -34.8910   22.4653 O   0  0  0  0  0  0
  -23.5465  -32.1364   23.7294 O   0  0  0  0  0  0
  -29.0318  -19.3314   19.3302 C   0  0  0  0  0  0
  -29.6566  -20.2243   20.2475 C   0  0  0  0  0  0
  -29.0894  -17.9014   19.4453 C   0  0  0  0  0  0
  -30.3474  -19.5665   21.3207 C   0  0  0  0  0  0
  -29.8076  -17.2491   20.4943 C   0  0  0  0  0  0
  -30.4172  -18.1292   21.4341 C   0  0  0  0  0  0
  -29.1374  -24.0451   21.1124 C   0  0  0  0  0  0
  -28.3291  -23.8723   19.2795 C   0  0  0  0  0  0
  -28.0687  -24.9292   20.3956 C   0  0  2  0  0  0
  -28.3582  -17.0685   18.4065 C   0  0  0  0  0  0
  -31.0634  -20.4021   22.3713 C   0  0  0  0  0  0
  -29.7715  -21.7961   19.9296 C   0  0  0  0  0  0
  -29.7207  -15.7860   20.7077 N   0  0  0  0  0  0
  -28.7217  -22.8550   20.3073 N   0  3  1  0  0  0
  -31.0684  -17.5804   22.4887 F   0  0  0  0  0  0
  -31.4852  -12.5900   19.1590 H   0  0  0  0  0  0
  -30.4054  -11.4590   19.9271 H   0  0  0  0  0  0
  -29.7944  -11.7487   17.5047 H   0  0  0  0  0  0
  -29.6408  -13.4727   17.7274 H   0  0  0  0  0  0
  -27.8923  -11.2841   18.8938 H   0  0  0  0  0  0
  -27.3828  -12.5402   17.7972 H   0  0  0  0  0  0
  -27.6495  -14.2467   19.4885 H   0  0  0  0  0  0
  -28.7274  -12.1047   21.3921 H   0  0  0  0  0  0
  -28.4296  -13.7654   21.8249 H   0  0  0  0  0  0
  -25.2767   -9.5678   22.4750 H   0  0  0  0  0  0
  -24.0009   -7.4625   22.7466 H   0  0  0  0  0  0
  -21.0843   -8.8772   19.8951 H   0  0  0  0  0  0
  -22.3704  -10.9667   19.6160 H   0  0  0  0  0  0
  -21.1995   -7.6144   23.9723 H   0  0  0  0  0  0
  -21.1483   -6.0514   25.9082 H   0  0  0  0  0  0
  -22.0598   -2.7609   23.2841 H   0  0  0  0  0  0
  -22.4086  -11.9879   22.4814 H   0  0  0  0  0  0
  -21.1097  -13.1254   22.2617 H   0  0  0  0  0  0
  -24.6503  -15.8366   20.5349 H   0  0  0  0  0  0
  -26.2689  -15.6392   20.0980 H   0  0  0  0  0  0
  -26.7203  -32.5414   23.1064 H   0  0  0  0  0  0
  -25.0143  -33.9682   25.0446 H   0  0  0  0  0  0
  -22.7232  -31.2982   21.3938 H   0  0  0  0  0  0
  -23.3758  -35.9602   23.3293 H   0  0  0  0  0  0
  -24.3588  -36.8899   22.2057 H   0  0  0  0  0  0
  -23.7243  -37.6473   23.6663 H   0  0  0  0  0  0
  -26.1056  -31.5364   20.6037 H   0  0  0  0  0  0
  -26.8504  -30.8258   22.0040 H   0  0  0  0  0  0
  -28.1245  -28.9479   21.1927 H   0  0  0  0  0  0
  -25.9848  -25.8998   19.0103 H   0  0  0  0  0  0
  -23.9790  -27.2977   19.0047 H   0  0  0  0  0  0
  -23.7695  -30.5838   19.4000 H   0  0  0  0  0  0
  -22.7649  -29.2407   19.8530 H   0  0  0  0  0  0
  -25.1294  -36.1904   25.0829 H   0  0  0  0  0  0
  -20.9985  -28.3282   24.1392 H   0  0  0  0  0  0
  -20.5675  -26.2309   23.3615 H   0  0  0  0  0  0
  -21.6648  -26.7441   22.1209 H   0  0  0  0  0  0
  -19.6918  -25.6296   21.1245 H   0  0  0  0  0  0
  -19.6703  -27.3192   20.6733 H   0  0  0  0  0  0
  -17.4212  -26.6683   21.4015 H   0  0  0  0  0  0
  -18.0329  -26.0084   22.9016 H   0  0  0  0  0  0
  -19.7938  -30.7285   24.2248 H   0  0  0  0  0  0
  -17.5014  -31.6261   24.5171 H   0  0  0  0  0  0
  -15.5351  -30.2973   23.7670 H   0  0  0  0  0  0
  -15.8683  -28.0827   22.7046 H   0  0  0  0  0  0
  -24.5952  -30.7025   25.7774 H   0  0  0  0  0  0
  -24.8934  -32.2858   26.4854 H   0  0  0  0  0  0
  -25.8104  -30.8895   27.0213 H   0  0  0  0  0  0
  -26.2939  -29.6714   24.1234 H   0  0  0  0  0  0
  -27.4118  -29.7268   25.4664 H   0  0  0  0  0  0
  -27.8788  -30.4268   23.9356 H   0  0  0  0  0  0
  -27.2696  -33.3619   26.2024 H   0  0  0  0  0  0
  -28.3901  -32.6844   25.0302 H   0  0  0  0  0  0
  -28.0738  -31.8445   26.5406 H   0  0  0  0  0  0
  -28.2592  -38.0094   24.7520 H   0  0  0  0  0  0
  -28.1085  -36.2622   24.6281 H   0  0  0  0  0  0
  -27.2303  -37.1425   25.8873 H   0  0  0  0  0  0
  -20.9399  -29.8760   21.6856 H   0  0  0  0  0  0
  -26.0165  -38.2834   24.1421 H   0  0  0  0  0  0
  -28.5120  -19.7572   18.4820 H   0  0  0  0  0  0
  -28.9747  -23.9221   22.1834 H   0  0  0  0  0  0
  -30.1607  -24.3689   20.9083 H   0  0  0  0  0  0
  -29.1508  -24.1497   18.6157 H   0  0  0  0  0  0
  -27.4452  -23.5903   18.7073 H   0  0  0  0  0  0
  -27.0969  -24.7699   20.8694 H   0  0  0  0  0  0
  -28.1573  -17.6456   17.5035 H   0  0  0  0  0  0
  -27.4032  -16.7251   18.8016 H   0  0  0  0  0  0
  -28.9443  -16.1975   18.1123 H   0  0  0  0  0  0
  -30.4698  -21.2707   22.6557 H   0  0  0  0  0  0
  -32.0261  -20.7465   21.9929 H   0  0  0  0  0  0
  -31.2490  -19.8339   23.2830 H   0  0  0  0  0  0
  -29.8818  -21.8546   18.8466 H   0  0  0  0  0  0
  -30.7369  -22.1415   20.2979 H   0  0  0  0  0  0
  -28.7918  -15.4674   20.9300 H   0  0  0  0  0  0
  -27.8997  -22.4237   20.6997 H   0  0  0  0  0  0
  1 25  1  0  0  0
  1 30  2  0  0  0
  1 83  1  0  0  0
  2  3  1  0  0  0
  2 25  1  0  0  0
  2 86  1  0  0  0
  2 87  1  0  0  0
  3  4  1  0  0  0
  3 88  1  0  0  0
  3 89  1  0  0  0
  4  5  1  0  0  0
  4 90  1  0  0  0
  4 91  1  0  0  0
  5  6  1  0  0  0
  5 26  1  0  0  0
  5 92  1  0  0  0
  6 25  1  0  0  0
  6 93  1  0  0  0
  6 94  1  0  0  0
  7  8  2  0  0  0
  7 26  1  0  0  0
  7 29  1  0  0  0
  8  9  1  0  0  0
  8 22  1  0  0  0
  9 10  1  0  0  0
  9 27  2  0  0  0
 10 11  2  0  0  0
 10 15  1  0  0  0
 11 12  1  0  0  0
 11 95  1  0  0  0
 12 13  2  0  0  0
 12 96  1  0  0  0
 13 14  1  0  0  0
 13 31  1  0  0  0
 14 15  2  0  0  0
 14 97  1  0  0  0
 15 98  1  0  0  0
 16 17  2  0  0  0
 16 21  1  0  0  0
 16 31  1  0  0  0
 17 18  1  0  0  0
 17 99  1  0  0  0
 18 19  2  0  0  0
 18100  1  0  0  0
 19 20  1  0  0  0
 19 24  1  0  0  0
 20 21  2  0  0  0
 20101  1  0  0  0
 21 23  1  0  0  0
 22 28  1  0  0  0
 22 32  2  0  0  0
 26 27  1  0  0  0
 28102  1  0  0  0
 28103  1  0  0  0
 29104  1  0  0  0
 29105  1  0  0  0
 33 34  1  0  0  0
 33 66  1  0  0  0
 33 70  2  0  0  0
 34 36  1  0  0  0
 34 59  1  0  0  0
 34106  1  0  0  0
 35 44  2  0  0  0
 35 45  1  0  0  0
 35 68  1  0  0  0
 36 56  1  0  0  0
 36107  1  0  0  0
 37 39  1  0  0  0
 37 47  1  0  0  0
 37 66  1  0  0  0
 37108  1  0  0  0
 38 43  2  0  0  0
 38 46  1  0  0  0
 38 47  1  0  0  0
 39 64  1  0  0  0
 39 67  2  0  0  0
 40 52  1  0  0  0
 40 53  2  0  0  0
 40 58  1  0  0  0
 41109  1  0  0  0
 41110  1  0  0  0
 41111  1  0  0  0
 41 48  1  0  0  0
 42 43  1  0  0  0
 42 66  1  0  0  0
 42112  1  0  0  0
 42113  1  0  0  0
 43 44  1  0  0  0
 44114  1  0  0  0
 45 46  2  0  0  0
 45115  1  0  0  0
 46116  1  0  0  0
 47117  1  0  0  0
 47118  1  0  0  0
 48 56  1  0  0  0
 48 65  1  0  0  0
 48119  1  0  0  0
 49 50  1  0  0  0
 49 53  1  0  0  0
 49 64  1  0  0  0
 49120  1  0  0  0
 50 51  1  0  0  0
 50121  1  0  0  0
 50122  1  0  0  0
 51 52  1  0  0  0
 51123  1  0  0  0
 51124  1  0  0  0
 52125  1  0  0  0
 52126  1  0  0  0
 53 54  1  0  0  0
 54 55  2  0  0  0
 54127  1  0  0  0
 55 57  1  0  0  0
 55128  1  0  0  0
 56 69  2  0  0  0
 57 58  2  0  0  0
 57129  1  0  0  0
 58130  1  0  0  0
 59 60  1  0  0  0
 59 61  1  0  0  0
 59 62  1  0  0  0
 60131  1  0  0  0
 60132  1  0  0  0
 60133  1  0  0  0
 61134  1  0  0  0
 61135  1  0  0  0
 61136  1  0  0  0
 62137  1  0  0  0
 62138  1  0  0  0
 62139  1  0  0  0
 63 65  1  0  0  0
 63140  1  0  0  0
 63141  1  0  0  0
 63142  1  0  0  0
 64143  1  0  0  0
 65144  1  0  0  0
 68 79  1  0  0  0
 71 72  2  0  0  0
 71 73  1  0  0  0
 71145  1  0  0  0
 72 74  1  0  0  0
 72 82  1  0  0  0
 73 75  2  0  0  0
 73 80  1  0  0  0
 74 76  2  0  0  0
 74 81  1  0  0  0
 75 76  1  0  0  0
 75 83  1  0  0  0
 76 85  1  0  0  0
 77 79  1  0  0  0
 77 84  1  0  0  0
 77146  1  0  0  0
 77147  1  0  0  0
 78 79  1  0  0  0
 78 84  1  0  0  0
 78148  1  0  0  0
 78149  1  0  0  0
 79150  1  0  0  0
 80151  1  0  0  0
 80152  1  0  0  0
 80153  1  0  0  0
 81154  1  0  0  0
 81155  1  0  0  0
 81156  1  0  0  0
 82157  1  0  0  0
 82158  1  0  0  0
 82 84  1  0  0  0
 83159  1  0  0  0
 84160  1  0  0  0
M  CHG  1  84   1
M  ISO  4   1 100  68 101  79 101  83 100
M  END
> <chiral flag>
0

> <version>
0

> <s_m_source_file>
/data/baiqing/PycharmProjects/Reinvent-master-3.2/result/LINK_invent/BTK/process_docking_weight1_custom_product_contain_oxygen_bond_distance_aromatic_linkinvent_7_9_3/rearranged_h_0032.sdf

> <i_m_source_file_index>
30

> <r_mmod_Potential_Energy-OPLS-2005>
-50.7984657287598

> <r_mmod_Stretch_Energy-OPLS-2005>
107.74097442627

> <r_mmod_Bend_Energy-OPLS-2005>
181.801300048828

> <r_mmod_Torsional_Energy-OPLS-2005>
264.466583251953

> <r_mmod_Improper_Torsional_Energy-OPLS-2005>
7.23832941055298

> <r_mmod_Van_der_Waal_Energy-OPLS-2005>
133.803833007812

> <r_mmod_Electrostatic_Energy-OPLS-2005>
-337.507537841797

> <r_mmod_Solvation_Energy-OPLS-2005>
-486.267669677734

> <b_mmod_Minimization_Converged-OPLS-2005>
0

> <r_mmod_RMS_Derivative-OPLS-2005>
0.724480807781219

$$$$
30
                    3D
 Structure written by MMmdl.
163172  0  0  1  0            999 V2000
  -30.6283  -14.6443   20.4912 C   0  0  0  0  0  0
  -30.4173  -12.3895   19.4684 C   0  0  0  0  0  0
  -29.5115  -12.5137   18.2230 C   0  0  0  0  0  0
  -28.0230  -12.3853   18.6074 C   0  0  0  0  0  0
  -27.6465  -13.2296   19.8575 C   0  0  2  0  0  0
  -28.6813  -13.0882   20.9949 C   0  0  0  0  0  0
  -25.2514  -13.8201   20.5651 C   0  0  0  0  0  0
  -24.1792  -13.0457   20.9206 C   0  0  0  0  0  0
  -24.6377  -11.6942   20.8686 C   0  0  0  0  0  0
  -23.9049  -10.4318   21.0379 C   0  0  0  0  0  0
  -24.3619   -9.4246   21.9170 C   0  0  0  0  0  0
  -23.6318   -8.2262   22.0750 C   0  0  0  0  0  0
  -22.4301   -8.0284   21.3535 C   0  0  0  0  0  0
  -21.9911   -9.0246   20.4636 C   0  0  0  0  0  0
  -22.7214  -10.2140   20.3039 C   0  0  0  0  0  0
  -21.6868   -6.0737   22.5284 C   0  0  0  0  0  0
  -21.4030   -6.5641   23.8216 C   0  0  0  0  0  0
  -21.3687   -5.6795   24.9178 C   0  0  0  0  0  0
  -21.6052   -4.3057   24.7223 C   0  0  0  0  0  0
  -21.8825   -3.8146   23.4344 C   0  0  0  0  0  0
  -21.9206   -4.6963   22.3405 C   0  0  0  0  0  0
  -22.7823  -13.5267   21.1868 C   0  0  0  0  0  0
  -22.1649   -4.2143   21.0985 F   0  0  0  0  0  0
  -21.5642   -3.4555   25.7726 F   0  0  0  0  0  0
  -29.9921  -13.4309   20.4307 N   0  0  0  0  0  0
  -26.2931  -12.9401   20.3222 N   0  0  0  0  0  0
  -25.9311  -11.6547   20.5664 N   0  0  0  0  0  0
  -22.0449  -12.8257   22.0411 N   0  0  0  0  0  0
  -25.4174  -15.1928   20.4083 N   0  0  0  0  0  0
  -31.8049  -14.7377   20.1319 O   0  0  0  0  0  0
  -21.6656   -6.8887   21.4246 O   0  0  0  0  0  0
  -22.3524  -14.5561   20.6693 O   0  0  0  0  0  0
  -24.6247  -31.8577   23.1987 C   0  0  0  0  0  0
  -25.9090  -32.4771   23.8333 C   0  0  1  0  0  0
  -27.2401  -27.3125   20.1537 C   0  0  0  0  0  0
  -25.5885  -33.8574   24.2232 N   0  0  0  0  0  0
  -23.4215  -30.4728   21.5410 C   0  0  2  0  0  0
  -24.8748  -28.9151   20.1215 C   0  0  0  0  0  0
  -22.7478  -29.4615   22.4957 C   0  0  0  0  0  0
  -18.0280  -28.1407   22.8476 C   0  0  0  0  0  0
  -24.1478  -36.7311   23.2644 C   0  0  0  0  0  0
  -25.9607  -30.7865   21.3724 C   0  0  0  0  0  0
  -26.0386  -29.4075   20.7270 C   0  0  0  0  0  0
  -27.2243  -28.6162   20.7334 C   0  0  0  0  0  0
  -26.0558  -26.8550   19.5390 C   0  0  0  0  0  0
  -24.8845  -27.6426   19.5207 C   0  0  0  0  0  0
  -23.6375  -29.7910   20.1639 C   0  0  0  0  0  0
  -25.4108  -36.3094   24.0337 C   0  0  1  0  0  0
  -20.5865  -28.3708   23.1302 C   0  0  2  0  0  0
  -20.6766  -26.9426   22.5443 C   0  0  0  0  0  0
  -19.5743  -26.6391   21.5245 C   0  0  0  0  0  0
  -18.1924  -26.7953   22.1637 C   0  0  0  0  0  0
  -19.1524  -28.8876   23.2861 C   0  0  0  0  0  0
  -18.9446  -30.1483   23.8870 C   0  0  0  0  0  0
  -17.6450  -30.6610   24.0560 C   0  0  0  0  0  0
  -25.9052  -34.9464   23.5104 C   0  0  0  0  0  0
  -16.5337  -29.9096   23.6343 C   0  0  0  0  0  0
  -16.7259  -28.6518   23.0347 C   0  0  0  0  0  0
  -26.4455  -31.6593   25.0723 C   0  0  0  0  0  0
  -25.3669  -31.3747   26.1439 C   0  0  0  0  0  0
  -27.0317  -30.3005   24.6225 C   0  0  0  0  0  0
  -27.6020  -32.4332   25.7490 C   0  0  0  0  0  0
  -27.5585  -37.1805   24.8455 C   0  0  0  0  0  0
  -21.4194  -29.3047   22.3704 N   0  0  0  0  0  0
  -26.4291  -37.3801   23.9408 N   0  0  0  0  0  0
  -24.6869  -31.0569   22.0937 N   0  0  0  0  0  0
  -23.4172  -28.8190   23.3073 O   0  0  0  0  0  0
  -28.3920  -26.5204   20.0899 O   0  0  0  0  0  0
  -26.5674  -34.8932   22.4696 O   0  0  0  0  0  0
  -23.5413  -32.1383   23.7303 O   0  0  0  0  0  0
  -28.6487  -19.1823   19.8203 C   0  0  0  0  0  0
  -30.2606  -20.8191   21.3604 C   0  0  0  0  0  0
  -28.4168  -20.6020   19.8470 C   0  0  0  0  0  0
  -29.7319  -18.5515   20.5001 C   0  0  0  0  0  0
  -29.2995  -21.4876   20.5490 C   0  0  0  0  0  0
  -30.4896  -19.4119   21.3376 C   0  0  0  0  0  0
  -30.4543  -23.7462   20.6558 C   0  0  0  0  0  0
  -31.7420  -23.5122   20.3050 C   0  0  0  0  0  0
  -30.0167  -25.0933   21.2140 C   0  0  0  0  0  0
  -28.1496  -23.8433   20.3277 C   0  0  0  0  0  0
  -28.5235  -25.2822   20.8893 C   0  0  1  0  0  0
  -27.2466  -21.1467   19.0420 C   0  0  0  0  0  0
  -32.3058  -22.3127   19.5602 C   0  0  0  0  0  0
  -30.2670  -17.1178   20.0902 C   0  0  0  0  0  0
  -29.3327  -22.9402   20.4464 N   0  0  0  0  0  0
  -29.8791  -15.7834   20.6913 N   0  0  0  0  0  0
  -31.7974  -18.7888   22.2783 Cl  0  0  0  0  0  0
  -31.4664  -12.4817   19.1833 H   0  0  0  0  0  0
  -30.3224  -11.3961   19.9112 H   0  0  0  0  0  0
  -29.7767  -11.7526   17.4868 H   0  0  0  0  0  0
  -29.6819  -13.4785   17.7428 H   0  0  0  0  0  0
  -27.8086  -11.3329   18.7869 H   0  0  0  0  0  0
  -27.4018  -12.6737   17.7563 H   0  0  0  0  0  0
  -27.6620  -14.2696   19.5329 H   0  0  0  0  0  0
  -28.6923  -12.0674   21.3805 H   0  0  0  0  0  0
  -28.4273  -13.7296   21.8384 H   0  0  0  0  0  0
  -25.2746   -9.5761   22.4751 H   0  0  0  0  0  0
  -24.0063   -7.4676   22.7483 H   0  0  0  0  0  0
  -21.0834   -8.8756   19.8931 H   0  0  0  0  0  0
  -22.3657  -10.9692   19.6157 H   0  0  0  0  0  0
  -21.1994   -7.6141   23.9727 H   0  0  0  0  0  0
  -21.1511   -6.0504   25.9096 H   0  0  0  0  0  0
  -22.0566   -2.7606   23.2821 H   0  0  0  0  0  0
  -22.4037  -11.9947   22.4859 H   0  0  0  0  0  0
  -21.1047  -13.1279   22.2538 H   0  0  0  0  0  0
  -24.6486  -15.8430   20.5306 H   0  0  0  0  0  0
  -26.2572  -15.6341   20.0594 H   0  0  0  0  0  0
  -26.7180  -32.5411   23.1112 H   0  0  0  0  0  0
  -24.9920  -33.9695   25.0296 H   0  0  0  0  0  0
  -22.7145  -31.2905   21.3878 H   0  0  0  0  0  0
  -23.3762  -35.9632   23.3311 H   0  0  0  0  0  0
  -24.3543  -36.8931   22.2053 H   0  0  0  0  0  0
  -23.7220  -37.6508   23.6671 H   0  0  0  0  0  0
  -26.0889  -31.5427   20.5970 H   0  0  0  0  0  0
  -26.8412  -30.8375   22.0023 H   0  0  0  0  0  0
  -28.1214  -28.9938   21.2016 H   0  0  0  0  0  0
  -26.0424  -25.8842   19.0627 H   0  0  0  0  0  0
  -23.9944  -27.2553   19.0465 H   0  0  0  0  0  0
  -23.7457  -30.5541   19.3917 H   0  0  0  0  0  0
  -22.7610  -29.2110   19.8763 H   0  0  0  0  0  0
  -25.1284  -36.1966   25.0844 H   0  0  0  0  0  0
  -20.9916  -28.3294   24.1419 H   0  0  0  0  0  0
  -20.5690  -26.2319   23.3634 H   0  0  0  0  0  0
  -21.6642  -26.7477   22.1207 H   0  0  0  0  0  0
  -19.6914  -25.6301   21.1263 H   0  0  0  0  0  0
  -19.6716  -27.3199   20.6761 H   0  0  0  0  0  0
  -17.4205  -26.6693   21.4021 H   0  0  0  0  0  0
  -18.0310  -26.0111   22.9032 H   0  0  0  0  0  0
  -19.7928  -30.7303   24.2236 H   0  0  0  0  0  0
  -17.5004  -31.6284   24.5178 H   0  0  0  0  0  0
  -15.5330  -30.2980   23.7729 H   0  0  0  0  0  0
  -15.8645  -28.0840   22.7078 H   0  0  0  0  0  0
  -24.5808  -30.7163   25.7732 H   0  0  0  0  0  0
  -24.8917  -32.2924   26.4903 H   0  0  0  0  0  0
  -25.7933  -30.8849   27.0198 H   0  0  0  0  0  0
  -26.2926  -29.6760   24.1197 H   0  0  0  0  0  0
  -27.3917  -29.7257   25.4775 H   0  0  0  0  0  0
  -27.8824  -30.4273   23.9532 H   0  0  0  0  0  0
  -27.2628  -33.3606   26.2111 H   0  0  0  0  0  0
  -28.3792  -32.6934   25.0302 H   0  0  0  0  0  0
  -28.0751  -31.8445   26.5358 H   0  0  0  0  0  0
  -28.2600  -38.0099   24.7517 H   0  0  0  0  0  0
  -28.1069  -36.2639   24.6259 H   0  0  0  0  0  0
  -27.2294  -37.1431   25.8849 H   0  0  0  0  0  0
  -20.9415  -29.8674   21.6801 H   0  0  0  0  0  0
  -26.0181  -38.2886   24.1409 H   0  0  0  0  0  0
  -28.0229  -18.5683   19.1884 H   0  0  0  0  0  0
  -30.9162  -21.4159   21.9788 H   0  0  0  0  0  0
  -32.4840  -24.2624   20.5430 H   0  0  0  0  0  0
  -30.6133  -25.8937   20.7779 H   0  0  0  0  0  0
  -30.1951  -25.1125   22.2897 H   0  0  0  0  0  0
  -27.8226  -23.9107   19.2901 H   0  0  0  0  0  0
  -27.3194  -23.4397   20.9061 H   0  0  0  0  0  0
  -27.9965  -25.4281   21.8315 H   0  0  0  0  0  0
  -26.6863  -20.3498   18.5540 H   0  0  0  0  0  0
  -27.5828  -21.8369   18.2684 H   0  0  0  0  0  0
  -26.5501  -21.6677   19.6999 H   0  0  0  0  0  0
  -31.5517  -21.8057   18.9579 H   0  0  0  0  0  0
  -32.7484  -21.5992   20.2571 H   0  0  0  0  0  0
  -33.0935  -22.6427   18.8786 H   0  0  0  0  0  0
  -31.3545  -17.1945   20.1228 H   0  0  0  0  0  0
  -30.0491  -17.0277   19.0251 H   0  0  0  0  0  0
  -28.9234  -15.6652   20.9956 H   0  0  0  0  0  0
  1 25  1  0  0  0
  1 30  2  0  0  0
  1 86  1  0  0  0
  2  3  1  0  0  0
  2 25  1  0  0  0
  2 88  1  0  0  0
  2 89  1  0  0  0
  3  4  1  0  0  0
  3 90  1  0  0  0
  3 91  1  0  0  0
  4  5  1  0  0  0
  4 92  1  0  0  0
  4 93  1  0  0  0
  5  6  1  0  0  0
  5 26  1  0  0  0
  5 94  1  0  0  0
  6 25  1  0  0  0
  6 95  1  0  0  0
  6 96  1  0  0  0
  7  8  2  0  0  0
  7 26  1  0  0  0
  7 29  1  0  0  0
  8  9  1  0  0  0
  8 22  1  0  0  0
  9 10  1  0  0  0
  9 27  2  0  0  0
 10 11  2  0  0  0
 10 15  1  0  0  0
 11 12  1  0  0  0
 11 97  1  0  0  0
 12 13  2  0  0  0
 12 98  1  0  0  0
 13 14  1  0  0  0
 13 31  1  0  0  0
 14 15  2  0  0  0
 14 99  1  0  0  0
 15100  1  0  0  0
 16 17  2  0  0  0
 16 21  1  0  0  0
 16 31  1  0  0  0
 17 18  1  0  0  0
 17101  1  0  0  0
 18 19  2  0  0  0
 18102  1  0  0  0
 19 20  1  0  0  0
 19 24  1  0  0  0
 20 21  2  0  0  0
 20103  1  0  0  0
 21 23  1  0  0  0
 22 28  1  0  0  0
 22 32  2  0  0  0
 26 27  1  0  0  0
 28104  1  0  0  0
 28105  1  0  0  0
 29106  1  0  0  0
 29107  1  0  0  0
 33 34  1  0  0  0
 33 66  1  0  0  0
 33 70  2  0  0  0
 34 36  1  0  0  0
 34 59  1  0  0  0
 34108  1  0  0  0
 35 44  2  0  0  0
 35 45  1  0  0  0
 35 68  1  0  0  0
 36 56  1  0  0  0
 36109  1  0  0  0
 37 39  1  0  0  0
 37 47  1  0  0  0
 37 66  1  0  0  0
 37110  1  0  0  0
 38 43  2  0  0  0
 38 46  1  0  0  0
 38 47  1  0  0  0
 39 64  1  0  0  0
 39 67  2  0  0  0
 40 52  1  0  0  0
 40 53  2  0  0  0
 40 58  1  0  0  0
 41111  1  0  0  0
 41112  1  0  0  0
 41113  1  0  0  0
 41 48  1  0  0  0
 42 43  1  0  0  0
 42 66  1  0  0  0
 42114  1  0  0  0
 42115  1  0  0  0
 43 44  1  0  0  0
 44116  1  0  0  0
 45 46  2  0  0  0
 45117  1  0  0  0
 46118  1  0  0  0
 47119  1  0  0  0
 47120  1  0  0  0
 48 56  1  0  0  0
 48 65  1  0  0  0
 48121  1  0  0  0
 49 50  1  0  0  0
 49 53  1  0  0  0
 49 64  1  0  0  0
 49122  1  0  0  0
 50 51  1  0  0  0
 50123  1  0  0  0
 50124  1  0  0  0
 51 52  1  0  0  0
 51125  1  0  0  0
 51126  1  0  0  0
 52127  1  0  0  0
 52128  1  0  0  0
 53 54  1  0  0  0
 54 55  2  0  0  0
 54129  1  0  0  0
 55 57  1  0  0  0
 55130  1  0  0  0
 56 69  2  0  0  0
 57 58  2  0  0  0
 57131  1  0  0  0
 58132  1  0  0  0
 59 60  1  0  0  0
 59 61  1  0  0  0
 59 62  1  0  0  0
 60133  1  0  0  0
 60134  1  0  0  0
 60135  1  0  0  0
 61136  1  0  0  0
 61137  1  0  0  0
 61138  1  0  0  0
 62139  1  0  0  0
 62140  1  0  0  0
 62141  1  0  0  0
 63 65  1  0  0  0
 63142  1  0  0  0
 63143  1  0  0  0
 63144  1  0  0  0
 64145  1  0  0  0
 65146  1  0  0  0
 68 81  1  0  0  0
 71 73  2  0  0  0
 71 74  1  0  0  0
 71147  1  0  0  0
 72 75  2  0  0  0
 72 76  1  0  0  0
 72148  1  0  0  0
 73 75  1  0  0  0
 73 82  1  0  0  0
 74 76  2  0  0  0
 74 84  1  0  0  0
 75 85  1  0  0  0
 76 87  1  0  0  0
 77 78  2  0  0  0
 77 79  1  0  0  0
 77 85  1  0  0  0
 78 83  1  0  0  0
 78149  1  0  0  0
 79 81  1  0  0  0
 79150  1  0  0  0
 79151  1  0  0  0
 80 81  1  0  0  0
 80 85  1  0  0  0
 80152  1  0  0  0
 80153  1  0  0  0
 81154  1  0  0  0
 82155  1  0  0  0
 82156  1  0  0  0
 82157  1  0  0  0
 83158  1  0  0  0
 83159  1  0  0  0
 83160  1  0  0  0
 84 86  1  0  0  0
 84161  1  0  0  0
 84162  1  0  0  0
 86163  1  0  0  0
M  ISO  4   1 100  68 101  81 101  86 100
M  END
> <chiral flag>
0

> <version>
0

> <s_m_source_file>
/data/baiqing/PycharmProjects/Reinvent-master-3.2/result/LINK_invent/BTK/process_docking_weight1_custom_product_contain_oxygen_bond_distance_aromatic_linkinvent_7_9_3/rearranged_h_0032.sdf

> <i_m_source_file_index>
31

> <r_mmod_Potential_Energy-OPLS-2005>
156.753784179688

> <r_mmod_Stretch_Energy-OPLS-2005>
87.6970748901367

> <r_mmod_Bend_Energy-OPLS-2005>
202.211608886719

> <r_mmod_Torsional_Energy-OPLS-2005>
305.600433349609

> <r_mmod_Improper_Torsional_Energy-OPLS-2005>
10.7328481674194

> <r_mmod_Van_der_Waal_Energy-OPLS-2005>
137.99885559082

> <r_mmod_Electrostatic_Energy-OPLS-2005>
-426.586059570312

> <r_mmod_Solvation_Energy-OPLS-2005>
-207.194580078125

> <b_mmod_Minimization_Converged-OPLS-2005>
0

> <r_mmod_RMS_Derivative-OPLS-2005>
5.01005268096924

$$$$
31
                    3D
 Structure written by MMmdl.
153161  0  0  1  0            999 V2000
  -30.3908  -15.3195   20.3947 C   0  0  0  0  0  0
  -30.4384  -12.8578   19.5094 C   0  0  0  0  0  0
  -29.5354  -12.5792   18.2821 C   0  0  0  0  0  0
  -28.0858  -12.2940   18.7155 C   0  0  0  0  0  0
  -27.6047  -13.2730   19.8154 C   0  0  2  0  0  0
  -28.6371  -13.4669   20.9419 C   0  0  0  0  0  0
  -25.2378  -13.8240   20.5768 C   0  0  0  0  0  0
  -24.1723  -13.0425   20.9264 C   0  0  0  0  0  0
  -24.6371  -11.6924   20.8735 C   0  0  0  0  0  0
  -23.9071  -10.4286   21.0389 C   0  0  0  0  0  0
  -24.3614   -9.4208   21.9178 C   0  0  0  0  0  0
  -23.6284   -8.2240   22.0757 C   0  0  0  0  0  0
  -22.4275   -8.0265   21.3538 C   0  0  0  0  0  0
  -21.9907   -9.0243   20.4646 C   0  0  0  0  0  0
  -22.7236  -10.2127   20.3051 C   0  0  0  0  0  0
  -21.6853   -6.0715   22.5278 C   0  0  0  0  0  0
  -21.4004   -6.5620   23.8211 C   0  0  0  0  0  0
  -21.3666   -5.6780   24.9179 C   0  0  0  0  0  0
  -21.6060   -4.3043   24.7234 C   0  0  0  0  0  0
  -21.8816   -3.8129   23.4353 C   0  0  0  0  0  0
  -21.9194   -4.6944   22.3405 C   0  0  0  0  0  0
  -22.7747  -13.5185   21.1918 C   0  0  0  0  0  0
  -22.1662   -4.2127   21.0981 F   0  0  0  0  0  0
  -21.5647   -3.4532   25.7748 F   0  0  0  0  0  0
  -29.8474  -14.0037   20.2963 N   0  0  0  0  0  0
  -26.2776  -12.9502   20.3185 N   0  0  0  0  0  0
  -25.9305  -11.6609   20.5690 N   0  0  0  0  0  0
  -22.0393  -12.8158   22.0466 N   0  0  0  0  0  0
  -25.4022  -15.1983   20.4293 N   0  0  0  0  0  0
  -31.6271  -15.3162   20.2833 O   0  0  0  0  0  0
  -21.6641   -6.8859   21.4237 O   0  0  0  0  0  0
  -22.3441  -14.5504   20.6788 O   0  0  0  0  0  0
  -24.6636  -31.8198   23.1647 C   0  0  0  0  0  0
  -25.9300  -32.4561   23.8153 C   0  0  1  0  0  0
  -27.2095  -26.8776   20.2105 C   0  0  0  0  0  0
  -25.5964  -33.8383   24.2049 N   0  0  0  0  0  0
  -23.4824  -30.4288   21.5138 C   0  0  2  0  0  0
  -24.9328  -28.7972   20.1233 C   0  0  0  0  0  0
  -22.7661  -29.4424   22.4734 C   0  0  0  0  0  0
  -18.0331  -28.1407   22.8447 C   0  0  0  0  0  0
  -24.1500  -36.7183   23.2654 C   0  0  0  0  0  0
  -26.0537  -30.6094   21.4009 C   0  0  0  0  0  0
  -26.1194  -29.1913   20.7569 C   0  0  0  0  0  0
  -27.2551  -28.2548   20.7653 C   0  0  0  0  0  0
  -25.9913  -26.6398   19.5374 C   0  0  0  0  0  0
  -24.8947  -27.5416   19.4955 C   0  0  0  0  0  0
  -23.7254  -29.7358   20.1453 C   0  0  0  0  0  0
  -25.4128  -36.2928   24.0306 C   0  0  1  0  0  0
  -20.5960  -28.3758   23.1148 C   0  0  2  0  0  0
  -20.6822  -26.9441   22.5376 C   0  0  0  0  0  0
  -19.5802  -26.6378   21.5175 C   0  0  0  0  0  0
  -18.1967  -26.7936   22.1585 C   0  0  0  0  0  0
  -19.1597  -28.8894   23.2790 C   0  0  0  0  0  0
  -18.9515  -30.1478   23.8862 C   0  0  0  0  0  0
  -17.6519  -30.6605   24.0554 C   0  0  0  0  0  0
  -25.9109  -34.9325   23.4999 C   0  0  0  0  0  0
  -16.5389  -29.9107   23.6350 C   0  0  0  0  0  0
  -16.7307  -28.6515   23.0370 C   0  0  0  0  0  0
  -26.4576  -31.6508   25.0662 C   0  0  0  0  0  0
  -25.3702  -31.3761   26.1302 C   0  0  0  0  0  0
  -27.0465  -30.2868   24.6402 C   0  0  0  0  0  0
  -27.6070  -32.4328   25.7455 C   0  0  0  0  0  0
  -27.5559  -37.1715   24.8469 C   0  0  0  0  0  0
  -21.4334  -29.3050   22.3487 N   0  0  0  0  0  0
  -26.4270  -37.3659   23.9434 N   0  0  0  0  0  0
  -24.7551  -30.9836   22.0787 N   0  0  0  0  0  0
  -23.4186  -28.7999   23.2988 O   0  0  0  0  0  0
  -28.2342  -25.7829   20.1896 O   0  0  0  0  0  0
  -26.5743  -34.8864   22.4606 O   0  0  0  0  0  0
  -23.5688  -32.1178   23.6717 O   0  0  0  0  0  0
  -30.3392  -18.4720   21.8831 C   0  0  0  0  0  0
  -30.4041  -19.7803   22.4321 C   0  0  0  0  0  0
  -29.0590  -19.4945   20.1112 C   0  0  0  0  0  0
  -29.1161  -20.9649   20.6352 C   0  0  0  0  0  0
  -29.6687  -18.1754   20.6777 C   0  0  0  0  0  0
  -29.8509  -20.9600   21.8571 C   0  0  0  0  0  0
  -27.3603  -22.1728   19.1071 C   0  0  0  0  0  0
  -29.7337  -22.8856   18.9736 C   0  0  0  0  0  0
  -28.1631  -24.1750   20.6432 C   0  0  0  0  0  0
  -28.6014  -22.5279   19.9455 C   0  0  0  0  0  0
  -29.5958  -16.5877   20.2967 N   0  0  0  0  0  0
  -30.1605  -22.4221   22.7183 Cl  0  0  0  0  0  0
  -31.4446  -13.0970   19.1627 H   0  0  0  0  0  0
  -30.5440  -11.9642   20.1273 H   0  0  0  0  0  0
  -29.9242  -11.7396   17.7043 H   0  0  0  0  0  0
  -29.5545  -13.4456   17.6193 H   0  0  0  0  0  0
  -28.0540  -11.2743   19.1025 H   0  0  0  0  0  0
  -27.4152  -12.3191   17.8561 H   0  0  0  0  0  0
  -27.5132  -14.2361   19.3110 H   0  0  0  0  0  0
  -28.8242  -12.5397   21.4850 H   0  0  0  0  0  0
  -28.2630  -14.1846   21.6732 H   0  0  0  0  0  0
  -25.2754   -9.5706   22.4773 H   0  0  0  0  0  0
  -23.9996   -7.4646   22.7487 H   0  0  0  0  0  0
  -21.0833   -8.8758   19.8952 H   0  0  0  0  0  0
  -22.3670  -10.9665   19.6176 H   0  0  0  0  0  0
  -21.1969   -7.6125   23.9706 H   0  0  0  0  0  0
  -21.1505   -6.0510   25.9083 H   0  0  0  0  0  0
  -22.0588   -2.7589   23.2864 H   0  0  0  0  0  0
  -22.3977  -11.9797   22.4821 H   0  0  0  0  0  0
  -21.1033  -13.1213   22.2689 H   0  0  0  0  0  0
  -24.6402  -15.8514   20.5791 H   0  0  0  0  0  0
  -26.2578  -15.6516   20.1405 H   0  0  0  0  0  0
  -26.7356  -32.5091   23.0864 H   0  0  0  0  0  0
  -25.0048  -33.9511   25.0156 H   0  0  0  0  0  0
  -22.7970  -31.2604   21.3360 H   0  0  0  0  0  0
  -23.3759  -35.9511   23.3285 H   0  0  0  0  0  0
  -24.3584  -36.8861   22.2075 H   0  0  0  0  0  0
  -23.7271  -37.6362   23.6743 H   0  0  0  0  0  0
  -26.2346  -31.3375   20.6109 H   0  0  0  0  0  0
  -26.9165  -30.6838   22.0526 H   0  0  0  0  0  0
  -28.1652  -28.5564   21.2624 H   0  0  0  0  0  0
  -25.8663  -25.6846   19.0477 H   0  0  0  0  0  0
  -23.9935  -27.2304   18.9843 H   0  0  0  0  0  0
  -23.8944  -30.5014   19.3872 H   0  0  0  0  0  0
  -22.8332  -29.1956   19.8220 H   0  0  0  0  0  0
  -25.1325  -36.1708   25.0792 H   0  0  0  0  0  0
  -21.0065  -28.3383   24.1263 H   0  0  0  0  0  0
  -20.5664  -26.2392   23.3628 H   0  0  0  0  0  0
  -21.6685  -26.7399   22.1192 H   0  0  0  0  0  0
  -19.6988  -25.6272   21.1255 H   0  0  0  0  0  0
  -19.6756  -27.3156   20.6678 H   0  0  0  0  0  0
  -17.4228  -26.6657   21.3997 H   0  0  0  0  0  0
  -18.0391  -26.0080   22.8997 H   0  0  0  0  0  0
  -19.8002  -30.7275   24.2216 H   0  0  0  0  0  0
  -17.5092  -31.6298   24.5155 H   0  0  0  0  0  0
  -15.5399  -30.3021   23.7705 H   0  0  0  0  0  0
  -15.8689  -28.0832   22.7134 H   0  0  0  0  0  0
  -24.5969  -30.7031   25.7587 H   0  0  0  0  0  0
  -24.8801  -32.2950   26.4507 H   0  0  0  0  0  0
  -25.7916  -30.9074   27.0200 H   0  0  0  0  0  0
  -26.3105  -29.6541   24.1415 H   0  0  0  0  0  0
  -27.4010  -29.7234   25.5047 H   0  0  0  0  0  0
  -27.9061  -30.4050   23.9801 H   0  0  0  0  0  0
  -27.2686  -33.3748   26.1781 H   0  0  0  0  0  0
  -28.3986  -32.6687   25.0332 H   0  0  0  0  0  0
  -28.0618  -31.8614   26.5553 H   0  0  0  0  0  0
  -28.2491  -38.0083   24.7508 H   0  0  0  0  0  0
  -28.1133  -36.2588   24.6287 H   0  0  0  0  0  0
  -27.2289  -37.1324   25.8876 H   0  0  0  0  0  0
  -20.9581  -29.8738   21.6625 H   0  0  0  0  0  0
  -26.0104  -38.2694   24.1482 H   0  0  0  0  0  0
  -30.7972  -17.6692   22.4426 H   0  0  0  0  0  0
  -30.9298  -19.8921   23.3707 H   0  0  0  0  0  0
  -28.5183  -19.3767   19.1829 H   0  0  0  0  0  0
  -27.5639  -21.3707   18.3990 H   0  0  0  0  0  0
  -27.0147  -23.0289   18.5300 H   0  0  0  0  0  0
  -26.5345  -21.8468   19.7416 H   0  0  0  0  0  0
  -29.9565  -22.0669   18.2891 H   0  0  0  0  0  0
  -30.6460  -23.1238   19.5197 H   0  0  0  0  0  0
  -29.4779  -23.7539   18.3663 H   0  0  0  0  0  0
  -28.8029  -24.2557   21.5151 H   0  0  0  0  0  0
  -27.1746  -24.0574   21.0871 H   0  0  0  0  0  0
  -28.6790  -16.3505   19.9476 H   0  0  0  0  0  0
  1 25  1  0  0  0
  1 30  2  0  0  0
  1 81  1  0  0  0
  2  3  1  0  0  0
  2 25  1  0  0  0
  2 83  1  0  0  0
  2 84  1  0  0  0
  3  4  1  0  0  0
  3 85  1  0  0  0
  3 86  1  0  0  0
  4  5  1  0  0  0
  4 87  1  0  0  0
  4 88  1  0  0  0
  5  6  1  0  0  0
  5 26  1  0  0  0
  5 89  1  0  0  0
  6 25  1  0  0  0
  6 90  1  0  0  0
  6 91  1  0  0  0
  7  8  2  0  0  0
  7 26  1  0  0  0
  7 29  1  0  0  0
  8  9  1  0  0  0
  8 22  1  0  0  0
  9 10  1  0  0  0
  9 27  2  0  0  0
 10 11  2  0  0  0
 10 15  1  0  0  0
 11 12  1  0  0  0
 11 92  1  0  0  0
 12 13  2  0  0  0
 12 93  1  0  0  0
 13 14  1  0  0  0
 13 31  1  0  0  0
 14 15  2  0  0  0
 14 94  1  0  0  0
 15 95  1  0  0  0
 16 17  2  0  0  0
 16 21  1  0  0  0
 16 31  1  0  0  0
 17 18  1  0  0  0
 17 96  1  0  0  0
 18 19  2  0  0  0
 18 97  1  0  0  0
 19 20  1  0  0  0
 19 24  1  0  0  0
 20 21  2  0  0  0
 20 98  1  0  0  0
 21 23  1  0  0  0
 22 28  1  0  0  0
 22 32  2  0  0  0
 26 27  1  0  0  0
 28 99  1  0  0  0
 28100  1  0  0  0
 29101  1  0  0  0
 29102  1  0  0  0
 33 34  1  0  0  0
 33 66  1  0  0  0
 33 70  2  0  0  0
 34 36  1  0  0  0
 34 59  1  0  0  0
 34103  1  0  0  0
 35 44  2  0  0  0
 35 45  1  0  0  0
 35 68  1  0  0  0
 36 56  1  0  0  0
 36104  1  0  0  0
 37 39  1  0  0  0
 37 47  1  0  0  0
 37 66  1  0  0  0
 37105  1  0  0  0
 38 43  2  0  0  0
 38 46  1  0  0  0
 38 47  1  0  0  0
 39 64  1  0  0  0
 39 67  2  0  0  0
 40 52  1  0  0  0
 40 53  2  0  0  0
 40 58  1  0  0  0
 41106  1  0  0  0
 41107  1  0  0  0
 41108  1  0  0  0
 41 48  1  0  0  0
 42 43  1  0  0  0
 42 66  1  0  0  0
 42109  1  0  0  0
 42110  1  0  0  0
 43 44  1  0  0  0
 44111  1  0  0  0
 45 46  2  0  0  0
 45112  1  0  0  0
 46113  1  0  0  0
 47114  1  0  0  0
 47115  1  0  0  0
 48 56  1  0  0  0
 48 65  1  0  0  0
 48116  1  0  0  0
 49 50  1  0  0  0
 49 53  1  0  0  0
 49 64  1  0  0  0
 49117  1  0  0  0
 50 51  1  0  0  0
 50118  1  0  0  0
 50119  1  0  0  0
 51 52  1  0  0  0
 51120  1  0  0  0
 51121  1  0  0  0
 52122  1  0  0  0
 52123  1  0  0  0
 53 54  1  0  0  0
 54 55  2  0  0  0
 54124  1  0  0  0
 55 57  1  0  0  0
 55125  1  0  0  0
 56 69  2  0  0  0
 57 58  2  0  0  0
 57126  1  0  0  0
 58127  1  0  0  0
 59 60  1  0  0  0
 59 61  1  0  0  0
 59 62  1  0  0  0
 60128  1  0  0  0
 60129  1  0  0  0
 60130  1  0  0  0
 61131  1  0  0  0
 61132  1  0  0  0
 61133  1  0  0  0
 62134  1  0  0  0
 62135  1  0  0  0
 62136  1  0  0  0
 63 65  1  0  0  0
 63137  1  0  0  0
 63138  1  0  0  0
 63139  1  0  0  0
 64140  1  0  0  0
 65141  1  0  0  0
 68 79  1  0  0  0
 71 72  2  0  0  0
 71 75  1  0  0  0
 71142  1  0  0  0
 72 76  1  0  0  0
 72143  1  0  0  0
 73 74  1  0  0  0
 73 75  2  0  0  0
 73144  1  0  0  0
 74 76  2  0  0  0
 74 80  1  0  0  0
 75 81  1  0  0  0
 76 82  1  0  0  0
 77145  1  0  0  0
 77146  1  0  0  0
 77147  1  0  0  0
 77 80  1  0  0  0
 78 80  1  0  0  0
 78148  1  0  0  0
 78149  1  0  0  0
 78150  1  0  0  0
 79 80  1  0  0  0
 79151  1  0  0  0
 79152  1  0  0  0
 81153  1  0  0  0
M  ISO  4   1 100  68 101  79 101  81 100
M  END
> <chiral flag>
0

> <version>
0

> <s_m_source_file>
/data/baiqing/PycharmProjects/Reinvent-master-3.2/result/LINK_invent/BTK/process_docking_weight1_custom_product_contain_oxygen_bond_distance_aromatic_linkinvent_7_9_3/rearranged_h_0032.sdf

> <i_m_source_file_index>
32

> <r_mmod_Potential_Energy-OPLS-2005>
1459.26599121094

> <r_mmod_Stretch_Energy-OPLS-2005>
661.646911621094

> <r_mmod_Bend_Energy-OPLS-2005>
462.392150878906

> <r_mmod_Torsional_Energy-OPLS-2005>
262.627288818359

> <r_mmod_Improper_Torsional_Energy-OPLS-2005>
9.09932899475098

> <r_mmod_Van_der_Waal_Energy-OPLS-2005>
121.418846130371

> <r_mmod_Electrostatic_Energy-OPLS-2005>
-372.866943359375

> <r_mmod_Solvation_Energy-OPLS-2005>
-206.638259887695

> <b_mmod_Minimization_Converged-OPLS-2005>
0

> <r_mmod_RMS_Derivative-OPLS-2005>
3.2587366104126

$$$$
32
                    3D
 Structure written by MMmdl.
166175  0  0  1  0            999 V2000
  -30.7045  -14.4666   20.6117 C   0  0  0  0  0  0
  -30.4169  -12.3216   19.4075 C   0  0  0  0  0  0
  -29.4860  -12.5184   18.1952 C   0  0  0  0  0  0
  -28.0076  -12.3782   18.6099 C   0  0  0  0  0  0
  -27.6572  -13.2086   19.8741 C   0  0  2  0  0  0
  -28.6987  -12.9785   20.9889 C   0  0  0  0  0  0
  -25.2574  -13.8152   20.5716 C   0  0  0  0  0  0
  -24.1828  -13.0429   20.9175 C   0  0  0  0  0  0
  -24.6377  -11.6891   20.8713 C   0  0  0  0  0  0
  -23.9044  -10.4277   21.0381 C   0  0  0  0  0  0
  -24.3601   -9.4205   21.9172 C   0  0  0  0  0  0
  -23.6282   -8.2244   22.0752 C   0  0  0  0  0  0
  -22.4267   -8.0272   21.3539 C   0  0  0  0  0  0
  -21.9896   -9.0237   20.4639 C   0  0  0  0  0  0
  -22.7214  -10.2118   20.3038 C   0  0  0  0  0  0
  -21.6856   -6.0729   22.5277 C   0  0  0  0  0  0
  -21.4013   -6.5633   23.8209 C   0  0  0  0  0  0
  -21.3662   -5.6790   24.9175 C   0  0  0  0  0  0
  -21.6044   -4.3050   24.7227 C   0  0  0  0  0  0
  -21.8824   -3.8140   23.4347 C   0  0  0  0  0  0
  -21.9190   -4.6955   22.3401 C   0  0  0  0  0  0
  -22.7848  -13.5219   21.1850 C   0  0  0  0  0  0
  -22.1665   -4.2140   21.0981 F   0  0  0  0  0  0
  -21.5628   -3.4539   25.7741 F   0  0  0  0  0  0
  -30.0238  -13.3005   20.4344 N   0  0  0  0  0  0
  -26.2997  -12.9328   20.3356 N   0  0  0  0  0  0
  -25.9298  -11.6479   20.5722 N   0  0  0  0  0  0
  -22.0502  -12.8200   22.0397 N   0  0  0  0  0  0
  -25.4316  -15.1889   20.4241 N   0  0  0  0  0  0
  -31.8187  -14.6658   20.1206 O   0  0  0  0  0  0
  -21.6639   -6.8868   21.4236 O   0  0  0  0  0  0
  -22.3533  -14.5539   20.6719 O   0  0  0  0  0  0
  -24.6159  -31.8636   23.2094 C   0  0  0  0  0  0
  -25.9054  -32.4801   23.8369 C   0  0  1  0  0  0
  -27.2430  -27.4077   20.0999 C   0  0  0  0  0  0
  -25.5920  -33.8601   24.2295 N   0  0  0  0  0  0
  -23.4048  -30.4827   21.5509 C   0  0  2  0  0  0
  -24.8528  -28.9442   20.1129 C   0  0  0  0  0  0
  -22.7421  -29.4590   22.4992 C   0  0  0  0  0  0
  -18.0281  -28.1375   22.8462 C   0  0  0  0  0  0
  -24.1479  -36.7281   23.2641 C   0  0  0  0  0  0
  -25.9358  -30.8155   21.3708 C   0  0  0  0  0  0
  -26.0109  -29.4501   20.7144 C   0  0  0  0  0  0
  -27.2022  -28.6892   20.7028 C   0  0  0  0  0  0
  -26.0627  -26.9156   19.4960 C   0  0  0  0  0  0
  -24.8754  -27.6767   19.5022 C   0  0  0  0  0  0
  -23.6153  -29.8146   20.1654 C   0  0  0  0  0  0
  -25.4120  -36.3094   24.0323 C   0  0  1  0  0  0
  -20.5869  -28.3641   23.1332 C   0  0  2  0  0  0
  -20.6757  -26.9359   22.5468 C   0  0  0  0  0  0
  -19.5762  -26.6355   21.5232 C   0  0  0  0  0  0
  -18.1915  -26.7929   22.1575 C   0  0  0  0  0  0
  -19.1532  -28.8829   23.2880 C   0  0  0  0  0  0
  -18.9457  -30.1440   23.8870 C   0  0  0  0  0  0
  -17.6454  -30.6563   24.0569 C   0  0  0  0  0  0
  -25.9050  -34.9462   23.5100 C   0  0  0  0  0  0
  -16.5342  -29.9055   23.6347 C   0  0  0  0  0  0
  -16.7269  -28.6500   23.0320 C   0  0  0  0  0  0
  -26.4513  -31.6609   25.0708 C   0  0  0  0  0  0
  -25.3781  -31.3709   26.1454 C   0  0  0  0  0  0
  -27.0377  -30.3047   24.6119 C   0  0  0  0  0  0
  -27.6073  -32.4380   25.7449 C   0  0  0  0  0  0
  -27.5587  -37.1788   24.8465 C   0  0  0  0  0  0
  -21.4151  -29.2969   22.3718 N   0  0  0  0  0  0
  -26.4301  -37.3793   23.9407 N   0  0  0  0  0  0
  -24.6697  -31.0700   22.1015 N   0  0  0  0  0  0
  -23.4178  -28.8142   23.3052 O   0  0  0  0  0  0
  -28.4445  -26.7181   20.1441 O   0  0  0  0  0  0
  -26.5606  -34.8925   22.4655 O   0  0  0  0  0  0
  -23.5358  -32.1410   23.7486 O   0  0  0  0  0  0
  -30.6996  -20.1664   20.4010 C   0  0  0  0  0  0
  -28.8163  -20.0105   21.9148 C   0  0  0  0  0  0
  -29.6350  -20.8042   21.0800 C   0  0  0  0  0  0
  -30.2101  -18.0179   21.5079 C   0  0  0  0  0  0
  -30.9864  -18.7978   20.6163 C   0  0  0  0  0  0
  -29.0962  -18.6383   22.1306 C   0  0  0  0  0  0
  -28.5594  -25.1410   18.2102 C   0  0  0  0  0  0
  -27.9594  -23.7733   17.8385 C   0  0  0  0  0  0
  -27.8642  -24.2351   20.5281 C   0  0  0  0  0  0
  -28.6213  -25.3409   19.7365 C   0  0  2  0  0  0
  -28.5170  -22.6144   18.7013 C   0  0  2  0  0  0
  -27.8716  -21.2922   18.2533 C   0  0  0  0  0  0
  -30.6927  -16.6110   21.9243 C   0  0  0  0  0  0
  -29.4479  -22.3348   21.0159 C   0  0  0  0  0  0
  -30.0646  -15.4198   21.3203 N   0  0  0  0  0  0
  -28.3160  -22.8375   20.1717 N   0  3  1  0  0  0
  -32.0589  -18.2480   19.9982 F   0  0  0  0  0  0
  -28.0924  -17.7571   23.2285 Cl  0  0  0  0  0  0
  -31.4601  -12.4251   19.1048 H   0  0  0  0  0  0
  -30.3221  -11.3081   19.7993 H   0  0  0  0  0  0
  -29.7243  -11.7943   17.4145 H   0  0  0  0  0  0
  -29.6515  -13.5038   17.7576 H   0  0  0  0  0  0
  -27.8141  -11.3213   18.7947 H   0  0  0  0  0  0
  -27.3575  -12.6653   17.7821 H   0  0  0  0  0  0
  -27.7032  -14.2595   19.5885 H   0  0  0  0  0  0
  -28.6795  -11.9355   21.3101 H   0  0  0  0  0  0
  -28.4547  -13.5575   21.8797 H   0  0  0  0  0  0
  -25.2748   -9.5694   22.4743 H   0  0  0  0  0  0
  -23.9995   -7.4642   22.7480 H   0  0  0  0  0  0
  -21.0828   -8.8741   19.8945 H   0  0  0  0  0  0
  -22.3663  -10.9653   19.6144 H   0  0  0  0  0  0
  -21.2010   -7.6143   23.9707 H   0  0  0  0  0  0
  -21.1482   -6.0526   25.9081 H   0  0  0  0  0  0
  -22.0598   -2.7601   23.2855 H   0  0  0  0  0  0
  -22.4123  -11.9842   22.4755 H   0  0  0  0  0  0
  -21.1114  -13.1202   22.2614 H   0  0  0  0  0  0
  -24.6761  -15.8474   20.5781 H   0  0  0  0  0  0
  -26.2996  -15.6356   20.1578 H   0  0  0  0  0  0
  -26.7083  -32.5506   23.1093 H   0  0  0  0  0  0
  -25.0159  -33.9777   25.0500 H   0  0  0  0  0  0
  -22.6912  -31.2971   21.4128 H   0  0  0  0  0  0
  -23.3771  -35.9584   23.3337 H   0  0  0  0  0  0
  -24.3551  -36.8905   22.2052 H   0  0  0  0  0  0
  -23.7214  -37.6475   23.6657 H   0  0  0  0  0  0
  -26.0634  -31.5826   20.6069 H   0  0  0  0  0  0
  -26.8182  -30.8612   21.9973 H   0  0  0  0  0  0
  -28.0949  -29.0750   21.1768 H   0  0  0  0  0  0
  -26.0357  -25.9492   19.0163 H   0  0  0  0  0  0
  -23.9854  -27.2800   19.0323 H   0  0  0  0  0  0
  -23.7217  -30.5932   19.4096 H   0  0  0  0  0  0
  -22.7391  -29.2349   19.8701 H   0  0  0  0  0  0
  -25.1313  -36.1938   25.0822 H   0  0  0  0  0  0
  -20.9962  -28.3214   24.1448 H   0  0  0  0  0  0
  -20.5662  -26.2219   23.3646 H   0  0  0  0  0  0
  -21.6626  -26.7375   22.1269 H   0  0  0  0  0  0
  -19.6917  -25.6269   21.1248 H   0  0  0  0  0  0
  -19.6770  -27.3172   20.6777 H   0  0  0  0  0  0
  -17.4234  -26.6763   21.3912 H   0  0  0  0  0  0
  -18.0217  -26.0044   22.8924 H   0  0  0  0  0  0
  -19.7933  -30.7281   24.2210 H   0  0  0  0  0  0
  -17.5005  -31.6248   24.5168 H   0  0  0  0  0  0
  -15.5334  -30.2934   23.7726 H   0  0  0  0  0  0
  -15.8673  -28.0854   22.6980 H   0  0  0  0  0  0
  -24.6041  -30.6928   25.7839 H   0  0  0  0  0  0
  -24.8843  -32.2841   26.4769 H   0  0  0  0  0  0
  -25.8156  -30.9037   27.0283 H   0  0  0  0  0  0
  -26.2913  -29.6733   24.1267 H   0  0  0  0  0  0
  -27.4272  -29.7352   25.4581 H   0  0  0  0  0  0
  -27.8695  -30.4399   23.9195 H   0  0  0  0  0  0
  -27.2673  -33.3678   26.2014 H   0  0  0  0  0  0
  -28.3833  -32.6977   25.0237 H   0  0  0  0  0  0
  -28.0787  -31.8538   26.5363 H   0  0  0  0  0  0
  -28.2636  -38.0064   24.7521 H   0  0  0  0  0  0
  -28.1064  -36.2601   24.6285 H   0  0  0  0  0  0
  -27.2306  -37.1455   25.8874 H   0  0  0  0  0  0
  -20.9306  -29.8654   21.6916 H   0  0  0  0  0  0
  -26.0189  -38.2863   24.1452 H   0  0  0  0  0  0
  -31.3527  -20.7342   19.7532 H   0  0  0  0  0  0
  -27.9958  -20.4679   22.4515 H   0  0  0  0  0  0
  -27.9855  -25.9313   17.7285 H   0  0  0  0  0  0
  -29.5690  -25.2271   17.8042 H   0  0  0  0  0  0
  -28.1468  -23.5730   16.7840 H   0  0  0  0  0  0
  -26.8747  -23.8164   17.9446 H   0  0  0  0  0  0
  -26.7955  -24.2998   20.3268 H   0  0  0  0  0  0
  -27.9576  -24.4100   21.6001 H   0  0  0  0  0  0
  -29.6631  -25.1664   20.0069 H   0  0  0  0  0  0
  -29.5877  -22.5521   18.4971 H   0  0  0  0  0  0
  -26.7935  -21.3036   18.4148 H   0  0  0  0  0  0
  -28.2807  -20.4304   18.7772 H   0  0  0  0  0  0
  -28.0399  -21.1178   17.1908 H   0  0  0  0  0  0
  -30.5459  -16.5198   23.0011 H   0  0  0  0  0  0
  -31.7762  -16.5690   21.8083 H   0  0  0  0  0  0
  -30.3792  -22.8034   20.6958 H   0  0  0  0  0  0
  -29.3025  -22.6685   22.0447 H   0  0  0  0  0  0
  -29.1329  -15.1895   21.6298 H   0  0  0  0  0  0
  -27.5376  -22.2537   20.4367 H   0  0  0  0  0  0
  1 25  1  0  0  0
  1 30  2  0  0  0
  1 85  1  0  0  0
  2  3  1  0  0  0
  2 25  1  0  0  0
  2 89  1  0  0  0
  2 90  1  0  0  0
  3  4  1  0  0  0
  3 91  1  0  0  0
  3 92  1  0  0  0
  4  5  1  0  0  0
  4 93  1  0  0  0
  4 94  1  0  0  0
  5  6  1  0  0  0
  5 26  1  0  0  0
  5 95  1  0  0  0
  6 25  1  0  0  0
  6 96  1  0  0  0
  6 97  1  0  0  0
  7  8  2  0  0  0
  7 26  1  0  0  0
  7 29  1  0  0  0
  8  9  1  0  0  0
  8 22  1  0  0  0
  9 10  1  0  0  0
  9 27  2  0  0  0
 10 11  2  0  0  0
 10 15  1  0  0  0
 11 12  1  0  0  0
 11 98  1  0  0  0
 12 13  2  0  0  0
 12 99  1  0  0  0
 13 14  1  0  0  0
 13 31  1  0  0  0
 14 15  2  0  0  0
 14100  1  0  0  0
 15101  1  0  0  0
 16 17  2  0  0  0
 16 21  1  0  0  0
 16 31  1  0  0  0
 17 18  1  0  0  0
 17102  1  0  0  0
 18 19  2  0  0  0
 18103  1  0  0  0
 19 20  1  0  0  0
 19 24  1  0  0  0
 20 21  2  0  0  0
 20104  1  0  0  0
 21 23  1  0  0  0
 22 28  1  0  0  0
 22 32  2  0  0  0
 26 27  1  0  0  0
 28105  1  0  0  0
 28106  1  0  0  0
 29107  1  0  0  0
 29108  1  0  0  0
 33 34  1  0  0  0
 33 66  1  0  0  0
 33 70  2  0  0  0
 34 36  1  0  0  0
 34 59  1  0  0  0
 34109  1  0  0  0
 35 44  2  0  0  0
 35 45  1  0  0  0
 35 68  1  0  0  0
 36 56  1  0  0  0
 36110  1  0  0  0
 37 39  1  0  0  0
 37 47  1  0  0  0
 37 66  1  0  0  0
 37111  1  0  0  0
 38 43  2  0  0  0
 38 46  1  0  0  0
 38 47  1  0  0  0
 39 64  1  0  0  0
 39 67  2  0  0  0
 40 52  1  0  0  0
 40 53  2  0  0  0
 40 58  1  0  0  0
 41112  1  0  0  0
 41113  1  0  0  0
 41114  1  0  0  0
 41 48  1  0  0  0
 42 43  1  0  0  0
 42 66  1  0  0  0
 42115  1  0  0  0
 42116  1  0  0  0
 43 44  1  0  0  0
 44117  1  0  0  0
 45 46  2  0  0  0
 45118  1  0  0  0
 46119  1  0  0  0
 47120  1  0  0  0
 47121  1  0  0  0
 48 56  1  0  0  0
 48 65  1  0  0  0
 48122  1  0  0  0
 49 50  1  0  0  0
 49 53  1  0  0  0
 49 64  1  0  0  0
 49123  1  0  0  0
 50 51  1  0  0  0
 50124  1  0  0  0
 50125  1  0  0  0
 51 52  1  0  0  0
 51126  1  0  0  0
 51127  1  0  0  0
 52128  1  0  0  0
 52129  1  0  0  0
 53 54  1  0  0  0
 54 55  2  0  0  0
 54130  1  0  0  0
 55 57  1  0  0  0
 55131  1  0  0  0
 56 69  2  0  0  0
 57 58  2  0  0  0
 57132  1  0  0  0
 58133  1  0  0  0
 59 60  1  0  0  0
 59 61  1  0  0  0
 59 62  1  0  0  0
 60134  1  0  0  0
 60135  1  0  0  0
 60136  1  0  0  0
 61137  1  0  0  0
 61138  1  0  0  0
 61139  1  0  0  0
 62140  1  0  0  0
 62141  1  0  0  0
 62142  1  0  0  0
 63 65  1  0  0  0
 63143  1  0  0  0
 63144  1  0  0  0
 63145  1  0  0  0
 64146  1  0  0  0
 65147  1  0  0  0
 68 80  1  0  0  0
 71 73  2  0  0  0
 71 75  1  0  0  0
 71148  1  0  0  0
 72 73  1  0  0  0
 72 76  2  0  0  0
 72149  1  0  0  0
 73 84  1  0  0  0
 74 75  2  0  0  0
 74 76  1  0  0  0
 74 83  1  0  0  0
 75 87  1  0  0  0
 76 88  1  0  0  0
 77 78  1  0  0  0
 77 80  1  0  0  0
 77150  1  0  0  0
 77151  1  0  0  0
 78 81  1  0  0  0
 78152  1  0  0  0
 78153  1  0  0  0
 79 80  1  0  0  0
 79 86  1  0  0  0
 79154  1  0  0  0
 79155  1  0  0  0
 80156  1  0  0  0
 81 82  1  0  0  0
 81 86  1  0  0  0
 81157  1  0  0  0
 82158  1  0  0  0
 82159  1  0  0  0
 82160  1  0  0  0
 83 85  1  0  0  0
 83161  1  0  0  0
 83162  1  0  0  0
 84163  1  0  0  0
 84164  1  0  0  0
 84 86  1  0  0  0
 85165  1  0  0  0
 86166  1  0  0  0
M  CHG  1  86   1
M  ISO  4   1 100  68 101  80 101  85 100
M  END
> <chiral flag>
0

> <version>
0

> <s_m_source_file>
/data/baiqing/PycharmProjects/Reinvent-master-3.2/result/LINK_invent/BTK/process_docking_weight1_custom_product_contain_oxygen_bond_distance_aromatic_linkinvent_7_9_3/rearranged_h_0032.sdf

> <i_m_source_file_index>
33

> <r_mmod_Potential_Energy-OPLS-2005>
-104.39266204834

> <r_mmod_Stretch_Energy-OPLS-2005>
46.7432174682617

> <r_mmod_Bend_Energy-OPLS-2005>
133.240417480469

> <r_mmod_Torsional_Energy-OPLS-2005>
240.741088867188

> <r_mmod_Improper_Torsional_Energy-OPLS-2005>
3.50665163993835

> <r_mmod_Van_der_Waal_Energy-OPLS-2005>
151.917205810547

> <r_mmod_Electrostatic_Energy-OPLS-2005>
-256.681701660156

> <r_mmod_Solvation_Energy-OPLS-2005>
-438.358856201172

> <b_mmod_Minimization_Converged-OPLS-2005>
0

> <r_mmod_RMS_Derivative-OPLS-2005>
2.58785343170166

$$$$
33
                    3D
 Structure written by MMmdl.
166175  0  0  1  0            999 V2000
  -30.6088  -14.7201   20.4618 C   0  0  0  0  0  0
  -30.4337  -12.4390   19.4611 C   0  0  0  0  0  0
  -29.5079  -12.4964   18.2265 C   0  0  0  0  0  0
  -28.0333  -12.3246   18.6435 C   0  0  0  0  0  0
  -27.6407  -13.2247   19.8458 C   0  0  2  0  0  0
  -28.6874  -13.1518   20.9784 C   0  0  0  0  0  0
  -25.2516  -13.8174   20.5689 C   0  0  0  0  0  0
  -24.1804  -13.0432   20.9204 C   0  0  0  0  0  0
  -24.6387  -11.6907   20.8749 C   0  0  0  0  0  0
  -23.9065  -10.4288   21.0409 C   0  0  0  0  0  0
  -24.3615   -9.4205   21.9190 C   0  0  0  0  0  0
  -23.6291   -8.2244   22.0761 C   0  0  0  0  0  0
  -22.4277   -8.0278   21.3547 C   0  0  0  0  0  0
  -21.9912   -9.0247   20.4645 C   0  0  0  0  0  0
  -22.7240  -10.2126   20.3053 C   0  0  0  0  0  0
  -21.6852   -6.0731   22.5280 C   0  0  0  0  0  0
  -21.4016   -6.5637   23.8212 C   0  0  0  0  0  0
  -21.3662   -5.6793   24.9174 C   0  0  0  0  0  0
  -21.6043   -4.3055   24.7225 C   0  0  0  0  0  0
  -21.8820   -3.8145   23.4347 C   0  0  0  0  0  0
  -21.9195   -4.6960   22.3403 C   0  0  0  0  0  0
  -22.7828  -13.5219   21.1859 C   0  0  0  0  0  0
  -22.1663   -4.2146   21.0981 F   0  0  0  0  0  0
  -21.5629   -3.4539   25.7738 F   0  0  0  0  0  0
  -29.9862  -13.4975   20.3901 N   0  0  0  0  0  0
  -26.2932  -12.9369   20.3260 N   0  0  0  0  0  0
  -25.9311  -11.6520   20.5743 N   0  0  0  0  0  0
  -22.0466  -12.8204   22.0402 N   0  0  0  0  0  0
  -25.4191  -15.1902   20.4103 N   0  0  0  0  0  0
  -31.8083  -14.8194   20.1879 O   0  0  0  0  0  0
  -21.6642   -6.8874   21.4241 O   0  0  0  0  0  0
  -22.3526  -14.5536   20.6714 O   0  0  0  0  0  0
  -24.6287  -31.8542   23.1962 C   0  0  0  0  0  0
  -25.9112  -32.4750   23.8307 C   0  0  1  0  0  0
  -27.2234  -27.2705   20.1416 C   0  0  0  0  0  0
  -25.5910  -33.8549   24.2225 N   0  0  0  0  0  0
  -23.4266  -30.4752   21.5373 C   0  0  2  0  0  0
  -24.8747  -28.9141   20.1138 C   0  0  0  0  0  0
  -22.7493  -29.4607   22.4891 C   0  0  0  0  0  0
  -18.0301  -28.1414   22.8476 C   0  0  0  0  0  0
  -24.1476  -36.7258   23.2649 C   0  0  0  0  0  0
  -25.9698  -30.7704   21.3739 C   0  0  0  0  0  0
  -26.0437  -29.3909   20.7223 C   0  0  0  0  0  0
  -27.2215  -28.5818   20.7218 C   0  0  0  0  0  0
  -26.0396  -26.8560   19.4986 C   0  0  0  0  0  0
  -24.8765  -27.6534   19.4911 C   0  0  0  0  0  0
  -23.6465  -29.8025   20.1563 C   0  0  0  0  0  0
  -25.4109  -36.3050   24.0331 C   0  0  1  0  0  0
  -20.5901  -28.3705   23.1268 C   0  0  2  0  0  0
  -20.6792  -26.9421   22.5410 C   0  0  0  0  0  0
  -19.5771  -26.6405   21.5211 C   0  0  0  0  0  0
  -18.1946  -26.7958   22.1614 C   0  0  0  0  0  0
  -19.1557  -28.8875   23.2871 C   0  0  0  0  0  0
  -18.9482  -30.1477   23.8884 C   0  0  0  0  0  0
  -17.6484  -30.6599   24.0573 C   0  0  0  0  0  0
  -25.9056  -34.9436   23.5083 C   0  0  0  0  0  0
  -16.5369  -29.9101   23.6338 C   0  0  0  0  0  0
  -16.7292  -28.6533   23.0333 C   0  0  0  0  0  0
  -26.4491  -31.6591   25.0702 C   0  0  0  0  0  0
  -25.3707  -31.3754   26.1416 C   0  0  0  0  0  0
  -27.0387  -30.3028   24.6189 C   0  0  0  0  0  0
  -27.6019  -32.4368   25.7481 C   0  0  0  0  0  0
  -27.5565  -37.1776   24.8469 C   0  0  0  0  0  0
  -21.4204  -29.3049   22.3646 N   0  0  0  0  0  0
  -26.4270  -37.3763   23.9432 N   0  0  0  0  0  0
  -24.6942  -31.0521   22.0924 N   0  0  0  0  0  0
  -23.4197  -28.8159   23.2996 O   0  0  0  0  0  0
  -28.3441  -26.4157   20.1393 O   0  0  0  0  0  0
  -26.5645  -34.8925   22.4657 O   0  0  0  0  0  0
  -23.5438  -32.1368   23.7259 O   0  0  0  0  0  0
  -31.2386  -17.5709   21.6012 C   0  0  0  0  0  0
  -29.7838  -19.8089   20.5053 C   0  0  0  0  0  0
  -29.4043  -18.4163   20.2445 C   0  0  0  0  0  0
  -30.9525  -20.0029   21.3007 C   0  0  0  0  0  0
  -30.1448  -17.2734   20.7695 C   0  0  0  0  0  0
  -31.6341  -18.8922   21.8678 C   0  0  0  0  0  0
  -27.3486  -23.4177   22.4415 C   0  0  0  0  0  0
  -27.1331  -24.7281   21.6536 C   0  0  0  0  0  0
  -27.5908  -22.1903   21.5318 C   0  0  0  0  0  0
  -28.6369  -23.7039   19.8568 C   0  0  0  0  0  0
  -28.3313  -25.0285   20.7312 C   0  0  1  0  0  0
  -28.2156  -18.1427   19.3324 C   0  0  0  0  0  0
  -31.5229  -21.4014   21.5308 C   0  0  0  0  0  0
  -29.0759  -21.0901   19.8349 C   0  0  0  0  0  0
  -29.8016  -15.8442   20.5700 N   0  0  0  0  0  0
  -28.7621  -22.3729   20.6360 N   0  3  2  0  0  0
  -32.9973  -19.1043   22.9136 Cl  0  0  0  0  0  0
  -31.4753  -12.5644   19.1606 H   0  0  0  0  0  0
  -30.3754  -11.4622   19.9430 H   0  0  0  0  0  0
  -29.7863  -11.7224   17.5095 H   0  0  0  0  0  0
  -29.6359  -13.4504   17.7119 H   0  0  0  0  0  0
  -27.8893  -11.2756   18.9067 H   0  0  0  0  0  0
  -27.3746  -12.5156   17.7958 H   0  0  0  0  0  0
  -27.6344  -14.2453   19.4638 H   0  0  0  0  0  0
  -28.7212  -12.1522   21.4151 H   0  0  0  0  0  0
  -28.4296  -13.8331   21.7917 H   0  0  0  0  0  0
  -25.2753   -9.5688   22.4770 H   0  0  0  0  0  0
  -23.9997   -7.4638   22.7483 H   0  0  0  0  0  0
  -21.0847   -8.8757   19.8946 H   0  0  0  0  0  0
  -22.3696  -10.9661   19.6161 H   0  0  0  0  0  0
  -21.2007   -7.6146   23.9713 H   0  0  0  0  0  0
  -21.1485   -6.0524   25.9078 H   0  0  0  0  0  0
  -22.0597   -2.7606   23.2847 H   0  0  0  0  0  0
  -22.4070  -11.9849   22.4771 H   0  0  0  0  0  0
  -21.1079  -13.1224   22.2594 H   0  0  0  0  0  0
  -24.6441  -15.8354   20.5189 H   0  0  0  0  0  0
  -26.2535  -15.6340   20.0534 H   0  0  0  0  0  0
  -26.7164  -32.5390   23.1038 H   0  0  0  0  0  0
  -25.0044  -33.9675   25.0361 H   0  0  0  0  0  0
  -22.7235  -31.2970   21.3864 H   0  0  0  0  0  0
  -23.3749  -35.9572   23.3314 H   0  0  0  0  0  0
  -24.3570  -36.8890   22.2062 H   0  0  0  0  0  0
  -23.7225  -37.6453   23.6689 H   0  0  0  0  0  0
  -26.1101  -31.5275   20.6009 H   0  0  0  0  0  0
  -26.8466  -30.8185   22.0078 H   0  0  0  0  0  0
  -28.1206  -28.9456   21.1991 H   0  0  0  0  0  0
  -26.0121  -25.8933   19.0071 H   0  0  0  0  0  0
  -23.9835  -27.2861   19.0036 H   0  0  0  0  0  0
  -23.7757  -30.5755   19.3976 H   0  0  0  0  0  0
  -22.7653  -29.2361   19.8508 H   0  0  0  0  0  0
  -25.1294  -36.1871   25.0823 H   0  0  0  0  0  0
  -21.0006  -28.3287   24.1388 H   0  0  0  0  0  0
  -20.5729  -26.2301   23.3607 H   0  0  0  0  0  0
  -21.6651  -26.7472   22.1174 H   0  0  0  0  0  0
  -19.6941  -25.6319   21.1230 H   0  0  0  0  0  0
  -19.6714  -27.3215   20.6739 H   0  0  0  0  0  0
  -17.4219  -26.6707   21.4009 H   0  0  0  0  0  0
  -18.0337  -26.0104   22.9015 H   0  0  0  0  0  0
  -19.7958  -30.7304   24.2220 H   0  0  0  0  0  0
  -17.5039  -31.6276   24.5185 H   0  0  0  0  0  0
  -15.5366  -30.3010   23.7669 H   0  0  0  0  0  0
  -15.8696  -28.0872   22.7018 H   0  0  0  0  0  0
  -24.5862  -30.7133   25.7746 H   0  0  0  0  0  0
  -24.8924  -32.2938   26.4823 H   0  0  0  0  0  0
  -25.7995  -30.8939   27.0207 H   0  0  0  0  0  0
  -26.2978  -29.6710   24.1273 H   0  0  0  0  0  0
  -27.4186  -29.7354   25.4694 H   0  0  0  0  0  0
  -27.8788  -30.4363   23.9370 H   0  0  0  0  0  0
  -27.2591  -33.3681   26.2004 H   0  0  0  0  0  0
  -28.3835  -32.6915   25.0314 H   0  0  0  0  0  0
  -28.0669  -31.8544   26.5445 H   0  0  0  0  0  0
  -28.2557  -38.0096   24.7547 H   0  0  0  0  0  0
  -28.1086  -36.2628   24.6245 H   0  0  0  0  0  0
  -27.2299  -37.1360   25.8876 H   0  0  0  0  0  0
  -20.9386  -29.8753   21.6833 H   0  0  0  0  0  0
  -26.0136  -38.2820   24.1483 H   0  0  0  0  0  0
  -31.8023  -16.7709   22.0590 H   0  0  0  0  0  0
  -26.4744  -23.2304   23.0670 H   0  0  0  0  0  0
  -28.1860  -23.5346   23.1305 H   0  0  0  0  0  0
  -26.9878  -25.5514   22.3542 H   0  0  0  0  0  0
  -26.2177  -24.6470   21.0693 H   0  0  0  0  0  0
  -26.7015  -21.9981   20.9295 H   0  0  0  0  0  0
  -27.7401  -21.3039   22.1505 H   0  0  0  0  0  0
  -29.5635  -23.8618   19.3031 H   0  0  0  0  0  0
  -27.8548  -23.5902   19.1053 H   0  0  0  0  0  0
  -29.1862  -25.0942   21.4053 H   0  0  0  0  0  0
  -27.2990  -18.5477   19.7614 H   0  0  0  0  0  0
  -28.0522  -17.0804   19.1545 H   0  0  0  0  0  0
  -28.3761  -18.6016   18.3561 H   0  0  0  0  0  0
  -31.0270  -21.8851   22.3714 H   0  0  0  0  0  0
  -31.4336  -22.0285   20.6450 H   0  0  0  0  0  0
  -32.5905  -21.3847   21.7462 H   0  0  0  0  0  0
  -28.1538  -20.7840   19.3425 H   0  0  0  0  0  0
  -29.7341  -21.3807   19.0158 H   0  0  0  0  0  0
  -28.8161  -15.6403   20.5293 H   0  0  0  0  0  0
  -29.5595  -22.4891   21.2441 H   0  0  0  0  0  0
  1 25  1  0  0  0
  1 30  2  0  0  0
  1 85  1  0  0  0
  2  3  1  0  0  0
  2 25  1  0  0  0
  2 88  1  0  0  0
  2 89  1  0  0  0
  3  4  1  0  0  0
  3 90  1  0  0  0
  3 91  1  0  0  0
  4  5  1  0  0  0
  4 92  1  0  0  0
  4 93  1  0  0  0
  5  6  1  0  0  0
  5 26  1  0  0  0
  5 94  1  0  0  0
  6 25  1  0  0  0
  6 95  1  0  0  0
  6 96  1  0  0  0
  7  8  2  0  0  0
  7 26  1  0  0  0
  7 29  1  0  0  0
  8  9  1  0  0  0
  8 22  1  0  0  0
  9 10  1  0  0  0
  9 27  2  0  0  0
 10 11  2  0  0  0
 10 15  1  0  0  0
 11 12  1  0  0  0
 11 97  1  0  0  0
 12 13  2  0  0  0
 12 98  1  0  0  0
 13 14  1  0  0  0
 13 31  1  0  0  0
 14 15  2  0  0  0
 14 99  1  0  0  0
 15100  1  0  0  0
 16 17  2  0  0  0
 16 21  1  0  0  0
 16 31  1  0  0  0
 17 18  1  0  0  0
 17101  1  0  0  0
 18 19  2  0  0  0
 18102  1  0  0  0
 19 20  1  0  0  0
 19 24  1  0  0  0
 20 21  2  0  0  0
 20103  1  0  0  0
 21 23  1  0  0  0
 22 28  1  0  0  0
 22 32  2  0  0  0
 26 27  1  0  0  0
 28104  1  0  0  0
 28105  1  0  0  0
 29106  1  0  0  0
 29107  1  0  0  0
 33 34  1  0  0  0
 33 66  1  0  0  0
 33 70  2  0  0  0
 34 36  1  0  0  0
 34 59  1  0  0  0
 34108  1  0  0  0
 35 44  2  0  0  0
 35 45  1  0  0  0
 35 68  1  0  0  0
 36 56  1  0  0  0
 36109  1  0  0  0
 37 39  1  0  0  0
 37 47  1  0  0  0
 37 66  1  0  0  0
 37110  1  0  0  0
 38 43  2  0  0  0
 38 46  1  0  0  0
 38 47  1  0  0  0
 39 64  1  0  0  0
 39 67  2  0  0  0
 40 52  1  0  0  0
 40 53  2  0  0  0
 40 58  1  0  0  0
 41111  1  0  0  0
 41112  1  0  0  0
 41113  1  0  0  0
 41 48  1  0  0  0
 42 43  1  0  0  0
 42 66  1  0  0  0
 42114  1  0  0  0
 42115  1  0  0  0
 43 44  1  0  0  0
 44116  1  0  0  0
 45 46  2  0  0  0
 45117  1  0  0  0
 46118  1  0  0  0
 47119  1  0  0  0
 47120  1  0  0  0
 48 56  1  0  0  0
 48 65  1  0  0  0
 48121  1  0  0  0
 49 50  1  0  0  0
 49 53  1  0  0  0
 49 64  1  0  0  0
 49122  1  0  0  0
 50 51  1  0  0  0
 50123  1  0  0  0
 50124  1  0  0  0
 51 52  1  0  0  0
 51125  1  0  0  0
 51126  1  0  0  0
 52127  1  0  0  0
 52128  1  0  0  0
 53 54  1  0  0  0
 54 55  2  0  0  0
 54129  1  0  0  0
 55 57  1  0  0  0
 55130  1  0  0  0
 56 69  2  0  0  0
 57 58  2  0  0  0
 57131  1  0  0  0
 58132  1  0  0  0
 59 60  1  0  0  0
 59 61  1  0  0  0
 59 62  1  0  0  0
 60133  1  0  0  0
 60134  1  0  0  0
 60135  1  0  0  0
 61136  1  0  0  0
 61137  1  0  0  0
 61138  1  0  0  0
 62139  1  0  0  0
 62140  1  0  0  0
 62141  1  0  0  0
 63 65  1  0  0  0
 63142  1  0  0  0
 63143  1  0  0  0
 63144  1  0  0  0
 64145  1  0  0  0
 65146  1  0  0  0
 68 81  1  0  0  0
 71 75  2  0  0  0
 71 76  1  0  0  0
 71147  1  0  0  0
 72 73  2  0  0  0
 72 74  1  0  0  0
 72 84  1  0  0  0
 73 75  1  0  0  0
 73 82  1  0  0  0
 74 76  2  0  0  0
 74 83  1  0  0  0
 75 85  1  0  0  0
 76 87  1  0  0  0
 77 78  1  0  0  0
 77 79  1  0  0  0
 77148  1  0  0  0
 77149  1  0  0  0
 78 81  1  0  0  0
 78150  1  0  0  0
 78151  1  0  0  0
 79 86  1  0  0  0
 79152  1  0  0  0
 79153  1  0  0  0
 80 81  1  0  0  0
 80 86  1  0  0  0
 80154  1  0  0  0
 80155  1  0  0  0
 81156  1  0  0  0
 82157  1  0  0  0
 82158  1  0  0  0
 82159  1  0  0  0
 83160  1  0  0  0
 83161  1  0  0  0
 83162  1  0  0  0
 84163  1  0  0  0
 84164  1  0  0  0
 84 86  1  0  0  0
 85165  1  0  0  0
 86166  1  0  0  0
M  CHG  1  86   1
M  ISO  4   1 100  68 101  81 101  85 100
M  END
> <chiral flag>
0

> <version>
0

> <s_m_source_file>
/data/baiqing/PycharmProjects/Reinvent-master-3.2/result/LINK_invent/BTK/process_docking_weight1_custom_product_contain_oxygen_bond_distance_aromatic_linkinvent_7_9_3/rearranged_h_0032.sdf

> <i_m_source_file_index>
34

> <r_mmod_Potential_Energy-OPLS-2005>
105.667419433594

> <r_mmod_Stretch_Energy-OPLS-2005>
126.937133789062

> <r_mmod_Bend_Energy-OPLS-2005>
168.690872192383

> <r_mmod_Torsional_Energy-OPLS-2005>
269.748474121094

> <r_mmod_Improper_Torsional_Energy-OPLS-2005>
7.24813747406006

> <r_mmod_Van_der_Waal_Energy-OPLS-2005>
141.829147338867

> <r_mmod_Electrostatic_Energy-OPLS-2005>
-246.633834838867

> <r_mmod_Solvation_Energy-OPLS-2005>
-437.660980224609

> <b_mmod_Minimization_Converged-OPLS-2005>
0

> <r_mmod_RMS_Derivative-OPLS-2005>
1.68786561489105

$$$$
34
                    3D
 Structure written by MMmdl.
167176  0  0  1  0            999 V2000
  -30.5485  -14.7609   20.4589 C   0  0  0  0  0  0
  -30.4405  -12.4634   19.4590 C   0  0  0  0  0  0
  -29.5211  -12.5167   18.2234 C   0  0  0  0  0  0
  -28.0456  -12.3422   18.6291 C   0  0  0  0  0  0
  -27.6415  -13.2185   19.8445 C   0  0  2  0  0  0
  -28.6802  -13.1363   20.9782 C   0  0  0  0  0  0
  -25.2560  -13.8152   20.5687 C   0  0  0  0  0  0
  -24.1847  -13.0411   20.9144 C   0  0  0  0  0  0
  -24.6392  -11.6871   20.8657 C   0  0  0  0  0  0
  -23.9031  -10.4286   21.0363 C   0  0  0  0  0  0
  -24.3586   -9.4234   21.9170 C   0  0  0  0  0  0
  -23.6286   -8.2274   22.0755 C   0  0  0  0  0  0
  -22.4282   -8.0277   21.3521 C   0  0  0  0  0  0
  -21.9877   -9.0245   20.4630 C   0  0  0  0  0  0
  -22.7187  -10.2140   20.3043 C   0  0  0  0  0  0
  -21.6900   -6.0733   22.5285 C   0  0  0  0  0  0
  -21.4019   -6.5632   23.8199 C   0  0  0  0  0  0
  -21.3662   -5.6790   24.9164 C   0  0  0  0  0  0
  -21.6070   -4.3060   24.7227 C   0  0  0  0  0  0
  -21.8827   -3.8135   23.4351 C   0  0  0  0  0  0
  -21.9201   -4.6960   22.3390 C   0  0  0  0  0  0
  -22.7889  -13.5218   21.1822 C   0  0  0  0  0  0
  -22.1681   -4.2134   21.0973 F   0  0  0  0  0  0
  -21.5628   -3.4540   25.7737 F   0  0  0  0  0  0
  -29.9727  -13.5126   20.3910 N   0  0  0  0  0  0
  -26.2933  -12.9296   20.3170 N   0  0  0  0  0  0
  -25.9298  -11.6441   20.5592 N   0  0  0  0  0  0
  -22.0504  -12.8251   22.0381 N   0  0  0  0  0  0
  -25.4298  -15.1895   20.4251 N   0  0  0  0  0  0
  -31.7565  -14.8964   20.2306 O   0  0  0  0  0  0
  -21.6668   -6.8879   21.4224 O   0  0  0  0  0  0
  -22.3593  -14.5556   20.6694 O   0  0  0  0  0  0
  -24.6300  -31.8504   23.1944 C   0  0  0  0  0  0
  -25.9113  -32.4751   23.8297 C   0  0  1  0  0  0
  -27.2253  -27.2505   20.1429 C   0  0  0  0  0  0
  -25.5896  -33.8558   24.2199 N   0  0  0  0  0  0
  -23.4280  -30.4649   21.5393 C   0  0  2  0  0  0
  -24.8775  -28.8957   20.1243 C   0  0  0  0  0  0
  -22.7449  -29.4562   22.4923 C   0  0  0  0  0  0
  -18.0256  -28.1381   22.8436 C   0  0  0  0  0  0
  -24.1493  -36.7276   23.2641 C   0  0  0  0  0  0
  -25.9743  -30.7578   21.3754 C   0  0  0  0  0  0
  -26.0493  -29.3781   20.7218 C   0  0  0  0  0  0
  -27.2322  -28.5711   20.7067 C   0  0  0  0  0  0
  -26.0352  -26.8282   19.5215 C   0  0  0  0  0  0
  -24.8753  -27.6294   19.5138 C   0  0  0  0  0  0
  -23.6486  -29.7829   20.1620 C   0  0  0  0  0  0
  -25.4140  -36.3071   24.0287 C   0  0  1  0  0  0
  -20.5853  -28.3677   23.1267 C   0  0  2  0  0  0
  -20.6735  -26.9390   22.5405 C   0  0  0  0  0  0
  -19.5755  -26.6368   21.5163 C   0  0  0  0  0  0
  -18.1924  -26.7915   22.1565 C   0  0  0  0  0  0
  -19.1514  -28.8844   23.2832 C   0  0  0  0  0  0
  -18.9460  -30.1443   23.8864 C   0  0  0  0  0  0
  -17.6472  -30.6600   24.0547 C   0  0  0  0  0  0
  -25.9063  -34.9435   23.5049 C   0  0  0  0  0  0
  -16.5349  -29.9101   23.6347 C   0  0  0  0  0  0
  -16.7241  -28.6513   23.0350 C   0  0  0  0  0  0
  -26.4477  -31.6626   25.0715 C   0  0  0  0  0  0
  -25.3711  -31.3794   26.1455 C   0  0  0  0  0  0
  -27.0320  -30.3032   24.6275 C   0  0  0  0  0  0
  -27.5996  -32.4399   25.7526 C   0  0  0  0  0  0
  -27.5586  -37.1799   24.8451 C   0  0  0  0  0  0
  -21.4160  -29.3023   22.3663 N   0  0  0  0  0  0
  -26.4305  -37.3774   23.9400 N   0  0  0  0  0  0
  -24.6963  -31.0423   22.0931 N   0  0  0  0  0  0
  -23.4135  -28.8101   23.3035 O   0  0  0  0  0  0
  -28.3443  -26.3921   20.1254 O   0  0  0  0  0  0
  -26.5639  -34.8884   22.4620 O   0  0  0  0  0  0
  -23.5463  -32.1357   23.7255 O   0  0  0  0  0  0
  -29.4235  -19.8881   22.0870 C   0  0  0  0  0  0
  -29.8466  -18.7914   22.8573 C   0  0  0  0  0  0
  -29.2194  -19.7784   20.6972 C   0  0  0  0  0  0
  -30.0260  -17.5050   22.3007 C   0  0  0  0  0  0
  -29.3195  -18.4228   20.1428 C   0  0  0  0  0  0
  -29.7415  -17.2591   20.9304 C   0  0  0  0  0  0
  -30.0480  -23.2206   21.0986 C   0  0  0  0  0  0
  -31.3263  -22.7953   21.2387 C   0  0  0  0  0  0
  -29.6275  -24.6722   21.3687 C   0  0  0  0  0  0
  -28.0849  -23.6441   19.8588 C   0  0  0  0  0  0
  -28.2815  -24.9923   20.6896 C   0  0  2  0  0  0
  -30.4828  -16.3956   23.2333 C   0  0  0  0  0  0
  -28.9271  -18.2117   18.6870 C   0  0  0  0  0  0
  -31.9756  -21.4514   20.9603 C   0  0  0  0  0  0
  -28.9132  -21.1260   19.8740 C   0  0  0  0  0  0
  -29.6694  -15.8418   20.4725 N   0  0  0  0  0  0
  -28.8257  -22.5089   20.5633 N   0  3  2  0  0  0
  -31.4777  -12.6240   19.1611 H   0  0  0  0  0  0
  -30.4029  -11.4792   19.9328 H   0  0  0  0  0  0
  -29.8091  -11.7503   17.4989 H   0  0  0  0  0  0
  -29.6579  -13.4749   17.7190 H   0  0  0  0  0  0
  -27.8999  -11.2913   18.8707 H   0  0  0  0  0  0
  -27.4027  -12.5637   17.7771 H   0  0  0  0  0  0
  -27.6341  -14.2436   19.4741 H   0  0  0  0  0  0
  -28.7272  -12.1316   21.3997 H   0  0  0  0  0  0
  -28.4022  -13.7958   21.8032 H   0  0  0  0  0  0
  -25.2730   -9.5779   22.4721 H   0  0  0  0  0  0
  -24.0028   -7.4693   22.7496 H   0  0  0  0  0  0
  -21.0799   -8.8732   19.8930 H   0  0  0  0  0  0
  -22.3598  -10.9673   19.6155 H   0  0  0  0  0  0
  -21.2007   -7.6145   23.9696 H   0  0  0  0  0  0
  -21.1478   -6.0523   25.9069 H   0  0  0  0  0  0
  -22.0597   -2.7595   23.2845 H   0  0  0  0  0  0
  -22.4086  -11.9888   22.4766 H   0  0  0  0  0  0
  -21.1114  -13.1296   22.2508 H   0  0  0  0  0  0
  -24.6710  -15.8426   20.5940 H   0  0  0  0  0  0
  -26.2935  -15.6514   20.1722 H   0  0  0  0  0  0
  -26.7131  -32.5398   23.1006 H   0  0  0  0  0  0
  -25.0047  -33.9707   25.0348 H   0  0  0  0  0  0
  -22.7315  -31.2901   21.3799 H   0  0  0  0  0  0
  -23.3764  -35.9591   23.3316 H   0  0  0  0  0  0
  -24.3591  -36.8928   22.2056 H   0  0  0  0  0  0
  -23.7204  -37.6445   23.6699 H   0  0  0  0  0  0
  -26.1250  -31.5165   20.6072 H   0  0  0  0  0  0
  -26.8426  -30.8038   22.0200 H   0  0  0  0  0  0
  -28.1430  -28.9397   21.1577 H   0  0  0  0  0  0
  -25.9961  -25.8594   19.0405 H   0  0  0  0  0  0
  -23.9745  -27.2561   19.0478 H   0  0  0  0  0  0
  -23.7820  -30.5507   19.3982 H   0  0  0  0  0  0
  -22.7646  -29.2172   19.8567 H   0  0  0  0  0  0
  -25.1346  -36.1919   25.0771 H   0  0  0  0  0  0
  -20.9914  -28.3253   24.1408 H   0  0  0  0  0  0
  -20.5589  -26.2284   23.3596 H   0  0  0  0  0  0
  -21.6614  -26.7403   22.1254 H   0  0  0  0  0  0
  -19.6942  -25.6277   21.1227 H   0  0  0  0  0  0
  -19.6749  -27.3136   20.6659 H   0  0  0  0  0  0
  -17.4182  -26.6601   21.3984 H   0  0  0  0  0  0
  -18.0381  -26.0079   22.8994 H   0  0  0  0  0  0
  -19.7952  -30.7222   24.2254 H   0  0  0  0  0  0
  -17.5061  -31.6293   24.5126 H   0  0  0  0  0  0
  -15.5370  -30.3006   23.7736 H   0  0  0  0  0  0
  -15.8610  -28.0839   22.7122 H   0  0  0  0  0  0
  -24.5796  -30.7254   25.7800 H   0  0  0  0  0  0
  -24.9020  -32.2968   26.5019 H   0  0  0  0  0  0
  -25.8043  -30.8859   27.0162 H   0  0  0  0  0  0
  -26.2902  -29.6811   24.1253 H   0  0  0  0  0  0
  -27.3878  -29.7334   25.4879 H   0  0  0  0  0  0
  -27.8860  -30.4306   23.9614 H   0  0  0  0  0  0
  -27.2526  -33.3643   26.2192 H   0  0  0  0  0  0
  -28.3786  -32.7090   25.0364 H   0  0  0  0  0  0
  -28.0684  -31.8476   26.5412 H   0  0  0  0  0  0
  -28.2585  -38.0121   24.7520 H   0  0  0  0  0  0
  -28.1088  -36.2638   24.6267 H   0  0  0  0  0  0
  -27.2282  -37.1422   25.8845 H   0  0  0  0  0  0
  -20.9344  -29.8796   21.6914 H   0  0  0  0  0  0
  -26.0181  -38.2825   24.1477 H   0  0  0  0  0  0
  -29.3220  -20.8410   22.5888 H   0  0  0  0  0  0
  -30.0509  -18.9642   23.9046 H   0  0  0  0  0  0
  -32.0251  -23.5209   21.6342 H   0  0  0  0  0  0
  -30.4098  -25.3336   20.9953 H   0  0  0  0  0  0
  -29.5592  -24.8239   22.4468 H   0  0  0  0  0  0
  -28.4944  -23.7676   18.8570 H   0  0  0  0  0  0
  -27.0280  -23.4019   19.7433 H   0  0  0  0  0  0
  -27.5212  -24.9997   21.4719 H   0  0  0  0  0  0
  -30.5244  -16.7418   24.2653 H   0  0  0  0  0  0
  -31.4827  -16.0664   22.9509 H   0  0  0  0  0  0
  -29.8011  -15.5464   23.2055 H   0  0  0  0  0  0
  -27.8560  -18.3835   18.5652 H   0  0  0  0  0  0
  -29.1310  -17.1998   18.3404 H   0  0  0  0  0  0
  -29.4643  -18.8882   18.0246 H   0  0  0  0  0  0
  -31.7975  -20.7450   21.7690 H   0  0  0  0  0  0
  -33.0574  -21.5866   20.9170 H   0  0  0  0  0  0
  -31.6704  -21.0018   20.0176 H   0  0  0  0  0  0
  -27.9529  -20.9715   19.3819 H   0  0  0  0  0  0
  -29.6382  -21.2009   19.0641 H   0  0  0  0  0  0
  -28.7229  -15.5400   20.2986 H   0  0  0  0  0  0
  -28.2439  -22.2840   21.3579 H   0  0  0  0  0  0
  1 25  1  0  0  0
  1 30  2  0  0  0
  1 86  1  0  0  0
  2  3  1  0  0  0
  2 25  1  0  0  0
  2 88  1  0  0  0
  2 89  1  0  0  0
  3  4  1  0  0  0
  3 90  1  0  0  0
  3 91  1  0  0  0
  4  5  1  0  0  0
  4 92  1  0  0  0
  4 93  1  0  0  0
  5  6  1  0  0  0
  5 26  1  0  0  0
  5 94  1  0  0  0
  6 25  1  0  0  0
  6 95  1  0  0  0
  6 96  1  0  0  0
  7  8  2  0  0  0
  7 26  1  0  0  0
  7 29  1  0  0  0
  8  9  1  0  0  0
  8 22  1  0  0  0
  9 10  1  0  0  0
  9 27  2  0  0  0
 10 11  2  0  0  0
 10 15  1  0  0  0
 11 12  1  0  0  0
 11 97  1  0  0  0
 12 13  2  0  0  0
 12 98  1  0  0  0
 13 14  1  0  0  0
 13 31  1  0  0  0
 14 15  2  0  0  0
 14 99  1  0  0  0
 15100  1  0  0  0
 16 17  2  0  0  0
 16 21  1  0  0  0
 16 31  1  0  0  0
 17 18  1  0  0  0
 17101  1  0  0  0
 18 19  2  0  0  0
 18102  1  0  0  0
 19 20  1  0  0  0
 19 24  1  0  0  0
 20 21  2  0  0  0
 20103  1  0  0  0
 21 23  1  0  0  0
 22 28  1  0  0  0
 22 32  2  0  0  0
 26 27  1  0  0  0
 28104  1  0  0  0
 28105  1  0  0  0
 29106  1  0  0  0
 29107  1  0  0  0
 33 34  1  0  0  0
 33 66  1  0  0  0
 33 70  2  0  0  0
 34 36  1  0  0  0
 34 59  1  0  0  0
 34108  1  0  0  0
 35 44  2  0  0  0
 35 45  1  0  0  0
 35 68  1  0  0  0
 36 56  1  0  0  0
 36109  1  0  0  0
 37 39  1  0  0  0
 37 47  1  0  0  0
 37 66  1  0  0  0
 37110  1  0  0  0
 38 43  2  0  0  0
 38 46  1  0  0  0
 38 47  1  0  0  0
 39 64  1  0  0  0
 39 67  2  0  0  0
 40 52  1  0  0  0
 40 53  2  0  0  0
 40 58  1  0  0  0
 41111  1  0  0  0
 41112  1  0  0  0
 41113  1  0  0  0
 41 48  1  0  0  0
 42 43  1  0  0  0
 42 66  1  0  0  0
 42114  1  0  0  0
 42115  1  0  0  0
 43 44  1  0  0  0
 44116  1  0  0  0
 45 46  2  0  0  0
 45117  1  0  0  0
 46118  1  0  0  0
 47119  1  0  0  0
 47120  1  0  0  0
 48 56  1  0  0  0
 48 65  1  0  0  0
 48121  1  0  0  0
 49 50  1  0  0  0
 49 53  1  0  0  0
 49 64  1  0  0  0
 49122  1  0  0  0
 50 51  1  0  0  0
 50123  1  0  0  0
 50124  1  0  0  0
 51 52  1  0  0  0
 51125  1  0  0  0
 51126  1  0  0  0
 52127  1  0  0  0
 52128  1  0  0  0
 53 54  1  0  0  0
 54 55  2  0  0  0
 54129  1  0  0  0
 55 57  1  0  0  0
 55130  1  0  0  0
 56 69  2  0  0  0
 57 58  2  0  0  0
 57131  1  0  0  0
 58132  1  0  0  0
 59 60  1  0  0  0
 59 61  1  0  0  0
 59 62  1  0  0  0
 60133  1  0  0  0
 60134  1  0  0  0
 60135  1  0  0  0
 61136  1  0  0  0
 61137  1  0  0  0
 61138  1  0  0  0
 62139  1  0  0  0
 62140  1  0  0  0
 62141  1  0  0  0
 63 65  1  0  0  0
 63142  1  0  0  0
 63143  1  0  0  0
 63144  1  0  0  0
 64145  1  0  0  0
 65146  1  0  0  0
 68 81  1  0  0  0
 71 72  2  0  0  0
 71 73  1  0  0  0
 71147  1  0  0  0
 72 74  1  0  0  0
 72148  1  0  0  0
 73 75  2  0  0  0
 73 85  1  0  0  0
 74 76  2  0  0  0
 74 82  1  0  0  0
 75 76  1  0  0  0
 75 83  1  0  0  0
 76 86  1  0  0  0
 77 78  2  0  0  0
 77 79  1  0  0  0
 77 87  1  0  0  0
 78 84  1  0  0  0
 78149  1  0  0  0
 79 81  1  0  0  0
 79150  1  0  0  0
 79151  1  0  0  0
 80 81  1  0  0  0
 80 87  1  0  0  0
 80152  1  0  0  0
 80153  1  0  0  0
 81154  1  0  0  0
 82155  1  0  0  0
 82156  1  0  0  0
 82157  1  0  0  0
 83158  1  0  0  0
 83159  1  0  0  0
 83160  1  0  0  0
 84161  1  0  0  0
 84162  1  0  0  0
 84163  1  0  0  0
 85164  1  0  0  0
 85165  1  0  0  0
 85 87  1  0  0  0
 86166  1  0  0  0
 87167  1  0  0  0
M  CHG  1  87   1
M  ISO  4   1 100  68 101  81 101  86 100
M  END
> <chiral flag>
0

> <version>
0

> <s_m_source_file>
/data/baiqing/PycharmProjects/Reinvent-master-3.2/result/LINK_invent/BTK/process_docking_weight1_custom_product_contain_oxygen_bond_distance_aromatic_linkinvent_7_9_3/rearranged_h_0032.sdf

> <i_m_source_file_index>
35

> <r_mmod_Potential_Energy-OPLS-2005>
146.011276245117

> <r_mmod_Stretch_Energy-OPLS-2005>
128.476119995117

> <r_mmod_Bend_Energy-OPLS-2005>
226.911880493164

> <r_mmod_Torsional_Energy-OPLS-2005>
302.356475830078

> <r_mmod_Improper_Torsional_Energy-OPLS-2005>
9.65549278259277

> <r_mmod_Van_der_Waal_Energy-OPLS-2005>
129.045669555664

> <r_mmod_Electrostatic_Energy-OPLS-2005>
-313.869476318359

> <r_mmod_Solvation_Energy-OPLS-2005>
-427.957153320312

> <b_mmod_Minimization_Converged-OPLS-2005>
0

> <r_mmod_RMS_Derivative-OPLS-2005>
5.53662443161011

$$$$
35
                    3D
 Structure written by MMmdl.
164173  0  0  1  0            999 V2000
  -30.5826  -14.7698   20.4062 C   0  0  0  0  0  0
  -30.4440  -12.4518   19.4710 C   0  0  0  0  0  0
  -29.5197  -12.4565   18.2299 C   0  0  0  0  0  0
  -28.0433  -12.3041   18.6491 C   0  0  0  0  0  0
  -27.6472  -13.2175   19.8426 C   0  0  2  0  0  0
  -28.6911  -13.1624   20.9775 C   0  0  0  0  0  0
  -25.2585  -13.8158   20.5704 C   0  0  0  0  0  0
  -24.1840  -13.0434   20.9197 C   0  0  0  0  0  0
  -24.6407  -11.6891   20.8739 C   0  0  0  0  0  0
  -23.9059  -10.4284   21.0416 C   0  0  0  0  0  0
  -24.3622   -9.4193   21.9195 C   0  0  0  0  0  0
  -23.6270   -8.2245   22.0773 C   0  0  0  0  0  0
  -22.4242   -8.0306   21.3574 C   0  0  0  0  0  0
  -21.9888   -9.0278   20.4676 C   0  0  0  0  0  0
  -22.7226  -10.2147   20.3063 C   0  0  0  0  0  0
  -21.6849   -6.0739   22.5300 C   0  0  0  0  0  0
  -21.4014   -6.5639   23.8235 C   0  0  0  0  0  0
  -21.3639   -5.6790   24.9194 C   0  0  0  0  0  0
  -21.6040   -4.3057   24.7236 C   0  0  0  0  0  0
  -21.8803   -3.8147   23.4359 C   0  0  0  0  0  0
  -21.9187   -4.6966   22.3419 C   0  0  0  0  0  0
  -22.7874  -13.5266   21.1823 C   0  0  0  0  0  0
  -22.1653   -4.2165   21.0988 F   0  0  0  0  0  0
  -21.5614   -3.4530   25.7739 F   0  0  0  0  0  0
  -29.9894  -13.5225   20.3928 N   0  0  0  0  0  0
  -26.2978  -12.9334   20.3234 N   0  0  0  0  0  0
  -25.9331  -11.6483   20.5732 N   0  0  0  0  0  0
  -22.0461  -12.8324   22.0391 N   0  0  0  0  0  0
  -25.4347  -15.1882   20.4157 N   0  0  0  0  0  0
  -31.7724  -14.8754   20.0894 O   0  0  0  0  0  0
  -21.6614   -6.8896   21.4270 O   0  0  0  0  0  0
  -22.3573  -14.5550   20.6608 O   0  0  0  0  0  0
  -24.6319  -31.8549   23.1986 C   0  0  0  0  0  0
  -25.9154  -32.4740   23.8352 C   0  0  1  0  0  0
  -27.2256  -27.2650   20.1273 C   0  0  0  0  0  0
  -25.5948  -33.8550   24.2261 N   0  0  0  0  0  0
  -23.4298  -30.4765   21.5405 C   0  0  2  0  0  0
  -24.8816  -28.9309   20.1046 C   0  0  0  0  0  0
  -22.7505  -29.4598   22.4904 C   0  0  0  0  0  0
  -18.0302  -28.1390   22.8449 C   0  0  0  0  0  0
  -24.1500  -36.7273   23.2630 C   0  0  0  0  0  0
  -25.9772  -30.7673   21.3838 C   0  0  0  0  0  0
  -26.0503  -29.3930   20.7222 C   0  0  0  0  0  0
  -27.2226  -28.5716   20.7257 C   0  0  0  0  0  0
  -26.0502  -26.8984   19.4361 C   0  0  0  0  0  0
  -24.8884  -27.6923   19.4476 C   0  0  0  0  0  0
  -23.6457  -29.8069   20.1583 C   0  0  0  0  0  0
  -25.4121  -36.3063   24.0319 C   0  0  1  0  0  0
  -20.5900  -28.3707   23.1232 C   0  0  2  0  0  0
  -20.6788  -26.9419   22.5372 C   0  0  0  0  0  0
  -19.5770  -26.6376   21.5167 C   0  0  0  0  0  0
  -18.1955  -26.7930   22.1592 C   0  0  0  0  0  0
  -19.1558  -28.8860   23.2836 C   0  0  0  0  0  0
  -18.9485  -30.1464   23.8861 C   0  0  0  0  0  0
  -17.6483  -30.6585   24.0554 C   0  0  0  0  0  0
  -25.9060  -34.9433   23.5086 C   0  0  0  0  0  0
  -16.5368  -29.9075   23.6341 C   0  0  0  0  0  0
  -16.7285  -28.6492   23.0346 C   0  0  0  0  0  0
  -26.4520  -31.6586   25.0754 C   0  0  0  0  0  0
  -25.3721  -31.3790   26.1458 C   0  0  0  0  0  0
  -27.0349  -30.2970   24.6312 C   0  0  0  0  0  0
  -27.6076  -32.4339   25.7520 C   0  0  0  0  0  0
  -27.5590  -37.1788   24.8455 C   0  0  0  0  0  0
  -21.4212  -29.3048   22.3619 N   0  0  0  0  0  0
  -26.4295  -37.3759   23.9403 N   0  0  0  0  0  0
  -24.6974  -31.0521   22.0956 N   0  0  0  0  0  0
  -23.4184  -28.8132   23.3021 O   0  0  0  0  0  0
  -28.3111  -26.3600   20.2372 O   0  0  0  0  0  0
  -26.5629  -34.8899   22.4660 O   0  0  0  0  0  0
  -23.5462  -32.1383   23.7274 O   0  0  0  0  0  0
  -29.5977  -18.4952   20.7147 C   0  0  0  0  0  0
  -29.5575  -19.8233   20.1118 C   0  0  0  0  0  0
  -29.7473  -19.8704   18.7088 C   0  0  0  0  0  0
  -29.7475  -18.6760   17.9340 C   0  0  0  0  0  0
  -29.7815  -17.3903   18.5527 C   0  0  0  0  0  0
  -29.7802  -17.2535   19.9756 C   0  0  0  0  0  0
  -27.3938  -22.6470   20.6600 C   0  0  0  0  0  0
  -26.9618  -24.1179   20.5177 C   0  0  0  0  0  0
  -29.3132  -23.8427   20.3509 C   0  0  0  0  0  0
  -28.1732  -24.8812   19.9356 C   0  0  2  0  0  0
  -30.0229  -21.2115   18.0346 C   0  0  0  0  0  0
  -29.6912  -18.7757   16.4062 C   0  0  0  0  0  0
  -29.8010  -16.1373   17.6785 C   0  0  0  0  0  0
  -29.4518  -21.1831   20.9562 C   0  0  0  0  0  0
  -28.7169  -22.4617   20.5084 N   0  0  0  0  0  0
  -29.7829  -15.8908   20.6095 N   0  0  0  0  0  0
  -26.5808  -21.7621   20.9360 O   0  0  0  0  0  0
  -31.4820  -12.5835   19.1577 H   0  0  0  0  0  0
  -30.4077  -11.4791   19.9683 H   0  0  0  0  0  0
  -29.7953  -11.6431   17.5556 H   0  0  0  0  0  0
  -29.6646  -13.3642   17.6484 H   0  0  0  0  0  0
  -27.9048  -11.2590   18.9313 H   0  0  0  0  0  0
  -27.3859  -12.4779   17.7970 H   0  0  0  0  0  0
  -27.6389  -14.2341   19.4545 H   0  0  0  0  0  0
  -28.7344  -12.1636   21.4153 H   0  0  0  0  0  0
  -28.4198  -13.8435   21.7850 H   0  0  0  0  0  0
  -25.2803   -9.5618   22.4730 H   0  0  0  0  0  0
  -23.9988   -7.4605   22.7461 H   0  0  0  0  0  0
  -21.0835   -8.8775   19.8971 H   0  0  0  0  0  0
  -22.3720  -10.9670   19.6131 H   0  0  0  0  0  0
  -21.2014   -7.6149   23.9745 H   0  0  0  0  0  0
  -21.1470   -6.0526   25.9103 H   0  0  0  0  0  0
  -22.0597   -2.7612   23.2854 H   0  0  0  0  0  0
  -22.4041  -12.0038   22.4910 H   0  0  0  0  0  0
  -21.1057  -13.1384   22.2452 H   0  0  0  0  0  0
  -24.6731  -15.8448   20.5357 H   0  0  0  0  0  0
  -26.2906  -15.6290   20.1046 H   0  0  0  0  0  0
  -26.7219  -32.5391   23.1094 H   0  0  0  0  0  0
  -25.0113  -33.9708   25.0415 H   0  0  0  0  0  0
  -22.7275  -31.2991   21.3923 H   0  0  0  0  0  0
  -23.3774  -35.9594   23.3259 H   0  0  0  0  0  0
  -24.3587  -36.8923   22.2048 H   0  0  0  0  0  0
  -23.7242  -37.6456   23.6674 H   0  0  0  0  0  0
  -26.1286  -31.5372   20.6253 H   0  0  0  0  0  0
  -26.8471  -30.8053   22.0273 H   0  0  0  0  0  0
  -28.1148  -28.9201   21.2272 H   0  0  0  0  0  0
  -26.0053  -25.9826   18.8718 H   0  0  0  0  0  0
  -24.0032  -27.3464   18.9316 H   0  0  0  0  0  0
  -23.7516  -30.5784   19.3957 H   0  0  0  0  0  0
  -22.7703  -29.2241   19.8644 H   0  0  0  0  0  0
  -25.1301  -36.1907   25.0810 H   0  0  0  0  0  0
  -20.9998  -28.3297   24.1350 H   0  0  0  0  0  0
  -20.5664  -26.2320   23.3586 H   0  0  0  0  0  0
  -21.6666  -26.7428   22.1191 H   0  0  0  0  0  0
  -19.6944  -25.6276   21.1229 H   0  0  0  0  0  0
  -19.6717  -27.3153   20.6674 H   0  0  0  0  0  0
  -17.4213  -26.6644   21.4009 H   0  0  0  0  0  0
  -18.0390  -26.0078   22.9000 H   0  0  0  0  0  0
  -19.7962  -30.7291   24.2206 H   0  0  0  0  0  0
  -17.5039  -31.6261   24.5163 H   0  0  0  0  0  0
  -15.5377  -30.2969   23.7689 H   0  0  0  0  0  0
  -15.8684  -28.0805   22.7086 H   0  0  0  0  0  0
  -24.5863  -30.7174   25.7790 H   0  0  0  0  0  0
  -24.8953  -32.2984   26.4874 H   0  0  0  0  0  0
  -25.7993  -30.8959   27.0254 H   0  0  0  0  0  0
  -26.2946  -29.6714   24.1296 H   0  0  0  0  0  0
  -27.3918  -29.7258   25.4902 H   0  0  0  0  0  0
  -27.8892  -30.4183   23.9639 H   0  0  0  0  0  0
  -27.2679  -33.3649   26.2088 H   0  0  0  0  0  0
  -28.3889  -32.6889   25.0337 H   0  0  0  0  0  0
  -28.0746  -31.8469   26.5447 H   0  0  0  0  0  0
  -28.2590  -38.0107   24.7529 H   0  0  0  0  0  0
  -28.1111  -36.2638   24.6248 H   0  0  0  0  0  0
  -27.2305  -37.1386   25.8857 H   0  0  0  0  0  0
  -20.9423  -29.8747   21.6789 H   0  0  0  0  0  0
  -26.0174  -38.2829   24.1412 H   0  0  0  0  0  0
  -29.5128  -18.4302   21.7922 H   0  0  0  0  0  0
  -26.6882  -24.5092   21.4963 H   0  0  0  0  0  0
  -26.0841  -24.1583   19.8772 H   0  0  0  0  0  0
  -29.7472  -24.1353   21.3078 H   0  0  0  0  0  0
  -30.1250  -23.8480   19.6269 H   0  0  0  0  0  0
  -28.0973  -24.8212   18.8483 H   0  0  0  0  0  0
  -30.6007  -21.8580   18.6900 H   0  0  0  0  0  0
  -29.0978  -21.7162   17.7540 H   0  0  0  0  0  0
  -30.6643  -21.1163   17.1582 H   0  0  0  0  0  0
  -29.4685  -19.7706   16.0273 H   0  0  0  0  0  0
  -28.8827  -18.1603   16.0097 H   0  0  0  0  0  0
  -30.6348  -18.4500   15.9685 H   0  0  0  0  0  0
  -29.5822  -16.2814   16.6257 H   0  0  0  0  0  0
  -29.0483  -15.4392   18.0342 H   0  0  0  0  0  0
  -30.7848  -15.6744   17.7165 H   0  0  0  0  0  0
  -30.4767  -21.4838   21.1678 H   0  0  0  0  0  0
  -29.0402  -20.9157   21.9330 H   0  0  0  0  0  0
  -28.9252  -15.6760   21.0985 H   0  0  0  0  0  0
  1 25  1  0  0  0
  1 30  2  0  0  0
  1 86  1  0  0  0
  2  3  1  0  0  0
  2 25  1  0  0  0
  2 88  1  0  0  0
  2 89  1  0  0  0
  3  4  1  0  0  0
  3 90  1  0  0  0
  3 91  1  0  0  0
  4  5  1  0  0  0
  4 92  1  0  0  0
  4 93  1  0  0  0
  5  6  1  0  0  0
  5 26  1  0  0  0
  5 94  1  0  0  0
  6 25  1  0  0  0
  6 95  1  0  0  0
  6 96  1  0  0  0
  7  8  2  0  0  0
  7 26  1  0  0  0
  7 29  1  0  0  0
  8  9  1  0  0  0
  8 22  1  0  0  0
  9 10  1  0  0  0
  9 27  2  0  0  0
 10 11  2  0  0  0
 10 15  1  0  0  0
 11 12  1  0  0  0
 11 97  1  0  0  0
 12 13  2  0  0  0
 12 98  1  0  0  0
 13 14  1  0  0  0
 13 31  1  0  0  0
 14 15  2  0  0  0
 14 99  1  0  0  0
 15100  1  0  0  0
 16 17  2  0  0  0
 16 21  1  0  0  0
 16 31  1  0  0  0
 17 18  1  0  0  0
 17101  1  0  0  0
 18 19  2  0  0  0
 18102  1  0  0  0
 19 20  1  0  0  0
 19 24  1  0  0  0
 20 21  2  0  0  0
 20103  1  0  0  0
 21 23  1  0  0  0
 22 28  1  0  0  0
 22 32  2  0  0  0
 26 27  1  0  0  0
 28104  1  0  0  0
 28105  1  0  0  0
 29106  1  0  0  0
 29107  1  0  0  0
 33 34  1  0  0  0
 33 66  1  0  0  0
 33 70  2  0  0  0
 34 36  1  0  0  0
 34 59  1  0  0  0
 34108  1  0  0  0
 35 44  2  0  0  0
 35 45  1  0  0  0
 35 68  1  0  0  0
 36 56  1  0  0  0
 36109  1  0  0  0
 37 39  1  0  0  0
 37 47  1  0  0  0
 37 66  1  0  0  0
 37110  1  0  0  0
 38 43  2  0  0  0
 38 46  1  0  0  0
 38 47  1  0  0  0
 39 64  1  0  0  0
 39 67  2  0  0  0
 40 52  1  0  0  0
 40 53  2  0  0  0
 40 58  1  0  0  0
 41111  1  0  0  0
 41112  1  0  0  0
 41113  1  0  0  0
 41 48  1  0  0  0
 42 43  1  0  0  0
 42 66  1  0  0  0
 42114  1  0  0  0
 42115  1  0  0  0
 43 44  1  0  0  0
 44116  1  0  0  0
 45 46  2  0  0  0
 45117  1  0  0  0
 46118  1  0  0  0
 47119  1  0  0  0
 47120  1  0  0  0
 48 56  1  0  0  0
 48 65  1  0  0  0
 48121  1  0  0  0
 49 50  1  0  0  0
 49 53  1  0  0  0
 49 64  1  0  0  0
 49122  1  0  0  0
 50 51  1  0  0  0
 50123  1  0  0  0
 50124  1  0  0  0
 51 52  1  0  0  0
 51125  1  0  0  0
 51126  1  0  0  0
 52127  1  0  0  0
 52128  1  0  0  0
 53 54  1  0  0  0
 54 55  2  0  0  0
 54129  1  0  0  0
 55 57  1  0  0  0
 55130  1  0  0  0
 56 69  2  0  0  0
 57 58  2  0  0  0
 57131  1  0  0  0
 58132  1  0  0  0
 59 60  1  0  0  0
 59 61  1  0  0  0
 59 62  1  0  0  0
 60133  1  0  0  0
 60134  1  0  0  0
 60135  1  0  0  0
 61136  1  0  0  0
 61137  1  0  0  0
 61138  1  0  0  0
 62139  1  0  0  0
 62140  1  0  0  0
 62141  1  0  0  0
 63 65  1  0  0  0
 63142  1  0  0  0
 63143  1  0  0  0
 63144  1  0  0  0
 64145  1  0  0  0
 65146  1  0  0  0
 68 80  1  0  0  0
 71 72  2  0  0  0
 71 76  1  0  0  0
 71147  1  0  0  0
 72 73  1  0  0  0
 72 84  1  0  0  0
 73 74  2  0  0  0
 73 81  1  0  0  0
 74 75  1  0  0  0
 74 82  1  0  0  0
 75 76  2  0  0  0
 75 83  1  0  0  0
 76 86  1  0  0  0
 77 78  1  0  0  0
 77 85  1  0  0  0
 77 87  2  0  0  0
 78 80  1  0  0  0
 78148  1  0  0  0
 78149  1  0  0  0
 79 80  1  0  0  0
 79 85  1  0  0  0
 79150  1  0  0  0
 79151  1  0  0  0
 80152  1  0  0  0
 81153  1  0  0  0
 81154  1  0  0  0
 81155  1  0  0  0
 82156  1  0  0  0
 82157  1  0  0  0
 82158  1  0  0  0
 83159  1  0  0  0
 83160  1  0  0  0
 83161  1  0  0  0
 84 85  1  0  0  0
 84162  1  0  0  0
 84163  1  0  0  0
 86164  1  0  0  0
M  ISO  4   1 100  68 101  80 101  86 100
M  END
> <chiral flag>
0

> <version>
0

> <s_m_source_file>
/data/baiqing/PycharmProjects/Reinvent-master-3.2/result/LINK_invent/BTK/process_docking_weight1_custom_product_contain_oxygen_bond_distance_aromatic_linkinvent_7_9_3/rearranged_h_0032.sdf

> <i_m_source_file_index>
36

> <r_mmod_Potential_Energy-OPLS-2005>
202.398178100586

> <r_mmod_Stretch_Energy-OPLS-2005>
135.983383178711

> <r_mmod_Bend_Energy-OPLS-2005>
206.416778564453

> <r_mmod_Torsional_Energy-OPLS-2005>
274.188690185547

> <r_mmod_Improper_Torsional_Energy-OPLS-2005>
6.86847114562988

> <r_mmod_Van_der_Waal_Energy-OPLS-2005>
153.099700927734

> <r_mmod_Electrostatic_Energy-OPLS-2005>
-435.103912353516

> <r_mmod_Solvation_Energy-OPLS-2005>
-234.465774536133

> <b_mmod_Minimization_Converged-OPLS-2005>
0

> <r_mmod_RMS_Derivative-OPLS-2005>
3.77447319030762

$$$$
36
                    3D
 Structure written by MMmdl.
165174  0  0  1  0            999 V2000
  -30.6115  -14.6759   20.4648 C   0  0  0  0  0  0
  -30.4196  -12.4071   19.4659 C   0  0  0  0  0  0
  -29.5003  -12.4970   18.2289 C   0  0  0  0  0  0
  -28.0278  -12.3207   18.6482 C   0  0  0  0  0  0
  -27.6395  -13.2232   19.8504 C   0  0  2  0  0  0
  -28.6784  -13.1222   20.9864 C   0  0  0  0  0  0
  -25.2479  -13.8188   20.5666 C   0  0  0  0  0  0
  -24.1771  -13.0426   20.9201 C   0  0  0  0  0  0
  -24.6372  -11.6916   20.8770 C   0  0  0  0  0  0
  -23.9069  -10.4281   21.0439 C   0  0  0  0  0  0
  -24.3619   -9.4190   21.9211 C   0  0  0  0  0  0
  -23.6274   -8.2230   22.0764 C   0  0  0  0  0  0
  -22.4264   -8.0274   21.3547 C   0  0  0  0  0  0
  -21.9923   -9.0256   20.4649 C   0  0  0  0  0  0
  -22.7260  -10.2126   20.3064 C   0  0  0  0  0  0
  -21.6837   -6.0732   22.5285 C   0  0  0  0  0  0
  -21.4008   -6.5635   23.8226 C   0  0  0  0  0  0
  -21.3661   -5.6786   24.9185 C   0  0  0  0  0  0
  -21.6045   -4.3051   24.7231 C   0  0  0  0  0  0
  -21.8814   -3.8146   23.4353 C   0  0  0  0  0  0
  -21.9182   -4.6961   22.3404 C   0  0  0  0  0  0
  -22.7798  -13.5204   21.1874 C   0  0  0  0  0  0
  -22.1646   -4.2147   21.0975 F   0  0  0  0  0  0
  -21.5636   -3.4538   25.7740 F   0  0  0  0  0  0
  -29.9840  -13.4581   20.4106 N   0  0  0  0  0  0
  -26.2895  -12.9384   20.3263 N   0  0  0  0  0  0
  -25.9289  -11.6536   20.5757 N   0  0  0  0  0  0
  -22.0458  -12.8171   22.0432 N   0  0  0  0  0  0
  -25.4197  -15.1892   20.4074 N   0  0  0  0  0  0
  -31.7993  -14.7781   20.1472 O   0  0  0  0  0  0
  -21.6611   -6.8880   21.4243 O   0  0  0  0  0  0
  -22.3497  -14.5528   20.6748 O   0  0  0  0  0  0
  -24.6184  -31.8604   23.1997 C   0  0  0  0  0  0
  -25.9040  -32.4779   23.8329 C   0  0  1  0  0  0
  -27.2276  -27.3509   20.1303 C   0  0  0  0  0  0
  -25.5875  -33.8570   24.2287 N   0  0  0  0  0  0
  -23.4106  -30.4746   21.5449 C   0  0  2  0  0  0
  -24.8596  -28.9237   20.1146 C   0  0  0  0  0  0
  -22.7436  -29.4577   22.5012 C   0  0  0  0  0  0
  -18.0256  -28.1349   22.8507 C   0  0  0  0  0  0
  -24.1490  -36.7329   23.2645 C   0  0  0  0  0  0
  -25.9393  -30.8068   21.3533 C   0  0  0  0  0  0
  -26.0209  -29.4290   20.7122 C   0  0  0  0  0  0
  -27.2096  -28.6527   20.7078 C   0  0  0  0  0  0
  -26.0555  -26.8825   19.5061 C   0  0  0  0  0  0
  -24.8765  -27.6581   19.5016 C   0  0  0  0  0  0
  -23.6181  -29.7903   20.1657 C   0  0  0  0  0  0
  -25.4107  -36.3094   24.0335 C   0  0  1  0  0  0
  -20.5846  -28.3650   23.1338 C   0  0  2  0  0  0
  -20.6739  -26.9382   22.5420 C   0  0  0  0  0  0
  -19.5725  -26.6369   21.5218 C   0  0  0  0  0  0
  -18.1897  -26.7906   22.1615 C   0  0  0  0  0  0
  -19.1502  -28.8822   23.2901 C   0  0  0  0  0  0
  -18.9429  -30.1428   23.8907 C   0  0  0  0  0  0
  -17.6440  -30.6579   24.0549 C   0  0  0  0  0  0
  -25.9024  -34.9454   23.5124 C   0  0  0  0  0  0
  -16.5331  -29.9074   23.6326 C   0  0  0  0  0  0
  -16.7244  -28.6469   23.0386 C   0  0  0  0  0  0
  -26.4467  -31.6572   25.0680 C   0  0  0  0  0  0
  -25.3717  -31.3591   26.1408 C   0  0  0  0  0  0
  -27.0356  -30.3063   24.5987 C   0  0  0  0  0  0
  -27.6006  -32.4331   25.7457 C   0  0  0  0  0  0
  -27.5590  -37.1797   24.8463 C   0  0  0  0  0  0
  -21.4152  -29.3034   22.3777 N   0  0  0  0  0  0
  -26.4306  -37.3778   23.9397 N   0  0  0  0  0  0
  -24.6754  -31.0643   22.0922 N   0  0  0  0  0  0
  -23.4190  -28.8118   23.3057 O   0  0  0  0  0  0
  -28.3791  -26.5755   20.1494 O   0  0  0  0  0  0
  -26.5601  -34.8920   22.4702 O   0  0  0  0  0  0
  -23.5357  -32.1365   23.7368 O   0  0  0  0  0  0
  -29.0316  -20.6220   21.8635 C   0  0  0  0  0  0
  -28.9147  -19.2376   19.4464 C   0  0  0  0  0  0
  -28.4742  -20.6193   19.5281 C   0  0  0  0  0  0
  -29.4960  -18.5521   20.5654 C   0  0  0  0  0  0
  -28.5636  -21.3739   20.7493 C   0  0  0  0  0  0
  -29.4875  -19.2768   21.7858 C   0  0  0  0  0  0
  -28.0003  -23.3647   22.2543 C   0  0  0  0  0  0
  -28.2144  -23.8895   19.9268 C   0  0  0  0  0  0
  -27.8558  -24.9092   22.1281 C   0  0  1  0  0  0
  -28.4263  -25.2174   20.7278 C   0  0  2  0  0  0
  -28.7911  -18.4849   18.1238 C   0  0  0  0  0  0
  -27.8918  -21.3052   18.2912 C   0  0  0  0  0  0
  -26.4198  -25.3740   22.4282 C   0  0  0  0  0  0
  -30.3519  -17.2164   20.4291 C   0  0  0  0  0  0
  -28.1993  -22.7750   20.9175 N   0  0  0  0  0  0
  -29.8436  -15.8078   20.6457 N   0  0  0  0  0  0
  -30.1033  -18.5560   23.2317 Cl  0  0  0  0  0  0
  -31.4657  -12.5156   19.1740 H   0  0  0  0  0  0
  -30.3396  -11.4241   19.9330 H   0  0  0  0  0  0
  -29.7727  -11.7366   17.4954 H   0  0  0  0  0  0
  -29.6313  -13.4618   17.7369 H   0  0  0  0  0  0
  -27.8953  -11.2734   18.9253 H   0  0  0  0  0  0
  -27.3631  -12.4966   17.8015 H   0  0  0  0  0  0
  -27.6451  -14.2476   19.4759 H   0  0  0  0  0  0
  -28.6958  -12.1112   21.3968 H   0  0  0  0  0  0
  -28.4257  -13.7861   21.8140 H   0  0  0  0  0  0
  -25.2763   -9.5628   22.4802 H   0  0  0  0  0  0
  -23.9962   -7.4610   22.7492 H   0  0  0  0  0  0
  -21.0855   -8.8796   19.8949 H   0  0  0  0  0  0
  -22.3754  -10.9669   19.6164 H   0  0  0  0  0  0
  -21.2008   -7.6146   23.9722 H   0  0  0  0  0  0
  -21.1491   -6.0520   25.9082 H   0  0  0  0  0  0
  -22.0599   -2.7609   23.2853 H   0  0  0  0  0  0
  -22.4057  -11.9783   22.4735 H   0  0  0  0  0  0
  -21.1105  -13.1228   22.2714 H   0  0  0  0  0  0
  -24.6548  -15.8470   20.5159 H   0  0  0  0  0  0
  -26.2677  -15.6289   20.0744 H   0  0  0  0  0  0
  -26.7102  -32.5486   23.1073 H   0  0  0  0  0  0
  -25.0001  -33.9701   25.0428 H   0  0  0  0  0  0
  -22.6997  -31.2902   21.3977 H   0  0  0  0  0  0
  -23.3743  -35.9674   23.3265 H   0  0  0  0  0  0
  -24.3586  -36.9000   22.2069 H   0  0  0  0  0  0
  -23.7247  -37.6516   23.6708 H   0  0  0  0  0  0
  -26.0400  -31.5598   20.5709 H   0  0  0  0  0  0
  -26.8309  -30.8812   21.9648 H   0  0  0  0  0  0
  -28.1067  -29.0335   21.1767 H   0  0  0  0  0  0
  -26.0485  -25.9138   19.0291 H   0  0  0  0  0  0
  -23.9834  -27.2728   19.0281 H   0  0  0  0  0  0
  -23.7051  -30.5508   19.3900 H   0  0  0  0  0  0
  -22.7452  -29.1932   19.8955 H   0  0  0  0  0  0
  -25.1274  -36.1967   25.0821 H   0  0  0  0  0  0
  -20.9901  -28.3209   24.1476 H   0  0  0  0  0  0
  -20.5652  -26.2243   23.3600 H   0  0  0  0  0  0
  -21.6609  -26.7429   22.1222 H   0  0  0  0  0  0
  -19.6886  -25.6281   21.1246 H   0  0  0  0  0  0
  -19.6682  -27.3173   20.6742 H   0  0  0  0  0  0
  -17.4185  -26.6697   21.3994 H   0  0  0  0  0  0
  -18.0247  -26.0019   22.8969 H   0  0  0  0  0  0
  -19.7911  -30.7222   24.2308 H   0  0  0  0  0  0
  -17.5006  -31.6273   24.5130 H   0  0  0  0  0  0
  -15.5328  -30.2987   23.7646 H   0  0  0  0  0  0
  -15.8628  -28.0775   22.7151 H   0  0  0  0  0  0
  -24.6001  -30.6818   25.7720 H   0  0  0  0  0  0
  -24.8749  -32.2670   26.4825 H   0  0  0  0  0  0
  -25.8087  -30.8820   27.0192 H   0  0  0  0  0  0
  -26.2900  -29.6748   24.1140 H   0  0  0  0  0  0
  -27.4324  -29.7339   25.4382 H   0  0  0  0  0  0
  -27.8612  -30.4463   23.9010 H   0  0  0  0  0  0
  -27.2640  -33.3700   26.1914 H   0  0  0  0  0  0
  -28.3868  -32.6777   25.0305 H   0  0  0  0  0  0
  -28.0608  -31.8528   26.5466 H   0  0  0  0  0  0
  -28.2556  -38.0149   24.7577 H   0  0  0  0  0  0
  -28.1141  -36.2669   24.6225 H   0  0  0  0  0  0
  -27.2297  -37.1361   25.8865 H   0  0  0  0  0  0
  -20.9336  -29.8826   21.7045 H   0  0  0  0  0  0
  -26.0197  -38.2859   24.1386 H   0  0  0  0  0  0
  -29.1064  -21.0813   22.8362 H   0  0  0  0  0  0
  -27.1258  -22.9282   22.7426 H   0  0  0  0  0  0
  -28.8583  -23.1602   22.8946 H   0  0  0  0  0  0
  -29.0261  -23.7841   19.2080 H   0  0  0  0  0  0
  -27.2724  -23.9181   19.3801 H   0  0  0  0  0  0
  -28.4906  -25.3868   22.8765 H   0  0  0  0  0  0
  -29.5007  -25.1766   20.9155 H   0  0  0  0  0  0
  -27.7774  -18.5562   17.7280 H   0  0  0  0  0  0
  -28.9799  -17.4183   18.2199 H   0  0  0  0  0  0
  -29.4888  -18.8836   17.3867 H   0  0  0  0  0  0
  -28.5445  -22.1111   17.9663 H   0  0  0  0  0  0
  -26.9098  -21.7189   18.5165 H   0  0  0  0  0  0
  -27.7648  -20.6703   17.4199 H   0  0  0  0  0  0
  -25.7073  -25.0098   21.6887 H   0  0  0  0  0  0
  -26.3475  -26.4605   22.4758 H   0  0  0  0  0  0
  -26.0993  -25.0084   23.4039 H   0  0  0  0  0  0
  -31.2078  -17.3342   21.0936 H   0  0  0  0  0  0
  -30.8144  -17.2381   19.4422 H   0  0  0  0  0  0
  -28.8654  -15.6862   20.8540 H   0  0  0  0  0  0
  1 25  1  0  0  0
  1 30  2  0  0  0
  1 86  1  0  0  0
  2  3  1  0  0  0
  2 25  1  0  0  0
  2 88  1  0  0  0
  2 89  1  0  0  0
  3  4  1  0  0  0
  3 90  1  0  0  0
  3 91  1  0  0  0
  4  5  1  0  0  0
  4 92  1  0  0  0
  4 93  1  0  0  0
  5  6  1  0  0  0
  5 26  1  0  0  0
  5 94  1  0  0  0
  6 25  1  0  0  0
  6 95  1  0  0  0
  6 96  1  0  0  0
  7  8  2  0  0  0
  7 26  1  0  0  0
  7 29  1  0  0  0
  8  9  1  0  0  0
  8 22  1  0  0  0
  9 10  1  0  0  0
  9 27  2  0  0  0
 10 11  2  0  0  0
 10 15  1  0  0  0
 11 12  1  0  0  0
 11 97  1  0  0  0
 12 13  2  0  0  0
 12 98  1  0  0  0
 13 14  1  0  0  0
 13 31  1  0  0  0
 14 15  2  0  0  0
 14 99  1  0  0  0
 15100  1  0  0  0
 16 17  2  0  0  0
 16 21  1  0  0  0
 16 31  1  0  0  0
 17 18  1  0  0  0
 17101  1  0  0  0
 18 19  2  0  0  0
 18102  1  0  0  0
 19 20  1  0  0  0
 19 24  1  0  0  0
 20 21  2  0  0  0
 20103  1  0  0  0
 21 23  1  0  0  0
 22 28  1  0  0  0
 22 32  2  0  0  0
 26 27  1  0  0  0
 28104  1  0  0  0
 28105  1  0  0  0
 29106  1  0  0  0
 29107  1  0  0  0
 33 34  1  0  0  0
 33 66  1  0  0  0
 33 70  2  0  0  0
 34 36  1  0  0  0
 34 59  1  0  0  0
 34108  1  0  0  0
 35 44  2  0  0  0
 35 45  1  0  0  0
 35 68  1  0  0  0
 36 56  1  0  0  0
 36109  1  0  0  0
 37 39  1  0  0  0
 37 47  1  0  0  0
 37 66  1  0  0  0
 37110  1  0  0  0
 38 43  2  0  0  0
 38 46  1  0  0  0
 38 47  1  0  0  0
 39 64  1  0  0  0
 39 67  2  0  0  0
 40 52  1  0  0  0
 40 53  2  0  0  0
 40 58  1  0  0  0
 41111  1  0  0  0
 41112  1  0  0  0
 41113  1  0  0  0
 41 48  1  0  0  0
 42 43  1  0  0  0
 42 66  1  0  0  0
 42114  1  0  0  0
 42115  1  0  0  0
 43 44  1  0  0  0
 44116  1  0  0  0
 45 46  2  0  0  0
 45117  1  0  0  0
 46118  1  0  0  0
 47119  1  0  0  0
 47120  1  0  0  0
 48 56  1  0  0  0
 48 65  1  0  0  0
 48121  1  0  0  0
 49 50  1  0  0  0
 49 53  1  0  0  0
 49 64  1  0  0  0
 49122  1  0  0  0
 50 51  1  0  0  0
 50123  1  0  0  0
 50124  1  0  0  0
 51 52  1  0  0  0
 51125  1  0  0  0
 51126  1  0  0  0
 52127  1  0  0  0
 52128  1  0  0  0
 53 54  1  0  0  0
 54 55  2  0  0  0
 54129  1  0  0  0
 55 57  1  0  0  0
 55130  1  0  0  0
 56 69  2  0  0  0
 57 58  2  0  0  0
 57131  1  0  0  0
 58132  1  0  0  0
 59 60  1  0  0  0
 59 61  1  0  0  0
 59 62  1  0  0  0
 60133  1  0  0  0
 60134  1  0  0  0
 60135  1  0  0  0
 61136  1  0  0  0
 61137  1  0  0  0
 61138  1  0  0  0
 62139  1  0  0  0
 62140  1  0  0  0
 62141  1  0  0  0
 63 65  1  0  0  0
 63142  1  0  0  0
 63143  1  0  0  0
 63144  1  0  0  0
 64145  1  0  0  0
 65146  1  0  0  0
 68 80  1  0  0  0
 71 75  2  0  0  0
 71 76  1  0  0  0
 71147  1  0  0  0
 72 73  2  0  0  0
 72 74  1  0  0  0
 72 81  1  0  0  0
 73 75  1  0  0  0
 73 82  1  0  0  0
 74 76  2  0  0  0
 74 84  1  0  0  0
 75 85  1  0  0  0
 76 87  1  0  0  0
 77 79  1  0  0  0
 77 85  1  0  0  0
 77148  1  0  0  0
 77149  1  0  0  0
 78 80  1  0  0  0
 78 85  1  0  0  0
 78150  1  0  0  0
 78151  1  0  0  0
 79 80  1  0  0  0
 79 83  1  0  0  0
 79152  1  0  0  0
 80153  1  0  0  0
 81154  1  0  0  0
 81155  1  0  0  0
 81156  1  0  0  0
 82157  1  0  0  0
 82158  1  0  0  0
 82159  1  0  0  0
 83160  1  0  0  0
 83161  1  0  0  0
 83162  1  0  0  0
 84 86  1  0  0  0
 84163  1  0  0  0
 84164  1  0  0  0
 86165  1  0  0  0
M  ISO  4   1 100  68 101  80 101  86 100
M  END
> <chiral flag>
0

> <version>
0

> <s_m_source_file>
/data/baiqing/PycharmProjects/Reinvent-master-3.2/result/LINK_invent/BTK/process_docking_weight1_custom_product_contain_oxygen_bond_distance_aromatic_linkinvent_7_9_3/rearranged_h_0032.sdf

> <i_m_source_file_index>
37

> <r_mmod_Potential_Energy-OPLS-2005>
195.833969116211

> <r_mmod_Stretch_Energy-OPLS-2005>
88.3003845214844

> <r_mmod_Bend_Energy-OPLS-2005>
230.667434692383

> <r_mmod_Torsional_Energy-OPLS-2005>
293.445190429688

> <r_mmod_Improper_Torsional_Energy-OPLS-2005>
7.4809422492981

> <r_mmod_Van_der_Waal_Energy-OPLS-2005>
148.592742919922

> <r_mmod_Electrostatic_Energy-OPLS-2005>
-408.271820068359

> <r_mmod_Solvation_Energy-OPLS-2005>
-213.118026733398

> <b_mmod_Minimization_Converged-OPLS-2005>
0

> <r_mmod_RMS_Derivative-OPLS-2005>
3.34929513931274

$$$$
37
                    3D
 Structure written by MMmdl.
166175  0  0  1  0            999 V2000
  -30.5904  -14.6472   20.4771 C   0  0  0  0  0  0
  -30.4426  -12.3895   19.4237 C   0  0  0  0  0  0
  -29.4964  -12.4862   18.2027 C   0  0  0  0  0  0
  -28.0204  -12.3362   18.6240 C   0  0  0  0  0  0
  -27.6552  -13.2079   19.8526 C   0  0  2  0  0  0
  -28.7058  -13.0345   20.9723 C   0  0  0  0  0  0
  -25.2584  -13.8183   20.5590 C   0  0  0  0  0  0
  -24.1851  -13.0477   20.9192 C   0  0  0  0  0  0
  -24.6405  -11.6930   20.8739 C   0  0  0  0  0  0
  -23.9068  -10.4336   21.0408 C   0  0  0  0  0  0
  -24.3635   -9.4255   21.9178 C   0  0  0  0  0  0
  -23.6325   -8.2281   22.0757 C   0  0  0  0  0  0
  -22.4305   -8.0314   21.3550 C   0  0  0  0  0  0
  -21.9930   -9.0279   20.4649 C   0  0  0  0  0  0
  -22.7251  -10.2160   20.3042 C   0  0  0  0  0  0
  -21.6873   -6.0767   22.5278 C   0  0  0  0  0  0
  -21.4025   -6.5667   23.8214 C   0  0  0  0  0  0
  -21.3637   -5.6807   24.9166 C   0  0  0  0  0  0
  -21.6026   -4.3074   24.7204 C   0  0  0  0  0  0
  -21.8836   -3.8176   23.4334 C   0  0  0  0  0  0
  -21.9212   -4.6995   22.3396 C   0  0  0  0  0  0
  -22.7871  -13.5266   21.1864 C   0  0  0  0  0  0
  -22.1690   -4.2185   21.0972 F   0  0  0  0  0  0
  -21.5594   -3.4548   25.7713 F   0  0  0  0  0  0
  -30.0161  -13.4021   20.4112 N   0  0  0  0  0  0
  -26.3001  -12.9338   20.3250 N   0  0  0  0  0  0
  -25.9322  -11.6521   20.5736 N   0  0  0  0  0  0
  -22.0511  -12.8222   22.0398 N   0  0  0  0  0  0
  -25.4358  -15.1883   20.3863 N   0  0  0  0  0  0
  -31.7453  -14.8476   20.0888 O   0  0  0  0  0  0
  -21.6665   -6.8907   21.4248 O   0  0  0  0  0  0
  -22.3551  -14.5580   20.6743 O   0  0  0  0  0  0
  -24.6184  -31.8649   23.1971 C   0  0  0  0  0  0
  -25.9035  -32.4822   23.8320 C   0  0  1  0  0  0
  -27.2586  -27.3527   20.1291 C   0  0  0  0  0  0
  -25.5858  -33.8613   24.2264 N   0  0  0  0  0  0
  -23.4173  -30.4763   21.5396 C   0  0  2  0  0  0
  -24.8720  -28.9189   20.1256 C   0  0  0  0  0  0
  -22.7476  -29.4645   22.4982 C   0  0  0  0  0  0
  -18.0315  -28.1459   22.8555 C   0  0  0  0  0  0
  -24.1473  -36.7252   23.2644 C   0  0  0  0  0  0
  -25.9495  -30.8052   21.3595 C   0  0  0  0  0  0
  -26.0330  -29.4242   20.7202 C   0  0  0  0  0  0
  -27.2304  -28.6592   20.7044 C   0  0  0  0  0  0
  -26.0689  -26.8665   19.5494 C   0  0  0  0  0  0
  -24.8906  -27.6439   19.5301 C   0  0  0  0  0  0
  -23.6361  -29.7944   20.1603 C   0  0  0  0  0  0
  -25.4123  -36.3116   24.0338 C   0  0  1  0  0  0
  -20.5929  -28.3716   23.1350 C   0  0  2  0  0  0
  -20.6837  -26.9459   22.5462 C   0  0  0  0  0  0
  -19.5790  -26.6455   21.5288 C   0  0  0  0  0  0
  -18.1948  -26.8025   22.1674 C   0  0  0  0  0  0
  -19.1582  -28.8912   23.2953 C   0  0  0  0  0  0
  -18.9505  -30.1533   23.8950 C   0  0  0  0  0  0
  -17.6506  -30.6666   24.0617 C   0  0  0  0  0  0
  -25.9075  -34.9493   23.5117 C   0  0  0  0  0  0
  -16.5388  -29.9177   23.6363 C   0  0  0  0  0  0
  -16.7318  -28.6595   23.0386 C   0  0  0  0  0  0
  -26.4445  -31.6604   25.0643 C   0  0  0  0  0  0
  -25.3638  -31.3754   26.1333 C   0  0  0  0  0  0
  -27.0296  -30.3058   24.6027 C   0  0  0  0  0  0
  -27.6008  -32.4320   25.7385 C   0  0  0  0  0  0
  -27.5598  -37.1790   24.8500 C   0  0  0  0  0  0
  -21.4208  -29.3046   22.3719 N   0  0  0  0  0  0
  -26.4314  -37.3810   23.9426 N   0  0  0  0  0  0
  -24.6800  -31.0670   22.0892 N   0  0  0  0  0  0
  -23.4193  -28.8225   23.3103 O   0  0  0  0  0  0
  -28.4557  -26.6525   19.9816 O   0  0  0  0  0  0
  -26.5687  -34.8959   22.4713 O   0  0  0  0  0  0
  -23.5364  -32.1427   23.7313 O   0  0  0  0  0  0
  -28.5032  -19.2126   21.3287 C   0  0  0  0  0  0
  -30.3561  -17.8718   19.7209 C   0  0  0  0  0  0
  -28.7844  -17.8325   21.5473 C   0  0  0  0  0  0
  -29.1171  -19.9714   20.3021 C   0  0  0  0  0  0
  -29.6886  -17.1074   20.7206 C   0  0  0  0  0  0
  -30.0780  -19.2673   19.5163 C   0  0  0  0  0  0
  -28.4358  -25.3015   22.0703 C   0  0  0  0  0  0
  -29.2451  -24.1574   22.6928 C   0  0  0  0  0  0
  -28.3997  -23.9606   19.9343 C   0  0  0  0  0  0
  -28.7710  -25.3521   20.5885 C   0  0  1  0  0  0
  -29.0346  -22.7488   22.0657 C   0  0  2  0  0  0
  -28.0728  -17.1342   22.6946 C   0  0  0  0  0  0
  -30.1283  -21.8512   22.6912 C   0  0  0  0  0  0
  -28.5608  -21.4166   19.9466 C   0  0  0  0  0  0
  -29.7531  -15.6481   20.8908 N   0  0  0  0  0  0
  -29.0693  -22.7249   20.5597 N   0  3  1  0  0  0
  -30.8809  -20.0856   18.2232 Cl  0  0  0  0  0  0
  -31.4762  -12.5349   19.1067 H   0  0  0  0  0  0
  -30.3990  -11.3906   19.8609 H   0  0  0  0  0  0
  -29.7499  -11.7151   17.4731 H   0  0  0  0  0  0
  -29.6368  -13.4412   17.6956 H   0  0  0  0  0  0
  -27.8559  -11.2852   18.8623 H   0  0  0  0  0  0
  -27.3600  -12.5615   17.7850 H   0  0  0  0  0  0
  -27.6840  -14.2423   19.5135 H   0  0  0  0  0  0
  -28.7215  -11.9984   21.3130 H   0  0  0  0  0  0
  -28.4549  -13.6323   21.8473 H   0  0  0  0  0  0
  -25.2807   -9.5737   22.4718 H   0  0  0  0  0  0
  -24.0050   -7.4689   22.7490 H   0  0  0  0  0  0
  -21.0847   -8.8797   19.8963 H   0  0  0  0  0  0
  -22.3736  -10.9681   19.6110 H   0  0  0  0  0  0
  -21.2038   -7.6178   23.9721 H   0  0  0  0  0  0
  -21.1413   -6.0534   25.9060 H   0  0  0  0  0  0
  -22.0631   -2.7644   23.2817 H   0  0  0  0  0  0
  -22.4147  -11.9874   22.4759 H   0  0  0  0  0  0
  -21.1107  -13.1190   22.2585 H   0  0  0  0  0  0
  -24.6752  -15.8536   20.4749 H   0  0  0  0  0  0
  -26.2687  -15.6012   19.9867 H   0  0  0  0  0  0
  -26.7100  -32.5586   23.1093 H   0  0  0  0  0  0
  -24.9916  -33.9759   25.0347 H   0  0  0  0  0  0
  -22.7119  -31.2948   21.3926 H   0  0  0  0  0  0
  -23.3807  -35.9524   23.3357 H   0  0  0  0  0  0
  -24.3560  -36.8812   22.2049 H   0  0  0  0  0  0
  -23.7124  -37.6412   23.6646 H   0  0  0  0  0  0
  -26.0684  -31.5604   20.5815 H   0  0  0  0  0  0
  -26.8324  -30.8714   21.9821 H   0  0  0  0  0  0
  -28.1342  -29.0743   21.1309 H   0  0  0  0  0  0
  -26.0669  -25.8934   19.0820 H   0  0  0  0  0  0
  -23.9976  -27.2545   19.0567 H   0  0  0  0  0  0
  -23.7451  -30.5588   19.3884 H   0  0  0  0  0  0
  -22.7645  -29.2033   19.8737 H   0  0  0  0  0  0
  -25.1309  -36.1980   25.0837 H   0  0  0  0  0  0
  -21.0054  -28.3302   24.1456 H   0  0  0  0  0  0
  -20.5854  -26.2292   23.3640 H   0  0  0  0  0  0
  -21.6676  -26.7581   22.1157 H   0  0  0  0  0  0
  -19.6906  -25.6377   21.1277 H   0  0  0  0  0  0
  -19.6715  -27.3325   20.6877 H   0  0  0  0  0  0
  -17.4240  -26.6880   21.4028 H   0  0  0  0  0  0
  -18.0265  -26.0171   22.9068 H   0  0  0  0  0  0
  -19.7973  -30.7391   24.2270 H   0  0  0  0  0  0
  -17.5059  -31.6342   24.5263 H   0  0  0  0  0  0
  -15.5400  -30.3109   23.7676 H   0  0  0  0  0  0
  -15.8720  -28.0953   22.7037 H   0  0  0  0  0  0
  -24.5827  -30.7114   25.7621 H   0  0  0  0  0  0
  -24.8809  -32.2948   26.4683 H   0  0  0  0  0  0
  -25.7883  -30.8954   27.0156 H   0  0  0  0  0  0
  -26.2863  -29.6795   24.1095 H   0  0  0  0  0  0
  -27.4104  -29.7305   25.4466 H   0  0  0  0  0  0
  -27.8666  -30.4417   23.9165 H   0  0  0  0  0  0
  -27.2659  -33.3659   26.1935 H   0  0  0  0  0  0
  -28.3823  -32.6811   25.0182 H   0  0  0  0  0  0
  -28.0687  -31.8444   26.5305 H   0  0  0  0  0  0
  -28.2665  -38.0054   24.7615 H   0  0  0  0  0  0
  -28.1042  -36.2596   24.6301 H   0  0  0  0  0  0
  -27.2325  -37.1414   25.8905 H   0  0  0  0  0  0
  -20.9399  -29.8603   21.6790 H   0  0  0  0  0  0
  -26.0210  -38.2877   24.1480 H   0  0  0  0  0  0
  -27.7717  -19.7023   21.9546 H   0  0  0  0  0  0
  -31.0476  -17.3806   19.0500 H   0  0  0  0  0  0
  -28.7146  -26.2444   22.5409 H   0  0  0  0  0  0
  -27.3647  -25.1724   22.2239 H   0  0  0  0  0  0
  -29.0135  -24.1044   23.7580 H   0  0  0  0  0  0
  -30.3046  -24.4189   22.6307 H   0  0  0  0  0  0
  -28.6524  -24.0009   18.8749 H   0  0  0  0  0  0
  -27.3172  -23.8434   19.9804 H   0  0  0  0  0  0
  -29.8607  -25.3953   20.5291 H   0  0  0  0  0  0
  -28.0538  -22.3904   22.3816 H   0  0  0  0  0  0
  -27.3208  -17.7685   23.1661 H   0  0  0  0  0  0
  -28.7922  -16.8483   23.4648 H   0  0  0  0  0  0
  -27.5632  -16.2376   22.3483 H   0  0  0  0  0  0
  -31.0738  -21.9140   22.1517 H   0  0  0  0  0  0
  -29.8347  -20.8098   22.7604 H   0  0  0  0  0  0
  -30.3382  -22.1462   23.7203 H   0  0  0  0  0  0
  -27.4938  -21.3786   20.1674 H   0  0  0  0  0  0
  -28.5997  -21.5193   18.8622 H   0  0  0  0  0  0
  -28.9119  -15.2648   21.2909 H   0  0  0  0  0  0
  -30.0423  -22.7919   20.3018 H   0  0  0  0  0  0
  1 25  1  0  0  0
  1 30  2  0  0  0
  1 85  1  0  0  0
  2  3  1  0  0  0
  2 25  1  0  0  0
  2 88  1  0  0  0
  2 89  1  0  0  0
  3  4  1  0  0  0
  3 90  1  0  0  0
  3 91  1  0  0  0
  4  5  1  0  0  0
  4 92  1  0  0  0
  4 93  1  0  0  0
  5  6  1  0  0  0
  5 26  1  0  0  0
  5 94  1  0  0  0
  6 25  1  0  0  0
  6 95  1  0  0  0
  6 96  1  0  0  0
  7  8  2  0  0  0
  7 26  1  0  0  0
  7 29  1  0  0  0
  8  9  1  0  0  0
  8 22  1  0  0  0
  9 10  1  0  0  0
  9 27  2  0  0  0
 10 11  2  0  0  0
 10 15  1  0  0  0
 11 12  1  0  0  0
 11 97  1  0  0  0
 12 13  2  0  0  0
 12 98  1  0  0  0
 13 14  1  0  0  0
 13 31  1  0  0  0
 14 15  2  0  0  0
 14 99  1  0  0  0
 15100  1  0  0  0
 16 17  2  0  0  0
 16 21  1  0  0  0
 16 31  1  0  0  0
 17 18  1  0  0  0
 17101  1  0  0  0
 18 19  2  0  0  0
 18102  1  0  0  0
 19 20  1  0  0  0
 19 24  1  0  0  0
 20 21  2  0  0  0
 20103  1  0  0  0
 21 23  1  0  0  0
 22 28  1  0  0  0
 22 32  2  0  0  0
 26 27  1  0  0  0
 28104  1  0  0  0
 28105  1  0  0  0
 29106  1  0  0  0
 29107  1  0  0  0
 33 34  1  0  0  0
 33 66  1  0  0  0
 33 70  2  0  0  0
 34 36  1  0  0  0
 34 59  1  0  0  0
 34108  1  0  0  0
 35 44  2  0  0  0
 35 45  1  0  0  0
 35 68  1  0  0  0
 36 56  1  0  0  0
 36109  1  0  0  0
 37 39  1  0  0  0
 37 47  1  0  0  0
 37 66  1  0  0  0
 37110  1  0  0  0
 38 43  2  0  0  0
 38 46  1  0  0  0
 38 47  1  0  0  0
 39 64  1  0  0  0
 39 67  2  0  0  0
 40 52  1  0  0  0
 40 53  2  0  0  0
 40 58  1  0  0  0
 41111  1  0  0  0
 41112  1  0  0  0
 41113  1  0  0  0
 41 48  1  0  0  0
 42 43  1  0  0  0
 42 66  1  0  0  0
 42114  1  0  0  0
 42115  1  0  0  0
 43 44  1  0  0  0
 44116  1  0  0  0
 45 46  2  0  0  0
 45117  1  0  0  0
 46118  1  0  0  0
 47119  1  0  0  0
 47120  1  0  0  0
 48 56  1  0  0  0
 48 65  1  0  0  0
 48121  1  0  0  0
 49 50  1  0  0  0
 49 53  1  0  0  0
 49 64  1  0  0  0
 49122  1  0  0  0
 50 51  1  0  0  0
 50123  1  0  0  0
 50124  1  0  0  0
 51 52  1  0  0  0
 51125  1  0  0  0
 51126  1  0  0  0
 52127  1  0  0  0
 52128  1  0  0  0
 53 54  1  0  0  0
 54 55  2  0  0  0
 54129  1  0  0  0
 55 57  1  0  0  0
 55130  1  0  0  0
 56 69  2  0  0  0
 57 58  2  0  0  0
 57131  1  0  0  0
 58132  1  0  0  0
 59 60  1  0  0  0
 59 61  1  0  0  0
 59 62  1  0  0  0
 60133  1  0  0  0
 60134  1  0  0  0
 60135  1  0  0  0
 61136  1  0  0  0
 61137  1  0  0  0
 61138  1  0  0  0
 62139  1  0  0  0
 62140  1  0  0  0
 62141  1  0  0  0
 63 65  1  0  0  0
 63142  1  0  0  0
 63143  1  0  0  0
 63144  1  0  0  0
 64145  1  0  0  0
 65146  1  0  0  0
 68 80  1  0  0  0
 71 73  2  0  0  0
 71 74  1  0  0  0
 71147  1  0  0  0
 72 75  2  0  0  0
 72 76  1  0  0  0
 72148  1  0  0  0
 73 75  1  0  0  0
 73 82  1  0  0  0
 74 76  2  0  0  0
 74 84  1  0  0  0
 75 85  1  0  0  0
 76 87  1  0  0  0
 77 78  1  0  0  0
 77 80  1  0  0  0
 77149  1  0  0  0
 77150  1  0  0  0
 78 81  1  0  0  0
 78151  1  0  0  0
 78152  1  0  0  0
 79 80  1  0  0  0
 79 86  1  0  0  0
 79153  1  0  0  0
 79154  1  0  0  0
 80155  1  0  0  0
 81 83  1  0  0  0
 81 86  1  0  0  0
 81156  1  0  0  0
 82157  1  0  0  0
 82158  1  0  0  0
 82159  1  0  0  0
 83160  1  0  0  0
 83161  1  0  0  0
 83162  1  0  0  0
 84163  1  0  0  0
 84164  1  0  0  0
 84 86  1  0  0  0
 85165  1  0  0  0
 86166  1  0  0  0
M  CHG  1  86   1
M  ISO  4   1 100  68 101  80 101  85 100
M  END
> <chiral flag>
0

> <version>
0

> <s_m_source_file>
/data/baiqing/PycharmProjects/Reinvent-master-3.2/result/LINK_invent/BTK/process_docking_weight1_custom_product_contain_oxygen_bond_distance_aromatic_linkinvent_7_9_3/rearranged_h_0032.sdf

> <i_m_source_file_index>
38

> <r_mmod_Potential_Energy-OPLS-2005>
36.0158920288086

> <r_mmod_Stretch_Energy-OPLS-2005>
85.3219604492188

> <r_mmod_Bend_Energy-OPLS-2005>
191.233200073242

> <r_mmod_Torsional_Energy-OPLS-2005>
271.426208496094

> <r_mmod_Improper_Torsional_Energy-OPLS-2005>
5.98897457122803

> <r_mmod_Van_der_Waal_Energy-OPLS-2005>
138.428680419922

> <r_mmod_Electrostatic_Energy-OPLS-2005>
-278.688812255859

> <r_mmod_Solvation_Energy-OPLS-2005>
-418.017181396484

> <b_mmod_Minimization_Converged-OPLS-2005>
0

> <r_mmod_RMS_Derivative-OPLS-2005>
5.17816781997681

$$$$
38
                    3D
 Structure written by MMmdl.
165174  0  0  1  0            999 V2000
  -30.7050  -14.6489   20.3669 C   0  0  0  0  0  0
  -30.3906  -12.3781   19.4647 C   0  0  0  0  0  0
  -29.4868  -12.4739   18.2183 C   0  0  0  0  0  0
  -28.0095  -12.3300   18.6309 C   0  0  0  0  0  0
  -27.6277  -13.2376   19.8311 C   0  0  2  0  0  0
  -28.6801  -13.2115   20.9573 C   0  0  0  0  0  0
  -25.2456  -13.8204   20.5706 C   0  0  0  0  0  0
  -24.1768  -13.0422   20.9243 C   0  0  0  0  0  0
  -24.6380  -11.6914   20.8790 C   0  0  0  0  0  0
  -23.9049  -10.4271   21.0433 C   0  0  0  0  0  0
  -24.3594   -9.4186   21.9208 C   0  0  0  0  0  0
  -23.6281   -8.2207   22.0751 C   0  0  0  0  0  0
  -22.4261   -8.0244   21.3543 C   0  0  0  0  0  0
  -21.9902   -9.0218   20.4644 C   0  0  0  0  0  0
  -22.7230  -10.2105   20.3066 C   0  0  0  0  0  0
  -21.6854   -6.0697   22.5267 C   0  0  0  0  0  0
  -21.4021   -6.5612   23.8195 C   0  0  0  0  0  0
  -21.3676   -5.6782   24.9172 C   0  0  0  0  0  0
  -21.6061   -4.3042   24.7236 C   0  0  0  0  0  0
  -21.8827   -3.8111   23.4364 C   0  0  0  0  0  0
  -21.9192   -4.6918   22.3413 C   0  0  0  0  0  0
  -22.7794  -13.5196   21.1878 C   0  0  0  0  0  0
  -22.1659   -4.2091   21.0996 F   0  0  0  0  0  0
  -21.5645   -3.4543   25.7766 F   0  0  0  0  0  0
  -29.9903  -13.4796   20.3634 N   0  0  0  0  0  0
  -26.2870  -12.9428   20.3271 N   0  0  0  0  0  0
  -25.9315  -11.6565   20.5786 N   0  0  0  0  0  0
  -22.0458  -12.8154   22.0428 N   0  0  0  0  0  0
  -25.4125  -15.1918   20.4088 N   0  0  0  0  0  0
  -31.9266  -14.5794   20.2245 O   0  0  0  0  0  0
  -21.6634   -6.8844   21.4229 O   0  0  0  0  0  0
  -22.3467  -14.5492   20.6731 O   0  0  0  0  0  0
  -24.6247  -31.8618   23.2022 C   0  0  0  0  0  0
  -25.9095  -32.4798   23.8359 C   0  0  1  0  0  0
  -27.2088  -27.3447   20.1038 C   0  0  0  0  0  0
  -25.5926  -33.8597   24.2298 N   0  0  0  0  0  0
  -23.4160  -30.4870   21.5456 C   0  0  2  0  0  0
  -24.8594  -28.9411   20.1117 C   0  0  0  0  0  0
  -22.7473  -29.4631   22.4935 C   0  0  0  0  0  0
  -18.0311  -28.1367   22.8462 C   0  0  0  0  0  0
  -24.1491  -36.7301   23.2644 C   0  0  0  0  0  0
  -25.9582  -30.7993   21.3689 C   0  0  0  0  0  0
  -26.0300  -29.4277   20.7111 C   0  0  0  0  0  0
  -27.2147  -28.6381   20.6992 C   0  0  0  0  0  0
  -26.0230  -26.8928   19.4961 C   0  0  0  0  0  0
  -24.8548  -27.6766   19.4990 C   0  0  0  0  0  0
  -23.6278  -29.8216   20.1609 C   0  0  0  0  0  0
  -25.4125  -36.3107   24.0337 C   0  0  1  0  0  0
  -20.5900  -28.3664   23.1271 C   0  0  2  0  0  0
  -20.6830  -26.9395   22.5352 C   0  0  0  0  0  0
  -19.5780  -26.6336   21.5168 C   0  0  0  0  0  0
  -18.1957  -26.7893   22.1621 C   0  0  0  0  0  0
  -19.1558  -28.8829   23.2862 C   0  0  0  0  0  0
  -18.9486  -30.1428   23.8887 C   0  0  0  0  0  0
  -17.6488  -30.6557   24.0591 C   0  0  0  0  0  0
  -25.9060  -34.9472   23.5126 C   0  0  0  0  0  0
  -16.5378  -29.9043   23.6374 C   0  0  0  0  0  0
  -16.7304  -28.6499   23.0335 C   0  0  0  0  0  0
  -26.4482  -31.6617   25.0738 C   0  0  0  0  0  0
  -25.3728  -31.3717   26.1470 C   0  0  0  0  0  0
  -27.0310  -30.3057   24.6160 C   0  0  0  0  0  0
  -27.6046  -32.4346   25.7509 C   0  0  0  0  0  0
  -27.5583  -37.1811   24.8476 C   0  0  0  0  0  0
  -21.4188  -29.3064   22.3707 N   0  0  0  0  0  0
  -26.4303  -37.3798   23.9411 N   0  0  0  0  0  0
  -24.6861  -31.0661   22.0954 N   0  0  0  0  0  0
  -23.4224  -28.8125   23.2953 O   0  0  0  0  0  0
  -28.2961  -26.4772   20.1088 O   0  0  0  0  0  0
  -26.5623  -34.8932   22.4689 O   0  0  0  0  0  0
  -23.5415  -32.1377   23.7378 O   0  0  0  0  0  0
  -29.3408  -23.1380   21.5549 C   0  0  0  0  0  0
  -27.6631  -23.1771   19.8468 C   0  0  0  0  0  0
  -28.4527  -23.9094   20.7671 C   0  0  0  0  0  0
  -29.3893  -21.7149   21.5011 C   0  0  0  0  0  0
  -27.6825  -21.7462   19.7873 C   0  0  0  0  0  0
  -28.5198  -20.9643   20.6559 C   0  0  0  0  0  0
  -29.3118  -18.0311   18.8874 C   0  0  0  0  0  0
  -29.2507  -18.9148   17.8773 C   0  0  0  0  0  0
  -29.5276  -16.5169   18.7723 C   0  0  0  0  0  0
  -29.4782  -17.1043   21.1075 C   0  0  0  0  0  0
  -30.1504  -16.1224   20.1139 C   0  0  1  0  0  0
  -30.3585  -21.0133   22.4347 C   0  0  0  0  0  0
  -26.6937  -21.1059   18.8234 C   0  0  0  0  0  0
  -28.3460  -19.3990   20.8572 C   0  0  0  0  0  0
  -28.2125  -25.4212   21.1187 C   0  0  0  0  0  0
  -29.3763  -18.4117   20.3439 N   0  3  1  0  0  0
  -31.4409  -12.4246   19.1706 H   0  0  0  0  0  0
  -30.2616  -11.4160   19.9660 H   0  0  0  0  0  0
  -29.7492  -11.6991   17.4961 H   0  0  0  0  0  0
  -29.6478  -13.4278   17.7114 H   0  0  0  0  0  0
  -27.8517  -11.2839   18.8924 H   0  0  0  0  0  0
  -27.3514  -12.5288   17.7827 H   0  0  0  0  0  0
  -27.6072  -14.2503   19.4355 H   0  0  0  0  0  0
  -28.6908  -12.2419   21.4576 H   0  0  0  0  0  0
  -28.4435  -13.9592   21.7156 H   0  0  0  0  0  0
  -25.2733   -9.5648   22.4796 H   0  0  0  0  0  0
  -23.9994   -7.4586   22.7452 H   0  0  0  0  0  0
  -21.0847   -8.8710   19.8945 H   0  0  0  0  0  0
  -22.3680  -10.9626   19.6151 H   0  0  0  0  0  0
  -21.2004   -7.6113   23.9680 H   0  0  0  0  0  0
  -21.1508   -6.0521   25.9080 H   0  0  0  0  0  0
  -22.0595   -2.7559   23.2887 H   0  0  0  0  0  0
  -22.4126  -11.9842   22.4830 H   0  0  0  0  0  0
  -21.1068  -13.1137   22.2643 H   0  0  0  0  0  0
  -24.6348  -15.8382   20.4896 H   0  0  0  0  0  0
  -26.2430  -15.6196   20.0251 H   0  0  0  0  0  0
  -26.7173  -32.5466   23.1112 H   0  0  0  0  0  0
  -25.0066  -33.9752   25.0438 H   0  0  0  0  0  0
  -22.7084  -31.3062   21.4027 H   0  0  0  0  0  0
  -23.3759  -35.9624   23.3327 H   0  0  0  0  0  0
  -24.3569  -36.8895   22.2049 H   0  0  0  0  0  0
  -23.7217  -37.6511   23.6643 H   0  0  0  0  0  0
  -26.0954  -31.5618   20.6021 H   0  0  0  0  0  0
  -26.8403  -30.8463   21.9953 H   0  0  0  0  0  0
  -28.1213  -29.0000   21.1647 H   0  0  0  0  0  0
  -25.9924  -25.9112   19.0450 H   0  0  0  0  0  0
  -23.9551  -27.2967   19.0344 H   0  0  0  0  0  0
  -23.7448  -30.5993   19.4051 H   0  0  0  0  0  0
  -22.7454  -29.2521   19.8619 H   0  0  0  0  0  0
  -25.1294  -36.1977   25.0824 H   0  0  0  0  0  0
  -20.9993  -28.3220   24.1380 H   0  0  0  0  0  0
  -21.6741  -26.7455   22.1223 H   0  0  0  0  0  0
  -20.5698  -26.2251   23.3529 H   0  0  0  0  0  0
  -19.6908  -25.6208   21.1244 H   0  0  0  0  0  0
  -19.6669  -27.3105   20.6654 H   0  0  0  0  0  0
  -17.4199  -26.6598   21.4065 H   0  0  0  0  0  0
  -18.0355  -26.0080   22.9072 H   0  0  0  0  0  0
  -19.7943  -30.7269   24.2254 H   0  0  0  0  0  0
  -17.5047  -31.6228   24.5208 H   0  0  0  0  0  0
  -15.5397  -30.2955   23.7701 H   0  0  0  0  0  0
  -15.8717  -28.0814   22.7015 H   0  0  0  0  0  0
  -24.5909  -30.7062   25.7795 H   0  0  0  0  0  0
  -24.8900  -32.2860   26.4949 H   0  0  0  0  0  0
  -25.8069  -30.8865   27.0219 H   0  0  0  0  0  0
  -26.2852  -29.6822   24.1210 H   0  0  0  0  0  0
  -27.4058  -29.7311   25.4635 H   0  0  0  0  0  0
  -27.8715  -30.4380   23.9336 H   0  0  0  0  0  0
  -27.2678  -33.3645   26.2104 H   0  0  0  0  0  0
  -28.3861  -32.6903   25.0344 H   0  0  0  0  0  0
  -28.0722  -31.8458   26.5413 H   0  0  0  0  0  0
  -28.2634  -38.0079   24.7507 H   0  0  0  0  0  0
  -28.1047  -36.2609   24.6335 H   0  0  0  0  0  0
  -27.2299  -37.1513   25.8881 H   0  0  0  0  0  0
  -20.9339  -29.8871   21.6992 H   0  0  0  0  0  0
  -26.0200  -38.2889   24.1374 H   0  0  0  0  0  0
  -29.9510  -23.6499   22.2863 H   0  0  0  0  0  0
  -26.9596  -23.7213   19.2321 H   0  0  0  0  0  0
  -29.1844  -19.9812   18.0463 H   0  0  0  0  0  0
  -29.2706  -18.5798   16.8490 H   0  0  0  0  0  0
  -30.1874  -16.2741   17.9373 H   0  0  0  0  0  0
  -28.5671  -16.0358   18.5926 H   0  0  0  0  0  0
  -28.4895  -16.7319   21.3777 H   0  0  0  0  0  0
  -30.0552  -17.2232   22.0254 H   0  0  0  0  0  0
  -31.1176  -16.6250   20.0200 H   0  0  0  0  0  0
  -29.8322  -20.4458   23.2030 H   0  0  0  0  0  0
  -31.0065  -20.3426   21.8725 H   0  0  0  0  0  0
  -31.0068  -21.7294   22.9403 H   0  0  0  0  0  0
  -26.8205  -20.0340   18.6915 H   0  0  0  0  0  0
  -26.7952  -21.5504   17.8330 H   0  0  0  0  0  0
  -25.6720  -21.2886   19.1600 H   0  0  0  0  0  0
  -27.3555  -19.0801   20.5371 H   0  0  0  0  0  0
  -28.3015  -19.2478   21.9348 H   0  0  0  0  0  0
  -28.9398  -25.7072   21.8793 H   0  0  0  0  0  0
  -27.2503  -25.4616   21.6336 H   0  0  0  0  0  0
  -30.2630  -18.8687   20.4957 H   0  0  0  0  0  0
  1 25  1  0  0  0
  1 30  2  0  0  0
  1 81  1  0  0  0
  2  3  1  0  0  0
  2 25  1  0  0  0
  2 87  1  0  0  0
  2 88  1  0  0  0
  3  4  1  0  0  0
  3 89  1  0  0  0
  3 90  1  0  0  0
  4  5  1  0  0  0
  4 91  1  0  0  0
  4 92  1  0  0  0
  5  6  1  0  0  0
  5 26  1  0  0  0
  5 93  1  0  0  0
  6 25  1  0  0  0
  6 94  1  0  0  0
  6 95  1  0  0  0
  7  8  2  0  0  0
  7 26  1  0  0  0
  7 29  1  0  0  0
  8  9  1  0  0  0
  8 22  1  0  0  0
  9 10  1  0  0  0
  9 27  2  0  0  0
 10 11  2  0  0  0
 10 15  1  0  0  0
 11 12  1  0  0  0
 11 96  1  0  0  0
 12 13  2  0  0  0
 12 97  1  0  0  0
 13 14  1  0  0  0
 13 31  1  0  0  0
 14 15  2  0  0  0
 14 98  1  0  0  0
 15 99  1  0  0  0
 16 17  2  0  0  0
 16 21  1  0  0  0
 16 31  1  0  0  0
 17 18  1  0  0  0
 17100  1  0  0  0
 18 19  2  0  0  0
 18101  1  0  0  0
 19 20  1  0  0  0
 19 24  1  0  0  0
 20 21  2  0  0  0
 20102  1  0  0  0
 21 23  1  0  0  0
 22 28  1  0  0  0
 22 32  2  0  0  0
 26 27  1  0  0  0
 28103  1  0  0  0
 28104  1  0  0  0
 29105  1  0  0  0
 29106  1  0  0  0
 33 34  1  0  0  0
 33 66  1  0  0  0
 33 70  2  0  0  0
 34 36  1  0  0  0
 34 59  1  0  0  0
 34107  1  0  0  0
 35 44  2  0  0  0
 35 45  1  0  0  0
 35 68  1  0  0  0
 36 56  1  0  0  0
 36108  1  0  0  0
 37 39  1  0  0  0
 37 47  1  0  0  0
 37 66  1  0  0  0
 37109  1  0  0  0
 38 43  2  0  0  0
 38 46  1  0  0  0
 38 47  1  0  0  0
 39 64  1  0  0  0
 39 67  2  0  0  0
 40 52  1  0  0  0
 40 53  2  0  0  0
 40 58  1  0  0  0
 41110  1  0  0  0
 41111  1  0  0  0
 41112  1  0  0  0
 41 48  1  0  0  0
 42 43  1  0  0  0
 42 66  1  0  0  0
 42113  1  0  0  0
 42114  1  0  0  0
 43 44  1  0  0  0
 44115  1  0  0  0
 45 46  2  0  0  0
 45116  1  0  0  0
 46117  1  0  0  0
 47118  1  0  0  0
 47119  1  0  0  0
 48 56  1  0  0  0
 48 65  1  0  0  0
 48120  1  0  0  0
 49 50  1  0  0  0
 49 53  1  0  0  0
 49 64  1  0  0  0
 49121  1  0  0  0
 50 51  1  0  0  0
 50122  1  0  0  0
 50123  1  0  0  0
 51 52  1  0  0  0
 51124  1  0  0  0
 51125  1  0  0  0
 52126  1  0  0  0
 52127  1  0  0  0
 53 54  1  0  0  0
 54 55  2  0  0  0
 54128  1  0  0  0
 55 57  1  0  0  0
 55129  1  0  0  0
 56 69  2  0  0  0
 57 58  2  0  0  0
 57130  1  0  0  0
 58131  1  0  0  0
 59 60  1  0  0  0
 59 61  1  0  0  0
 59 62  1  0  0  0
 60132  1  0  0  0
 60133  1  0  0  0
 60134  1  0  0  0
 61135  1  0  0  0
 61136  1  0  0  0
 61137  1  0  0  0
 62138  1  0  0  0
 62139  1  0  0  0
 62140  1  0  0  0
 63 65  1  0  0  0
 63141  1  0  0  0
 63142  1  0  0  0
 63143  1  0  0  0
 64144  1  0  0  0
 65145  1  0  0  0
 68 85  1  0  0  0
 71 73  2  0  0  0
 71 74  1  0  0  0
 71146  1  0  0  0
 72 73  1  0  0  0
 72 75  2  0  0  0
 72147  1  0  0  0
 73 85  1  0  0  0
 74 76  2  0  0  0
 74 82  1  0  0  0
 75 76  1  0  0  0
 75 83  1  0  0  0
 76 84  1  0  0  0
 77 78  2  0  0  0
 77 79  1  0  0  0
 77 86  1  0  0  0
 78148  1  0  0  0
 78149  1  0  0  0
 79 81  1  0  0  0
 79150  1  0  0  0
 79151  1  0  0  0
 80 81  1  0  0  0
 80 86  1  0  0  0
 80152  1  0  0  0
 80153  1  0  0  0
 81154  1  0  0  0
 82155  1  0  0  0
 82156  1  0  0  0
 82157  1  0  0  0
 83158  1  0  0  0
 83159  1  0  0  0
 83160  1  0  0  0
 84161  1  0  0  0
 84162  1  0  0  0
 84 86  1  0  0  0
 85163  1  0  0  0
 85164  1  0  0  0
 86165  1  0  0  0
M  CHG  1  86   1
M  ISO  4   1 100  68 101  81 100  85 101
M  END
> <chiral flag>
0

> <version>
0

> <s_m_source_file>
/data/baiqing/PycharmProjects/Reinvent-master-3.2/result/LINK_invent/BTK/process_docking_weight1_custom_product_contain_oxygen_bond_distance_aromatic_linkinvent_7_9_3/rearranged_h_0032.sdf

> <i_m_source_file_index>
39

> <r_mmod_Potential_Energy-OPLS-2005>
127.282814025879

> <r_mmod_Stretch_Energy-OPLS-2005>
75.5494766235352

> <r_mmod_Bend_Energy-OPLS-2005>
228.162734985352

> <r_mmod_Torsional_Energy-OPLS-2005>
278.470703125

> <r_mmod_Improper_Torsional_Energy-OPLS-2005>
13.7200384140015

> <r_mmod_Van_der_Waal_Energy-OPLS-2005>
132.540542602539

> <r_mmod_Electrostatic_Energy-OPLS-2005>
-231.884674072266

> <r_mmod_Solvation_Energy-OPLS-2005>
-434.346954345703

> <b_mmod_Minimization_Converged-OPLS-2005>
0

> <r_mmod_RMS_Derivative-OPLS-2005>
4.01563215255737

$$$$
39
                    3D
 Structure written by MMmdl.
174183  0  0  1  0            999 V2000
  -29.6377  -15.5100   20.6719 C   0  0  0  0  0  0
  -30.3157  -13.0831   19.6770 C   0  0  0  0  0  0
  -29.5216  -12.7124   18.3828 C   0  0  0  0  0  0
  -28.0661  -12.3326   18.7192 C   0  0  0  0  0  0
  -27.5209  -13.2465   19.8386 C   0  0  2  0  0  0
  -28.4237  -13.3275   21.0565 C   0  0  0  0  0  0
  -25.1998  -13.8128   20.5868 C   0  0  0  0  0  0
  -24.1348  -13.0317   20.9233 C   0  0  0  0  0  0
  -24.6004  -11.6843   20.8621 C   0  0  0  0  0  0
  -23.8846  -10.4241   21.0329 C   0  0  0  0  0  0
  -24.3552   -9.4251   21.9107 C   0  0  0  0  0  0
  -23.6313   -8.2246   22.0689 C   0  0  0  0  0  0
  -22.4273   -8.0266   21.3510 C   0  0  0  0  0  0
  -21.9821   -9.0183   20.4598 C   0  0  0  0  0  0
  -22.7038  -10.2098   20.3001 C   0  0  0  0  0  0
  -21.6880   -6.0742   22.5276 C   0  0  0  0  0  0
  -21.3980   -6.5633   23.8200 C   0  0  0  0  0  0
  -21.3658   -5.6779   24.9160 C   0  0  0  0  0  0
  -21.6087   -4.3048   24.7203 C   0  0  0  0  0  0
  -21.8831   -3.8150   23.4313 C   0  0  0  0  0  0
  -21.9215   -4.6978   22.3388 C   0  0  0  0  0  0
  -22.7486  -13.5164   21.1928 C   0  0  0  0  0  0
  -22.1688   -4.2168   21.0965 F   0  0  0  0  0  0
  -21.5671   -3.4531   25.7709 F   0  0  0  0  0  0
  -29.5336  -14.0776   20.5514 N   0  0  0  0  0  0
  -26.2055  -12.9230   20.2858 N   0  0  0  0  0  0
  -25.8805  -11.6384   20.5362 N   0  0  0  0  0  0
  -22.0309  -12.8104   22.0582 N   0  0  0  0  0  0
  -25.4053  -15.1822   20.4994 N   0  0  0  0  0  0
  -30.8324  -15.7673   20.3399 O   0  0  0  0  0  0
  -21.6675   -6.8849   21.4221 O   0  0  0  0  0  0
  -22.3175  -14.5459   20.6791 O   0  0  0  0  0  0
  -24.6515  -31.9252   23.2348 C   0  0  0  0  0  0
  -25.9468  -32.4999   23.8649 C   0  0  1  0  0  0
  -26.6309  -27.2355   20.1890 C   0  0  0  0  0  0
  -25.6339  -33.8761   24.2581 N   0  0  0  0  0  0
  -23.4539  -30.5913   21.5898 C   0  0  2  0  0  0
  -24.8378  -29.2069   19.9235 C   0  0  0  0  0  0
  -22.9997  -29.4934   22.5798 C   0  0  0  0  0  0
  -18.4670  -27.6392   22.5895 C   0  0  0  0  0  0
  -24.1530  -36.7319   23.2597 C   0  0  0  0  0  0
  -25.9866  -30.7981   21.4515 C   0  0  0  0  0  0
  -25.9451  -29.4674   20.7298 C   0  0  0  0  0  0
  -26.9081  -28.4506   20.8727 C   0  0  0  0  0  0
  -25.9800  -27.2720   18.9869 C   0  0  0  0  0  0
  -24.9180  -28.1717   18.9661 C   0  0  0  0  0  0
  -23.6438  -30.1220   20.1149 C   0  0  0  0  0  0
  -25.4124  -36.3157   24.0347 C   0  0  1  0  0  0
  -21.1983  -28.1040   23.4170 C   0  0  2  0  0  0
  -22.1352  -26.5323   22.6904 C   0  0  0  0  0  0
  -20.5105  -25.2736   21.3433 C   0  0  0  0  0  0
  -18.7368  -26.1860   21.6098 C   0  0  0  0  0  0
  -19.5235  -28.4387   23.3114 C   0  0  0  0  0  0
  -19.1309  -29.7099   23.8977 C   0  0  0  0  0  0
  -17.8168  -30.2353   23.9292 C   0  0  0  0  0  0
  -25.9126  -34.9556   23.5165 C   0  0  0  0  0  0
  -16.7951  -29.4510   23.3783 C   0  0  0  0  0  0
  -17.1249  -28.2114   22.7368 C   0  0  0  0  0  0
  -26.4608  -31.6621   25.0984 C   0  0  0  0  0  0
  -25.3721  -31.3794   26.1604 C   0  0  0  0  0  0
  -27.0336  -30.2957   24.6549 C   0  0  0  0  0  0
  -27.6164  -32.4247   25.7822 C   0  0  0  0  0  0
  -27.5613  -37.1843   24.8459 C   0  0  0  0  0  0
  -21.7214  -29.3368   22.8077 N   0  0  0  0  0  0
  -26.4282  -37.3859   23.9446 N   0  0  0  0  0  0
  -24.7119  -31.1604   22.1180 N   0  0  0  0  0  0
  -23.7988  -28.8285   23.2317 O   0  0  0  0  0  0
  -25.8641  -26.2370   20.7739 O   0  0  0  0  0  0
  -26.5527  -34.8957   22.4625 O   0  0  0  0  0  0
  -23.5711  -32.1984   23.7799 O   0  0  0  0  0  0
  -25.4489  -19.3332   22.7242 C   0  0  0  0  0  0
  -27.1491  -19.2482   20.6813 C   0  0  0  0  0  0
  -26.3880  -18.1471   22.4226 C   0  0  0  0  0  0
  -25.1612  -20.6585   22.0683 C   0  0  0  0  0  0
  -27.4313  -17.9246   21.3668 C   0  0  0  0  0  0
  -26.1651  -20.4302   20.9605 C   0  0  0  0  0  0
  -21.5423  -24.2523   23.5917 C   0  0  0  0  0  0
  -21.6152  -23.8424   24.8754 C   0  0  0  0  0  0
  -22.8291  -23.4659   25.5580 C   0  0  0  0  0  0
  -23.6274  -24.4631   25.9931 C   0  0  0  0  0  0
  -20.2451  -25.7755   23.4761 C   0  0  0  0  0  0
  -20.8026  -27.4524   21.1682 C   0  0  0  0  0  0
  -22.5517  -26.9927   20.3318 C   0  0  0  0  0  0
  -24.0754  -24.5081   21.6283 C   0  0  0  0  0  0
  -24.1819  -26.1652   21.0374 C   0  0  1  0  0  0
  -26.2009  -16.9672   23.3632 C   0  0  0  0  0  0
  -24.9129  -24.3288   26.7773 C   0  0  0  0  0  0
  -23.8882  -21.9722   22.6788 C   0  0  0  0  0  0
  -28.4941  -16.5165   21.1493 N   0  0  0  0  0  0
  -23.0277  -23.5607   22.4689 N   0  3  1  0  0  0
  -26.2000  -21.4215   20.0357 F   0  0  0  0  0  0
  -31.2826  -13.5050   19.4013 H   0  0  0  0  0  0
  -30.5472  -12.1795   20.2413 H   0  0  0  0  0  0
  -30.0080  -11.9037   17.8392 H   0  0  0  0  0  0
  -29.5209  -13.5771   17.7195 H   0  0  0  0  0  0
  -28.0467  -11.2977   19.0544 H   0  0  0  0  0  0
  -27.4324  -12.3858   17.8326 H   0  0  0  0  0  0
  -27.4518  -14.2365   19.3820 H   0  0  0  0  0  0
  -28.6749  -12.3397   21.4455 H   0  0  0  0  0  0
  -27.9354  -13.8765   21.8674 H   0  0  0  0  0  0
  -25.2691   -9.5879   22.4665 H   0  0  0  0  0  0
  -24.0134   -7.4655   22.7375 H   0  0  0  0  0  0
  -21.0766   -8.8637   19.8894 H   0  0  0  0  0  0
  -22.3397  -10.9676   19.6196 H   0  0  0  0  0  0
  -21.1873   -7.6125   23.9691 H   0  0  0  0  0  0
  -21.1490   -6.0498   25.9061 H   0  0  0  0  0  0
  -22.0597   -2.7620   23.2782 H   0  0  0  0  0  0
  -22.4165  -11.9766   22.4710 H   0  0  0  0  0  0
  -21.0931  -13.0979   22.2989 H   0  0  0  0  0  0
  -24.7026  -15.8582   20.7754 H   0  0  0  0  0  0
  -26.3378  -15.5799   20.4542 H   0  0  0  0  0  0
  -26.7535  -32.5496   23.1372 H   0  0  0  0  0  0
  -25.0641  -33.9942   25.0836 H   0  0  0  0  0  0
  -22.6828  -31.3649   21.5709 H   0  0  0  0  0  0
  -23.3830  -35.9615   23.3208 H   0  0  0  0  0  0
  -24.3659  -36.8978   22.2026 H   0  0  0  0  0  0
  -23.7254  -37.6503   23.6608 H   0  0  0  0  0  0
  -26.2289  -31.5687   20.7233 H   0  0  0  0  0  0
  -26.8401  -30.7352   22.1134 H   0  0  0  0  0  0
  -27.6369  -28.5003   21.6691 H   0  0  0  0  0  0
  -25.8891  -26.3915   18.3686 H   0  0  0  0  0  0
  -24.1577  -28.0594   18.2077 H   0  0  0  0  0  0
  -23.8659  -31.0127   19.5275 H   0  0  0  0  0  0
  -22.7034  -29.7942   19.6844 H   0  0  0  0  0  0
  -25.1276  -36.2001   25.0832 H   0  0  0  0  0  0
  -21.4510  -28.1657   24.4776 H   0  0  0  0  0  0
  -22.2093  -25.7232   22.0139 H   0  0  0  0  0  0
  -22.8461  -26.1840   23.4434 H   0  0  0  0  0  0
  -20.3649  -24.2125   21.5493 H   0  0  0  0  0  0
  -20.7324  -25.1695   20.2815 H   0  0  0  0  0  0
  -18.3240  -26.4121   20.6236 H   0  0  0  0  0  0
  -18.0220  -25.4357   21.9518 H   0  0  0  0  0  0
  -19.8908  -30.3119   24.3733 H   0  0  0  0  0  0
  -17.5969  -31.1832   24.3956 H   0  0  0  0  0  0
  -15.7689  -29.7870   23.4121 H   0  0  0  0  0  0
  -16.3052  -27.6650   22.2819 H   0  0  0  0  0  0
  -24.5853  -30.7263   25.7848 H   0  0  0  0  0  0
  -24.8994  -32.2984   26.5063 H   0  0  0  0  0  0
  -25.7903  -30.8861   27.0386 H   0  0  0  0  0  0
  -26.2950  -29.6818   24.1396 H   0  0  0  0  0  0
  -27.3673  -29.7149   25.5166 H   0  0  0  0  0  0
  -27.9038  -30.4127   24.0077 H   0  0  0  0  0  0
  -27.2836  -33.3569   26.2408 H   0  0  0  0  0  0
  -28.4031  -32.6759   25.0687 H   0  0  0  0  0  0
  -28.0766  -31.8330   26.5765 H   0  0  0  0  0  0
  -28.2544  -38.0227   24.7604 H   0  0  0  0  0  0
  -28.1205  -36.2759   24.6129 H   0  0  0  0  0  0
  -27.2358  -37.1319   25.8870 H   0  0  0  0  0  0
  -21.0505  -29.9301   22.3452 H   0  0  0  0  0  0
  -26.0148  -38.2906   24.1518 H   0  0  0  0  0  0
  -24.8441  -19.1751   23.6077 H   0  0  0  0  0  0
  -27.7281  -19.3958   19.7822 H   0  0  0  0  0  0
  -20.8311  -24.1899   25.5337 H   0  0  0  0  0  0
  -23.0725  -22.4267   25.7356 H   0  0  0  0  0  0
  -23.3206  -25.4893   25.8154 H   0  0  0  0  0  0
  -20.3247  -26.2292   24.4681 H   0  0  0  0  0  0
  -19.2729  -25.3069   23.6454 H   0  0  0  0  0  0
  -20.5084  -28.4912   21.0836 H   0  0  0  0  0  0
  -20.2184  -27.3068   20.2537 H   0  0  0  0  0  0
  -22.7143  -27.8344   19.7198 H   0  0  0  0  0  0
  -22.3176  -26.3027   19.5248 H   0  0  0  0  0  0
  -25.0038  -24.3765   22.1852 H   0  0  0  0  0  0
  -24.2285  -23.9091   20.7318 H   0  0  0  0  0  0
  -24.3423  -26.7811   21.9175 H   0  0  0  0  0  0
  -26.6500  -17.1672   24.3355 H   0  0  0  0  0  0
  -26.6364  -16.0506   22.9635 H   0  0  0  0  0  0
  -25.1405  -16.7669   23.5180 H   0  0  0  0  0  0
  -25.3305  -23.3284   26.6811 H   0  0  0  0  0  0
  -24.7125  -24.5265   27.8307 H   0  0  0  0  0  0
  -25.6546  -25.0598   26.4455 H   0  0  0  0  0  0
  -24.2700  -22.1031   23.6944 H   0  0  0  0  0  0
  -23.0225  -21.3237   22.8195 H   0  0  0  0  0  0
  -29.2868  -17.1365   21.0694 H   0  0  0  0  0  0
  -22.4930  -23.2559   21.6650 H   0  0  0  0  0  0
  1 25  1  0  0  0
  1 30  2  0  0  0
  1 89  1  0  0  0
  2  3  1  0  0  0
  2 25  1  0  0  0
  2 92  1  0  0  0
  2 93  1  0  0  0
  3  4  1  0  0  0
  3 94  1  0  0  0
  3 95  1  0  0  0
  4  5  1  0  0  0
  4 96  1  0  0  0
  4 97  1  0  0  0
  5  6  1  0  0  0
  5 26  1  0  0  0
  5 98  1  0  0  0
  6 25  1  0  0  0
  6 99  1  0  0  0
  6100  1  0  0  0
  7  8  2  0  0  0
  7 26  1  0  0  0
  7 29  1  0  0  0
  8  9  1  0  0  0
  8 22  1  0  0  0
  9 10  1  0  0  0
  9 27  2  0  0  0
 10 11  2  0  0  0
 10 15  1  0  0  0
 11 12  1  0  0  0
 11101  1  0  0  0
 12 13  2  0  0  0
 12102  1  0  0  0
 13 14  1  0  0  0
 13 31  1  0  0  0
 14 15  2  0  0  0
 14103  1  0  0  0
 15104  1  0  0  0
 16 17  2  0  0  0
 16 21  1  0  0  0
 16 31  1  0  0  0
 17 18  1  0  0  0
 17105  1  0  0  0
 18 19  2  0  0  0
 18106  1  0  0  0
 19 20  1  0  0  0
 19 24  1  0  0  0
 20 21  2  0  0  0
 20107  1  0  0  0
 21 23  1  0  0  0
 22 28  1  0  0  0
 22 32  2  0  0  0
 26 27  1  0  0  0
 28108  1  0  0  0
 28109  1  0  0  0
 29110  1  0  0  0
 29111  1  0  0  0
 33 34  1  0  0  0
 33 66  1  0  0  0
 33 70  2  0  0  0
 34 36  1  0  0  0
 34 59  1  0  0  0
 34112  1  0  0  0
 35 44  2  0  0  0
 35 45  1  0  0  0
 35 68  1  0  0  0
 36 56  1  0  0  0
 36113  1  0  0  0
 37 39  1  0  0  0
 37 47  1  0  0  0
 37 66  1  0  0  0
 37114  1  0  0  0
 38 43  2  0  0  0
 38 46  1  0  0  0
 38 47  1  0  0  0
 39 64  1  0  0  0
 39 67  2  0  0  0
 40 52  1  0  0  0
 40 53  2  0  0  0
 40 58  1  0  0  0
 41115  1  0  0  0
 41116  1  0  0  0
 41117  1  0  0  0
 41 48  1  0  0  0
 42 43  1  0  0  0
 42 66  1  0  0  0
 42118  1  0  0  0
 42119  1  0  0  0
 43 44  1  0  0  0
 44120  1  0  0  0
 45 46  2  0  0  0
 45121  1  0  0  0
 46122  1  0  0  0
 47123  1  0  0  0
 47124  1  0  0  0
 48 56  1  0  0  0
 48 65  1  0  0  0
 48125  1  0  0  0
 49 50  1  0  0  0
 49 53  1  0  0  0
 49 64  1  0  0  0
 49126  1  0  0  0
 50 51  1  0  0  0
 50127  1  0  0  0
 50128  1  0  0  0
 51 52  1  0  0  0
 51129  1  0  0  0
 51130  1  0  0  0
 52131  1  0  0  0
 52132  1  0  0  0
 53 54  1  0  0  0
 54 55  2  0  0  0
 54133  1  0  0  0
 55 57  1  0  0  0
 55134  1  0  0  0
 56 69  2  0  0  0
 57 58  2  0  0  0
 57135  1  0  0  0
 58136  1  0  0  0
 59 60  1  0  0  0
 59 61  1  0  0  0
 59 62  1  0  0  0
 60137  1  0  0  0
 60138  1  0  0  0
 60139  1  0  0  0
 61140  1  0  0  0
 61141  1  0  0  0
 61142  1  0  0  0
 62143  1  0  0  0
 62144  1  0  0  0
 62145  1  0  0  0
 63 65  1  0  0  0
 63146  1  0  0  0
 63147  1  0  0  0
 63148  1  0  0  0
 64149  1  0  0  0
 65150  1  0  0  0
 68 85  1  0  0  0
 71 73  2  0  0  0
 71 74  1  0  0  0
 71151  1  0  0  0
 72 75  2  0  0  0
 72 76  1  0  0  0
 72152  1  0  0  0
 73 75  1  0  0  0
 73 86  1  0  0  0
 74 76  2  0  0  0
 74 88  1  0  0  0
 75 89  1  0  0  0
 76 91  1  0  0  0
 77 78  2  0  0  0
 77 81  1  0  0  0
 77 90  1  0  0  0
 78 79  1  0  0  0
 78153  1  0  0  0
 79 80  2  0  0  0
 79154  1  0  0  0
 80 87  1  0  0  0
 80155  1  0  0  0
 81 82  1  0  0  0
 81156  1  0  0  0
 81157  1  0  0  0
 82 83  1  0  0  0
 82158  1  0  0  0
 82159  1  0  0  0
 83 85  1  0  0  0
 83160  1  0  0  0
 83161  1  0  0  0
 84 85  1  0  0  0
 84 90  1  0  0  0
 84162  1  0  0  0
 84163  1  0  0  0
 85164  1  0  0  0
 86165  1  0  0  0
 86166  1  0  0  0
 86167  1  0  0  0
 87168  1  0  0  0
 87169  1  0  0  0
 87170  1  0  0  0
 88171  1  0  0  0
 88172  1  0  0  0
 88 90  1  0  0  0
 89173  1  0  0  0
 90174  1  0  0  0
M  CHG  1  90   1
M  ISO  4   1 100  68 101  85 101  89 100
M  END
> <chiral flag>
0

> <version>
0

> <s_m_source_file>
/data/baiqing/PycharmProjects/Reinvent-master-3.2/result/LINK_invent/BTK/process_docking_weight1_custom_product_contain_oxygen_bond_distance_aromatic_linkinvent_7_9_3/rearranged_h_0032.sdf

> <i_m_source_file_index>
40

> <r_mmod_Potential_Energy-OPLS-2005>
12371.384765625

> <r_mmod_Stretch_Energy-OPLS-2005>
6084.8740234375

> <r_mmod_Bend_Energy-OPLS-2005>
1824.72998046875

> <r_mmod_Torsional_Energy-OPLS-2005>
547.390991210938

> <r_mmod_Improper_Torsional_Energy-OPLS-2005>
33.942985534668

> <r_mmod_Van_der_Waal_Energy-OPLS-2005>
2060.61401367188

> <r_mmod_Electrostatic_Energy-OPLS-2005>
-333.47802734375

> <r_mmod_Solvation_Energy-OPLS-2005>
-389.108917236328

> <b_mmod_Minimization_Converged-OPLS-2005>
0

> <r_mmod_RMS_Derivative-OPLS-2005>
12.6968488693237

$$$$
40
                    3D
 Structure written by MMmdl.
163172  0  0  1  0            999 V2000
  -30.7232  -14.4654   20.5935 C   0  0  0  0  0  0
  -30.4194  -12.3145   19.4160 C   0  0  0  0  0  0
  -29.4911  -12.5124   18.2013 C   0  0  0  0  0  0
  -28.0134  -12.3705   18.6162 C   0  0  0  0  0  0
  -27.6608  -13.2107   19.8735 C   0  0  2  0  0  0
  -28.7036  -12.9981   20.9932 C   0  0  0  0  0  0
  -25.2585  -13.8168   20.5690 C   0  0  0  0  0  0
  -24.1836  -13.0442   20.9170 C   0  0  0  0  0  0
  -24.6396  -11.6909   20.8730 C   0  0  0  0  0  0
  -23.9059  -10.4295   21.0402 C   0  0  0  0  0  0
  -24.3617   -9.4211   21.9177 C   0  0  0  0  0  0
  -23.6294   -8.2247   22.0752 C   0  0  0  0  0  0
  -22.4274   -8.0282   21.3547 C   0  0  0  0  0  0
  -21.9907   -9.0251   20.4646 C   0  0  0  0  0  0
  -22.7232  -10.2132   20.3049 C   0  0  0  0  0  0
  -21.6852   -6.0736   22.5278 C   0  0  0  0  0  0
  -21.4014   -6.5640   23.8211 C   0  0  0  0  0  0
  -21.3661   -5.6788   24.9172 C   0  0  0  0  0  0
  -21.6043   -4.3052   24.7220 C   0  0  0  0  0  0
  -21.8820   -3.8142   23.4343 C   0  0  0  0  0  0
  -21.9193   -4.6963   22.3402 C   0  0  0  0  0  0
  -22.7859  -13.5241   21.1840 C   0  0  0  0  0  0
  -22.1660   -4.2151   21.0976 F   0  0  0  0  0  0
  -21.5631   -3.4537   25.7734 F   0  0  0  0  0  0
  -30.0332  -13.3016   20.4369 N   0  0  0  0  0  0
  -26.3027  -12.9346   20.3368 N   0  0  0  0  0  0
  -25.9322  -11.6502   20.5765 N   0  0  0  0  0  0
  -22.0493  -12.8241   22.0398 N   0  0  0  0  0  0
  -25.4311  -15.1886   20.4131 N   0  0  0  0  0  0
  -31.8341  -14.6524   20.0894 O   0  0  0  0  0  0
  -21.6641   -6.8877   21.4241 O   0  0  0  0  0  0
  -22.3550  -14.5548   20.6687 O   0  0  0  0  0  0
  -24.6147  -31.8673   23.2089 C   0  0  0  0  0  0
  -25.9036  -32.4818   23.8388 C   0  0  1  0  0  0
  -27.2350  -27.4243   20.0994 C   0  0  0  0  0  0
  -25.5892  -33.8620   24.2316 N   0  0  0  0  0  0
  -23.4035  -30.4903   21.5495 C   0  0  2  0  0  0
  -24.8504  -28.9555   20.1133 C   0  0  0  0  0  0
  -22.7416  -29.4652   22.4984 C   0  0  0  0  0  0
  -18.0272  -28.1369   22.8500 C   0  0  0  0  0  0
  -24.1478  -36.7305   23.2622 C   0  0  0  0  0  0
  -25.9331  -30.8303   21.3632 C   0  0  0  0  0  0
  -26.0113  -29.4647   20.7086 C   0  0  0  0  0  0
  -27.2075  -28.7089   20.6940 C   0  0  0  0  0  0
  -26.0575  -26.9368   19.4882 C   0  0  0  0  0  0
  -24.8693  -27.6917   19.4984 C   0  0  0  0  0  0
  -23.6123  -29.8217   20.1641 C   0  0  0  0  0  0
  -25.4092  -36.3107   24.0340 C   0  0  1  0  0  0
  -20.5866  -28.3653   23.1318 C   0  0  2  0  0  0
  -20.6758  -26.9388   22.5423 C   0  0  0  0  0  0
  -19.5740  -26.6373   21.5219 C   0  0  0  0  0  0
  -18.1915  -26.7923   22.1616 C   0  0  0  0  0  0
  -19.1525  -28.8831   23.2906 C   0  0  0  0  0  0
  -18.9454  -30.1442   23.8902 C   0  0  0  0  0  0
  -17.6452  -30.6579   24.0566 C   0  0  0  0  0  0
  -25.9038  -34.9480   23.5131 C   0  0  0  0  0  0
  -16.5343  -29.9086   23.6327 C   0  0  0  0  0  0
  -16.7262  -28.6497   23.0347 C   0  0  0  0  0  0
  -26.4462  -31.6601   25.0718 C   0  0  0  0  0  0
  -25.3737  -31.3750   26.1488 C   0  0  0  0  0  0
  -27.0262  -30.3029   24.6097 C   0  0  0  0  0  0
  -27.6059  -32.4309   25.7451 C   0  0  0  0  0  0
  -27.5619  -37.1747   24.8418 C   0  0  0  0  0  0
  -21.4142  -29.3027   22.3731 N   0  0  0  0  0  0
  -26.4254  -37.3825   23.9476 N   0  0  0  0  0  0
  -24.6687  -31.0769   22.0992 N   0  0  0  0  0  0
  -23.4190  -28.8185   23.3018 O   0  0  0  0  0  0
  -28.4002  -26.6794   20.1127 O   0  0  0  0  0  0
  -26.5611  -34.8940   22.4699 O   0  0  0  0  0  0
  -23.5338  -32.1430   23.7477 O   0  0  0  0  0  0
  -30.7472  -18.6162   19.9753 C   0  0  0  0  0  0
  -28.5326  -19.8733   21.1396 C   0  0  0  0  0  0
  -30.2933  -19.8562   19.4600 C   0  0  0  0  0  0
  -30.1115  -17.9996   21.0755 C   0  0  0  0  0  0
  -29.1696  -20.5035   20.0443 C   0  0  0  0  0  0
  -28.9945  -18.6413   21.6518 C   0  0  0  0  0  0
  -29.2145  -24.8451   21.5359 C   0  0  0  0  0  0
  -29.2779  -23.3208   21.3626 C   0  0  0  0  0  0
  -28.6789  -24.3154   19.2721 C   0  0  0  0  0  0
  -28.2746  -25.2711   20.4140 C   0  0  2  0  0  0
  -31.0289  -20.4606   18.2744 C   0  0  0  0  0  0
  -30.6938  -16.7218   21.6954 C   0  0  0  0  0  0
  -28.5714  -21.8078   19.4765 C   0  0  0  0  0  0
  -30.0972  -15.4416   21.2749 N   0  0  0  0  0  0
  -29.2347  -23.0770   19.9017 N   0  3  2  0  0  0
  -28.3666  -18.0848   22.7151 F   0  0  0  0  0  0
  -31.4643  -12.4081   19.1143 H   0  0  0  0  0  0
  -30.3174  -11.3042   19.8145 H   0  0  0  0  0  0
  -29.7318  -11.7882   17.4218 H   0  0  0  0  0  0
  -29.6580  -13.4982   17.7643 H   0  0  0  0  0  0
  -27.8252  -11.3144   18.8106 H   0  0  0  0  0  0
  -27.3621  -12.6443   17.7854 H   0  0  0  0  0  0
  -27.7032  -14.2591   19.5764 H   0  0  0  0  0  0
  -28.6816  -11.9639   21.3407 H   0  0  0  0  0  0
  -28.4613  -13.6018   21.8682 H   0  0  0  0  0  0
  -25.2766   -9.5690   22.4749 H   0  0  0  0  0  0
  -24.0004   -7.4641   22.7469 H   0  0  0  0  0  0
  -21.0837   -8.8760   19.8955 H   0  0  0  0  0  0
  -22.3684  -10.9665   19.6158 H   0  0  0  0  0  0
  -21.2001   -7.6149   23.9717 H   0  0  0  0  0  0
  -21.1481   -6.0516   25.9074 H   0  0  0  0  0  0
  -22.0598   -2.7603   23.2837 H   0  0  0  0  0  0
  -22.4086  -11.9894   22.4784 H   0  0  0  0  0  0
  -21.1113  -13.1277   22.2594 H   0  0  0  0  0  0
  -24.6695  -15.8471   20.5359 H   0  0  0  0  0  0
  -26.2920  -15.6307   20.1169 H   0  0  0  0  0  0
  -26.7104  -32.5531   23.1151 H   0  0  0  0  0  0
  -25.0062  -33.9782   25.0474 H   0  0  0  0  0  0
  -22.6930  -31.3073   21.4094 H   0  0  0  0  0  0
  -23.3795  -35.9572   23.3155 H   0  0  0  0  0  0
  -24.3621  -36.9053   22.2067 H   0  0  0  0  0  0
  -23.7135  -37.6431   23.6717 H   0  0  0  0  0  0
  -26.0472  -31.5974   20.5961 H   0  0  0  0  0  0
  -26.8197  -30.8817   21.9836 H   0  0  0  0  0  0
  -28.1042  -29.0997   21.1549 H   0  0  0  0  0  0
  -26.0477  -25.9761   18.9940 H   0  0  0  0  0  0
  -23.9786  -27.2986   19.0270 H   0  0  0  0  0  0
  -23.7169  -30.5956   19.4025 H   0  0  0  0  0  0
  -22.7373  -29.2384   19.8713 H   0  0  0  0  0  0
  -25.1246  -36.1944   25.0826 H   0  0  0  0  0  0
  -20.9960  -28.3208   24.1436 H   0  0  0  0  0  0
  -20.5640  -26.2262   23.3613 H   0  0  0  0  0  0
  -21.6629  -26.7419   22.1215 H   0  0  0  0  0  0
  -19.6889  -25.6286   21.1238 H   0  0  0  0  0  0
  -19.6684  -27.3190   20.6757 H   0  0  0  0  0  0
  -17.4197  -26.6703   21.4003 H   0  0  0  0  0  0
  -18.0287  -26.0046   22.8988 H   0  0  0  0  0  0
  -19.7934  -30.7264   24.2253 H   0  0  0  0  0  0
  -17.5014  -31.6265   24.5160 H   0  0  0  0  0  0
  -15.5345  -30.2990   23.7644 H   0  0  0  0  0  0
  -15.8665  -28.0829   22.7046 H   0  0  0  0  0  0
  -24.5853  -30.7154   25.7845 H   0  0  0  0  0  0
  -24.9005  -32.2936   26.4979 H   0  0  0  0  0  0
  -25.8085  -30.8879   27.0223 H   0  0  0  0  0  0
  -26.2792  -29.6800   24.1160 H   0  0  0  0  0  0
  -27.4028  -29.7258   25.4550 H   0  0  0  0  0  0
  -27.8640  -30.4324   23.9240 H   0  0  0  0  0  0
  -27.2708  -33.3613   26.2048 H   0  0  0  0  0  0
  -28.3854  -32.6853   25.0256 H   0  0  0  0  0  0
  -28.0739  -31.8419   26.5349 H   0  0  0  0  0  0
  -28.2460  -38.0218   24.7765 H   0  0  0  0  0  0
  -28.1294  -36.2794   24.5840 H   0  0  0  0  0  0
  -27.2414  -37.0893   25.8815 H   0  0  0  0  0  0
  -20.9285  -29.8794   21.7002 H   0  0  0  0  0  0
  -26.0133  -38.2852   24.1680 H   0  0  0  0  0  0
  -31.6096  -18.1346   19.5350 H   0  0  0  0  0  0
  -27.6678  -20.3283   21.6001 H   0  0  0  0  0  0
  -30.2018  -25.2835   21.3871 H   0  0  0  0  0  0
  -28.8575  -25.1456   22.5207 H   0  0  0  0  0  0
  -28.4070  -22.8687   21.8394 H   0  0  0  0  0  0
  -30.1663  -22.8815   21.8180 H   0  0  0  0  0  0
  -29.4681  -24.7690   18.6713 H   0  0  0  0  0  0
  -27.8383  -24.1175   18.6055 H   0  0  0  0  0  0
  -27.2659  -25.0156   20.7443 H   0  0  0  0  0  0
  -31.9652  -19.9363   18.0789 H   0  0  0  0  0  0
  -31.2781  -21.5060   18.4532 H   0  0  0  0  0  0
  -30.4228  -20.3966   17.3709 H   0  0  0  0  0  0
  -30.5816  -16.7917   22.7778 H   0  0  0  0  0  0
  -31.7717  -16.7213   21.5270 H   0  0  0  0  0  0
  -27.5147  -21.8562   19.7434 H   0  0  0  0  0  0
  -28.5884  -21.7513   18.3878 H   0  0  0  0  0  0
  -29.1758  -15.2294   21.6269 H   0  0  0  0  0  0
  -30.1943  -23.0118   19.5968 H   0  0  0  0  0  0
  1 25  1  0  0  0
  1 30  2  0  0  0
  1 84  1  0  0  0
  2  3  1  0  0  0
  2 25  1  0  0  0
  2 87  1  0  0  0
  2 88  1  0  0  0
  3  4  1  0  0  0
  3 89  1  0  0  0
  3 90  1  0  0  0
  4  5  1  0  0  0
  4 91  1  0  0  0
  4 92  1  0  0  0
  5  6  1  0  0  0
  5 26  1  0  0  0
  5 93  1  0  0  0
  6 25  1  0  0  0
  6 94  1  0  0  0
  6 95  1  0  0  0
  7  8  2  0  0  0
  7 26  1  0  0  0
  7 29  1  0  0  0
  8  9  1  0  0  0
  8 22  1  0  0  0
  9 10  1  0  0  0
  9 27  2  0  0  0
 10 11  2  0  0  0
 10 15  1  0  0  0
 11 12  1  0  0  0
 11 96  1  0  0  0
 12 13  2  0  0  0
 12 97  1  0  0  0
 13 14  1  0  0  0
 13 31  1  0  0  0
 14 15  2  0  0  0
 14 98  1  0  0  0
 15 99  1  0  0  0
 16 17  2  0  0  0
 16 21  1  0  0  0
 16 31  1  0  0  0
 17 18  1  0  0  0
 17100  1  0  0  0
 18 19  2  0  0  0
 18101  1  0  0  0
 19 20  1  0  0  0
 19 24  1  0  0  0
 20 21  2  0  0  0
 20102  1  0  0  0
 21 23  1  0  0  0
 22 28  1  0  0  0
 22 32  2  0  0  0
 26 27  1  0  0  0
 28103  1  0  0  0
 28104  1  0  0  0
 29105  1  0  0  0
 29106  1  0  0  0
 33 34  1  0  0  0
 33 66  1  0  0  0
 33 70  2  0  0  0
 34 36  1  0  0  0
 34 59  1  0  0  0
 34107  1  0  0  0
 35 44  2  0  0  0
 35 45  1  0  0  0
 35 68  1  0  0  0
 36 56  1  0  0  0
 36108  1  0  0  0
 37 39  1  0  0  0
 37 47  1  0  0  0
 37 66  1  0  0  0
 37109  1  0  0  0
 38 43  2  0  0  0
 38 46  1  0  0  0
 38 47  1  0  0  0
 39 64  1  0  0  0
 39 67  2  0  0  0
 40 52  1  0  0  0
 40 53  2  0  0  0
 40 58  1  0  0  0
 41110  1  0  0  0
 41111  1  0  0  0
 41112  1  0  0  0
 41 48  1  0  0  0
 42 43  1  0  0  0
 42 66  1  0  0  0
 42113  1  0  0  0
 42114  1  0  0  0
 43 44  1  0  0  0
 44115  1  0  0  0
 45 46  2  0  0  0
 45116  1  0  0  0
 46117  1  0  0  0
 47118  1  0  0  0
 47119  1  0  0  0
 48 56  1  0  0  0
 48 65  1  0  0  0
 48120  1  0  0  0
 49 50  1  0  0  0
 49 53  1  0  0  0
 49 64  1  0  0  0
 49121  1  0  0  0
 50 51  1  0  0  0
 50122  1  0  0  0
 50123  1  0  0  0
 51 52  1  0  0  0
 51124  1  0  0  0
 51125  1  0  0  0
 52126  1  0  0  0
 52127  1  0  0  0
 53 54  1  0  0  0
 54 55  2  0  0  0
 54128  1  0  0  0
 55 57  1  0  0  0
 55129  1  0  0  0
 56 69  2  0  0  0
 57 58  2  0  0  0
 57130  1  0  0  0
 58131  1  0  0  0
 59 60  1  0  0  0
 59 61  1  0  0  0
 59 62  1  0  0  0
 60132  1  0  0  0
 60133  1  0  0  0
 60134  1  0  0  0
 61135  1  0  0  0
 61136  1  0  0  0
 61137  1  0  0  0
 62138  1  0  0  0
 62139  1  0  0  0
 62140  1  0  0  0
 63 65  1  0  0  0
 63141  1  0  0  0
 63142  1  0  0  0
 63143  1  0  0  0
 64144  1  0  0  0
 65145  1  0  0  0
 68 80  1  0  0  0
 71 73  2  0  0  0
 71 74  1  0  0  0
 71146  1  0  0  0
 72 75  2  0  0  0
 72 76  1  0  0  0
 72147  1  0  0  0
 73 75  1  0  0  0
 73 81  1  0  0  0
 74 76  2  0  0  0
 74 82  1  0  0  0
 75 83  1  0  0  0
 76 86  1  0  0  0
 77 78  1  0  0  0
 77 80  1  0  0  0
 77148  1  0  0  0
 77149  1  0  0  0
 78 85  1  0  0  0
 78150  1  0  0  0
 78151  1  0  0  0
 79 80  1  0  0  0
 79 85  1  0  0  0
 79152  1  0  0  0
 79153  1  0  0  0
 80154  1  0  0  0
 81155  1  0  0  0
 81156  1  0  0  0
 81157  1  0  0  0
 82 84  1  0  0  0
 82158  1  0  0  0
 82159  1  0  0  0
 83160  1  0  0  0
 83161  1  0  0  0
 83 85  1  0  0  0
 84162  1  0  0  0
 85163  1  0  0  0
M  CHG  1  85   1
M  ISO  4   1 100  68 101  80 101  84 100
M  END
> <chiral flag>
0

> <version>
0

> <s_m_source_file>
/data/baiqing/PycharmProjects/Reinvent-master-3.2/result/LINK_invent/BTK/process_docking_weight1_custom_product_contain_oxygen_bond_distance_aromatic_linkinvent_7_9_3/rearranged_h_0032.sdf

> <i_m_source_file_index>
41

> <r_mmod_Potential_Energy-OPLS-2005>
-159.2109375

> <r_mmod_Stretch_Energy-OPLS-2005>
40.6339950561523

> <r_mmod_Bend_Energy-OPLS-2005>
123.399459838867

> <r_mmod_Torsional_Energy-OPLS-2005>
256.343200683594

> <r_mmod_Improper_Torsional_Energy-OPLS-2005>
2.52852416038513

> <r_mmod_Van_der_Waal_Energy-OPLS-2005>
144.296798706055

> <r_mmod_Electrostatic_Energy-OPLS-2005>
-311.254547119141

> <r_mmod_Solvation_Energy-OPLS-2005>
-428.100646972656

> <b_mmod_Minimization_Converged-OPLS-2005>
0

> <r_mmod_RMS_Derivative-OPLS-2005>
1.24931108951569

$$$$
41
                    3D
 Structure written by MMmdl.
159167  0  0  1  0            999 V2000
  -30.7184  -14.4680   20.5827 C   0  0  0  0  0  0
  -30.4306  -12.3089   19.4267 C   0  0  0  0  0  0
  -29.5022  -12.4937   18.2096 C   0  0  0  0  0  0
  -28.0240  -12.3560   18.6213 C   0  0  0  0  0  0
  -27.6637  -13.2053   19.8703 C   0  0  2  0  0  0
  -28.7052  -12.9889   20.9924 C   0  0  0  0  0  0
  -25.2578  -13.8110   20.5603 C   0  0  0  0  0  0
  -24.1847  -13.0419   20.9169 C   0  0  0  0  0  0
  -24.6410  -11.6895   20.8757 C   0  0  0  0  0  0
  -23.9064  -10.4300   21.0429 C   0  0  0  0  0  0
  -24.3614   -9.4214   21.9208 C   0  0  0  0  0  0
  -23.6290   -8.2247   22.0759 C   0  0  0  0  0  0
  -22.4278   -8.0284   21.3550 C   0  0  0  0  0  0
  -21.9913   -9.0261   20.4656 C   0  0  0  0  0  0
  -22.7232  -10.2145   20.3082 C   0  0  0  0  0  0
  -21.6847   -6.0747   22.5268 C   0  0  0  0  0  0
  -21.4017   -6.5641   23.8205 C   0  0  0  0  0  0
  -21.3662   -5.6782   24.9161 C   0  0  0  0  0  0
  -21.6050   -4.3044   24.7205 C   0  0  0  0  0  0
  -21.8819   -3.8150   23.4314 C   0  0  0  0  0  0
  -21.9193   -4.6978   22.3383 C   0  0  0  0  0  0
  -22.7865  -13.5245   21.1783 C   0  0  0  0  0  0
  -22.1655   -4.2170   21.0958 F   0  0  0  0  0  0
  -21.5630   -3.4527   25.7714 F   0  0  0  0  0  0
  -30.0413  -13.2943   20.4450 N   0  0  0  0  0  0
  -26.3033  -12.9300   20.3316 N   0  0  0  0  0  0
  -25.9343  -11.6471   20.5770 N   0  0  0  0  0  0
  -22.0466  -12.8319   22.0362 N   0  0  0  0  0  0
  -25.4233  -15.1790   20.3853 N   0  0  0  0  0  0
  -31.8330  -14.6486   20.0856 O   0  0  0  0  0  0
  -21.6627   -6.8896   21.4238 O   0  0  0  0  0  0
  -22.3587  -14.5537   20.6564 O   0  0  0  0  0  0
  -24.6137  -31.8667   23.2088 C   0  0  0  0  0  0
  -25.9013  -32.4823   23.8393 C   0  0  1  0  0  0
  -27.2512  -27.4298   20.1071 C   0  0  0  0  0  0
  -25.5851  -33.8616   24.2339 N   0  0  0  0  0  0
  -23.4056  -30.4861   21.5482 C   0  0  2  0  0  0
  -24.8588  -28.9413   20.1281 C   0  0  0  0  0  0
  -22.7429  -29.4630   22.4990 C   0  0  0  0  0  0
  -18.0263  -28.1386   22.8507 C   0  0  0  0  0  0
  -24.1470  -36.7328   23.2648 C   0  0  0  0  0  0
  -25.9338  -30.8298   21.3609 C   0  0  0  0  0  0
  -26.0168  -29.4550   20.7286 C   0  0  0  0  0  0
  -27.2179  -28.7052   20.7179 C   0  0  0  0  0  0
  -26.0781  -26.9256   19.5091 C   0  0  0  0  0  0
  -24.8832  -27.6736   19.5202 C   0  0  0  0  0  0
  -23.6195  -29.8095   20.1680 C   0  0  0  0  0  0
  -25.4090  -36.3111   24.0348 C   0  0  1  0  0  0
  -20.5866  -28.3650   23.1333 C   0  0  2  0  0  0
  -20.6746  -26.9377   22.5428 C   0  0  0  0  0  0
  -19.5723  -26.6398   21.5219 C   0  0  0  0  0  0
  -18.1904  -26.7941   22.1635 C   0  0  0  0  0  0
  -19.1519  -28.8838   23.2921 C   0  0  0  0  0  0
  -18.9434  -30.1449   23.8924 C   0  0  0  0  0  0
  -17.6428  -30.6582   24.0573 C   0  0  0  0  0  0
  -25.9012  -34.9470   23.5154 C   0  0  0  0  0  0
  -16.5323  -29.9089   23.6320 C   0  0  0  0  0  0
  -16.7253  -28.6516   23.0338 C   0  0  0  0  0  0
  -26.4473  -31.6588   25.0697 C   0  0  0  0  0  0
  -25.3763  -31.3559   26.1439 C   0  0  0  0  0  0
  -27.0398  -30.3101   24.6002 C   0  0  0  0  0  0
  -27.6007  -32.4352   25.7472 C   0  0  0  0  0  0
  -27.5580  -37.1795   24.8462 C   0  0  0  0  0  0
  -21.4150  -29.3020   22.3751 N   0  0  0  0  0  0
  -26.4280  -37.3791   23.9423 N   0  0  0  0  0  0
  -24.6699  -31.0760   22.0986 N   0  0  0  0  0  0
  -23.4200  -28.8166   23.3018 O   0  0  0  0  0  0
  -28.4221  -26.7148   19.9733 O   0  0  0  0  0  0
  -26.5604  -34.8930   22.4728 O   0  0  0  0  0  0
  -23.5326  -32.1412   23.7470 O   0  0  0  0  0  0
  -31.6588  -18.8775   21.0701 C   0  0  0  0  0  0
  -31.5014  -17.4759   20.9750 C   0  0  0  0  0  0
  -29.3421  -19.0944   21.7587 C   0  0  0  0  0  0
  -30.5822  -19.7015   21.4689 C   0  0  0  0  0  0
  -29.1786  -17.6906   21.6682 C   0  0  0  0  0  0
  -30.2591  -16.8583   21.2697 C   0  0  0  0  0  0
  -30.7748  -21.1546   21.6540 C   0  0  0  0  0  0
  -27.8123  -17.1083   21.9910 C   0  0  0  0  0  0
  -29.0180  -24.3832   20.5635 C   0  0  0  0  0  0
  -29.8594  -23.5257   21.5471 C   0  0  0  0  0  0
  -28.8077  -25.8465   21.0453 C   0  0  0  0  0  0
  -31.8873  -21.5758   22.2547 N   0  0  0  0  0  0
  -30.0346  -15.4432   21.2092 N   0  0  0  0  0  0
  -29.8540  -22.0630   21.2661 N   0  3  0  0  0  0
  -31.4742  -12.4110   19.1255 H   0  0  0  0  0  0
  -30.3392  -11.3009   19.8347 H   0  0  0  0  0  0
  -29.7456  -11.7519   17.4470 H   0  0  0  0  0  0
  -29.6752  -13.4694   17.7526 H   0  0  0  0  0  0
  -27.8473  -11.3011   18.8353 H   0  0  0  0  0  0
  -27.3737  -12.6135   17.7845 H   0  0  0  0  0  0
  -27.7067  -14.2525   19.5694 H   0  0  0  0  0  0
  -28.6824  -11.9517   21.3284 H   0  0  0  0  0  0
  -28.4577  -13.5825   21.8725 H   0  0  0  0  0  0
  -25.2764   -9.5672   22.4791 H   0  0  0  0  0  0
  -23.9993   -7.4635   22.7476 H   0  0  0  0  0  0
  -21.0840   -8.8775   19.8969 H   0  0  0  0  0  0
  -22.3682  -10.9690   19.6192 H   0  0  0  0  0  0
  -21.2006   -7.6148   23.9705 H   0  0  0  0  0  0
  -21.1484   -6.0517   25.9063 H   0  0  0  0  0  0
  -22.0602   -2.7616   23.2789 H   0  0  0  0  0  0
  -22.4016  -12.0013   22.4865 H   0  0  0  0  0  0
  -21.1084  -13.1407   22.2472 H   0  0  0  0  0  0
  -24.6384  -15.8190   20.4520 H   0  0  0  0  0  0
  -26.2396  -15.5923   19.9567 H   0  0  0  0  0  0
  -26.7089  -32.5561   23.1164 H   0  0  0  0  0  0
  -24.9959  -33.9757   25.0452 H   0  0  0  0  0  0
  -22.6943  -31.3016   21.4047 H   0  0  0  0  0  0
  -23.3723  -35.9660   23.3281 H   0  0  0  0  0  0
  -24.3577  -36.8971   22.2064 H   0  0  0  0  0  0
  -23.7221  -37.6520   23.6689 H   0  0  0  0  0  0
  -26.0352  -31.5762   20.5718 H   0  0  0  0  0  0
  -26.8277  -30.9050   21.9668 H   0  0  0  0  0  0
  -28.1213  -29.1117   21.1535 H   0  0  0  0  0  0
  -26.0989  -25.9613   19.0202 H   0  0  0  0  0  0
  -23.9931  -27.2745   19.0532 H   0  0  0  0  0  0
  -23.7312  -30.5789   19.4042 H   0  0  0  0  0  0
  -22.7456  -29.2264   19.8721 H   0  0  0  0  0  0
  -25.1254  -36.1964   25.0837 H   0  0  0  0  0  0
  -20.9970  -28.3202   24.1446 H   0  0  0  0  0  0
  -20.5642  -26.2234   23.3608 H   0  0  0  0  0  0
  -21.6613  -26.7403   22.1212 H   0  0  0  0  0  0
  -19.6854  -25.6323   21.1217 H   0  0  0  0  0  0
  -19.6670  -27.3236   20.6774 H   0  0  0  0  0  0
  -17.4176  -26.6703   21.4029 H   0  0  0  0  0  0
  -18.0283  -26.0070   22.9015 H   0  0  0  0  0  0
  -19.7894  -30.7270   24.2310 H   0  0  0  0  0  0
  -17.4967  -31.6259   24.5177 H   0  0  0  0  0  0
  -15.5328  -30.2985   23.7626 H   0  0  0  0  0  0
  -15.8662  -28.0848   22.7018 H   0  0  0  0  0  0
  -24.6050  -30.6766   25.7794 H   0  0  0  0  0  0
  -24.8804  -32.2633   26.4890 H   0  0  0  0  0  0
  -25.8199  -30.8835   27.0205 H   0  0  0  0  0  0
  -26.2968  -29.6782   24.1115 H   0  0  0  0  0  0
  -27.4369  -29.7378   25.4392 H   0  0  0  0  0  0
  -27.8668  -30.4556   23.9048 H   0  0  0  0  0  0
  -27.2538  -33.3480   26.2318 H   0  0  0  0  0  0
  -28.3674  -32.7202   25.0251 H   0  0  0  0  0  0
  -28.0855  -31.8375   26.5197 H   0  0  0  0  0  0
  -28.2578  -38.0114   24.7543 H   0  0  0  0  0  0
  -28.1103  -36.2648   24.6235 H   0  0  0  0  0  0
  -27.2320  -37.1384   25.8872 H   0  0  0  0  0  0
  -20.9316  -29.8755   21.6984 H   0  0  0  0  0  0
  -26.0165  -38.2863   24.1448 H   0  0  0  0  0  0
  -32.6245  -19.3107   20.8491 H   0  0  0  0  0  0
  -32.3646  -16.8952   20.6883 H   0  0  0  0  0  0
  -28.5122  -19.7061   22.0850 H   0  0  0  0  0  0
  -27.2995  -17.7040   22.7456 H   0  0  0  0  0  0
  -27.8556  -16.0870   22.3682 H   0  0  0  0  0  0
  -27.2029  -17.1169   21.0893 H   0  0  0  0  0  0
  -28.0505  -23.9210   20.3736 H   0  0  0  0  0  0
  -29.5363  -24.4013   19.6035 H   0  0  0  0  0  0
  -29.5086  -23.6739   22.5697 H   0  0  0  0  0  0
  -30.8859  -23.8935   21.5272 H   0  0  0  0  0  0
  -29.7506  -26.2306   21.4351 H   0  0  0  0  0  0
  -28.0919  -25.8745   21.8694 H   0  0  0  0  0  0
  -32.5364  -20.8873   22.6036 H   0  0  0  0  0  0
  -32.0808  -22.5451   22.4406 H   0  0  0  0  0  0
  -29.1368  -15.1439   21.5507 H   0  0  0  0  0  0
  -29.0148  -21.6791   20.8477 H   0  0  0  0  0  0
  1 25  1  0  0  0
  1 30  2  0  0  0
  1 83  1  0  0  0
  2  3  1  0  0  0
  2 25  1  0  0  0
  2 85  1  0  0  0
  2 86  1  0  0  0
  3  4  1  0  0  0
  3 87  1  0  0  0
  3 88  1  0  0  0
  4  5  1  0  0  0
  4 89  1  0  0  0
  4 90  1  0  0  0
  5  6  1  0  0  0
  5 26  1  0  0  0
  5 91  1  0  0  0
  6 25  1  0  0  0
  6 92  1  0  0  0
  6 93  1  0  0  0
  7  8  2  0  0  0
  7 26  1  0  0  0
  7 29  1  0  0  0
  8  9  1  0  0  0
  8 22  1  0  0  0
  9 10  1  0  0  0
  9 27  2  0  0  0
 10 11  2  0  0  0
 10 15  1  0  0  0
 11 12  1  0  0  0
 11 94  1  0  0  0
 12 13  2  0  0  0
 12 95  1  0  0  0
 13 14  1  0  0  0
 13 31  1  0  0  0
 14 15  2  0  0  0
 14 96  1  0  0  0
 15 97  1  0  0  0
 16 17  2  0  0  0
 16 21  1  0  0  0
 16 31  1  0  0  0
 17 18  1  0  0  0
 17 98  1  0  0  0
 18 19  2  0  0  0
 18 99  1  0  0  0
 19 20  1  0  0  0
 19 24  1  0  0  0
 20 21  2  0  0  0
 20100  1  0  0  0
 21 23  1  0  0  0
 22 28  1  0  0  0
 22 32  2  0  0  0
 26 27  1  0  0  0
 28101  1  0  0  0
 28102  1  0  0  0
 29103  1  0  0  0
 29104  1  0  0  0
 33 34  1  0  0  0
 33 66  1  0  0  0
 33 70  2  0  0  0
 34 36  1  0  0  0
 34 59  1  0  0  0
 34105  1  0  0  0
 35 44  2  0  0  0
 35 45  1  0  0  0
 35 68  1  0  0  0
 36 56  1  0  0  0
 36106  1  0  0  0
 37 39  1  0  0  0
 37 47  1  0  0  0
 37 66  1  0  0  0
 37107  1  0  0  0
 38 43  2  0  0  0
 38 46  1  0  0  0
 38 47  1  0  0  0
 39 64  1  0  0  0
 39 67  2  0  0  0
 40 52  1  0  0  0
 40 53  2  0  0  0
 40 58  1  0  0  0
 41108  1  0  0  0
 41109  1  0  0  0
 41110  1  0  0  0
 41 48  1  0  0  0
 42 43  1  0  0  0
 42 66  1  0  0  0
 42111  1  0  0  0
 42112  1  0  0  0
 43 44  1  0  0  0
 44113  1  0  0  0
 45 46  2  0  0  0
 45114  1  0  0  0
 46115  1  0  0  0
 47116  1  0  0  0
 47117  1  0  0  0
 48 56  1  0  0  0
 48 65  1  0  0  0
 48118  1  0  0  0
 49 50  1  0  0  0
 49 53  1  0  0  0
 49 64  1  0  0  0
 49119  1  0  0  0
 50 51  1  0  0  0
 50120  1  0  0  0
 50121  1  0  0  0
 51 52  1  0  0  0
 51122  1  0  0  0
 51123  1  0  0  0
 52124  1  0  0  0
 52125  1  0  0  0
 53 54  1  0  0  0
 54 55  2  0  0  0
 54126  1  0  0  0
 55 57  1  0  0  0
 55127  1  0  0  0
 56 69  2  0  0  0
 57 58  2  0  0  0
 57128  1  0  0  0
 58129  1  0  0  0
 59 60  1  0  0  0
 59 61  1  0  0  0
 59 62  1  0  0  0
 60130  1  0  0  0
 60131  1  0  0  0
 60132  1  0  0  0
 61133  1  0  0  0
 61134  1  0  0  0
 61135  1  0  0  0
 62136  1  0  0  0
 62137  1  0  0  0
 62138  1  0  0  0
 63 65  1  0  0  0
 63139  1  0  0  0
 63140  1  0  0  0
 63141  1  0  0  0
 64142  1  0  0  0
 65143  1  0  0  0
 68 81  1  0  0  0
 71 72  2  0  0  0
 71 74  1  0  0  0
 71144  1  0  0  0
 72 76  1  0  0  0
 72145  1  0  0  0
 73 74  2  0  0  0
 73 75  1  0  0  0
 73146  1  0  0  0
 74 77  1  0  0  0
 75 76  2  0  0  0
 75 78  1  0  0  0
 76 83  1  0  0  0
 77 82  1  0  0  0
 77 84  2  0  0  0
 78147  1  0  0  0
 78148  1  0  0  0
 78149  1  0  0  0
 79 80  1  0  0  0
 79 81  1  0  0  0
 79150  1  0  0  0
 79151  1  0  0  0
 80 84  1  0  0  0
 80152  1  0  0  0
 80153  1  0  0  0
 81154  1  0  0  0
 81155  1  0  0  0
 82156  1  0  0  0
 82157  1  0  0  0
 83158  1  0  0  0
 84159  1  0  0  0
M  CHG  1  84   1
M  ISO  4   1 100  68 101  81 101  83 100
M  END
> <chiral flag>
0

> <version>
0

> <s_m_source_file>
/data/baiqing/PycharmProjects/Reinvent-master-3.2/result/LINK_invent/BTK/process_docking_weight1_custom_product_contain_oxygen_bond_distance_aromatic_linkinvent_7_9_3/rearranged_h_0032.sdf

> <i_m_source_file_index>
42

> <r_mmod_Potential_Energy-OPLS-2005>
-261.238616943359

> <r_mmod_Stretch_Energy-OPLS-2005>
39.3020820617676

> <r_mmod_Bend_Energy-OPLS-2005>
102.757469177246

> <r_mmod_Torsional_Energy-OPLS-2005>
235.880722045898

> <r_mmod_Improper_Torsional_Energy-OPLS-2005>
4.35535001754761

> <r_mmod_Van_der_Waal_Energy-OPLS-2005>
154.036499023438

> <r_mmod_Electrostatic_Energy-OPLS-2005>
-402.584808349609

> <r_mmod_Solvation_Energy-OPLS-2005>
-406.470428466797

> <b_mmod_Minimization_Converged-OPLS-2005>
0

> <r_mmod_RMS_Derivative-OPLS-2005>
2.74016690254211

$$$$
42
                    3D
 Structure written by MMmdl.
169178  0  0  1  0            999 V2000
  -30.7920  -14.3978   20.4326 C   0  0  0  0  0  0
  -30.3938  -12.2183   19.4282 C   0  0  0  0  0  0
  -29.4939  -12.4405   18.2032 C   0  0  0  0  0  0
  -28.0132  -12.3566   18.6231 C   0  0  0  0  0  0
  -27.6587  -13.2252   19.8631 C   0  0  2  0  0  0
  -28.7118  -13.0606   20.9876 C   0  0  0  0  0  0
  -25.2555  -13.8224   20.5786 C   0  0  0  0  0  0
  -24.1811  -13.0508   20.9248 C   0  0  0  0  0  0
  -24.6317  -11.6938   20.8731 C   0  0  0  0  0  0
  -23.9006  -10.4292   21.0371 C   0  0  0  0  0  0
  -24.3549   -9.4190   21.9132 C   0  0  0  0  0  0
  -23.6264   -8.2210   22.0668 C   0  0  0  0  0  0
  -22.4255   -8.0203   21.3499 C   0  0  0  0  0  0
  -21.9896   -9.0183   20.4613 C   0  0  0  0  0  0
  -22.7192  -10.2068   20.3025 C   0  0  0  0  0  0
  -21.6825   -6.0651   22.5247 C   0  0  0  0  0  0
  -21.3995   -6.5558   23.8173 C   0  0  0  0  0  0
  -21.3711   -5.6721   24.9157 C   0  0  0  0  0  0
  -21.6096   -4.2985   24.7230 C   0  0  0  0  0  0
  -21.8829   -3.8066   23.4350 C   0  0  0  0  0  0
  -21.9205   -4.6882   22.3390 C   0  0  0  0  0  0
  -22.7800  -13.5229   21.2001 C   0  0  0  0  0  0
  -22.1644   -4.2038   21.0964 F   0  0  0  0  0  0
  -21.5723   -3.4478   25.7751 F   0  0  0  0  0  0
  -30.0409  -13.2712   20.3904 N   0  0  0  0  0  0
  -26.3001  -12.9435   20.3377 N   0  0  0  0  0  0
  -25.9255  -11.6561   20.5722 N   0  0  0  0  0  0
  -22.0487  -12.8136   22.0511 N   0  0  0  0  0  0
  -25.4477  -15.1956   20.4223 N   0  0  0  0  0  0
  -31.9900  -14.4072   20.1564 O   0  0  0  0  0  0
  -21.6651   -6.8781   21.4193 O   0  0  0  0  0  0
  -22.3449  -14.5568   20.6864 O   0  0  0  0  0  0
  -24.6138  -31.8719   23.2076 C   0  0  0  0  0  0
  -25.9022  -32.4859   23.8389 C   0  0  1  0  0  0
  -27.2366  -27.4246   20.1206 C   0  0  0  0  0  0
  -25.5901  -33.8649   24.2326 N   0  0  0  0  0  0
  -23.3998  -30.4955   21.5447 C   0  0  2  0  0  0
  -24.8430  -28.9297   20.1413 C   0  0  0  0  0  0
  -22.7393  -29.4723   22.4963 C   0  0  0  0  0  0
  -18.0309  -28.1395   22.8536 C   0  0  0  0  0  0
  -24.1433  -36.7297   23.2636 C   0  0  0  0  0  0
  -25.9280  -30.8187   21.3689 C   0  0  0  0  0  0
  -26.0016  -29.4460   20.7364 C   0  0  0  0  0  0
  -27.1991  -28.6966   20.7325 C   0  0  0  0  0  0
  -26.0644  -26.9126   19.5247 C   0  0  0  0  0  0
  -24.8640  -27.6530   19.5482 C   0  0  0  0  0  0
  -23.6138  -29.8171   20.1656 C   0  0  0  0  0  0
  -25.4074  -36.3138   24.0349 C   0  0  1  0  0  0
  -20.5904  -28.3671   23.1344 C   0  0  2  0  0  0
  -20.6782  -26.9412   22.5448 C   0  0  0  0  0  0
  -19.5754  -26.6396   21.5243 C   0  0  0  0  0  0
  -18.1928  -26.7956   22.1639 C   0  0  0  0  0  0
  -19.1562  -28.8845   23.2948 C   0  0  0  0  0  0
  -18.9499  -30.1460   23.8952 C   0  0  0  0  0  0
  -17.6500  -30.6617   24.0590 C   0  0  0  0  0  0
  -25.9027  -34.9507   23.5128 C   0  0  0  0  0  0
  -16.5384  -29.9132   23.6346 C   0  0  0  0  0  0
  -16.7296  -28.6536   23.0380 C   0  0  0  0  0  0
  -26.4449  -31.6675   25.0737 C   0  0  0  0  0  0
  -25.3760  -31.3811   26.1533 C   0  0  0  0  0  0
  -27.0284  -30.3127   24.6152 C   0  0  0  0  0  0
  -27.6040  -32.4376   25.7540 C   0  0  0  0  0  0
  -27.5565  -37.1830   24.8472 C   0  0  0  0  0  0
  -21.4122  -29.3058   22.3714 N   0  0  0  0  0  0
  -26.4254  -37.3843   23.9434 N   0  0  0  0  0  0
  -24.6653  -31.0822   22.0963 N   0  0  0  0  0  0
  -23.4161  -28.8303   23.3036 O   0  0  0  0  0  0
  -28.4247  -26.7308   20.0333 O   0  0  0  0  0  0
  -26.5601  -34.8983   22.4699 O   0  0  0  0  0  0
  -23.5344  -32.1451   23.7514 O   0  0  0  0  0  0
  -28.8968  -19.7622   21.5253 C   0  0  0  0  0  0
  -28.9155  -20.6958   20.4646 C   0  0  0  0  0  0
  -29.4018  -20.2704   19.1963 C   0  0  0  0  0  0
  -30.0637  -19.0201   19.0603 C   0  0  0  0  0  0
  -30.0896  -18.1175   20.1640 C   0  0  0  0  0  0
  -29.4517  -18.4829   21.3667 C   0  0  0  0  0  0
  -29.9103  -24.4204   22.6027 C   0  0  0  0  0  0
  -29.5182  -25.7362   21.9036 C   0  0  0  0  0  0
  -30.4411  -23.3799   21.5886 C   0  0  0  0  0  0
  -29.0826  -24.4085   19.7849 C   0  0  0  0  0  0
  -28.5275  -25.4903   20.7480 C   0  0  2  0  0  0
  -29.2011  -21.1292   17.9504 C   0  0  0  0  0  0
  -30.7140  -18.6889   17.7103 C   0  0  0  0  0  0
  -30.8748  -16.8080   20.1565 C   0  0  0  0  0  0
  -28.4136  -22.1329   20.7024 C   0  0  0  0  0  0
  -30.1411  -15.5691   20.4691 N   0  0  0  0  0  0
  -29.4965  -23.1427   20.4637 N   0  3  2  0  0  0
  -29.4133  -17.6166   22.4066 F   0  0  0  0  0  0
  -31.4483  -12.2269   19.1411 H   0  0  0  0  0  0
  -30.2169  -11.2315   19.8554 H   0  0  0  0  0  0
  -29.7056  -11.6782   17.4500 H   0  0  0  0  0  0
  -29.7219  -13.4084   17.7600 H   0  0  0  0  0  0
  -27.8212  -11.3101   18.8587 H   0  0  0  0  0  0
  -27.3612  -12.6041   17.7836 H   0  0  0  0  0  0
  -27.6919  -14.2659   19.5346 H   0  0  0  0  0  0
  -28.6446  -12.0646   21.4284 H   0  0  0  0  0  0
  -28.5328  -13.7680   21.7997 H   0  0  0  0  0  0
  -25.2667   -9.5670   22.4738 H   0  0  0  0  0  0
  -23.9991   -7.4584   22.7319 H   0  0  0  0  0  0
  -21.0867   -8.8685   19.8887 H   0  0  0  0  0  0
  -22.3634  -10.9599   19.6135 H   0  0  0  0  0  0
  -21.1873   -7.6038   23.9650 H   0  0  0  0  0  0
  -21.1604   -6.0443   25.9073 H   0  0  0  0  0  0
  -22.0586   -2.7512   23.2888 H   0  0  0  0  0  0
  -22.4057  -11.9707   22.4800 H   0  0  0  0  0  0
  -21.1087  -13.1044   22.2814 H   0  0  0  0  0  0
  -24.7262  -15.8951   20.5652 H   0  0  0  0  0  0
  -26.3313  -15.6005   20.1363 H   0  0  0  0  0  0
  -26.7094  -32.5552   23.1147 H   0  0  0  0  0  0
  -25.0118  -33.9831   25.0520 H   0  0  0  0  0  0
  -22.6886  -31.3133   21.3998 H   0  0  0  0  0  0
  -23.3732  -35.9602   23.3354 H   0  0  0  0  0  0
  -24.3507  -36.8847   22.2047 H   0  0  0  0  0  0
  -23.7175  -37.6504   23.6603 H   0  0  0  0  0  0
  -26.0536  -31.5717   20.5897 H   0  0  0  0  0  0
  -26.8085  -30.8764   21.9929 H   0  0  0  0  0  0
  -28.0920  -29.0878   21.1984 H   0  0  0  0  0  0
  -26.0861  -25.9527   19.0264 H   0  0  0  0  0  0
  -23.9692  -27.2391   19.1012 H   0  0  0  0  0  0
  -23.7551  -30.5829   19.4033 H   0  0  0  0  0  0
  -22.7299  -29.2621   19.8496 H   0  0  0  0  0  0
  -25.1277  -36.1992   25.0859 H   0  0  0  0  0  0
  -21.0048  -28.3234   24.1441 H   0  0  0  0  0  0
  -20.5678  -26.2293   23.3643 H   0  0  0  0  0  0
  -21.6657  -26.7432   22.1261 H   0  0  0  0  0  0
  -19.6895  -25.6308   21.1283 H   0  0  0  0  0  0
  -19.6699  -27.3207   20.6781 H   0  0  0  0  0  0
  -17.4215  -26.6764   21.4015 H   0  0  0  0  0  0
  -18.0272  -26.0093   22.9025 H   0  0  0  0  0  0
  -19.7980  -30.7272   24.2298 H   0  0  0  0  0  0
  -17.5082  -31.6316   24.5171 H   0  0  0  0  0  0
  -15.5399  -30.3061   23.7658 H   0  0  0  0  0  0
  -15.8684  -28.0879   22.7055 H   0  0  0  0  0  0
  -24.5927  -30.7113   25.7929 H   0  0  0  0  0  0
  -24.8962  -32.2975   26.4988 H   0  0  0  0  0  0
  -25.8210  -30.9040   27.0282 H   0  0  0  0  0  0
  -26.2828  -29.6953   24.1106 H   0  0  0  0  0  0
  -27.3897  -29.7331   25.4655 H   0  0  0  0  0  0
  -27.8753  -30.4435   23.9414 H   0  0  0  0  0  0
  -27.2665  -33.3664   26.2156 H   0  0  0  0  0  0
  -28.3901  -32.6951   25.0425 H   0  0  0  0  0  0
  -28.0629  -31.8457   26.5469 H   0  0  0  0  0  0
  -28.2647  -38.0072   24.7564 H   0  0  0  0  0  0
  -28.1021  -36.2654   24.6258 H   0  0  0  0  0  0
  -27.2322  -37.1429   25.8879 H   0  0  0  0  0  0
  -20.9190  -29.8826   21.7026 H   0  0  0  0  0  0
  -26.0153  -38.2917   24.1471 H   0  0  0  0  0  0
  -28.4660  -19.9979   22.4899 H   0  0  0  0  0  0
  -29.0656  -24.0106   23.1585 H   0  0  0  0  0  0
  -30.6786  -24.6295   23.3482 H   0  0  0  0  0  0
  -30.4182  -26.2186   21.5135 H   0  0  0  0  0  0
  -29.0866  -26.4325   22.6273 H   0  0  0  0  0  0
  -30.7078  -22.4357   22.0673 H   0  0  0  0  0  0
  -31.3762  -23.7506   21.1544 H   0  0  0  0  0  0
  -29.9848  -24.7986   19.3139 H   0  0  0  0  0  0
  -28.3847  -24.2051   18.9713 H   0  0  0  0  0  0
  -27.5630  -25.1705   21.1500 H   0  0  0  0  0  0
  -30.1309  -21.6048   17.6528 H   0  0  0  0  0  0
  -28.4460  -21.9008   18.0584 H   0  0  0  0  0  0
  -28.8663  -20.5005   17.1227 H   0  0  0  0  0  0
  -30.0170  -18.1347   17.0742 H   0  0  0  0  0  0
  -31.6458  -18.1317   17.7887 H   0  0  0  0  0  0
  -31.0051  -19.5954   17.1820 H   0  0  0  0  0  0
  -31.6418  -16.9334   20.9228 H   0  0  0  0  0  0
  -31.4396  -16.6749   19.2348 H   0  0  0  0  0  0
  -27.9612  -22.2550   21.6884 H   0  0  0  0  0  0
  -27.5838  -22.2962   20.0205 H   0  0  0  0  0  0
  -29.1423  -15.5963   20.5967 H   0  0  0  0  0  0
  -30.0779  -22.6961   19.7716 H   0  0  0  0  0  0
  1 25  1  0  0  0
  1 30  2  0  0  0
  1 86  1  0  0  0
  2  3  1  0  0  0
  2 25  1  0  0  0
  2 89  1  0  0  0
  2 90  1  0  0  0
  3  4  1  0  0  0
  3 91  1  0  0  0
  3 92  1  0  0  0
  4  5  1  0  0  0
  4 93  1  0  0  0
  4 94  1  0  0  0
  5  6  1  0  0  0
  5 26  1  0  0  0
  5 95  1  0  0  0
  6 25  1  0  0  0
  6 96  1  0  0  0
  6 97  1  0  0  0
  7  8  2  0  0  0
  7 26  1  0  0  0
  7 29  1  0  0  0
  8  9  1  0  0  0
  8 22  1  0  0  0
  9 10  1  0  0  0
  9 27  2  0  0  0
 10 11  2  0  0  0
 10 15  1  0  0  0
 11 12  1  0  0  0
 11 98  1  0  0  0
 12 13  2  0  0  0
 12 99  1  0  0  0
 13 14  1  0  0  0
 13 31  1  0  0  0
 14 15  2  0  0  0
 14100  1  0  0  0
 15101  1  0  0  0
 16 17  2  0  0  0
 16 21  1  0  0  0
 16 31  1  0  0  0
 17 18  1  0  0  0
 17102  1  0  0  0
 18 19  2  0  0  0
 18103  1  0  0  0
 19 20  1  0  0  0
 19 24  1  0  0  0
 20 21  2  0  0  0
 20104  1  0  0  0
 21 23  1  0  0  0
 22 28  1  0  0  0
 22 32  2  0  0  0
 26 27  1  0  0  0
 28105  1  0  0  0
 28106  1  0  0  0
 29107  1  0  0  0
 29108  1  0  0  0
 33 34  1  0  0  0
 33 66  1  0  0  0
 33 70  2  0  0  0
 34 36  1  0  0  0
 34 59  1  0  0  0
 34109  1  0  0  0
 35 44  2  0  0  0
 35 45  1  0  0  0
 35 68  1  0  0  0
 36 56  1  0  0  0
 36110  1  0  0  0
 37 39  1  0  0  0
 37 47  1  0  0  0
 37 66  1  0  0  0
 37111  1  0  0  0
 38 43  2  0  0  0
 38 46  1  0  0  0
 38 47  1  0  0  0
 39 64  1  0  0  0
 39 67  2  0  0  0
 40 52  1  0  0  0
 40 53  2  0  0  0
 40 58  1  0  0  0
 41112  1  0  0  0
 41113  1  0  0  0
 41114  1  0  0  0
 41 48  1  0  0  0
 42 43  1  0  0  0
 42 66  1  0  0  0
 42115  1  0  0  0
 42116  1  0  0  0
 43 44  1  0  0  0
 44117  1  0  0  0
 45 46  2  0  0  0
 45118  1  0  0  0
 46119  1  0  0  0
 47120  1  0  0  0
 47121  1  0  0  0
 48 56  1  0  0  0
 48 65  1  0  0  0
 48122  1  0  0  0
 49 50  1  0  0  0
 49 53  1  0  0  0
 49 64  1  0  0  0
 49123  1  0  0  0
 50 51  1  0  0  0
 50124  1  0  0  0
 50125  1  0  0  0
 51 52  1  0  0  0
 51126  1  0  0  0
 51127  1  0  0  0
 52128  1  0  0  0
 52129  1  0  0  0
 53 54  1  0  0  0
 54 55  2  0  0  0
 54130  1  0  0  0
 55 57  1  0  0  0
 55131  1  0  0  0
 56 69  2  0  0  0
 57 58  2  0  0  0
 57132  1  0  0  0
 58133  1  0  0  0
 59 60  1  0  0  0
 59 61  1  0  0  0
 59 62  1  0  0  0
 60134  1  0  0  0
 60135  1  0  0  0
 60136  1  0  0  0
 61137  1  0  0  0
 61138  1  0  0  0
 61139  1  0  0  0
 62140  1  0  0  0
 62141  1  0  0  0
 62142  1  0  0  0
 63 65  1  0  0  0
 63143  1  0  0  0
 63144  1  0  0  0
 63145  1  0  0  0
 64146  1  0  0  0
 65147  1  0  0  0
 68 81  1  0  0  0
 71 72  2  0  0  0
 71 76  1  0  0  0
 71148  1  0  0  0
 72 73  1  0  0  0
 72 85  1  0  0  0
 73 74  2  0  0  0
 73 82  1  0  0  0
 74 75  1  0  0  0
 74 83  1  0  0  0
 75 76  2  0  0  0
 75 84  1  0  0  0
 76 88  1  0  0  0
 77 78  1  0  0  0
 77 79  1  0  0  0
 77149  1  0  0  0
 77150  1  0  0  0
 78 81  1  0  0  0
 78151  1  0  0  0
 78152  1  0  0  0
 79 87  1  0  0  0
 79153  1  0  0  0
 79154  1  0  0  0
 80 81  1  0  0  0
 80 87  1  0  0  0
 80155  1  0  0  0
 80156  1  0  0  0
 81157  1  0  0  0
 82158  1  0  0  0
 82159  1  0  0  0
 82160  1  0  0  0
 83161  1  0  0  0
 83162  1  0  0  0
 83163  1  0  0  0
 84 86  1  0  0  0
 84164  1  0  0  0
 84165  1  0  0  0
 85166  1  0  0  0
 85167  1  0  0  0
 85 87  1  0  0  0
 86168  1  0  0  0
 87169  1  0  0  0
M  CHG  1  87   1
M  ISO  4   1 100  68 101  81 101  86 100
M  END
> <chiral flag>
0

> <version>
0

> <s_m_source_file>
/data/baiqing/PycharmProjects/Reinvent-master-3.2/result/LINK_invent/BTK/process_docking_weight1_custom_product_contain_oxygen_bond_distance_aromatic_linkinvent_7_9_3/rearranged_h_0032.sdf

> <i_m_source_file_index>
43

> <r_mmod_Potential_Energy-OPLS-2005>
-72.1864929199219

> <r_mmod_Stretch_Energy-OPLS-2005>
42.2263488769531

> <r_mmod_Bend_Energy-OPLS-2005>
116.159820556641

> <r_mmod_Torsional_Energy-OPLS-2005>
275.90380859375

> <r_mmod_Improper_Torsional_Energy-OPLS-2005>
8.15149021148682

> <r_mmod_Van_der_Waal_Energy-OPLS-2005>
163.779647827148

> <r_mmod_Electrostatic_Energy-OPLS-2005>
-293.074462890625

> <r_mmod_Solvation_Energy-OPLS-2005>
-415.791900634766

> <b_mmod_Minimization_Converged-OPLS-2005>
0

> <r_mmod_RMS_Derivative-OPLS-2005>
8.77432250976562

$$$$
43
                    3D
 Structure written by MMmdl.
159167  0  0  1  0            999 V2000
  -30.4701  -15.2007   20.4249 C   0  0  0  0  0  0
  -30.4450  -12.7744   19.5171 C   0  0  0  0  0  0
  -29.5319  -12.5772   18.2798 C   0  0  0  0  0  0
  -28.0794  -12.3024   18.7078 C   0  0  0  0  0  0
  -27.6202  -13.2575   19.8369 C   0  0  2  0  0  0
  -28.6643  -13.3535   20.9736 C   0  0  0  0  0  0
  -25.2332  -13.8167   20.5622 C   0  0  0  0  0  0
  -24.1715  -13.0373   20.9232 C   0  0  0  0  0  0
  -24.6387  -11.6889   20.8768 C   0  0  0  0  0  0
  -23.9078  -10.4259   21.0408 C   0  0  0  0  0  0
  -24.3626   -9.4182   21.9186 C   0  0  0  0  0  0
  -23.6293   -8.2224   22.0753 C   0  0  0  0  0  0
  -22.4274   -8.0267   21.3542 C   0  0  0  0  0  0
  -21.9919   -9.0238   20.4634 C   0  0  0  0  0  0
  -22.7256  -10.2110   20.3045 C   0  0  0  0  0  0
  -21.6851   -6.0728   22.5282 C   0  0  0  0  0  0
  -21.4009   -6.5631   23.8213 C   0  0  0  0  0  0
  -21.3657   -5.6787   24.9177 C   0  0  0  0  0  0
  -21.6047   -4.3050   24.7230 C   0  0  0  0  0  0
  -21.8822   -3.8140   23.4350 C   0  0  0  0  0  0
  -21.9194   -4.6956   22.3405 C   0  0  0  0  0  0
  -22.7737  -13.5142   21.1893 C   0  0  0  0  0  0
  -22.1666   -4.2143   21.0982 F   0  0  0  0  0  0
  -21.5629   -3.4530   25.7739 F   0  0  0  0  0  0
  -29.8927  -13.8981   20.3614 N   0  0  0  0  0  0
  -26.2826  -12.9447   20.3246 N   0  0  0  0  0  0
  -25.9330  -11.6570   20.5777 N   0  0  0  0  0  0
  -22.0404  -12.8127   22.0456 N   0  0  0  0  0  0
  -25.3740  -15.1875   20.3849 N   0  0  0  0  0  0
  -31.6749  -15.1969   20.1295 O   0  0  0  0  0  0
  -21.6635   -6.8868   21.4242 O   0  0  0  0  0  0
  -22.3422  -14.5460   20.6761 O   0  0  0  0  0  0
  -24.6582  -31.8300   23.1765 C   0  0  0  0  0  0
  -25.9292  -32.4616   23.8202 C   0  0  1  0  0  0
  -27.2126  -26.9814   20.1750 C   0  0  0  0  0  0
  -25.5988  -33.8426   24.2116 N   0  0  0  0  0  0
  -23.4684  -30.4454   21.5254 C   0  0  2  0  0  0
  -24.9213  -28.8488   20.1102 C   0  0  0  0  0  0
  -22.7640  -29.4472   22.4803 C   0  0  0  0  0  0
  -18.0325  -28.1403   22.8459 C   0  0  0  0  0  0
  -24.1496  -36.7220   23.2643 C   0  0  0  0  0  0
  -26.0347  -30.6551   21.3968 C   0  0  0  0  0  0
  -26.1049  -29.2509   20.7419 C   0  0  0  0  0  0
  -27.2476  -28.3378   20.7529 C   0  0  0  0  0  0
  -26.0009  -26.7268   19.4915 C   0  0  0  0  0  0
  -24.8926  -27.6052   19.4642 C   0  0  0  0  0  0
  -23.7057  -29.7697   20.1484 C   0  0  0  0  0  0
  -25.4125  -36.2976   24.0309 C   0  0  1  0  0  0
  -20.5943  -28.3746   23.1200 C   0  0  2  0  0  0
  -20.6803  -26.9435   22.5399 C   0  0  0  0  0  0
  -19.5777  -26.6385   21.5206 C   0  0  0  0  0  0
  -18.1956  -26.7936   22.1616 C   0  0  0  0  0  0
  -19.1581  -28.8893   23.2816 C   0  0  0  0  0  0
  -18.9497  -30.1479   23.8855 C   0  0  0  0  0  0
  -17.6494  -30.6592   24.0557 C   0  0  0  0  0  0
  -25.9092  -34.9361   23.5022 C   0  0  0  0  0  0
  -16.5381  -29.9082   23.6344 C   0  0  0  0  0  0
  -16.7305  -28.6502   23.0352 C   0  0  0  0  0  0
  -26.4566  -31.6522   25.0692 C   0  0  0  0  0  0
  -25.3715  -31.3747   26.1360 C   0  0  0  0  0  0
  -27.0451  -30.2903   24.6348 C   0  0  0  0  0  0
  -27.6074  -32.4310   25.7495 C   0  0  0  0  0  0
  -27.5566  -37.1757   24.8463 C   0  0  0  0  0  0
  -21.4316  -29.3047   22.3558 N   0  0  0  0  0  0
  -26.4266  -37.3711   23.9423 N   0  0  0  0  0  0
  -24.7419  -31.0011   22.0879 N   0  0  0  0  0  0
  -23.4213  -28.8019   23.3011 O   0  0  0  0  0  0
  -28.2056  -25.8835   20.2530 O   0  0  0  0  0  0
  -26.5683  -34.8886   22.4606 O   0  0  0  0  0  0
  -23.5669  -32.1255   23.6891 O   0  0  0  0  0  0
  -28.5476  -20.2669   21.1179 C   0  0  0  0  0  0
  -28.1184  -21.6852   21.1198 C   0  0  0  0  0  0
  -29.5416  -19.6555   20.2542 C   0  0  0  0  0  0
  -28.5876  -22.7805   20.2790 C   0  0  0  0  0  0
  -29.5913  -22.1887   19.4092 C   0  0  0  0  0  0
  -30.0509  -20.7603   19.4217 C   0  0  0  0  0  0
  -30.1801  -23.1448   18.3759 C   0  0  0  0  0  0
  -30.6674  -19.8407   17.1242 C   0  0  0  0  0  0
  -28.5037  -16.5357   21.3211 C   0  0  0  0  0  0
  -31.1859  -20.3850   18.4648 C   0  0  0  0  0  0
  -30.1992  -18.0336   20.2153 C   0  0  0  0  0  0
  -27.7930  -24.3181   20.1517 C   0  0  0  0  0  0
  -29.7467  -16.4939   20.5616 N   0  0  0  0  0  0
  -31.4630  -12.9768   19.1809 H   0  0  0  0  0  0
  -30.5171  -11.8501   20.0920 H   0  0  0  0  0  0
  -29.9019  -11.7581   17.6618 H   0  0  0  0  0  0
  -29.5663  -13.4718   17.6563 H   0  0  0  0  0  0
  -28.0333  -11.2724   19.0634 H   0  0  0  0  0  0
  -27.4061  -12.3607   17.8518 H   0  0  0  0  0  0
  -27.5540  -14.2364   19.3633 H   0  0  0  0  0  0
  -28.8355  -12.3750   21.4250 H   0  0  0  0  0  0
  -28.3129  -13.9745   21.7945 H   0  0  0  0  0  0
  -25.2766   -9.5667   22.4769 H   0  0  0  0  0  0
  -23.9993   -7.4621   22.7481 H   0  0  0  0  0  0
  -21.0848   -8.8767   19.8941 H   0  0  0  0  0  0
  -22.3715  -10.9656   19.6160 H   0  0  0  0  0  0
  -21.1996   -7.6136   23.9717 H   0  0  0  0  0  0
  -21.1474   -6.0512   25.9081 H   0  0  0  0  0  0
  -22.0600   -2.7600   23.2852 H   0  0  0  0  0  0
  -22.4032  -11.9798   22.4856 H   0  0  0  0  0  0
  -21.1023  -13.1146   22.2665 H   0  0  0  0  0  0
  -24.5890  -15.8208   20.4870 H   0  0  0  0  0  0
  -26.1994  -15.6389   20.0137 H   0  0  0  0  0  0
  -26.7351  -32.5184   23.0914 H   0  0  0  0  0  0
  -25.0123  -33.9523   25.0255 H   0  0  0  0  0  0
  -22.7782  -31.2761   21.3611 H   0  0  0  0  0  0
  -23.3763  -35.9543   23.3263 H   0  0  0  0  0  0
  -24.3579  -36.8901   22.2062 H   0  0  0  0  0  0
  -23.7251  -37.6400   23.6718 H   0  0  0  0  0  0
  -26.1983  -31.3975   20.6146 H   0  0  0  0  0  0
  -26.9017  -30.7166   22.0428 H   0  0  0  0  0  0
  -28.1409  -28.6415   21.2800 H   0  0  0  0  0  0
  -25.8609  -25.7836   18.9875 H   0  0  0  0  0  0
  -23.9956  -27.2926   18.9472 H   0  0  0  0  0  0
  -23.8591  -30.5433   19.3954 H   0  0  0  0  0  0
  -22.8156  -29.2254   19.8270 H   0  0  0  0  0  0
  -25.1311  -36.1769   25.0800 H   0  0  0  0  0  0
  -21.0029  -28.3345   24.1325 H   0  0  0  0  0  0
  -20.5703  -26.2354   23.3630 H   0  0  0  0  0  0
  -21.6664  -26.7433   22.1188 H   0  0  0  0  0  0
  -19.6948  -25.6290   21.1256 H   0  0  0  0  0  0
  -19.6717  -27.3173   20.6717 H   0  0  0  0  0  0
  -17.4228  -26.6683   21.4018 H   0  0  0  0  0  0
  -18.0354  -26.0084   22.9020 H   0  0  0  0  0  0
  -19.7974  -30.7304   24.2206 H   0  0  0  0  0  0
  -17.5048  -31.6274   24.5163 H   0  0  0  0  0  0
  -15.5378  -30.2972   23.7698 H   0  0  0  0  0  0
  -15.8703  -28.0818   22.7085 H   0  0  0  0  0  0
  -24.5941  -30.7037   25.7684 H   0  0  0  0  0  0
  -24.8851  -32.2936   26.4647 H   0  0  0  0  0  0
  -25.7976  -30.9031   27.0224 H   0  0  0  0  0  0
  -26.3096  -29.6593   24.1345 H   0  0  0  0  0  0
  -27.4021  -29.7236   25.4955 H   0  0  0  0  0  0
  -27.9019  -30.4114   23.9716 H   0  0  0  0  0  0
  -27.2664  -33.3673   26.1927 H   0  0  0  0  0  0
  -28.3965  -32.6760   25.0372 H   0  0  0  0  0  0
  -28.0641  -31.8517   26.5530 H   0  0  0  0  0  0
  -28.2536  -38.0093   24.7523 H   0  0  0  0  0  0
  -28.1107  -36.2619   24.6264 H   0  0  0  0  0  0
  -27.2289  -37.1360   25.8865 H   0  0  0  0  0  0
  -20.9556  -29.8768   21.6726 H   0  0  0  0  0  0
  -26.0115  -38.2764   24.1453 H   0  0  0  0  0  0
  -28.0684  -19.6306   21.8476 H   0  0  0  0  0  0
  -27.3299  -21.9346   21.8166 H   0  0  0  0  0  0
  -29.6802  -24.1128   18.3647 H   0  0  0  0  0  0
  -30.0875  -22.7389   17.3696 H   0  0  0  0  0  0
  -31.2325  -23.3391   18.5821 H   0  0  0  0  0  0
  -31.4944  -19.5532   16.4747 H   0  0  0  0  0  0
  -30.0772  -20.5848   16.5903 H   0  0  0  0  0  0
  -30.0342  -18.9647   17.2616 H   0  0  0  0  0  0
  -27.7564  -15.9052   20.8625 H   0  0  0  0  0  0
  -28.0651  -17.5287   21.3508 H   0  0  0  0  0  0
  -28.6627  -16.2155   22.3510 H   0  0  0  0  0  0
  -31.8467  -19.6587   18.9368 H   0  0  0  0  0  0
  -31.8516  -21.2276   18.2886 H   0  0  0  0  0  0
  -31.1373  -18.1358   20.7603 H   0  0  0  0  0  0
  -30.5095  -17.8964   19.1824 H   0  0  0  0  0  0
  -26.9582  -24.2340   20.8486 H   0  0  0  0  0  0
  -27.3304  -24.2301   19.1703 H   0  0  0  0  0  0
  1 25  1  0  0  0
  1 30  2  0  0  0
  1 83  1  0  0  0
  2  3  1  0  0  0
  2 25  1  0  0  0
  2 84  1  0  0  0
  2 85  1  0  0  0
  3  4  1  0  0  0
  3 86  1  0  0  0
  3 87  1  0  0  0
  4  5  1  0  0  0
  4 88  1  0  0  0
  4 89  1  0  0  0
  5  6  1  0  0  0
  5 26  1  0  0  0
  5 90  1  0  0  0
  6 25  1  0  0  0
  6 91  1  0  0  0
  6 92  1  0  0  0
  7  8  2  0  0  0
  7 26  1  0  0  0
  7 29  1  0  0  0
  8  9  1  0  0  0
  8 22  1  0  0  0
  9 10  1  0  0  0
  9 27  2  0  0  0
 10 11  2  0  0  0
 10 15  1  0  0  0
 11 12  1  0  0  0
 11 93  1  0  0  0
 12 13  2  0  0  0
 12 94  1  0  0  0
 13 14  1  0  0  0
 13 31  1  0  0  0
 14 15  2  0  0  0
 14 95  1  0  0  0
 15 96  1  0  0  0
 16 17  2  0  0  0
 16 21  1  0  0  0
 16 31  1  0  0  0
 17 18  1  0  0  0
 17 97  1  0  0  0
 18 19  2  0  0  0
 18 98  1  0  0  0
 19 20  1  0  0  0
 19 24  1  0  0  0
 20 21  2  0  0  0
 20 99  1  0  0  0
 21 23  1  0  0  0
 22 28  1  0  0  0
 22 32  2  0  0  0
 26 27  1  0  0  0
 28100  1  0  0  0
 28101  1  0  0  0
 29102  1  0  0  0
 29103  1  0  0  0
 33 34  1  0  0  0
 33 66  1  0  0  0
 33 70  2  0  0  0
 34 36  1  0  0  0
 34 59  1  0  0  0
 34104  1  0  0  0
 35 44  2  0  0  0
 35 45  1  0  0  0
 35 68  1  0  0  0
 36 56  1  0  0  0
 36105  1  0  0  0
 37 39  1  0  0  0
 37 47  1  0  0  0
 37 66  1  0  0  0
 37106  1  0  0  0
 38 43  2  0  0  0
 38 46  1  0  0  0
 38 47  1  0  0  0
 39 64  1  0  0  0
 39 67  2  0  0  0
 40 52  1  0  0  0
 40 53  2  0  0  0
 40 58  1  0  0  0
 41107  1  0  0  0
 41108  1  0  0  0
 41109  1  0  0  0
 41 48  1  0  0  0
 42 43  1  0  0  0
 42 66  1  0  0  0
 42110  1  0  0  0
 42111  1  0  0  0
 43 44  1  0  0  0
 44112  1  0  0  0
 45 46  2  0  0  0
 45113  1  0  0  0
 46114  1  0  0  0
 47115  1  0  0  0
 47116  1  0  0  0
 48 56  1  0  0  0
 48 65  1  0  0  0
 48117  1  0  0  0
 49 50  1  0  0  0
 49 53  1  0  0  0
 49 64  1  0  0  0
 49118  1  0  0  0
 50 51  1  0  0  0
 50119  1  0  0  0
 50120  1  0  0  0
 51 52  1  0  0  0
 51121  1  0  0  0
 51122  1  0  0  0
 52123  1  0  0  0
 52124  1  0  0  0
 53 54  1  0  0  0
 54 55  2  0  0  0
 54125  1  0  0  0
 55 57  1  0  0  0
 55126  1  0  0  0
 56 69  2  0  0  0
 57 58  2  0  0  0
 57127  1  0  0  0
 58128  1  0  0  0
 59 60  1  0  0  0
 59 61  1  0  0  0
 59 62  1  0  0  0
 60129  1  0  0  0
 60130  1  0  0  0
 60131  1  0  0  0
 61132  1  0  0  0
 61133  1  0  0  0
 61134  1  0  0  0
 62135  1  0  0  0
 62136  1  0  0  0
 62137  1  0  0  0
 63 65  1  0  0  0
 63138  1  0  0  0
 63139  1  0  0  0
 63140  1  0  0  0
 64141  1  0  0  0
 65142  1  0  0  0
 68 82  1  0  0  0
 71 72  2  0  0  0
 71 73  1  0  0  0
 71143  1  0  0  0
 72 74  1  0  0  0
 72144  1  0  0  0
 73 76  2  0  0  0
 73 81  1  0  0  0
 74 75  2  0  0  0
 74 82  1  0  0  0
 75 76  1  0  0  0
 75 77  1  0  0  0
 76 80  1  0  0  0
 77145  1  0  0  0
 77146  1  0  0  0
 77147  1  0  0  0
 78 80  1  0  0  0
 78148  1  0  0  0
 78149  1  0  0  0
 78150  1  0  0  0
 79 83  1  0  0  0
 79151  1  0  0  0
 79152  1  0  0  0
 79153  1  0  0  0
 80154  1  0  0  0
 80155  1  0  0  0
 81 83  1  0  0  0
 81156  1  0  0  0
 81157  1  0  0  0
 82158  1  0  0  0
 82159  1  0  0  0
M  ISO  4   1 100  68 101  82 101  83 100
M  END
> <chiral flag>
0

> <version>
0

> <s_m_source_file>
/data/baiqing/PycharmProjects/Reinvent-master-3.2/result/LINK_invent/BTK/process_docking_weight1_custom_product_contain_oxygen_bond_distance_aromatic_linkinvent_7_9_3/rearranged_h_0032.sdf

> <i_m_source_file_index>
44

> <r_mmod_Potential_Energy-OPLS-2005>
1176.49243164062

> <r_mmod_Stretch_Energy-OPLS-2005>
469.569213867188

> <r_mmod_Bend_Energy-OPLS-2005>
425.260528564453

> <r_mmod_Torsional_Energy-OPLS-2005>
256.373596191406

> <r_mmod_Improper_Torsional_Energy-OPLS-2005>
8.94693279266357

> <r_mmod_Van_der_Waal_Energy-OPLS-2005>
150.381286621094

> <r_mmod_Electrostatic_Energy-OPLS-2005>
-314.092681884766

> <r_mmod_Solvation_Energy-OPLS-2005>
-200.666519165039

> <b_mmod_Minimization_Converged-OPLS-2005>
0

> <r_mmod_RMS_Derivative-OPLS-2005>
1.62977695465088

$$$$
44
                    3D
 Structure written by MMmdl.
150158  0  0  1  0            999 V2000
  -30.5396  -14.9072   20.4273 C   0  0  0  0  0  0
  -30.4516  -12.5578   19.4887 C   0  0  0  0  0  0
  -29.5233  -12.5330   18.2507 C   0  0  0  0  0  0
  -28.0535  -12.3256   18.6668 C   0  0  0  0  0  0
  -27.6379  -13.2400   19.8489 C   0  0  2  0  0  0
  -28.6872  -13.2289   20.9830 C   0  0  0  0  0  0
  -25.2477  -13.8151   20.5765 C   0  0  0  0  0  0
  -24.1778  -13.0386   20.9230 C   0  0  0  0  0  0
  -24.6399  -11.6882   20.8747 C   0  0  0  0  0  0
  -23.9080  -10.4264   21.0400 C   0  0  0  0  0  0
  -24.3623   -9.4183   21.9183 C   0  0  0  0  0  0
  -23.6289   -8.2225   22.0757 C   0  0  0  0  0  0
  -22.4271   -8.0271   21.3546 C   0  0  0  0  0  0
  -21.9913   -9.0244   20.4644 C   0  0  0  0  0  0
  -22.7251  -10.2115   20.3048 C   0  0  0  0  0  0
  -21.6846   -6.0731   22.5280 C   0  0  0  0  0  0
  -21.4009   -6.5636   23.8213 C   0  0  0  0  0  0
  -21.3658   -5.6789   24.9175 C   0  0  0  0  0  0
  -21.6045   -4.3053   24.7227 C   0  0  0  0  0  0
  -21.8819   -3.8144   23.4349 C   0  0  0  0  0  0
  -21.9190   -4.6959   22.3402 C   0  0  0  0  0  0
  -22.7799  -13.5175   21.1878 C   0  0  0  0  0  0
  -22.1658   -4.2144   21.0980 F   0  0  0  0  0  0
  -21.5631   -3.4537   25.7741 F   0  0  0  0  0  0
  -29.9724  -13.6366   20.3940 N   0  0  0  0  0  0
  -26.2927  -12.9399   20.3305 N   0  0  0  0  0  0
  -25.9339  -11.6531   20.5748 N   0  0  0  0  0  0
  -22.0444  -12.8169   22.0433 N   0  0  0  0  0  0
  -25.4088  -15.1872   20.4280 N   0  0  0  0  0  0
  -31.7341  -15.0230   20.1314 O   0  0  0  0  0  0
  -21.6629   -6.8874   21.4244 O   0  0  0  0  0  0
  -22.3490  -14.5484   20.6723 O   0  0  0  0  0  0
  -24.6418  -31.8469   23.1928 C   0  0  0  0  0  0
  -25.9201  -32.4712   23.8304 C   0  0  1  0  0  0
  -27.2184  -27.1537   20.1433 C   0  0  0  0  0  0
  -25.5959  -33.8519   24.2213 N   0  0  0  0  0  0
  -23.4455  -30.4680   21.5377 C   0  0  2  0  0  0
  -24.8984  -28.9072   20.1068 C   0  0  0  0  0  0
  -22.7566  -29.4554   22.4867 C   0  0  0  0  0  0
  -18.0304  -28.1396   22.8480 C   0  0  0  0  0  0
  -24.1490  -36.7257   23.2639 C   0  0  0  0  0  0
  -26.0020  -30.7220   21.3969 C   0  0  0  0  0  0
  -26.0735  -29.3357   20.7386 C   0  0  0  0  0  0
  -27.2320  -28.4705   20.7545 C   0  0  0  0  0  0
  -26.0282  -26.8492   19.4412 C   0  0  0  0  0  0
  -24.8872  -27.6744   19.4434 C   0  0  0  0  0  0
  -23.6723  -29.8040   20.1549 C   0  0  0  0  0  0
  -25.4122  -36.3041   24.0315 C   0  0  1  0  0  0
  -20.5918  -28.3721   23.1238 C   0  0  2  0  0  0
  -20.6791  -26.9424   22.5404 C   0  0  0  0  0  0
  -19.5760  -26.6382   21.5216 C   0  0  0  0  0  0
  -18.1941  -26.7936   22.1624 C   0  0  0  0  0  0
  -19.1561  -28.8877   23.2851 C   0  0  0  0  0  0
  -18.9478  -30.1474   23.8873 C   0  0  0  0  0  0
  -17.6473  -30.6591   24.0561 C   0  0  0  0  0  0
  -25.9073  -34.9417   23.5069 C   0  0  0  0  0  0
  -16.5363  -29.9082   23.6341 C   0  0  0  0  0  0
  -16.7289  -28.6503   23.0361 C   0  0  0  0  0  0
  -26.4527  -31.6572   25.0737 C   0  0  0  0  0  0
  -25.3708  -31.3756   26.1428 C   0  0  0  0  0  0
  -27.0397  -30.2967   24.6321 C   0  0  0  0  0  0
  -27.6057  -32.4341   25.7522 C   0  0  0  0  0  0
  -27.5579  -37.1781   24.8461 C   0  0  0  0  0  0
  -21.4259  -29.3048   22.3612 N   0  0  0  0  0  0
  -26.4285  -37.3756   23.9413 N   0  0  0  0  0  0
  -24.7157  -31.0330   22.0969 N   0  0  0  0  0  0
  -23.4214  -28.8094   23.3007 O   0  0  0  0  0  0
  -28.2341  -26.1270   20.2116 O   0  0  0  0  0  0
  -26.5653  -34.8906   22.4645 O   0  0  0  0  0  0
  -23.5539  -32.1347   23.7146 O   0  0  0  0  0  0
  -30.1608  -19.9698   21.0520 C   0  0  0  0  0  0
  -30.4294  -18.5311   21.1055 C   0  0  0  0  0  0
  -28.3898  -19.5667   19.5653 C   0  0  0  0  0  0
  -29.0769  -20.5707   20.3184 C   0  0  0  0  0  0
  -28.6604  -18.1449   19.5861 C   0  0  0  0  0  0
  -29.6715  -17.5285   20.3990 C   0  0  0  0  0  0
  -28.5035  -22.0642   20.3210 C   0  0  0  0  0  0
  -28.9004  -23.4246   20.3428 C   0  0  0  0  0  0
  -27.8742  -24.6379   20.4318 C   0  0  0  0  0  0
  -27.7846  -17.2790   18.6994 C   0  0  0  0  0  0
  -29.6834  -16.0143   20.6192 N   0  0  0  0  0  0
  -26.7120  -24.3496   20.7314 O   0  0  0  0  0  0
  -31.4845  -12.7206   19.1771 H   0  0  0  0  0  0
  -30.4421  -11.5946   20.0010 H   0  0  0  0  0  0
  -29.8320  -11.7467   17.5605 H   0  0  0  0  0  0
  -29.6188  -13.4734   17.7056 H   0  0  0  0  0  0
  -27.9369  -11.2797   18.9525 H   0  0  0  0  0  0
  -27.3924  -12.4837   17.8141 H   0  0  0  0  0  0
  -27.6079  -14.2498   19.4421 H   0  0  0  0  0  0
  -28.7635  -12.2387   21.4341 H   0  0  0  0  0  0
  -28.3962  -13.9077   21.7861 H   0  0  0  0  0  0
  -25.2767   -9.5658   22.4759 H   0  0  0  0  0  0
  -23.9990   -7.4618   22.7479 H   0  0  0  0  0  0
  -21.0843   -8.8766   19.8948 H   0  0  0  0  0  0
  -22.3716  -10.9654   19.6155 H   0  0  0  0  0  0
  -21.2001   -7.6144   23.9714 H   0  0  0  0  0  0
  -21.1482   -6.0521   25.9078 H   0  0  0  0  0  0
  -22.0603   -2.7607   23.2850 H   0  0  0  0  0  0
  -22.4061  -11.9831   22.4818 H   0  0  0  0  0  0
  -21.1062  -13.1196   22.2641 H   0  0  0  0  0  0
  -24.6355  -15.8322   20.5486 H   0  0  0  0  0  0
  -26.2536  -15.6377   20.1082 H   0  0  0  0  0  0
  -26.7265  -32.5329   23.1036 H   0  0  0  0  0  0
  -25.0100  -33.9647   25.0356 H   0  0  0  0  0  0
  -22.7470  -31.2939   21.3870 H   0  0  0  0  0  0
  -23.3766  -35.9574   23.3280 H   0  0  0  0  0  0
  -24.3575  -36.8910   22.2058 H   0  0  0  0  0  0
  -23.7226  -37.6438   23.6688 H   0  0  0  0  0  0
  -26.1598  -31.4766   20.6253 H   0  0  0  0  0  0
  -26.8716  -30.7702   22.0402 H   0  0  0  0  0  0
  -28.1193  -28.7859   21.2851 H   0  0  0  0  0  0
  -25.9477  -25.9133   18.9076 H   0  0  0  0  0  0
  -23.9972  -27.3455   18.9250 H   0  0  0  0  0  0
  -23.8033  -30.5816   19.4015 H   0  0  0  0  0  0
  -22.7886  -29.2434   19.8450 H   0  0  0  0  0  0
  -25.1305  -36.1872   25.0808 H   0  0  0  0  0  0
  -21.0011  -28.3312   24.1359 H   0  0  0  0  0  0
  -20.5694  -26.2332   23.3622 H   0  0  0  0  0  0
  -21.6653  -26.7437   22.1196 H   0  0  0  0  0  0
  -19.6921  -25.6289   21.1257 H   0  0  0  0  0  0
  -19.6696  -27.3185   20.6739 H   0  0  0  0  0  0
  -17.4213  -26.6691   21.4023 H   0  0  0  0  0  0
  -18.0329  -26.0080   22.9021 H   0  0  0  0  0  0
  -19.7952  -30.7302   24.2226 H   0  0  0  0  0  0
  -17.5025  -31.6269   24.5167 H   0  0  0  0  0  0
  -15.5362  -30.2977   23.7679 H   0  0  0  0  0  0
  -15.8690  -28.0815   22.7088 H   0  0  0  0  0  0
  -24.5908  -30.7082   25.7748 H   0  0  0  0  0  0
  -24.8875  -32.2935   26.4783 H   0  0  0  0  0  0
  -25.7992  -30.8982   27.0251 H   0  0  0  0  0  0
  -26.3021  -29.6688   24.1310 H   0  0  0  0  0  0
  -27.3988  -29.7266   25.4900 H   0  0  0  0  0  0
  -27.8940  -30.4202   23.9662 H   0  0  0  0  0  0
  -27.2649  -33.3664   26.2037 H   0  0  0  0  0  0
  -28.3899  -32.6863   25.0372 H   0  0  0  0  0  0
  -28.0689  -31.8508   26.5491 H   0  0  0  0  0  0
  -28.2571  -38.0104   24.7541 H   0  0  0  0  0  0
  -28.1102  -36.2634   24.6248 H   0  0  0  0  0  0
  -27.2299  -37.1379   25.8863 H   0  0  0  0  0  0
  -20.9465  -29.8766   21.6797 H   0  0  0  0  0  0
  -26.0151  -38.2819   24.1441 H   0  0  0  0  0  0
  -30.7689  -20.6161   21.6691 H   0  0  0  0  0  0
  -31.2146  -18.1958   21.7683 H   0  0  0  0  0  0
  -27.5645  -19.9020   18.9521 H   0  0  0  0  0  0
  -27.4250  -21.9915   20.3440 H   0  0  0  0  0  0
  -29.9498  -23.6753   20.3119 H   0  0  0  0  0  0
  -27.5490  -17.7998   17.7711 H   0  0  0  0  0  0
  -26.8451  -17.0607   19.2006 H   0  0  0  0  0  0
  -28.2712  -16.3435   18.4237 H   0  0  0  0  0  0
  -28.7554  -15.6636   20.7961 H   0  0  0  0  0  0
  1 25  1  0  0  0
  1 30  2  0  0  0
  1 81  1  0  0  0
  2  3  1  0  0  0
  2 25  1  0  0  0
  2 83  1  0  0  0
  2 84  1  0  0  0
  3  4  1  0  0  0
  3 85  1  0  0  0
  3 86  1  0  0  0
  4  5  1  0  0  0
  4 87  1  0  0  0
  4 88  1  0  0  0
  5  6  1  0  0  0
  5 26  1  0  0  0
  5 89  1  0  0  0
  6 25  1  0  0  0
  6 90  1  0  0  0
  6 91  1  0  0  0
  7  8  2  0  0  0
  7 26  1  0  0  0
  7 29  1  0  0  0
  8  9  1  0  0  0
  8 22  1  0  0  0
  9 10  1  0  0  0
  9 27  2  0  0  0
 10 11  2  0  0  0
 10 15  1  0  0  0
 11 12  1  0  0  0
 11 92  1  0  0  0
 12 13  2  0  0  0
 12 93  1  0  0  0
 13 14  1  0  0  0
 13 31  1  0  0  0
 14 15  2  0  0  0
 14 94  1  0  0  0
 15 95  1  0  0  0
 16 17  2  0  0  0
 16 21  1  0  0  0
 16 31  1  0  0  0
 17 18  1  0  0  0
 17 96  1  0  0  0
 18 19  2  0  0  0
 18 97  1  0  0  0
 19 20  1  0  0  0
 19 24  1  0  0  0
 20 21  2  0  0  0
 20 98  1  0  0  0
 21 23  1  0  0  0
 22 28  1  0  0  0
 22 32  2  0  0  0
 26 27  1  0  0  0
 28 99  1  0  0  0
 28100  1  0  0  0
 29101  1  0  0  0
 29102  1  0  0  0
 33 34  1  0  0  0
 33 66  1  0  0  0
 33 70  2  0  0  0
 34 36  1  0  0  0
 34 59  1  0  0  0
 34103  1  0  0  0
 35 44  2  0  0  0
 35 45  1  0  0  0
 35 68  1  0  0  0
 36 56  1  0  0  0
 36104  1  0  0  0
 37 39  1  0  0  0
 37 47  1  0  0  0
 37 66  1  0  0  0
 37105  1  0  0  0
 38 43  2  0  0  0
 38 46  1  0  0  0
 38 47  1  0  0  0
 39 64  1  0  0  0
 39 67  2  0  0  0
 40 52  1  0  0  0
 40 53  2  0  0  0
 40 58  1  0  0  0
 41106  1  0  0  0
 41107  1  0  0  0
 41108  1  0  0  0
 41 48  1  0  0  0
 42 43  1  0  0  0
 42 66  1  0  0  0
 42109  1  0  0  0
 42110  1  0  0  0
 43 44  1  0  0  0
 44111  1  0  0  0
 45 46  2  0  0  0
 45112  1  0  0  0
 46113  1  0  0  0
 47114  1  0  0  0
 47115  1  0  0  0
 48 56  1  0  0  0
 48 65  1  0  0  0
 48116  1  0  0  0
 49 50  1  0  0  0
 49 53  1  0  0  0
 49 64  1  0  0  0
 49117  1  0  0  0
 50 51  1  0  0  0
 50118  1  0  0  0
 50119  1  0  0  0
 51 52  1  0  0  0
 51120  1  0  0  0
 51121  1  0  0  0
 52122  1  0  0  0
 52123  1  0  0  0
 53 54  1  0  0  0
 54 55  2  0  0  0
 54124  1  0  0  0
 55 57  1  0  0  0
 55125  1  0  0  0
 56 69  2  0  0  0
 57 58  2  0  0  0
 57126  1  0  0  0
 58127  1  0  0  0
 59 60  1  0  0  0
 59 61  1  0  0  0
 59 62  1  0  0  0
 60128  1  0  0  0
 60129  1  0  0  0
 60130  1  0  0  0
 61131  1  0  0  0
 61132  1  0  0  0
 61133  1  0  0  0
 62134  1  0  0  0
 62135  1  0  0  0
 62136  1  0  0  0
 63 65  1  0  0  0
 63137  1  0  0  0
 63138  1  0  0  0
 63139  1  0  0  0
 64140  1  0  0  0
 65141  1  0  0  0
 68 79  1  0  0  0
 71 72  2  0  0  0
 71 74  1  0  0  0
 71142  1  0  0  0
 72 76  1  0  0  0
 72143  1  0  0  0
 73 74  2  0  0  0
 73 75  1  0  0  0
 73144  1  0  0  0
 74 77  1  0  0  0
 75 76  2  0  0  0
 75 80  1  0  0  0
 76 81  1  0  0  0
 77 78  2  0  0  0
 77145  1  0  0  0
 78 79  1  0  0  0
 78146  1  0  0  0
 79 82  2  0  0  0
 80147  1  0  0  0
 80148  1  0  0  0
 80149  1  0  0  0
 81150  1  0  0  0
M  ISO  4   1 100  68 101  79 101  81 100
M  END
> <chiral flag>
0

> <version>
0

> <s_m_source_file>
/data/baiqing/PycharmProjects/Reinvent-master-3.2/result/LINK_invent/BTK/process_docking_weight1_custom_product_contain_oxygen_bond_distance_aromatic_linkinvent_7_9_3/rearranged_h_0032.sdf

> <i_m_source_file_index>
45

> <r_mmod_Potential_Energy-OPLS-2005>
450.892333984375

> <r_mmod_Stretch_Energy-OPLS-2005>
226.878799438477

> <r_mmod_Bend_Energy-OPLS-2005>
248.840881347656

> <r_mmod_Torsional_Energy-OPLS-2005>
255.447128295898

> <r_mmod_Improper_Torsional_Energy-OPLS-2005>
6.59529495239258

> <r_mmod_Van_der_Waal_Energy-OPLS-2005>
138.313568115234

> <r_mmod_Electrostatic_Energy-OPLS-2005>
-386.953277587891

> <r_mmod_Solvation_Energy-OPLS-2005>
-215.823348999023

> <b_mmod_Minimization_Converged-OPLS-2005>
0

> <r_mmod_RMS_Derivative-OPLS-2005>
0.55374813079834

$$$$
45
                    3D
 Structure written by MMmdl.
156164  0  0  1  0            999 V2000
  -30.4852  -15.1702   20.4391 C   0  0  0  0  0  0
  -30.4440  -12.7522   19.5210 C   0  0  0  0  0  0
  -29.5317  -12.5815   18.2779 C   0  0  0  0  0  0
  -28.0736  -12.3185   18.6941 C   0  0  0  0  0  0
  -27.6239  -13.2620   19.8372 C   0  0  2  0  0  0
  -28.6629  -13.3381   20.9732 C   0  0  0  0  0  0
  -25.2454  -13.8221   20.5730 C   0  0  0  0  0  0
  -24.1785  -13.0428   20.9226 C   0  0  0  0  0  0
  -24.6426  -11.6921   20.8748 C   0  0  0  0  0  0
  -23.9113  -10.4289   21.0396 C   0  0  0  0  0  0
  -24.3651   -9.4202   21.9179 C   0  0  0  0  0  0
  -23.6312   -8.2244   22.0756 C   0  0  0  0  0  0
  -22.4290   -8.0289   21.3543 C   0  0  0  0  0  0
  -21.9934   -9.0266   20.4640 C   0  0  0  0  0  0
  -22.7280  -10.2137   20.3048 C   0  0  0  0  0  0
  -21.6860   -6.0739   22.5277 C   0  0  0  0  0  0
  -21.4024   -6.5641   23.8208 C   0  0  0  0  0  0
  -21.3658   -5.6793   24.9168 C   0  0  0  0  0  0
  -21.6038   -4.3052   24.7217 C   0  0  0  0  0  0
  -21.8826   -3.8150   23.4336 C   0  0  0  0  0  0
  -21.9197   -4.6968   22.3396 C   0  0  0  0  0  0
  -22.7803  -13.5197   21.1854 C   0  0  0  0  0  0
  -22.1672   -4.2158   21.0971 F   0  0  0  0  0  0
  -21.5618   -3.4538   25.7725 F   0  0  0  0  0  0
  -29.9053  -13.8696   20.3799 N   0  0  0  0  0  0
  -26.2875  -12.9472   20.3249 N   0  0  0  0  0  0
  -25.9358  -11.6587   20.5737 N   0  0  0  0  0  0
  -22.0464  -12.8191   22.0410 N   0  0  0  0  0  0
  -25.4073  -15.1956   20.4186 N   0  0  0  0  0  0
  -31.6676  -15.1894   20.0676 O   0  0  0  0  0  0
  -21.6651   -6.8887   21.4240 O   0  0  0  0  0  0
  -22.3487  -14.5488   20.6680 O   0  0  0  0  0  0
  -24.6583  -31.8289   23.1776 C   0  0  0  0  0  0
  -25.9286  -32.4618   23.8219 C   0  0  1  0  0  0
  -27.2200  -26.9871   20.1711 C   0  0  0  0  0  0
  -25.5985  -33.8435   24.2126 N   0  0  0  0  0  0
  -23.4710  -30.4446   21.5238 C   0  0  2  0  0  0
  -24.9265  -28.8483   20.1102 C   0  0  0  0  0  0
  -22.7649  -29.4466   22.4779 C   0  0  0  0  0  0
  -18.0328  -28.1420   22.8443 C   0  0  0  0  0  0
  -24.1498  -36.7233   23.2643 C   0  0  0  0  0  0
  -26.0378  -30.6545   21.3999 C   0  0  0  0  0  0
  -26.1086  -29.2501   20.7448 C   0  0  0  0  0  0
  -27.2512  -28.3378   20.7579 C   0  0  0  0  0  0
  -26.0129  -26.7331   19.4800 C   0  0  0  0  0  0
  -24.9015  -27.6082   19.4571 C   0  0  0  0  0  0
  -23.7124  -29.7706   20.1460 C   0  0  0  0  0  0
  -25.4121  -36.2982   24.0314 C   0  0  1  0  0  0
  -20.5945  -28.3757   23.1195 C   0  0  2  0  0  0
  -20.6810  -26.9449   22.5394 C   0  0  0  0  0  0
  -19.5787  -26.6382   21.5206 C   0  0  0  0  0  0
  -18.1962  -26.7945   22.1605 C   0  0  0  0  0  0
  -19.1586  -28.8905   23.2799 C   0  0  0  0  0  0
  -18.9495  -30.1490   23.8853 C   0  0  0  0  0  0
  -17.6494  -30.6600   24.0561 C   0  0  0  0  0  0
  -25.9085  -34.9366   23.5031 C   0  0  0  0  0  0
  -16.5385  -29.9095   23.6342 C   0  0  0  0  0  0
  -16.7309  -28.6519   23.0332 C   0  0  0  0  0  0
  -26.4572  -31.6527   25.0704 C   0  0  0  0  0  0
  -25.3707  -31.3753   26.1358 C   0  0  0  0  0  0
  -27.0444  -30.2906   24.6359 C   0  0  0  0  0  0
  -27.6084  -32.4308   25.7489 C   0  0  0  0  0  0
  -27.5565  -37.1765   24.8460 C   0  0  0  0  0  0
  -21.4323  -29.3062   22.3555 N   0  0  0  0  0  0
  -26.4266  -37.3712   23.9421 N   0  0  0  0  0  0
  -24.7436  -31.0005   22.0892 N   0  0  0  0  0  0
  -23.4226  -28.7994   23.2975 O   0  0  0  0  0  0
  -28.2157  -25.8918   20.2552 O   0  0  0  0  0  0
  -26.5667  -34.8894   22.4606 O   0  0  0  0  0  0
  -23.5662  -32.1246   23.6895 O   0  0  0  0  0  0
  -28.1086  -21.7375   21.1481 C   0  0  0  0  0  0
  -29.5350  -22.1225   19.4006 C   0  0  0  0  0  0
  -28.5829  -22.7900   20.2641 C   0  0  0  0  0  0
  -28.4857  -20.2979   21.1907 C   0  0  0  0  0  0
  -29.9418  -20.6921   19.4292 C   0  0  0  0  0  0
  -29.4502  -19.6249   20.3140 C   0  0  0  0  0  0
  -27.7591  -19.4964   22.2507 C   0  0  0  0  0  0
  -30.9732  -20.3052   18.3788 C   0  0  0  0  0  0
  -29.0223  -16.4349   21.9516 C   0  0  0  0  0  0
  -30.0981  -17.9933   20.2290 C   0  0  0  0  0  0
  -27.8210  -24.3325   20.0647 C   0  0  0  0  0  0
  -29.7667  -16.4411   20.6956 N   0  0  0  0  0  0
  -31.4642  -12.9465   19.1902 H   0  0  0  0  0  0
  -30.5063  -11.8210   20.0860 H   0  0  0  0  0  0
  -29.8956  -11.7691   17.6469 H   0  0  0  0  0  0
  -29.5770  -13.4860   17.6685 H   0  0  0  0  0  0
  -28.0041  -11.2810   19.0255 H   0  0  0  0  0  0
  -27.4077  -12.4107   17.8349 H   0  0  0  0  0  0
  -27.5673  -14.2556   19.3905 H   0  0  0  0  0  0
  -28.8203  -12.3572   21.4238 H   0  0  0  0  0  0
  -28.2894  -13.9628   21.7791 H   0  0  0  0  0  0
  -25.2796   -9.5676   22.4751 H   0  0  0  0  0  0
  -24.0013   -7.4640   22.7483 H   0  0  0  0  0  0
  -21.0861   -8.8795   19.8945 H   0  0  0  0  0  0
  -22.3747  -10.9677   19.6156 H   0  0  0  0  0  0
  -21.2033   -7.6154   23.9718 H   0  0  0  0  0  0
  -21.1464   -6.0518   25.9070 H   0  0  0  0  0  0
  -22.0604   -2.7613   23.2831 H   0  0  0  0  0  0
  -22.4121  -11.9894   22.4848 H   0  0  0  0  0  0
  -21.1060  -13.1174   22.2568 H   0  0  0  0  0  0
  -24.6308  -15.8383   20.5307 H   0  0  0  0  0  0
  -26.2523  -15.6457   20.0905 H   0  0  0  0  0  0
  -26.7340  -32.5194   23.0929 H   0  0  0  0  0  0
  -25.0173  -33.9535   25.0304 H   0  0  0  0  0  0
  -22.7812  -31.2746   21.3572 H   0  0  0  0  0  0
  -23.3766  -35.9555   23.3255 H   0  0  0  0  0  0
  -24.3597  -36.8920   22.2068 H   0  0  0  0  0  0
  -23.7259  -37.6414   23.6725 H   0  0  0  0  0  0
  -26.2007  -31.3963   20.6165 H   0  0  0  0  0  0
  -26.9067  -30.7195   22.0438 H   0  0  0  0  0  0
  -28.1426  -28.6380   21.2915 H   0  0  0  0  0  0
  -25.8824  -25.7941   18.9653 H   0  0  0  0  0  0
  -24.0078  -27.2996   18.9316 H   0  0  0  0  0  0
  -23.8756  -30.5473   19.3977 H   0  0  0  0  0  0
  -22.8233  -29.2298   19.8164 H   0  0  0  0  0  0
  -25.1312  -36.1782   25.0806 H   0  0  0  0  0  0
  -21.0015  -28.3359   24.1324 H   0  0  0  0  0  0
  -20.5712  -26.2373   23.3627 H   0  0  0  0  0  0
  -21.6671  -26.7447   22.1190 H   0  0  0  0  0  0
  -19.6961  -25.6273   21.1282 H   0  0  0  0  0  0
  -19.6741  -27.3151   20.6705 H   0  0  0  0  0  0
  -17.4234  -26.6681   21.4006 H   0  0  0  0  0  0
  -18.0356  -26.0105   22.9020 H   0  0  0  0  0  0
  -19.7970  -30.7305   24.2204 H   0  0  0  0  0  0
  -17.5052  -31.6277   24.5173 H   0  0  0  0  0  0
  -15.5380  -30.2991   23.7694 H   0  0  0  0  0  0
  -15.8697  -28.0848   22.7051 H   0  0  0  0  0  0
  -24.5964  -30.7011   25.7690 H   0  0  0  0  0  0
  -24.8804  -32.2935   26.4608 H   0  0  0  0  0  0
  -25.7952  -30.9075   27.0250 H   0  0  0  0  0  0
  -26.3086  -29.6588   24.1369 H   0  0  0  0  0  0
  -27.4034  -29.7249   25.4970 H   0  0  0  0  0  0
  -27.9011  -30.4124   23.9721 H   0  0  0  0  0  0
  -27.2725  -33.3727   26.1847 H   0  0  0  0  0  0
  -28.4010  -32.6655   25.0363 H   0  0  0  0  0  0
  -28.0615  -31.8550   26.5573 H   0  0  0  0  0  0
  -28.2523  -38.0109   24.7512 H   0  0  0  0  0  0
  -28.1113  -36.2631   24.6264 H   0  0  0  0  0  0
  -27.2292  -37.1376   25.8863 H   0  0  0  0  0  0
  -20.9562  -29.8827   21.6757 H   0  0  0  0  0  0
  -26.0114  -38.2768   24.1444 H   0  0  0  0  0  0
  -27.3407  -22.0563   21.8397 H   0  0  0  0  0  0
  -29.9585  -22.7399   18.6207 H   0  0  0  0  0  0
  -26.9101  -20.0456   22.6611 H   0  0  0  0  0  0
  -28.4260  -19.2774   23.0835 H   0  0  0  0  0  0
  -27.3567  -18.5745   21.8363 H   0  0  0  0  0  0
  -31.4756  -21.1815   17.9666 H   0  0  0  0  0  0
  -30.4939  -19.7791   17.5511 H   0  0  0  0  0  0
  -31.7507  -19.6622   18.7908 H   0  0  0  0  0  0
  -27.9526  -16.3150   21.7798 H   0  0  0  0  0  0
  -29.2071  -17.3488   22.5049 H   0  0  0  0  0  0
  -29.3526  -15.6498   22.6334 H   0  0  0  0  0  0
  -31.0995  -18.1321   20.6382 H   0  0  0  0  0  0
  -30.2688  -17.8477   19.1631 H   0  0  0  0  0  0
  -26.9204  -24.2332   20.6725 H   0  0  0  0  0  0
  -27.4649  -24.2763   19.0361 H   0  0  0  0  0  0
  1 25  1  0  0  0
  1 30  2  0  0  0
  1 82  1  0  0  0
  2  3  1  0  0  0
  2 25  1  0  0  0
  2 83  1  0  0  0
  2 84  1  0  0  0
  3  4  1  0  0  0
  3 85  1  0  0  0
  3 86  1  0  0  0
  4  5  1  0  0  0
  4 87  1  0  0  0
  4 88  1  0  0  0
  5  6  1  0  0  0
  5 26  1  0  0  0
  5 89  1  0  0  0
  6 25  1  0  0  0
  6 90  1  0  0  0
  6 91  1  0  0  0
  7  8  2  0  0  0
  7 26  1  0  0  0
  7 29  1  0  0  0
  8  9  1  0  0  0
  8 22  1  0  0  0
  9 10  1  0  0  0
  9 27  2  0  0  0
 10 11  2  0  0  0
 10 15  1  0  0  0
 11 12  1  0  0  0
 11 92  1  0  0  0
 12 13  2  0  0  0
 12 93  1  0  0  0
 13 14  1  0  0  0
 13 31  1  0  0  0
 14 15  2  0  0  0
 14 94  1  0  0  0
 15 95  1  0  0  0
 16 17  2  0  0  0
 16 21  1  0  0  0
 16 31  1  0  0  0
 17 18  1  0  0  0
 17 96  1  0  0  0
 18 19  2  0  0  0
 18 97  1  0  0  0
 19 20  1  0  0  0
 19 24  1  0  0  0
 20 21  2  0  0  0
 20 98  1  0  0  0
 21 23  1  0  0  0
 22 28  1  0  0  0
 22 32  2  0  0  0
 26 27  1  0  0  0
 28 99  1  0  0  0
 28100  1  0  0  0
 29101  1  0  0  0
 29102  1  0  0  0
 33 34  1  0  0  0
 33 66  1  0  0  0
 33 70  2  0  0  0
 34 36  1  0  0  0
 34 59  1  0  0  0
 34103  1  0  0  0
 35 44  2  0  0  0
 35 45  1  0  0  0
 35 68  1  0  0  0
 36 56  1  0  0  0
 36104  1  0  0  0
 37 39  1  0  0  0
 37 47  1  0  0  0
 37 66  1  0  0  0
 37105  1  0  0  0
 38 43  2  0  0  0
 38 46  1  0  0  0
 38 47  1  0  0  0
 39 64  1  0  0  0
 39 67  2  0  0  0
 40 52  1  0  0  0
 40 53  2  0  0  0
 40 58  1  0  0  0
 41106  1  0  0  0
 41107  1  0  0  0
 41108  1  0  0  0
 41 48  1  0  0  0
 42 43  1  0  0  0
 42 66  1  0  0  0
 42109  1  0  0  0
 42110  1  0  0  0
 43 44  1  0  0  0
 44111  1  0  0  0
 45 46  2  0  0  0
 45112  1  0  0  0
 46113  1  0  0  0
 47114  1  0  0  0
 47115  1  0  0  0
 48 56  1  0  0  0
 48 65  1  0  0  0
 48116  1  0  0  0
 49 50  1  0  0  0
 49 53  1  0  0  0
 49 64  1  0  0  0
 49117  1  0  0  0
 50 51  1  0  0  0
 50118  1  0  0  0
 50119  1  0  0  0
 51 52  1  0  0  0
 51120  1  0  0  0
 51121  1  0  0  0
 52122  1  0  0  0
 52123  1  0  0  0
 53 54  1  0  0  0
 54 55  2  0  0  0
 54124  1  0  0  0
 55 57  1  0  0  0
 55125  1  0  0  0
 56 69  2  0  0  0
 57 58  2  0  0  0
 57126  1  0  0  0
 58127  1  0  0  0
 59 60  1  0  0  0
 59 61  1  0  0  0
 59 62  1  0  0  0
 60128  1  0  0  0
 60129  1  0  0  0
 60130  1  0  0  0
 61131  1  0  0  0
 61132  1  0  0  0
 61133  1  0  0  0
 62134  1  0  0  0
 62135  1  0  0  0
 62136  1  0  0  0
 63 65  1  0  0  0
 63137  1  0  0  0
 63138  1  0  0  0
 63139  1  0  0  0
 64140  1  0  0  0
 65141  1  0  0  0
 68 81  1  0  0  0
 71 73  2  0  0  0
 71 74  1  0  0  0
 71142  1  0  0  0
 72 73  1  0  0  0
 72 75  2  0  0  0
 72143  1  0  0  0
 73 81  1  0  0  0
 74 76  2  0  0  0
 74 77  1  0  0  0
 75 76  1  0  0  0
 75 78  1  0  0  0
 76 80  1  0  0  0
 77144  1  0  0  0
 77145  1  0  0  0
 77146  1  0  0  0
 78147  1  0  0  0
 78148  1  0  0  0
 78149  1  0  0  0
 79 82  1  0  0  0
 79150  1  0  0  0
 79151  1  0  0  0
 79152  1  0  0  0
 80 82  1  0  0  0
 80153  1  0  0  0
 80154  1  0  0  0
 81155  1  0  0  0
 81156  1  0  0  0
M  ISO  4   1 100  68 101  81 101  82 100
M  END
> <chiral flag>
0

> <version>
0

> <s_m_source_file>
/data/baiqing/PycharmProjects/Reinvent-master-3.2/result/LINK_invent/BTK/process_docking_weight1_custom_product_contain_oxygen_bond_distance_aromatic_linkinvent_7_9_3/rearranged_h_0032.sdf

> <i_m_source_file_index>
46

> <r_mmod_Potential_Energy-OPLS-2005>
1185.85729980469

> <r_mmod_Stretch_Energy-OPLS-2005>
470.278045654297

> <r_mmod_Bend_Energy-OPLS-2005>
449.024291992188

> <r_mmod_Torsional_Energy-OPLS-2005>
262.049346923828

> <r_mmod_Improper_Torsional_Energy-OPLS-2005>
9.75770378112793

> <r_mmod_Van_der_Waal_Energy-OPLS-2005>
144.560256958008

> <r_mmod_Electrostatic_Energy-OPLS-2005>
-310.497924804688

> <r_mmod_Solvation_Energy-OPLS-2005>
-201.289459228516

> <b_mmod_Minimization_Converged-OPLS-2005>
0

> <r_mmod_RMS_Derivative-OPLS-2005>
2.14222693443298

$$$$
46
                    3D
 Structure written by MMmdl.
163172  0  0  1  0            999 V2000
  -30.5901  -14.7073   20.4570 C   0  0  0  0  0  0
  -30.4474  -12.4374   19.4310 C   0  0  0  0  0  0
  -29.5031  -12.4963   18.2101 C   0  0  0  0  0  0
  -28.0297  -12.3216   18.6400 C   0  0  0  0  0  0
  -27.6460  -13.2120   19.8516 C   0  0  2  0  0  0
  -28.7014  -13.1090   20.9727 C   0  0  0  0  0  0
  -25.2564  -13.8155   20.5708 C   0  0  0  0  0  0
  -24.1822  -13.0425   20.9228 C   0  0  0  0  0  0
  -24.6395  -11.6899   20.8787 C   0  0  0  0  0  0
  -23.9050  -10.4279   21.0460 C   0  0  0  0  0  0
  -24.3613   -9.4206   21.9228 C   0  0  0  0  0  0
  -23.6288   -8.2252   22.0786 C   0  0  0  0  0  0
  -22.4271   -8.0296   21.3569 C   0  0  0  0  0  0
  -21.9909   -9.0261   20.4678 C   0  0  0  0  0  0
  -22.7238  -10.2138   20.3092 C   0  0  0  0  0  0
  -21.6825   -6.0747   22.5292 C   0  0  0  0  0  0
  -21.3995   -6.5657   23.8225 C   0  0  0  0  0  0
  -21.3662   -5.6817   24.9191 C   0  0  0  0  0  0
  -21.6045   -4.3069   24.7237 C   0  0  0  0  0  0
  -21.8816   -3.8162   23.4355 C   0  0  0  0  0  0
  -21.9189   -4.6984   22.3414 C   0  0  0  0  0  0
  -22.7846  -13.5254   21.1832 C   0  0  0  0  0  0
  -22.1658   -4.2187   21.0983 F   0  0  0  0  0  0
  -21.5637   -3.4541   25.7739 F   0  0  0  0  0  0
  -29.9939  -13.4746   20.3774 N   0  0  0  0  0  0
  -26.2980  -12.9322   20.3336 N   0  0  0  0  0  0
  -25.9328  -11.6487   20.5815 N   0  0  0  0  0  0
  -22.0439  -12.8273   22.0396 N   0  0  0  0  0  0
  -25.4236  -15.1885   20.4148 N   0  0  0  0  0  0
  -31.7993  -14.8429   20.2521 O   0  0  0  0  0  0
  -21.6639   -6.8894   21.4250 O   0  0  0  0  0  0
  -22.3557  -14.5561   20.6676 O   0  0  0  0  0  0
  -24.6401  -31.8552   23.1964 C   0  0  0  0  0  0
  -25.9220  -32.4739   23.8335 C   0  0  1  0  0  0
  -27.2148  -27.2081   20.1062 C   0  0  0  0  0  0
  -25.6001  -33.8538   24.2247 N   0  0  0  0  0  0
  -23.4397  -30.4798   21.5439 C   0  0  2  0  0  0
  -24.8803  -28.9269   20.1185 C   0  0  0  0  0  0
  -22.7573  -29.4594   22.4872 C   0  0  0  0  0  0
  -18.0350  -28.1404   22.8408 C   0  0  0  0  0  0
  -24.1486  -36.7265   23.2636 C   0  0  0  0  0  0
  -25.9957  -30.7455   21.3905 C   0  0  0  0  0  0
  -26.0595  -29.3666   20.7272 C   0  0  0  0  0  0
  -27.2247  -28.5207   20.7140 C   0  0  0  0  0  0
  -26.0025  -26.8744   19.4595 C   0  0  0  0  0  0
  -24.8569  -27.6862   19.4787 C   0  0  0  0  0  0
  -23.6639  -29.8251   20.1604 C   0  0  0  0  0  0
  -25.4125  -36.3064   24.0313 C   0  0  1  0  0  0
  -20.5942  -28.3675   23.1167 C   0  0  2  0  0  0
  -20.6868  -26.9413   22.5185 C   0  0  0  0  0  0
  -19.5736  -26.6241   21.5108 C   0  0  0  0  0  0
  -18.1930  -26.7995   22.1486 C   0  0  0  0  0  0
  -19.1600  -28.8857   23.2818 C   0  0  0  0  0  0
  -18.9508  -30.1445   23.8901 C   0  0  0  0  0  0
  -17.6495  -30.6579   24.0586 C   0  0  0  0  0  0
  -25.9070  -34.9433   23.5065 C   0  0  0  0  0  0
  -16.5432  -29.9076   23.6286 C   0  0  0  0  0  0
  -16.7347  -28.6502   23.0309 C   0  0  0  0  0  0
  -26.4533  -31.6576   25.0755 C   0  0  0  0  0  0
  -25.3710  -31.3793   26.1445 C   0  0  0  0  0  0
  -27.0424  -30.2994   24.6329 C   0  0  0  0  0  0
  -27.6057  -32.4347   25.7543 C   0  0  0  0  0  0
  -27.5574  -37.1809   24.8475 C   0  0  0  0  0  0
  -21.4267  -29.3080   22.3621 N   0  0  0  0  0  0
  -26.4297  -37.3770   23.9392 N   0  0  0  0  0  0
  -24.7127  -31.0435   22.1009 N   0  0  0  0  0  0
  -23.4241  -28.8105   23.2984 O   0  0  0  0  0  0
  -28.3374  -26.3169   20.1538 O   0  0  0  0  0  0
  -26.5604  -34.8918   22.4604 O   0  0  0  0  0  0
  -23.5528  -32.1409   23.7220 O   0  0  0  0  0  0
  -29.1499  -19.5034   22.4703 C   0  0  0  0  0  0
  -29.3517  -17.0619   22.3936 C   0  0  0  0  0  0
  -29.5629  -19.6463   21.1255 C   0  0  0  0  0  0
  -29.7269  -17.0923   21.0378 C   0  0  0  0  0  0
  -29.0529  -18.2417   23.0947 C   0  0  0  0  0  0
  -29.8211  -18.4012   20.4027 C   0  0  0  0  0  0
  -27.4655  -24.2396   18.7299 C   0  0  0  0  0  0
  -27.8361  -22.8199   18.2750 C   0  0  0  0  0  0
  -28.7844  -23.6569   20.8641 C   0  0  0  0  0  0
  -28.4424  -24.8223   19.7723 C   0  0  2  0  0  0
  -27.7215  -21.7992   19.4205 C   0  0  2  0  0  0
  -26.2981  -21.5801   19.9552 C   0  0  0  0  0  0
  -29.8068  -21.1423   20.6056 C   0  0  0  0  0  0
  -29.7313  -15.7810   20.3756 N   0  0  0  0  0  0
  -28.6319  -22.1304   20.5409 N   0  3  1  0  0  0
  -28.5379  -18.1351   24.7384 Cl  0  0  0  0  0  0
  -30.2290  -18.4710   18.7271 Cl  0  0  0  0  0  0
  -31.4792  -12.5966   19.1131 H   0  0  0  0  0  0
  -30.4150  -11.4519   19.8973 H   0  0  0  0  0  0
  -29.7782  -11.7261   17.4881 H   0  0  0  0  0  0
  -29.6242  -13.4499   17.6924 H   0  0  0  0  0  0
  -27.8842  -11.2704   18.8906 H   0  0  0  0  0  0
  -27.3649  -12.5248   17.7991 H   0  0  0  0  0  0
  -27.6427  -14.2386   19.4864 H   0  0  0  0  0  0
  -28.7466  -12.0947   21.3715 H   0  0  0  0  0  0
  -28.4497  -13.7584   21.8138 H   0  0  0  0  0  0
  -25.2758   -9.5688   22.4783 H   0  0  0  0  0  0
  -24.0013   -7.4636   22.7490 H   0  0  0  0  0  0
  -21.0855   -8.8766   19.8957 H   0  0  0  0  0  0
  -22.3711  -10.9680   19.6188 H   0  0  0  0  0  0
  -21.1959   -7.6158   23.9739 H   0  0  0  0  0  0
  -21.1487   -6.0536   25.9099 H   0  0  0  0  0  0
  -22.0584   -2.7626   23.2837 H   0  0  0  0  0  0
  -22.4026  -11.9983   22.4875 H   0  0  0  0  0  0
  -21.1055  -13.1323   22.2534 H   0  0  0  0  0  0
  -24.6426  -15.8277   20.5239 H   0  0  0  0  0  0
  -26.2729  -15.6477   20.1140 H   0  0  0  0  0  0
  -26.7298  -32.5388   23.1089 H   0  0  0  0  0  0
  -25.0294  -33.9686   25.0490 H   0  0  0  0  0  0
  -22.7406  -31.3041   21.3954 H   0  0  0  0  0  0
  -23.3757  -35.9585   23.3310 H   0  0  0  0  0  0
  -24.3584  -36.8881   22.2055 H   0  0  0  0  0  0
  -23.7243  -37.6468   23.6648 H   0  0  0  0  0  0
  -26.1538  -31.5070   20.6262 H   0  0  0  0  0  0
  -26.8680  -30.7860   22.0303 H   0  0  0  0  0  0
  -28.1271  -28.8618   21.2028 H   0  0  0  0  0  0
  -25.8492  -25.9855   18.8927 H   0  0  0  0  0  0
  -23.9593  -27.3443   18.9854 H   0  0  0  0  0  0
  -23.8188  -30.6066   19.4156 H   0  0  0  0  0  0
  -22.7822  -29.2736   19.8321 H   0  0  0  0  0  0
  -25.1317  -36.1916   25.0811 H   0  0  0  0  0  0
  -21.0003  -28.3208   24.1330 H   0  0  0  0  0  0
  -21.6690  -26.7615   22.0765 H   0  0  0  0  0  0
  -20.6029  -26.2236   23.3336 H   0  0  0  0  0  0
  -19.6695  -27.2788   20.6422 H   0  0  0  0  0  0
  -19.6851  -25.6029   21.1449 H   0  0  0  0  0  0
  -17.4200  -26.6967   21.3843 H   0  0  0  0  0  0
  -18.0088  -26.0207   22.8883 H   0  0  0  0  0  0
  -19.7940  -30.7274   24.2324 H   0  0  0  0  0  0
  -17.4979  -31.6167   24.5369 H   0  0  0  0  0  0
  -15.5424  -30.2935   23.7603 H   0  0  0  0  0  0
  -15.8742  -28.0797   22.7069 H   0  0  0  0  0  0
  -24.5819  -30.7234   25.7766 H   0  0  0  0  0  0
  -24.8965  -32.2994   26.4868 H   0  0  0  0  0  0
  -25.7965  -30.8951   27.0236 H   0  0  0  0  0  0
  -26.3048  -29.6673   24.1380 H   0  0  0  0  0  0
  -27.4117  -29.7363   25.4904 H   0  0  0  0  0  0
  -27.8908  -30.4271   23.9605 H   0  0  0  0  0  0
  -27.2622  -33.3616   26.2151 H   0  0  0  0  0  0
  -28.3851  -32.6976   25.0375 H   0  0  0  0  0  0
  -28.0729  -31.8472   26.5458 H   0  0  0  0  0  0
  -28.2626  -38.0081   24.7508 H   0  0  0  0  0  0
  -28.1042  -36.2618   24.6319 H   0  0  0  0  0  0
  -27.2279  -37.1482   25.8878 H   0  0  0  0  0  0
  -20.9503  -29.8873   21.6847 H   0  0  0  0  0  0
  -26.0174  -38.2841   24.1383 H   0  0  0  0  0  0
  -28.9171  -20.3764   23.0595 H   0  0  0  0  0  0
  -29.2270  -16.1139   22.8987 H   0  0  0  0  0  0
  -26.4742  -24.1529   19.1630 H   0  0  0  0  0  0
  -27.4192  -24.8909   17.8558 H   0  0  0  0  0  0
  -28.8442  -22.8114   17.8552 H   0  0  0  0  0  0
  -27.1778  -22.5063   17.4642 H   0  0  0  0  0  0
  -29.7803  -23.8359   21.2700 H   0  0  0  0  0  0
  -28.1071  -23.8248   21.7009 H   0  0  0  0  0  0
  -29.3729  -24.8680   19.2057 H   0  0  0  0  0  0
  -28.0154  -20.8374   18.9944 H   0  0  0  0  0  0
  -25.9602  -22.4164   20.5671 H   0  0  0  0  0  0
  -26.2516  -20.6773   20.5675 H   0  0  0  0  0  0
  -25.5830  -21.4453   19.1436 H   0  0  0  0  0  0
  -30.2877  -21.1131   19.6275 H   0  0  0  0  0  0
  -30.5580  -21.5701   21.2698 H   0  0  0  0  0  0
  -28.7966  -15.4620   20.1715 H   0  0  0  0  0  0
  -28.1108  -21.8265   21.3498 H   0  0  0  0  0  0
  1 25  1  0  0  0
  1 30  2  0  0  0
  1 84  1  0  0  0
  2  3  1  0  0  0
  2 25  1  0  0  0
  2 88  1  0  0  0
  2 89  1  0  0  0
  3  4  1  0  0  0
  3 90  1  0  0  0
  3 91  1  0  0  0
  4  5  1  0  0  0
  4 92  1  0  0  0
  4 93  1  0  0  0
  5  6  1  0  0  0
  5 26  1  0  0  0
  5 94  1  0  0  0
  6 25  1  0  0  0
  6 95  1  0  0  0
  6 96  1  0  0  0
  7  8  2  0  0  0
  7 26  1  0  0  0
  7 29  1  0  0  0
  8  9  1  0  0  0
  8 22  1  0  0  0
  9 10  1  0  0  0
  9 27  2  0  0  0
 10 11  2  0  0  0
 10 15  1  0  0  0
 11 12  1  0  0  0
 11 97  1  0  0  0
 12 13  2  0  0  0
 12 98  1  0  0  0
 13 14  1  0  0  0
 13 31  1  0  0  0
 14 15  2  0  0  0
 14 99  1  0  0  0
 15100  1  0  0  0
 16 17  2  0  0  0
 16 21  1  0  0  0
 16 31  1  0  0  0
 17 18  1  0  0  0
 17101  1  0  0  0
 18 19  2  0  0  0
 18102  1  0  0  0
 19 20  1  0  0  0
 19 24  1  0  0  0
 20 21  2  0  0  0
 20103  1  0  0  0
 21 23  1  0  0  0
 22 28  1  0  0  0
 22 32  2  0  0  0
 26 27  1  0  0  0
 28104  1  0  0  0
 28105  1  0  0  0
 29106  1  0  0  0
 29107  1  0  0  0
 33 34  1  0  0  0
 33 66  1  0  0  0
 33 70  2  0  0  0
 34 36  1  0  0  0
 34 59  1  0  0  0
 34108  1  0  0  0
 35 44  2  0  0  0
 35 45  1  0  0  0
 35 68  1  0  0  0
 36 56  1  0  0  0
 36109  1  0  0  0
 37 39  1  0  0  0
 37 47  1  0  0  0
 37 66  1  0  0  0
 37110  1  0  0  0
 38 43  2  0  0  0
 38 46  1  0  0  0
 38 47  1  0  0  0
 39 64  1  0  0  0
 39 67  2  0  0  0
 40 52  1  0  0  0
 40 53  2  0  0  0
 40 58  1  0  0  0
 41111  1  0  0  0
 41112  1  0  0  0
 41113  1  0  0  0
 41 48  1  0  0  0
 42 43  1  0  0  0
 42 66  1  0  0  0
 42114  1  0  0  0
 42115  1  0  0  0
 43 44  1  0  0  0
 44116  1  0  0  0
 45 46  2  0  0  0
 45117  1  0  0  0
 46118  1  0  0  0
 47119  1  0  0  0
 47120  1  0  0  0
 48 56  1  0  0  0
 48 65  1  0  0  0
 48121  1  0  0  0
 49 50  1  0  0  0
 49 53  1  0  0  0
 49 64  1  0  0  0
 49122  1  0  0  0
 50 51  1  0  0  0
 50123  1  0  0  0
 50124  1  0  0  0
 51 52  1  0  0  0
 51125  1  0  0  0
 51126  1  0  0  0
 52127  1  0  0  0
 52128  1  0  0  0
 53 54  1  0  0  0
 54 55  2  0  0  0
 54129  1  0  0  0
 55 57  1  0  0  0
 55130  1  0  0  0
 56 69  2  0  0  0
 57 58  2  0  0  0
 57131  1  0  0  0
 58132  1  0  0  0
 59 60  1  0  0  0
 59 61  1  0  0  0
 59 62  1  0  0  0
 60133  1  0  0  0
 60134  1  0  0  0
 60135  1  0  0  0
 61136  1  0  0  0
 61137  1  0  0  0
 61138  1  0  0  0
 62139  1  0  0  0
 62140  1  0  0  0
 62141  1  0  0  0
 63 65  1  0  0  0
 63142  1  0  0  0
 63143  1  0  0  0
 63144  1  0  0  0
 64145  1  0  0  0
 65146  1  0  0  0
 68 80  1  0  0  0
 71 73  2  0  0  0
 71 75  1  0  0  0
 71147  1  0  0  0
 72 74  1  0  0  0
 72 75  2  0  0  0
 72148  1  0  0  0
 73 76  1  0  0  0
 73 83  1  0  0  0
 74 76  2  0  0  0
 74 84  1  0  0  0
 75 86  1  0  0  0
 76 87  1  0  0  0
 77 78  1  0  0  0
 77 80  1  0  0  0
 77149  1  0  0  0
 77150  1  0  0  0
 78 81  1  0  0  0
 78151  1  0  0  0
 78152  1  0  0  0
 79 80  1  0  0  0
 79 85  1  0  0  0
 79153  1  0  0  0
 79154  1  0  0  0
 80155  1  0  0  0
 81 82  1  0  0  0
 81 85  1  0  0  0
 81156  1  0  0  0
 82157  1  0  0  0
 82158  1  0  0  0
 82159  1  0  0  0
 83160  1  0  0  0
 83161  1  0  0  0
 83 85  1  0  0  0
 84162  1  0  0  0
 85163  1  0  0  0
M  CHG  1  85   1
M  ISO  4   1 100  68 101  80 101  84 100
M  END
> <chiral flag>
0

> <version>
0

> <s_m_source_file>
/data/baiqing/PycharmProjects/Reinvent-master-3.2/result/LINK_invent/BTK/process_docking_weight1_custom_product_contain_oxygen_bond_distance_aromatic_linkinvent_7_9_3/rearranged_h_0032.sdf

> <i_m_source_file_index>
47

> <r_mmod_Potential_Energy-OPLS-2005>
210.571411132812

> <r_mmod_Stretch_Energy-OPLS-2005>
144.596405029297

> <r_mmod_Bend_Energy-OPLS-2005>
238.853164672852

> <r_mmod_Torsional_Energy-OPLS-2005>
306.879272460938

> <r_mmod_Improper_Torsional_Energy-OPLS-2005>
14.4775905609131

> <r_mmod_Van_der_Waal_Energy-OPLS-2005>
137.364593505859

> <r_mmod_Electrostatic_Energy-OPLS-2005>
-275.893676757812

> <r_mmod_Solvation_Energy-OPLS-2005>
-447.978515625

> <b_mmod_Minimization_Converged-OPLS-2005>
0

> <r_mmod_RMS_Derivative-OPLS-2005>
5.31791687011719

$$$$
47
                    3D
 Structure written by MMmdl.
159168  0  0  1  0            999 V2000
  -30.6495  -14.6881   20.4542 C   0  0  0  0  0  0
  -30.4221  -12.4197   19.4599 C   0  0  0  0  0  0
  -29.4995  -12.4881   18.2254 C   0  0  0  0  0  0
  -28.0250  -12.3296   18.6434 C   0  0  0  0  0  0
  -27.6406  -13.2297   19.8483 C   0  0  2  0  0  0
  -28.6885  -13.1596   20.9800 C   0  0  0  0  0  0
  -25.2518  -13.8209   20.5711 C   0  0  0  0  0  0
  -24.1804  -13.0448   20.9220 C   0  0  0  0  0  0
  -24.6396  -11.6930   20.8759 C   0  0  0  0  0  0
  -23.9076  -10.4303   21.0416 C   0  0  0  0  0  0
  -24.3628   -9.4213   21.9186 C   0  0  0  0  0  0
  -23.6303   -8.2246   22.0753 C   0  0  0  0  0  0
  -22.4284   -8.0288   21.3546 C   0  0  0  0  0  0
  -21.9925   -9.0260   20.4641 C   0  0  0  0  0  0
  -22.7254  -10.2140   20.3057 C   0  0  0  0  0  0
  -21.6853   -6.0740   22.5281 C   0  0  0  0  0  0
  -21.4006   -6.5645   23.8214 C   0  0  0  0  0  0
  -21.3656   -5.6797   24.9174 C   0  0  0  0  0  0
  -21.6050   -4.3060   24.7227 C   0  0  0  0  0  0
  -21.8814   -3.8154   23.4347 C   0  0  0  0  0  0
  -21.9193   -4.6970   22.3404 C   0  0  0  0  0  0
  -22.7822  -13.5222   21.1877 C   0  0  0  0  0  0
  -22.1662   -4.2157   21.0979 F   0  0  0  0  0  0
  -21.5632   -3.4544   25.7738 F   0  0  0  0  0  0
  -29.9901  -13.4866   20.3878 N   0  0  0  0  0  0
  -26.2934  -12.9410   20.3289 N   0  0  0  0  0  0
  -25.9325  -11.6553   20.5776 N   0  0  0  0  0  0
  -22.0478  -12.8192   22.0430 N   0  0  0  0  0  0
  -25.4211  -15.1930   20.4124 N   0  0  0  0  0  0
  -31.8453  -14.7509   20.1612 O   0  0  0  0  0  0
  -21.6645   -6.8887   21.4244 O   0  0  0  0  0  0
  -22.3498  -14.5528   20.6736 O   0  0  0  0  0  0
  -24.6298  -31.8569   23.1991 C   0  0  0  0  0  0
  -25.9139  -32.4756   23.8327 C   0  0  1  0  0  0
  -27.2099  -27.2851   20.1141 C   0  0  0  0  0  0
  -25.5947  -33.8553   24.2261 N   0  0  0  0  0  0
  -23.4249  -30.4817   21.5430 C   0  0  2  0  0  0
  -24.8687  -28.9355   20.1052 C   0  0  0  0  0  0
  -22.7495  -29.4616   22.4918 C   0  0  0  0  0  0
  -18.0290  -28.1392   22.8475 C   0  0  0  0  0  0
  -24.1489  -36.7266   23.2638 C   0  0  0  0  0  0
  -25.9687  -30.7777   21.3739 C   0  0  0  0  0  0
  -26.0409  -29.4036   20.7133 C   0  0  0  0  0  0
  -27.2160  -28.5890   20.7090 C   0  0  0  0  0  0
  -26.0194  -26.8875   19.4667 C   0  0  0  0  0  0
  -24.8611  -27.6836   19.4729 C   0  0  0  0  0  0
  -23.6393  -29.8198   20.1569 C   0  0  0  0  0  0
  -25.4115  -36.3056   24.0329 C   0  0  1  0  0  0
  -20.5898  -28.3688   23.1272 C   0  0  2  0  0  0
  -20.6776  -26.9410   22.5404 C   0  0  0  0  0  0
  -19.5750  -26.6388   21.5208 C   0  0  0  0  0  0
  -18.1927  -26.7935   22.1619 C   0  0  0  0  0  0
  -19.1545  -28.8856   23.2861 C   0  0  0  0  0  0
  -18.9480  -30.1456   23.8876 C   0  0  0  0  0  0
  -17.6481  -30.6586   24.0561 C   0  0  0  0  0  0
  -25.9065  -34.9436   23.5092 C   0  0  0  0  0  0
  -16.5361  -29.9086   23.6344 C   0  0  0  0  0  0
  -16.7281  -28.6507   23.0348 C   0  0  0  0  0  0
  -26.4512  -31.6575   25.0707 C   0  0  0  0  0  0
  -25.3750  -31.3724   26.1436 C   0  0  0  0  0  0
  -27.0360  -30.3004   24.6165 C   0  0  0  0  0  0
  -27.6072  -32.4306   25.7481 C   0  0  0  0  0  0
  -27.5577  -37.1774   24.8465 C   0  0  0  0  0  0
  -21.4207  -29.3035   22.3661 N   0  0  0  0  0  0
  -26.4278  -37.3768   23.9428 N   0  0  0  0  0  0
  -24.6938  -31.0557   22.0955 N   0  0  0  0  0  0
  -23.4206  -28.8163   23.3012 O   0  0  0  0  0  0
  -28.2916  -26.3846   20.1739 O   0  0  0  0  0  0
  -26.5627  -34.8915   22.4657 O   0  0  0  0  0  0
  -23.5458  -32.1379   23.7307 O   0  0  0  0  0  0
  -28.9872  -20.7775   21.4472 C   0  0  0  0  0  0
  -29.6453  -19.2732   19.2086 C   0  0  0  0  0  0
  -29.2473  -20.6661   19.0911 C   0  0  0  0  0  0
  -29.7789  -18.6216   20.4762 C   0  0  0  0  0  0
  -28.8998  -21.4919   20.2203 C   0  0  0  0  0  0
  -29.4036  -19.4209   21.5897 C   0  0  0  0  0  0
  -28.8510  -23.9518   21.1602 C   0  0  0  0  0  0
  -28.2511  -23.8875   19.1703 C   0  0  0  0  0  0
  -27.9647  -24.9270   20.3115 C   0  0  0  0  0  0
  -29.9636  -18.4615   17.9533 C   0  0  0  0  0  0
  -29.2116  -21.3236   17.7132 C   0  0  0  0  0  0
  -30.5465  -17.2359   20.6744 C   0  0  0  0  0  0
  -28.3895  -22.8883   20.2489 N   0  0  0  0  0  0
  -29.9296  -15.8508   20.6390 N   0  0  0  0  0  0
  -29.4673  -18.7696   23.1906 Cl  0  0  0  0  0  0
  -31.4633  -12.5277   19.1522 H   0  0  0  0  0  0
  -30.3538  -11.4433   19.9425 H   0  0  0  0  0  0
  -29.7683  -11.7102   17.5096 H   0  0  0  0  0  0
  -29.6365  -13.4399   17.7099 H   0  0  0  0  0  0
  -27.8698  -11.2816   18.9019 H   0  0  0  0  0  0
  -27.3670  -12.5315   17.7967 H   0  0  0  0  0  0
  -27.6377  -14.2518   19.4692 H   0  0  0  0  0  0
  -28.7131  -12.1661   21.4302 H   0  0  0  0  0  0
  -28.4379  -13.8544   21.7828 H   0  0  0  0  0  0
  -25.2770   -9.5688   22.4764 H   0  0  0  0  0  0
  -24.0015   -7.4633   22.7469 H   0  0  0  0  0  0
  -21.0860   -8.8776   19.8940 H   0  0  0  0  0  0
  -22.3715  -10.9679   19.6171 H   0  0  0  0  0  0
  -21.1989   -7.6151   23.9717 H   0  0  0  0  0  0
  -21.1482   -6.0528   25.9077 H   0  0  0  0  0  0
  -22.0597   -2.7620   23.2845 H   0  0  0  0  0  0
  -22.4106  -11.9842   22.4784 H   0  0  0  0  0  0
  -21.1092  -13.1194   22.2652 H   0  0  0  0  0  0
  -24.6558  -15.8484   20.5271 H   0  0  0  0  0  0
  -26.2697  -15.6330   20.0813 H   0  0  0  0  0  0
  -26.7184  -32.5421   23.1053 H   0  0  0  0  0  0
  -25.0127  -33.9685   25.0429 H   0  0  0  0  0  0
  -22.7213  -31.3037   21.3986 H   0  0  0  0  0  0
  -23.3760  -35.9588   23.3301 H   0  0  0  0  0  0
  -24.3579  -36.8902   22.2052 H   0  0  0  0  0  0
  -23.7235  -37.6463   23.6667 H   0  0  0  0  0  0
  -26.1031  -31.5431   20.6069 H   0  0  0  0  0  0
  -26.8477  -30.8254   22.0051 H   0  0  0  0  0  0
  -28.1114  -28.9345   21.2063 H   0  0  0  0  0  0
  -25.9622  -25.9339   18.9622 H   0  0  0  0  0  0
  -23.9653  -27.3211   18.9877 H   0  0  0  0  0  0
  -23.7599  -30.5981   19.4019 H   0  0  0  0  0  0
  -22.7569  -29.2524   19.8534 H   0  0  0  0  0  0
  -25.1288  -36.1890   25.0818 H   0  0  0  0  0  0
  -20.9975  -28.3257   24.1399 H   0  0  0  0  0  0
  -20.5690  -26.2292   23.3604 H   0  0  0  0  0  0
  -21.6643  -26.7444   22.1192 H   0  0  0  0  0  0
  -19.6924  -25.6303   21.1229 H   0  0  0  0  0  0
  -19.6695  -27.3206   20.6745 H   0  0  0  0  0  0
  -17.4202  -26.6690   21.4013 H   0  0  0  0  0  0
  -18.0304  -26.0082   22.9019 H   0  0  0  0  0  0
  -19.7965  -30.7262   24.2241 H   0  0  0  0  0  0
  -17.5046  -31.6270   24.5155 H   0  0  0  0  0  0
  -15.5368  -30.2974   23.7690 H   0  0  0  0  0  0
  -15.8686  -28.0824   22.7069 H   0  0  0  0  0  0
  -24.5952  -30.7028   25.7787 H   0  0  0  0  0  0
  -24.8895  -32.2885   26.4810 H   0  0  0  0  0  0
  -25.8078  -30.8961   27.0245 H   0  0  0  0  0  0
  -26.2925  -29.6730   24.1231 H   0  0  0  0  0  0
  -27.4121  -29.7270   25.4649 H   0  0  0  0  0  0
  -27.8769  -30.4300   23.9346 H   0  0  0  0  0  0
  -27.2709  -33.3647   26.1988 H   0  0  0  0  0  0
  -28.3920  -32.6799   25.0329 H   0  0  0  0  0  0
  -28.0687  -31.8467   26.5454 H   0  0  0  0  0  0
  -28.2563  -38.0101   24.7547 H   0  0  0  0  0  0
  -28.1096  -36.2631   24.6233 H   0  0  0  0  0  0
  -27.2294  -37.1360   25.8866 H   0  0  0  0  0  0
  -20.9383  -29.8765   21.6880 H   0  0  0  0  0  0
  -26.0152  -38.2829   24.1483 H   0  0  0  0  0  0
  -28.7134  -21.2979   22.3524 H   0  0  0  0  0  0
  -28.5208  -23.8345   22.1931 H   0  0  0  0  0  0
  -29.9228  -24.1466   21.0869 H   0  0  0  0  0  0
  -29.1782  -24.0852   18.6291 H   0  0  0  0  0  0
  -27.4068  -23.7203   18.4991 H   0  0  0  0  0  0
  -26.9430  -24.8161   20.6849 H   0  0  0  0  0  0
  -29.1798  -18.5712   17.2045 H   0  0  0  0  0  0
  -30.0251  -17.3905   18.1409 H   0  0  0  0  0  0
  -30.9114  -18.7789   17.5181 H   0  0  0  0  0  0
  -29.5078  -20.6861   16.8843 H   0  0  0  0  0  0
  -29.9005  -22.1674   17.6935 H   0  0  0  0  0  0
  -28.2098  -21.6875   17.4881 H   0  0  0  0  0  0
  -31.0745  -17.2930   21.6256 H   0  0  0  0  0  0
  -31.3657  -17.2484   19.9546 H   0  0  0  0  0  0
  -28.9383  -15.7728   20.8066 H   0  0  0  0  0  0
  1 25  1  0  0  0
  1 30  2  0  0  0
  1 84  1  0  0  0
  2  3  1  0  0  0
  2 25  1  0  0  0
  2 86  1  0  0  0
  2 87  1  0  0  0
  3  4  1  0  0  0
  3 88  1  0  0  0
  3 89  1  0  0  0
  4  5  1  0  0  0
  4 90  1  0  0  0
  4 91  1  0  0  0
  5  6  1  0  0  0
  5 26  1  0  0  0
  5 92  1  0  0  0
  6 25  1  0  0  0
  6 93  1  0  0  0
  6 94  1  0  0  0
  7  8  2  0  0  0
  7 26  1  0  0  0
  7 29  1  0  0  0
  8  9  1  0  0  0
  8 22  1  0  0  0
  9 10  1  0  0  0
  9 27  2  0  0  0
 10 11  2  0  0  0
 10 15  1  0  0  0
 11 12  1  0  0  0
 11 95  1  0  0  0
 12 13  2  0  0  0
 12 96  1  0  0  0
 13 14  1  0  0  0
 13 31  1  0  0  0
 14 15  2  0  0  0
 14 97  1  0  0  0
 15 98  1  0  0  0
 16 17  2  0  0  0
 16 21  1  0  0  0
 16 31  1  0  0  0
 17 18  1  0  0  0
 17 99  1  0  0  0
 18 19  2  0  0  0
 18100  1  0  0  0
 19 20  1  0  0  0
 19 24  1  0  0  0
 20 21  2  0  0  0
 20101  1  0  0  0
 21 23  1  0  0  0
 22 28  1  0  0  0
 22 32  2  0  0  0
 26 27  1  0  0  0
 28102  1  0  0  0
 28103  1  0  0  0
 29104  1  0  0  0
 29105  1  0  0  0
 33 34  1  0  0  0
 33 66  1  0  0  0
 33 70  2  0  0  0
 34 36  1  0  0  0
 34 59  1  0  0  0
 34106  1  0  0  0
 35 44  2  0  0  0
 35 45  1  0  0  0
 35 68  1  0  0  0
 36 56  1  0  0  0
 36107  1  0  0  0
 37 39  1  0  0  0
 37 47  1  0  0  0
 37 66  1  0  0  0
 37108  1  0  0  0
 38 43  2  0  0  0
 38 46  1  0  0  0
 38 47  1  0  0  0
 39 64  1  0  0  0
 39 67  2  0  0  0
 40 52  1  0  0  0
 40 53  2  0  0  0
 40 58  1  0  0  0
 41109  1  0  0  0
 41110  1  0  0  0
 41111  1  0  0  0
 41 48  1  0  0  0
 42 43  1  0  0  0
 42 66  1  0  0  0
 42112  1  0  0  0
 42113  1  0  0  0
 43 44  1  0  0  0
 44114  1  0  0  0
 45 46  2  0  0  0
 45115  1  0  0  0
 46116  1  0  0  0
 47117  1  0  0  0
 47118  1  0  0  0
 48 56  1  0  0  0
 48 65  1  0  0  0
 48119  1  0  0  0
 49 50  1  0  0  0
 49 53  1  0  0  0
 49 64  1  0  0  0
 49120  1  0  0  0
 50 51  1  0  0  0
 50121  1  0  0  0
 50122  1  0  0  0
 51 52  1  0  0  0
 51123  1  0  0  0
 51124  1  0  0  0
 52125  1  0  0  0
 52126  1  0  0  0
 53 54  1  0  0  0
 54 55  2  0  0  0
 54127  1  0  0  0
 55 57  1  0  0  0
 55128  1  0  0  0
 56 69  2  0  0  0
 57 58  2  0  0  0
 57129  1  0  0  0
 58130  1  0  0  0
 59 60  1  0  0  0
 59 61  1  0  0  0
 59 62  1  0  0  0
 60131  1  0  0  0
 60132  1  0  0  0
 60133  1  0  0  0
 61134  1  0  0  0
 61135  1  0  0  0
 61136  1  0  0  0
 62137  1  0  0  0
 62138  1  0  0  0
 62139  1  0  0  0
 63 65  1  0  0  0
 63140  1  0  0  0
 63141  1  0  0  0
 63142  1  0  0  0
 64143  1  0  0  0
 65144  1  0  0  0
 68 79  1  0  0  0
 71 75  2  0  0  0
 71 76  1  0  0  0
 71145  1  0  0  0
 72 73  2  0  0  0
 72 74  1  0  0  0
 72 80  1  0  0  0
 73 75  1  0  0  0
 73 81  1  0  0  0
 74 76  2  0  0  0
 74 82  1  0  0  0
 75 83  1  0  0  0
 76 85  1  0  0  0
 77 79  1  0  0  0
 77 83  1  0  0  0
 77146  1  0  0  0
 77147  1  0  0  0
 78 79  1  0  0  0
 78 83  1  0  0  0
 78148  1  0  0  0
 78149  1  0  0  0
 79150  1  0  0  0
 80151  1  0  0  0
 80152  1  0  0  0
 80153  1  0  0  0
 81154  1  0  0  0
 81155  1  0  0  0
 81156  1  0  0  0
 82 84  1  0  0  0
 82157  1  0  0  0
 82158  1  0  0  0
 84159  1  0  0  0
M  ISO  4   1 100  68 101  79 101  84 100
M  END
> <chiral flag>
0

> <version>
0

> <s_m_source_file>
/data/baiqing/PycharmProjects/Reinvent-master-3.2/result/LINK_invent/BTK/process_docking_weight1_custom_product_contain_oxygen_bond_distance_aromatic_linkinvent_7_9_3/rearranged_h_0032.sdf

> <i_m_source_file_index>
48

> <r_mmod_Potential_Energy-OPLS-2005>
199.74821472168

> <r_mmod_Stretch_Energy-OPLS-2005>
101.268867492676

> <r_mmod_Bend_Energy-OPLS-2005>
236.287857055664

> <r_mmod_Torsional_Energy-OPLS-2005>
243.877944946289

> <r_mmod_Improper_Torsional_Energy-OPLS-2005>
11.6334857940674

> <r_mmod_Van_der_Waal_Energy-OPLS-2005>
157.064468383789

> <r_mmod_Electrostatic_Energy-OPLS-2005>
-401.935546875

> <r_mmod_Solvation_Energy-OPLS-2005>
-220.052322387695

> <b_mmod_Minimization_Converged-OPLS-2005>
0

> <r_mmod_RMS_Derivative-OPLS-2005>
1.75996279716492

$$$$
48
                    3D
 Structure written by MMmdl.
162171  0  0  1  0            999 V2000
  -30.6417  -14.6581   20.4901 C   0  0  0  0  0  0
  -30.4265  -12.4076   19.4508 C   0  0  0  0  0  0
  -29.5004  -12.4987   18.2199 C   0  0  0  0  0  0
  -28.0255  -12.3360   18.6370 C   0  0  0  0  0  0
  -27.6438  -13.2239   19.8521 C   0  0  2  0  0  0
  -28.6895  -13.1196   20.9824 C   0  0  0  0  0  0
  -25.2521  -13.8185   20.5688 C   0  0  0  0  0  0
  -24.1804  -13.0439   20.9200 C   0  0  0  0  0  0
  -24.6386  -11.6914   20.8744 C   0  0  0  0  0  0
  -23.9062  -10.4293   21.0406 C   0  0  0  0  0  0
  -24.3616   -9.4208   21.9183 C   0  0  0  0  0  0
  -23.6293   -8.2242   22.0754 C   0  0  0  0  0  0
  -22.4274   -8.0280   21.3544 C   0  0  0  0  0  0
  -21.9910   -9.0253   20.4646 C   0  0  0  0  0  0
  -22.7237  -10.2132   20.3055 C   0  0  0  0  0  0
  -21.6853   -6.0734   22.5279 C   0  0  0  0  0  0
  -21.4014   -6.5639   23.8211 C   0  0  0  0  0  0
  -21.3659   -5.6792   24.9174 C   0  0  0  0  0  0
  -21.6044   -4.3055   24.7225 C   0  0  0  0  0  0
  -21.8820   -3.8146   23.4346 C   0  0  0  0  0  0
  -21.9193   -4.6962   22.3402 C   0  0  0  0  0  0
  -22.7827  -13.5225   21.1863 C   0  0  0  0  0  0
  -22.1662   -4.2148   21.0980 F   0  0  0  0  0  0
  -21.5629   -3.4538   25.7738 F   0  0  0  0  0  0
  -29.9949  -13.4535   20.3999 N   0  0  0  0  0  0
  -26.2943  -12.9380   20.3288 N   0  0  0  0  0  0
  -25.9313  -11.6528   20.5753 N   0  0  0  0  0  0
  -22.0477  -12.8212   22.0419 N   0  0  0  0  0  0
  -25.4215  -15.1907   20.4110 N   0  0  0  0  0  0
  -31.8286  -14.7588   20.1698 O   0  0  0  0  0  0
  -21.6640   -6.8876   21.4240 O   0  0  0  0  0  0
  -22.3508  -14.5530   20.6712 O   0  0  0  0  0  0
  -24.6262  -31.8578   23.1989 C   0  0  0  0  0  0
  -25.9107  -32.4765   23.8323 C   0  0  1  0  0  0
  -27.2305  -27.3142   20.1067 C   0  0  0  0  0  0
  -25.5924  -33.8565   24.2258 N   0  0  0  0  0  0
  -23.4190  -30.4794   21.5422 C   0  0  2  0  0  0
  -24.8625  -28.9254   20.1121 C   0  0  0  0  0  0
  -22.7467  -29.4616   22.4938 C   0  0  0  0  0  0
  -18.0285  -28.1383   22.8487 C   0  0  0  0  0  0
  -24.1488  -36.7284   23.2641 C   0  0  0  0  0  0
  -25.9583  -30.7883   21.3651 C   0  0  0  0  0  0
  -26.0308  -29.4142   20.7069 C   0  0  0  0  0  0
  -27.2136  -28.6203   20.6897 C   0  0  0  0  0  0
  -26.0242  -26.8539   19.5373 C   0  0  0  0  0  0
  -24.8602  -27.6501   19.5220 C   0  0  0  0  0  0
  -23.6312  -29.8075   20.1592 C   0  0  0  0  0  0
  -25.4115  -36.3075   24.0328 C   0  0  1  0  0  0
  -20.5883  -28.3683   23.1288 C   0  0  2  0  0  0
  -20.6771  -26.9407   22.5415 C   0  0  0  0  0  0
  -19.5751  -26.6383   21.5213 C   0  0  0  0  0  0
  -18.1928  -26.7929   22.1620 C   0  0  0  0  0  0
  -19.1537  -28.8850   23.2884 C   0  0  0  0  0  0
  -18.9461  -30.1453   23.8898 C   0  0  0  0  0  0
  -17.6462  -30.6586   24.0564 C   0  0  0  0  0  0
  -25.9052  -34.9445   23.5096 C   0  0  0  0  0  0
  -16.5352  -29.9086   23.6330 C   0  0  0  0  0  0
  -16.7273  -28.6504   23.0350 C   0  0  0  0  0  0
  -26.4492  -31.6582   25.0701 C   0  0  0  0  0  0
  -25.3727  -31.3726   26.1432 C   0  0  0  0  0  0
  -27.0333  -30.3008   24.6152 C   0  0  0  0  0  0
  -27.6050  -32.4318   25.7475 C   0  0  0  0  0  0
  -27.5577  -37.1799   24.8468 C   0  0  0  0  0  0
  -21.4181  -29.3036   22.3682 N   0  0  0  0  0  0
  -26.4291  -37.3771   23.9409 N   0  0  0  0  0  0
  -24.6870  -31.0589   22.0928 N   0  0  0  0  0  0
  -23.4193  -28.8165   23.3025 O   0  0  0  0  0  0
  -28.3980  -26.5375   20.1574 O   0  0  0  0  0  0
  -26.5624  -34.8919   22.4664 O   0  0  0  0  0  0
  -23.5428  -32.1373   23.7326 O   0  0  0  0  0  0
  -30.7034  -19.3461   19.8130 C   0  0  0  0  0  0
  -28.3086  -20.4792   20.6799 C   0  0  0  0  0  0
  -30.3794  -20.6941   19.4755 C   0  0  0  0  0  0
  -29.8637  -18.5185   20.6000 C   0  0  0  0  0  0
  -29.1599  -21.3084   19.8959 C   0  0  0  0  0  0
  -28.6456  -19.1266   21.0258 C   0  0  0  0  0  0
  -28.9704  -23.9440   17.3427 C   0  0  0  0  0  0
  -28.3777  -25.2035   17.9971 C   0  0  0  0  0  0
  -28.4475  -22.6602   18.0097 C   0  0  0  0  0  0
  -28.2881  -23.8075   20.2089 C   0  0  0  0  0  0
  -28.6408  -25.2171   19.5217 C   0  0  2  0  0  0
  -31.4017  -21.4781   18.6653 C   0  0  0  0  0  0
  -30.4279  -17.1412   21.1400 C   0  0  0  0  0  0
  -28.8048  -22.6295   19.4282 N   0  0  0  0  0  0
  -29.8961  -15.7763   20.7786 N   0  0  0  0  0  0
  -27.5528  -18.2311   22.0198 Cl  0  0  0  0  0  0
  -31.4682  -12.5247   19.1469 H   0  0  0  0  0  0
  -30.3588  -11.4225   19.9149 H   0  0  0  0  0  0
  -29.7684  -11.7353   17.4883 H   0  0  0  0  0  0
  -29.6386  -13.4607   17.7237 H   0  0  0  0  0  0
  -27.8698  -11.2855   18.8852 H   0  0  0  0  0  0
  -27.3681  -12.5477   17.7930 H   0  0  0  0  0  0
  -27.6501  -14.2524   19.4906 H   0  0  0  0  0  0
  -28.7085  -12.1127   21.4017 H   0  0  0  0  0  0
  -28.4378  -13.7874   21.8079 H   0  0  0  0  0  0
  -25.2762   -9.5685   22.4757 H   0  0  0  0  0  0
  -24.0003   -7.4633   22.7471 H   0  0  0  0  0  0
  -21.0842   -8.8769   19.8950 H   0  0  0  0  0  0
  -22.3694  -10.9670   19.6163 H   0  0  0  0  0  0
  -21.2005   -7.6147   23.9714 H   0  0  0  0  0  0
  -21.1481   -6.0523   25.9077 H   0  0  0  0  0  0
  -22.0599   -2.7608   23.2847 H   0  0  0  0  0  0
  -22.4100  -11.9875   22.4804 H   0  0  0  0  0  0
  -21.1092  -13.1230   22.2627 H   0  0  0  0  0  0
  -24.6576  -15.8449   20.5390 H   0  0  0  0  0  0
  -26.2734  -15.6376   20.0988 H   0  0  0  0  0  0
  -26.7172  -32.5425   23.1066 H   0  0  0  0  0  0
  -25.0081  -33.9705   25.0410 H   0  0  0  0  0  0
  -22.7132  -31.3000   21.3970 H   0  0  0  0  0  0
  -23.3751  -35.9616   23.3313 H   0  0  0  0  0  0
  -24.3574  -36.8892   22.2052 H   0  0  0  0  0  0
  -23.7240  -37.6488   23.6657 H   0  0  0  0  0  0
  -26.0879  -31.5519   20.5969 H   0  0  0  0  0  0
  -26.8393  -30.8372   21.9936 H   0  0  0  0  0  0
  -28.1160  -28.9980   21.1496 H   0  0  0  0  0  0
  -25.9411  -25.8558   19.1416 H   0  0  0  0  0  0
  -23.9543  -27.2575   19.0809 H   0  0  0  0  0  0
  -23.7502  -30.5805   19.3992 H   0  0  0  0  0  0
  -22.7503  -29.2364   19.8604 H   0  0  0  0  0  0
  -25.1299  -36.1923   25.0821 H   0  0  0  0  0  0
  -20.9977  -28.3255   24.1409 H   0  0  0  0  0  0
  -20.5663  -26.2294   23.3614 H   0  0  0  0  0  0
  -21.6641  -26.7431   22.1215 H   0  0  0  0  0  0
  -19.6914  -25.6295   21.1239 H   0  0  0  0  0  0
  -19.6693  -27.3195   20.6746 H   0  0  0  0  0  0
  -17.4202  -26.6678   21.4019 H   0  0  0  0  0  0
  -18.0325  -26.0068   22.9012 H   0  0  0  0  0  0
  -19.7938  -30.7268   24.2264 H   0  0  0  0  0  0
  -17.5019  -31.6267   24.5165 H   0  0  0  0  0  0
  -15.5353  -30.2989   23.7657 H   0  0  0  0  0  0
  -15.8671  -28.0827   22.7061 H   0  0  0  0  0  0
  -24.5917  -30.7052   25.7772 H   0  0  0  0  0  0
  -24.8900  -32.2891   26.4834 H   0  0  0  0  0  0
  -25.8057  -30.8934   27.0221 H   0  0  0  0  0  0
  -26.2902  -29.6758   24.1184 H   0  0  0  0  0  0
  -27.4045  -29.7265   25.4651 H   0  0  0  0  0  0
  -27.8764  -30.4299   23.9360 H   0  0  0  0  0  0
  -27.2664  -33.3625   26.2041 H   0  0  0  0  0  0
  -28.3870  -32.6863   25.0309 H   0  0  0  0  0  0
  -28.0707  -31.8448   26.5401 H   0  0  0  0  0  0
  -28.2605  -38.0086   24.7500 H   0  0  0  0  0  0
  -28.1060  -36.2616   24.6311 H   0  0  0  0  0  0
  -27.2294  -37.1470   25.8871 H   0  0  0  0  0  0
  -20.9359  -29.8754   21.6889 H   0  0  0  0  0  0
  -26.0171  -38.2847   24.1405 H   0  0  0  0  0  0
  -31.6569  -18.9498   19.4930 H   0  0  0  0  0  0
  -27.3628  -20.8757   21.0178 H   0  0  0  0  0  0
  -30.0595  -23.9739   17.3962 H   0  0  0  0  0  0
  -28.7194  -23.9329   16.2812 H   0  0  0  0  0  0
  -27.3184  -25.2240   17.7616 H   0  0  0  0  0  0
  -28.8120  -26.0922   17.5386 H   0  0  0  0  0  0
  -28.8340  -21.7877   17.4804 H   0  0  0  0  0  0
  -27.3613  -22.6080   17.9154 H   0  0  0  0  0  0
  -27.2072  -23.7130   20.3198 H   0  0  0  0  0  0
  -28.7069  -23.7768   21.2155 H   0  0  0  0  0  0
  -29.7305  -25.2130   19.5772 H   0  0  0  0  0  0
  -32.3971  -21.0428   18.7546 H   0  0  0  0  0  0
  -31.4681  -22.5100   19.0113 H   0  0  0  0  0  0
  -31.1332  -21.4844   17.6094 H   0  0  0  0  0  0
  -30.3590  -17.2009   22.2268 H   0  0  0  0  0  0
  -31.5022  -17.1482   20.9502 H   0  0  0  0  0  0
  -28.9127  -15.6241   20.9403 H   0  0  0  0  0  0
  1 25  1  0  0  0
  1 30  2  0  0  0
  1 85  1  0  0  0
  2  3  1  0  0  0
  2 25  1  0  0  0
  2 87  1  0  0  0
  2 88  1  0  0  0
  3  4  1  0  0  0
  3 89  1  0  0  0
  3 90  1  0  0  0
  4  5  1  0  0  0
  4 91  1  0  0  0
  4 92  1  0  0  0
  5  6  1  0  0  0
  5 26  1  0  0  0
  5 93  1  0  0  0
  6 25  1  0  0  0
  6 94  1  0  0  0
  6 95  1  0  0  0
  7  8  2  0  0  0
  7 26  1  0  0  0
  7 29  1  0  0  0
  8  9  1  0  0  0
  8 22  1  0  0  0
  9 10  1  0  0  0
  9 27  2  0  0  0
 10 11  2  0  0  0
 10 15  1  0  0  0
 11 12  1  0  0  0
 11 96  1  0  0  0
 12 13  2  0  0  0
 12 97  1  0  0  0
 13 14  1  0  0  0
 13 31  1  0  0  0
 14 15  2  0  0  0
 14 98  1  0  0  0
 15 99  1  0  0  0
 16 17  2  0  0  0
 16 21  1  0  0  0
 16 31  1  0  0  0
 17 18  1  0  0  0
 17100  1  0  0  0
 18 19  2  0  0  0
 18101  1  0  0  0
 19 20  1  0  0  0
 19 24  1  0  0  0
 20 21  2  0  0  0
 20102  1  0  0  0
 21 23  1  0  0  0
 22 28  1  0  0  0
 22 32  2  0  0  0
 26 27  1  0  0  0
 28103  1  0  0  0
 28104  1  0  0  0
 29105  1  0  0  0
 29106  1  0  0  0
 33 34  1  0  0  0
 33 66  1  0  0  0
 33 70  2  0  0  0
 34 36  1  0  0  0
 34 59  1  0  0  0
 34107  1  0  0  0
 35 44  2  0  0  0
 35 45  1  0  0  0
 35 68  1  0  0  0
 36 56  1  0  0  0
 36108  1  0  0  0
 37 39  1  0  0  0
 37 47  1  0  0  0
 37 66  1  0  0  0
 37109  1  0  0  0
 38 43  2  0  0  0
 38 46  1  0  0  0
 38 47  1  0  0  0
 39 64  1  0  0  0
 39 67  2  0  0  0
 40 52  1  0  0  0
 40 53  2  0  0  0
 40 58  1  0  0  0
 41110  1  0  0  0
 41111  1  0  0  0
 41112  1  0  0  0
 41 48  1  0  0  0
 42 43  1  0  0  0
 42 66  1  0  0  0
 42113  1  0  0  0
 42114  1  0  0  0
 43 44  1  0  0  0
 44115  1  0  0  0
 45 46  2  0  0  0
 45116  1  0  0  0
 46117  1  0  0  0
 47118  1  0  0  0
 47119  1  0  0  0
 48 56  1  0  0  0
 48 65  1  0  0  0
 48120  1  0  0  0
 49 50  1  0  0  0
 49 53  1  0  0  0
 49 64  1  0  0  0
 49121  1  0  0  0
 50 51  1  0  0  0
 50122  1  0  0  0
 50123  1  0  0  0
 51 52  1  0  0  0
 51124  1  0  0  0
 51125  1  0  0  0
 52126  1  0  0  0
 52127  1  0  0  0
 53 54  1  0  0  0
 54 55  2  0  0  0
 54128  1  0  0  0
 55 57  1  0  0  0
 55129  1  0  0  0
 56 69  2  0  0  0
 57 58  2  0  0  0
 57130  1  0  0  0
 58131  1  0  0  0
 59 60  1  0  0  0
 59 61  1  0  0  0
 59 62  1  0  0  0
 60132  1  0  0  0
 60133  1  0  0  0
 60134  1  0  0  0
 61135  1  0  0  0
 61136  1  0  0  0
 61137  1  0  0  0
 62138  1  0  0  0
 62139  1  0  0  0
 62140  1  0  0  0
 63 65  1  0  0  0
 63141  1  0  0  0
 63142  1  0  0  0
 63143  1  0  0  0
 64144  1  0  0  0
 65145  1  0  0  0
 68 81  1  0  0  0
 71 73  2  0  0  0
 71 74  1  0  0  0
 71146  1  0  0  0
 72 75  2  0  0  0
 72 76  1  0  0  0
 72147  1  0  0  0
 73 75  1  0  0  0
 73 82  1  0  0  0
 74 76  2  0  0  0
 74 83  1  0  0  0
 75 84  1  0  0  0
 76 86  1  0  0  0
 77 78  1  0  0  0
 77 79  1  0  0  0
 77148  1  0  0  0
 77149  1  0  0  0
 78 81  1  0  0  0
 78150  1  0  0  0
 78151  1  0  0  0
 79 84  1  0  0  0
 79152  1  0  0  0
 79153  1  0  0  0
 80 81  1  0  0  0
 80 84  1  0  0  0
 80154  1  0  0  0
 80155  1  0  0  0
 81156  1  0  0  0
 82157  1  0  0  0
 82158  1  0  0  0
 82159  1  0  0  0
 83 85  1  0  0  0
 83160  1  0  0  0
 83161  1  0  0  0
 85162  1  0  0  0
M  ISO  4   1 100  68 101  81 101  85 100
M  END
> <chiral flag>
0

> <version>
0

> <s_m_source_file>
/data/baiqing/PycharmProjects/Reinvent-master-3.2/result/LINK_invent/BTK/process_docking_weight1_custom_product_contain_oxygen_bond_distance_aromatic_linkinvent_7_9_3/rearranged_h_0032.sdf

> <i_m_source_file_index>
49

> <r_mmod_Potential_Energy-OPLS-2005>
117.122329711914

> <r_mmod_Stretch_Energy-OPLS-2005>
87.4594421386719

> <r_mmod_Bend_Energy-OPLS-2005>
198.554595947266

> <r_mmod_Torsional_Energy-OPLS-2005>
246.864364624023

> <r_mmod_Improper_Torsional_Energy-OPLS-2005>
7.05210256576538

> <r_mmod_Van_der_Waal_Energy-OPLS-2005>
142.356369018555

> <r_mmod_Electrostatic_Energy-OPLS-2005>
-410.614044189453

> <r_mmod_Solvation_Energy-OPLS-2005>
-206.111679077148

> <b_mmod_Minimization_Converged-OPLS-2005>
0

> <r_mmod_RMS_Derivative-OPLS-2005>
0.292243838310242

$$$$
49
                    3D
 Structure written by MMmdl.
158167  0  0  1  0            999 V2000
  -30.7084  -14.5293   20.5605 C   0  0  0  0  0  0
  -30.4095  -12.3498   19.4363 C   0  0  0  0  0  0
  -29.4877  -12.5051   18.2111 C   0  0  0  0  0  0
  -28.0136  -12.3480   18.6294 C   0  0  0  0  0  0
  -27.6482  -13.2129   19.8648 C   0  0  2  0  0  0
  -28.6888  -13.0612   20.9948 C   0  0  0  0  0  0
  -25.2541  -13.8192   20.5653 C   0  0  0  0  0  0
  -24.1808  -13.0468   20.9184 C   0  0  0  0  0  0
  -24.6369  -11.6935   20.8740 C   0  0  0  0  0  0
  -23.9038  -10.4318   21.0413 C   0  0  0  0  0  0
  -24.3617   -9.4235   21.9184 C   0  0  0  0  0  0
  -23.6317   -8.2253   22.0728 C   0  0  0  0  0  0
  -22.4295   -8.0290   21.3530 C   0  0  0  0  0  0
  -21.9918   -9.0252   20.4625 C   0  0  0  0  0  0
  -22.7219  -10.2151   20.3046 C   0  0  0  0  0  0
  -21.6865   -6.0750   22.5271 C   0  0  0  0  0  0
  -21.4023   -6.5656   23.8206 C   0  0  0  0  0  0
  -21.3637   -5.6807   24.9169 C   0  0  0  0  0  0
  -21.6025   -4.3066   24.7220 C   0  0  0  0  0  0
  -21.8816   -3.8162   23.4346 C   0  0  0  0  0  0
  -21.9202   -4.6980   22.3404 C   0  0  0  0  0  0
  -22.7834  -13.5253   21.1860 C   0  0  0  0  0  0
  -22.1679   -4.2172   21.0986 F   0  0  0  0  0  0
  -21.5612   -3.4540   25.7722 F   0  0  0  0  0  0
  -30.0087  -13.3663   20.4270 N   0  0  0  0  0  0
  -26.2955  -12.9350   20.3324 N   0  0  0  0  0  0
  -25.9292  -11.6515   20.5762 N   0  0  0  0  0  0
  -22.0500  -12.8216   22.0419 N   0  0  0  0  0  0
  -25.4271  -15.1914   20.3993 N   0  0  0  0  0  0
  -31.8525  -14.6530   20.1237 O   0  0  0  0  0  0
  -21.6675   -6.8883   21.4223 O   0  0  0  0  0  0
  -22.3519  -14.5561   20.6714 O   0  0  0  0  0  0
  -24.6205  -31.8625   23.2058 C   0  0  0  0  0  0
  -25.9051  -32.4803   23.8393 C   0  0  1  0  0  0
  -27.2266  -27.3817   20.1031 C   0  0  0  0  0  0
  -25.5879  -33.8606   24.2319 N   0  0  0  0  0  0
  -23.4125  -30.4853   21.5445 C   0  0  2  0  0  0
  -24.8618  -28.9448   20.1120 C   0  0  0  0  0  0
  -22.7460  -29.4637   22.4954 C   0  0  0  0  0  0
  -18.0299  -28.1405   22.8479 C   0  0  0  0  0  0
  -24.1489  -36.7333   23.2643 C   0  0  0  0  0  0
  -25.9487  -30.8108   21.3668 C   0  0  0  0  0  0
  -26.0249  -29.4396   20.7180 C   0  0  0  0  0  0
  -27.2125  -28.6628   20.7180 C   0  0  0  0  0  0
  -26.0527  -26.9187   19.4788 C   0  0  0  0  0  0
  -24.8713  -27.6855   19.4899 C   0  0  0  0  0  0
  -23.6252  -29.8169   20.1598 C   0  0  0  0  0  0
  -25.4110  -36.3124   24.0340 C   0  0  1  0  0  0
  -20.5890  -28.3718   23.1304 C   0  0  2  0  0  0
  -20.6799  -26.9445   22.5426 C   0  0  0  0  0  0
  -19.5786  -26.6426   21.5220 C   0  0  0  0  0  0
  -18.1964  -26.7946   22.1633 C   0  0  0  0  0  0
  -19.1537  -28.8875   23.2890 C   0  0  0  0  0  0
  -18.9461  -30.1478   23.8884 C   0  0  0  0  0  0
  -17.6453  -30.6596   24.0565 C   0  0  0  0  0  0
  -25.9027  -34.9475   23.5132 C   0  0  0  0  0  0
  -16.5348  -29.9092   23.6315 C   0  0  0  0  0  0
  -16.7279  -28.6522   23.0310 C   0  0  0  0  0  0
  -26.4459  -31.6604   25.0747 C   0  0  0  0  0  0
  -25.3705  -31.3712   26.1479 C   0  0  0  0  0  0
  -27.0298  -30.3044   24.6147 C   0  0  0  0  0  0
  -27.6051  -32.4313   25.7484 C   0  0  0  0  0  0
  -27.5584  -37.1828   24.8467 C   0  0  0  0  0  0
  -21.4183  -29.3049   22.3690 N   0  0  0  0  0  0
  -26.4310  -37.3800   23.9393 N   0  0  0  0  0  0
  -24.6787  -31.0696   22.0967 N   0  0  0  0  0  0
  -23.4206  -28.8180   23.3027 O   0  0  0  0  0  0
  -28.3348  -26.5504   20.0828 O   0  0  0  0  0  0
  -26.5615  -34.8926   22.4713 O   0  0  0  0  0  0
  -23.5383  -32.1371   23.7424 O   0  0  0  0  0  0
  -27.6260  -18.5788   20.8140 C   0  0  0  0  0  0
  -29.8220  -20.2526   20.6316 C   0  0  0  0  0  0
  -27.4577  -19.9907   20.8310 C   0  0  0  0  0  0
  -28.8953  -17.9661   20.7462 C   0  0  0  0  0  0
  -28.5556  -20.9046   20.7119 C   0  0  0  0  0  0
  -30.0023  -18.8446   20.6705 C   0  0  0  0  0  0
  -27.5020  -23.4060   20.7476 C   0  0  0  0  0  0
  -29.5778  -23.2848   20.7276 C   0  0  0  0  0  0
  -28.6021  -24.2765   21.4228 C   0  0  1  0  0  0
  -26.0411  -20.4970   21.0286 C   0  0  0  0  0  0
  -28.9905  -16.4063   20.7480 C   0  0  0  0  0  0
  -28.5909  -25.8443   21.3185 C   0  0  0  0  0  0
  -28.4392  -22.3624   20.7166 N   0  0  0  0  0  0
  -30.1424  -15.5845   21.1951 N   0  0  0  0  0  0
  -26.3428  -23.5028   20.4112 O   0  0  0  0  0  0
  -31.2578  -18.3395   20.6219 F   0  0  0  0  0  0
  -31.4520  -12.4389   19.1268 H   0  0  0  0  0  0
  -30.3198  -11.3515   19.8650 H   0  0  0  0  0  0
  -29.7415  -11.7669   17.4501 H   0  0  0  0  0  0
  -29.6442  -13.4828   17.7495 H   0  0  0  0  0  0
  -27.8478  -11.2941   18.8558 H   0  0  0  0  0  0
  -27.3571  -12.5839   17.7913 H   0  0  0  0  0  0
  -27.6737  -14.2493   19.5341 H   0  0  0  0  0  0
  -28.6787  -12.0438   21.3916 H   0  0  0  0  0  0
  -28.4424  -13.7113   21.8358 H   0  0  0  0  0  0
  -25.2743   -9.5759   22.4785 H   0  0  0  0  0  0
  -24.0033   -7.4648   22.7441 H   0  0  0  0  0  0
  -21.0842   -8.8761   19.8939 H   0  0  0  0  0  0
  -22.3639  -10.9705   19.6187 H   0  0  0  0  0  0
  -21.2026   -7.6170   23.9714 H   0  0  0  0  0  0
  -21.1458   -6.0545   25.9078 H   0  0  0  0  0  0
  -22.0624   -2.7630   23.2836 H   0  0  0  0  0  0
  -22.4135  -11.9871   22.4770 H   0  0  0  0  0  0
  -21.1114  -13.1192   22.2638 H   0  0  0  0  0  0
  -24.6539  -15.8446   20.4675 H   0  0  0  0  0  0
  -26.2678  -15.6102   20.0239 H   0  0  0  0  0  0
  -26.7135  -32.5484   23.1169 H   0  0  0  0  0  0
  -24.9994  -33.9776   25.0435 H   0  0  0  0  0  0
  -22.7023  -31.3014   21.4006 H   0  0  0  0  0  0
  -23.3745  -35.9669   23.3326 H   0  0  0  0  0  0
  -24.3593  -36.8933   22.2057 H   0  0  0  0  0  0
  -23.7236  -37.6550   23.6634 H   0  0  0  0  0  0
  -26.0704  -31.5716   20.5958 H   0  0  0  0  0  0
  -26.8329  -30.8650   21.9894 H   0  0  0  0  0  0
  -28.1115  -29.0339   21.1900 H   0  0  0  0  0  0
  -26.0465  -25.9516   18.9955 H   0  0  0  0  0  0
  -23.9768  -27.2997   19.0195 H   0  0  0  0  0  0
  -23.7399  -30.5871   19.3962 H   0  0  0  0  0  0
  -22.7489  -29.2368   19.8639 H   0  0  0  0  0  0
  -25.1290  -36.2012   25.0834 H   0  0  0  0  0  0
  -20.9984  -28.3309   24.1429 H   0  0  0  0  0  0
  -20.5739  -26.2328   23.3618 H   0  0  0  0  0  0
  -21.6673  -26.7489   22.1222 H   0  0  0  0  0  0
  -19.6961  -25.6354   21.1232 H   0  0  0  0  0  0
  -19.6737  -27.3260   20.6764 H   0  0  0  0  0  0
  -17.4240  -26.6660   21.4043 H   0  0  0  0  0  0
  -18.0378  -26.0102   22.9039 H   0  0  0  0  0  0
  -19.7921  -30.7307   24.2266 H   0  0  0  0  0  0
  -17.4991  -31.6265   24.5181 H   0  0  0  0  0  0
  -15.5353  -30.2981   23.7635 H   0  0  0  0  0  0
  -15.8688  -28.0859   22.6979 H   0  0  0  0  0  0
  -24.5852  -30.7107   25.7784 H   0  0  0  0  0  0
  -24.8936  -32.2876   26.4962 H   0  0  0  0  0  0
  -25.8032  -30.8826   27.0211 H   0  0  0  0  0  0
  -26.2871  -29.6815   24.1150 H   0  0  0  0  0  0
  -27.4018  -29.7279   25.4627 H   0  0  0  0  0  0
  -27.8720  -30.4400   23.9354 H   0  0  0  0  0  0
  -27.2688  -33.3575   26.2137 H   0  0  0  0  0  0
  -28.3784  -32.6920   25.0249 H   0  0  0  0  0  0
  -28.0780  -31.8382   26.5317 H   0  0  0  0  0  0
  -28.2629  -38.0108   24.7489 H   0  0  0  0  0  0
  -28.1063  -36.2637   24.6315 H   0  0  0  0  0  0
  -27.2306  -37.1506   25.8879 H   0  0  0  0  0  0
  -20.9369  -29.8779   21.6901 H   0  0  0  0  0  0
  -26.0216  -38.2897   24.1348 H   0  0  0  0  0  0
  -26.7586  -17.9349   20.8850 H   0  0  0  0  0  0
  -30.7212  -20.8446   20.5541 H   0  0  0  0  0  0
  -30.4160  -22.9901   21.3615 H   0  0  0  0  0  0
  -29.9012  -23.5978   19.7304 H   0  0  0  0  0  0
  -28.6381  -24.0374   22.4879 H   0  0  0  0  0  0
  -25.6773  -21.0070   20.1365 H   0  0  0  0  0  0
  -26.0053  -21.1816   21.8756 H   0  0  0  0  0  0
  -25.3485  -19.6847   21.2524 H   0  0  0  0  0  0
  -29.5785  -16.6016   19.8479 H   0  0  0  0  0  0
  -29.0638  -16.6496   21.8093 H   0  0  0  0  0  0
  -29.5753  -26.1937   21.6314 H   0  0  0  0  0  0
  -27.9268  -26.2256   22.0974 H   0  0  0  0  0  0
  -30.8660  -16.1861   21.5633 H   0  0  0  0  0  0
  1 25  1  0  0  0
  1 30  2  0  0  0
  1 84  1  0  0  0
  2  3  1  0  0  0
  2 25  1  0  0  0
  2 87  1  0  0  0
  2 88  1  0  0  0
  3  4  1  0  0  0
  3 89  1  0  0  0
  3 90  1  0  0  0
  4  5  1  0  0  0
  4 91  1  0  0  0
  4 92  1  0  0  0
  5  6  1  0  0  0
  5 26  1  0  0  0
  5 93  1  0  0  0
  6 25  1  0  0  0
  6 94  1  0  0  0
  6 95  1  0  0  0
  7  8  2  0  0  0
  7 26  1  0  0  0
  7 29  1  0  0  0
  8  9  1  0  0  0
  8 22  1  0  0  0
  9 10  1  0  0  0
  9 27  2  0  0  0
 10 11  2  0  0  0
 10 15  1  0  0  0
 11 12  1  0  0  0
 11 96  1  0  0  0
 12 13  2  0  0  0
 12 97  1  0  0  0
 13 14  1  0  0  0
 13 31  1  0  0  0
 14 15  2  0  0  0
 14 98  1  0  0  0
 15 99  1  0  0  0
 16 17  2  0  0  0
 16 21  1  0  0  0
 16 31  1  0  0  0
 17 18  1  0  0  0
 17100  1  0  0  0
 18 19  2  0  0  0
 18101  1  0  0  0
 19 20  1  0  0  0
 19 24  1  0  0  0
 20 21  2  0  0  0
 20102  1  0  0  0
 21 23  1  0  0  0
 22 28  1  0  0  0
 22 32  2  0  0  0
 26 27  1  0  0  0
 28103  1  0  0  0
 28104  1  0  0  0
 29105  1  0  0  0
 29106  1  0  0  0
 33 34  1  0  0  0
 33 66  1  0  0  0
 33 70  2  0  0  0
 34 36  1  0  0  0
 34 59  1  0  0  0
 34107  1  0  0  0
 35 44  2  0  0  0
 35 45  1  0  0  0
 35 68  1  0  0  0
 36 56  1  0  0  0
 36108  1  0  0  0
 37 39  1  0  0  0
 37 47  1  0  0  0
 37 66  1  0  0  0
 37109  1  0  0  0
 38 43  2  0  0  0
 38 46  1  0  0  0
 38 47  1  0  0  0
 39 64  1  0  0  0
 39 67  2  0  0  0
 40 52  1  0  0  0
 40 53  2  0  0  0
 40 58  1  0  0  0
 41110  1  0  0  0
 41111  1  0  0  0
 41112  1  0  0  0
 41 48  1  0  0  0
 42 43  1  0  0  0
 42 66  1  0  0  0
 42113  1  0  0  0
 42114  1  0  0  0
 43 44  1  0  0  0
 44115  1  0  0  0
 45 46  2  0  0  0
 45116  1  0  0  0
 46117  1  0  0  0
 47118  1  0  0  0
 47119  1  0  0  0
 48 56  1  0  0  0
 48 65  1  0  0  0
 48120  1  0  0  0
 49 50  1  0  0  0
 49 53  1  0  0  0
 49 64  1  0  0  0
 49121  1  0  0  0
 50 51  1  0  0  0
 50122  1  0  0  0
 50123  1  0  0  0
 51 52  1  0  0  0
 51124  1  0  0  0
 51125  1  0  0  0
 52126  1  0  0  0
 52127  1  0  0  0
 53 54  1  0  0  0
 54 55  2  0  0  0
 54128  1  0  0  0
 55 57  1  0  0  0
 55129  1  0  0  0
 56 69  2  0  0  0
 57 58  2  0  0  0
 57130  1  0  0  0
 58131  1  0  0  0
 59 60  1  0  0  0
 59 61  1  0  0  0
 59 62  1  0  0  0
 60132  1  0  0  0
 60133  1  0  0  0
 60134  1  0  0  0
 61135  1  0  0  0
 61136  1  0  0  0
 61137  1  0  0  0
 62138  1  0  0  0
 62139  1  0  0  0
 62140  1  0  0  0
 63 65  1  0  0  0
 63141  1  0  0  0
 63142  1  0  0  0
 63143  1  0  0  0
 64144  1  0  0  0
 65145  1  0  0  0
 68 82  1  0  0  0
 71 73  2  0  0  0
 71 74  1  0  0  0
 71146  1  0  0  0
 72 75  2  0  0  0
 72 76  1  0  0  0
 72147  1  0  0  0
 73 75  1  0  0  0
 73 80  1  0  0  0
 74 76  2  0  0  0
 74 81  1  0  0  0
 75 83  1  0  0  0
 76 86  1  0  0  0
 77 79  1  0  0  0
 77 83  1  0  0  0
 77 85  2  0  0  0
 78 79  1  0  0  0
 78 83  1  0  0  0
 78148  1  0  0  0
 78149  1  0  0  0
 79 82  1  0  0  0
 79150  1  0  0  0
 80151  1  0  0  0
 80152  1  0  0  0
 80153  1  0  0  0
 81 84  1  0  0  0
 81154  1  0  0  0
 81155  1  0  0  0
 82156  1  0  0  0
 82157  1  0  0  0
 84158  1  0  0  0
M  ISO  4   1 100  68 101  82 101  84 100
M  END
> <chiral flag>
0

> <version>
0

> <s_m_source_file>
/data/baiqing/PycharmProjects/Reinvent-master-3.2/result/LINK_invent/BTK/process_docking_weight1_custom_product_contain_oxygen_bond_distance_aromatic_linkinvent_7_9_3/rearranged_h_0032.sdf

> <i_m_source_file_index>
50

> <r_mmod_Potential_Energy-OPLS-2005>
283.706085205078

> <r_mmod_Stretch_Energy-OPLS-2005>
55.6779861450195

> <r_mmod_Bend_Energy-OPLS-2005>
404.625

> <r_mmod_Torsional_Energy-OPLS-2005>
281.339538574219

> <r_mmod_Improper_Torsional_Energy-OPLS-2005>
6.02700281143188

> <r_mmod_Van_der_Waal_Energy-OPLS-2005>
144.256423950195

> <r_mmod_Electrostatic_Energy-OPLS-2005>
-422.803497314453

> <r_mmod_Solvation_Energy-OPLS-2005>
-210.823028564453

> <b_mmod_Minimization_Converged-OPLS-2005>
0

> <r_mmod_RMS_Derivative-OPLS-2005>
4.00204944610596

$$$$
50
                    3D
 Structure written by MMmdl.
164173  0  0  1  0            999 V2000
  -30.6234  -14.5634   20.4623 C   0  0  0  0  0  0
  -30.4224  -12.3435   19.3969 C   0  0  0  0  0  0
  -29.4689  -12.4562   18.1796 C   0  0  0  0  0  0
  -27.9955  -12.3272   18.6114 C   0  0  0  0  0  0
  -27.6488  -13.1954   19.8482 C   0  0  2  0  0  0
  -28.7038  -13.0276   20.9654 C   0  0  0  0  0  0
  -25.2618  -13.8072   20.5729 C   0  0  0  0  0  0
  -24.1855  -13.0421   20.9182 C   0  0  0  0  0  0
  -24.6385  -11.6866   20.8715 C   0  0  0  0  0  0
  -23.9059  -10.4299   21.0415 C   0  0  0  0  0  0
  -24.3604   -9.4221   21.9201 C   0  0  0  0  0  0
  -23.6286   -8.2242   22.0767 C   0  0  0  0  0  0
  -22.4285   -8.0274   21.3547 C   0  0  0  0  0  0
  -21.9897   -9.0254   20.4661 C   0  0  0  0  0  0
  -22.7215  -10.2143   20.3080 C   0  0  0  0  0  0
  -21.6844   -6.0737   22.5279 C   0  0  0  0  0  0
  -21.3985   -6.5638   23.8211 C   0  0  0  0  0  0
  -21.3655   -5.6786   24.9169 C   0  0  0  0  0  0
  -21.6055   -4.3060   24.7219 C   0  0  0  0  0  0
  -21.8828   -3.8156   23.4346 C   0  0  0  0  0  0
  -21.9210   -4.6968   22.3399 C   0  0  0  0  0  0
  -22.7924  -13.5279   21.1825 C   0  0  0  0  0  0
  -22.1681   -4.2152   21.0979 F   0  0  0  0  0  0
  -21.5646   -3.4547   25.7742 F   0  0  0  0  0  0
  -30.0106  -13.3507   20.3838 N   0  0  0  0  0  0
  -26.3001  -12.9245   20.3295 N   0  0  0  0  0  0
  -25.9308  -11.6423   20.5768 N   0  0  0  0  0  0
  -22.0492  -12.8288   22.0327 N   0  0  0  0  0  0
  -25.4374  -15.1764   20.4286 N   0  0  0  0  0  0
  -31.8095  -14.7253   20.1571 O   0  0  0  0  0  0
  -21.6640   -6.8880   21.4253 O   0  0  0  0  0  0
  -22.3648  -14.5586   20.6650 O   0  0  0  0  0  0
  -24.6186  -31.8662   23.2085 C   0  0  0  0  0  0
  -25.9041  -32.4799   23.8398 C   0  0  1  0  0  0
  -27.2048  -27.3871   20.1418 C   0  0  0  0  0  0
  -25.5866  -33.8598   24.2263 N   0  0  0  0  0  0
  -23.4049  -30.4908   21.5471 C   0  0  2  0  0  0
  -24.8570  -28.9590   20.1060 C   0  0  0  0  0  0
  -22.7389  -29.4711   22.5006 C   0  0  0  0  0  0
  -18.0333  -28.1325   22.8514 C   0  0  0  0  0  0
  -24.1465  -36.7331   23.2623 C   0  0  0  0  0  0
  -25.9394  -30.8292   21.3615 C   0  0  0  0  0  0
  -26.0160  -29.4582   20.7108 C   0  0  0  0  0  0
  -27.2015  -28.6821   20.7149 C   0  0  0  0  0  0
  -26.0394  -26.9231   19.4996 C   0  0  0  0  0  0
  -24.8621  -27.6916   19.4930 C   0  0  0  0  0  0
  -23.6167  -29.8266   20.1603 C   0  0  0  0  0  0
  -25.4080  -36.3096   24.0312 C   0  0  1  0  0  0
  -20.5901  -28.3622   23.1337 C   0  0  2  0  0  0
  -20.6867  -26.9361   22.5390 C   0  0  0  0  0  0
  -19.5782  -26.6308   21.5224 C   0  0  0  0  0  0
  -18.1973  -26.7804   22.1694 C   0  0  0  0  0  0
  -19.1579  -28.8780   23.2946 C   0  0  0  0  0  0
  -18.9507  -30.1450   23.8902 C   0  0  0  0  0  0
  -17.6495  -30.6593   24.0544 C   0  0  0  0  0  0
  -25.9030  -34.9471   23.5101 C   0  0  0  0  0  0
  -16.5391  -29.9131   23.6246 C   0  0  0  0  0  0
  -16.7326  -28.6470   23.0405 C   0  0  0  0  0  0
  -26.4459  -31.6608   25.0723 C   0  0  0  0  0  0
  -25.3711  -31.3799   26.1446 C   0  0  0  0  0  0
  -27.0276  -30.3037   24.6127 C   0  0  0  0  0  0
  -27.5983  -32.4345   25.7520 C   0  0  0  0  0  0
  -27.5585  -37.1812   24.8460 C   0  0  0  0  0  0
  -21.4128  -29.2973   22.3711 N   0  0  0  0  0  0
  -26.4282  -37.3796   23.9411 N   0  0  0  0  0  0
  -24.6724  -31.0746   22.0979 N   0  0  0  0  0  0
  -23.4165  -28.8223   23.2945 O   0  0  0  0  0  0
  -28.3016  -26.5548   20.2528 O   0  0  0  0  0  0
  -26.5604  -34.8925   22.4674 O   0  0  0  0  0  0
  -23.5372  -32.1424   23.7462 O   0  0  0  0  0  0
  -27.8413  -17.7059   19.7955 C   0  0  0  0  0  0
  -26.7582  -18.5983   19.6943 C   0  0  0  0  0  0
  -29.0228  -18.0791   20.4651 C   0  0  0  0  0  0
  -28.0454  -20.3564   20.8596 C   0  0  0  0  0  0
  -26.8331  -19.8940   20.2683 C   0  0  0  0  0  0
  -29.1308  -19.4221   20.9404 C   0  0  0  0  0  0
  -26.5803  -23.6595   22.0341 C   0  0  0  0  0  0
  -25.6333  -23.0846   22.8012 C   0  0  0  0  0  0
  -26.9722  -25.1276   21.9980 C   0  0  0  0  0  0
  -28.0643  -23.9642   20.1636 C   0  0  0  0  0  0
  -28.1203  -25.2812   20.9765 C   0  0  1  0  0  0
  -25.5114  -18.1564   18.9412 C   0  0  0  0  0  0
  -30.1720  -17.0456   20.6166 C   0  0  0  0  0  0
  -28.1967  -21.7785   21.4951 C   0  0  0  0  0  0
  -29.7996  -15.6127   20.6723 N   0  0  0  0  0  0
  -27.3648  -22.9278   20.9872 N   0  3  2  0  0  0
  -25.3942  -20.8641   20.2240 Cl  0  0  0  0  0  0
  -30.6250  -19.9048   21.6764 Cl  0  0  0  0  0  0
  -31.4559  -12.4867   19.0684 H   0  0  0  0  0  0
  -30.3740  -11.3433   19.8282 H   0  0  0  0  0  0
  -29.6996  -11.6801   17.4483 H   0  0  0  0  0  0
  -29.6217  -13.4019   17.6601 H   0  0  0  0  0  0
  -27.8096  -11.2788   18.8330 H   0  0  0  0  0  0
  -27.3327  -12.5752   17.7793 H   0  0  0  0  0  0
  -27.6720  -14.2282   19.5043 H   0  0  0  0  0  0
  -28.7097  -12.0011   21.3293 H   0  0  0  0  0  0
  -28.4777  -13.6496   21.8320 H   0  0  0  0  0  0
  -25.2744   -9.5709   22.4781 H   0  0  0  0  0  0
  -24.0006   -7.4651   22.7497 H   0  0  0  0  0  0
  -21.0814   -8.8796   19.8970 H   0  0  0  0  0  0
  -22.3675  -10.9701   19.6209 H   0  0  0  0  0  0
  -21.1921   -7.6141   23.9700 H   0  0  0  0  0  0
  -21.1461   -6.0520   25.9070 H   0  0  0  0  0  0
  -22.0603   -2.7621   23.2844 H   0  0  0  0  0  0
  -22.4060  -11.9942   22.4742 H   0  0  0  0  0  0
  -21.1153  -13.1389   22.2511 H   0  0  0  0  0  0
  -24.6702  -15.8254   20.5630 H   0  0  0  0  0  0
  -26.2964  -15.6305   20.1487 H   0  0  0  0  0  0
  -26.7100  -32.5518   23.1182 H   0  0  0  0  0  0
  -25.0056  -33.9775   25.0420 H   0  0  0  0  0  0
  -22.7032  -31.3140   21.4105 H   0  0  0  0  0  0
  -23.3740  -35.9686   23.3300 H   0  0  0  0  0  0
  -24.3581  -36.8945   22.2059 H   0  0  0  0  0  0
  -23.7245  -37.6525   23.6662 H   0  0  0  0  0  0
  -26.0494  -31.5940   20.5882 H   0  0  0  0  0  0
  -26.8349  -30.8891   21.9744 H   0  0  0  0  0  0
  -28.0979  -29.0587   21.1840 H   0  0  0  0  0  0
  -26.0248  -25.9438   19.0526 H   0  0  0  0  0  0
  -23.9642  -27.2949   19.0356 H   0  0  0  0  0  0
  -23.7342  -30.6107   19.4132 H   0  0  0  0  0  0
  -22.7435  -29.2522   19.8513 H   0  0  0  0  0  0
  -25.1285  -36.1974   25.0826 H   0  0  0  0  0  0
  -21.0111  -28.3216   24.1479 H   0  0  0  0  0  0
  -20.5804  -26.2332   23.3666 H   0  0  0  0  0  0
  -21.6764  -26.7273   22.1297 H   0  0  0  0  0  0
  -19.6840  -25.6120   21.1342 H   0  0  0  0  0  0
  -19.6663  -27.3016   20.6662 H   0  0  0  0  0  0
  -17.4135  -26.6459   21.4258 H   0  0  0  0  0  0
  -18.0388  -26.0074   22.9158 H   0  0  0  0  0  0
  -19.7957  -30.7300   24.2215 H   0  0  0  0  0  0
  -17.5020  -31.6252   24.5211 H   0  0  0  0  0  0
  -15.5377  -30.2967   23.7638 H   0  0  0  0  0  0
  -15.8723  -28.0766   22.7123 H   0  0  0  0  0  0
  -24.5835  -30.7168   25.7865 H   0  0  0  0  0  0
  -24.8931  -32.2984   26.4858 H   0  0  0  0  0  0
  -25.7999  -30.9030   27.0255 H   0  0  0  0  0  0
  -26.2862  -29.6816   24.1071 H   0  0  0  0  0  0
  -27.3934  -29.7235   25.4614 H   0  0  0  0  0  0
  -27.8748  -30.4343   23.9377 H   0  0  0  0  0  0
  -27.2544  -33.3628   26.2121 H   0  0  0  0  0  0
  -28.3814  -32.6935   25.0379 H   0  0  0  0  0  0
  -28.0632  -31.8453   26.5443 H   0  0  0  0  0  0
  -28.2576  -38.0122   24.7510 H   0  0  0  0  0  0
  -28.1069  -36.2650   24.6261 H   0  0  0  0  0  0
  -27.2301  -37.1463   25.8852 H   0  0  0  0  0  0
  -20.9383  -29.8393   21.6628 H   0  0  0  0  0  0
  -26.0160  -38.2879   24.1408 H   0  0  0  0  0  0
  -27.7618  -16.7271   19.3439 H   0  0  0  0  0  0
  -25.0524  -23.6715   23.4932 H   0  0  0  0  0  0
  -25.4025  -22.0298   22.7445 H   0  0  0  0  0  0
  -27.2854  -25.4634   22.9824 H   0  0  0  0  0  0
  -26.0740  -25.6871   21.7576 H   0  0  0  0  0  0
  -29.0528  -23.6497   19.8270 H   0  0  0  0  0  0
  -27.4630  -24.1075   19.2662 H   0  0  0  0  0  0
  -29.0235  -25.1972   21.5848 H   0  0  0  0  0  0
  -25.2804  -18.8650   18.1457 H   0  0  0  0  0  0
  -24.6578  -18.0962   19.6126 H   0  0  0  0  0  0
  -25.6431  -17.1745   18.4824 H   0  0  0  0  0  0
  -30.7315  -17.2526   21.5310 H   0  0  0  0  0  0
  -30.8695  -17.2069   19.7927 H   0  0  0  0  0  0
  -29.2333  -22.0975   21.4231 H   0  0  0  0  0  0
  -28.0210  -21.6513   22.5645 H   0  0  0  0  0  0
  -28.8293  -15.4050   20.8606 H   0  0  0  0  0  0
  -26.7057  -22.4760   20.3708 H   0  0  0  0  0  0
  1 25  1  0  0  0
  1 30  2  0  0  0
  1 85  1  0  0  0
  2  3  1  0  0  0
  2 25  1  0  0  0
  2 89  1  0  0  0
  2 90  1  0  0  0
  3  4  1  0  0  0
  3 91  1  0  0  0
  3 92  1  0  0  0
  4  5  1  0  0  0
  4 93  1  0  0  0
  4 94  1  0  0  0
  5  6  1  0  0  0
  5 26  1  0  0  0
  5 95  1  0  0  0
  6 25  1  0  0  0
  6 96  1  0  0  0
  6 97  1  0  0  0
  7  8  2  0  0  0
  7 26  1  0  0  0
  7 29  1  0  0  0
  8  9  1  0  0  0
  8 22  1  0  0  0
  9 10  1  0  0  0
  9 27  2  0  0  0
 10 11  2  0  0  0
 10 15  1  0  0  0
 11 12  1  0  0  0
 11 98  1  0  0  0
 12 13  2  0  0  0
 12 99  1  0  0  0
 13 14  1  0  0  0
 13 31  1  0  0  0
 14 15  2  0  0  0
 14100  1  0  0  0
 15101  1  0  0  0
 16 17  2  0  0  0
 16 21  1  0  0  0
 16 31  1  0  0  0
 17 18  1  0  0  0
 17102  1  0  0  0
 18 19  2  0  0  0
 18103  1  0  0  0
 19 20  1  0  0  0
 19 24  1  0  0  0
 20 21  2  0  0  0
 20104  1  0  0  0
 21 23  1  0  0  0
 22 28  1  0  0  0
 22 32  2  0  0  0
 26 27  1  0  0  0
 28105  1  0  0  0
 28106  1  0  0  0
 29107  1  0  0  0
 29108  1  0  0  0
 33 34  1  0  0  0
 33 66  1  0  0  0
 33 70  2  0  0  0
 34 36  1  0  0  0
 34 59  1  0  0  0
 34109  1  0  0  0
 35 44  2  0  0  0
 35 45  1  0  0  0
 35 68  1  0  0  0
 36 56  1  0  0  0
 36110  1  0  0  0
 37 39  1  0  0  0
 37 47  1  0  0  0
 37 66  1  0  0  0
 37111  1  0  0  0
 38 43  2  0  0  0
 38 46  1  0  0  0
 38 47  1  0  0  0
 39 64  1  0  0  0
 39 67  2  0  0  0
 40 52  1  0  0  0
 40 53  2  0  0  0
 40 58  1  0  0  0
 41112  1  0  0  0
 41113  1  0  0  0
 41114  1  0  0  0
 41 48  1  0  0  0
 42 43  1  0  0  0
 42 66  1  0  0  0
 42115  1  0  0  0
 42116  1  0  0  0
 43 44  1  0  0  0
 44117  1  0  0  0
 45 46  2  0  0  0
 45118  1  0  0  0
 46119  1  0  0  0
 47120  1  0  0  0
 47121  1  0  0  0
 48 56  1  0  0  0
 48 65  1  0  0  0
 48122  1  0  0  0
 49 50  1  0  0  0
 49 53  1  0  0  0
 49 64  1  0  0  0
 49123  1  0  0  0
 50 51  1  0  0  0
 50124  1  0  0  0
 50125  1  0  0  0
 51 52  1  0  0  0
 51126  1  0  0  0
 51127  1  0  0  0
 52128  1  0  0  0
 52129  1  0  0  0
 53 54  1  0  0  0
 54 55  2  0  0  0
 54130  1  0  0  0
 55 57  1  0  0  0
 55131  1  0  0  0
 56 69  2  0  0  0
 57 58  2  0  0  0
 57132  1  0  0  0
 58133  1  0  0  0
 59 60  1  0  0  0
 59 61  1  0  0  0
 59 62  1  0  0  0
 60134  1  0  0  0
 60135  1  0  0  0
 60136  1  0  0  0
 61137  1  0  0  0
 61138  1  0  0  0
 61139  1  0  0  0
 62140  1  0  0  0
 62141  1  0  0  0
 62142  1  0  0  0
 63 65  1  0  0  0
 63143  1  0  0  0
 63144  1  0  0  0
 63145  1  0  0  0
 64146  1  0  0  0
 65147  1  0  0  0
 68 81  1  0  0  0
 71 72  2  0  0  0
 71 73  1  0  0  0
 71148  1  0  0  0
 72 75  1  0  0  0
 72 82  1  0  0  0
 73 76  2  0  0  0
 73 83  1  0  0  0
 74 75  2  0  0  0
 74 76  1  0  0  0
 74 84  1  0  0  0
 75 87  1  0  0  0
 76 88  1  0  0  0
 77 78  2  0  0  0
 77 79  1  0  0  0
 77 86  1  0  0  0
 78149  1  0  0  0
 78150  1  0  0  0
 79 81  1  0  0  0
 79151  1  0  0  0
 79152  1  0  0  0
 80 81  1  0  0  0
 80 86  1  0  0  0
 80153  1  0  0  0
 80154  1  0  0  0
 81155  1  0  0  0
 82156  1  0  0  0
 82157  1  0  0  0
 82158  1  0  0  0
 83 85  1  0  0  0
 83159  1  0  0  0
 83160  1  0  0  0
 84161  1  0  0  0
 84162  1  0  0  0
 84 86  1  0  0  0
 85163  1  0  0  0
 86164  1  0  0  0
M  CHG  1  86   1
M  ISO  4   1 100  68 101  81 101  85 100
M  END
> <chiral flag>
0

> <version>
0

> <s_m_source_file>
/data/baiqing/PycharmProjects/Reinvent-master-3.2/result/LINK_invent/BTK/process_docking_weight1_custom_product_contain_oxygen_bond_distance_aromatic_linkinvent_7_9_3/rearranged_h_0032.sdf

> <i_m_source_file_index>
51

> <r_mmod_Potential_Energy-OPLS-2005>
-120.882461547852

> <r_mmod_Stretch_Energy-OPLS-2005>
55.7653274536133

> <r_mmod_Bend_Energy-OPLS-2005>
144.553131103516

> <r_mmod_Torsional_Energy-OPLS-2005>
264.884338378906

> <r_mmod_Improper_Torsional_Energy-OPLS-2005>
5.45375919342041

> <r_mmod_Van_der_Waal_Energy-OPLS-2005>
150.534439086914

> <r_mmod_Electrostatic_Energy-OPLS-2005>
-361.872497558594

> <r_mmod_Solvation_Energy-OPLS-2005>
-416.908721923828

> <b_mmod_Minimization_Converged-OPLS-2005>
0

> <r_mmod_RMS_Derivative-OPLS-2005>
11.4241285324097

$$$$
51
                    3D
 Structure written by MMmdl.
166175  0  0  1  0            999 V2000
  -30.5637  -14.6967   20.4660 C   0  0  0  0  0  0
  -30.4631  -12.4293   19.4418 C   0  0  0  0  0  0
  -29.5179  -12.5119   18.2208 C   0  0  0  0  0  0
  -28.0369  -12.3550   18.6316 C   0  0  0  0  0  0
  -27.6615  -13.2087   19.8720 C   0  0  2  0  0  0
  -28.7178  -13.0489   20.9909 C   0  0  0  0  0  0
  -25.2671  -13.8127   20.5850 C   0  0  0  0  0  0
  -24.1860  -13.0418   20.9251 C   0  0  0  0  0  0
  -24.6379  -11.6874   20.8723 C   0  0  0  0  0  0
  -23.9005  -10.4250   21.0374 C   0  0  0  0  0  0
  -24.3536   -9.4145   21.9145 C   0  0  0  0  0  0
  -23.6222   -8.2170   22.0711 C   0  0  0  0  0  0
  -22.4208   -8.0204   21.3508 C   0  0  0  0  0  0
  -21.9849   -9.0180   20.4597 C   0  0  0  0  0  0
  -22.7177  -10.2076   20.3017 C   0  0  0  0  0  0
  -21.6843   -6.0636   22.5274 C   0  0  0  0  0  0
  -21.3998   -6.5541   23.8203 C   0  0  0  0  0  0
  -21.3689   -5.6727   24.9192 C   0  0  0  0  0  0
  -21.6067   -4.2989   24.7265 C   0  0  0  0  0  0
  -21.8816   -3.8049   23.4391 C   0  0  0  0  0  0
  -21.9166   -4.6856   22.3426 C   0  0  0  0  0  0
  -22.7882  -13.5282   21.1857 C   0  0  0  0  0  0
  -22.1617   -4.2026   21.1010 F   0  0  0  0  0  0
  -21.5679   -3.4483   25.7788 F   0  0  0  0  0  0
  -30.0189  -13.4375   20.4226 N   0  0  0  0  0  0
  -26.3052  -12.9260   20.3407 N   0  0  0  0  0  0
  -25.9302  -11.6415   20.5736 N   0  0  0  0  0  0
  -22.0464  -12.8328   22.0420 N   0  0  0  0  0  0
  -25.4524  -15.1831   20.4516 N   0  0  0  0  0  0
  -31.7119  -14.9140   20.0603 O   0  0  0  0  0  0
  -21.6602   -6.8774   21.4222 O   0  0  0  0  0  0
  -22.3597  -14.5548   20.6626 O   0  0  0  0  0  0
  -24.6199  -31.8609   23.2004 C   0  0  0  0  0  0
  -25.9031  -32.4803   23.8352 C   0  0  1  0  0  0
  -27.2419  -27.3274   20.1300 C   0  0  0  0  0  0
  -25.5812  -33.8608   24.2240 N   0  0  0  0  0  0
  -23.4173  -30.4744   21.5472 C   0  0  2  0  0  0
  -24.8679  -28.9189   20.1261 C   0  0  0  0  0  0
  -22.7450  -29.4579   22.4996 C   0  0  0  0  0  0
  -18.0254  -28.1390   22.8488 C   0  0  0  0  0  0
  -24.1485  -36.7340   23.2640 C   0  0  0  0  0  0
  -25.9563  -30.7890   21.3762 C   0  0  0  0  0  0
  -26.0349  -29.4155   20.7209 C   0  0  0  0  0  0
  -27.2259  -28.6340   20.7065 C   0  0  0  0  0  0
  -26.0538  -26.8689   19.5228 C   0  0  0  0  0  0
  -24.8774  -27.6482   19.5213 C   0  0  0  0  0  0
  -23.6330  -29.7970   20.1682 C   0  0  0  0  0  0
  -25.4122  -36.3114   24.0306 C   0  0  1  0  0  0
  -20.5856  -28.3651   23.1324 C   0  0  2  0  0  0
  -20.6731  -26.9383   22.5423 C   0  0  0  0  0  0
  -19.5713  -26.6379   21.5212 C   0  0  0  0  0  0
  -18.1898  -26.7929   22.1636 C   0  0  0  0  0  0
  -19.1524  -28.8846   23.2891 C   0  0  0  0  0  0
  -18.9452  -30.1457   23.8885 C   0  0  0  0  0  0
  -17.6465  -30.6584   24.0576 C   0  0  0  0  0  0
  -25.9042  -34.9475   23.5085 C   0  0  0  0  0  0
  -16.5339  -29.9094   23.6343 C   0  0  0  0  0  0
  -16.7258  -28.6523   23.0336 C   0  0  0  0  0  0
  -26.4378  -31.6644   25.0761 C   0  0  0  0  0  0
  -25.3573  -31.3799   26.1459 C   0  0  0  0  0  0
  -27.0228  -30.3040   24.6247 C   0  0  0  0  0  0
  -27.5959  -32.4385   25.7528 C   0  0  0  0  0  0
  -27.5587  -37.1830   24.8448 C   0  0  0  0  0  0
  -21.4173  -29.3000   22.3749 N   0  0  0  0  0  0
  -26.4313  -37.3793   23.9372 N   0  0  0  0  0  0
  -24.6828  -31.0592   22.0988 N   0  0  0  0  0  0
  -23.4185  -28.8137   23.3095 O   0  0  0  0  0  0
  -28.3922  -26.5323   20.1083 O   0  0  0  0  0  0
  -26.5684  -34.8928   22.4704 O   0  0  0  0  0  0
  -23.5350  -32.1420   23.7330 O   0  0  0  0  0  0
  -29.7290  -19.2914   19.4481 C   0  0  0  0  0  0
  -30.0890  -17.9146   19.6474 C   0  0  0  0  0  0
  -28.3360  -19.2149   21.3924 C   0  0  0  0  0  0
  -28.8338  -19.9872   20.3132 C   0  0  0  0  0  0
  -28.6501  -17.8346   21.5737 C   0  0  0  0  0  0
  -29.5361  -17.1306   20.7018 C   0  0  0  0  0  0
  -29.3883  -25.0413   21.7098 C   0  0  0  0  0  0
  -29.7404  -23.5959   22.1037 C   0  0  0  0  0  0
  -28.6333  -24.0007   19.4587 C   0  0  0  0  0  0
  -28.3526  -25.1225   20.5642 C   0  0  2  0  0  0
  -30.2568  -22.7569   20.9208 C   0  0  2  0  0  0
  -27.9912  -17.1321   22.7503 C   0  0  0  0  0  0
  -31.5623  -23.2864   20.2902 C   0  0  0  0  0  0
  -28.2686  -21.4546   20.0655 C   0  0  0  0  0  0
  -29.7062  -15.6790   20.8958 N   0  0  0  0  0  0
  -29.2051  -22.6370   19.8860 N   0  3  1  0  0  0
  -31.4945  -12.6012   19.1304 H   0  0  0  0  0  0
  -30.4454  -11.4337   19.8868 H   0  0  0  0  0  0
  -29.7888  -11.7475   17.4903 H   0  0  0  0  0  0
  -29.6504  -13.4735   17.7218 H   0  0  0  0  0  0
  -27.8587  -11.3014   18.8449 H   0  0  0  0  0  0
  -27.3940  -12.6156   17.7886 H   0  0  0  0  0  0
  -27.6781  -14.2488   19.5450 H   0  0  0  0  0  0
  -28.7628  -12.0171   21.3427 H   0  0  0  0  0  0
  -28.4658  -13.6427   21.8701 H   0  0  0  0  0  0
  -25.2656   -9.5628   22.4749 H   0  0  0  0  0  0
  -23.9913   -7.4558   22.7429 H   0  0  0  0  0  0
  -21.0794   -8.8710   19.8880 H   0  0  0  0  0  0
  -22.3620  -10.9600   19.6124 H   0  0  0  0  0  0
  -21.1956   -7.6040   23.9696 H   0  0  0  0  0  0
  -21.1549   -6.0444   25.9113 H   0  0  0  0  0  0
  -22.0569   -2.7488   23.2956 H   0  0  0  0  0  0
  -22.4021  -11.9994   22.4842 H   0  0  0  0  0  0
  -21.1015  -13.1276   22.2424 H   0  0  0  0  0  0
  -24.7235  -15.8534   20.6706 H   0  0  0  0  0  0
  -26.3411  -15.6158   20.2318 H   0  0  0  0  0  0
  -26.7122  -32.5451   23.1129 H   0  0  0  0  0  0
  -24.9788  -33.9782   25.0255 H   0  0  0  0  0  0
  -22.7057  -31.2892   21.4001 H   0  0  0  0  0  0
  -23.3740  -35.9677   23.3317 H   0  0  0  0  0  0
  -24.3531  -36.8970   22.2046 H   0  0  0  0  0  0
  -23.7266  -37.6544   23.6685 H   0  0  0  0  0  0
  -26.0917  -31.5540   20.6111 H   0  0  0  0  0  0
  -26.8317  -30.8332   22.0124 H   0  0  0  0  0  0
  -28.1295  -29.0197   21.1608 H   0  0  0  0  0  0
  -26.0350  -25.9020   19.0404 H   0  0  0  0  0  0
  -23.9829  -27.2554   19.0595 H   0  0  0  0  0  0
  -23.7474  -30.5654   19.4035 H   0  0  0  0  0  0
  -22.7555  -29.2182   19.8768 H   0  0  0  0  0  0
  -25.1331  -36.1968   25.0806 H   0  0  0  0  0  0
  -20.9929  -28.3183   24.1454 H   0  0  0  0  0  0
  -20.5588  -26.2245   23.3603 H   0  0  0  0  0  0
  -21.6607  -26.7388   22.1245 H   0  0  0  0  0  0
  -19.6842  -25.6285   21.1244 H   0  0  0  0  0  0
  -19.6662  -27.3194   20.6748 H   0  0  0  0  0  0
  -17.4158  -26.6656   21.4048 H   0  0  0  0  0  0
  -18.0315  -26.0084   22.9053 H   0  0  0  0  0  0
  -19.7935  -30.7280   24.2222 H   0  0  0  0  0  0
  -17.5020  -31.6266   24.5193 H   0  0  0  0  0  0
  -15.5346  -30.2999   23.7679 H   0  0  0  0  0  0
  -15.8646  -28.0865   22.7023 H   0  0  0  0  0  0
  -24.5697  -30.7228   25.7779 H   0  0  0  0  0  0
  -24.8830  -32.3010   26.4908 H   0  0  0  0  0  0
  -25.7824  -30.8946   27.0255 H   0  0  0  0  0  0
  -26.2890  -29.6979   24.0938 H   0  0  0  0  0  0
  -27.3491  -29.7151   25.4822 H   0  0  0  0  0  0
  -27.8924  -30.4307   23.9807 H   0  0  0  0  0  0
  -27.2544  -33.3640   26.2181 H   0  0  0  0  0  0
  -28.3691  -32.7029   25.0305 H   0  0  0  0  0  0
  -28.0679  -31.8480   26.5377 H   0  0  0  0  0  0
  -28.2625  -38.0115   24.7489 H   0  0  0  0  0  0
  -28.1070  -36.2648   24.6301 H   0  0  0  0  0  0
  -27.2286  -37.1506   25.8845 H   0  0  0  0  0  0
  -20.9330  -29.8740   21.6983 H   0  0  0  0  0  0
  -26.0201  -38.2874   24.1352 H   0  0  0  0  0  0
  -30.1262  -19.8052   18.5857 H   0  0  0  0  0  0
  -30.7604  -17.4512   18.9399 H   0  0  0  0  0  0
  -27.6499  -19.6860   22.0827 H   0  0  0  0  0  0
  -30.2955  -25.5856   21.4469 H   0  0  0  0  0  0
  -28.9941  -25.5524   22.5883 H   0  0  0  0  0  0
  -28.8502  -23.1179   22.5133 H   0  0  0  0  0  0
  -30.4750  -23.5934   22.9073 H   0  0  0  0  0  0
  -29.3783  -24.4212   18.7827 H   0  0  0  0  0  0
  -27.7549  -23.8655   18.8287 H   0  0  0  0  0  0
  -27.3773  -24.9176   21.0086 H   0  0  0  0  0  0
  -30.4895  -21.7614   21.2966 H   0  0  0  0  0  0
  -28.5373  -17.3809   23.6607 H   0  0  0  0  0  0
  -27.9501  -16.0494   22.6508 H   0  0  0  0  0  0
  -26.9601  -17.4592   22.8684 H   0  0  0  0  0  0
  -31.4482  -24.2823   19.8657 H   0  0  0  0  0  0
  -31.8863  -22.6391   19.4743 H   0  0  0  0  0  0
  -32.3809  -23.3258   21.0114 H   0  0  0  0  0  0
  -27.5947  -21.7049   20.8884 H   0  0  0  0  0  0
  -27.6325  -21.3994   19.1827 H   0  0  0  0  0  0
  -28.9164  -15.2614   21.3630 H   0  0  0  0  0  0
  -29.7169  -22.3308   19.0726 H   0  0  0  0  0  0
  1 25  1  0  0  0
  1 30  2  0  0  0
  1 85  1  0  0  0
  2  3  1  0  0  0
  2 25  1  0  0  0
  2 87  1  0  0  0
  2 88  1  0  0  0
  3  4  1  0  0  0
  3 89  1  0  0  0
  3 90  1  0  0  0
  4  5  1  0  0  0
  4 91  1  0  0  0
  4 92  1  0  0  0
  5  6  1  0  0  0
  5 26  1  0  0  0
  5 93  1  0  0  0
  6 25  1  0  0  0
  6 94  1  0  0  0
  6 95  1  0  0  0
  7  8  2  0  0  0
  7 26  1  0  0  0
  7 29  1  0  0  0
  8  9  1  0  0  0
  8 22  1  0  0  0
  9 10  1  0  0  0
  9 27  2  0  0  0
 10 11  2  0  0  0
 10 15  1  0  0  0
 11 12  1  0  0  0
 11 96  1  0  0  0
 12 13  2  0  0  0
 12 97  1  0  0  0
 13 14  1  0  0  0
 13 31  1  0  0  0
 14 15  2  0  0  0
 14 98  1  0  0  0
 15 99  1  0  0  0
 16 17  2  0  0  0
 16 21  1  0  0  0
 16 31  1  0  0  0
 17 18  1  0  0  0
 17100  1  0  0  0
 18 19  2  0  0  0
 18101  1  0  0  0
 19 20  1  0  0  0
 19 24  1  0  0  0
 20 21  2  0  0  0
 20102  1  0  0  0
 21 23  1  0  0  0
 22 28  1  0  0  0
 22 32  2  0  0  0
 26 27  1  0  0  0
 28103  1  0  0  0
 28104  1  0  0  0
 29105  1  0  0  0
 29106  1  0  0  0
 33 34  1  0  0  0
 33 66  1  0  0  0
 33 70  2  0  0  0
 34 36  1  0  0  0
 34 59  1  0  0  0
 34107  1  0  0  0
 35 44  2  0  0  0
 35 45  1  0  0  0
 35 68  1  0  0  0
 36 56  1  0  0  0
 36108  1  0  0  0
 37 39  1  0  0  0
 37 47  1  0  0  0
 37 66  1  0  0  0
 37109  1  0  0  0
 38 43  2  0  0  0
 38 46  1  0  0  0
 38 47  1  0  0  0
 39 64  1  0  0  0
 39 67  2  0  0  0
 40 52  1  0  0  0
 40 53  2  0  0  0
 40 58  1  0  0  0
 41110  1  0  0  0
 41111  1  0  0  0
 41112  1  0  0  0
 41 48  1  0  0  0
 42 43  1  0  0  0
 42 66  1  0  0  0
 42113  1  0  0  0
 42114  1  0  0  0
 43 44  1  0  0  0
 44115  1  0  0  0
 45 46  2  0  0  0
 45116  1  0  0  0
 46117  1  0  0  0
 47118  1  0  0  0
 47119  1  0  0  0
 48 56  1  0  0  0
 48 65  1  0  0  0
 48120  1  0  0  0
 49 50  1  0  0  0
 49 53  1  0  0  0
 49 64  1  0  0  0
 49121  1  0  0  0
 50 51  1  0  0  0
 50122  1  0  0  0
 50123  1  0  0  0
 51 52  1  0  0  0
 51124  1  0  0  0
 51125  1  0  0  0
 52126  1  0  0  0
 52127  1  0  0  0
 53 54  1  0  0  0
 54 55  2  0  0  0
 54128  1  0  0  0
 55 57  1  0  0  0
 55129  1  0  0  0
 56 69  2  0  0  0
 57 58  2  0  0  0
 57130  1  0  0  0
 58131  1  0  0  0
 59 60  1  0  0  0
 59 61  1  0  0  0
 59 62  1  0  0  0
 60132  1  0  0  0
 60133  1  0  0  0
 60134  1  0  0  0
 61135  1  0  0  0
 61136  1  0  0  0
 61137  1  0  0  0
 62138  1  0  0  0
 62139  1  0  0  0
 62140  1  0  0  0
 63 65  1  0  0  0
 63141  1  0  0  0
 63142  1  0  0  0
 63143  1  0  0  0
 64144  1  0  0  0
 65145  1  0  0  0
 68 80  1  0  0  0
 71 72  2  0  0  0
 71 74  1  0  0  0
 71146  1  0  0  0
 72 76  1  0  0  0
 72147  1  0  0  0
 73 74  2  0  0  0
 73 75  1  0  0  0
 73148  1  0  0  0
 74 84  1  0  0  0
 75 76  2  0  0  0
 75 82  1  0  0  0
 76 85  1  0  0  0
 77 78  1  0  0  0
 77 80  1  0  0  0
 77149  1  0  0  0
 77150  1  0  0  0
 78 81  1  0  0  0
 78151  1  0  0  0
 78152  1  0  0  0
 79 80  1  0  0  0
 79 86  1  0  0  0
 79153  1  0  0  0
 79154  1  0  0  0
 80155  1  0  0  0
 81 83  1  0  0  0
 81 86  1  0  0  0
 81156  1  0  0  0
 82157  1  0  0  0
 82158  1  0  0  0
 82159  1  0  0  0
 83160  1  0  0  0
 83161  1  0  0  0
 83162  1  0  0  0
 84163  1  0  0  0
 84164  1  0  0  0
 84 86  1  0  0  0
 85165  1  0  0  0
 86166  1  0  0  0
M  CHG  1  86   1
M  ISO  4   1 100  68 101  80 101  85 100
M  END
> <chiral flag>
0

> <version>
0

> <s_m_source_file>
/data/baiqing/PycharmProjects/Reinvent-master-3.2/result/LINK_invent/BTK/process_docking_weight1_custom_product_contain_oxygen_bond_distance_aromatic_linkinvent_7_9_3/rearranged_h_0032.sdf

> <i_m_source_file_index>
52

> <r_mmod_Potential_Energy-OPLS-2005>
39.3073539733887

> <r_mmod_Stretch_Energy-OPLS-2005>
89.9670333862305

> <r_mmod_Bend_Energy-OPLS-2005>
172.993743896484

> <r_mmod_Torsional_Energy-OPLS-2005>
279.883483886719

> <r_mmod_Improper_Torsional_Energy-OPLS-2005>
3.94567656517029

> <r_mmod_Van_der_Waal_Energy-OPLS-2005>
135.45458984375

> <r_mmod_Electrostatic_Energy-OPLS-2005>
-279.811737060547

> <r_mmod_Solvation_Energy-OPLS-2005>
-420.3154296875

> <b_mmod_Minimization_Converged-OPLS-2005>
0

> <r_mmod_RMS_Derivative-OPLS-2005>
5.28811311721802

$$$$
52
                    3D
 Structure written by MMmdl.
156165  0  0  1  0            999 V2000
  -30.5323  -14.8039   20.4554 C   0  0  0  0  0  0
  -30.4171  -12.4765   19.5258 C   0  0  0  0  0  0
  -29.5188  -12.5326   18.2690 C   0  0  0  0  0  0
  -28.0432  -12.3314   18.6638 C   0  0  0  0  0  0
  -27.6286  -13.2350   19.8558 C   0  0  2  0  0  0
  -28.6508  -13.1682   21.0096 C   0  0  0  0  0  0
  -25.2398  -13.8175   20.5654 C   0  0  0  0  0  0
  -24.1715  -13.0431   20.9205 C   0  0  0  0  0  0
  -24.6332  -11.6895   20.8762 C   0  0  0  0  0  0
  -23.9033  -10.4271   21.0419 C   0  0  0  0  0  0
  -24.3582   -9.4179   21.9197 C   0  0  0  0  0  0
  -23.6257   -8.2214   22.0750 C   0  0  0  0  0  0
  -22.4243   -8.0258   21.3544 C   0  0  0  0  0  0
  -21.9888   -9.0231   20.4644 C   0  0  0  0  0  0
  -22.7214  -10.2109   20.3058 C   0  0  0  0  0  0
  -21.6841   -6.0718   22.5282 C   0  0  0  0  0  0
  -21.4010   -6.5630   23.8214 C   0  0  0  0  0  0
  -21.3673   -5.6792   24.9182 C   0  0  0  0  0  0
  -21.6046   -4.3056   24.7237 C   0  0  0  0  0  0
  -21.8804   -3.8136   23.4366 C   0  0  0  0  0  0
  -21.9173   -4.6941   22.3413 C   0  0  0  0  0  0
  -22.7741  -13.5190   21.1877 C   0  0  0  0  0  0
  -22.1641   -4.2125   21.0990 F   0  0  0  0  0  0
  -21.5628   -3.4539   25.7757 F   0  0  0  0  0  0
  -29.9599  -13.5444   20.4543 N   0  0  0  0  0  0
  -26.2815  -12.9396   20.3220 N   0  0  0  0  0  0
  -25.9234  -11.6541   20.5704 N   0  0  0  0  0  0
  -22.0382  -12.8213   22.0448 N   0  0  0  0  0  0
  -25.4076  -15.1903   20.4009 N   0  0  0  0  0  0
  -31.6960  -14.9271   20.0566 O   0  0  0  0  0  0
  -21.6625   -6.8852   21.4237 O   0  0  0  0  0  0
  -22.3422  -14.5490   20.6693 O   0  0  0  0  0  0
  -24.6372  -31.8524   23.1950 C   0  0  0  0  0  0
  -25.9180  -32.4744   23.8278 C   0  0  1  0  0  0
  -27.1998  -27.1903   20.1222 C   0  0  0  0  0  0
  -25.5987  -33.8554   24.2238 N   0  0  0  0  0  0
  -23.4341  -30.4759   21.5448 C   0  0  2  0  0  0
  -24.8717  -28.9078   20.1126 C   0  0  0  0  0  0
  -22.7508  -29.4586   22.4901 C   0  0  0  0  0  0
  -18.0292  -28.1406   22.8499 C   0  0  0  0  0  0
  -24.1463  -36.7263   23.2636 C   0  0  0  0  0  0
  -25.9853  -30.7351   21.3847 C   0  0  0  0  0  0
  -26.0503  -29.3526   20.7239 C   0  0  0  0  0  0
  -27.2141  -28.5076   20.7157 C   0  0  0  0  0  0
  -25.9892  -26.8211   19.4920 C   0  0  0  0  0  0
  -24.8498  -27.6512   19.4870 C   0  0  0  0  0  0
  -23.6561  -29.8181   20.1573 C   0  0  0  0  0  0
  -25.4108  -36.3086   24.0328 C   0  0  1  0  0  0
  -20.5891  -28.3726   23.1273 C   0  0  2  0  0  0
  -20.6783  -26.9452   22.5408 C   0  0  0  0  0  0
  -19.5764  -26.6402   21.5217 C   0  0  0  0  0  0
  -18.1949  -26.7948   22.1622 C   0  0  0  0  0  0
  -19.1543  -28.8881   23.2875 C   0  0  0  0  0  0
  -18.9468  -30.1458   23.8915 C   0  0  0  0  0  0
  -17.6469  -30.6606   24.0562 C   0  0  0  0  0  0
  -25.9067  -34.9457   23.5091 C   0  0  0  0  0  0
  -16.5357  -29.9115   23.6324 C   0  0  0  0  0  0
  -16.7287  -28.6508   23.0377 C   0  0  0  0  0  0
  -26.4509  -31.6592   25.0709 C   0  0  0  0  0  0
  -25.3715  -31.3759   26.1423 C   0  0  0  0  0  0
  -27.0356  -30.2995   24.6246 C   0  0  0  0  0  0
  -27.6037  -32.4334   25.7511 C   0  0  0  0  0  0
  -27.5570  -37.1799   24.8474 C   0  0  0  0  0  0
  -21.4213  -29.3046   22.3639 N   0  0  0  0  0  0
  -26.4277  -37.3797   23.9432 N   0  0  0  0  0  0
  -24.7069  -31.0392   22.0991 N   0  0  0  0  0  0
  -23.4172  -28.8142   23.3033 O   0  0  0  0  0  0
  -28.2875  -26.2658   20.1737 O   0  0  0  0  0  0
  -26.5629  -34.8928   22.4645 O   0  0  0  0  0  0
  -23.5522  -32.1408   23.7219 O   0  0  0  0  0  0
  -29.8147  -21.4830   21.6987 C   0  0  0  0  0  0
  -30.4214  -20.3784   22.3324 C   0  0  0  0  0  0
  -29.0475  -20.0053   19.9689 C   0  0  0  0  0  0
  -29.6467  -18.8059   20.6084 C   0  0  0  0  0  0
  -29.1072  -21.3918   20.4816 C   0  0  0  0  0  0
  -30.3510  -19.0728   21.8077 C   0  0  0  0  0  0
  -29.4417  -23.8579   19.6954 C   0  0  0  0  0  0
  -27.6667  -23.6008   20.6067 C   0  0  0  0  0  0
  -28.1803  -24.8035   19.7208 C   0  0  0  0  0  0
  -28.3058  -19.8468   18.6481 C   0  0  0  0  0  0
  -29.6859  -17.3032   19.9703 C   0  0  0  0  0  0
  -28.5650  -22.6592   19.8653 N   0  0  0  0  0  0
  -29.7202  -15.9226   20.6841 N   0  0  0  0  0  0
  -31.2120  -17.8348   22.6493 Cl  0  0  0  0  0  0
  -31.4668  -12.5866   19.2558 H   0  0  0  0  0  0
  -30.3363  -11.4979   20.0032 H   0  0  0  0  0  0
  -29.8266  -11.7735   17.5485 H   0  0  0  0  0  0
  -29.6393  -13.4990   17.7726 H   0  0  0  0  0  0
  -27.9181  -11.2820   18.9353 H   0  0  0  0  0  0
  -27.3907  -12.5009   17.8083 H   0  0  0  0  0  0
  -27.6226  -14.2568   19.4755 H   0  0  0  0  0  0
  -28.6746  -12.1627   21.4353 H   0  0  0  0  0  0
  -28.3495  -13.8308   21.8226 H   0  0  0  0  0  0
  -25.2708   -9.5655   22.4799 H   0  0  0  0  0  0
  -23.9967   -7.4591   22.7460 H   0  0  0  0  0  0
  -21.0831   -8.8744   19.8934 H   0  0  0  0  0  0
  -22.3673  -10.9649   19.6172 H   0  0  0  0  0  0
  -21.2020   -7.6138   23.9715 H   0  0  0  0  0  0
  -21.1514   -6.0529   25.9090 H   0  0  0  0  0  0
  -22.0572   -2.7590   23.2876 H   0  0  0  0  0  0
  -22.3992  -11.9915   22.4933 H   0  0  0  0  0  0
  -21.0973  -13.1202   22.2582 H   0  0  0  0  0  0
  -24.6287  -15.8346   20.4724 H   0  0  0  0  0  0
  -26.2495  -15.6273   20.0466 H   0  0  0  0  0  0
  -26.7229  -32.5334   23.0981 H   0  0  0  0  0  0
  -25.0152  -33.9675   25.0400 H   0  0  0  0  0  0
  -22.7319  -31.3018   21.4040 H   0  0  0  0  0  0
  -23.3759  -35.9562   23.3328 H   0  0  0  0  0  0
  -24.3517  -36.8860   22.2034 H   0  0  0  0  0  0
  -23.7168  -37.6451   23.6640 H   0  0  0  0  0  0
  -26.1350  -31.4909   20.6138 H   0  0  0  0  0  0
  -26.8573  -30.7773   22.0269 H   0  0  0  0  0  0
  -28.1134  -28.8505   21.2088 H   0  0  0  0  0  0
  -25.8830  -25.8558   19.0200 H   0  0  0  0  0  0
  -23.9460  -27.3076   19.0046 H   0  0  0  0  0  0
  -23.8130  -30.6081   19.4214 H   0  0  0  0  0  0
  -22.7642  -29.2856   19.8258 H   0  0  0  0  0  0
  -25.1275  -36.1949   25.0819 H   0  0  0  0  0  0
  -20.9957  -28.3324   24.1400 H   0  0  0  0  0  0
  -20.5703  -26.2359   23.3619 H   0  0  0  0  0  0
  -21.6658  -26.7488   22.1198 H   0  0  0  0  0  0
  -19.6935  -25.6310   21.1272 H   0  0  0  0  0  0
  -19.6705  -27.3184   20.6728 H   0  0  0  0  0  0
  -17.4218  -26.6713   21.4017 H   0  0  0  0  0  0
  -18.0350  -26.0070   22.8995 H   0  0  0  0  0  0
  -19.7939  -30.7264   24.2328 H   0  0  0  0  0  0
  -17.5038  -31.6303   24.5147 H   0  0  0  0  0  0
  -15.5362  -30.3044   23.7629 H   0  0  0  0  0  0
  -15.8676  -28.0820   22.7142 H   0  0  0  0  0  0
  -24.5883  -30.7135   25.7741 H   0  0  0  0  0  0
  -24.8918  -32.2924   26.4847 H   0  0  0  0  0  0
  -25.8003  -30.8923   27.0215 H   0  0  0  0  0  0
  -26.2953  -29.6742   24.1250 H   0  0  0  0  0  0
  -27.3985  -29.7257   25.4785 H   0  0  0  0  0  0
  -27.8853  -30.4243   23.9540 H   0  0  0  0  0  0
  -27.2635  -33.3618   26.2109 H   0  0  0  0  0  0
  -28.3842  -32.6936   25.0354 H   0  0  0  0  0  0
  -28.0712  -31.8462   26.5420 H   0  0  0  0  0  0
  -28.2621  -38.0069   24.7535 H   0  0  0  0  0  0
  -28.1039  -36.2614   24.6309 H   0  0  0  0  0  0
  -27.2286  -37.1450   25.8874 H   0  0  0  0  0  0
  -20.9454  -29.8783   21.6831 H   0  0  0  0  0  0
  -26.0164  -38.2877   24.1463 H   0  0  0  0  0  0
  -29.9271  -22.4509   22.1613 H   0  0  0  0  0  0
  -30.9861  -20.5493   23.2392 H   0  0  0  0  0  0
  -29.9823  -23.8759   18.7471 H   0  0  0  0  0  0
  -30.1163  -24.0236   20.5373 H   0  0  0  0  0  0
  -26.6068  -23.3843   20.4696 H   0  0  0  0  0  0
  -27.9150  -23.7091   21.6645 H   0  0  0  0  0  0
  -27.7278  -24.7624   18.7279 H   0  0  0  0  0  0
  -28.4716  -18.8948   18.1498 H   0  0  0  0  0  0
  -28.6146  -20.6224   17.9482 H   0  0  0  0  0  0
  -27.2339  -19.9569   18.8098 H   0  0  0  0  0  0
  -30.4991  -17.3073   19.2454 H   0  0  0  0  0  0
  -28.7787  -17.2147   19.3762 H   0  0  0  0  0  0
  -28.8488  -15.6859   21.1344 H   0  0  0  0  0  0
  1 25  1  0  0  0
  1 30  2  0  0  0
  1 83  1  0  0  0
  2  3  1  0  0  0
  2 25  1  0  0  0
  2 85  1  0  0  0
  2 86  1  0  0  0
  3  4  1  0  0  0
  3 87  1  0  0  0
  3 88  1  0  0  0
  4  5  1  0  0  0
  4 89  1  0  0  0
  4 90  1  0  0  0
  5  6  1  0  0  0
  5 26  1  0  0  0
  5 91  1  0  0  0
  6 25  1  0  0  0
  6 92  1  0  0  0
  6 93  1  0  0  0
  7  8  2  0  0  0
  7 26  1  0  0  0
  7 29  1  0  0  0
  8  9  1  0  0  0
  8 22  1  0  0  0
  9 10  1  0  0  0
  9 27  2  0  0  0
 10 11  2  0  0  0
 10 15  1  0  0  0
 11 12  1  0  0  0
 11 94  1  0  0  0
 12 13  2  0  0  0
 12 95  1  0  0  0
 13 14  1  0  0  0
 13 31  1  0  0  0
 14 15  2  0  0  0
 14 96  1  0  0  0
 15 97  1  0  0  0
 16 17  2  0  0  0
 16 21  1  0  0  0
 16 31  1  0  0  0
 17 18  1  0  0  0
 17 98  1  0  0  0
 18 19  2  0  0  0
 18 99  1  0  0  0
 19 20  1  0  0  0
 19 24  1  0  0  0
 20 21  2  0  0  0
 20100  1  0  0  0
 21 23  1  0  0  0
 22 28  1  0  0  0
 22 32  2  0  0  0
 26 27  1  0  0  0
 28101  1  0  0  0
 28102  1  0  0  0
 29103  1  0  0  0
 29104  1  0  0  0
 33 34  1  0  0  0
 33 66  1  0  0  0
 33 70  2  0  0  0
 34 36  1  0  0  0
 34 59  1  0  0  0
 34105  1  0  0  0
 35 44  2  0  0  0
 35 45  1  0  0  0
 35 68  1  0  0  0
 36 56  1  0  0  0
 36106  1  0  0  0
 37 39  1  0  0  0
 37 47  1  0  0  0
 37 66  1  0  0  0
 37107  1  0  0  0
 38 43  2  0  0  0
 38 46  1  0  0  0
 38 47  1  0  0  0
 39 64  1  0  0  0
 39 67  2  0  0  0
 40 52  1  0  0  0
 40 53  2  0  0  0
 40 58  1  0  0  0
 41108  1  0  0  0
 41109  1  0  0  0
 41110  1  0  0  0
 41 48  1  0  0  0
 42 43  1  0  0  0
 42 66  1  0  0  0
 42111  1  0  0  0
 42112  1  0  0  0
 43 44  1  0  0  0
 44113  1  0  0  0
 45 46  2  0  0  0
 45114  1  0  0  0
 46115  1  0  0  0
 47116  1  0  0  0
 47117  1  0  0  0
 48 56  1  0  0  0
 48 65  1  0  0  0
 48118  1  0  0  0
 49 50  1  0  0  0
 49 53  1  0  0  0
 49 64  1  0  0  0
 49119  1  0  0  0
 50 51  1  0  0  0
 50120  1  0  0  0
 50121  1  0  0  0
 51 52  1  0  0  0
 51122  1  0  0  0
 51123  1  0  0  0
 52124  1  0  0  0
 52125  1  0  0  0
 53 54  1  0  0  0
 54 55  2  0  0  0
 54126  1  0  0  0
 55 57  1  0  0  0
 55127  1  0  0  0
 56 69  2  0  0  0
 57 58  2  0  0  0
 57128  1  0  0  0
 58129  1  0  0  0
 59 60  1  0  0  0
 59 61  1  0  0  0
 59 62  1  0  0  0
 60130  1  0  0  0
 60131  1  0  0  0
 60132  1  0  0  0
 61133  1  0  0  0
 61134  1  0  0  0
 61135  1  0  0  0
 62136  1  0  0  0
 62137  1  0  0  0
 62138  1  0  0  0
 63 65  1  0  0  0
 63139  1  0  0  0
 63140  1  0  0  0
 63141  1  0  0  0
 64142  1  0  0  0
 65143  1  0  0  0
 68 79  1  0  0  0
 71 72  2  0  0  0
 71 75  1  0  0  0
 71144  1  0  0  0
 72 76  1  0  0  0
 72145  1  0  0  0
 73 74  1  0  0  0
 73 75  2  0  0  0
 73 80  1  0  0  0
 74 76  2  0  0  0
 74 81  1  0  0  0
 75 82  1  0  0  0
 76 84  1  0  0  0
 77 79  1  0  0  0
 77 82  1  0  0  0
 77146  1  0  0  0
 77147  1  0  0  0
 78 79  1  0  0  0
 78 82  1  0  0  0
 78148  1  0  0  0
 78149  1  0  0  0
 79150  1  0  0  0
 80151  1  0  0  0
 80152  1  0  0  0
 80153  1  0  0  0
 81 83  1  0  0  0
 81154  1  0  0  0
 81155  1  0  0  0
 83156  1  0  0  0
M  ISO  4   1 100  68 101  79 101  83 100
M  END
> <chiral flag>
0

> <version>
0

> <s_m_source_file>
/data/baiqing/PycharmProjects/Reinvent-master-3.2/result/LINK_invent/BTK/process_docking_weight1_custom_product_contain_oxygen_bond_distance_aromatic_linkinvent_7_9_3/rearranged_h_0032.sdf

> <i_m_source_file_index>
53

> <r_mmod_Potential_Energy-OPLS-2005>
312.438232421875

> <r_mmod_Stretch_Energy-OPLS-2005>
173.182327270508

> <r_mmod_Bend_Energy-OPLS-2005>
251.191879272461

> <r_mmod_Torsional_Energy-OPLS-2005>
242.514541625977

> <r_mmod_Improper_Torsional_Energy-OPLS-2005>
15.5174360275269

> <r_mmod_Van_der_Waal_Energy-OPLS-2005>
139.755767822266

> <r_mmod_Electrostatic_Energy-OPLS-2005>
-404.029510498047

> <r_mmod_Solvation_Energy-OPLS-2005>
-228.67578125

> <b_mmod_Minimization_Converged-OPLS-2005>
0

> <r_mmod_RMS_Derivative-OPLS-2005>
4.26078939437866

$$$$
53
                    3D
 Structure written by MMmdl.
163172  0  0  1  0            999 V2000
  -30.7134  -14.5111   20.5579 C   0  0  0  0  0  0
  -30.4063  -12.3379   19.4320 C   0  0  0  0  0  0
  -29.4904  -12.5181   18.2052 C   0  0  0  0  0  0
  -28.0152  -12.3581   18.6199 C   0  0  0  0  0  0
  -27.6479  -13.2221   19.8602 C   0  0  2  0  0  0
  -28.6879  -13.0597   20.9897 C   0  0  0  0  0  0
  -25.2543  -13.8176   20.5698 C   0  0  0  0  0  0
  -24.1824  -13.0422   20.9181 C   0  0  0  0  0  0
  -24.6399  -11.6908   20.8723 C   0  0  0  0  0  0
  -23.9081  -10.4293   21.0422 C   0  0  0  0  0  0
  -24.3643   -9.4203   21.9207 C   0  0  0  0  0  0
  -23.6317   -8.2243   22.0757 C   0  0  0  0  0  0
  -22.4289   -8.0288   21.3547 C   0  0  0  0  0  0
  -21.9935   -9.0273   20.4658 C   0  0  0  0  0  0
  -22.7253  -10.2159   20.3084 C   0  0  0  0  0  0
  -21.6861   -6.0764   22.5310 C   0  0  0  0  0  0
  -21.4029   -6.5664   23.8246 C   0  0  0  0  0  0
  -21.3647   -5.6808   24.9214 C   0  0  0  0  0  0
  -21.6034   -4.3069   24.7247 C   0  0  0  0  0  0
  -21.8815   -3.8165   23.4356 C   0  0  0  0  0  0
  -21.9192   -4.6993   22.3422 C   0  0  0  0  0  0
  -22.7865  -13.5222   21.1872 C   0  0  0  0  0  0
  -22.1653   -4.2189   21.0988 F   0  0  0  0  0  0
  -21.5598   -3.4538   25.7738 F   0  0  0  0  0  0
  -30.0091  -13.3553   20.4202 N   0  0  0  0  0  0
  -26.2965  -12.9356   20.3319 N   0  0  0  0  0  0
  -25.9307  -11.6484   20.5710 N   0  0  0  0  0  0
  -22.0478  -12.8239   22.0437 N   0  0  0  0  0  0
  -25.4268  -15.1902   20.4157 N   0  0  0  0  0  0
  -31.8899  -14.5820   20.2056 O   0  0  0  0  0  0
  -21.6626   -6.8892   21.4258 O   0  0  0  0  0  0
  -22.3561  -14.5536   20.6704 O   0  0  0  0  0  0
  -24.6202  -31.8639   23.2055 C   0  0  0  0  0  0
  -25.9074  -32.4795   23.8363 C   0  0  1  0  0  0
  -27.2097  -27.3659   20.1174 C   0  0  0  0  0  0
  -25.5912  -33.8603   24.2290 N   0  0  0  0  0  0
  -23.4086  -30.4884   21.5512 C   0  0  2  0  0  0
  -24.8440  -28.9439   20.1164 C   0  0  0  0  0  0
  -22.7404  -29.4656   22.5001 C   0  0  0  0  0  0
  -18.0244  -28.1357   22.8488 C   0  0  0  0  0  0
  -24.1514  -36.7340   23.2639 C   0  0  0  0  0  0
  -25.9403  -30.8154   21.3607 C   0  0  0  0  0  0
  -26.0109  -29.4459   20.7048 C   0  0  0  0  0  0
  -27.1960  -28.6699   20.6857 C   0  0  0  0  0  0
  -26.0091  -26.8757   19.5586 C   0  0  0  0  0  0
  -24.8423  -27.6629   19.5410 C   0  0  0  0  0  0
  -23.6152  -29.8234   20.1648 C   0  0  0  0  0  0
  -25.4138  -36.3119   24.0322 C   0  0  1  0  0  0
  -20.5855  -28.3660   23.1317 C   0  0  2  0  0  0
  -20.6767  -26.9409   22.5421 C   0  0  0  0  0  0
  -19.5751  -26.6370   21.5215 C   0  0  0  0  0  0
  -18.1917  -26.7899   22.1617 C   0  0  0  0  0  0
  -19.1489  -28.8814   23.2896 C   0  0  0  0  0  0
  -18.9444  -30.1434   23.8894 C   0  0  0  0  0  0
  -17.6448  -30.6578   24.0553 C   0  0  0  0  0  0
  -25.9063  -34.9472   23.5098 C   0  0  0  0  0  0
  -16.5332  -29.9099   23.6316 C   0  0  0  0  0  0
  -16.7230  -28.6506   23.0338 C   0  0  0  0  0  0
  -26.4464  -31.6586   25.0717 C   0  0  0  0  0  0
  -25.3701  -31.3751   26.1448 C   0  0  0  0  0  0
  -27.0270  -30.3004   24.6131 C   0  0  0  0  0  0
  -27.6016  -32.4308   25.7490 C   0  0  0  0  0  0
  -27.5591  -37.1853   24.8452 C   0  0  0  0  0  0
  -21.4121  -29.3025   22.3712 N   0  0  0  0  0  0
  -26.4320  -37.3807   23.9375 N   0  0  0  0  0  0
  -24.6761  -31.0732   22.0960 N   0  0  0  0  0  0
  -23.4147  -28.8178   23.3051 O   0  0  0  0  0  0
  -28.3963  -26.6473   20.1356 O   0  0  0  0  0  0
  -26.5638  -34.8930   22.4685 O   0  0  0  0  0  0
  -23.5386  -32.1382   23.7430 O   0  0  0  0  0  0
  -30.8003  -20.7130   19.1978 C   0  0  0  0  0  0
  -31.3806  -19.5586   18.6630 C   0  0  0  0  0  0
  -29.9631  -20.6609   20.3320 C   0  0  0  0  0  0
  -29.7974  -19.3794   20.9789 C   0  0  0  0  0  0
  -30.4974  -18.2034   20.5062 C   0  0  0  0  0  0
  -31.2465  -18.3231   19.3064 C   0  0  0  0  0  0
  -28.2896  -24.6051   18.5160 C   0  0  0  0  0  0
  -28.5927  -23.1134   18.7545 C   0  0  0  0  0  0
  -28.0092  -24.1182   20.8416 C   0  0  0  0  0  0
  -28.5501  -25.2120   19.8936 C   0  0  2  0  0  0
  -28.9465  -19.2757   22.2353 C   0  0  0  0  0  0
  -30.6640  -16.9110   21.3733 C   0  0  0  0  0  0
  -29.4597  -22.0319   20.9031 C   0  0  0  0  0  0
  -30.0453  -15.6144   20.9757 N   0  0  0  0  0  0
  -28.3623  -22.8021   20.1972 N   0  3  2  0  0  0
  -32.1347  -17.0190   18.6115 Cl  0  0  0  0  0  0
  -31.4539  -12.4151   19.1328 H   0  0  0  0  0  0
  -30.2879  -11.3389   19.8544 H   0  0  0  0  0  0
  -29.7542  -11.8052   17.4249 H   0  0  0  0  0  0
  -29.6428  -13.5060   17.7657 H   0  0  0  0  0  0
  -27.8466  -11.3040   18.8464 H   0  0  0  0  0  0
  -27.3587  -12.5927   17.7800 H   0  0  0  0  0  0
  -27.6711  -14.2629   19.5359 H   0  0  0  0  0  0
  -28.6752  -12.0410   21.3824 H   0  0  0  0  0  0
  -28.4588  -13.7113   21.8330 H   0  0  0  0  0  0
  -25.2788   -9.5662   22.4780 H   0  0  0  0  0  0
  -24.0039   -7.4625   22.7467 H   0  0  0  0  0  0
  -21.0863   -8.8810   19.8944 H   0  0  0  0  0  0
  -22.3737  -10.9719   19.6204 H   0  0  0  0  0  0
  -21.2048   -7.6179   23.9769 H   0  0  0  0  0  0
  -21.1451   -6.0530   25.9123 H   0  0  0  0  0  0
  -22.0598   -2.7618   23.2868 H   0  0  0  0  0  0
  -22.4053  -11.9944   22.4897 H   0  0  0  0  0  0
  -21.1081  -13.1274   22.2591 H   0  0  0  0  0  0
  -24.6540  -15.8388   20.5147 H   0  0  0  0  0  0
  -26.2804  -15.6356   20.1011 H   0  0  0  0  0  0
  -26.7126  -32.5480   23.1102 H   0  0  0  0  0  0
  -25.0031  -33.9786   25.0401 H   0  0  0  0  0  0
  -22.7007  -31.3073   21.4154 H   0  0  0  0  0  0
  -23.3769  -35.9682   23.3291 H   0  0  0  0  0  0
  -24.3600  -36.8970   22.2057 H   0  0  0  0  0  0
  -23.7281  -37.6553   23.6653 H   0  0  0  0  0  0
  -26.0633  -31.5821   20.5952 H   0  0  0  0  0  0
  -26.8221  -30.8602   21.9876 H   0  0  0  0  0  0
  -28.1023  -29.0635   21.1291 H   0  0  0  0  0  0
  -25.9281  -25.8810   19.1620 H   0  0  0  0  0  0
  -23.9336  -27.2631   19.1074 H   0  0  0  0  0  0
  -23.7373  -30.5997   19.4083 H   0  0  0  0  0  0
  -22.7335  -29.2538   19.8671 H   0  0  0  0  0  0
  -25.1337  -36.1988   25.0818 H   0  0  0  0  0  0
  -20.9895  -28.3229   24.1455 H   0  0  0  0  0  0
  -20.5700  -26.2277   23.3617 H   0  0  0  0  0  0
  -21.6661  -26.7488   22.1232 H   0  0  0  0  0  0
  -19.6969  -25.6283   21.1255 H   0  0  0  0  0  0
  -19.6713  -27.3170   20.6748 H   0  0  0  0  0  0
  -17.4222  -26.6582   21.4000 H   0  0  0  0  0  0
  -18.0349  -26.0040   22.9015 H   0  0  0  0  0  0
  -19.7925  -30.7225   24.2275 H   0  0  0  0  0  0
  -17.5020  -31.6263   24.5154 H   0  0  0  0  0  0
  -15.5336  -30.3007   23.7659 H   0  0  0  0  0  0
  -15.8617  -28.0830   22.7065 H   0  0  0  0  0  0
  -24.5848  -30.7126   25.7794 H   0  0  0  0  0  0
  -24.8936  -32.2941   26.4874 H   0  0  0  0  0  0
  -25.8014  -30.8920   27.0219 H   0  0  0  0  0  0
  -26.2830  -29.6821   24.1094 H   0  0  0  0  0  0
  -27.3904  -29.7201   25.4626 H   0  0  0  0  0  0
  -27.8717  -30.4296   23.9359 H   0  0  0  0  0  0
  -27.2592  -33.3575   26.2102 H   0  0  0  0  0  0
  -28.3796  -32.6922   25.0305 H   0  0  0  0  0  0
  -28.0698  -31.8417   26.5387 H   0  0  0  0  0  0
  -28.2636  -38.0132   24.7492 H   0  0  0  0  0  0
  -28.1062  -36.2668   24.6278 H   0  0  0  0  0  0
  -27.2301  -37.1507   25.8857 H   0  0  0  0  0  0
  -20.9282  -29.8752   21.6946 H   0  0  0  0  0  0
  -26.0205  -38.2891   24.1332 H   0  0  0  0  0  0
  -31.0713  -21.6411   18.7265 H   0  0  0  0  0  0
  -32.0090  -19.6356   17.7880 H   0  0  0  0  0  0
  -27.2667  -24.7169   18.1692 H   0  0  0  0  0  0
  -28.9415  -25.0290   17.7538 H   0  0  0  0  0  0
  -29.6347  -22.9937   18.4950 H   0  0  0  0  0  0
  -28.0186  -22.4522   18.1047 H   0  0  0  0  0  0
  -26.9219  -24.1903   20.9105 H   0  0  0  0  0  0
  -28.4025  -24.2134   21.8556 H   0  0  0  0  0  0
  -29.6303  -25.1318   20.0153 H   0  0  0  0  0  0
  -28.0911  -19.9500   22.2002 H   0  0  0  0  0  0
  -29.5475  -19.5049   23.1176 H   0  0  0  0  0  0
  -28.5221  -18.2802   22.3512 H   0  0  0  0  0  0
  -30.3597  -17.0973   22.4019 H   0  0  0  0  0  0
  -31.7422  -16.7621   21.4689 H   0  0  0  0  0  0
  -30.3383  -22.6805   20.9553 H   0  0  0  0  0  0
  -29.1585  -21.9054   21.9428 H   0  0  0  0  0  0
  -29.0709  -15.4880   21.2034 H   0  0  0  0  0  0
  -27.5419  -22.2173   20.2443 H   0  0  0  0  0  0
  1 25  1  0  0  0
  1 30  2  0  0  0
  1 84  1  0  0  0
  2  3  1  0  0  0
  2 25  1  0  0  0
  2 87  1  0  0  0
  2 88  1  0  0  0
  3  4  1  0  0  0
  3 89  1  0  0  0
  3 90  1  0  0  0
  4  5  1  0  0  0
  4 91  1  0  0  0
  4 92  1  0  0  0
  5  6  1  0  0  0
  5 26  1  0  0  0
  5 93  1  0  0  0
  6 25  1  0  0  0
  6 94  1  0  0  0
  6 95  1  0  0  0
  7  8  2  0  0  0
  7 26  1  0  0  0
  7 29  1  0  0  0
  8  9  1  0  0  0
  8 22  1  0  0  0
  9 10  1  0  0  0
  9 27  2  0  0  0
 10 11  2  0  0  0
 10 15  1  0  0  0
 11 12  1  0  0  0
 11 96  1  0  0  0
 12 13  2  0  0  0
 12 97  1  0  0  0
 13 14  1  0  0  0
 13 31  1  0  0  0
 14 15  2  0  0  0
 14 98  1  0  0  0
 15 99  1  0  0  0
 16 17  2  0  0  0
 16 21  1  0  0  0
 16 31  1  0  0  0
 17 18  1  0  0  0
 17100  1  0  0  0
 18 19  2  0  0  0
 18101  1  0  0  0
 19 20  1  0  0  0
 19 24  1  0  0  0
 20 21  2  0  0  0
 20102  1  0  0  0
 21 23  1  0  0  0
 22 28  1  0  0  0
 22 32  2  0  0  0
 26 27  1  0  0  0
 28103  1  0  0  0
 28104  1  0  0  0
 29105  1  0  0  0
 29106  1  0  0  0
 33 34  1  0  0  0
 33 66  1  0  0  0
 33 70  2  0  0  0
 34 36  1  0  0  0
 34 59  1  0  0  0
 34107  1  0  0  0
 35 44  2  0  0  0
 35 45  1  0  0  0
 35 68  1  0  0  0
 36 56  1  0  0  0
 36108  1  0  0  0
 37 39  1  0  0  0
 37 47  1  0  0  0
 37 66  1  0  0  0
 37109  1  0  0  0
 38 43  2  0  0  0
 38 46  1  0  0  0
 38 47  1  0  0  0
 39 64  1  0  0  0
 39 67  2  0  0  0
 40 52  1  0  0  0
 40 53  2  0  0  0
 40 58  1  0  0  0
 41110  1  0  0  0
 41111  1  0  0  0
 41112  1  0  0  0
 41 48  1  0  0  0
 42 43  1  0  0  0
 42 66  1  0  0  0
 42113  1  0  0  0
 42114  1  0  0  0
 43 44  1  0  0  0
 44115  1  0  0  0
 45 46  2  0  0  0
 45116  1  0  0  0
 46117  1  0  0  0
 47118  1  0  0  0
 47119  1  0  0  0
 48 56  1  0  0  0
 48 65  1  0  0  0
 48120  1  0  0  0
 49 50  1  0  0  0
 49 53  1  0  0  0
 49 64  1  0  0  0
 49121  1  0  0  0
 50 51  1  0  0  0
 50122  1  0  0  0
 50123  1  0  0  0
 51 52  1  0  0  0
 51124  1  0  0  0
 51125  1  0  0  0
 52126  1  0  0  0
 52127  1  0  0  0
 53 54  1  0  0  0
 54 55  2  0  0  0
 54128  1  0  0  0
 55 57  1  0  0  0
 55129  1  0  0  0
 56 69  2  0  0  0
 57 58  2  0  0  0
 57130  1  0  0  0
 58131  1  0  0  0
 59 60  1  0  0  0
 59 61  1  0  0  0
 59 62  1  0  0  0
 60132  1  0  0  0
 60133  1  0  0  0
 60134  1  0  0  0
 61135  1  0  0  0
 61136  1  0  0  0
 61137  1  0  0  0
 62138  1  0  0  0
 62139  1  0  0  0
 62140  1  0  0  0
 63 65  1  0  0  0
 63141  1  0  0  0
 63142  1  0  0  0
 63143  1  0  0  0
 64144  1  0  0  0
 65145  1  0  0  0
 68 80  1  0  0  0
 71 72  2  0  0  0
 71 73  1  0  0  0
 71146  1  0  0  0
 72 76  1  0  0  0
 72147  1  0  0  0
 73 74  2  0  0  0
 73 83  1  0  0  0
 74 75  1  0  0  0
 74 81  1  0  0  0
 75 76  2  0  0  0
 75 82  1  0  0  0
 76 86  1  0  0  0
 77 78  1  0  0  0
 77 80  1  0  0  0
 77148  1  0  0  0
 77149  1  0  0  0
 78 85  1  0  0  0
 78150  1  0  0  0
 78151  1  0  0  0
 79 80  1  0  0  0
 79 85  1  0  0  0
 79152  1  0  0  0
 79153  1  0  0  0
 80154  1  0  0  0
 81155  1  0  0  0
 81156  1  0  0  0
 81157  1  0  0  0
 82 84  1  0  0  0
 82158  1  0  0  0
 82159  1  0  0  0
 83160  1  0  0  0
 83161  1  0  0  0
 83 85  1  0  0  0
 84162  1  0  0  0
 85163  1  0  0  0
M  CHG  1  85   1
M  ISO  4   1 100  68 101  80 101  84 100
M  END
> <chiral flag>
0

> <version>
0

> <s_m_source_file>
/data/baiqing/PycharmProjects/Reinvent-master-3.2/result/LINK_invent/BTK/process_docking_weight1_custom_product_contain_oxygen_bond_distance_aromatic_linkinvent_7_9_3/rearranged_h_0032.sdf

> <i_m_source_file_index>
54

> <r_mmod_Potential_Energy-OPLS-2005>
-13.1569128036499

> <r_mmod_Stretch_Energy-OPLS-2005>
63.1517791748047

> <r_mmod_Bend_Energy-OPLS-2005>
201.969863891602

> <r_mmod_Torsional_Energy-OPLS-2005>
250.795059204102

> <r_mmod_Improper_Torsional_Energy-OPLS-2005>
5.57304382324219

> <r_mmod_Van_der_Waal_Energy-OPLS-2005>
156.309829711914

> <r_mmod_Electrostatic_Energy-OPLS-2005>
-264.732696533203

> <r_mmod_Solvation_Energy-OPLS-2005>
-453.202667236328

> <b_mmod_Minimization_Converged-OPLS-2005>
0

> <r_mmod_RMS_Derivative-OPLS-2005>
4.53450918197632

$$$$
54
                    3D
 Structure written by MMmdl.
173182  0  0  1  0            999 V2000
  -30.7080  -14.6491   20.5934 C   0  0  0  0  0  0
  -30.4232  -12.4373   19.4483 C   0  0  0  0  0  0
  -29.4961  -12.5151   18.2181 C   0  0  0  0  0  0
  -28.0248  -12.3330   18.6307 C   0  0  0  0  0  0
  -27.6431  -13.2112   19.8488 C   0  0  2  0  0  0
  -28.6871  -13.1324   20.9790 C   0  0  0  0  0  0
  -25.2545  -13.8128   20.5731 C   0  0  0  0  0  0
  -24.1822  -13.0399   20.9227 C   0  0  0  0  0  0
  -24.6394  -11.6868   20.8762 C   0  0  0  0  0  0
  -23.9071  -10.4254   21.0443 C   0  0  0  0  0  0
  -24.3625   -9.4171   21.9219 C   0  0  0  0  0  0
  -23.6295   -8.2213   22.0790 C   0  0  0  0  0  0
  -22.4267   -8.0255   21.3582 C   0  0  0  0  0  0
  -21.9912   -9.0231   20.4683 C   0  0  0  0  0  0
  -22.7245  -10.2105   20.3087 C   0  0  0  0  0  0
  -21.6831   -6.0724   22.5319 C   0  0  0  0  0  0
  -21.3999   -6.5641   23.8246 C   0  0  0  0  0  0
  -21.3663   -5.6801   24.9215 C   0  0  0  0  0  0
  -21.6043   -4.3063   24.7266 C   0  0  0  0  0  0
  -21.8804   -3.8144   23.4393 C   0  0  0  0  0  0
  -21.9182   -4.6955   22.3443 C   0  0  0  0  0  0
  -22.7855  -13.5206   21.1856 C   0  0  0  0  0  0
  -22.1636   -4.2142   21.1014 F   0  0  0  0  0  0
  -21.5643   -3.4547   25.7782 F   0  0  0  0  0  0
  -30.0087  -13.4703   20.4262 N   0  0  0  0  0  0
  -26.2955  -12.9303   20.3308 N   0  0  0  0  0  0
  -25.9313  -11.6468   20.5775 N   0  0  0  0  0  0
  -22.0470  -12.8242   22.0421 N   0  0  0  0  0  0
  -25.4261  -15.1870   20.4242 N   0  0  0  0  0  0
  -31.7958  -14.8040   20.0287 O   0  0  0  0  0  0
  -21.6617   -6.8858   21.4279 O   0  0  0  0  0  0
  -22.3565  -14.5505   20.6672 O   0  0  0  0  0  0
  -24.6294  -31.8595   23.2016 C   0  0  0  0  0  0
  -25.9143  -32.4776   23.8347 C   0  0  1  0  0  0
  -27.2192  -27.2970   20.1120 C   0  0  0  0  0  0
  -25.5949  -33.8579   24.2273 N   0  0  0  0  0  0
  -23.4216  -30.4846   21.5451 C   0  0  2  0  0  0
  -24.8650  -28.9359   20.1134 C   0  0  0  0  0  0
  -22.7487  -29.4633   22.4928 C   0  0  0  0  0  0
  -18.0288  -28.1392   22.8489 C   0  0  0  0  0  0
  -24.1494  -36.7291   23.2636 C   0  0  0  0  0  0
  -25.9648  -30.7840   21.3734 C   0  0  0  0  0  0
  -26.0362  -29.4091   20.7157 C   0  0  0  0  0  0
  -27.2142  -28.6024   20.7020 C   0  0  0  0  0  0
  -26.0143  -26.8757   19.5004 C   0  0  0  0  0  0
  -24.8577  -27.6764   19.4984 C   0  0  0  0  0  0
  -23.6370  -29.8220   20.1596 C   0  0  0  0  0  0
  -25.4121  -36.3080   24.0323 C   0  0  1  0  0  0
  -20.5894  -28.3700   23.1278 C   0  0  2  0  0  0
  -20.6782  -26.9426   22.5404 C   0  0  0  0  0  0
  -19.5752  -26.6396   21.5216 C   0  0  0  0  0  0
  -18.1934  -26.7938   22.1625 C   0  0  0  0  0  0
  -19.1547  -28.8863   23.2883 C   0  0  0  0  0  0
  -18.9461  -30.1461   23.8907 C   0  0  0  0  0  0
  -17.6463  -30.6592   24.0572 C   0  0  0  0  0  0
  -25.9063  -34.9451   23.5094 C   0  0  0  0  0  0
  -16.5353  -29.9094   23.6329 C   0  0  0  0  0  0
  -16.7281  -28.6510   23.0357 C   0  0  0  0  0  0
  -26.4514  -31.6588   25.0724 C   0  0  0  0  0  0
  -25.3734  -31.3729   26.1440 C   0  0  0  0  0  0
  -27.0362  -30.3011   24.6180 C   0  0  0  0  0  0
  -27.6077  -32.4324   25.7497 C   0  0  0  0  0  0
  -27.5584  -37.1806   24.8468 C   0  0  0  0  0  0
  -21.4198  -29.3062   22.3680 N   0  0  0  0  0  0
  -26.4299  -37.3773   23.9408 N   0  0  0  0  0  0
  -24.6912  -31.0599   22.0967 N   0  0  0  0  0  0
  -23.4211  -28.8169   23.3007 O   0  0  0  0  0  0
  -28.3637  -26.4754   20.1513 O   0  0  0  0  0  0
  -26.5620  -34.8922   22.4658 O   0  0  0  0  0  0
  -23.5455  -32.1397   23.7335 O   0  0  0  0  0  0
  -28.8698  -18.9006   19.6861 C   0  0  0  0  0  0
  -30.3941  -18.1620   21.8465 C   0  0  0  0  0  0
  -29.1621  -19.9370   20.6149 C   0  0  0  0  0  0
  -29.2502  -17.5265   19.8496 C   0  0  0  0  0  0
  -29.9904  -19.5261   21.6973 C   0  0  0  0  0  0
  -29.9780  -17.0758   21.0045 C   0  0  0  0  0  0
  -29.7361  -23.0903   19.1485 C   0  0  0  0  0  0
  -30.2434  -22.2378   18.2416 C   0  0  0  0  0  0
  -29.6445  -24.6128   19.0444 C   0  0  0  0  0  0
  -28.2462  -23.8926   20.8394 C   0  0  0  0  0  0
  -28.3568  -25.0336   19.7573 C   0  0  1  0  0  0
  -28.7595  -16.5960   18.7544 C   0  0  0  0  0  0
  -30.4261  -20.4964   22.7855 C   0  0  0  0  0  0
  -29.2314  -15.8753   23.7479 C   0  0  0  0  0  0
  -30.8630  -14.0021   23.3791 C   0  0  0  0  0  0
  -28.3945  -21.3308   20.5153 C   0  0  0  0  0  0
  -30.4375  -15.4190   22.8952 C   0  0  0  0  0  0
  -30.2112  -15.6440   21.4210 N   0  0  0  0  0  0
  -29.0847  -22.6910   20.4288 N   0  3  1  0  0  0
  -31.4604  -12.5545   19.1347 H   0  0  0  0  0  0
  -30.3647  -11.4483   19.9065 H   0  0  0  0  0  0
  -29.7745  -11.7516   17.4926 H   0  0  0  0  0  0
  -29.6214  -13.4725   17.7118 H   0  0  0  0  0  0
  -27.8693  -11.2803   18.8670 H   0  0  0  0  0  0
  -27.3660  -12.5509   17.7876 H   0  0  0  0  0  0
  -27.6401  -14.2299   19.4839 H   0  0  0  0  0  0
  -28.7113  -12.1367   21.4232 H   0  0  0  0  0  0
  -28.3936  -13.8172   21.7719 H   0  0  0  0  0  0
  -25.2778   -9.5628   22.4794 H   0  0  0  0  0  0
  -24.0016   -7.4599   22.7495 H   0  0  0  0  0  0
  -21.0846   -8.8729   19.8987 H   0  0  0  0  0  0
  -22.3712  -10.9641   19.6188 H   0  0  0  0  0  0
  -21.1964   -7.6142   23.9751 H   0  0  0  0  0  0
  -21.1518   -6.0544   25.9118 H   0  0  0  0  0  0
  -22.0578   -2.7606   23.2930 H   0  0  0  0  0  0
  -22.4030  -11.9894   22.4841 H   0  0  0  0  0  0
  -21.1108  -13.1349   22.2576 H   0  0  0  0  0  0
  -24.6646  -15.8422   20.5596 H   0  0  0  0  0  0
  -26.3117  -15.6373   20.2398 H   0  0  0  0  0  0
  -26.7209  -32.5432   23.1090 H   0  0  0  0  0  0
  -25.0124  -33.9717   25.0435 H   0  0  0  0  0  0
  -22.7166  -31.3060   21.4026 H   0  0  0  0  0  0
  -23.3754  -35.9628   23.3301 H   0  0  0  0  0  0
  -24.3584  -36.8912   22.2052 H   0  0  0  0  0  0
  -23.7253  -37.6495   23.6658 H   0  0  0  0  0  0
  -26.0982  -31.5456   20.6037 H   0  0  0  0  0  0
  -26.8457  -30.8328   22.0019 H   0  0  0  0  0  0
  -28.1156  -28.9692   21.1742 H   0  0  0  0  0  0
  -25.9076  -25.9182   19.0203 H   0  0  0  0  0  0
  -23.9571  -27.3090   19.0264 H   0  0  0  0  0  0
  -23.7641  -30.6005   19.4062 H   0  0  0  0  0  0
  -22.7543  -29.2585   19.8516 H   0  0  0  0  0  0
  -25.1305  -36.1925   25.0813 H   0  0  0  0  0  0
  -20.9985  -28.3277   24.1401 H   0  0  0  0  0  0
  -20.5692  -26.2319   23.3609 H   0  0  0  0  0  0
  -21.6645  -26.7467   22.1189 H   0  0  0  0  0  0
  -19.6913  -25.6306   21.1252 H   0  0  0  0  0  0
  -19.6684  -27.3204   20.6742 H   0  0  0  0  0  0
  -17.4206  -26.6698   21.4027 H   0  0  0  0  0  0
  -18.0328  -26.0077   22.9013 H   0  0  0  0  0  0
  -19.7937  -30.7279   24.2288 H   0  0  0  0  0  0
  -17.5012  -31.6270   24.5177 H   0  0  0  0  0  0
  -15.5355  -30.3001   23.7640 H   0  0  0  0  0  0
  -15.8678  -28.0827   22.7073 H   0  0  0  0  0  0
  -24.5906  -30.7086   25.7750 H   0  0  0  0  0  0
  -24.8929  -32.2900   26.4861 H   0  0  0  0  0  0
  -25.8044  -30.8895   27.0215 H   0  0  0  0  0  0
  -26.2929  -29.6751   24.1219 H   0  0  0  0  0  0
  -27.4080  -29.7282   25.4686 H   0  0  0  0  0  0
  -27.8796  -30.4307   23.9390 H   0  0  0  0  0  0
  -27.2689  -33.3628   26.2069 H   0  0  0  0  0  0
  -28.3889  -32.6877   25.0324 H   0  0  0  0  0  0
  -28.0738  -31.8448   26.5415 H   0  0  0  0  0  0
  -28.2600  -38.0102   24.7509 H   0  0  0  0  0  0
  -28.1079  -36.2634   24.6299 H   0  0  0  0  0  0
  -27.2300  -37.1461   25.8870 H   0  0  0  0  0  0
  -20.9379  -29.8799   21.6896 H   0  0  0  0  0  0
  -26.0176  -38.2851   24.1392 H   0  0  0  0  0  0
  -28.2506  -19.1523   18.8358 H   0  0  0  0  0  0
  -31.0012  -17.9669   22.7146 H   0  0  0  0  0  0
  -30.6713  -22.6048   17.3198 H   0  0  0  0  0  0
  -30.2419  -21.1678   18.3905 H   0  0  0  0  0  0
  -29.6498  -24.9440   18.0058 H   0  0  0  0  0  0
  -30.5148  -25.0441   19.5380 H   0  0  0  0  0  0
  -27.1996  -23.6250   20.9829 H   0  0  0  0  0  0
  -28.6131  -24.2492   21.8012 H   0  0  0  0  0  0
  -27.5902  -24.8380   19.0133 H   0  0  0  0  0  0
  -28.7731  -17.1109   17.7930 H   0  0  0  0  0  0
  -27.7273  -16.3102   18.9414 H   0  0  0  0  0  0
  -29.3681  -15.7090   18.6176 H   0  0  0  0  0  0
  -30.1749  -20.0946   23.7680 H   0  0  0  0  0  0
  -29.9594  -21.4756   22.7055 H   0  0  0  0  0  0
  -31.5074  -20.6380   22.7529 H   0  0  0  0  0  0
  -29.4750  -15.8360   24.8097 H   0  0  0  0  0  0
  -28.3625  -15.2360   23.5958 H   0  0  0  0  0  0
  -28.9144  -16.8981   23.5496 H   0  0  0  0  0  0
  -31.0722  -14.0176   24.4503 H   0  0  0  0  0  0
  -31.7734  -13.6394   22.8965 H   0  0  0  0  0  0
  -30.0828  -13.2570   23.2421 H   0  0  0  0  0  0
  -27.7575  -21.3566   21.4009 H   0  0  0  0  0  0
  -27.6971  -21.2739   19.6791 H   0  0  0  0  0  0
  -31.3020  -16.0174   23.1733 H   0  0  0  0  0  0
  -29.8137  -22.6419   21.1248 H   0  0  0  0  0  0
  1 25  1  0  0  0
  1 30  2  0  0  0
  1 88  1  0  0  0
  2  3  1  0  0  0
  2 25  1  0  0  0
  2 90  1  0  0  0
  2 91  1  0  0  0
  3  4  1  0  0  0
  3 92  1  0  0  0
  3 93  1  0  0  0
  4  5  1  0  0  0
  4 94  1  0  0  0
  4 95  1  0  0  0
  5  6  1  0  0  0
  5 26  1  0  0  0
  5 96  1  0  0  0
  6 25  1  0  0  0
  6 97  1  0  0  0
  6 98  1  0  0  0
  7  8  2  0  0  0
  7 26  1  0  0  0
  7 29  1  0  0  0
  8  9  1  0  0  0
  8 22  1  0  0  0
  9 10  1  0  0  0
  9 27  2  0  0  0
 10 11  2  0  0  0
 10 15  1  0  0  0
 11 12  1  0  0  0
 11 99  1  0  0  0
 12 13  2  0  0  0
 12100  1  0  0  0
 13 14  1  0  0  0
 13 31  1  0  0  0
 14 15  2  0  0  0
 14101  1  0  0  0
 15102  1  0  0  0
 16 17  2  0  0  0
 16 21  1  0  0  0
 16 31  1  0  0  0
 17 18  1  0  0  0
 17103  1  0  0  0
 18 19  2  0  0  0
 18104  1  0  0  0
 19 20  1  0  0  0
 19 24  1  0  0  0
 20 21  2  0  0  0
 20105  1  0  0  0
 21 23  1  0  0  0
 22 28  1  0  0  0
 22 32  2  0  0  0
 26 27  1  0  0  0
 28106  1  0  0  0
 28107  1  0  0  0
 29108  1  0  0  0
 29109  1  0  0  0
 33 34  1  0  0  0
 33 66  1  0  0  0
 33 70  2  0  0  0
 34 36  1  0  0  0
 34 59  1  0  0  0
 34110  1  0  0  0
 35 44  2  0  0  0
 35 45  1  0  0  0
 35 68  1  0  0  0
 36 56  1  0  0  0
 36111  1  0  0  0
 37 39  1  0  0  0
 37 47  1  0  0  0
 37 66  1  0  0  0
 37112  1  0  0  0
 38 43  2  0  0  0
 38 46  1  0  0  0
 38 47  1  0  0  0
 39 64  1  0  0  0
 39 67  2  0  0  0
 40 52  1  0  0  0
 40 53  2  0  0  0
 40 58  1  0  0  0
 41113  1  0  0  0
 41114  1  0  0  0
 41115  1  0  0  0
 41 48  1  0  0  0
 42 43  1  0  0  0
 42 66  1  0  0  0
 42116  1  0  0  0
 42117  1  0  0  0
 43 44  1  0  0  0
 44118  1  0  0  0
 45 46  2  0  0  0
 45119  1  0  0  0
 46120  1  0  0  0
 47121  1  0  0  0
 47122  1  0  0  0
 48 56  1  0  0  0
 48 65  1  0  0  0
 48123  1  0  0  0
 49 50  1  0  0  0
 49 53  1  0  0  0
 49 64  1  0  0  0
 49124  1  0  0  0
 50 51  1  0  0  0
 50125  1  0  0  0
 50126  1  0  0  0
 51 52  1  0  0  0
 51127  1  0  0  0
 51128  1  0  0  0
 52129  1  0  0  0
 52130  1  0  0  0
 53 54  1  0  0  0
 54 55  2  0  0  0
 54131  1  0  0  0
 55 57  1  0  0  0
 55132  1  0  0  0
 56 69  2  0  0  0
 57 58  2  0  0  0
 57133  1  0  0  0
 58134  1  0  0  0
 59 60  1  0  0  0
 59 61  1  0  0  0
 59 62  1  0  0  0
 60135  1  0  0  0
 60136  1  0  0  0
 60137  1  0  0  0
 61138  1  0  0  0
 61139  1  0  0  0
 61140  1  0  0  0
 62141  1  0  0  0
 62142  1  0  0  0
 62143  1  0  0  0
 63 65  1  0  0  0
 63144  1  0  0  0
 63145  1  0  0  0
 63146  1  0  0  0
 64147  1  0  0  0
 65148  1  0  0  0
 68 81  1  0  0  0
 71 73  2  0  0  0
 71 74  1  0  0  0
 71149  1  0  0  0
 72 75  2  0  0  0
 72 76  1  0  0  0
 72150  1  0  0  0
 73 75  1  0  0  0
 73 86  1  0  0  0
 74 76  2  0  0  0
 74 82  1  0  0  0
 75 83  1  0  0  0
 76 88  1  0  0  0
 77 78  2  0  0  0
 77 79  1  0  0  0
 77 89  1  0  0  0
 78151  1  0  0  0
 78152  1  0  0  0
 79 81  1  0  0  0
 79153  1  0  0  0
 79154  1  0  0  0
 80 81  1  0  0  0
 80 89  1  0  0  0
 80155  1  0  0  0
 80156  1  0  0  0
 81157  1  0  0  0
 82158  1  0  0  0
 82159  1  0  0  0
 82160  1  0  0  0
 83161  1  0  0  0
 83162  1  0  0  0
 83163  1  0  0  0
 84164  1  0  0  0
 84165  1  0  0  0
 84166  1  0  0  0
 84 87  1  0  0  0
 85 87  1  0  0  0
 85167  1  0  0  0
 85168  1  0  0  0
 85169  1  0  0  0
 86170  1  0  0  0
 86171  1  0  0  0
 86 89  1  0  0  0
 87 88  1  0  0  0
 87172  1  0  0  0
 89173  1  0  0  0
M  CHG  1  89   1
M  ISO  4   1 100  68 101  81 101  88 100
M  END
> <chiral flag>
0

> <version>
0

> <s_m_source_file>
/data/baiqing/PycharmProjects/Reinvent-master-3.2/result/LINK_invent/BTK/process_docking_weight1_custom_product_contain_oxygen_bond_distance_aromatic_linkinvent_7_9_3/rearranged_h_0032.sdf

> <i_m_source_file_index>
55

> <r_mmod_Potential_Energy-OPLS-2005>
302.497039794922

> <r_mmod_Stretch_Energy-OPLS-2005>
112.309501647949

> <r_mmod_Bend_Energy-OPLS-2005>
219.373886108398

> <r_mmod_Torsional_Energy-OPLS-2005>
316.214416503906

> <r_mmod_Improper_Torsional_Energy-OPLS-2005>
4.79655313491821

> <r_mmod_Van_der_Waal_Energy-OPLS-2005>
154.560943603516

> <r_mmod_Electrostatic_Energy-OPLS-2005>
-154.18684387207

> <r_mmod_Solvation_Energy-OPLS-2005>
-403.335418701172

> <b_mmod_Minimization_Converged-OPLS-2005>
0

> <r_mmod_RMS_Derivative-OPLS-2005>
2.91533017158508

$$$$
55
                    3D
 Structure written by MMmdl.
164173  0  0  1  0            999 V2000
  -30.6166  -14.6761   20.4914 C   0  0  0  0  0  0
  -30.4442  -12.4110   19.4620 C   0  0  0  0  0  0
  -29.5105  -12.4901   18.2327 C   0  0  0  0  0  0
  -28.0374  -12.3147   18.6529 C   0  0  0  0  0  0
  -27.6505  -13.2099   19.8587 C   0  0  2  0  0  0
  -28.6982  -13.1024   20.9909 C   0  0  0  0  0  0
  -25.2537  -13.8125   20.5632 C   0  0  0  0  0  0
  -24.1831  -13.0411   20.9194 C   0  0  0  0  0  0
  -24.6405  -11.6881   20.8776 C   0  0  0  0  0  0
  -23.9074  -10.4274   21.0432 C   0  0  0  0  0  0
  -24.3618   -9.4183   21.9205 C   0  0  0  0  0  0
  -23.6287   -8.2226   22.0772 C   0  0  0  0  0  0
  -22.4270   -8.0275   21.3552 C   0  0  0  0  0  0
  -21.9913   -9.0255   20.4653 C   0  0  0  0  0  0
  -22.7252  -10.2131   20.3070 C   0  0  0  0  0  0
  -21.6846   -6.0731   22.5275 C   0  0  0  0  0  0
  -21.4022   -6.5644   23.8209 C   0  0  0  0  0  0
  -21.3674   -5.6802   24.9174 C   0  0  0  0  0  0
  -21.6047   -4.3062   24.7224 C   0  0  0  0  0  0
  -21.8815   -3.8151   23.4348 C   0  0  0  0  0  0
  -21.9185   -4.6961   22.3398 C   0  0  0  0  0  0
  -22.7855  -13.5204   21.1860 C   0  0  0  0  0  0
  -22.1645   -4.2148   21.0974 F   0  0  0  0  0  0
  -21.5639   -3.4546   25.7741 F   0  0  0  0  0  0
  -30.0086  -13.4479   20.4184 N   0  0  0  0  0  0
  -26.2981  -12.9312   20.3308 N   0  0  0  0  0  0
  -25.9329  -11.6481   20.5804 N   0  0  0  0  0  0
  -22.0511  -12.8203   22.0425 N   0  0  0  0  0  0
  -25.4167  -15.1828   20.3904 N   0  0  0  0  0  0
  -31.7982  -14.8248   20.1676 O   0  0  0  0  0  0
  -21.6633   -6.8876   21.4242 O   0  0  0  0  0  0
  -22.3543  -14.5516   20.6707 O   0  0  0  0  0  0
  -24.6254  -31.8568   23.2027 C   0  0  0  0  0  0
  -25.9110  -32.4748   23.8360 C   0  0  1  0  0  0
  -27.2415  -27.3190   20.1244 C   0  0  0  0  0  0
  -25.5932  -33.8551   24.2285 N   0  0  0  0  0  0
  -23.4212  -30.4785   21.5435 C   0  0  2  0  0  0
  -24.8733  -28.9329   20.1089 C   0  0  0  0  0  0
  -22.7490  -29.4590   22.4927 C   0  0  0  0  0  0
  -18.0287  -28.1352   22.8475 C   0  0  0  0  0  0
  -24.1479  -36.7286   23.2637 C   0  0  0  0  0  0
  -25.9622  -30.7833   21.3807 C   0  0  0  0  0  0
  -26.0370  -29.4123   20.7215 C   0  0  0  0  0  0
  -27.2197  -28.6160   20.7231 C   0  0  0  0  0  0
  -26.0604  -26.9021   19.4645 C   0  0  0  0  0  0
  -24.8878  -27.6839   19.4691 C   0  0  0  0  0  0
  -23.6376  -29.8093   20.1599 C   0  0  0  0  0  0
  -25.4109  -36.3064   24.0322 C   0  0  1  0  0  0
  -20.5886  -28.3665   23.1261 C   0  0  2  0  0  0
  -20.6770  -26.9380   22.5398 C   0  0  0  0  0  0
  -19.5745  -26.6351   21.5198 C   0  0  0  0  0  0
  -18.1921  -26.7892   22.1607 C   0  0  0  0  0  0
  -19.1543  -28.8833   23.2848 C   0  0  0  0  0  0
  -18.9471  -30.1441   23.8853 C   0  0  0  0  0  0
  -17.6470  -30.6559   24.0554 C   0  0  0  0  0  0
  -25.9050  -34.9429   23.5106 C   0  0  0  0  0  0
  -16.5361  -29.9054   23.6330 C   0  0  0  0  0  0
  -16.7276  -28.6475   23.0345 C   0  0  0  0  0  0
  -26.4510  -31.6569   25.0736 C   0  0  0  0  0  0
  -25.3764  -31.3738   26.1488 C   0  0  0  0  0  0
  -27.0366  -30.2972   24.6240 C   0  0  0  0  0  0
  -27.6050  -32.4335   25.7505 C   0  0  0  0  0  0
  -27.5577  -37.1794   24.8465 C   0  0  0  0  0  0
  -21.4204  -29.3020   22.3673 N   0  0  0  0  0  0
  -26.4285  -37.3763   23.9403 N   0  0  0  0  0  0
  -24.6869  -31.0579   22.0976 N   0  0  0  0  0  0
  -23.4206  -28.8123   23.3004 O   0  0  0  0  0  0
  -28.3782  -26.4940   20.2062 O   0  0  0  0  0  0
  -26.5612  -34.8894   22.4667 O   0  0  0  0  0  0
  -23.5422  -32.1380   23.7342 O   0  0  0  0  0  0
  -29.0720  -19.4719   20.0923 C   0  0  0  0  0  0
  -30.9604  -17.8755   21.4009 C   0  0  0  0  0  0
  -30.0592  -20.1546   20.8469 C   0  0  0  0  0  0
  -29.0169  -18.0446   19.9978 C   0  0  0  0  0  0
  -31.0160  -19.3041   21.4933 C   0  0  0  0  0  0
  -29.9538  -17.1986   20.6691 C   0  0  0  0  0  0
  -29.2675  -23.0455   18.9261 C   0  0  0  0  0  0
  -29.7515  -22.2170   17.9838 C   0  0  0  0  0  0
  -28.8243  -24.5033   18.7299 C   0  0  0  0  0  0
  -29.0271  -24.0621   21.0421 C   0  0  0  0  0  0
  -28.2640  -25.0172   20.0617 C   0  0  1  0  0  0
  -27.9156  -17.4571   19.1359 C   0  0  0  0  0  0
  -32.1290  -19.9083   22.3358 C   0  0  0  0  0  0
  -30.1339  -21.7392   21.0004 C   0  0  0  0  0  0
  -29.7754  -15.7404   20.7148 N   0  0  0  0  0  0
  -29.1257  -22.7040   20.3806 N   0  3  2  0  0  0
  -31.4836  -12.5467   19.1569 H   0  0  0  0  0  0
  -30.3900  -11.4250   19.9266 H   0  0  0  0  0  0
  -29.7822  -11.7237   17.5056 H   0  0  0  0  0  0
  -29.6385  -13.4500   17.7302 H   0  0  0  0  0  0
  -27.8980  -11.2668   18.9217 H   0  0  0  0  0  0
  -27.3741  -12.5006   17.8077 H   0  0  0  0  0  0
  -27.6555  -14.2326   19.4880 H   0  0  0  0  0  0
  -28.7199  -12.0920   21.4022 H   0  0  0  0  0  0
  -28.4410  -13.7571   21.8252 H   0  0  0  0  0  0
  -25.2763   -9.5654   22.4784 H   0  0  0  0  0  0
  -23.9989   -7.4618   22.7489 H   0  0  0  0  0  0
  -21.0847   -8.8789   19.8945 H   0  0  0  0  0  0
  -22.3724  -10.9686   19.6181 H   0  0  0  0  0  0
  -21.2026   -7.6153   23.9712 H   0  0  0  0  0  0
  -21.1507   -6.0535   25.9079 H   0  0  0  0  0  0
  -22.0584   -2.7610   23.2848 H   0  0  0  0  0  0
  -22.4144  -11.9855   22.4788 H   0  0  0  0  0  0
  -21.1147  -13.1247   22.2677 H   0  0  0  0  0  0
  -24.6230  -15.8127   20.4391 H   0  0  0  0  0  0
  -26.2322  -15.6073   19.9743 H   0  0  0  0  0  0
  -26.7171  -32.5429   23.1105 H   0  0  0  0  0  0
  -25.0143  -33.9703   25.0476 H   0  0  0  0  0  0
  -22.7132  -31.2958   21.3975 H   0  0  0  0  0  0
  -23.3750  -35.9609   23.3276 H   0  0  0  0  0  0
  -24.3560  -36.8959   22.2060 H   0  0  0  0  0  0
  -23.7232  -37.6465   23.6708 H   0  0  0  0  0  0
  -26.1066  -31.5458   20.6141 H   0  0  0  0  0  0
  -26.8342  -30.8244   22.0216 H   0  0  0  0  0  0
  -28.1105  -28.9777   21.2178 H   0  0  0  0  0  0
  -26.0175  -25.9627   18.9330 H   0  0  0  0  0  0
  -24.0016  -27.3183   18.9683 H   0  0  0  0  0  0
  -23.7476  -30.5817   19.3973 H   0  0  0  0  0  0
  -22.7604  -29.2288   19.8685 H   0  0  0  0  0  0
  -25.1286  -36.1916   25.0816 H   0  0  0  0  0  0
  -20.9966  -28.3232   24.1385 H   0  0  0  0  0  0
  -20.5648  -26.2275   23.3599 H   0  0  0  0  0  0
  -21.6636  -26.7372   22.1209 H   0  0  0  0  0  0
  -19.6903  -25.6262   21.1222 H   0  0  0  0  0  0
  -19.6680  -27.3158   20.6725 H   0  0  0  0  0  0
  -17.4196  -26.6650   21.3996 H   0  0  0  0  0  0
  -18.0300  -26.0012   22.8980 H   0  0  0  0  0  0
  -19.7957  -30.7267   24.2168 H   0  0  0  0  0  0
  -17.5035  -31.6231   24.5173 H   0  0  0  0  0  0
  -15.5359  -30.2952   23.7673 H   0  0  0  0  0  0
  -15.8672  -28.0798   22.7051 H   0  0  0  0  0  0
  -24.5956  -30.7031   25.7897 H   0  0  0  0  0  0
  -24.8926  -32.2906   26.4853 H   0  0  0  0  0  0
  -25.8107  -30.9016   27.0308 H   0  0  0  0  0  0
  -26.2963  -29.6687   24.1272 H   0  0  0  0  0  0
  -27.4055  -29.7257   25.4770 H   0  0  0  0  0  0
  -27.8834  -30.4228   23.9487 H   0  0  0  0  0  0
  -27.2664  -33.3707   26.1936 H   0  0  0  0  0  0
  -28.3928  -32.6771   25.0368 H   0  0  0  0  0  0
  -28.0630  -31.8554   26.5544 H   0  0  0  0  0  0
  -28.2586  -38.0098   24.7497 H   0  0  0  0  0  0
  -28.1077  -36.2616   24.6307 H   0  0  0  0  0  0
  -27.2285  -37.1481   25.8867 H   0  0  0  0  0  0
  -20.9380  -29.8802   21.6936 H   0  0  0  0  0  0
  -26.0162  -38.2835   24.1397 H   0  0  0  0  0  0
  -28.3265  -20.0502   19.5669 H   0  0  0  0  0  0
  -31.6876  -17.2842   21.9400 H   0  0  0  0  0  0
  -29.8538  -22.5467   16.9597 H   0  0  0  0  0  0
  -30.0720  -21.2103   18.2046 H   0  0  0  0  0  0
  -28.0962  -24.6001   17.9252 H   0  0  0  0  0  0
  -29.7018  -25.0862   18.4495 H   0  0  0  0  0  0
  -28.5418  -24.0090   22.0175 H   0  0  0  0  0  0
  -30.0348  -24.4483   21.2024 H   0  0  0  0  0  0
  -27.2223  -24.7103   20.1484 H   0  0  0  0  0  0
  -27.8039  -18.0472   18.2254 H   0  0  0  0  0  0
  -26.9672  -17.4841   19.6713 H   0  0  0  0  0  0
  -28.1231  -16.4353   18.8224 H   0  0  0  0  0  0
  -32.7860  -19.1387   22.7410 H   0  0  0  0  0  0
  -31.7188  -20.4618   23.1808 H   0  0  0  0  0  0
  -32.7500  -20.5832   21.7461 H   0  0  0  0  0  0
  -31.1263  -22.0648   20.6889 H   0  0  0  0  0  0
  -30.0950  -21.9219   22.0749 H   0  0  0  0  0  0
  -28.8178  -15.4470   20.8249 H   0  0  0  0  0  0
  -28.2269  -22.2671   20.5197 H   0  0  0  0  0  0
  1 25  1  0  0  0
  1 30  2  0  0  0
  1 85  1  0  0  0
  2  3  1  0  0  0
  2 25  1  0  0  0
  2 87  1  0  0  0
  2 88  1  0  0  0
  3  4  1  0  0  0
  3 89  1  0  0  0
  3 90  1  0  0  0
  4  5  1  0  0  0
  4 91  1  0  0  0
  4 92  1  0  0  0
  5  6  1  0  0  0
  5 26  1  0  0  0
  5 93  1  0  0  0
  6 25  1  0  0  0
  6 94  1  0  0  0
  6 95  1  0  0  0
  7  8  2  0  0  0
  7 26  1  0  0  0
  7 29  1  0  0  0
  8  9  1  0  0  0
  8 22  1  0  0  0
  9 10  1  0  0  0
  9 27  2  0  0  0
 10 11  2  0  0  0
 10 15  1  0  0  0
 11 12  1  0  0  0
 11 96  1  0  0  0
 12 13  2  0  0  0
 12 97  1  0  0  0
 13 14  1  0  0  0
 13 31  1  0  0  0
 14 15  2  0  0  0
 14 98  1  0  0  0
 15 99  1  0  0  0
 16 17  2  0  0  0
 16 21  1  0  0  0
 16 31  1  0  0  0
 17 18  1  0  0  0
 17100  1  0  0  0
 18 19  2  0  0  0
 18101  1  0  0  0
 19 20  1  0  0  0
 19 24  1  0  0  0
 20 21  2  0  0  0
 20102  1  0  0  0
 21 23  1  0  0  0
 22 28  1  0  0  0
 22 32  2  0  0  0
 26 27  1  0  0  0
 28103  1  0  0  0
 28104  1  0  0  0
 29105  1  0  0  0
 29106  1  0  0  0
 33 34  1  0  0  0
 33 66  1  0  0  0
 33 70  2  0  0  0
 34 36  1  0  0  0
 34 59  1  0  0  0
 34107  1  0  0  0
 35 44  2  0  0  0
 35 45  1  0  0  0
 35 68  1  0  0  0
 36 56  1  0  0  0
 36108  1  0  0  0
 37 39  1  0  0  0
 37 47  1  0  0  0
 37 66  1  0  0  0
 37109  1  0  0  0
 38 43  2  0  0  0
 38 46  1  0  0  0
 38 47  1  0  0  0
 39 64  1  0  0  0
 39 67  2  0  0  0
 40 52  1  0  0  0
 40 53  2  0  0  0
 40 58  1  0  0  0
 41110  1  0  0  0
 41111  1  0  0  0
 41112  1  0  0  0
 41 48  1  0  0  0
 42 43  1  0  0  0
 42 66  1  0  0  0
 42113  1  0  0  0
 42114  1  0  0  0
 43 44  1  0  0  0
 44115  1  0  0  0
 45 46  2  0  0  0
 45116  1  0  0  0
 46117  1  0  0  0
 47118  1  0  0  0
 47119  1  0  0  0
 48 56  1  0  0  0
 48 65  1  0  0  0
 48120  1  0  0  0
 49 50  1  0  0  0
 49 53  1  0  0  0
 49 64  1  0  0  0
 49121  1  0  0  0
 50 51  1  0  0  0
 50122  1  0  0  0
 50123  1  0  0  0
 51 52  1  0  0  0
 51124  1  0  0  0
 51125  1  0  0  0
 52126  1  0  0  0
 52127  1  0  0  0
 53 54  1  0  0  0
 54 55  2  0  0  0
 54128  1  0  0  0
 55 57  1  0  0  0
 55129  1  0  0  0
 56 69  2  0  0  0
 57 58  2  0  0  0
 57130  1  0  0  0
 58131  1  0  0  0
 59 60  1  0  0  0
 59 61  1  0  0  0
 59 62  1  0  0  0
 60132  1  0  0  0
 60133  1  0  0  0
 60134  1  0  0  0
 61135  1  0  0  0
 61136  1  0  0  0
 61137  1  0  0  0
 62138  1  0  0  0
 62139  1  0  0  0
 62140  1  0  0  0
 63 65  1  0  0  0
 63141  1  0  0  0
 63142  1  0  0  0
 63143  1  0  0  0
 64144  1  0  0  0
 65145  1  0  0  0
 68 81  1  0  0  0
 71 73  2  0  0  0
 71 74  1  0  0  0
 71146  1  0  0  0
 72 75  2  0  0  0
 72 76  1  0  0  0
 72147  1  0  0  0
 73 75  1  0  0  0
 73 84  1  0  0  0
 74 76  2  0  0  0
 74 82  1  0  0  0
 75 83  1  0  0  0
 76 85  1  0  0  0
 77 78  2  0  0  0
 77 79  1  0  0  0
 77 86  1  0  0  0
 78148  1  0  0  0
 78149  1  0  0  0
 79 81  1  0  0  0
 79150  1  0  0  0
 79151  1  0  0  0
 80 81  1  0  0  0
 80 86  1  0  0  0
 80152  1  0  0  0
 80153  1  0  0  0
 81154  1  0  0  0
 82155  1  0  0  0
 82156  1  0  0  0
 82157  1  0  0  0
 83158  1  0  0  0
 83159  1  0  0  0
 83160  1  0  0  0
 84161  1  0  0  0
 84162  1  0  0  0
 84 86  1  0  0  0
 85163  1  0  0  0
 86164  1  0  0  0
M  CHG  1  86   1
M  ISO  4   1 100  68 101  81 101  85 100
M  END
> <chiral flag>
0

> <version>
0

> <s_m_source_file>
/data/baiqing/PycharmProjects/Reinvent-master-3.2/result/LINK_invent/BTK/process_docking_weight1_custom_product_contain_oxygen_bond_distance_aromatic_linkinvent_7_9_3/rearranged_h_0032.sdf

> <i_m_source_file_index>
56

> <r_mmod_Potential_Energy-OPLS-2005>
8.09021854400635

> <r_mmod_Stretch_Energy-OPLS-2005>
85.7889404296875

> <r_mmod_Bend_Energy-OPLS-2005>
182.372085571289

> <r_mmod_Torsional_Energy-OPLS-2005>
250.881881713867

> <r_mmod_Improper_Torsional_Energy-OPLS-2005>
6.50157499313354

> <r_mmod_Van_der_Waal_Energy-OPLS-2005>
135.227096557617

> <r_mmod_Electrostatic_Energy-OPLS-2005>
-278.744781494141

> <r_mmod_Solvation_Energy-OPLS-2005>
-431.081848144531

> <b_mmod_Minimization_Converged-OPLS-2005>
0

> <r_mmod_RMS_Derivative-OPLS-2005>
2.21415281295776

$$$$
56
                    3D
 Structure written by MMmdl.
163172  0  0  1  0            999 V2000
  -30.7353  -14.4905   20.5944 C   0  0  0  0  0  0
  -30.4180  -12.3326   19.4311 C   0  0  0  0  0  0
  -29.4921  -12.5018   18.2124 C   0  0  0  0  0  0
  -28.0208  -12.3419   18.6350 C   0  0  0  0  0  0
  -27.6545  -13.2136   19.8651 C   0  0  2  0  0  0
  -28.6949  -13.0499   20.9951 C   0  0  0  0  0  0
  -25.2562  -13.8190   20.5700 C   0  0  0  0  0  0
  -24.1842  -13.0450   20.9211 C   0  0  0  0  0  0
  -24.6409  -11.6915   20.8746 C   0  0  0  0  0  0
  -23.9083  -10.4288   21.0413 C   0  0  0  0  0  0
  -24.3630   -9.4194   21.9195 C   0  0  0  0  0  0
  -23.6293   -8.2245   22.0761 C   0  0  0  0  0  0
  -22.4272   -8.0300   21.3556 C   0  0  0  0  0  0
  -21.9916   -9.0272   20.4657 C   0  0  0  0  0  0
  -22.7256  -10.2140   20.3060 C   0  0  0  0  0  0
  -21.6837   -6.0752   22.5297 C   0  0  0  0  0  0
  -21.4014   -6.5658   23.8229 C   0  0  0  0  0  0
  -21.3649   -5.6803   24.9186 C   0  0  0  0  0  0
  -21.6026   -4.3068   24.7228 C   0  0  0  0  0  0
  -21.8814   -3.8166   23.4347 C   0  0  0  0  0  0
  -21.9194   -4.6982   22.3408 C   0  0  0  0  0  0
  -22.7855  -13.5239   21.1891 C   0  0  0  0  0  0
  -22.1654   -4.2177   21.0975 F   0  0  0  0  0  0
  -21.5618   -3.4544   25.7730 F   0  0  0  0  0  0
  -30.0253  -13.3406   20.4340 N   0  0  0  0  0  0
  -26.2992  -12.9365   20.3329 N   0  0  0  0  0  0
  -25.9329  -11.6518   20.5766 N   0  0  0  0  0  0
  -22.0471  -12.8230   22.0420 N   0  0  0  0  0  0
  -25.4276  -15.1909   20.4094 N   0  0  0  0  0  0
  -31.8585  -14.6365   20.1036 O   0  0  0  0  0  0
  -21.6628   -6.8903   21.4262 O   0  0  0  0  0  0
  -22.3548  -14.5557   20.6744 O   0  0  0  0  0  0
  -24.6115  -31.8651   23.2106 C   0  0  0  0  0  0
  -25.8988  -32.4804   23.8369 C   0  0  1  0  0  0
  -27.2064  -27.4022   20.0920 C   0  0  0  0  0  0
  -25.5816  -33.8601   24.2276 N   0  0  0  0  0  0
  -23.4002  -30.4935   21.5499 C   0  0  2  0  0  0
  -24.8416  -28.9641   20.1094 C   0  0  0  0  0  0
  -22.7384  -29.4659   22.4981 C   0  0  0  0  0  0
  -18.0258  -28.1380   22.8469 C   0  0  0  0  0  0
  -24.1516  -36.7354   23.2641 C   0  0  0  0  0  0
  -25.9312  -30.8244   21.3670 C   0  0  0  0  0  0
  -26.0013  -29.4555   20.7168 C   0  0  0  0  0  0
  -27.1834  -28.6757   20.7148 C   0  0  0  0  0  0
  -26.0387  -26.9625   19.4306 C   0  0  0  0  0  0
  -24.8570  -27.7178   19.4647 C   0  0  0  0  0  0
  -23.6088  -29.8350   20.1619 C   0  0  0  0  0  0
  -25.4106  -36.3085   24.0338 C   0  0  1  0  0  0
  -20.5831  -28.3652   23.1347 C   0  0  2  0  0  0
  -20.6742  -26.9395   22.5418 C   0  0  0  0  0  0
  -19.5718  -26.6388   21.5219 C   0  0  0  0  0  0
  -18.1895  -26.7923   22.1622 C   0  0  0  0  0  0
  -19.1488  -28.8831   23.2919 C   0  0  0  0  0  0
  -18.9420  -30.1448   23.8909 C   0  0  0  0  0  0
  -17.6405  -30.6567   24.0576 C   0  0  0  0  0  0
  -25.9033  -34.9463   23.5133 C   0  0  0  0  0  0
  -16.5310  -29.9058   23.6350 C   0  0  0  0  0  0
  -16.7244  -28.6509   23.0294 C   0  0  0  0  0  0
  -26.4459  -31.6580   25.0662 C   0  0  0  0  0  0
  -25.3774  -31.3687   26.1485 C   0  0  0  0  0  0
  -27.0239  -30.3023   24.6036 C   0  0  0  0  0  0
  -27.6180  -32.4228   25.7246 C   0  0  0  0  0  0
  -27.5596  -37.1841   24.8479 C   0  0  0  0  0  0
  -21.4096  -29.3051   22.3770 N   0  0  0  0  0  0
  -26.4305  -37.3760   23.9413 N   0  0  0  0  0  0
  -24.6652  -31.0762   22.1016 N   0  0  0  0  0  0
  -23.4159  -28.8205   23.3022 O   0  0  0  0  0  0
  -28.3516  -26.6324   20.1765 O   0  0  0  0  0  0
  -26.5664  -34.8908   22.4745 O   0  0  0  0  0  0
  -23.5302  -32.1396   23.7505 O   0  0  0  0  0  0
  -30.7570  -18.8064   20.4936 C   0  0  0  0  0  0
  -29.5090  -20.1905   22.5843 C   0  0  0  0  0  0
  -30.6097  -20.2142   20.4163 C   0  0  0  0  0  0
  -30.3509  -18.0813   21.6386 C   0  0  0  0  0  0
  -30.0458  -20.9299   21.5031 C   0  0  0  0  0  0
  -29.6587  -18.7847   22.6585 C   0  0  0  0  0  0
  -27.2500  -24.2706   20.2677 C   0  0  0  0  0  0
  -27.9579  -22.9466   20.5862 C   0  0  0  0  0  0
  -29.6326  -24.6009   20.4549 C   0  0  0  0  0  0
  -28.3788  -25.2312   19.7983 C   0  0  2  0  0  0
  -31.1610  -20.9513   19.2070 C   0  0  0  0  0  0
  -30.8717  -16.6425   21.8560 C   0  0  0  0  0  0
  -30.2480  -22.4546   21.6433 C   0  0  0  0  0  0
  -30.1425  -15.4970   21.2715 N   0  0  0  0  0  0
  -29.1826  -23.4156   21.2347 N   0  3  2  0  0  0
  -29.0783  -17.9685   24.0677 Cl  0  0  0  0  0  0
  -31.4629  -12.4212   19.1248 H   0  0  0  0  0  0
  -30.3211  -11.3313   19.8529 H   0  0  0  0  0  0
  -29.7398  -11.7686   17.4433 H   0  0  0  0  0  0
  -29.6475  -13.4830   17.7612 H   0  0  0  0  0  0
  -27.8641  -11.2899   18.8780 H   0  0  0  0  0  0
  -27.3554  -12.5609   17.8002 H   0  0  0  0  0  0
  -27.6835  -14.2506   19.5336 H   0  0  0  0  0  0
  -28.6770  -12.0363   21.3955 H   0  0  0  0  0  0
  -28.4484  -13.6980   21.8372 H   0  0  0  0  0  0
  -25.2760   -9.5665   22.4787 H   0  0  0  0  0  0
  -23.9989   -7.4621   22.7468 H   0  0  0  0  0  0
  -21.0848   -8.8817   19.8947 H   0  0  0  0  0  0
  -22.3734  -10.9700   19.6185 H   0  0  0  0  0  0
  -21.2020   -7.6167   23.9754 H   0  0  0  0  0  0
  -21.1460   -6.0520   25.9091 H   0  0  0  0  0  0
  -22.0600   -2.7631   23.2839 H   0  0  0  0  0  0
  -22.4051  -11.9877   22.4810 H   0  0  0  0  0  0
  -21.1105  -13.1314   22.2620 H   0  0  0  0  0  0
  -24.6629  -15.8469   20.5231 H   0  0  0  0  0  0
  -26.2833  -15.6292   20.0939 H   0  0  0  0  0  0
  -26.7036  -32.5551   23.1125 H   0  0  0  0  0  0
  -24.9824  -33.9749   25.0315 H   0  0  0  0  0  0
  -22.6890  -31.3122   21.4163 H   0  0  0  0  0  0
  -23.3718  -35.9760   23.3293 H   0  0  0  0  0  0
  -24.3652  -36.8968   22.2066 H   0  0  0  0  0  0
  -23.7357  -37.6590   23.6670 H   0  0  0  0  0  0
  -26.0287  -31.5833   20.5905 H   0  0  0  0  0  0
  -26.8266  -30.8906   21.9743 H   0  0  0  0  0  0
  -28.0748  -29.0400   21.2098 H   0  0  0  0  0  0
  -26.0115  -26.0457   18.8674 H   0  0  0  0  0  0
  -23.9715  -27.3402   18.9745 H   0  0  0  0  0  0
  -23.7223  -30.6151   19.4084 H   0  0  0  0  0  0
  -22.7298  -29.2637   19.8628 H   0  0  0  0  0  0
  -25.1284  -36.1957   25.0819 H   0  0  0  0  0  0
  -20.9904  -28.3201   24.1476 H   0  0  0  0  0  0
  -20.5657  -26.2232   23.3569 H   0  0  0  0  0  0
  -21.6612  -26.7487   22.1186 H   0  0  0  0  0  0
  -19.6891  -25.6300   21.1252 H   0  0  0  0  0  0
  -19.6651  -27.3213   20.6749 H   0  0  0  0  0  0
  -17.4159  -26.6668   21.4038 H   0  0  0  0  0  0
  -18.0289  -26.0068   22.9016 H   0  0  0  0  0  0
  -19.7889  -30.7293   24.2241 H   0  0  0  0  0  0
  -17.4956  -31.6248   24.5173 H   0  0  0  0  0  0
  -15.5294  -30.2925   23.7684 H   0  0  0  0  0  0
  -15.8666  -28.0881   22.6877 H   0  0  0  0  0  0
  -24.5876  -30.7071   25.7882 H   0  0  0  0  0  0
  -24.9049  -32.2825   26.5104 H   0  0  0  0  0  0
  -25.8199  -30.8758   27.0147 H   0  0  0  0  0  0
  -27.3961  -29.7201   25.4478 H   0  0  0  0  0  0
  -27.8625  -30.4379   23.9209 H   0  0  0  0  0  0
  -26.2741  -29.6879   24.1057 H   0  0  0  0  0  0
  -27.3040  -33.3668   26.1676 H   0  0  0  0  0  0
  -28.3950  -32.6532   24.9940 H   0  0  0  0  0  0
  -28.0846  -31.8364   26.5170 H   0  0  0  0  0  0
  -28.2581  -38.0158   24.7446 H   0  0  0  0  0  0
  -28.1092  -36.2669   24.6350 H   0  0  0  0  0  0
  -27.2316  -37.1553   25.8883 H   0  0  0  0  0  0
  -20.9207  -29.8785   21.7040 H   0  0  0  0  0  0
  -26.0168  -38.2846   24.1360 H   0  0  0  0  0  0
  -31.2862  -18.2889   19.7046 H   0  0  0  0  0  0
  -29.0694  -20.7089   23.4261 H   0  0  0  0  0  0
  -26.7700  -24.6601   21.1660 H   0  0  0  0  0  0
  -26.4722  -24.1044   19.5235 H   0  0  0  0  0  0
  -28.1995  -22.4053   19.6688 H   0  0  0  0  0  0
  -27.3664  -22.2949   21.2305 H   0  0  0  0  0  0
  -30.1552  -25.3012   21.1066 H   0  0  0  0  0  0
  -30.3295  -24.3042   19.6714 H   0  0  0  0  0  0
  -28.4779  -25.1676   18.7126 H   0  0  0  0  0  0
  -31.3239  -20.2774   18.3654 H   0  0  0  0  0  0
  -32.1121  -21.4329   19.4417 H   0  0  0  0  0  0
  -30.4615  -21.7209   18.8813 H   0  0  0  0  0  0
  -30.9723  -16.4487   22.9248 H   0  0  0  0  0  0
  -31.9059  -16.6469   21.5091 H   0  0  0  0  0  0
  -31.1834  -22.7330   21.1604 H   0  0  0  0  0  0
  -30.4414  -22.6541   22.6974 H   0  0  0  0  0  0
  -29.1939  -15.3462   21.5794 H   0  0  0  0  0  0
  -28.8475  -23.7871   22.1118 H   0  0  0  0  0  0
  1 25  1  0  0  0
  1 30  2  0  0  0
  1 84  1  0  0  0
  2  3  1  0  0  0
  2 25  1  0  0  0
  2 87  1  0  0  0
  2 88  1  0  0  0
  3  4  1  0  0  0
  3 89  1  0  0  0
  3 90  1  0  0  0
  4  5  1  0  0  0
  4 91  1  0  0  0
  4 92  1  0  0  0
  5  6  1  0  0  0
  5 26  1  0  0  0
  5 93  1  0  0  0
  6 25  1  0  0  0
  6 94  1  0  0  0
  6 95  1  0  0  0
  7  8  2  0  0  0
  7 26  1  0  0  0
  7 29  1  0  0  0
  8  9  1  0  0  0
  8 22  1  0  0  0
  9 10  1  0  0  0
  9 27  2  0  0  0
 10 11  2  0  0  0
 10 15  1  0  0  0
 11 12  1  0  0  0
 11 96  1  0  0  0
 12 13  2  0  0  0
 12 97  1  0  0  0
 13 14  1  0  0  0
 13 31  1  0  0  0
 14 15  2  0  0  0
 14 98  1  0  0  0
 15 99  1  0  0  0
 16 17  2  0  0  0
 16 21  1  0  0  0
 16 31  1  0  0  0
 17 18  1  0  0  0
 17100  1  0  0  0
 18 19  2  0  0  0
 18101  1  0  0  0
 19 20  1  0  0  0
 19 24  1  0  0  0
 20 21  2  0  0  0
 20102  1  0  0  0
 21 23  1  0  0  0
 22 28  1  0  0  0
 22 32  2  0  0  0
 26 27  1  0  0  0
 28103  1  0  0  0
 28104  1  0  0  0
 29105  1  0  0  0
 29106  1  0  0  0
 33 34  1  0  0  0
 33 66  1  0  0  0
 33 70  2  0  0  0
 34 36  1  0  0  0
 34 59  1  0  0  0
 34107  1  0  0  0
 35 44  2  0  0  0
 35 45  1  0  0  0
 35 68  1  0  0  0
 36 56  1  0  0  0
 36108  1  0  0  0
 37 39  1  0  0  0
 37 47  1  0  0  0
 37 66  1  0  0  0
 37109  1  0  0  0
 38 43  2  0  0  0
 38 46  1  0  0  0
 38 47  1  0  0  0
 39 64  1  0  0  0
 39 67  2  0  0  0
 40 52  1  0  0  0
 40 53  2  0  0  0
 40 58  1  0  0  0
 41110  1  0  0  0
 41111  1  0  0  0
 41112  1  0  0  0
 41 48  1  0  0  0
 42 43  1  0  0  0
 42 66  1  0  0  0
 42113  1  0  0  0
 42114  1  0  0  0
 43 44  1  0  0  0
 44115  1  0  0  0
 45 46  2  0  0  0
 45116  1  0  0  0
 46117  1  0  0  0
 47118  1  0  0  0
 47119  1  0  0  0
 48 56  1  0  0  0
 48 65  1  0  0  0
 48120  1  0  0  0
 49 50  1  0  0  0
 49 53  1  0  0  0
 49 64  1  0  0  0
 49121  1  0  0  0
 50 51  1  0  0  0
 50122  1  0  0  0
 50123  1  0  0  0
 51 52  1  0  0  0
 51124  1  0  0  0
 51125  1  0  0  0
 52126  1  0  0  0
 52127  1  0  0  0
 53 54  1  0  0  0
 54 55  2  0  0  0
 54128  1  0  0  0
 55 57  1  0  0  0
 55129  1  0  0  0
 56 69  2  0  0  0
 57 58  2  0  0  0
 57130  1  0  0  0
 58131  1  0  0  0
 59 60  1  0  0  0
 59 61  1  0  0  0
 59 62  1  0  0  0
 60132  1  0  0  0
 60133  1  0  0  0
 60134  1  0  0  0
 61135  1  0  0  0
 61136  1  0  0  0
 61137  1  0  0  0
 62138  1  0  0  0
 62139  1  0  0  0
 62140  1  0  0  0
 63 65  1  0  0  0
 63141  1  0  0  0
 63142  1  0  0  0
 63143  1  0  0  0
 64144  1  0  0  0
 65145  1  0  0  0
 68 80  1  0  0  0
 71 73  2  0  0  0
 71 74  1  0  0  0
 71146  1  0  0  0
 72 75  2  0  0  0
 72 76  1  0  0  0
 72147  1  0  0  0
 73 75  1  0  0  0
 73 81  1  0  0  0
 74 76  2  0  0  0
 74 82  1  0  0  0
 75 83  1  0  0  0
 76 86  1  0  0  0
 77 78  1  0  0  0
 77 80  1  0  0  0
 77148  1  0  0  0
 77149  1  0  0  0
 78 85  1  0  0  0
 78150  1  0  0  0
 78151  1  0  0  0
 79 80  1  0  0  0
 79 85  1  0  0  0
 79152  1  0  0  0
 79153  1  0  0  0
 80154  1  0  0  0
 81155  1  0  0  0
 81156  1  0  0  0
 81157  1  0  0  0
 82 84  1  0  0  0
 82158  1  0  0  0
 82159  1  0  0  0
 83160  1  0  0  0
 83161  1  0  0  0
 83 85  1  0  0  0
 84162  1  0  0  0
 85163  1  0  0  0
M  CHG  1  85   1
M  ISO  4   1 100  68 101  80 101  84 100
M  END
> <chiral flag>
0

> <version>
0

> <s_m_source_file>
/data/baiqing/PycharmProjects/Reinvent-master-3.2/result/LINK_invent/BTK/process_docking_weight1_custom_product_contain_oxygen_bond_distance_aromatic_linkinvent_7_9_3/rearranged_h_0032.sdf

> <i_m_source_file_index>
57

> <r_mmod_Potential_Energy-OPLS-2005>
-85.9360961914062

> <r_mmod_Stretch_Energy-OPLS-2005>
42.9242057800293

> <r_mmod_Bend_Energy-OPLS-2005>
165.025726318359

> <r_mmod_Torsional_Energy-OPLS-2005>
272.577331542969

> <r_mmod_Improper_Torsional_Energy-OPLS-2005>
5.52482986450195

> <r_mmod_Van_der_Waal_Energy-OPLS-2005>
152.598205566406

> <r_mmod_Electrostatic_Energy-OPLS-2005>
-315.180694580078

> <r_mmod_Solvation_Energy-OPLS-2005>
-430.512756347656

> <b_mmod_Minimization_Converged-OPLS-2005>
0

> <r_mmod_RMS_Derivative-OPLS-2005>
4.02226066589355

$$$$
57
                    3D
 Structure written by MMmdl.
161170  0  0  1  0            999 V2000
  -30.6279  -14.6782   20.4917 C   0  0  0  0  0  0
  -30.4385  -12.4167   19.4664 C   0  0  0  0  0  0
  -29.5131  -12.5196   18.2334 C   0  0  0  0  0  0
  -28.0360  -12.3530   18.6422 C   0  0  0  0  0  0
  -27.6535  -13.2256   19.8664 C   0  0  2  0  0  0
  -28.6984  -13.1047   20.9989 C   0  0  0  0  0  0
  -25.2550  -13.8199   20.5686 C   0  0  0  0  0  0
  -24.1817  -13.0439   20.9185 C   0  0  0  0  0  0
  -24.6408  -11.6923   20.8735 C   0  0  0  0  0  0
  -23.9075  -10.4296   21.0398 C   0  0  0  0  0  0
  -24.3623   -9.4211   21.9178 C   0  0  0  0  0  0
  -23.6297   -8.2249   22.0757 C   0  0  0  0  0  0
  -22.4278   -8.0287   21.3539 C   0  0  0  0  0  0
  -21.9914   -9.0254   20.4643 C   0  0  0  0  0  0
  -22.7246  -10.2134   20.3052 C   0  0  0  0  0  0
  -21.6857   -6.0736   22.5278 C   0  0  0  0  0  0
  -21.4011   -6.5638   23.8207 C   0  0  0  0  0  0
  -21.3656   -5.6792   24.9170 C   0  0  0  0  0  0
  -21.6046   -4.3059   24.7222 C   0  0  0  0  0  0
  -21.8818   -3.8146   23.4347 C   0  0  0  0  0  0
  -21.9191   -4.6960   22.3399 C   0  0  0  0  0  0
  -22.7842  -13.5222   21.1847 C   0  0  0  0  0  0
  -22.1659   -4.2151   21.0975 F   0  0  0  0  0  0
  -21.5632   -3.4545   25.7737 F   0  0  0  0  0  0
  -30.0128  -13.4493   20.4349 N   0  0  0  0  0  0
  -26.2993  -12.9396   20.3341 N   0  0  0  0  0  0
  -25.9343  -11.6535   20.5773 N   0  0  0  0  0  0
  -22.0479  -12.8209   22.0408 N   0  0  0  0  0  0
  -25.4231  -15.1926   20.4107 N   0  0  0  0  0  0
  -31.7876  -14.8204   20.0955 O   0  0  0  0  0  0
  -21.6639   -6.8882   21.4246 O   0  0  0  0  0  0
  -22.3516  -14.5516   20.6696 O   0  0  0  0  0  0
  -24.6259  -31.8571   23.1985 C   0  0  0  0  0  0
  -25.9093  -32.4757   23.8337 C   0  0  1  0  0  0
  -27.2470  -27.3181   20.1121 C   0  0  0  0  0  0
  -25.5903  -33.8565   24.2240 N   0  0  0  0  0  0
  -23.4226  -30.4781   21.5405 C   0  0  2  0  0  0
  -24.8736  -28.9263   20.1176 C   0  0  0  0  0  0
  -22.7489  -29.4618   22.4921 C   0  0  0  0  0  0
  -18.0287  -28.1392   22.8485 C   0  0  0  0  0  0
  -24.1472  -36.7272   23.2631 C   0  0  0  0  0  0
  -25.9644  -30.7860   21.3739 C   0  0  0  0  0  0
  -26.0426  -29.4139   20.7135 C   0  0  0  0  0  0
  -27.2292  -28.6224   20.6988 C   0  0  0  0  0  0
  -26.0482  -26.8792   19.5042 C   0  0  0  0  0  0
  -24.8761  -27.6607   19.5120 C   0  0  0  0  0  0
  -23.6410  -29.8041   20.1612 C   0  0  0  0  0  0
  -25.4101  -36.3071   24.0324 C   0  0  1  0  0  0
  -20.5890  -28.3696   23.1272 C   0  0  2  0  0  0
  -20.6780  -26.9418   22.5415 C   0  0  0  0  0  0
  -19.5756  -26.6386   21.5213 C   0  0  0  0  0  0
  -18.1928  -26.7932   22.1617 C   0  0  0  0  0  0
  -19.1545  -28.8861   23.2864 C   0  0  0  0  0  0
  -18.9482  -30.1454   23.8899 C   0  0  0  0  0  0
  -17.6484  -30.6587   24.0578 C   0  0  0  0  0  0
  -25.9063  -34.9449   23.5094 C   0  0  0  0  0  0
  -16.5372  -29.9102   23.6342 C   0  0  0  0  0  0
  -16.7279  -28.6518   23.0363 C   0  0  0  0  0  0
  -26.4466  -31.6587   25.0734 C   0  0  0  0  0  0
  -25.3661  -31.3807   26.1451 C   0  0  0  0  0  0
  -27.0271  -30.2981   24.6228 C   0  0  0  0  0  0
  -27.6039  -32.4313   25.7485 C   0  0  0  0  0  0
  -27.5598  -37.1739   24.8425 C   0  0  0  0  0  0
  -21.4205  -29.3032   22.3655 N   0  0  0  0  0  0
  -26.4259  -37.3795   23.9460 N   0  0  0  0  0  0
  -24.6891  -31.0586   22.0932 N   0  0  0  0  0  0
  -23.4202  -28.8174   23.3024 O   0  0  0  0  0  0
  -28.3901  -26.4981   20.1625 O   0  0  0  0  0  0
  -26.5668  -34.8921   22.4677 O   0  0  0  0  0  0
  -23.5421  -32.1363   23.7326 O   0  0  0  0  0  0
  -29.9537  -19.2003   19.1422 C   0  0  0  0  0  0
  -30.0613  -19.5471   21.5092 C   0  0  0  0  0  0
  -30.0326  -20.1279   20.2158 C   0  0  0  0  0  0
  -29.9163  -17.7819   19.3341 C   0  0  0  0  0  0
  -30.0243  -18.1296   21.7176 C   0  0  0  0  0  0
  -29.9882  -17.1980   20.6341 C   0  0  0  0  0  0
  -28.0785  -22.7786   20.7360 C   0  0  0  0  0  0
  -27.4219  -24.1720   20.7137 C   0  0  0  0  0  0
  -29.6529  -24.2126   19.8732 C   0  0  0  0  0  0
  -28.3245  -25.0511   19.8228 C   0  0  2  0  0  0
  -29.7523  -16.8973   18.1104 C   0  0  0  0  0  0
  -30.0229  -17.6173   23.1450 C   0  0  0  0  0  0
  -30.2852  -21.6691   19.9511 C   0  0  0  0  0  0
  -29.3052  -22.7946   20.1962 N   0  0  0  0  0  0
  -29.8531  -15.7485   20.8750 N   0  0  0  0  0  0
  -27.5039  -21.7896   21.1973 O   0  0  0  0  0  0
  -31.4804  -12.5367   19.1669 H   0  0  0  0  0  0
  -30.3716  -11.4245   19.9169 H   0  0  0  0  0  0
  -29.7847  -11.7666   17.4921 H   0  0  0  0  0  0
  -29.6508  -13.4876   17.7504 H   0  0  0  0  0  0
  -27.8750  -11.2999   18.8744 H   0  0  0  0  0  0
  -27.3833  -12.5806   17.7982 H   0  0  0  0  0  0
  -27.6657  -14.2586   19.5191 H   0  0  0  0  0  0
  -28.7158  -12.0918   21.4026 H   0  0  0  0  0  0
  -28.4397  -13.7538   21.8366 H   0  0  0  0  0  0
  -25.2764   -9.5690   22.4751 H   0  0  0  0  0  0
  -24.0004   -7.4643   22.7486 H   0  0  0  0  0  0
  -21.0844   -8.8775   19.8947 H   0  0  0  0  0  0
  -22.3703  -10.9674   19.6163 H   0  0  0  0  0  0
  -21.2001   -7.6140   23.9714 H   0  0  0  0  0  0
  -21.1479   -6.0519   25.9073 H   0  0  0  0  0  0
  -22.0599   -2.7616   23.2844 H   0  0  0  0  0  0
  -22.4095  -11.9864   22.4779 H   0  0  0  0  0  0
  -21.1100  -13.1241   22.2621 H   0  0  0  0  0  0
  -24.6535  -15.8444   20.5161 H   0  0  0  0  0  0
  -26.2742  -15.6365   20.0898 H   0  0  0  0  0  0
  -26.7160  -32.5428   23.1085 H   0  0  0  0  0  0
  -25.0029  -33.9715   25.0368 H   0  0  0  0  0  0
  -22.7162  -31.2969   21.3881 H   0  0  0  0  0  0
  -23.3774  -35.9555   23.3225 H   0  0  0  0  0  0
  -24.3587  -36.8990   22.2060 H   0  0  0  0  0  0
  -23.7163  -37.6421   23.6709 H   0  0  0  0  0  0
  -26.1020  -31.5507   20.6096 H   0  0  0  0  0  0
  -26.8424  -30.8311   22.0080 H   0  0  0  0  0  0
  -28.1267  -28.9988   21.1692 H   0  0  0  0  0  0
  -25.9827  -25.9135   19.0301 H   0  0  0  0  0  0
  -23.9754  -27.2677   19.0615 H   0  0  0  0  0  0
  -23.7642  -30.5742   19.3997 H   0  0  0  0  0  0
  -22.7636  -29.2296   19.8587 H   0  0  0  0  0  0
  -25.1259  -36.1906   25.0810 H   0  0  0  0  0  0
  -20.9975  -28.3279   24.1392 H   0  0  0  0  0  0
  -20.5678  -26.2318   23.3633 H   0  0  0  0  0  0
  -21.6641  -26.7427   22.1210 H   0  0  0  0  0  0
  -19.6935  -25.6305   21.1235 H   0  0  0  0  0  0
  -19.6709  -27.3204   20.6755 H   0  0  0  0  0  0
  -17.4215  -26.6720   21.3994 H   0  0  0  0  0  0
  -18.0287  -26.0049   22.8980 H   0  0  0  0  0  0
  -19.7973  -30.7251   24.2279 H   0  0  0  0  0  0
  -17.5058  -31.6276   24.5173 H   0  0  0  0  0  0
  -15.5378  -30.3017   23.7666 H   0  0  0  0  0  0
  -15.8676  -28.0840   22.7089 H   0  0  0  0  0  0
  -24.5880  -30.7089   25.7814 H   0  0  0  0  0  0
  -24.8790  -32.3002   26.4714 H   0  0  0  0  0  0
  -25.7949  -30.9129   27.0321 H   0  0  0  0  0  0
  -26.2840  -29.6777   24.1204 H   0  0  0  0  0  0
  -27.3868  -29.7230   25.4772 H   0  0  0  0  0  0
  -27.8763  -30.4227   23.9505 H   0  0  0  0  0  0
  -27.2691  -33.3677   26.1957 H   0  0  0  0  0  0
  -28.3889  -32.6769   25.0319 H   0  0  0  0  0  0
  -28.0625  -31.8483   26.5481 H   0  0  0  0  0  0
  -28.2474  -38.0163   24.7675 H   0  0  0  0  0  0
  -28.1236  -36.2728   24.5973 H   0  0  0  0  0  0
  -27.2377  -37.1054   25.8827 H   0  0  0  0  0  0
  -20.9410  -29.8752   21.6840 H   0  0  0  0  0  0
  -26.0134  -38.2833   24.1626 H   0  0  0  0  0  0
  -29.9408  -19.5895   18.1333 H   0  0  0  0  0  0
  -30.1398  -20.2070   22.3618 H   0  0  0  0  0  0
  -27.3627  -24.5667   21.7283 H   0  0  0  0  0  0
  -26.4164  -24.0949   20.3051 H   0  0  0  0  0  0
  -30.2990  -24.5931   20.6677 H   0  0  0  0  0  0
  -30.2040  -24.2937   18.9349 H   0  0  0  0  0  0
  -27.9669  -24.9791   18.7948 H   0  0  0  0  0  0
  -29.6189  -17.4868   17.2038 H   0  0  0  0  0  0
  -28.8744  -16.2602   18.2229 H   0  0  0  0  0  0
  -30.6259  -16.2606   17.9709 H   0  0  0  0  0  0
  -30.1072  -18.4321   23.8643 H   0  0  0  0  0  0
  -30.8577  -16.9354   23.3095 H   0  0  0  0  0  0
  -29.0938  -17.0846   23.3509 H   0  0  0  0  0  0
  -30.5757  -21.7604   18.9039 H   0  0  0  0  0  0
  -31.1872  -21.9343   20.5060 H   0  0  0  0  0  0
  -28.9886  -15.4778   21.3168 H   0  0  0  0  0  0
  1 25  1  0  0  0
  1 30  2  0  0  0
  1 85  1  0  0  0
  2  3  1  0  0  0
  2 25  1  0  0  0
  2 87  1  0  0  0
  2 88  1  0  0  0
  3  4  1  0  0  0
  3 89  1  0  0  0
  3 90  1  0  0  0
  4  5  1  0  0  0
  4 91  1  0  0  0
  4 92  1  0  0  0
  5  6  1  0  0  0
  5 26  1  0  0  0
  5 93  1  0  0  0
  6 25  1  0  0  0
  6 94  1  0  0  0
  6 95  1  0  0  0
  7  8  2  0  0  0
  7 26  1  0  0  0
  7 29  1  0  0  0
  8  9  1  0  0  0
  8 22  1  0  0  0
  9 10  1  0  0  0
  9 27  2  0  0  0
 10 11  2  0  0  0
 10 15  1  0  0  0
 11 12  1  0  0  0
 11 96  1  0  0  0
 12 13  2  0  0  0
 12 97  1  0  0  0
 13 14  1  0  0  0
 13 31  1  0  0  0
 14 15  2  0  0  0
 14 98  1  0  0  0
 15 99  1  0  0  0
 16 17  2  0  0  0
 16 21  1  0  0  0
 16 31  1  0  0  0
 17 18  1  0  0  0
 17100  1  0  0  0
 18 19  2  0  0  0
 18101  1  0  0  0
 19 20  1  0  0  0
 19 24  1  0  0  0
 20 21  2  0  0  0
 20102  1  0  0  0
 21 23  1  0  0  0
 22 28  1  0  0  0
 22 32  2  0  0  0
 26 27  1  0  0  0
 28103  1  0  0  0
 28104  1  0  0  0
 29105  1  0  0  0
 29106  1  0  0  0
 33 34  1  0  0  0
 33 66  1  0  0  0
 33 70  2  0  0  0
 34 36  1  0  0  0
 34 59  1  0  0  0
 34107  1  0  0  0
 35 44  2  0  0  0
 35 45  1  0  0  0
 35 68  1  0  0  0
 36 56  1  0  0  0
 36108  1  0  0  0
 37 39  1  0  0  0
 37 47  1  0  0  0
 37 66  1  0  0  0
 37109  1  0  0  0
 38 43  2  0  0  0
 38 46  1  0  0  0
 38 47  1  0  0  0
 39 64  1  0  0  0
 39 67  2  0  0  0
 40 52  1  0  0  0
 40 53  2  0  0  0
 40 58  1  0  0  0
 41110  1  0  0  0
 41111  1  0  0  0
 41112  1  0  0  0
 41 48  1  0  0  0
 42 43  1  0  0  0
 42 66  1  0  0  0
 42113  1  0  0  0
 42114  1  0  0  0
 43 44  1  0  0  0
 44115  1  0  0  0
 45 46  2  0  0  0
 45116  1  0  0  0
 46117  1  0  0  0
 47118  1  0  0  0
 47119  1  0  0  0
 48 56  1  0  0  0
 48 65  1  0  0  0
 48120  1  0  0  0
 49 50  1  0  0  0
 49 53  1  0  0  0
 49 64  1  0  0  0
 49121  1  0  0  0
 50 51  1  0  0  0
 50122  1  0  0  0
 50123  1  0  0  0
 51 52  1  0  0  0
 51124  1  0  0  0
 51125  1  0  0  0
 52126  1  0  0  0
 52127  1  0  0  0
 53 54  1  0  0  0
 54 55  2  0  0  0
 54128  1  0  0  0
 55 57  1  0  0  0
 55129  1  0  0  0
 56 69  2  0  0  0
 57 58  2  0  0  0
 57130  1  0  0  0
 58131  1  0  0  0
 59 60  1  0  0  0
 59 61  1  0  0  0
 59 62  1  0  0  0
 60132  1  0  0  0
 60133  1  0  0  0
 60134  1  0  0  0
 61135  1  0  0  0
 61136  1  0  0  0
 61137  1  0  0  0
 62138  1  0  0  0
 62139  1  0  0  0
 62140  1  0  0  0
 63 65  1  0  0  0
 63141  1  0  0  0
 63142  1  0  0  0
 63143  1  0  0  0
 64144  1  0  0  0
 65145  1  0  0  0
 68 80  1  0  0  0
 71 73  2  0  0  0
 71 74  1  0  0  0
 71146  1  0  0  0
 72 73  1  0  0  0
 72 75  2  0  0  0
 72147  1  0  0  0
 73 83  1  0  0  0
 74 76  2  0  0  0
 74 81  1  0  0  0
 75 76  1  0  0  0
 75 82  1  0  0  0
 76 85  1  0  0  0
 77 78  1  0  0  0
 77 84  1  0  0  0
 77 86  2  0  0  0
 78 80  1  0  0  0
 78148  1  0  0  0
 78149  1  0  0  0
 79 80  1  0  0  0
 79 84  1  0  0  0
 79150  1  0  0  0
 79151  1  0  0  0
 80152  1  0  0  0
 81153  1  0  0  0
 81154  1  0  0  0
 81155  1  0  0  0
 82156  1  0  0  0
 82157  1  0  0  0
 82158  1  0  0  0
 83 84  1  0  0  0
 83159  1  0  0  0
 83160  1  0  0  0
 85161  1  0  0  0
M  ISO  4   1 100  68 101  80 101  85 100
M  END
> <chiral flag>
0

> <version>
0

> <s_m_source_file>
/data/baiqing/PycharmProjects/Reinvent-master-3.2/result/LINK_invent/BTK/process_docking_weight1_custom_product_contain_oxygen_bond_distance_aromatic_linkinvent_7_9_3/rearranged_h_0032.sdf

> <i_m_source_file_index>
58

> <r_mmod_Potential_Energy-OPLS-2005>
45.045711517334

> <r_mmod_Stretch_Energy-OPLS-2005>
86.0213317871094

> <r_mmod_Bend_Energy-OPLS-2005>
181.932754516602

> <r_mmod_Torsional_Energy-OPLS-2005>
255.701034545898

> <r_mmod_Improper_Torsional_Energy-OPLS-2005>
4.9190616607666

> <r_mmod_Van_der_Waal_Energy-OPLS-2005>
130.441864013672

> <r_mmod_Electrostatic_Energy-OPLS-2005>
-427.121704101562

> <r_mmod_Solvation_Energy-OPLS-2005>
-240.661834716797

> <b_mmod_Minimization_Converged-OPLS-2005>
0

> <r_mmod_RMS_Derivative-OPLS-2005>
2.8115222454071

$$$$
58
                    3D
 Structure written by MMmdl.
160168  0  0  1  0            999 V2000
  -30.4940  -14.9544   20.4194 C   0  0  0  0  0  0
  -30.4442  -12.5857   19.4962 C   0  0  0  0  0  0
  -29.5189  -12.5223   18.2559 C   0  0  0  0  0  0
  -28.0517  -12.3004   18.6724 C   0  0  0  0  0  0
  -27.6283  -13.2321   19.8374 C   0  0  2  0  0  0
  -28.6702  -13.2417   20.9761 C   0  0  0  0  0  0
  -25.2442  -13.8170   20.5664 C   0  0  0  0  0  0
  -24.1751  -13.0409   20.9172 C   0  0  0  0  0  0
  -24.6349  -11.6887   20.8714 C   0  0  0  0  0  0
  -23.9059  -10.4257   21.0402 C   0  0  0  0  0  0
  -24.3611   -9.4176   21.9195 C   0  0  0  0  0  0
  -23.6275   -8.2216   22.0756 C   0  0  0  0  0  0
  -22.4255   -8.0269   21.3555 C   0  0  0  0  0  0
  -21.9891   -9.0238   20.4642 C   0  0  0  0  0  0
  -22.7226  -10.2113   20.3053 C   0  0  0  0  0  0
  -21.6848   -6.0729   22.5280 C   0  0  0  0  0  0
  -21.4014   -6.5631   23.8215 C   0  0  0  0  0  0
  -21.3666   -5.6781   24.9176 C   0  0  0  0  0  0
  -21.6049   -4.3044   24.7222 C   0  0  0  0  0  0
  -21.8823   -3.8150   23.4330 C   0  0  0  0  0  0
  -21.9170   -4.6957   22.3391 C   0  0  0  0  0  0
  -22.7789  -13.5189   21.1869 C   0  0  0  0  0  0
  -22.1641   -4.2148   21.0963 F   0  0  0  0  0  0
  -21.5637   -3.4521   25.7725 F   0  0  0  0  0  0
  -29.9441  -13.6734   20.3824 N   0  0  0  0  0  0
  -26.2845  -12.9376   20.3194 N   0  0  0  0  0  0
  -25.9271  -11.6506   20.5703 N   0  0  0  0  0  0
  -22.0472  -12.8182   22.0441 N   0  0  0  0  0  0
  -25.4079  -15.1913   20.4102 N   0  0  0  0  0  0
  -31.6991  -15.0658   20.1645 O   0  0  0  0  0  0
  -21.6625   -6.8871   21.4254 O   0  0  0  0  0  0
  -22.3452  -14.5515   20.6734 O   0  0  0  0  0  0
  -24.6378  -31.8425   23.1919 C   0  0  0  0  0  0
  -25.9184  -32.4704   23.8251 C   0  0  1  0  0  0
  -27.2159  -27.1390   20.1479 C   0  0  0  0  0  0
  -25.5963  -33.8498   24.2186 N   0  0  0  0  0  0
  -23.4402  -30.4680   21.5331 C   0  0  2  0  0  0
  -24.8933  -28.8957   20.1074 C   0  0  0  0  0  0
  -22.7592  -29.4526   22.4842 C   0  0  0  0  0  0
  -18.0345  -28.1400   22.8431 C   0  0  0  0  0  0
  -24.1514  -36.7245   23.2626 C   0  0  0  0  0  0
  -25.9930  -30.7192   21.3886 C   0  0  0  0  0  0
  -26.0659  -29.3303   20.7321 C   0  0  0  0  0  0
  -27.2240  -28.4662   20.7397 C   0  0  0  0  0  0
  -26.0199  -26.8096   19.4716 C   0  0  0  0  0  0
  -24.8827  -27.6499   19.4614 C   0  0  0  0  0  0
  -23.6689  -29.7987   20.1489 C   0  0  0  0  0  0
  -25.4147  -36.3040   24.0312 C   0  0  1  0  0  0
  -20.5949  -28.3707   23.1207 C   0  0  2  0  0  0
  -20.6841  -26.9401   22.5405 C   0  0  0  0  0  0
  -19.5798  -26.6243   21.5284 C   0  0  0  0  0  0
  -18.1977  -26.7895   22.1664 C   0  0  0  0  0  0
  -19.1609  -28.8854   23.2815 C   0  0  0  0  0  0
  -18.9552  -30.1450   23.8858 C   0  0  0  0  0  0
  -17.6547  -30.6568   24.0582 C   0  0  0  0  0  0
  -25.9075  -34.9419   23.5054 C   0  0  0  0  0  0
  -16.5433  -29.9069   23.6356 C   0  0  0  0  0  0
  -16.7343  -28.6527   23.0314 C   0  0  0  0  0  0
  -26.4535  -31.6551   25.0680 C   0  0  0  0  0  0
  -25.3755  -31.3675   26.1391 C   0  0  0  0  0  0
  -27.0374  -30.2958   24.6224 C   0  0  0  0  0  0
  -27.6097  -32.4281   25.7455 C   0  0  0  0  0  0
  -27.5588  -37.1789   24.8458 C   0  0  0  0  0  0
  -21.4294  -29.3047   22.3620 N   0  0  0  0  0  0
  -26.4309  -37.3762   23.9406 N   0  0  0  0  0  0
  -24.7094  -31.0323   22.0919 N   0  0  0  0  0  0
  -23.4276  -28.8094   23.2966 O   0  0  0  0  0  0
  -28.2960  -26.1878   20.2430 O   0  0  0  0  0  0
  -26.5645  -34.8921   22.4617 O   0  0  0  0  0  0
  -23.5530  -32.1255   23.7221 O   0  0  0  0  0  0
  -28.6068  -19.8338   19.6393 C   0  0  0  0  0  0
  -30.1234  -18.4515   21.5099 C   0  0  0  0  0  0
  -29.0315  -20.6640   20.7344 C   0  0  0  0  0  0
  -28.8676  -18.3938   19.5176 C   0  0  0  0  0  0
  -29.8305  -19.8743   21.6506 C   0  0  0  0  0  0
  -29.6319  -17.6078   20.4636 C   0  0  0  0  0  0
  -28.4585  -22.1024   21.1924 C   0  0  0  0  0  0
  -28.1345  -23.4917   21.0043 C   0  0  0  0  0  0
  -28.2232  -17.6659   18.3483 C   0  0  0  0  0  0
  -30.3205  -20.5336   22.9331 C   0  0  0  0  0  0
  -25.8857  -24.1637   22.0241 C   0  0  0  0  0  0
  -27.4130  -24.1337   22.2014 C   0  0  0  0  0  0
  -28.2851  -24.6640   19.8791 C   0  0  0  0  0  0
  -29.6118  -16.0675   20.5145 N   0  0  0  0  0  0
  -31.4773  -12.7540   19.1868 H   0  0  0  0  0  0
  -30.4419  -11.6344   20.0309 H   0  0  0  0  0  0
  -29.8430  -11.7273   17.5809 H   0  0  0  0  0  0
  -29.5969  -13.4526   17.6922 H   0  0  0  0  0  0
  -27.9497  -11.2588   18.9747 H   0  0  0  0  0  0
  -27.3845  -12.4348   17.8193 H   0  0  0  0  0  0
  -27.6045  -14.2358   19.4129 H   0  0  0  0  0  0
  -28.7559  -12.2517   21.4291 H   0  0  0  0  0  0
  -28.3589  -13.9160   21.7763 H   0  0  0  0  0  0
  -25.2755   -9.5639   22.4777 H   0  0  0  0  0  0
  -23.9977   -7.4591   22.7455 H   0  0  0  0  0  0
  -21.0835   -8.8742   19.8917 H   0  0  0  0  0  0
  -22.3689  -10.9655   19.6148 H   0  0  0  0  0  0
  -21.2036   -7.6135   23.9724 H   0  0  0  0  0  0
  -21.1484   -6.0503   25.9077 H   0  0  0  0  0  0
  -22.0590   -2.7602   23.2828 H   0  0  0  0  0  0
  -22.4100  -11.9858   22.4849 H   0  0  0  0  0  0
  -21.1085  -13.1187   22.2662 H   0  0  0  0  0  0
  -24.6398  -15.8421   20.5440 H   0  0  0  0  0  0
  -26.2420  -15.6348   20.0562 H   0  0  0  0  0  0
  -26.7234  -32.5336   23.0953 H   0  0  0  0  0  0
  -25.0166  -33.9590   25.0388 H   0  0  0  0  0  0
  -22.7406  -31.2957   21.3895 H   0  0  0  0  0  0
  -23.3811  -35.9536   23.3272 H   0  0  0  0  0  0
  -24.3565  -36.8894   22.2028 H   0  0  0  0  0  0
  -23.7262  -37.6435   23.6672 H   0  0  0  0  0  0
  -26.1422  -31.4745   20.6142 H   0  0  0  0  0  0
  -26.8539  -30.7658   22.0421 H   0  0  0  0  0  0
  -28.1225  -28.7896   21.2470 H   0  0  0  0  0  0
  -25.9256  -25.8629   18.9663 H   0  0  0  0  0  0
  -23.9860  -27.3179   18.9596 H   0  0  0  0  0  0
  -23.8110  -30.5688   19.3905 H   0  0  0  0  0  0
  -22.7791  -29.2473   19.8379 H   0  0  0  0  0  0
  -25.1358  -36.1819   25.0809 H   0  0  0  0  0  0
  -21.0063  -28.3285   24.1318 H   0  0  0  0  0  0
  -20.5811  -26.2328   23.3642 H   0  0  0  0  0  0
  -21.6678  -26.7434   22.1137 H   0  0  0  0  0  0
  -19.6947  -25.6070   21.1520 H   0  0  0  0  0  0
  -19.6727  -27.2901   20.6697 H   0  0  0  0  0  0
  -17.4263  -26.6575   21.4066 H   0  0  0  0  0  0
  -18.0394  -26.0090   22.9118 H   0  0  0  0  0  0
  -19.8030  -30.7236   24.2243 H   0  0  0  0  0  0
  -17.5127  -31.6219   24.5249 H   0  0  0  0  0  0
  -15.5453  -30.2951   23.7753 H   0  0  0  0  0  0
  -15.8732  -28.0877   22.7002 H   0  0  0  0  0  0
  -24.6032  -30.6923   25.7696 H   0  0  0  0  0  0
  -24.8847  -32.2811   26.4738 H   0  0  0  0  0  0
  -25.8060  -30.8918   27.0214 H   0  0  0  0  0  0
  -26.2936  -29.6696   24.1298 H   0  0  0  0  0  0
  -27.4066  -29.7249   25.4746 H   0  0  0  0  0  0
  -27.8830  -30.4199   23.9465 H   0  0  0  0  0  0
  -27.2758  -33.3643   26.1931 H   0  0  0  0  0  0
  -28.3945  -32.6710   25.0280 H   0  0  0  0  0  0
  -28.0709  -31.8451   26.5430 H   0  0  0  0  0  0
  -28.2605  -38.0098   24.7542 H   0  0  0  0  0  0
  -28.1109  -36.2629   24.6270 H   0  0  0  0  0  0
  -27.2288  -37.1406   25.8859 H   0  0  0  0  0  0
  -20.9504  -29.8836   21.6864 H   0  0  0  0  0  0
  -26.0169  -38.2824   24.1449 H   0  0  0  0  0  0
  -27.9564  -20.2928   18.9064 H   0  0  0  0  0  0
  -30.6754  -17.9732   22.3063 H   0  0  0  0  0  0
  -28.0614  -21.8408   22.1597 H   0  0  0  0  0  0
  -27.3270  -17.1391   18.6749 H   0  0  0  0  0  0
  -28.9107  -16.9339   17.9203 H   0  0  0  0  0  0
  -27.9334  -18.3517   17.5499 H   0  0  0  0  0  0
  -31.1168  -19.9646   23.4160 H   0  0  0  0  0  0
  -29.5014  -20.6311   23.6476 H   0  0  0  0  0  0
  -30.7159  -21.5280   22.7306 H   0  0  0  0  0  0
  -25.3916  -24.4790   22.9421 H   0  0  0  0  0  0
  -25.4978  -23.1755   21.7692 H   0  0  0  0  0  0
  -25.5808  -24.8564   21.2406 H   0  0  0  0  0  0
  -27.7811  -25.1451   22.3843 H   0  0  0  0  0  0
  -27.6460  -23.6135   23.1306 H   0  0  0  0  0  0
  -27.5232  -24.4875   19.1223 H   0  0  0  0  0  0
  -29.2258  -24.4567   19.3653 H   0  0  0  0  0  0
  -28.6702  -15.7245   20.5987 H   0  0  0  0  0  0
  1 25  1  0  0  0
  1 30  2  0  0  0
  1 84  1  0  0  0
  2  3  1  0  0  0
  2 25  1  0  0  0
  2 85  1  0  0  0
  2 86  1  0  0  0
  3  4  1  0  0  0
  3 87  1  0  0  0
  3 88  1  0  0  0
  4  5  1  0  0  0
  4 89  1  0  0  0
  4 90  1  0  0  0
  5  6  1  0  0  0
  5 26  1  0  0  0
  5 91  1  0  0  0
  6 25  1  0  0  0
  6 92  1  0  0  0
  6 93  1  0  0  0
  7  8  2  0  0  0
  7 26  1  0  0  0
  7 29  1  0  0  0
  8  9  1  0  0  0
  8 22  1  0  0  0
  9 10  1  0  0  0
  9 27  2  0  0  0
 10 11  2  0  0  0
 10 15  1  0  0  0
 11 12  1  0  0  0
 11 94  1  0  0  0
 12 13  2  0  0  0
 12 95  1  0  0  0
 13 14  1  0  0  0
 13 31  1  0  0  0
 14 15  2  0  0  0
 14 96  1  0  0  0
 15 97  1  0  0  0
 16 17  2  0  0  0
 16 21  1  0  0  0
 16 31  1  0  0  0
 17 18  1  0  0  0
 17 98  1  0  0  0
 18 19  2  0  0  0
 18 99  1  0  0  0
 19 20  1  0  0  0
 19 24  1  0  0  0
 20 21  2  0  0  0
 20100  1  0  0  0
 21 23  1  0  0  0
 22 28  1  0  0  0
 22 32  2  0  0  0
 26 27  1  0  0  0
 28101  1  0  0  0
 28102  1  0  0  0
 29103  1  0  0  0
 29104  1  0  0  0
 33 34  1  0  0  0
 33 66  1  0  0  0
 33 70  2  0  0  0
 34 36  1  0  0  0
 34 59  1  0  0  0
 34105  1  0  0  0
 35 44  2  0  0  0
 35 45  1  0  0  0
 35 68  1  0  0  0
 36 56  1  0  0  0
 36106  1  0  0  0
 37 39  1  0  0  0
 37 47  1  0  0  0
 37 66  1  0  0  0
 37107  1  0  0  0
 38 43  2  0  0  0
 38 46  1  0  0  0
 38 47  1  0  0  0
 39 64  1  0  0  0
 39 67  2  0  0  0
 40 52  1  0  0  0
 40 53  2  0  0  0
 40 58  1  0  0  0
 41108  1  0  0  0
 41109  1  0  0  0
 41110  1  0  0  0
 41 48  1  0  0  0
 42 43  1  0  0  0
 42 66  1  0  0  0
 42111  1  0  0  0
 42112  1  0  0  0
 43 44  1  0  0  0
 44113  1  0  0  0
 45 46  2  0  0  0
 45114  1  0  0  0
 46115  1  0  0  0
 47116  1  0  0  0
 47117  1  0  0  0
 48 56  1  0  0  0
 48 65  1  0  0  0
 48118  1  0  0  0
 49 50  1  0  0  0
 49 53  1  0  0  0
 49 64  1  0  0  0
 49119  1  0  0  0
 50 51  1  0  0  0
 50120  1  0  0  0
 50121  1  0  0  0
 51 52  1  0  0  0
 51122  1  0  0  0
 51123  1  0  0  0
 52124  1  0  0  0
 52125  1  0  0  0
 53 54  1  0  0  0
 54 55  2  0  0  0
 54126  1  0  0  0
 55 57  1  0  0  0
 55127  1  0  0  0
 56 69  2  0  0  0
 57 58  2  0  0  0
 57128  1  0  0  0
 58129  1  0  0  0
 59 60  1  0  0  0
 59 61  1  0  0  0
 59 62  1  0  0  0
 60130  1  0  0  0
 60131  1  0  0  0
 60132  1  0  0  0
 61133  1  0  0  0
 61134  1  0  0  0
 61135  1  0  0  0
 62136  1  0  0  0
 62137  1  0  0  0
 62138  1  0  0  0
 63 65  1  0  0  0
 63139  1  0  0  0
 63140  1  0  0  0
 63141  1  0  0  0
 64142  1  0  0  0
 65143  1  0  0  0
 68 83  1  0  0  0
 71 73  2  0  0  0
 71 74  1  0  0  0
 71144  1  0  0  0
 72 75  2  0  0  0
 72 76  1  0  0  0
 72145  1  0  0  0
 73 75  1  0  0  0
 73 77  1  0  0  0
 74 76  2  0  0  0
 74 79  1  0  0  0
 75 80  1  0  0  0
 76 84  1  0  0  0
 77 78  2  0  0  0
 77146  1  0  0  0
 78 82  1  0  0  0
 78 83  1  0  0  0
 79147  1  0  0  0
 79148  1  0  0  0
 79149  1  0  0  0
 80150  1  0  0  0
 80151  1  0  0  0
 80152  1  0  0  0
 81 82  1  0  0  0
 81153  1  0  0  0
 81154  1  0  0  0
 81155  1  0  0  0
 82156  1  0  0  0
 82157  1  0  0  0
 83158  1  0  0  0
 83159  1  0  0  0
 84160  1  0  0  0
M  ISO  4   1 100  68 101  83 101  84 100
M  END
> <chiral flag>
0

> <version>
0

> <s_m_source_file>
/data/baiqing/PycharmProjects/Reinvent-master-3.2/result/LINK_invent/BTK/process_docking_weight1_custom_product_contain_oxygen_bond_distance_aromatic_linkinvent_7_9_3/rearranged_h_0032.sdf

> <i_m_source_file_index>
59

> <r_mmod_Potential_Energy-OPLS-2005>
635.303894042969

> <r_mmod_Stretch_Energy-OPLS-2005>
244.327651977539

> <r_mmod_Bend_Energy-OPLS-2005>
362.850128173828

> <r_mmod_Torsional_Energy-OPLS-2005>
271.423797607422

> <r_mmod_Improper_Torsional_Energy-OPLS-2005>
11.5041198730469

> <r_mmod_Van_der_Waal_Energy-OPLS-2005>
131.847091674805

> <r_mmod_Electrostatic_Energy-OPLS-2005>
-377.072784423828

> <r_mmod_Solvation_Energy-OPLS-2005>
-201.587280273438

> <b_mmod_Minimization_Converged-OPLS-2005>
0

> <r_mmod_RMS_Derivative-OPLS-2005>
4.47093391418457

$$$$
59
                    3D
 Structure written by MMmdl.
159168  0  0  1  0            999 V2000
  -30.6411  -14.6592   20.4901 C   0  0  0  0  0  0
  -30.4272  -12.4084   19.4506 C   0  0  0  0  0  0
  -29.5009  -12.4994   18.2198 C   0  0  0  0  0  0
  -28.0256  -12.3378   18.6363 C   0  0  0  0  0  0
  -27.6441  -13.2244   19.8525 C   0  0  2  0  0  0
  -28.6902  -13.1195   20.9825 C   0  0  0  0  0  0
  -25.2524  -13.8188   20.5694 C   0  0  0  0  0  0
  -24.1806  -13.0440   20.9203 C   0  0  0  0  0  0
  -24.6389  -11.6915   20.8745 C   0  0  0  0  0  0
  -23.9065  -10.4294   21.0407 C   0  0  0  0  0  0
  -24.3618   -9.4209   21.9184 C   0  0  0  0  0  0
  -23.6294   -8.2243   22.0755 C   0  0  0  0  0  0
  -22.4276   -8.0281   21.3545 C   0  0  0  0  0  0
  -21.9911   -9.0255   20.4647 C   0  0  0  0  0  0
  -22.7239  -10.2134   20.3055 C   0  0  0  0  0  0
  -21.6853   -6.0736   22.5279 C   0  0  0  0  0  0
  -21.4013   -6.5640   23.8212 C   0  0  0  0  0  0
  -21.3659   -5.6792   24.9175 C   0  0  0  0  0  0
  -21.6044   -4.3055   24.7224 C   0  0  0  0  0  0
  -21.8820   -3.8147   23.4346 C   0  0  0  0  0  0
  -21.9193   -4.6963   22.3402 C   0  0  0  0  0  0
  -22.7829  -13.5226   21.1864 C   0  0  0  0  0  0
  -22.1662   -4.2150   21.0979 F   0  0  0  0  0  0
  -21.5629   -3.4538   25.7736 F   0  0  0  0  0  0
  -29.9953  -13.4539   20.3999 N   0  0  0  0  0  0
  -26.2946  -12.9383   20.3290 N   0  0  0  0  0  0
  -25.9315  -11.6530   20.5752 N   0  0  0  0  0  0
  -22.0476  -12.8212   22.0418 N   0  0  0  0  0  0
  -25.4218  -15.1911   20.4123 N   0  0  0  0  0  0
  -31.8280  -14.7613   20.1704 O   0  0  0  0  0  0
  -21.6641   -6.8878   21.4242 O   0  0  0  0  0  0
  -22.3512  -14.5533   20.6716 O   0  0  0  0  0  0
  -24.6264  -31.8575   23.1989 C   0  0  0  0  0  0
  -25.9109  -32.4761   23.8322 C   0  0  1  0  0  0
  -27.2312  -27.3146   20.1054 C   0  0  0  0  0  0
  -25.5926  -33.8563   24.2254 N   0  0  0  0  0  0
  -23.4191  -30.4793   21.5421 C   0  0  2  0  0  0
  -24.8627  -28.9251   20.1120 C   0  0  0  0  0  0
  -22.7468  -29.4615   22.4937 C   0  0  0  0  0  0
  -18.0285  -28.1384   22.8487 C   0  0  0  0  0  0
  -24.1487  -36.7280   23.2638 C   0  0  0  0  0  0
  -25.9586  -30.7879   21.3654 C   0  0  0  0  0  0
  -26.0310  -29.4138   20.7069 C   0  0  0  0  0  0
  -27.2138  -28.6201   20.6895 C   0  0  0  0  0  0
  -26.0250  -26.8541   19.5361 C   0  0  0  0  0  0
  -24.8606  -27.6499   19.5214 C   0  0  0  0  0  0
  -23.6313  -29.8070   20.1592 C   0  0  0  0  0  0
  -25.4113  -36.3072   24.0327 C   0  0  1  0  0  0
  -20.5885  -28.3684   23.1290 C   0  0  2  0  0  0
  -20.6771  -26.9406   22.5419 C   0  0  0  0  0  0
  -19.5751  -26.6384   21.5215 C   0  0  0  0  0  0
  -18.1928  -26.7931   22.1619 C   0  0  0  0  0  0
  -19.1538  -28.8851   23.2885 C   0  0  0  0  0  0
  -18.9461  -30.1454   23.8898 C   0  0  0  0  0  0
  -17.6462  -30.6586   24.0566 C   0  0  0  0  0  0
  -25.9054  -34.9444   23.5093 C   0  0  0  0  0  0
  -16.5352  -29.9086   23.6331 C   0  0  0  0  0  0
  -16.7273  -28.6505   23.0348 C   0  0  0  0  0  0
  -26.4490  -31.6581   25.0703 C   0  0  0  0  0  0
  -25.3721  -31.3735   26.1433 C   0  0  0  0  0  0
  -27.0322  -30.3000   24.6160 C   0  0  0  0  0  0
  -27.6051  -32.4312   25.7476 C   0  0  0  0  0  0
  -27.5582  -37.1790   24.8461 C   0  0  0  0  0  0
  -21.4183  -29.3034   22.3681 N   0  0  0  0  0  0
  -26.4284  -37.3774   23.9419 N   0  0  0  0  0  0
  -24.6872  -31.0587   22.0927 N   0  0  0  0  0  0
  -23.4195  -28.8165   23.3026 O   0  0  0  0  0  0
  -28.3987  -26.5377   20.1556 O   0  0  0  0  0  0
  -26.5625  -34.8920   22.4661 O   0  0  0  0  0  0
  -23.5430  -32.1369   23.7327 O   0  0  0  0  0  0
  -30.6344  -19.2866   19.6979 C   0  0  0  0  0  0
  -28.3660  -20.5306   20.7406 C   0  0  0  0  0  0
  -29.8494  -18.5152   20.5901 C   0  0  0  0  0  0
  -29.1630  -21.3056   19.8509 C   0  0  0  0  0  0
  -30.3183  -20.6297   19.3446 C   0  0  0  0  0  0
  -28.6940  -19.1793   21.1019 C   0  0  0  0  0  0
  -28.9738  -23.9727   17.3175 C   0  0  0  0  0  0
  -28.3835  -25.2263   17.9839 C   0  0  0  0  0  0
  -28.4518  -22.6831   17.9736 C   0  0  0  0  0  0
  -28.2940  -23.8066   20.1810 C   0  0  0  0  0  0
  -28.6455  -25.2238   19.5082 C   0  0  2  0  0  0
  -30.4197  -17.1439   21.1380 C   0  0  0  0  0  0
  -28.8148  -22.6358   19.3915 N   0  0  0  0  0  0
  -29.8935  -15.7767   20.7771 N   0  0  0  0  0  0
  -31.4319  -21.4448   18.2988 Cl  0  0  0  0  0  0
  -27.6716  -18.3565   22.2248 Cl  0  0  0  0  0  0
  -31.4688  -12.5263   19.1465 H   0  0  0  0  0  0
  -30.3603  -11.4231   19.9144 H   0  0  0  0  0  0
  -29.7686  -11.7357   17.4883 H   0  0  0  0  0  0
  -29.6400  -13.4611   17.7232 H   0  0  0  0  0  0
  -27.8679  -11.2871   18.8821 H   0  0  0  0  0  0
  -27.3691  -12.5525   17.7923 H   0  0  0  0  0  0
  -27.6506  -14.2531   19.4919 H   0  0  0  0  0  0
  -28.7096  -12.1124   21.4014 H   0  0  0  0  0  0
  -28.4389  -13.7869   21.8084 H   0  0  0  0  0  0
  -25.2763   -9.5685   22.4759 H   0  0  0  0  0  0
  -24.0003   -7.4634   22.7472 H   0  0  0  0  0  0
  -21.0843   -8.8772   19.8951 H   0  0  0  0  0  0
  -22.3698  -10.9672   19.6164 H   0  0  0  0  0  0
  -21.2005   -7.6148   23.9716 H   0  0  0  0  0  0
  -21.1480   -6.0522   25.9077 H   0  0  0  0  0  0
  -22.0600   -2.7609   23.2845 H   0  0  0  0  0  0
  -22.4094  -11.9871   22.4798 H   0  0  0  0  0  0
  -21.1092  -13.1233   22.2624 H   0  0  0  0  0  0
  -24.6571  -15.8447   20.5394 H   0  0  0  0  0  0
  -26.2722  -15.6376   20.0954 H   0  0  0  0  0  0
  -26.7176  -32.5420   23.1066 H   0  0  0  0  0  0
  -25.0083  -33.9702   25.0406 H   0  0  0  0  0  0
  -22.7136  -31.2999   21.3968 H   0  0  0  0  0  0
  -23.3756  -35.9604   23.3291 H   0  0  0  0  0  0
  -24.3580  -36.8908   22.2054 H   0  0  0  0  0  0
  -23.7228  -37.6474   23.6666 H   0  0  0  0  0  0
  -26.0892  -31.5517   20.5978 H   0  0  0  0  0  0
  -26.8392  -30.8358   21.9946 H   0  0  0  0  0  0
  -28.1162  -28.9978   21.1497 H   0  0  0  0  0  0
  -25.9428  -25.8561   19.1398 H   0  0  0  0  0  0
  -23.9548  -27.2572   19.0802 H   0  0  0  0  0  0
  -23.7502  -30.5797   19.3988 H   0  0  0  0  0  0
  -22.7504  -29.2356   19.8609 H   0  0  0  0  0  0
  -25.1294  -36.1913   25.0818 H   0  0  0  0  0  0
  -20.9979  -28.3257   24.1410 H   0  0  0  0  0  0
  -20.5659  -26.2295   23.3618 H   0  0  0  0  0  0
  -21.6642  -26.7427   22.1222 H   0  0  0  0  0  0
  -19.6915  -25.6298   21.1239 H   0  0  0  0  0  0
  -19.6696  -27.3199   20.6750 H   0  0  0  0  0  0
  -17.4205  -26.6686   21.4014 H   0  0  0  0  0  0
  -18.0318  -26.0068   22.9007 H   0  0  0  0  0  0
  -19.7938  -30.7271   24.2263 H   0  0  0  0  0  0
  -17.5017  -31.6266   24.5170 H   0  0  0  0  0  0
  -15.5353  -30.2988   23.7659 H   0  0  0  0  0  0
  -15.8673  -28.0830   22.7056 H   0  0  0  0  0  0
  -24.5932  -30.7028   25.7787 H   0  0  0  0  0  0
  -24.8864  -32.2900   26.4793 H   0  0  0  0  0  0
  -25.8051  -30.8988   27.0245 H   0  0  0  0  0  0
  -26.2891  -29.6759   24.1184 H   0  0  0  0  0  0
  -27.4014  -29.7253   25.4666 H   0  0  0  0  0  0
  -27.8763  -30.4280   23.9379 H   0  0  0  0  0  0
  -27.2676  -33.3635   26.2016 H   0  0  0  0  0  0
  -28.3885  -32.6826   25.0314 H   0  0  0  0  0  0
  -28.0686  -31.8451   26.5422 H   0  0  0  0  0  0
  -28.2585  -38.0102   24.7530 H   0  0  0  0  0  0
  -28.1089  -36.2634   24.6249 H   0  0  0  0  0  0
  -27.2308  -37.1393   25.8865 H   0  0  0  0  0  0
  -20.9361  -29.8749   21.6885 H   0  0  0  0  0  0
  -26.0160  -38.2841   24.1444 H   0  0  0  0  0  0
  -31.5467  -18.8613   19.3060 H   0  0  0  0  0  0
  -27.4709  -20.9705   21.1536 H   0  0  0  0  0  0
  -30.0631  -24.0009   17.3702 H   0  0  0  0  0  0
  -28.7212  -23.9713   16.2565 H   0  0  0  0  0  0
  -27.3243  -25.2518   17.7477 H   0  0  0  0  0  0
  -28.8207  -26.1184   17.5346 H   0  0  0  0  0  0
  -28.8325  -21.8179   17.4283 H   0  0  0  0  0  0
  -27.3651  -22.6347   17.8831 H   0  0  0  0  0  0
  -27.2129  -23.7100   20.2872 H   0  0  0  0  0  0
  -28.7085  -23.7683   21.1891 H   0  0  0  0  0  0
  -29.7351  -25.2209   19.5647 H   0  0  0  0  0  0
  -30.3562  -17.2039   22.2252 H   0  0  0  0  0  0
  -31.4933  -17.1568   20.9443 H   0  0  0  0  0  0
  -28.9107  -15.6213   20.9391 H   0  0  0  0  0  0
  1 25  1  0  0  0
  1 30  2  0  0  0
  1 84  1  0  0  0
  2  3  1  0  0  0
  2 25  1  0  0  0
  2 87  1  0  0  0
  2 88  1  0  0  0
  3  4  1  0  0  0
  3 89  1  0  0  0
  3 90  1  0  0  0
  4  5  1  0  0  0
  4 91  1  0  0  0
  4 92  1  0  0  0
  5  6  1  0  0  0
  5 26  1  0  0  0
  5 93  1  0  0  0
  6 25  1  0  0  0
  6 94  1  0  0  0
  6 95  1  0  0  0
  7  8  2  0  0  0
  7 26  1  0  0  0
  7 29  1  0  0  0
  8  9  1  0  0  0
  8 22  1  0  0  0
  9 10  1  0  0  0
  9 27  2  0  0  0
 10 11  2  0  0  0
 10 15  1  0  0  0
 11 12  1  0  0  0
 11 96  1  0  0  0
 12 13  2  0  0  0
 12 97  1  0  0  0
 13 14  1  0  0  0
 13 31  1  0  0  0
 14 15  2  0  0  0
 14 98  1  0  0  0
 15 99  1  0  0  0
 16 17  2  0  0  0
 16 21  1  0  0  0
 16 31  1  0  0  0
 17 18  1  0  0  0
 17100  1  0  0  0
 18 19  2  0  0  0
 18101  1  0  0  0
 19 20  1  0  0  0
 19 24  1  0  0  0
 20 21  2  0  0  0
 20102  1  0  0  0
 21 23  1  0  0  0
 22 28  1  0  0  0
 22 32  2  0  0  0
 26 27  1  0  0  0
 28103  1  0  0  0
 28104  1  0  0  0
 29105  1  0  0  0
 29106  1  0  0  0
 33 34  1  0  0  0
 33 66  1  0  0  0
 33 70  2  0  0  0
 34 36  1  0  0  0
 34 59  1  0  0  0
 34107  1  0  0  0
 35 44  2  0  0  0
 35 45  1  0  0  0
 35 68  1  0  0  0
 36 56  1  0  0  0
 36108  1  0  0  0
 37 39  1  0  0  0
 37 47  1  0  0  0
 37 66  1  0  0  0
 37109  1  0  0  0
 38 43  2  0  0  0
 38 46  1  0  0  0
 38 47  1  0  0  0
 39 64  1  0  0  0
 39 67  2  0  0  0
 40 52  1  0  0  0
 40 53  2  0  0  0
 40 58  1  0  0  0
 41110  1  0  0  0
 41111  1  0  0  0
 41112  1  0  0  0
 41 48  1  0  0  0
 42 43  1  0  0  0
 42 66  1  0  0  0
 42113  1  0  0  0
 42114  1  0  0  0
 43 44  1  0  0  0
 44115  1  0  0  0
 45 46  2  0  0  0
 45116  1  0  0  0
 46117  1  0  0  0
 47118  1  0  0  0
 47119  1  0  0  0
 48 56  1  0  0  0
 48 65  1  0  0  0
 48120  1  0  0  0
 49 50  1  0  0  0
 49 53  1  0  0  0
 49 64  1  0  0  0
 49121  1  0  0  0
 50 51  1  0  0  0
 50122  1  0  0  0
 50123  1  0  0  0
 51 52  1  0  0  0
 51124  1  0  0  0
 51125  1  0  0  0
 52126  1  0  0  0
 52127  1  0  0  0
 53 54  1  0  0  0
 54 55  2  0  0  0
 54128  1  0  0  0
 55 57  1  0  0  0
 55129  1  0  0  0
 56 69  2  0  0  0
 57 58  2  0  0  0
 57130  1  0  0  0
 58131  1  0  0  0
 59 60  1  0  0  0
 59 61  1  0  0  0
 59 62  1  0  0  0
 60132  1  0  0  0
 60133  1  0  0  0
 60134  1  0  0  0
 61135  1  0  0  0
 61136  1  0  0  0
 61137  1  0  0  0
 62138  1  0  0  0
 62139  1  0  0  0
 62140  1  0  0  0
 63 65  1  0  0  0
 63141  1  0  0  0
 63142  1  0  0  0
 63143  1  0  0  0
 64144  1  0  0  0
 65145  1  0  0  0
 68 81  1  0  0  0
 71 73  2  0  0  0
 71 75  1  0  0  0
 71146  1  0  0  0
 72 74  1  0  0  0
 72 76  2  0  0  0
 72147  1  0  0  0
 73 76  1  0  0  0
 73 82  1  0  0  0
 74 75  2  0  0  0
 74 83  1  0  0  0
 75 85  1  0  0  0
 76 86  1  0  0  0
 77 78  1  0  0  0
 77 79  1  0  0  0
 77148  1  0  0  0
 77149  1  0  0  0
 78 81  1  0  0  0
 78150  1  0  0  0
 78151  1  0  0  0
 79 83  1  0  0  0
 79152  1  0  0  0
 79153  1  0  0  0
 80 81  1  0  0  0
 80 83  1  0  0  0
 80154  1  0  0  0
 80155  1  0  0  0
 81156  1  0  0  0
 82 84  1  0  0  0
 82157  1  0  0  0
 82158  1  0  0  0
 84159  1  0  0  0
M  ISO  4   1 100  68 101  81 101  84 100
M  END
> <chiral flag>
0

> <version>
0

> <s_m_source_file>
/data/baiqing/PycharmProjects/Reinvent-master-3.2/result/LINK_invent/BTK/process_docking_weight1_custom_product_contain_oxygen_bond_distance_aromatic_linkinvent_7_9_3/rearranged_h_0032.sdf

> <i_m_source_file_index>
60

> <r_mmod_Potential_Energy-OPLS-2005>
156.634918212891

> <r_mmod_Stretch_Energy-OPLS-2005>
88.5060119628906

> <r_mmod_Bend_Energy-OPLS-2005>
198.271026611328

> <r_mmod_Torsional_Energy-OPLS-2005>
243.729278564453

> <r_mmod_Improper_Torsional_Energy-OPLS-2005>
7.14806747436523

> <r_mmod_Van_der_Waal_Energy-OPLS-2005>
142.007080078125

> <r_mmod_Electrostatic_Energy-OPLS-2005>
-362.933746337891

> <r_mmod_Solvation_Energy-OPLS-2005>
-211.773788452148

> <b_mmod_Minimization_Converged-OPLS-2005>
0

> <r_mmod_RMS_Derivative-OPLS-2005>
0.38298311829567

$$$$
60
                    3D
 Structure written by MMmdl.
170179  0  0  1  0            999 V2000
  -30.6067  -14.6278   20.5260 C   0  0  0  0  0  0
  -30.4391  -12.3993   19.4284 C   0  0  0  0  0  0
  -29.5028  -12.5637   18.2090 C   0  0  0  0  0  0
  -28.0180  -12.4113   18.6105 C   0  0  0  0  0  0
  -27.6564  -13.2185   19.8882 C   0  0  2  0  0  0
  -28.7107  -13.0145   20.9994 C   0  0  0  0  0  0
  -25.2564  -13.8182   20.5752 C   0  0  0  0  0  0
  -24.1807  -13.0406   20.9195 C   0  0  0  0  0  0
  -24.6390  -11.6903   20.8739 C   0  0  0  0  0  0
  -23.9053  -10.4278   21.0423 C   0  0  0  0  0  0
  -24.3612   -9.4196   21.9198 C   0  0  0  0  0  0
  -23.6286   -8.2228   22.0768 C   0  0  0  0  0  0
  -22.4271   -8.0268   21.3557 C   0  0  0  0  0  0
  -21.9908   -9.0225   20.4643 C   0  0  0  0  0  0
  -22.7238  -10.2111   20.3054 C   0  0  0  0  0  0
  -21.6844   -6.0734   22.5292 C   0  0  0  0  0  0
  -21.4007   -6.5644   23.8222 C   0  0  0  0  0  0
  -21.3675   -5.6797   24.9188 C   0  0  0  0  0  0
  -21.6062   -4.3054   24.7224 C   0  0  0  0  0  0
  -21.8829   -3.8137   23.4339 C   0  0  0  0  0  0
  -21.9192   -4.6965   22.3396 C   0  0  0  0  0  0
  -22.7840  -13.5213   21.1830 C   0  0  0  0  0  0
  -22.1664   -4.2142   21.0979 F   0  0  0  0  0  0
  -21.5635   -3.4543   25.7743 F   0  0  0  0  0  0
  -30.0218  -13.3896   20.4411 N   0  0  0  0  0  0
  -26.3007  -12.9344   20.3451 N   0  0  0  0  0  0
  -25.9325  -11.6485   20.5785 N   0  0  0  0  0  0
  -22.0465  -12.8163   22.0366 N   0  0  0  0  0  0
  -25.4257  -15.1912   20.4253 N   0  0  0  0  0  0
  -31.7530  -14.8294   20.1157 O   0  0  0  0  0  0
  -21.6639   -6.8869   21.4256 O   0  0  0  0  0  0
  -22.3535  -14.5521   20.6723 O   0  0  0  0  0  0
  -24.6260  -31.8561   23.2051 C   0  0  0  0  0  0
  -25.9111  -32.4743   23.8369 C   0  0  1  0  0  0
  -27.2170  -27.2980   20.1068 C   0  0  0  0  0  0
  -25.5937  -33.8557   24.2269 N   0  0  0  0  0  0
  -23.4220  -30.4843   21.5424 C   0  0  2  0  0  0
  -24.8713  -28.9431   20.0934 C   0  0  0  0  0  0
  -22.7450  -29.4621   22.4890 C   0  0  0  0  0  0
  -18.0293  -28.1362   22.8513 C   0  0  0  0  0  0
  -24.1487  -36.7262   23.2663 C   0  0  0  0  0  0
  -25.9675  -30.7700   21.3967 C   0  0  0  0  0  0
  -26.0336  -29.4039   20.7220 C   0  0  0  0  0  0
  -27.2046  -28.5890   20.7250 C   0  0  0  0  0  0
  -26.0466  -26.9122   19.4163 C   0  0  0  0  0  0
  -24.8836  -27.7069   19.4267 C   0  0  0  0  0  0
  -23.6379  -29.8226   20.1545 C   0  0  0  0  0  0
  -25.4125  -36.3059   24.0333 C   0  0  1  0  0  0
  -20.5884  -28.3683   23.1258 C   0  0  2  0  0  0
  -20.6769  -26.9399   22.5407 C   0  0  0  0  0  0
  -19.5743  -26.6359   21.5217 C   0  0  0  0  0  0
  -18.1920  -26.7930   22.1611 C   0  0  0  0  0  0
  -19.1545  -28.8834   23.2882 C   0  0  0  0  0  0
  -18.9475  -30.1442   23.8894 C   0  0  0  0  0  0
  -17.6471  -30.6585   24.0547 C   0  0  0  0  0  0
  -25.9066  -34.9421   23.5097 C   0  0  0  0  0  0
  -16.5358  -29.9070   23.6336 C   0  0  0  0  0  0
  -16.7281  -28.6461   23.0417 C   0  0  0  0  0  0
  -26.4502  -31.6612   25.0792 C   0  0  0  0  0  0
  -25.3717  -31.3700   26.1492 C   0  0  0  0  0  0
  -27.0466  -30.3046   24.6378 C   0  0  0  0  0  0
  -27.6004  -32.4432   25.7587 C   0  0  0  0  0  0
  -27.5575  -37.1787   24.8460 C   0  0  0  0  0  0
  -21.4167  -29.3031   22.3612 N   0  0  0  0  0  0
  -26.4299  -37.3754   23.9389 N   0  0  0  0  0  0
  -24.6891  -31.0539   22.1021 N   0  0  0  0  0  0
  -23.4158  -28.8171   23.2990 O   0  0  0  0  0  0
  -28.3303  -26.4450   20.2217 O   0  0  0  0  0  0
  -26.5613  -34.8886   22.4654 O   0  0  0  0  0  0
  -23.5428  -32.1409   23.7341 O   0  0  0  0  0  0
  -30.2945  -17.9042   21.8506 C   0  0  0  0  0  0
  -29.9870  -19.2976   21.9564 C   0  0  0  0  0  0
  -28.7148  -19.1519   19.9029 C   0  0  0  0  0  0
  -29.1155  -19.9484   21.0227 C   0  0  0  0  0  0
  -29.0420  -17.7515   19.7988 C   0  0  0  0  0  0
  -29.7867  -17.0814   20.8157 C   0  0  0  0  0  0
  -27.8544  -23.8472   20.4874 C   0  0  0  0  0  0
  -26.5383  -23.7165   20.7760 C   0  0  0  0  0  0
  -30.7489  -24.1206   20.1172 C   0  0  0  0  0  0
  -29.8653  -24.9087   19.1565 C   0  0  0  0  0  0
  -30.1913  -22.7047   20.2685 C   0  0  0  0  0  0
  -28.4088  -25.0761   19.6399 C   0  0  2  0  0  0
  -30.5380  -20.0264   23.1751 C   0  0  0  0  0  0
  -27.8234  -19.7684   18.8234 C   0  0  0  0  0  0
  -28.5216  -16.9627   18.6002 C   0  0  0  0  0  0
  -28.3897  -21.3346   21.3474 C   0  0  0  0  0  0
  -29.7786  -15.6257   20.9631 N   0  0  0  0  0  0
  -28.8786  -22.7311   20.9418 N   0  3  2  0  0  0
  -31.4787  -12.5354   19.1239 H   0  0  0  0  0  0
  -30.3668  -11.3865   19.8288 H   0  0  0  0  0  0
  -29.7512  -11.8482   17.4226 H   0  0  0  0  0  0
  -29.6587  -13.5542   17.7761 H   0  0  0  0  0  0
  -27.8048  -11.3530   18.7533 H   0  0  0  0  0  0
  -27.3867  -12.7387   17.7852 H   0  0  0  0  0  0
  -27.6775  -14.2691   19.6133 H   0  0  0  0  0  0
  -28.7275  -11.9696   21.3125 H   0  0  0  0  0  0
  -28.4655  -13.5793   21.8993 H   0  0  0  0  0  0
  -25.2776   -9.5657   22.4736 H   0  0  0  0  0  0
  -24.0005   -7.4626   22.7495 H   0  0  0  0  0  0
  -21.0847   -8.8747   19.8919 H   0  0  0  0  0  0
  -22.3730  -10.9641   19.6131 H   0  0  0  0  0  0
  -21.2003   -7.6155   23.9712 H   0  0  0  0  0  0
  -21.1504   -6.0544   25.9101 H   0  0  0  0  0  0
  -22.0594   -2.7583   23.2876 H   0  0  0  0  0  0
  -22.4075  -11.9820   22.4751 H   0  0  0  0  0  0
  -21.1073  -13.1188   22.2546 H   0  0  0  0  0  0
  -24.6717  -15.8518   20.5794 H   0  0  0  0  0  0
  -26.2910  -15.6419   20.1514 H   0  0  0  0  0  0
  -26.7169  -32.5403   23.1105 H   0  0  0  0  0  0
  -25.0081  -33.9711   25.0408 H   0  0  0  0  0  0
  -22.7186  -31.3082   21.3984 H   0  0  0  0  0  0
  -23.3778  -35.9566   23.3305 H   0  0  0  0  0  0
  -24.3535  -36.8939   22.2076 H   0  0  0  0  0  0
  -23.7214  -37.6446   23.6701 H   0  0  0  0  0  0
  -26.1337  -31.5430   20.6468 H   0  0  0  0  0  0
  -26.8317  -30.7910   22.0495 H   0  0  0  0  0  0
  -28.0920  -28.9271   21.2427 H   0  0  0  0  0  0
  -25.9958  -25.9844   18.8686 H   0  0  0  0  0  0
  -24.0032  -27.3640   18.9009 H   0  0  0  0  0  0
  -23.7463  -30.6028   19.4010 H   0  0  0  0  0  0
  -22.7570  -29.2503   19.8587 H   0  0  0  0  0  0
  -25.1304  -36.1927   25.0825 H   0  0  0  0  0  0
  -21.0023  -28.3289   24.1356 H   0  0  0  0  0  0
  -20.5674  -26.2289   23.3606 H   0  0  0  0  0  0
  -21.6637  -26.7394   22.1205 H   0  0  0  0  0  0
  -19.6895  -25.6262   21.1258 H   0  0  0  0  0  0
  -19.6706  -27.3141   20.6725 H   0  0  0  0  0  0
  -17.4208  -26.6776   21.3980 H   0  0  0  0  0  0
  -18.0235  -26.0026   22.8934 H   0  0  0  0  0  0
  -19.7944  -30.7264   24.2278 H   0  0  0  0  0  0
  -17.5019  -31.6295   24.5118 H   0  0  0  0  0  0
  -15.5350  -30.2979   23.7641 H   0  0  0  0  0  0
  -15.8682  -28.0749   22.7189 H   0  0  0  0  0  0
  -24.5894  -30.7078   25.7766 H   0  0  0  0  0  0
  -24.8917  -32.2852   26.4954 H   0  0  0  0  0  0
  -25.8044  -30.8826   27.0243 H   0  0  0  0  0  0
  -26.3156  -29.6701   24.1372 H   0  0  0  0  0  0
  -27.4105  -29.7392   25.4969 H   0  0  0  0  0  0
  -27.8991  -30.4338   23.9718 H   0  0  0  0  0  0
  -27.2521  -33.3690   26.2168 H   0  0  0  0  0  0
  -28.3786  -32.7102   25.0430 H   0  0  0  0  0  0
  -28.0703  -31.8611   26.5532 H   0  0  0  0  0  0
  -28.2553  -38.0115   24.7549 H   0  0  0  0  0  0
  -28.1121  -36.2646   24.6277 H   0  0  0  0  0  0
  -27.2251  -37.1417   25.8849 H   0  0  0  0  0  0
  -20.9317  -29.8787   21.6866 H   0  0  0  0  0  0
  -26.0193  -38.2829   24.1423 H   0  0  0  0  0  0
  -30.8616  -17.4337   22.6428 H   0  0  0  0  0  0
  -25.8053  -24.4404   20.4504 H   0  0  0  0  0  0
  -26.1269  -22.8964   21.3450 H   0  0  0  0  0  0
  -30.8240  -24.6317   21.0783 H   0  0  0  0  0  0
  -31.7621  -24.0657   19.7211 H   0  0  0  0  0  0
  -29.8761  -24.3900   18.1945 H   0  0  0  0  0  0
  -30.3081  -25.8877   18.9670 H   0  0  0  0  0  0
  -30.8909  -22.1251   20.8704 H   0  0  0  0  0  0
  -30.1130  -22.2055   19.3009 H   0  0  0  0  0  0
  -27.8438  -25.0690   18.7071 H   0  0  0  0  0  0
  -31.3224  -19.4477   23.6638 H   0  0  0  0  0  0
  -29.7559  -20.1904   23.9142 H   0  0  0  0  0  0
  -30.9814  -20.9844   22.9108 H   0  0  0  0  0  0
  -27.6831  -20.8436   18.9250 H   0  0  0  0  0  0
  -26.8366  -19.3039   18.8419 H   0  0  0  0  0  0
  -28.2563  -19.6177   17.8362 H   0  0  0  0  0  0
  -28.9264  -17.3759   17.6766 H   0  0  0  0  0  0
  -27.4337  -17.0061   18.5472 H   0  0  0  0  0  0
  -28.8105  -15.9147   18.6085 H   0  0  0  0  0  0
  -28.2907  -21.3759   22.4316 H   0  0  0  0  0  0
  -27.3603  -21.2057   21.0274 H   0  0  0  0  0  0
  -28.9012  -15.2574   21.2974 H   0  0  0  0  0  0
  -29.1613  -23.0600   21.8531 H   0  0  0  0  0  0
  1 25  1  0  0  0
  1 30  2  0  0  0
  1 87  1  0  0  0
  2  3  1  0  0  0
  2 25  1  0  0  0
  2 89  1  0  0  0
  2 90  1  0  0  0
  3  4  1  0  0  0
  3 91  1  0  0  0
  3 92  1  0  0  0
  4  5  1  0  0  0
  4 93  1  0  0  0
  4 94  1  0  0  0
  5  6  1  0  0  0
  5 26  1  0  0  0
  5 95  1  0  0  0
  6 25  1  0  0  0
  6 96  1  0  0  0
  6 97  1  0  0  0
  7  8  2  0  0  0
  7 26  1  0  0  0
  7 29  1  0  0  0
  8  9  1  0  0  0
  8 22  1  0  0  0
  9 10  1  0  0  0
  9 27  2  0  0  0
 10 11  2  0  0  0
 10 15  1  0  0  0
 11 12  1  0  0  0
 11 98  1  0  0  0
 12 13  2  0  0  0
 12 99  1  0  0  0
 13 14  1  0  0  0
 13 31  1  0  0  0
 14 15  2  0  0  0
 14100  1  0  0  0
 15101  1  0  0  0
 16 17  2  0  0  0
 16 21  1  0  0  0
 16 31  1  0  0  0
 17 18  1  0  0  0
 17102  1  0  0  0
 18 19  2  0  0  0
 18103  1  0  0  0
 19 20  1  0  0  0
 19 24  1  0  0  0
 20 21  2  0  0  0
 20104  1  0  0  0
 21 23  1  0  0  0
 22 28  1  0  0  0
 22 32  2  0  0  0
 26 27  1  0  0  0
 28105  1  0  0  0
 28106  1  0  0  0
 29107  1  0  0  0
 29108  1  0  0  0
 33 34  1  0  0  0
 33 66  1  0  0  0
 33 70  2  0  0  0
 34 36  1  0  0  0
 34 59  1  0  0  0
 34109  1  0  0  0
 35 44  2  0  0  0
 35 45  1  0  0  0
 35 68  1  0  0  0
 36 56  1  0  0  0
 36110  1  0  0  0
 37 39  1  0  0  0
 37 47  1  0  0  0
 37 66  1  0  0  0
 37111  1  0  0  0
 38 43  2  0  0  0
 38 46  1  0  0  0
 38 47  1  0  0  0
 39 64  1  0  0  0
 39 67  2  0  0  0
 40 52  1  0  0  0
 40 53  2  0  0  0
 40 58  1  0  0  0
 41112  1  0  0  0
 41113  1  0  0  0
 41114  1  0  0  0
 41 48  1  0  0  0
 42 43  1  0  0  0
 42 66  1  0  0  0
 42115  1  0  0  0
 42116  1  0  0  0
 43 44  1  0  0  0
 44117  1  0  0  0
 45 46  2  0  0  0
 45118  1  0  0  0
 46119  1  0  0  0
 47120  1  0  0  0
 47121  1  0  0  0
 48 56  1  0  0  0
 48 65  1  0  0  0
 48122  1  0  0  0
 49 50  1  0  0  0
 49 53  1  0  0  0
 49 64  1  0  0  0
 49123  1  0  0  0
 50 51  1  0  0  0
 50124  1  0  0  0
 50125  1  0  0  0
 51 52  1  0  0  0
 51126  1  0  0  0
 51127  1  0  0  0
 52128  1  0  0  0
 52129  1  0  0  0
 53 54  1  0  0  0
 54 55  2  0  0  0
 54130  1  0  0  0
 55 57  1  0  0  0
 55131  1  0  0  0
 56 69  2  0  0  0
 57 58  2  0  0  0
 57132  1  0  0  0
 58133  1  0  0  0
 59 60  1  0  0  0
 59 61  1  0  0  0
 59 62  1  0  0  0
 60134  1  0  0  0
 60135  1  0  0  0
 60136  1  0  0  0
 61137  1  0  0  0
 61138  1  0  0  0
 61139  1  0  0  0
 62140  1  0  0  0
 62141  1  0  0  0
 62142  1  0  0  0
 63 65  1  0  0  0
 63143  1  0  0  0
 63144  1  0  0  0
 63145  1  0  0  0
 64146  1  0  0  0
 65147  1  0  0  0
 68 82  1  0  0  0
 71 72  2  0  0  0
 71 76  1  0  0  0
 71148  1  0  0  0
 72 74  1  0  0  0
 72 83  1  0  0  0
 73 74  2  0  0  0
 73 75  1  0  0  0
 73 84  1  0  0  0
 74 86  1  0  0  0
 75 76  2  0  0  0
 75 85  1  0  0  0
 76 87  1  0  0  0
 77 78  2  0  0  0
 77 82  1  0  0  0
 77 88  1  0  0  0
 78149  1  0  0  0
 78150  1  0  0  0
 79 80  1  0  0  0
 79 81  1  0  0  0
 79151  1  0  0  0
 79152  1  0  0  0
 80 82  1  0  0  0
 80153  1  0  0  0
 80154  1  0  0  0
 81 88  1  0  0  0
 81155  1  0  0  0
 81156  1  0  0  0
 82157  1  0  0  0
 83158  1  0  0  0
 83159  1  0  0  0
 83160  1  0  0  0
 84161  1  0  0  0
 84162  1  0  0  0
 84163  1  0  0  0
 85164  1  0  0  0
 85165  1  0  0  0
 85166  1  0  0  0
 86167  1  0  0  0
 86168  1  0  0  0
 86 88  1  0  0  0
 87169  1  0  0  0
 88170  1  0  0  0
M  CHG  1  88   1
M  ISO  4   1 100  68 101  82 101  87 100
M  END
> <chiral flag>
0

> <version>
0

> <s_m_source_file>
/data/baiqing/PycharmProjects/Reinvent-master-3.2/result/LINK_invent/BTK/process_docking_weight1_custom_product_contain_oxygen_bond_distance_aromatic_linkinvent_7_9_3/rearranged_h_0032.sdf

> <i_m_source_file_index>
61

> <r_mmod_Potential_Energy-OPLS-2005>
58.9097633361816

> <r_mmod_Stretch_Energy-OPLS-2005>
107.330078125

> <r_mmod_Bend_Energy-OPLS-2005>
194.656234741211

> <r_mmod_Torsional_Energy-OPLS-2005>
272.725311279297

> <r_mmod_Improper_Torsional_Energy-OPLS-2005>
8.04776382446289

> <r_mmod_Van_der_Waal_Energy-OPLS-2005>
149.793884277344

> <r_mmod_Electrostatic_Energy-OPLS-2005>
-298.196166992188

> <r_mmod_Solvation_Energy-OPLS-2005>
-429.257904052734

> <b_mmod_Minimization_Converged-OPLS-2005>
0

> <r_mmod_RMS_Derivative-OPLS-2005>
5.38181495666504

$$$$
61
                    3D
 Structure written by MMmdl.
162170  0  0  1  0            999 V2000
  -30.6838  -14.5223   20.4765 C   0  0  0  0  0  0
  -30.4168  -12.3131   19.4161 C   0  0  0  0  0  0
  -29.4941  -12.4875   18.1921 C   0  0  0  0  0  0
  -28.0115  -12.3512   18.6042 C   0  0  0  0  0  0
  -27.6522  -13.2045   19.8493 C   0  0  2  0  0  0
  -28.7036  -13.0355   20.9684 C   0  0  0  0  0  0
  -25.2574  -13.8158   20.5652 C   0  0  0  0  0  0
  -24.1843  -13.0414   20.9161 C   0  0  0  0  0  0
  -24.6379  -11.6901   20.8684 C   0  0  0  0  0  0
  -23.9000  -10.4310   21.0373 C   0  0  0  0  0  0
  -24.3607   -9.4241   21.9191 C   0  0  0  0  0  0
  -23.6300   -8.2252   22.0728 C   0  0  0  0  0  0
  -22.4283   -8.0274   21.3557 C   0  0  0  0  0  0
  -21.9873   -9.0216   20.4639 C   0  0  0  0  0  0
  -22.7143  -10.2130   20.3033 C   0  0  0  0  0  0
  -21.6886   -6.0700   22.5318 C   0  0  0  0  0  0
  -21.4004   -6.5602   23.8233 C   0  0  0  0  0  0
  -21.3674   -5.6746   24.9215 C   0  0  0  0  0  0
  -21.6059   -4.3030   24.7274 C   0  0  0  0  0  0
  -21.8819   -3.8118   23.4397 C   0  0  0  0  0  0
  -21.9182   -4.6948   22.3439 C   0  0  0  0  0  0
  -22.7873  -13.5197   21.1891 C   0  0  0  0  0  0
  -22.1638   -4.2109   21.1050 F   0  0  0  0  0  0
  -21.5666   -3.4505   25.7810 F   0  0  0  0  0  0
  -30.0224  -13.3402   20.3923 N   0  0  0  0  0  0
  -26.3009  -12.9316   20.3237 N   0  0  0  0  0  0
  -25.9320  -11.6490   20.5676 N   0  0  0  0  0  0
  -22.0523  -12.8207   22.0457 N   0  0  0  0  0  0
  -25.4238  -15.1914   20.4052 N   0  0  0  0  0  0
  -31.8697  -14.6533   20.1546 O   0  0  0  0  0  0
  -21.6668   -6.8862   21.4239 O   0  0  0  0  0  0
  -22.3545  -14.5490   20.6717 O   0  0  0  0  0  0
  -24.6012  -31.8662   23.2147 C   0  0  0  0  0  0
  -25.8860  -32.4832   23.8451 C   0  0  1  0  0  0
  -27.2291  -27.3990   20.1146 C   0  0  0  0  0  0
  -25.5769  -33.8643   24.2335 N   0  0  0  0  0  0
  -23.3981  -30.4765   21.5637 C   0  0  2  0  0  0
  -24.8503  -28.9398   20.1374 C   0  0  0  0  0  0
  -22.7380  -29.4538   22.5159 C   0  0  0  0  0  0
  -18.0248  -28.1305   22.8509 C   0  0  0  0  0  0
  -24.1497  -36.7251   23.2649 C   0  0  0  0  0  0
  -25.9303  -30.8192   21.3905 C   0  0  0  0  0  0
  -26.0049  -29.4480   20.7409 C   0  0  0  0  0  0
  -27.1919  -28.6716   20.7455 C   0  0  0  0  0  0
  -26.0580  -26.9360   19.4729 C   0  0  0  0  0  0
  -24.8707  -27.6881   19.5066 C   0  0  0  0  0  0
  -23.6057  -29.7933   20.1851 C   0  0  0  0  0  0
  -25.4130  -36.3119   24.0363 C   0  0  1  0  0  0
  -20.5805  -28.3547   23.1401 C   0  0  2  0  0  0
  -20.6715  -26.9290   22.5465 C   0  0  0  0  0  0
  -19.5699  -26.6318   21.5233 C   0  0  0  0  0  0
  -18.1869  -26.7856   22.1636 C   0  0  0  0  0  0
  -19.1482  -28.8765   23.2933 C   0  0  0  0  0  0
  -18.9408  -30.1389   23.8899 C   0  0  0  0  0  0
  -17.6398  -30.6554   24.0474 C   0  0  0  0  0  0
  -25.9018  -34.9486   23.5143 C   0  0  0  0  0  0
  -16.5296  -29.9011   23.6320 C   0  0  0  0  0  0
  -16.7222  -28.6412   23.0394 C   0  0  0  0  0  0
  -26.4332  -31.6659   25.0786 C   0  0  0  0  0  0
  -25.3625  -31.3693   26.1573 C   0  0  0  0  0  0
  -27.0102  -30.3100   24.6132 C   0  0  0  0  0  0
  -27.5943  -32.4416   25.7456 C   0  0  0  0  0  0
  -27.5593  -37.1798   24.8471 C   0  0  0  0  0  0
  -21.4129  -29.2901   22.3890 N   0  0  0  0  0  0
  -26.4303  -37.3807   23.9420 N   0  0  0  0  0  0
  -24.6604  -31.0735   22.1092 N   0  0  0  0  0  0
  -23.4166  -28.8100   23.3217 O   0  0  0  0  0  0
  -28.4083  -26.6672   20.1723 O   0  0  0  0  0  0
  -26.5625  -34.8919   22.4753 O   0  0  0  0  0  0
  -23.5219  -32.1422   23.7516 O   0  0  0  0  0  0
  -29.6164  -19.3849   20.3651 C   0  0  0  0  0  0
  -29.6396  -19.0549   17.6123 C   0  0  0  0  0  0
  -29.3179  -20.5101   19.5429 C   0  0  0  0  0  0
  -29.9292  -18.0954   19.8511 C   0  0  0  0  0  0
  -29.3721  -20.3353   18.1290 C   0  0  0  0  0  0
  -29.8951  -17.9374   18.4384 C   0  0  0  0  0  0
  -28.9005  -21.7791   20.2089 C   0  0  0  0  0  0
  -29.1106  -21.4477   17.1195 C   0  0  0  0  0  0
  -30.1532  -16.6173   17.7397 C   0  0  0  0  0  0
  -30.3743  -16.9990   20.8565 C   0  0  0  0  0  0
  -29.1111  -24.3095   20.5041 C   0  0  0  0  0  0
  -28.5720  -25.3809   19.5318 C   0  0  0  0  0  0
  -28.0291  -21.7122   21.2403 N   0  0  0  0  0  0
  -29.9118  -15.6082   20.7184 N   0  0  0  0  0  0
  -29.3613  -22.9985   19.8295 N   0  3  0  0  0  0
  -31.4681  -12.3950   19.1289 H   0  0  0  0  0  0
  -30.3045  -11.3161   19.8491 H   0  0  0  0  0  0
  -29.7403  -11.7407   17.4332 H   0  0  0  0  0  0
  -29.6617  -13.4560   17.7296 H   0  0  0  0  0  0
  -27.8129  -11.2967   18.8002 H   0  0  0  0  0  0
  -27.3674  -12.6222   17.7681 H   0  0  0  0  0  0
  -27.6596  -14.2424   19.5178 H   0  0  0  0  0  0
  -28.7077  -12.0116   21.3403 H   0  0  0  0  0  0
  -28.4867  -13.6644   21.8346 H   0  0  0  0  0  0
  -25.2742   -9.5746   22.4755 H   0  0  0  0  0  0
  -24.0056   -7.4621   22.7396 H   0  0  0  0  0  0
  -21.0822   -8.8635   19.8925 H   0  0  0  0  0  0
  -22.3539  -10.9645   19.6134 H   0  0  0  0  0  0
  -21.1952   -7.6097   23.9714 H   0  0  0  0  0  0
  -21.1505   -6.0520   25.9109 H   0  0  0  0  0  0
  -22.0587   -2.7573   23.2939 H   0  0  0  0  0  0
  -22.4077  -11.9819   22.4825 H   0  0  0  0  0  0
  -21.1129  -13.1236   22.2678 H   0  0  0  0  0  0
  -24.6502  -15.8370   20.5245 H   0  0  0  0  0  0
  -26.2691  -15.6472   20.0867 H   0  0  0  0  0  0
  -26.6905  -32.5574   23.1216 H   0  0  0  0  0  0
  -24.9872  -33.9871   25.0438 H   0  0  0  0  0  0
  -22.6810  -31.2886   21.4157 H   0  0  0  0  0  0
  -23.3817  -35.9510   23.3323 H   0  0  0  0  0  0
  -24.3547  -36.8849   22.2044 H   0  0  0  0  0  0
  -23.7189  -37.6441   23.6648 H   0  0  0  0  0  0
  -26.0744  -31.5911   20.6355 H   0  0  0  0  0  0
  -26.7969  -30.8547   22.0323 H   0  0  0  0  0  0
  -28.0795  -29.0360   21.2504 H   0  0  0  0  0  0
  -26.0130  -26.0119   18.9270 H   0  0  0  0  0  0
  -23.9765  -27.2993   19.0424 H   0  0  0  0  0  0
  -23.7018  -30.5528   19.4094 H   0  0  0  0  0  0
  -22.7405  -29.1845   19.9038 H   0  0  0  0  0  0
  -25.1346  -36.1981   25.0864 H   0  0  0  0  0  0
  -20.9841  -28.3033   24.1521 H   0  0  0  0  0  0
  -20.5593  -26.2099   23.3615 H   0  0  0  0  0  0
  -21.6583  -26.7329   22.1228 H   0  0  0  0  0  0
  -19.6829  -25.6226   21.1231 H   0  0  0  0  0  0
  -19.6640  -27.3152   20.6779 H   0  0  0  0  0  0
  -17.4140  -26.6614   21.4029 H   0  0  0  0  0  0
  -18.0237  -25.9978   22.9018 H   0  0  0  0  0  0
  -19.7895  -30.7205   24.2250 H   0  0  0  0  0  0
  -17.4961  -31.6252   24.5033 H   0  0  0  0  0  0
  -15.5292  -30.2885   23.7680 H   0  0  0  0  0  0
  -15.8618  -28.0691   22.7171 H   0  0  0  0  0  0
  -24.5753  -30.7089   25.7914 H   0  0  0  0  0  0
  -24.8820  -32.2784   26.5212 H   0  0  0  0  0  0
  -25.8012  -30.8728   27.0241 H   0  0  0  0  0  0
  -26.2572  -29.7001   24.1094 H   0  0  0  0  0  0
  -27.3762  -29.7246   25.4587 H   0  0  0  0  0  0
  -27.8533  -30.4459   23.9334 H   0  0  0  0  0  0
  -27.2567  -33.3739   26.2025 H   0  0  0  0  0  0
  -28.3644  -32.6975   25.0152 H   0  0  0  0  0  0
  -28.0693  -31.8542   26.5336 H   0  0  0  0  0  0
  -28.2652  -38.0072   24.7567 H   0  0  0  0  0  0
  -28.1090  -36.2624   24.6295 H   0  0  0  0  0  0
  -27.2291  -37.1421   25.8870 H   0  0  0  0  0  0
  -20.9325  -29.8542   21.7028 H   0  0  0  0  0  0
  -26.0215  -38.2886   24.1473 H   0  0  0  0  0  0
  -29.6032  -19.5260   21.4364 H   0  0  0  0  0  0
  -29.6261  -18.8958   16.5413 H   0  0  0  0  0  0
  -29.0359  -21.0224   16.1150 H   0  0  0  0  0  0
  -29.9220  -22.1788   17.0926 H   0  0  0  0  0  0
  -28.1689  -21.9640   17.3132 H   0  0  0  0  0  0
  -29.8585  -16.6740   16.6903 H   0  0  0  0  0  0
  -29.5736  -15.8097   18.1747 H   0  0  0  0  0  0
  -31.2114  -16.3702   17.7830 H   0  0  0  0  0  0
  -30.0344  -17.2923   21.8489 H   0  0  0  0  0  0
  -31.4642  -17.0444   20.9132 H   0  0  0  0  0  0
  -28.4273  -24.2110   21.3493 H   0  0  0  0  0  0
  -30.0355  -24.6640   20.9606 H   0  0  0  0  0  0
  -27.7038  -24.9354   19.0466 H   0  0  0  0  0  0
  -29.3160  -25.5371   18.7520 H   0  0  0  0  0  0
  -27.5877  -20.8453   21.5271 H   0  0  0  0  0  0
  -27.6751  -22.5420   21.6812 H   0  0  0  0  0  0
  -28.9422  -15.4325   20.9260 H   0  0  0  0  0  0
  -29.9435  -23.0600   18.9981 H   0  0  0  0  0  0
  1 25  1  0  0  0
  1 30  2  0  0  0
  1 84  1  0  0  0
  2  3  1  0  0  0
  2 25  1  0  0  0
  2 86  1  0  0  0
  2 87  1  0  0  0
  3  4  1  0  0  0
  3 88  1  0  0  0
  3 89  1  0  0  0
  4  5  1  0  0  0
  4 90  1  0  0  0
  4 91  1  0  0  0
  5  6  1  0  0  0
  5 26  1  0  0  0
  5 92  1  0  0  0
  6 25  1  0  0  0
  6 93  1  0  0  0
  6 94  1  0  0  0
  7  8  2  0  0  0
  7 26  1  0  0  0
  7 29  1  0  0  0
  8  9  1  0  0  0
  8 22  1  0  0  0
  9 10  1  0  0  0
  9 27  2  0  0  0
 10 11  2  0  0  0
 10 15  1  0  0  0
 11 12  1  0  0  0
 11 95  1  0  0  0
 12 13  2  0  0  0
 12 96  1  0  0  0
 13 14  1  0  0  0
 13 31  1  0  0  0
 14 15  2  0  0  0
 14 97  1  0  0  0
 15 98  1  0  0  0
 16 17  2  0  0  0
 16 21  1  0  0  0
 16 31  1  0  0  0
 17 18  1  0  0  0
 17 99  1  0  0  0
 18 19  2  0  0  0
 18100  1  0  0  0
 19 20  1  0  0  0
 19 24  1  0  0  0
 20 21  2  0  0  0
 20101  1  0  0  0
 21 23  1  0  0  0
 22 28  1  0  0  0
 22 32  2  0  0  0
 26 27  1  0  0  0
 28102  1  0  0  0
 28103  1  0  0  0
 29104  1  0  0  0
 29105  1  0  0  0
 33 34  1  0  0  0
 33 66  1  0  0  0
 33 70  2  0  0  0
 34 36  1  0  0  0
 34 59  1  0  0  0
 34106  1  0  0  0
 35 44  2  0  0  0
 35 45  1  0  0  0
 35 68  1  0  0  0
 36 56  1  0  0  0
 36107  1  0  0  0
 37 39  1  0  0  0
 37 47  1  0  0  0
 37 66  1  0  0  0
 37108  1  0  0  0
 38 43  2  0  0  0
 38 46  1  0  0  0
 38 47  1  0  0  0
 39 64  1  0  0  0
 39 67  2  0  0  0
 40 52  1  0  0  0
 40 53  2  0  0  0
 40 58  1  0  0  0
 41109  1  0  0  0
 41110  1  0  0  0
 41111  1  0  0  0
 41 48  1  0  0  0
 42 43  1  0  0  0
 42 66  1  0  0  0
 42112  1  0  0  0
 42113  1  0  0  0
 43 44  1  0  0  0
 44114  1  0  0  0
 45 46  2  0  0  0
 45115  1  0  0  0
 46116  1  0  0  0
 47117  1  0  0  0
 47118  1  0  0  0
 48 56  1  0  0  0
 48 65  1  0  0  0
 48119  1  0  0  0
 49 50  1  0  0  0
 49 53  1  0  0  0
 49 64  1  0  0  0
 49120  1  0  0  0
 50 51  1  0  0  0
 50121  1  0  0  0
 50122  1  0  0  0
 51 52  1  0  0  0
 51123  1  0  0  0
 51124  1  0  0  0
 52125  1  0  0  0
 52126  1  0  0  0
 53 54  1  0  0  0
 54 55  2  0  0  0
 54127  1  0  0  0
 55 57  1  0  0  0
 55128  1  0  0  0
 56 69  2  0  0  0
 57 58  2  0  0  0
 57129  1  0  0  0
 58130  1  0  0  0
 59 60  1  0  0  0
 59 61  1  0  0  0
 59 62  1  0  0  0
 60131  1  0  0  0
 60132  1  0  0  0
 60133  1  0  0  0
 61134  1  0  0  0
 61135  1  0  0  0
 61136  1  0  0  0
 62137  1  0  0  0
 62138  1  0  0  0
 62139  1  0  0  0
 63 65  1  0  0  0
 63140  1  0  0  0
 63141  1  0  0  0
 63142  1  0  0  0
 64143  1  0  0  0
 65144  1  0  0  0
 68 82  1  0  0  0
 71 73  2  0  0  0
 71 74  1  0  0  0
 71145  1  0  0  0
 72 75  2  0  0  0
 72 76  1  0  0  0
 72146  1  0  0  0
 73 75  1  0  0  0
 73 77  1  0  0  0
 74 76  2  0  0  0
 74 80  1  0  0  0
 75 78  1  0  0  0
 76 79  1  0  0  0
 77 83  1  0  0  0
 77 85  2  0  0  0
 78147  1  0  0  0
 78148  1  0  0  0
 78149  1  0  0  0
 79150  1  0  0  0
 79151  1  0  0  0
 79152  1  0  0  0
 80 84  1  0  0  0
 80153  1  0  0  0
 80154  1  0  0  0
 81 82  1  0  0  0
 81 85  1  0  0  0
 81155  1  0  0  0
 81156  1  0  0  0
 82157  1  0  0  0
 82158  1  0  0  0
 83159  1  0  0  0
 83160  1  0  0  0
 84161  1  0  0  0
 85162  1  0  0  0
M  CHG  1  85   1
M  ISO  4   1 100  68 101  82 101  84 100
M  END
> <chiral flag>
0

> <version>
0

> <s_m_source_file>
/data/baiqing/PycharmProjects/Reinvent-master-3.2/result/LINK_invent/BTK/process_docking_weight1_custom_product_contain_oxygen_bond_distance_aromatic_linkinvent_7_9_3/rearranged_h_0032.sdf

> <i_m_source_file_index>
62

> <r_mmod_Potential_Energy-OPLS-2005>
-235.390548706055

> <r_mmod_Stretch_Energy-OPLS-2005>
46.636474609375

> <r_mmod_Bend_Energy-OPLS-2005>
131.761962890625

> <r_mmod_Torsional_Energy-OPLS-2005>
200.394561767578

> <r_mmod_Improper_Torsional_Energy-OPLS-2005>
5.48382902145386

> <r_mmod_Van_der_Waal_Energy-OPLS-2005>
158.498306274414

> <r_mmod_Electrostatic_Energy-OPLS-2005>
-397.339538574219

> <r_mmod_Solvation_Energy-OPLS-2005>
-406.040740966797

> <b_mmod_Minimization_Converged-OPLS-2005>
0

> <r_mmod_RMS_Derivative-OPLS-2005>
12.826605796814

$$$$
62
                    3D
 Structure written by MMmdl.
164173  0  0  1  0            999 V2000
  -30.6188  -14.7426   20.4161 C   0  0  0  0  0  0
  -30.4257  -12.4496   19.4658 C   0  0  0  0  0  0
  -29.5058  -12.5021   18.2273 C   0  0  0  0  0  0
  -28.0315  -12.3337   18.6414 C   0  0  0  0  0  0
  -27.6383  -13.2350   19.8432 C   0  0  2  0  0  0
  -28.6851  -13.1825   20.9763 C   0  0  0  0  0  0
  -25.2507  -13.8203   20.5693 C   0  0  0  0  0  0
  -24.1805  -13.0439   20.9212 C   0  0  0  0  0  0
  -24.6405  -11.6922   20.8746 C   0  0  0  0  0  0
  -23.9082  -10.4292   21.0407 C   0  0  0  0  0  0
  -24.3633   -9.4207   21.9182 C   0  0  0  0  0  0
  -23.6305   -8.2243   22.0760 C   0  0  0  0  0  0
  -22.4288   -8.0282   21.3554 C   0  0  0  0  0  0
  -21.9921   -9.0253   20.4650 C   0  0  0  0  0  0
  -22.7251  -10.2130   20.3059 C   0  0  0  0  0  0
  -21.6855   -6.0736   22.5283 C   0  0  0  0  0  0
  -21.4012   -6.5638   23.8213 C   0  0  0  0  0  0
  -21.3666   -5.6797   24.9177 C   0  0  0  0  0  0
  -21.6048   -4.3061   24.7223 C   0  0  0  0  0  0
  -21.8821   -3.8147   23.4346 C   0  0  0  0  0  0
  -21.9196   -4.6964   22.3405 C   0  0  0  0  0  0
  -22.7826  -13.5217   21.1866 C   0  0  0  0  0  0
  -22.1663   -4.2150   21.0985 F   0  0  0  0  0  0
  -21.5629   -3.4546   25.7734 F   0  0  0  0  0  0
  -29.9832  -13.5229   20.3845 N   0  0  0  0  0  0
  -26.2928  -12.9415   20.3258 N   0  0  0  0  0  0
  -25.9339  -11.6556   20.5748 N   0  0  0  0  0  0
  -22.0486  -12.8192   22.0423 N   0  0  0  0  0  0
  -25.4161  -15.1927   20.4114 N   0  0  0  0  0  0
  -31.8368  -14.7837   20.2371 O   0  0  0  0  0  0
  -21.6651   -6.8883   21.4247 O   0  0  0  0  0  0
  -22.3499  -14.5515   20.6709 O   0  0  0  0  0  0
  -24.6310  -31.8562   23.1972 C   0  0  0  0  0  0
  -25.9138  -32.4756   23.8318 C   0  0  1  0  0  0
  -27.2173  -27.2683   20.1373 C   0  0  0  0  0  0
  -25.5949  -33.8559   24.2254 N   0  0  0  0  0  0
  -23.4267  -30.4777   21.5423 C   0  0  2  0  0  0
  -24.8721  -28.9210   20.1133 C   0  0  0  0  0  0
  -22.7501  -29.4610   22.4932 C   0  0  0  0  0  0
  -18.0295  -28.1386   22.8485 C   0  0  0  0  0  0
  -24.1492  -36.7285   23.2639 C   0  0  0  0  0  0
  -25.9695  -30.7715   21.3739 C   0  0  0  0  0  0
  -26.0427  -29.3923   20.7220 C   0  0  0  0  0  0
  -27.2209  -28.5799   20.7186 C   0  0  0  0  0  0
  -26.0284  -26.8632   19.4943 C   0  0  0  0  0  0
  -24.8698  -27.6645   19.4873 C   0  0  0  0  0  0
  -23.6427  -29.8077   20.1601 C   0  0  0  0  0  0
  -25.4122  -36.3075   24.0323 C   0  0  1  0  0  0
  -20.5895  -28.3703   23.1283 C   0  0  2  0  0  0
  -20.6789  -26.9427   22.5414 C   0  0  0  0  0  0
  -19.5763  -26.6387   21.5222 C   0  0  0  0  0  0
  -18.1939  -26.7928   22.1625 C   0  0  0  0  0  0
  -19.1544  -28.8863   23.2874 C   0  0  0  0  0  0
  -18.9465  -30.1467   23.8889 C   0  0  0  0  0  0
  -17.6463  -30.6586   24.0568 C   0  0  0  0  0  0
  -25.9063  -34.9443   23.5090 C   0  0  0  0  0  0
  -16.5357  -29.9082   23.6330 C   0  0  0  0  0  0
  -16.7281  -28.6501   23.0349 C   0  0  0  0  0  0
  -26.4514  -31.6566   25.0697 C   0  0  0  0  0  0
  -25.3736  -31.3698   26.1414 C   0  0  0  0  0  0
  -27.0368  -30.2991   24.6152 C   0  0  0  0  0  0
  -27.6061  -32.4311   25.7485 C   0  0  0  0  0  0
  -27.5580  -37.1803   24.8466 C   0  0  0  0  0  0
  -21.4206  -29.3045   22.3668 N   0  0  0  0  0  0
  -26.4296  -37.3774   23.9404 N   0  0  0  0  0  0
  -24.6950  -31.0530   22.0948 N   0  0  0  0  0  0
  -23.4196  -28.8167   23.3046 O   0  0  0  0  0  0
  -28.3238  -26.3939   20.1526 O   0  0  0  0  0  0
  -26.5632  -34.8923   22.4657 O   0  0  0  0  0  0
  -23.5466  -32.1392   23.7274 O   0  0  0  0  0  0
  -31.1506  -18.8328   18.3056 C   0  0  0  0  0  0
  -29.4245  -18.4799   20.4355 C   0  0  0  0  0  0
  -30.5251  -19.9678   18.8511 C   0  0  0  0  0  0
  -30.9037  -17.5219   18.7597 C   0  0  0  0  0  0
  -29.5978  -19.8364   19.9127 C   0  0  0  0  0  0
  -30.0903  -17.2866   19.9109 C   0  0  0  0  0  0
  -30.2360  -22.5542   21.6682 C   0  0  0  0  0  0
  -31.0201  -23.8512   21.5884 C   0  0  0  0  0  0
  -30.5988  -24.4163   20.2307 C   0  0  0  0  0  0
  -29.1930  -23.8355   19.9929 C   0  0  2  0  0  0
  -30.8328  -21.3042   18.2011 C   0  0  0  0  0  0
  -31.4823  -16.4236   17.8785 C   0  0  0  0  0  0
  -28.7165  -21.1113   20.3369 C   0  0  0  0  0  0
  -28.1350  -24.9447   20.5164 C   0  0  0  0  0  0
  -29.3121  -22.4742   20.6979 N   0  0  0  0  0  0
  -29.8436  -15.9023   20.4333 N   0  0  0  0  0  0
  -30.4954  -21.6814   22.5001 O   0  0  0  0  0  0
  -31.4673  -12.5644   19.1611 H   0  0  0  0  0  0
  -30.3592  -11.4769   19.9554 H   0  0  0  0  0  0
  -29.7851  -11.7276   17.5116 H   0  0  0  0  0  0
  -29.6348  -13.4537   17.7106 H   0  0  0  0  0  0
  -27.8815  -11.2846   18.8982 H   0  0  0  0  0  0
  -27.3774  -12.5307   17.7915 H   0  0  0  0  0  0
  -27.6278  -14.2548   19.4588 H   0  0  0  0  0  0
  -28.7217  -12.1927   21.4330 H   0  0  0  0  0  0
  -28.4278  -13.8807   21.7747 H   0  0  0  0  0  0
  -25.2789   -9.5676   22.4749 H   0  0  0  0  0  0
  -24.0019   -7.4634   22.7472 H   0  0  0  0  0  0
  -21.0858   -8.8773   19.8950 H   0  0  0  0  0  0
  -22.3720  -10.9671   19.6163 H   0  0  0  0  0  0
  -21.2010   -7.6145   23.9711 H   0  0  0  0  0  0
  -21.1484   -6.0530   25.9079 H   0  0  0  0  0  0
  -22.0597   -2.7608   23.2849 H   0  0  0  0  0  0
  -22.4132  -11.9870   22.4817 H   0  0  0  0  0  0
  -21.1099  -13.1190   22.2628 H   0  0  0  0  0  0
  -24.6402  -15.8379   20.5167 H   0  0  0  0  0  0
  -26.2538  -15.6396   20.0614 H   0  0  0  0  0  0
  -26.7197  -32.5413   23.1054 H   0  0  0  0  0  0
  -25.0114  -33.9691   25.0414 H   0  0  0  0  0  0
  -22.7231  -31.2993   21.3959 H   0  0  0  0  0  0
  -23.3758  -35.9612   23.3297 H   0  0  0  0  0  0
  -24.3584  -36.8914   22.2055 H   0  0  0  0  0  0
  -23.7233  -37.6480   23.6666 H   0  0  0  0  0  0
  -26.1011  -31.5274   20.5988 H   0  0  0  0  0  0
  -26.8508  -30.8269   22.0015 H   0  0  0  0  0  0
  -28.1207  -28.9391   21.1983 H   0  0  0  0  0  0
  -25.9801  -25.9107   18.9876 H   0  0  0  0  0  0
  -23.9765  -27.3021   18.9969 H   0  0  0  0  0  0
  -23.7661  -30.5811   19.4021 H   0  0  0  0  0  0
  -22.7607  -29.2400   19.8580 H   0  0  0  0  0  0
  -25.1298  -36.1926   25.0814 H   0  0  0  0  0  0
  -20.9987  -28.3285   24.1406 H   0  0  0  0  0  0
  -20.5723  -26.2316   23.3616 H   0  0  0  0  0  0
  -21.6654  -26.7470   22.1196 H   0  0  0  0  0  0
  -19.6939  -25.6300   21.1252 H   0  0  0  0  0  0
  -19.6700  -27.3199   20.6753 H   0  0  0  0  0  0
  -17.4221  -26.6692   21.4012 H   0  0  0  0  0  0
  -18.0329  -26.0063   22.9012 H   0  0  0  0  0  0
  -19.7941  -30.7288   24.2247 H   0  0  0  0  0  0
  -17.5015  -31.6264   24.5178 H   0  0  0  0  0  0
  -15.5355  -30.2984   23.7650 H   0  0  0  0  0  0
  -15.8684  -28.0821   22.7058 H   0  0  0  0  0  0
  -24.5920  -30.7045   25.7724 H   0  0  0  0  0  0
  -24.8925  -32.2863   26.4837 H   0  0  0  0  0  0
  -25.8062  -30.8868   27.0184 H   0  0  0  0  0  0
  -26.2941  -29.6727   24.1200 H   0  0  0  0  0  0
  -27.4098  -29.7258   25.4648 H   0  0  0  0  0  0
  -27.8794  -30.4280   23.9355 H   0  0  0  0  0  0
  -27.2655  -33.3610   26.2048 H   0  0  0  0  0  0
  -28.3885  -32.6869   25.0326 H   0  0  0  0  0  0
  -28.0712  -31.8442   26.5415 H   0  0  0  0  0  0
  -28.2595  -38.0103   24.7522 H   0  0  0  0  0  0
  -28.1080  -36.2635   24.6288 H   0  0  0  0  0  0
  -27.2301  -37.1444   25.8871 H   0  0  0  0  0  0
  -20.9405  -29.8742   21.6843 H   0  0  0  0  0  0
  -26.0176  -38.2848   24.1406 H   0  0  0  0  0  0
  -31.8032  -18.9680   17.4534 H   0  0  0  0  0  0
  -28.7265  -18.3457   21.2503 H   0  0  0  0  0  0
  -32.0950  -23.6807   21.6537 H   0  0  0  0  0  0
  -30.7161  -24.5080   22.4049 H   0  0  0  0  0  0
  -31.2870  -24.0727   19.4587 H   0  0  0  0  0  0
  -30.6369  -25.5057   20.2105 H   0  0  0  0  0  0
  -29.0323  -23.6911   18.9253 H   0  0  0  0  0  0
  -31.4052  -21.1819   17.2813 H   0  0  0  0  0  0
  -31.4339  -21.9134   18.8741 H   0  0  0  0  0  0
  -29.9206  -21.8370   17.9392 H   0  0  0  0  0  0
  -31.6234  -16.7782   16.8570 H   0  0  0  0  0  0
  -30.8127  -15.5683   17.8083 H   0  0  0  0  0  0
  -32.4597  -16.1019   18.2370 H   0  0  0  0  0  0
  -28.0893  -20.8075   21.1756 H   0  0  0  0  0  0
  -28.0179  -21.2881   19.5190 H   0  0  0  0  0  0
  -28.1346  -24.9187   21.6066 H   0  0  0  0  0  0
  -27.1428  -24.5958   20.2363 H   0  0  0  0  0  0
  -28.9038  -15.7439   20.7611 H   0  0  0  0  0  0
  1 25  1  0  0  0
  1 30  2  0  0  0
  1 86  1  0  0  0
  2  3  1  0  0  0
  2 25  1  0  0  0
  2 88  1  0  0  0
  2 89  1  0  0  0
  3  4  1  0  0  0
  3 90  1  0  0  0
  3 91  1  0  0  0
  4  5  1  0  0  0
  4 92  1  0  0  0
  4 93  1  0  0  0
  5  6  1  0  0  0
  5 26  1  0  0  0
  5 94  1  0  0  0
  6 25  1  0  0  0
  6 95  1  0  0  0
  6 96  1  0  0  0
  7  8  2  0  0  0
  7 26  1  0  0  0
  7 29  1  0  0  0
  8  9  1  0  0  0
  8 22  1  0  0  0
  9 10  1  0  0  0
  9 27  2  0  0  0
 10 11  2  0  0  0
 10 15  1  0  0  0
 11 12  1  0  0  0
 11 97  1  0  0  0
 12 13  2  0  0  0
 12 98  1  0  0  0
 13 14  1  0  0  0
 13 31  1  0  0  0
 14 15  2  0  0  0
 14 99  1  0  0  0
 15100  1  0  0  0
 16 17  2  0  0  0
 16 21  1  0  0  0
 16 31  1  0  0  0
 17 18  1  0  0  0
 17101  1  0  0  0
 18 19  2  0  0  0
 18102  1  0  0  0
 19 20  1  0  0  0
 19 24  1  0  0  0
 20 21  2  0  0  0
 20103  1  0  0  0
 21 23  1  0  0  0
 22 28  1  0  0  0
 22 32  2  0  0  0
 26 27  1  0  0  0
 28104  1  0  0  0
 28105  1  0  0  0
 29106  1  0  0  0
 29107  1  0  0  0
 33 34  1  0  0  0
 33 66  1  0  0  0
 33 70  2  0  0  0
 34 36  1  0  0  0
 34 59  1  0  0  0
 34108  1  0  0  0
 35 44  2  0  0  0
 35 45  1  0  0  0
 35 68  1  0  0  0
 36 56  1  0  0  0
 36109  1  0  0  0
 37 39  1  0  0  0
 37 47  1  0  0  0
 37 66  1  0  0  0
 37110  1  0  0  0
 38 43  2  0  0  0
 38 46  1  0  0  0
 38 47  1  0  0  0
 39 64  1  0  0  0
 39 67  2  0  0  0
 40 52  1  0  0  0
 40 53  2  0  0  0
 40 58  1  0  0  0
 41111  1  0  0  0
 41112  1  0  0  0
 41113  1  0  0  0
 41 48  1  0  0  0
 42 43  1  0  0  0
 42 66  1  0  0  0
 42114  1  0  0  0
 42115  1  0  0  0
 43 44  1  0  0  0
 44116  1  0  0  0
 45 46  2  0  0  0
 45117  1  0  0  0
 46118  1  0  0  0
 47119  1  0  0  0
 47120  1  0  0  0
 48 56  1  0  0  0
 48 65  1  0  0  0
 48121  1  0  0  0
 49 50  1  0  0  0
 49 53  1  0  0  0
 49 64  1  0  0  0
 49122  1  0  0  0
 50 51  1  0  0  0
 50123  1  0  0  0
 50124  1  0  0  0
 51 52  1  0  0  0
 51125  1  0  0  0
 51126  1  0  0  0
 52127  1  0  0  0
 52128  1  0  0  0
 53 54  1  0  0  0
 54 55  2  0  0  0
 54129  1  0  0  0
 55 57  1  0  0  0
 55130  1  0  0  0
 56 69  2  0  0  0
 57 58  2  0  0  0
 57131  1  0  0  0
 58132  1  0  0  0
 59 60  1  0  0  0
 59 61  1  0  0  0
 59 62  1  0  0  0
 60133  1  0  0  0
 60134  1  0  0  0
 60135  1  0  0  0
 61136  1  0  0  0
 61137  1  0  0  0
 61138  1  0  0  0
 62139  1  0  0  0
 62140  1  0  0  0
 62141  1  0  0  0
 63 65  1  0  0  0
 63142  1  0  0  0
 63143  1  0  0  0
 63144  1  0  0  0
 64145  1  0  0  0
 65146  1  0  0  0
 68 84  1  0  0  0
 71 73  2  0  0  0
 71 74  1  0  0  0
 71147  1  0  0  0
 72 75  2  0  0  0
 72 76  1  0  0  0
 72148  1  0  0  0
 73 75  1  0  0  0
 73 81  1  0  0  0
 74 76  2  0  0  0
 74 82  1  0  0  0
 75 83  1  0  0  0
 76 86  1  0  0  0
 77 78  1  0  0  0
 77 85  1  0  0  0
 77 87  2  0  0  0
 78 79  1  0  0  0
 78149  1  0  0  0
 78150  1  0  0  0
 79 80  1  0  0  0
 79151  1  0  0  0
 79152  1  0  0  0
 80 84  1  0  0  0
 80 85  1  0  0  0
 80153  1  0  0  0
 81154  1  0  0  0
 81155  1  0  0  0
 81156  1  0  0  0
 82157  1  0  0  0
 82158  1  0  0  0
 82159  1  0  0  0
 83 85  1  0  0  0
 83160  1  0  0  0
 83161  1  0  0  0
 84162  1  0  0  0
 84163  1  0  0  0
 86164  1  0  0  0
M  ISO  4   1 100  68 101  84 101  86 100
M  END
> <chiral flag>
0

> <version>
0

> <s_m_source_file>
/data/baiqing/PycharmProjects/Reinvent-master-3.2/result/LINK_invent/BTK/process_docking_weight1_custom_product_contain_oxygen_bond_distance_aromatic_linkinvent_7_9_3/rearranged_h_0032.sdf

> <i_m_source_file_index>
63

> <r_mmod_Potential_Energy-OPLS-2005>
220.145416259766

> <r_mmod_Stretch_Energy-OPLS-2005>
135.362106323242

> <r_mmod_Bend_Energy-OPLS-2005>
206.45280456543

> <r_mmod_Torsional_Energy-OPLS-2005>
289.918884277344

> <r_mmod_Improper_Torsional_Energy-OPLS-2005>
6.67983055114746

> <r_mmod_Van_der_Waal_Energy-OPLS-2005>
140.95524597168

> <r_mmod_Electrostatic_Energy-OPLS-2005>
-412.209716796875

> <r_mmod_Solvation_Energy-OPLS-2005>
-231.983734130859

> <b_mmod_Minimization_Converged-OPLS-2005>
0

> <r_mmod_RMS_Derivative-OPLS-2005>
1.32168054580688

$$$$
63
                    3D
 Structure written by MMmdl.
173182  0  0  1  0            999 V2000
  -30.7858  -14.3804   20.7109 C   0  0  0  0  0  0
  -30.4176  -12.3115   19.4073 C   0  0  0  0  0  0
  -29.4853  -12.5254   18.2018 C   0  0  0  0  0  0
  -28.0129  -12.3677   18.6200 C   0  0  0  0  0  0
  -27.6648  -13.2061   19.8765 C   0  0  2  0  0  0
  -28.7009  -12.9813   21.0000 C   0  0  0  0  0  0
  -25.2596  -13.8166   20.5678 C   0  0  0  0  0  0
  -24.1842  -13.0451   20.9170 C   0  0  0  0  0  0
  -24.6387  -11.6912   20.8733 C   0  0  0  0  0  0
  -23.9061  -10.4305   21.0407 C   0  0  0  0  0  0
  -24.3614   -9.4217   21.9182 C   0  0  0  0  0  0
  -23.6285   -8.2251   22.0751 C   0  0  0  0  0  0
  -22.4268   -8.0284   21.3542 C   0  0  0  0  0  0
  -21.9914   -9.0259   20.4637 C   0  0  0  0  0  0
  -22.7241  -10.2139   20.3048 C   0  0  0  0  0  0
  -21.6861   -6.0741   22.5272 C   0  0  0  0  0  0
  -21.4018   -6.5645   23.8212 C   0  0  0  0  0  0
  -21.3652   -5.6794   24.9175 C   0  0  0  0  0  0
  -21.6047   -4.3055   24.7227 C   0  0  0  0  0  0
  -21.8821   -3.8151   23.4347 C   0  0  0  0  0  0
  -21.9191   -4.6970   22.3398 C   0  0  0  0  0  0
  -22.7866  -13.5243   21.1830 C   0  0  0  0  0  0
  -22.1661   -4.2156   21.0975 F   0  0  0  0  0  0
  -21.5628   -3.4531   25.7742 F   0  0  0  0  0  0
  -30.0450  -13.2661   20.4655 N   0  0  0  0  0  0
  -26.3038  -12.9335   20.3365 N   0  0  0  0  0  0
  -25.9309  -11.6499   20.5759 N   0  0  0  0  0  0
  -22.0502  -12.8233   22.0386 N   0  0  0  0  0  0
  -25.4341  -15.1884   20.4089 N   0  0  0  0  0  0
  -31.7910  -14.6694   20.0556 O   0  0  0  0  0  0
  -21.6631   -6.8876   21.4232 O   0  0  0  0  0  0
  -22.3557  -14.5552   20.6677 O   0  0  0  0  0  0
  -24.6154  -31.8673   23.2110 C   0  0  0  0  0  0
  -25.9054  -32.4813   23.8378 C   0  0  1  0  0  0
  -27.2234  -27.4088   20.1301 C   0  0  0  0  0  0
  -25.5899  -33.8601   24.2305 N   0  0  0  0  0  0
  -23.4029  -30.4913   21.5511 C   0  0  2  0  0  0
  -24.8493  -28.9579   20.1141 C   0  0  0  0  0  0
  -22.7412  -29.4657   22.4996 C   0  0  0  0  0  0
  -18.0268  -28.1383   22.8449 C   0  0  0  0  0  0
  -24.1494  -36.7316   23.2639 C   0  0  0  0  0  0
  -25.9327  -30.8314   21.3652 C   0  0  0  0  0  0
  -26.0097  -29.4631   20.7136 C   0  0  0  0  0  0
  -27.1999  -28.6976   20.7140 C   0  0  0  0  0  0
  -26.0523  -26.9336   19.5024 C   0  0  0  0  0  0
  -24.8664  -27.6919   19.5003 C   0  0  0  0  0  0
  -23.6131  -29.8278   20.1644 C   0  0  0  0  0  0
  -25.4111  -36.3085   24.0324 C   0  0  1  0  0  0
  -20.5854  -28.3663   23.1296 C   0  0  2  0  0  0
  -20.6756  -26.9388   22.5426 C   0  0  0  0  0  0
  -19.5740  -26.6387   21.5198 C   0  0  0  0  0  0
  -18.1924  -26.7926   22.1606 C   0  0  0  0  0  0
  -19.1525  -28.8836   23.2857 C   0  0  0  0  0  0
  -18.9474  -30.1430   23.8868 C   0  0  0  0  0  0
  -17.6486  -30.6577   24.0569 C   0  0  0  0  0  0
  -25.9054  -34.9460   23.5126 C   0  0  0  0  0  0
  -16.5362  -29.9069   23.6351 C   0  0  0  0  0  0
  -16.7278  -28.6509   23.0322 C   0  0  0  0  0  0
  -26.4478  -31.6600   25.0716 C   0  0  0  0  0  0
  -25.3732  -31.3721   26.1451 C   0  0  0  0  0  0
  -27.0332  -30.3041   24.6122 C   0  0  0  0  0  0
  -27.6014  -32.4357   25.7509 C   0  0  0  0  0  0
  -27.5575  -37.1800   24.8455 C   0  0  0  0  0  0
  -21.4145  -29.3014   22.3699 N   0  0  0  0  0  0
  -26.4300  -37.3772   23.9396 N   0  0  0  0  0  0
  -24.6687  -31.0771   22.1022 N   0  0  0  0  0  0
  -23.4178  -28.8223   23.3054 O   0  0  0  0  0  0
  -28.3783  -26.6469   20.1294 O   0  0  0  0  0  0
  -26.5628  -34.8926   22.4690 O   0  0  0  0  0  0
  -23.5346  -32.1432   23.7522 O   0  0  0  0  0  0
  -30.5209  -19.8032   21.5217 C   0  0  0  0  0  0
  -30.9390  -18.4539   21.4481 C   0  0  0  0  0  0
  -29.3938  -19.3149   23.6177 C   0  0  0  0  0  0
  -29.7475  -20.2516   22.6189 C   0  0  0  0  0  0
  -30.6269  -17.5334   22.4746 C   0  0  0  0  0  0
  -29.8335  -17.9709   23.5655 C   0  0  0  0  0  0
  -27.7055  -22.9599   21.2977 C   0  0  0  0  0  0
  -26.6775  -22.0795   21.3412 C   0  0  0  0  0  0
  -27.4601  -24.3824   20.7428 C   0  0  0  0  0  0
  -29.8560  -24.8926   20.7225 C   0  0  0  0  0  0
  -30.1677  -23.6891   21.6251 C   0  0  0  0  0  0
  -28.4848  -25.5057   21.0285 C   0  0  1  0  0  0
  -29.4849  -17.0428   24.7182 C   0  0  0  0  0  0
  -26.6898  -20.6016   21.6851 C   0  0  0  0  0  0
  -28.3736  -26.0114   22.4855 C   0  0  0  0  0  0
  -31.2392  -16.1297   22.4308 C   0  0  0  0  0  0
  -29.3670  -21.7290   22.8338 C   0  0  0  0  0  0
  -30.4186  -15.1028   21.7816 N   0  0  0  0  0  0
  -29.1578  -22.5848   21.6134 N   0  3  1  0  0  0
  -31.4592  -12.4155   19.0983 H   0  0  0  0  0  0
  -30.3261  -11.2924   19.7860 H   0  0  0  0  0  0
  -29.7253  -11.8169   17.4081 H   0  0  0  0  0  0
  -29.6452  -13.5213   17.7845 H   0  0  0  0  0  0
  -27.8320  -11.3109   18.8167 H   0  0  0  0  0  0
  -27.3549  -12.6386   17.7929 H   0  0  0  0  0  0
  -27.7141  -14.2553   19.5824 H   0  0  0  0  0  0
  -28.6668  -11.9479   21.3472 H   0  0  0  0  0  0
  -28.4406  -13.5882   21.8670 H   0  0  0  0  0  0
  -25.2756   -9.5703   22.4761 H   0  0  0  0  0  0
  -24.0000   -7.4649   22.7478 H   0  0  0  0  0  0
  -21.0849   -8.8772   19.8942 H   0  0  0  0  0  0
  -22.3691  -10.9676   19.6155 H   0  0  0  0  0  0
  -21.2010   -7.6151   23.9723 H   0  0  0  0  0  0
  -21.1472   -6.0521   25.9083 H   0  0  0  0  0  0
  -22.0603   -2.7612   23.2842 H   0  0  0  0  0  0
  -22.4103  -11.9871   22.4757 H   0  0  0  0  0  0
  -21.1111  -13.1257   22.2573 H   0  0  0  0  0  0
  -24.6769  -15.8527   20.5285 H   0  0  0  0  0  0
  -26.3011  -15.6236   20.1178 H   0  0  0  0  0  0
  -26.7135  -32.5545   23.1147 H   0  0  0  0  0  0
  -24.9956  -33.9746   25.0388 H   0  0  0  0  0  0
  -22.6956  -31.3119   21.4176 H   0  0  0  0  0  0
  -23.3740  -35.9669   23.3327 H   0  0  0  0  0  0
  -24.3561  -36.8929   22.2050 H   0  0  0  0  0  0
  -23.7282  -37.6533   23.6685 H   0  0  0  0  0  0
  -26.0463  -31.6042   20.6019 H   0  0  0  0  0  0
  -26.8163  -30.8777   21.9902 H   0  0  0  0  0  0
  -28.0963  -29.0852   21.1791 H   0  0  0  0  0  0
  -26.0504  -25.9692   19.0179 H   0  0  0  0  0  0
  -23.9767  -27.3012   19.0232 H   0  0  0  0  0  0
  -23.7210  -30.6086   19.4092 H   0  0  0  0  0  0
  -22.7344  -29.2489   19.8715 H   0  0  0  0  0  0
  -25.1289  -36.1939   25.0812 H   0  0  0  0  0  0
  -20.9919  -28.3250   24.1415 H   0  0  0  0  0  0
  -20.5691  -26.2263   23.3618 H   0  0  0  0  0  0
  -21.6631  -26.7490   22.1178 H   0  0  0  0  0  0
  -19.6948  -25.6307   21.1212 H   0  0  0  0  0  0
  -19.6692  -27.3220   20.6735 H   0  0  0  0  0  0
  -17.4196  -26.6674   21.4003 H   0  0  0  0  0  0
  -18.0299  -26.0097   22.9026 H   0  0  0  0  0  0
  -19.7965  -30.7219   24.2240 H   0  0  0  0  0  0
  -17.5062  -31.6263   24.5142 H   0  0  0  0  0  0
  -15.5353  -30.2955   23.7692 H   0  0  0  0  0  0
  -15.8688  -28.0838   22.6983 H   0  0  0  0  0  0
  -24.5895  -30.7090   25.7791 H   0  0  0  0  0  0
  -24.8924  -32.2884   26.4898 H   0  0  0  0  0  0
  -25.8038  -30.8897   27.0220 H   0  0  0  0  0  0
  -26.2887  -29.6766   24.1217 H   0  0  0  0  0  0
  -27.4123  -29.7334   25.4604 H   0  0  0  0  0  0
  -27.8713  -30.4360   23.9273 H   0  0  0  0  0  0
  -27.2575  -33.3652   26.2067 H   0  0  0  0  0  0
  -28.3809  -32.6926   25.0321 H   0  0  0  0  0  0
  -28.0693  -31.8497   26.5421 H   0  0  0  0  0  0
  -28.2568  -38.0131   24.7461 H   0  0  0  0  0  0
  -28.1083  -36.2626   24.6310 H   0  0  0  0  0  0
  -27.2266  -37.1450   25.8858 H   0  0  0  0  0  0
  -20.9328  -29.8767   21.6942 H   0  0  0  0  0  0
  -26.0193  -38.2840   24.1415 H   0  0  0  0  0  0
  -30.8362  -20.4813   20.7407 H   0  0  0  0  0  0
  -31.5501  -18.1323   20.6149 H   0  0  0  0  0  0
  -28.8125  -19.6481   24.4675 H   0  0  0  0  0  0
  -25.6963  -22.4503   21.0820 H   0  0  0  0  0  0
  -26.4705  -24.7050   21.0730 H   0  0  0  0  0  0
  -27.3893  -24.2564   19.6610 H   0  0  0  0  0  0
  -29.8967  -24.5866   19.6764 H   0  0  0  0  0  0
  -30.6372  -25.6429   20.8467 H   0  0  0  0  0  0
  -30.2927  -24.0698   22.6379 H   0  0  0  0  0  0
  -31.1365  -23.2725   21.3496 H   0  0  0  0  0  0
  -28.7754  -17.5076   25.4047 H   0  0  0  0  0  0
  -30.3788  -16.7945   25.2930 H   0  0  0  0  0  0
  -29.0357  -16.1170   24.3557 H   0  0  0  0  0  0
  -26.7635  -20.4357   22.7579 H   0  0  0  0  0  0
  -27.4974  -20.0788   21.1742 H   0  0  0  0  0  0
  -25.7571  -20.1431   21.3553 H   0  0  0  0  0  0
  -28.4454  -25.2052   23.2150 H   0  0  0  0  0  0
  -27.4139  -26.4937   22.6679 H   0  0  0  0  0  0
  -29.1534  -26.7373   22.7189 H   0  0  0  0  0  0
  -31.4535  -15.7892   23.4427 H   0  0  0  0  0  0
  -32.2258  -16.2040   21.9671 H   0  0  0  0  0  0
  -30.1754  -22.1127   23.4587 H   0  0  0  0  0  0
  -28.4925  -21.8004   23.4827 H   0  0  0  0  0  0
  -29.5910  -14.7992   22.2698 H   0  0  0  0  0  0
  -29.4630  -21.9937   20.8558 H   0  0  0  0  0  0
  1 25  1  0  0  0
  1 30  2  0  0  0
  1 88  1  0  0  0
  2  3  1  0  0  0
  2 25  1  0  0  0
  2 90  1  0  0  0
  2 91  1  0  0  0
  3  4  1  0  0  0
  3 92  1  0  0  0
  3 93  1  0  0  0
  4  5  1  0  0  0
  4 94  1  0  0  0
  4 95  1  0  0  0
  5  6  1  0  0  0
  5 26  1  0  0  0
  5 96  1  0  0  0
  6 25  1  0  0  0
  6 97  1  0  0  0
  6 98  1  0  0  0
  7  8  2  0  0  0
  7 26  1  0  0  0
  7 29  1  0  0  0
  8  9  1  0  0  0
  8 22  1  0  0  0
  9 10  1  0  0  0
  9 27  2  0  0  0
 10 11  2  0  0  0
 10 15  1  0  0  0
 11 12  1  0  0  0
 11 99  1  0  0  0
 12 13  2  0  0  0
 12100  1  0  0  0
 13 14  1  0  0  0
 13 31  1  0  0  0
 14 15  2  0  0  0
 14101  1  0  0  0
 15102  1  0  0  0
 16 17  2  0  0  0
 16 21  1  0  0  0
 16 31  1  0  0  0
 17 18  1  0  0  0
 17103  1  0  0  0
 18 19  2  0  0  0
 18104  1  0  0  0
 19 20  1  0  0  0
 19 24  1  0  0  0
 20 21  2  0  0  0
 20105  1  0  0  0
 21 23  1  0  0  0
 22 28  1  0  0  0
 22 32  2  0  0  0
 26 27  1  0  0  0
 28106  1  0  0  0
 28107  1  0  0  0
 29108  1  0  0  0
 29109  1  0  0  0
 33 34  1  0  0  0
 33 66  1  0  0  0
 33 70  2  0  0  0
 34 36  1  0  0  0
 34 59  1  0  0  0
 34110  1  0  0  0
 35 44  2  0  0  0
 35 45  1  0  0  0
 35 68  1  0  0  0
 36 56  1  0  0  0
 36111  1  0  0  0
 37 39  1  0  0  0
 37 47  1  0  0  0
 37 66  1  0  0  0
 37112  1  0  0  0
 38 43  2  0  0  0
 38 46  1  0  0  0
 38 47  1  0  0  0
 39 64  1  0  0  0
 39 67  2  0  0  0
 40 52  1  0  0  0
 40 53  2  0  0  0
 40 58  1  0  0  0
 41113  1  0  0  0
 41114  1  0  0  0
 41115  1  0  0  0
 41 48  1  0  0  0
 42 43  1  0  0  0
 42 66  1  0  0  0
 42116  1  0  0  0
 42117  1  0  0  0
 43 44  1  0  0  0
 44118  1  0  0  0
 45 46  2  0  0  0
 45119  1  0  0  0
 46120  1  0  0  0
 47121  1  0  0  0
 47122  1  0  0  0
 48 56  1  0  0  0
 48 65  1  0  0  0
 48123  1  0  0  0
 49 50  1  0  0  0
 49 53  1  0  0  0
 49 64  1  0  0  0
 49124  1  0  0  0
 50 51  1  0  0  0
 50125  1  0  0  0
 50126  1  0  0  0
 51 52  1  0  0  0
 51127  1  0  0  0
 51128  1  0  0  0
 52129  1  0  0  0
 52130  1  0  0  0
 53 54  1  0  0  0
 54 55  2  0  0  0
 54131  1  0  0  0
 55 57  1  0  0  0
 55132  1  0  0  0
 56 69  2  0  0  0
 57 58  2  0  0  0
 57133  1  0  0  0
 58134  1  0  0  0
 59 60  1  0  0  0
 59 61  1  0  0  0
 59 62  1  0  0  0
 60135  1  0  0  0
 60136  1  0  0  0
 60137  1  0  0  0
 61138  1  0  0  0
 61139  1  0  0  0
 61140  1  0  0  0
 62141  1  0  0  0
 62142  1  0  0  0
 62143  1  0  0  0
 63 65  1  0  0  0
 63144  1  0  0  0
 63145  1  0  0  0
 63146  1  0  0  0
 64147  1  0  0  0
 65148  1  0  0  0
 68 82  1  0  0  0
 71 72  2  0  0  0
 71 74  1  0  0  0
 71149  1  0  0  0
 72 75  1  0  0  0
 72150  1  0  0  0
 73 74  2  0  0  0
 73 76  1  0  0  0
 73151  1  0  0  0
 74 87  1  0  0  0
 75 76  2  0  0  0
 75 86  1  0  0  0
 76 83  1  0  0  0
 77 78  2  0  0  0
 77 79  1  0  0  0
 77 89  1  0  0  0
 78 84  1  0  0  0
 78152  1  0  0  0
 79 82  1  0  0  0
 79153  1  0  0  0
 79154  1  0  0  0
 80 81  1  0  0  0
 80 82  1  0  0  0
 80155  1  0  0  0
 80156  1  0  0  0
 81 89  1  0  0  0
 81157  1  0  0  0
 81158  1  0  0  0
 82 85  1  0  0  0
 83159  1  0  0  0
 83160  1  0  0  0
 83161  1  0  0  0
 84162  1  0  0  0
 84163  1  0  0  0
 84164  1  0  0  0
 85165  1  0  0  0
 85166  1  0  0  0
 85167  1  0  0  0
 86 88  1  0  0  0
 86168  1  0  0  0
 86169  1  0  0  0
 87170  1  0  0  0
 87171  1  0  0  0
 87 89  1  0  0  0
 88172  1  0  0  0
 89173  1  0  0  0
M  CHG  1  89   1
M  ISO  4   1 100  68 101  82 101  88 100
M  END
> <chiral flag>
0

> <version>
0

> <s_m_source_file>
/data/baiqing/PycharmProjects/Reinvent-master-3.2/result/LINK_invent/BTK/process_docking_weight1_custom_product_contain_oxygen_bond_distance_aromatic_linkinvent_7_9_3/rearranged_h_0032.sdf

> <i_m_source_file_index>
64

> <r_mmod_Potential_Energy-OPLS-2005>
-155.828262329102

> <r_mmod_Stretch_Energy-OPLS-2005>
48.0971641540527

> <r_mmod_Bend_Energy-OPLS-2005>
137.452255249023

> <r_mmod_Torsional_Energy-OPLS-2005>
256.127471923828

> <r_mmod_Improper_Torsional_Energy-OPLS-2005>
3.28062224388123

> <r_mmod_Van_der_Waal_Energy-OPLS-2005>
159.853500366211

> <r_mmod_Electrostatic_Energy-OPLS-2005>
-350.504364013672

> <r_mmod_Solvation_Energy-OPLS-2005>
-421.279998779297

> <b_mmod_Minimization_Converged-OPLS-2005>
0

> <r_mmod_RMS_Derivative-OPLS-2005>
3.76820611953735

$$$$
64
                    3D
 Structure written by MMmdl.
150158  0  0  1  0            999 V2000
  -30.3013  -15.5933   20.3329 C   0  0  0  0  0  0
  -30.4327  -13.0477   19.5375 C   0  0  0  0  0  0
  -29.5525  -12.6454   18.3194 C   0  0  0  0  0  0
  -28.1207  -12.2998   18.7592 C   0  0  0  0  0  0
  -27.5994  -13.3022   19.8141 C   0  0  2  0  0  0
  -28.6192  -13.6088   20.9352 C   0  0  0  0  0  0
  -25.2337  -13.8273   20.5784 C   0  0  0  0  0  0
  -24.1721  -13.0431   20.9287 C   0  0  0  0  0  0
  -24.6414  -11.6940   20.8766 C   0  0  0  0  0  0
  -23.9114  -10.4291   21.0401 C   0  0  0  0  0  0
  -24.3650   -9.4204   21.9182 C   0  0  0  0  0  0
  -23.6310   -8.2247   22.0757 C   0  0  0  0  0  0
  -22.4290   -8.0289   21.3549 C   0  0  0  0  0  0
  -21.9935   -9.0265   20.4649 C   0  0  0  0  0  0
  -22.7280  -10.2136   20.3053 C   0  0  0  0  0  0
  -21.6858   -6.0741   22.5279 C   0  0  0  0  0  0
  -21.4019   -6.5643   23.8213 C   0  0  0  0  0  0
  -21.3661   -5.6794   24.9174 C   0  0  0  0  0  0
  -21.6043   -4.3056   24.7224 C   0  0  0  0  0  0
  -21.8818   -3.8150   23.4344 C   0  0  0  0  0  0
  -21.9194   -4.6968   22.3402 C   0  0  0  0  0  0
  -22.7732  -13.5168   21.1920 C   0  0  0  0  0  0
  -22.1662   -4.2154   21.0980 F   0  0  0  0  0  0
  -21.5627   -3.4540   25.7736 F   0  0  0  0  0  0
  -29.8001  -14.2225   20.2854 N   0  0  0  0  0  0
  -26.2784  -12.9596   20.3223 N   0  0  0  0  0  0
  -25.9359  -11.6673   20.5699 N   0  0  0  0  0  0
  -22.0394  -12.8149   22.0473 N   0  0  0  0  0  0
  -25.3917  -15.2015   20.4220 N   0  0  0  0  0  0
  -31.5364  -15.5645   20.1699 O   0  0  0  0  0  0
  -21.6648   -6.8889   21.4244 O   0  0  0  0  0  0
  -22.3407  -14.5466   20.6756 O   0  0  0  0  0  0
  -24.6835  -31.8009   23.1527 C   0  0  0  0  0  0
  -25.9418  -32.4472   23.8071 C   0  0  1  0  0  0
  -27.2270  -26.7130   20.2122 C   0  0  0  0  0  0
  -25.5998  -33.8297   24.1957 N   0  0  0  0  0  0
  -23.5094  -30.4036   21.5065 C   0  0  2  0  0  0
  -24.9670  -28.7473   20.1188 C   0  0  0  0  0  0
  -22.7766  -29.4323   22.4714 C   0  0  0  0  0  0
  -18.0339  -28.1423   22.8455 C   0  0  0  0  0  0
  -24.1496  -36.7155   23.2653 C   0  0  0  0  0  0
  -26.0902  -30.5371   21.4162 C   0  0  0  0  0  0
  -26.1568  -29.1033   20.7655 C   0  0  0  0  0  0
  -27.2733  -28.1146   20.7789 C   0  0  0  0  0  0
  -26.0035  -26.5650   19.5100 C   0  0  0  0  0  0
  -24.9290  -27.5031   19.4675 C   0  0  0  0  0  0
  -23.7631  -29.7017   20.1417 C   0  0  0  0  0  0
  -25.4146  -36.2898   24.0282 C   0  0  1  0  0  0
  -20.5975  -28.3783   23.1140 C   0  0  2  0  0  0
  -20.6806  -26.9442   22.5402 C   0  0  0  0  0  0
  -19.5782  -26.6371   21.5216 C   0  0  0  0  0  0
  -18.1965  -26.7950   22.1620 C   0  0  0  0  0  0
  -19.1606  -28.8927   23.2779 C   0  0  0  0  0  0
  -18.9511  -30.1510   23.8825 C   0  0  0  0  0  0
  -17.6501  -30.6604   24.0550 C   0  0  0  0  0  0
  -25.9125  -34.9288   23.4955 C   0  0  0  0  0  0
  -16.5390  -29.9086   23.6351 C   0  0  0  0  0  0
  -16.7319  -28.6509   23.0367 C   0  0  0  0  0  0
  -26.4595  -31.6504   25.0691 C   0  0  0  0  0  0
  -25.3661  -31.3822   26.1306 C   0  0  0  0  0  0
  -27.0526  -30.2841   24.6591 C   0  0  0  0  0  0
  -27.6042  -32.4365   25.7511 C   0  0  0  0  0  0
  -27.5565  -37.1735   24.8466 C   0  0  0  0  0  0
  -21.4414  -29.3032   22.3461 N   0  0  0  0  0  0
  -26.4273  -37.3658   23.9406 N   0  0  0  0  0  0
  -24.7845  -30.9463   22.0777 N   0  0  0  0  0  0
  -23.4210  -28.7923   23.3057 O   0  0  0  0  0  0
  -28.1836  -25.4914   20.2740 O   0  0  0  0  0  0
  -26.5764  -34.8863   22.4572 O   0  0  0  0  0  0
  -23.5855  -32.1079   23.6484 O   0  0  0  0  0  0
  -29.5756  -19.7117   21.3044 C   0  0  0  0  0  0
  -28.7699  -19.4843   19.2536 C   0  0  0  0  0  0
  -29.2365  -21.2159   21.2837 C   0  0  0  0  0  0
  -28.4356  -20.9771   19.2026 C   0  0  0  0  0  0
  -28.6142  -22.0620   20.2160 C   0  0  0  0  0  0
  -29.3909  -18.6241   20.2947 C   0  0  0  0  0  0
  -29.5251  -21.9654   22.5707 C   0  0  0  0  0  0
  -27.7529  -21.4219   17.9210 C   0  0  0  0  0  0
  -27.8521  -23.7763   20.1977 C   0  0  0  0  0  0
  -29.4711  -16.9051   20.3703 N   0  0  0  0  0  0
  -31.4272  -13.3119   19.1759 H   0  0  0  0  0  0
  -30.5886  -12.1958   20.2019 H   0  0  0  0  0  0
  -29.9977  -11.8041   17.7867 H   0  0  0  0  0  0
  -29.5228  -13.4754   17.6119 H   0  0  0  0  0  0
  -28.1371  -11.2971   19.1882 H   0  0  0  0  0  0
  -27.4518  -12.2571   17.8988 H   0  0  0  0  0  0
  -27.4693  -14.2313   19.2574 H   0  0  0  0  0  0
  -28.8693  -12.7161   21.5106 H   0  0  0  0  0  0
  -28.1952  -14.3219   21.6439 H   0  0  0  0  0  0
  -25.2792   -9.5676   22.4764 H   0  0  0  0  0  0
  -24.0014   -7.4636   22.7478 H   0  0  0  0  0  0
  -21.0866   -8.8793   19.8952 H   0  0  0  0  0  0
  -22.3742  -10.9678   19.6165 H   0  0  0  0  0  0
  -21.2014   -7.6151   23.9717 H   0  0  0  0  0  0
  -21.1483   -6.0525   25.9077 H   0  0  0  0  0  0
  -22.0594   -2.7612   23.2843 H   0  0  0  0  0  0
  -22.4034  -11.9829   22.4875 H   0  0  0  0  0  0
  -21.1002  -13.1150   22.2671 H   0  0  0  0  0  0
  -24.6157  -15.8451   20.5337 H   0  0  0  0  0  0
  -26.2222  -15.6450   20.0544 H   0  0  0  0  0  0
  -26.7502  -32.4947   23.0787 H   0  0  0  0  0  0
  -25.0056  -33.9339   25.0050 H   0  0  0  0  0  0
  -22.8345  -31.2411   21.3174 H   0  0  0  0  0  0
  -23.3775  -35.9466   23.3268 H   0  0  0  0  0  0
  -24.3563  -36.8863   22.2076 H   0  0  0  0  0  0
  -23.7239  -37.6315   23.6759 H   0  0  0  0  0  0
  -26.2935  -31.2636   20.6284 H   0  0  0  0  0  0
  -26.9408  -30.6030   22.0822 H   0  0  0  0  0  0
  -28.1692  -28.3933   21.3155 H   0  0  0  0  0  0
  -25.8352  -25.6247   19.0054 H   0  0  0  0  0  0
  -24.0315  -27.2214   18.9340 H   0  0  0  0  0  0
  -23.9384  -30.4625   19.3802 H   0  0  0  0  0  0
  -22.8679  -29.1685   19.8169 H   0  0  0  0  0  0
  -25.1356  -36.1662   25.0772 H   0  0  0  0  0  0
  -21.0057  -28.3410   24.1266 H   0  0  0  0  0  0
  -20.5674  -26.2407   23.3665 H   0  0  0  0  0  0
  -21.6667  -26.7389   22.1219 H   0  0  0  0  0  0
  -19.6939  -25.6263   21.1294 H   0  0  0  0  0  0
  -19.6725  -27.3140   20.6714 H   0  0  0  0  0  0
  -17.4234  -26.6690   21.4024 H   0  0  0  0  0  0
  -18.0355  -26.0112   22.9035 H   0  0  0  0  0  0
  -19.7986  -30.7346   24.2164 H   0  0  0  0  0  0
  -17.5050  -31.6277   24.5166 H   0  0  0  0  0  0
  -15.5387  -30.2964   23.7717 H   0  0  0  0  0  0
  -15.8720  -28.0803   22.7123 H   0  0  0  0  0  0
  -24.5861  -30.7159   25.7602 H   0  0  0  0  0  0
  -24.8834  -32.3045   26.4546 H   0  0  0  0  0  0
  -25.7834  -30.9100   27.0208 H   0  0  0  0  0  0
  -26.3241  -29.6455   24.1584 H   0  0  0  0  0  0
  -27.3950  -29.7290   25.5335 H   0  0  0  0  0  0
  -27.9224  -30.3965   24.0118 H   0  0  0  0  0  0
  -27.2577  -33.3730   26.1896 H   0  0  0  0  0  0
  -28.3952  -32.6828   25.0414 H   0  0  0  0  0  0
  -28.0602  -31.8626   26.5589 H   0  0  0  0  0  0
  -28.2552  -38.0058   24.7511 H   0  0  0  0  0  0
  -28.1089  -36.2580   24.6296 H   0  0  0  0  0  0
  -27.2278  -37.1376   25.8868 H   0  0  0  0  0  0
  -20.9717  -29.8686   21.6526 H   0  0  0  0  0  0
  -26.0100  -38.2706   24.1416 H   0  0  0  0  0  0
  -29.9764  -19.3520   22.2416 H   0  0  0  0  0  0
  -28.4654  -18.9261   18.3794 H   0  0  0  0  0  0
  -29.9766  -21.3263   23.3297 H   0  0  0  0  0  0
  -28.6047  -22.3776   22.9853 H   0  0  0  0  0  0
  -30.2112  -22.7912   22.3801 H   0  0  0  0  0  0
  -27.8671  -20.6909   17.1202 H   0  0  0  0  0  0
  -28.1784  -22.3598   17.5629 H   0  0  0  0  0  0
  -26.6861  -21.5703   18.0909 H   0  0  0  0  0  0
  -27.1279  -23.6771   21.0063 H   0  0  0  0  0  0
  -27.2307  -23.7297   19.3052 H   0  0  0  0  0  0
  -28.5211  -16.5650   20.3994 H   0  0  0  0  0  0
  1 25  1  0  0  0
  1 30  2  0  0  0
  1 80  1  0  0  0
  2  3  1  0  0  0
  2 25  1  0  0  0
  2 81  1  0  0  0
  2 82  1  0  0  0
  3  4  1  0  0  0
  3 83  1  0  0  0
  3 84  1  0  0  0
  4  5  1  0  0  0
  4 85  1  0  0  0
  4 86  1  0  0  0
  5  6  1  0  0  0
  5 26  1  0  0  0
  5 87  1  0  0  0
  6 25  1  0  0  0
  6 88  1  0  0  0
  6 89  1  0  0  0
  7  8  2  0  0  0
  7 26  1  0  0  0
  7 29  1  0  0  0
  8  9  1  0  0  0
  8 22  1  0  0  0
  9 10  1  0  0  0
  9 27  2  0  0  0
 10 11  2  0  0  0
 10 15  1  0  0  0
 11 12  1  0  0  0
 11 90  1  0  0  0
 12 13  2  0  0  0
 12 91  1  0  0  0
 13 14  1  0  0  0
 13 31  1  0  0  0
 14 15  2  0  0  0
 14 92  1  0  0  0
 15 93  1  0  0  0
 16 17  2  0  0  0
 16 21  1  0  0  0
 16 31  1  0  0  0
 17 18  1  0  0  0
 17 94  1  0  0  0
 18 19  2  0  0  0
 18 95  1  0  0  0
 19 20  1  0  0  0
 19 24  1  0  0  0
 20 21  2  0  0  0
 20 96  1  0  0  0
 21 23  1  0  0  0
 22 28  1  0  0  0
 22 32  2  0  0  0
 26 27  1  0  0  0
 28 97  1  0  0  0
 28 98  1  0  0  0
 29 99  1  0  0  0
 29100  1  0  0  0
 33 34  1  0  0  0
 33 66  1  0  0  0
 33 70  2  0  0  0
 34 36  1  0  0  0
 34 59  1  0  0  0
 34101  1  0  0  0
 35 44  2  0  0  0
 35 45  1  0  0  0
 35 68  1  0  0  0
 36 56  1  0  0  0
 36102  1  0  0  0
 37 39  1  0  0  0
 37 47  1  0  0  0
 37 66  1  0  0  0
 37103  1  0  0  0
 38 43  2  0  0  0
 38 46  1  0  0  0
 38 47  1  0  0  0
 39 64  1  0  0  0
 39 67  2  0  0  0
 40 52  1  0  0  0
 40 53  2  0  0  0
 40 58  1  0  0  0
 41104  1  0  0  0
 41105  1  0  0  0
 41106  1  0  0  0
 41 48  1  0  0  0
 42 43  1  0  0  0
 42 66  1  0  0  0
 42107  1  0  0  0
 42108  1  0  0  0
 43 44  1  0  0  0
 44109  1  0  0  0
 45 46  2  0  0  0
 45110  1  0  0  0
 46111  1  0  0  0
 47112  1  0  0  0
 47113  1  0  0  0
 48 56  1  0  0  0
 48 65  1  0  0  0
 48114  1  0  0  0
 49 50  1  0  0  0
 49 53  1  0  0  0
 49 64  1  0  0  0
 49115  1  0  0  0
 50 51  1  0  0  0
 50116  1  0  0  0
 50117  1  0  0  0
 51 52  1  0  0  0
 51118  1  0  0  0
 51119  1  0  0  0
 52120  1  0  0  0
 52121  1  0  0  0
 53 54  1  0  0  0
 54 55  2  0  0  0
 54122  1  0  0  0
 55 57  1  0  0  0
 55123  1  0  0  0
 56 69  2  0  0  0
 57 58  2  0  0  0
 57124  1  0  0  0
 58125  1  0  0  0
 59 60  1  0  0  0
 59 61  1  0  0  0
 59 62  1  0  0  0
 60126  1  0  0  0
 60127  1  0  0  0
 60128  1  0  0  0
 61129  1  0  0  0
 61130  1  0  0  0
 61131  1  0  0  0
 62132  1  0  0  0
 62133  1  0  0  0
 62134  1  0  0  0
 63 65  1  0  0  0
 63135  1  0  0  0
 63136  1  0  0  0
 63137  1  0  0  0
 64138  1  0  0  0
 65139  1  0  0  0
 68 79  1  0  0  0
 71 73  2  0  0  0
 71 76  1  0  0  0
 71140  1  0  0  0
 72 74  1  0  0  0
 72 76  2  0  0  0
 72141  1  0  0  0
 73 75  1  0  0  0
 73 77  1  0  0  0
 74 75  2  0  0  0
 74 78  1  0  0  0
 75 79  1  0  0  0
 76 80  1  0  0  0
 77142  1  0  0  0
 77143  1  0  0  0
 77144  1  0  0  0
 78145  1  0  0  0
 78146  1  0  0  0
 78147  1  0  0  0
 79148  1  0  0  0
 79149  1  0  0  0
 80150  1  0  0  0
M  ISO  4   1 100  68 101  79 101  80 100
M  END
> <chiral flag>
0

> <version>
0

> <s_m_source_file>
/data/baiqing/PycharmProjects/Reinvent-master-3.2/result/LINK_invent/BTK/process_docking_weight1_custom_product_contain_oxygen_bond_distance_aromatic_linkinvent_7_9_3/rearranged_h_0032.sdf

> <i_m_source_file_index>
65

> <r_mmod_Potential_Energy-OPLS-2005>
2286.44409179688

> <r_mmod_Stretch_Energy-OPLS-2005>
919.363586425781

> <r_mmod_Bend_Energy-OPLS-2005>
654.226135253906

> <r_mmod_Torsional_Energy-OPLS-2005>
260.773345947266

> <r_mmod_Improper_Torsional_Energy-OPLS-2005>
10.5508689880371

> <r_mmod_Van_der_Waal_Energy-OPLS-2005>
132.175109863281

> <r_mmod_Electrostatic_Energy-OPLS-2005>
-338.868988037109

> <r_mmod_Solvation_Energy-OPLS-2005>
-212.555938720703

> <b_mmod_Minimization_Converged-OPLS-2005>
0

> <r_mmod_RMS_Derivative-OPLS-2005>
0.286040902137756

$$$$
65
                    3D
 Structure written by MMmdl.
164173  0  0  1  0            999 V2000
  -30.1530  -14.0802   21.7035 C   0  0  0  0  0  0
  -30.0786  -13.7345   19.2875 C   0  0  0  0  0  0
  -28.5907  -14.3133   19.4368 C   0  0  0  0  0  0
  -27.7324  -13.5270   20.3566 C   0  0  0  0  0  0
  -27.5664  -12.2571   19.6386 C   0  0  2  0  0  0
  -29.1506  -11.7839   20.0323 C   0  0  0  0  0  0
  -25.1763  -13.5384   20.2980 C   0  0  0  0  0  0
  -24.0988  -12.9649   20.8612 C   0  0  0  0  0  0
  -24.3916  -11.6162   20.9292 C   0  0  0  0  0  0
  -23.7000  -10.3713   21.1102 C   0  0  0  0  0  0
  -24.2662   -9.3334   21.8896 C   0  0  0  0  0  0
  -23.6107   -8.0878   21.9264 C   0  0  0  0  0  0
  -22.3339   -7.9436   21.3256 C   0  0  0  0  0  0
  -21.7743   -9.0049   20.5895 C   0  0  0  0  0  0
  -22.4556  -10.2375   20.5167 C   0  0  0  0  0  0
  -21.6696   -6.0209   22.5102 C   0  0  0  0  0  0
  -21.4115   -6.5438   23.8025 C   0  0  0  0  0  0
  -21.3890   -5.6836   24.9029 C   0  0  0  0  0  0
  -21.5965   -4.3202   24.7351 C   0  0  0  0  0  0
  -21.8670   -3.7894   23.4679 C   0  0  0  0  0  0
  -21.9085   -4.6306   22.3380 C   0  0  0  0  0  0
  -22.7519  -13.5159   21.2322 C   0  0  0  0  0  0
  -22.1467   -4.1251   21.1031 F   0  0  0  0  0  0
  -21.5766   -3.4623   25.8087 F   0  0  0  0  0  0
  -30.0503  -13.0700   20.6394 N   0  0  0  0  0  0
  -26.1722  -12.4640   20.2566 N   0  0  0  0  0  0
  -25.6235  -11.3801   20.5016 N   0  0  0  0  0  0
  -21.9682  -12.8384   22.1355 N   0  0  0  0  0  0
  -25.4141  -14.9480   20.1041 N   0  0  0  0  0  0
  -31.1530  -14.8251   21.5198 O   0  0  0  0  0  0
  -21.6793   -6.7862   21.3856 O   0  0  0  0  0  0
  -22.4222  -14.6231   20.7815 O   0  0  0  0  0  0
  -24.6422  -31.8372   23.2213 C   0  0  0  0  0  0
  -25.9305  -32.4621   23.8518 C   0  0  1  0  0  0
  -26.9435  -26.9423   20.6455 C   0  0  0  0  0  0
  -25.5833  -33.8364   24.2032 N   0  0  0  0  0  0
  -23.4439  -30.4566   21.5140 C   0  0  2  0  0  0
  -24.9099  -28.8974   20.1130 C   0  0  0  0  0  0
  -22.7451  -29.4478   22.4587 C   0  0  0  0  0  0
  -18.0301  -28.1397   22.8420 C   0  0  0  0  0  0
  -24.1360  -36.7139   23.2623 C   0  0  0  0  0  0
  -26.0181  -30.6327   21.4819 C   0  0  0  0  0  0
  -26.0479  -29.2552   20.8452 C   0  0  0  0  0  0
  -27.0651  -28.2975   21.0944 C   0  0  0  0  0  0
  -25.9080  -26.7026   19.7051 C   0  0  0  0  0  0
  -24.8799  -27.6511   19.4655 C   0  0  0  0  0  0
  -23.7254  -29.8273   20.1072 C   0  0  0  0  0  0
  -25.4063  -36.2879   24.0203 C   0  0  1  0  0  0
  -20.6044  -28.3823   23.1046 C   0  0  2  0  0  0
  -20.6803  -26.9426   22.5447 C   0  0  0  0  0  0
  -19.5769  -26.6302   21.5246 C   0  0  0  0  0  0
  -18.1944  -26.7923   22.1540 C   0  0  0  0  0  0
  -19.1630  -28.8926   23.2785 C   0  0  0  0  0  0
  -18.9471  -30.1571   23.8823 C   0  0  0  0  0  0
  -17.6454  -30.6621   24.0559 C   0  0  0  0  0  0
  -25.9139  -34.9225   23.4974 C   0  0  0  0  0  0
  -16.5381  -29.9137   23.6364 C   0  0  0  0  0  0
  -16.7275  -28.6567   23.0385 C   0  0  0  0  0  0
  -26.4611  -31.6857   25.1172 C   0  0  0  0  0  0
  -25.3717  -31.4426   26.1883 C   0  0  0  0  0  0
  -27.0923  -30.3115   24.7880 C   0  0  0  0  0  0
  -27.5826  -32.5166   25.7783 C   0  0  0  0  0  0
  -27.5552  -37.1766   24.8473 C   0  0  0  0  0  0
  -21.4221  -29.3022   22.3299 N   0  0  0  0  0  0
  -26.4280  -37.3703   23.9384 N   0  0  0  0  0  0
  -24.7185  -31.0356   22.1050 N   0  0  0  0  0  0
  -23.4179  -28.8153   23.2717 O   0  0  0  0  0  0
  -27.6330  -25.7927   21.2185 O   0  0  0  0  0  0
  -26.5762  -34.8811   22.4580 O   0  0  0  0  0  0
  -23.5352  -32.1265   23.7216 O   0  0  0  0  0  0
  -28.0938  -16.7328   22.8232 C   0  0  0  0  0  0
  -28.0818  -18.0648   22.8284 C   0  0  0  0  0  0
  -27.0618  -16.8685   25.0011 C   0  0  0  0  0  0
  -27.9067  -16.1293   24.0413 C   0  0  0  0  0  0
  -27.2407  -18.9118   23.6608 C   0  0  0  0  0  0
  -26.4875  -18.2283   24.7222 C   0  0  0  0  0  0
  -26.0408  -22.7275   23.6341 C   0  0  0  0  0  0
  -25.2755  -22.0621   24.4862 C   0  0  0  0  0  0
  -26.2812  -24.2633   23.2933 C   0  0  0  0  0  0
  -27.5915  -22.9317   21.8163 C   0  0  0  0  0  0
  -26.9089  -24.4377   21.8314 C   0  0  2  0  0  0
  -25.1833  -18.7401   25.5219 C   0  0  0  0  0  0
  -28.5946  -14.6998   24.0702 C   0  0  0  0  0  0
  -27.4403  -20.4616   22.9664 C   0  0  0  0  0  0
  -29.4652  -13.9376   22.9566 N   0  0  0  0  0  0
  -26.7701  -21.8764   22.6379 N   0  3  2  0  0  0
  -30.6974  -14.7016   19.3369 H   0  0  0  0  0  0
  -30.4305  -13.2010   18.4444 H   0  0  0  0  0  0
  -27.8353  -14.6017   18.7684 H   0  0  0  0  0  0
  -28.5535  -15.3794   19.8743 H   0  0  0  0  0  0
  -27.1331  -14.2944   21.0398 H   0  0  0  0  0  0
  -27.9221  -13.1030   21.4270 H   0  0  0  0  0  0
  -27.8140  -11.2036   20.1857 H   0  0  0  0  0  0
  -29.2736  -11.5798   18.7645 H   0  0  0  0  0  0
  -29.6634  -10.7122   20.0867 H   0  0  0  0  0  0
  -25.1994   -9.4873   22.3949 H   0  0  0  0  0  0
  -24.1162   -7.2508   22.3995 H   0  0  0  0  0  0
  -20.7741   -8.9066   20.1614 H   0  0  0  0  0  0
  -21.9187  -11.0870   20.0912 H   0  0  0  0  0  0
  -21.2255   -7.5810   23.9079 H   0  0  0  0  0  0
  -21.2158   -6.0748   25.8806 H   0  0  0  0  0  0
  -22.0335   -2.7046   23.3652 H   0  0  0  0  0  0
  -22.1727  -11.9187   22.5877 H   0  0  0  0  0  0
  -21.0677  -13.2135   22.2131 H   0  0  0  0  0  0
  -24.6342  -15.4800   20.0589 H   0  0  0  0  0  0
  -26.2548  -15.5352   19.8498 H   0  0  0  0  0  0
  -26.7292  -32.5020   23.1136 H   0  0  0  0  0  0
  -24.9949  -33.9620   25.0091 H   0  0  0  0  0  0
  -22.7522  -31.3101   21.3593 H   0  0  0  0  0  0
  -23.3780  -35.9415   23.3278 H   0  0  0  0  0  0
  -24.3456  -36.8864   22.2140 H   0  0  0  0  0  0
  -23.7175  -37.6188   23.6836 H   0  0  0  0  0  0
  -26.3337  -31.4233   20.7753 H   0  0  0  0  0  0
  -26.7836  -30.5913   22.2412 H   0  0  0  0  0  0
  -27.8187  -28.5147   21.8217 H   0  0  0  0  0  0
  -25.7825  -25.6977   19.2800 H   0  0  0  0  0  0
  -24.0481  -27.3579   18.8534 H   0  0  0  0  0  0
  -23.9308  -30.6404   19.3936 H   0  0  0  0  0  0
  -22.8297  -29.3355   19.7290 H   0  0  0  0  0  0
  -25.1354  -36.1616   25.0787 H   0  0  0  0  0  0
  -21.0104  -28.3511   24.1230 H   0  0  0  0  0  0
  -20.5588  -26.2422   23.3819 H   0  0  0  0  0  0
  -21.6657  -26.7325   22.1362 H   0  0  0  0  0  0
  -19.6914  -25.6169   21.1477 H   0  0  0  0  0  0
  -19.6824  -27.2971   20.6730 H   0  0  0  0  0  0
  -17.4286  -26.6817   21.3970 H   0  0  0  0  0  0
  -18.0215  -26.0186   22.8982 H   0  0  0  0  0  0
  -19.8008  -30.7406   24.2086 H   0  0  0  0  0  0
  -17.5071  -31.6274   24.5154 H   0  0  0  0  0  0
  -15.5422  -30.2950   23.7777 H   0  0  0  0  0  0
  -15.8731  -28.0853   22.7080 H   0  0  0  0  0  0
  -24.5687  -30.7992   25.8388 H   0  0  0  0  0  0
  -24.9227  -32.3811   26.5146 H   0  0  0  0  0  0
  -25.7877  -30.9751   27.0825 H   0  0  0  0  0  0
  -26.3684  -29.5696   24.4654 H   0  0  0  0  0  0
  -27.5532  -29.9069   25.6941 H   0  0  0  0  0  0
  -27.9044  -30.3744   24.0710 H   0  0  0  0  0  0
  -27.2178  -33.4683   26.1720 H   0  0  0  0  0  0
  -28.3833  -32.7585   25.0769 H   0  0  0  0  0  0
  -28.0399  -32.0093   26.6276 H   0  0  0  0  0  0
  -28.2414  -38.0102   24.7447 H   0  0  0  0  0  0
  -28.1041  -36.2646   24.6277 H   0  0  0  0  0  0
  -27.2224  -37.1430   25.8809 H   0  0  0  0  0  0
  -20.9441  -29.8665   21.6503 H   0  0  0  0  0  0
  -25.9957  -38.2678   24.1470 H   0  0  0  0  0  0
  -27.3726  -16.0330   22.3020 H   0  0  0  0  0  0
  -29.1313  -18.3892   22.8663 H   0  0  0  0  0  0
  -26.8053  -16.5370   25.9603 H   0  0  0  0  0  0
  -24.6451  -22.3889   25.3529 H   0  0  0  0  0  0
  -25.3854  -21.0472   24.1662 H   0  0  0  0  0  0
  -26.8434  -24.6131   24.1663 H   0  0  0  0  0  0
  -25.2911  -24.6820   23.4489 H   0  0  0  0  0  0
  -28.5747  -23.0599   22.2455 H   0  0  0  0  0  0
  -27.6232  -22.5642   20.8253 H   0  0  0  0  0  0
  -26.0480  -24.3214   21.1970 H   0  0  0  0  0  0
  -24.3154  -18.7630   24.8779 H   0  0  0  0  0  0
  -25.0339  -19.7918   25.7378 H   0  0  0  0  0  0
  -24.9624  -18.4007   26.5751 H   0  0  0  0  0  0
  -27.6650  -14.2241   24.2757 H   0  0  0  0  0  0
  -29.1829  -14.9487   25.0304 H   0  0  0  0  0  0
  -27.1540  -20.1115   21.9605 H   0  0  0  0  0  0
  -28.5353  -20.5265   22.9290 H   0  0  0  0  0  0
  -29.8223  -13.1209   23.4873 H   0  0  0  0  0  0
  -26.0669  -21.6003   21.9591 H   0  0  0  0  0  0
  1 25  1  0  0  0
  1 30  2  0  0  0
  1 85  1  0  0  0
  2  3  1  0  0  0
  2 25  1  0  0  0
  2 87  1  0  0  0
  2 88  1  0  0  0
  3  4  1  0  0  0
  3 89  1  0  0  0
  3 90  1  0  0  0
  4  5  1  0  0  0
  4 91  1  0  0  0
  4 92  1  0  0  0
  5  6  1  0  0  0
  5 26  1  0  0  0
  5 93  1  0  0  0
  6 25  1  0  0  0
  6 94  1  0  0  0
  6 95  1  0  0  0
  7  8  2  0  0  0
  7 26  1  0  0  0
  7 29  1  0  0  0
  8  9  1  0  0  0
  8 22  1  0  0  0
  9 10  1  0  0  0
  9 27  2  0  0  0
 10 11  2  0  0  0
 10 15  1  0  0  0
 11 12  1  0  0  0
 11 96  1  0  0  0
 12 13  2  0  0  0
 12 97  1  0  0  0
 13 14  1  0  0  0
 13 31  1  0  0  0
 14 15  2  0  0  0
 14 98  1  0  0  0
 15 99  1  0  0  0
 16 17  2  0  0  0
 16 21  1  0  0  0
 16 31  1  0  0  0
 17 18  1  0  0  0
 17100  1  0  0  0
 18 19  2  0  0  0
 18101  1  0  0  0
 19 20  1  0  0  0
 19 24  1  0  0  0
 20 21  2  0  0  0
 20102  1  0  0  0
 21 23  1  0  0  0
 22 28  1  0  0  0
 22 32  2  0  0  0
 26 27  1  0  0  0
 28103  1  0  0  0
 28104  1  0  0  0
 29105  1  0  0  0
 29106  1  0  0  0
 33 34  1  0  0  0
 33 66  1  0  0  0
 33 70  2  0  0  0
 34 36  1  0  0  0
 34 59  1  0  0  0
 34107  1  0  0  0
 35 44  2  0  0  0
 35 45  1  0  0  0
 35 68  1  0  0  0
 36 56  1  0  0  0
 36108  1  0  0  0
 37 39  1  0  0  0
 37 47  1  0  0  0
 37 66  1  0  0  0
 37109  1  0  0  0
 38 43  2  0  0  0
 38 46  1  0  0  0
 38 47  1  0  0  0
 39 64  1  0  0  0
 39 67  2  0  0  0
 40 52  1  0  0  0
 40 53  2  0  0  0
 40 58  1  0  0  0
 41110  1  0  0  0
 41111  1  0  0  0
 41112  1  0  0  0
 41 48  1  0  0  0
 42 43  1  0  0  0
 42 66  1  0  0  0
 42113  1  0  0  0
 42114  1  0  0  0
 43 44  1  0  0  0
 44115  1  0  0  0
 45 46  2  0  0  0
 45116  1  0  0  0
 46117  1  0  0  0
 47118  1  0  0  0
 47119  1  0  0  0
 48 56  1  0  0  0
 48 65  1  0  0  0
 48120  1  0  0  0
 49 50  1  0  0  0
 49 53  1  0  0  0
 49 64  1  0  0  0
 49121  1  0  0  0
 50 51  1  0  0  0
 50122  1  0  0  0
 50123  1  0  0  0
 51 52  1  0  0  0
 51124  1  0  0  0
 51125  1  0  0  0
 52126  1  0  0  0
 52127  1  0  0  0
 53 54  1  0  0  0
 54 55  2  0  0  0
 54128  1  0  0  0
 55 57  1  0  0  0
 55129  1  0  0  0
 56 69  2  0  0  0
 57 58  2  0  0  0
 57130  1  0  0  0
 58131  1  0  0  0
 59 60  1  0  0  0
 59 61  1  0  0  0
 59 62  1  0  0  0
 60132  1  0  0  0
 60133  1  0  0  0
 60134  1  0  0  0
 61135  1  0  0  0
 61136  1  0  0  0
 61137  1  0  0  0
 62138  1  0  0  0
 62139  1  0  0  0
 62140  1  0  0  0
 63 65  1  0  0  0
 63141  1  0  0  0
 63142  1  0  0  0
 63143  1  0  0  0
 64144  1  0  0  0
 65145  1  0  0  0
 68 81  1  0  0  0
 71 72  2  0  0  0
 71 74  1  0  0  0
 71146  1  0  0  0
 72 75  1  0  0  0
 72147  1  0  0  0
 73 74  2  0  0  0
 73 76  1  0  0  0
 73148  1  0  0  0
 74 83  1  0  0  0
 75 76  2  0  0  0
 75 84  1  0  0  0
 76 82  1  0  0  0
 77 78  2  0  0  0
 77 79  1  0  0  0
 77 86  1  0  0  0
 78149  1  0  0  0
 78150  1  0  0  0
 79 81  1  0  0  0
 79151  1  0  0  0
 79152  1  0  0  0
 80 81  1  0  0  0
 80 86  1  0  0  0
 80153  1  0  0  0
 80154  1  0  0  0
 81155  1  0  0  0
 82156  1  0  0  0
 82157  1  0  0  0
 82158  1  0  0  0
 83 85  1  0  0  0
 83159  1  0  0  0
 83160  1  0  0  0
 84161  1  0  0  0
 84162  1  0  0  0
 84 86  1  0  0  0
 85163  1  0  0  0
 86164  1  0  0  0
M  CHG  1  86   1
M  ISO  4   1 100  68 101  81 101  85 100
M  END
> <chiral flag>
0

> <version>
0

> <s_m_source_file>
/data/baiqing/PycharmProjects/Reinvent-master-3.2/result/LINK_invent/BTK/process_docking_weight1_custom_product_contain_oxygen_bond_distance_aromatic_linkinvent_7_9_3/rearranged_h_0032.sdf

> <i_m_source_file_index>
66

> <r_mmod_Potential_Energy-OPLS-2005>
5277.6572265625

> <r_mmod_Stretch_Energy-OPLS-2005>
799.220031738281

> <r_mmod_Bend_Energy-OPLS-2005>
1570.10754394531

> <r_mmod_Torsional_Energy-OPLS-2005>
592.089904785156

> <r_mmod_Improper_Torsional_Energy-OPLS-2005>
39.6467323303223

> <r_mmod_Van_der_Waal_Energy-OPLS-2005>
448.253356933594

> <r_mmod_Electrostatic_Energy-OPLS-2005>
-300.945465087891

> <r_mmod_Solvation_Energy-OPLS-2005>
-440.291961669922

> <b_mmod_Minimization_Converged-OPLS-2005>
0

> <r_mmod_RMS_Derivative-OPLS-2005>
99.9990005493164

$$$$
66
                    3D
 Structure written by MMmdl.
177186  0  0  1  0            999 V2000
  -30.7138  -14.5075   20.4866 C   0  0  0  0  0  0
  -30.4122  -12.3143   19.4183 C   0  0  0  0  0  0
  -29.4861  -12.4806   18.1958 C   0  0  0  0  0  0
  -28.0083  -12.3511   18.6119 C   0  0  0  0  0  0
  -27.6510  -13.2172   19.8538 C   0  0  2  0  0  0
  -28.7001  -13.0480   20.9769 C   0  0  0  0  0  0
  -25.2525  -13.8187   20.5680 C   0  0  0  0  0  0
  -24.1803  -13.0454   20.9214 C   0  0  0  0  0  0
  -24.6386  -11.6935   20.8753 C   0  0  0  0  0  0
  -23.9058  -10.4306   21.0417 C   0  0  0  0  0  0
  -24.3608   -9.4216   21.9181 C   0  0  0  0  0  0
  -23.6273   -8.2263   22.0748 C   0  0  0  0  0  0
  -22.4259   -8.0291   21.3547 C   0  0  0  0  0  0
  -21.9902   -9.0269   20.4652 C   0  0  0  0  0  0
  -22.7242  -10.2135   20.3059 C   0  0  0  0  0  0
  -21.6824   -6.0743   22.5290 C   0  0  0  0  0  0
  -21.3999   -6.5647   23.8229 C   0  0  0  0  0  0
  -21.3657   -5.6791   24.9185 C   0  0  0  0  0  0
  -21.6045   -4.3062   24.7217 C   0  0  0  0  0  0
  -21.8821   -3.8165   23.4340 C   0  0  0  0  0  0
  -21.9191   -4.6981   22.3397 C   0  0  0  0  0  0
  -22.7810  -13.5249   21.1929 C   0  0  0  0  0  0
  -22.1650   -4.2170   21.0968 F   0  0  0  0  0  0
  -21.5631   -3.4538   25.7721 F   0  0  0  0  0  0
  -30.0180  -13.3401   20.3993 N   0  0  0  0  0  0
  -26.2961  -12.9392   20.3280 N   0  0  0  0  0  0
  -25.9306  -11.6554   20.5743 N   0  0  0  0  0  0
  -22.0392  -12.8246   22.0467 N   0  0  0  0  0  0
  -25.4264  -15.1890   20.4082 N   0  0  0  0  0  0
  -31.8983  -14.5952   20.1652 O   0  0  0  0  0  0
  -21.6636   -6.8881   21.4245 O   0  0  0  0  0  0
  -22.3505  -14.5544   20.6762 O   0  0  0  0  0  0
  -24.6182  -31.8700   23.2149 C   0  0  0  0  0  0
  -25.9085  -32.4828   23.8445 C   0  0  1  0  0  0
  -27.1982  -27.4027   20.0873 C   0  0  0  0  0  0
  -25.5929  -33.8611   24.2347 N   0  0  0  0  0  0
  -23.4050  -30.5021   21.5517 C   0  0  2  0  0  0
  -24.8505  -28.9903   20.0933 C   0  0  0  0  0  0
  -22.7438  -29.4664   22.4909 C   0  0  0  0  0  0
  -18.0259  -28.1390   22.8492 C   0  0  0  0  0  0
  -24.1489  -36.7305   23.2634 C   0  0  0  0  0  0
  -25.9409  -30.8221   21.3832 C   0  0  0  0  0  0
  -26.0106  -29.4616   20.7177 C   0  0  0  0  0  0
  -27.1879  -28.6717   20.7206 C   0  0  0  0  0  0
  -26.0384  -27.0104   19.3820 C   0  0  0  0  0  0
  -24.8628  -27.7681   19.4136 C   0  0  0  0  0  0
  -23.6173  -29.8569   20.1577 C   0  0  0  0  0  0
  -25.4112  -36.3094   24.0337 C   0  0  1  0  0  0
  -20.5882  -28.3609   23.1243 C   0  0  2  0  0  0
  -20.6704  -26.9376   22.5302 C   0  0  0  0  0  0
  -19.5629  -26.6380   21.5144 C   0  0  0  0  0  0
  -18.1859  -26.7939   22.1612 C   0  0  0  0  0  0
  -19.1562  -28.8807   23.2885 C   0  0  0  0  0  0
  -18.9517  -30.1426   23.8899 C   0  0  0  0  0  0
  -17.6544  -30.6593   24.0549 C   0  0  0  0  0  0
  -25.9046  -34.9476   23.5137 C   0  0  0  0  0  0
  -16.5402  -29.9143   23.6325 C   0  0  0  0  0  0
  -16.7261  -28.6572   23.0320 C   0  0  0  0  0  0
  -26.4480  -31.6601   25.0767 C   0  0  0  0  0  0
  -25.3724  -31.3720   26.1490 C   0  0  0  0  0  0
  -27.0338  -30.3052   24.6162 C   0  0  0  0  0  0
  -27.6057  -32.4294   25.7548 C   0  0  0  0  0  0
  -27.5571  -37.1822   24.8467 C   0  0  0  0  0  0
  -21.4151  -29.2976   22.3633 N   0  0  0  0  0  0
  -26.4296  -37.3776   23.9394 N   0  0  0  0  0  0
  -24.6725  -31.0792   22.1066 N   0  0  0  0  0  0
  -23.4222  -28.8253   23.2991 O   0  0  0  0  0  0
  -28.2988  -26.5644   20.1848 O   0  0  0  0  0  0
  -26.5553  -34.8927   22.4664 O   0  0  0  0  0  0
  -23.5386  -32.1458   23.7537 O   0  0  0  0  0  0
  -30.8224  -18.0169   22.0316 C   0  0  0  0  0  0
  -30.4050  -20.4049   22.1421 C   0  0  0  0  0  0
  -29.5228  -17.7827   21.5351 C   0  0  0  0  0  0
  -29.0975  -20.2231   21.6450 C   0  0  0  0  0  0
  -28.6504  -18.9014   21.3097 C   0  0  0  0  0  0
  -31.2662  -19.3130   22.3280 C   0  0  0  0  0  0
  -26.7730  -22.9851   20.2694 C   0  0  0  0  0  0
  -25.6031  -22.3989   19.9353 C   0  0  0  0  0  0
  -24.3009  -23.0336   19.9537 C   0  0  0  0  0  0
  -23.9366  -24.0606   19.1670 C   0  0  0  0  0  0
  -27.0103  -24.4234   20.7505 C   0  0  0  0  0  0
  -29.3907  -24.3533   20.1787 C   0  0  0  0  0  0
  -29.2401  -22.8608   19.7673 C   0  0  0  0  0  0
  -28.1043  -25.1474   19.9076 C   0  0  2  0  0  0
  -22.5823  -24.7326   19.2395 C   0  0  0  0  0  0
  -26.2281  -18.2754   21.8136 C   0  0  0  0  0  0
  -27.2505  -18.6742   20.7396 C   0  0  0  0  0  0
  -29.1327  -16.3086   21.3271 C   0  0  0  0  0  0
  -28.2024  -21.4783   21.6279 C   0  0  0  0  0  0
  -30.0002  -15.6391   20.3569 N   0  0  0  0  0  0
  -28.0308  -22.1709   20.3169 N   0  3  2  0  0  0
  -32.8516  -19.5643   22.9598 Cl  0  0  0  0  0  0
  -31.4546  -12.3981   19.1054 H   0  0  0  0  0  0
  -30.3151  -11.3172   19.8507 H   0  0  0  0  0  0
  -29.7284  -11.7311   17.4409 H   0  0  0  0  0  0
  -29.6516  -13.4525   17.7290 H   0  0  0  0  0  0
  -27.8290  -11.2992   18.8310 H   0  0  0  0  0  0
  -27.3532  -12.6003   17.7741 H   0  0  0  0  0  0
  -27.6787  -14.2558   19.5209 H   0  0  0  0  0  0
  -28.6843  -12.0306   21.3710 H   0  0  0  0  0  0
  -28.4716  -13.6960   21.8205 H   0  0  0  0  0  0
  -25.2766   -9.5662   22.4738 H   0  0  0  0  0  0
  -23.9984   -7.4637   22.7433 H   0  0  0  0  0  0
  -21.0865   -8.8821   19.8898 H   0  0  0  0  0  0
  -22.3771  -10.9672   19.6135 H   0  0  0  0  0  0
  -21.1980   -7.6154   23.9761 H   0  0  0  0  0  0
  -21.1454   -6.0494   25.9091 H   0  0  0  0  0  0
  -22.0595   -2.7632   23.2836 H   0  0  0  0  0  0
  -22.3882  -11.9850   22.4861 H   0  0  0  0  0  0
  -21.0947  -13.1198   22.2544 H   0  0  0  0  0  0
  -24.6944  -15.8591   20.6121 H   0  0  0  0  0  0
  -26.2961  -15.6224   20.1340 H   0  0  0  0  0  0
  -26.7123  -32.5525   23.1197 H   0  0  0  0  0  0
  -25.0165  -33.9772   25.0552 H   0  0  0  0  0  0
  -22.6967  -31.3212   21.4218 H   0  0  0  0  0  0
  -23.3740  -35.9649   23.3317 H   0  0  0  0  0  0
  -24.3589  -36.8908   22.2046 H   0  0  0  0  0  0
  -23.7271  -37.6532   23.6630 H   0  0  0  0  0  0
  -26.0685  -31.5963   20.6245 H   0  0  0  0  0  0
  -26.8245  -30.8621   22.0070 H   0  0  0  0  0  0
  -28.0720  -29.0058   21.2449 H   0  0  0  0  0  0
  -26.0083  -26.1022   18.8029 H   0  0  0  0  0  0
  -23.9848  -27.4260   18.8860 H   0  0  0  0  0  0
  -23.7350  -30.6468   19.4163 H   0  0  0  0  0  0
  -22.7383  -29.2901   19.8405 H   0  0  0  0  0  0
  -25.1287  -36.1958   25.0826 H   0  0  0  0  0  0
  -21.0054  -28.3066   24.1310 H   0  0  0  0  0  0
  -20.5594  -26.2209   23.3464 H   0  0  0  0  0  0
  -21.6528  -26.7406   22.0992 H   0  0  0  0  0  0
  -19.6684  -25.6262   21.1237 H   0  0  0  0  0  0
  -19.6549  -27.3118   20.6622 H   0  0  0  0  0  0
  -17.4070  -26.6707   21.4059 H   0  0  0  0  0  0
  -18.0240  -26.0058   22.8995 H   0  0  0  0  0  0
  -19.8005  -30.7210   24.2272 H   0  0  0  0  0  0
  -17.5126  -31.6252   24.5171 H   0  0  0  0  0  0
  -15.5415  -30.3073   23.7624 H   0  0  0  0  0  0
  -15.8649  -28.0931   22.6976 H   0  0  0  0  0  0
  -24.5884  -30.7077   25.7808 H   0  0  0  0  0  0
  -24.8940  -32.2898   26.4921 H   0  0  0  0  0  0
  -25.8064  -30.8888   27.0252 H   0  0  0  0  0  0
  -26.2915  -29.6804   24.1172 H   0  0  0  0  0  0
  -27.4061  -29.7264   25.4625 H   0  0  0  0  0  0
  -27.8750  -30.4370   23.9351 H   0  0  0  0  0  0
  -27.2660  -33.3556   26.2175 H   0  0  0  0  0  0
  -28.3860  -32.6909   25.0388 H   0  0  0  0  0  0
  -28.0703  -31.8376   26.5446 H   0  0  0  0  0  0
  -28.2596  -38.0104   24.7478 H   0  0  0  0  0  0
  -28.1051  -36.2644   24.6326 H   0  0  0  0  0  0
  -27.2271  -37.1494   25.8862 H   0  0  0  0  0  0
  -20.9271  -29.8652   21.6836 H   0  0  0  0  0  0
  -26.0182  -38.2843   24.1410 H   0  0  0  0  0  0
  -31.4950  -17.1892   22.2111 H   0  0  0  0  0  0
  -30.7486  -21.3884   22.4313 H   0  0  0  0  0  0
  -25.6045  -21.3552   19.6508 H   0  0  0  0  0  0
  -23.5742  -22.6581   20.6608 H   0  0  0  0  0  0
  -24.6275  -24.4528   18.4369 H   0  0  0  0  0  0
  -27.2998  -24.4006   21.8008 H   0  0  0  0  0  0
  -26.0606  -24.9415   20.7602 H   0  0  0  0  0  0
  -30.2187  -24.7983   19.6248 H   0  0  0  0  0  0
  -29.6636  -24.4296   21.2334 H   0  0  0  0  0  0
  -30.1524  -22.3076   19.9944 H   0  0  0  0  0  0
  -29.1510  -22.8349   18.6799 H   0  0  0  0  0  0
  -27.8826  -25.0506   18.8426 H   0  0  0  0  0  0
  -21.9021  -24.1847   19.8886 H   0  0  0  0  0  0
  -22.1329  -24.7859   18.2504 H   0  0  0  0  0  0
  -22.6636  -25.7469   19.6313 H   0  0  0  0  0  0
  -26.5478  -17.3843   22.3539 H   0  0  0  0  0  0
  -25.2507  -18.0670   21.3752 H   0  0  0  0  0  0
  -26.0929  -19.0738   22.5380 H   0  0  0  0  0  0
  -27.2933  -17.9166   19.9577 H   0  0  0  0  0  0
  -26.8948  -19.5634   20.2239 H   0  0  0  0  0  0
  -29.2256  -15.8144   22.2944 H   0  0  0  0  0  0
  -28.0978  -16.1798   21.0214 H   0  0  0  0  0  0
  -28.5667  -22.2106   22.3515 H   0  0  0  0  0  0
  -27.2254  -21.1844   22.0148 H   0  0  0  0  0  0
  -30.5425  -16.3201   19.8493 H   0  0  0  0  0  0
  -27.9025  -21.4038   19.6750 H   0  0  0  0  0  0
  1 25  1  0  0  0
  1 30  2  0  0  0
  1 90  1  0  0  0
  2  3  1  0  0  0
  2 25  1  0  0  0
  2 93  1  0  0  0
  2 94  1  0  0  0
  3  4  1  0  0  0
  3 95  1  0  0  0
  3 96  1  0  0  0
  4  5  1  0  0  0
  4 97  1  0  0  0
  4 98  1  0  0  0
  5  6  1  0  0  0
  5 26  1  0  0  0
  5 99  1  0  0  0
  6 25  1  0  0  0
  6100  1  0  0  0
  6101  1  0  0  0
  7  8  2  0  0  0
  7 26  1  0  0  0
  7 29  1  0  0  0
  8  9  1  0  0  0
  8 22  1  0  0  0
  9 10  1  0  0  0
  9 27  2  0  0  0
 10 11  2  0  0  0
 10 15  1  0  0  0
 11 12  1  0  0  0
 11102  1  0  0  0
 12 13  2  0  0  0
 12103  1  0  0  0
 13 14  1  0  0  0
 13 31  1  0  0  0
 14 15  2  0  0  0
 14104  1  0  0  0
 15105  1  0  0  0
 16 17  2  0  0  0
 16 21  1  0  0  0
 16 31  1  0  0  0
 17 18  1  0  0  0
 17106  1  0  0  0
 18 19  2  0  0  0
 18107  1  0  0  0
 19 20  1  0  0  0
 19 24  1  0  0  0
 20 21  2  0  0  0
 20108  1  0  0  0
 21 23  1  0  0  0
 22 28  1  0  0  0
 22 32  2  0  0  0
 26 27  1  0  0  0
 28109  1  0  0  0
 28110  1  0  0  0
 29111  1  0  0  0
 29112  1  0  0  0
 33 34  1  0  0  0
 33 66  1  0  0  0
 33 70  2  0  0  0
 34 36  1  0  0  0
 34 59  1  0  0  0
 34113  1  0  0  0
 35 44  2  0  0  0
 35 45  1  0  0  0
 35 68  1  0  0  0
 36 56  1  0  0  0
 36114  1  0  0  0
 37 39  1  0  0  0
 37 47  1  0  0  0
 37 66  1  0  0  0
 37115  1  0  0  0
 38 43  2  0  0  0
 38 46  1  0  0  0
 38 47  1  0  0  0
 39 64  1  0  0  0
 39 67  2  0  0  0
 40 52  1  0  0  0
 40 53  2  0  0  0
 40 58  1  0  0  0
 41116  1  0  0  0
 41117  1  0  0  0
 41118  1  0  0  0
 41 48  1  0  0  0
 42 43  1  0  0  0
 42 66  1  0  0  0
 42119  1  0  0  0
 42120  1  0  0  0
 43 44  1  0  0  0
 44121  1  0  0  0
 45 46  2  0  0  0
 45122  1  0  0  0
 46123  1  0  0  0
 47124  1  0  0  0
 47125  1  0  0  0
 48 56  1  0  0  0
 48 65  1  0  0  0
 48126  1  0  0  0
 49 50  1  0  0  0
 49 53  1  0  0  0
 49 64  1  0  0  0
 49127  1  0  0  0
 50 51  1  0  0  0
 50128  1  0  0  0
 50129  1  0  0  0
 51 52  1  0  0  0
 51130  1  0  0  0
 51131  1  0  0  0
 52132  1  0  0  0
 52133  1  0  0  0
 53 54  1  0  0  0
 54 55  2  0  0  0
 54134  1  0  0  0
 55 57  1  0  0  0
 55135  1  0  0  0
 56 69  2  0  0  0
 57 58  2  0  0  0
 57136  1  0  0  0
 58137  1  0  0  0
 59 60  1  0  0  0
 59 61  1  0  0  0
 59 62  1  0  0  0
 60138  1  0  0  0
 60139  1  0  0  0
 60140  1  0  0  0
 61141  1  0  0  0
 61142  1  0  0  0
 61143  1  0  0  0
 62144  1  0  0  0
 62145  1  0  0  0
 62146  1  0  0  0
 63 65  1  0  0  0
 63147  1  0  0  0
 63148  1  0  0  0
 63149  1  0  0  0
 64150  1  0  0  0
 65151  1  0  0  0
 68 84  1  0  0  0
 71 73  2  0  0  0
 71 76  1  0  0  0
 71152  1  0  0  0
 72 74  1  0  0  0
 72 76  2  0  0  0
 72153  1  0  0  0
 73 75  1  0  0  0
 73 88  1  0  0  0
 74 75  2  0  0  0
 74 89  1  0  0  0
 75 87  1  0  0  0
 76 92  1  0  0  0
 77 78  2  0  0  0
 77 81  1  0  0  0
 77 91  1  0  0  0
 78 79  1  0  0  0
 78154  1  0  0  0
 79 80  2  0  0  0
 79155  1  0  0  0
 80 85  1  0  0  0
 80156  1  0  0  0
 81 84  1  0  0  0
 81157  1  0  0  0
 81158  1  0  0  0
 82 83  1  0  0  0
 82 84  1  0  0  0
 82159  1  0  0  0
 82160  1  0  0  0
 83 91  1  0  0  0
 83161  1  0  0  0
 83162  1  0  0  0
 84163  1  0  0  0
 85164  1  0  0  0
 85165  1  0  0  0
 85166  1  0  0  0
 86 87  1  0  0  0
 86167  1  0  0  0
 86168  1  0  0  0
 86169  1  0  0  0
 87170  1  0  0  0
 87171  1  0  0  0
 88 90  1  0  0  0
 88172  1  0  0  0
 88173  1  0  0  0
 89174  1  0  0  0
 89175  1  0  0  0
 89 91  1  0  0  0
 90176  1  0  0  0
 91177  1  0  0  0
M  CHG  1  91   1
M  ISO  4   1 100  68 101  84 101  90 100
M  END
> <chiral flag>
0

> <version>
0

> <s_m_source_file>
/data/baiqing/PycharmProjects/Reinvent-master-3.2/result/LINK_invent/BTK/process_docking_weight1_custom_product_contain_oxygen_bond_distance_aromatic_linkinvent_7_9_3/rearranged_h_0032.sdf

> <i_m_source_file_index>
67

> <r_mmod_Potential_Energy-OPLS-2005>
-106.155120849609

> <r_mmod_Stretch_Energy-OPLS-2005>
47.8607635498047

> <r_mmod_Bend_Energy-OPLS-2005>
142.626968383789

> <r_mmod_Torsional_Energy-OPLS-2005>
285.219421386719

> <r_mmod_Improper_Torsional_Energy-OPLS-2005>
23.1647300720215

> <r_mmod_Van_der_Waal_Energy-OPLS-2005>
139.018676757812

> <r_mmod_Electrostatic_Energy-OPLS-2005>
-326.021514892578

> <r_mmod_Solvation_Energy-OPLS-2005>
-451.102294921875

> <b_mmod_Minimization_Converged-OPLS-2005>
0

> <r_mmod_RMS_Derivative-OPLS-2005>
5.87840175628662

$$$$
67
                    3D
 Structure written by MMmdl.
170179  0  0  1  0            999 V2000
  -30.6784  -14.4809   20.5847 C   0  0  0  0  0  0
  -30.4099  -12.3303   19.3994 C   0  0  0  0  0  0
  -29.4795  -12.5221   18.1817 C   0  0  0  0  0  0
  -27.9978  -12.3819   18.5933 C   0  0  0  0  0  0
  -27.6423  -13.2219   19.8536 C   0  0  2  0  0  0
  -28.6805  -13.0104   20.9737 C   0  0  0  0  0  0
  -25.2455  -13.8242   20.5839 C   0  0  0  0  0  0
  -24.1728  -13.0522   20.9266 C   0  0  0  0  0  0
  -24.6300  -11.6975   20.8753 C   0  0  0  0  0  0
  -23.9029  -10.4333   21.0326 C   0  0  0  0  0  0
  -24.3589   -9.4244   21.9103 C   0  0  0  0  0  0
  -23.6276   -8.2276   22.0703 C   0  0  0  0  0  0
  -22.4280   -8.0267   21.3506 C   0  0  0  0  0  0
  -21.9915   -9.0236   20.4633 C   0  0  0  0  0  0
  -22.7221  -10.2105   20.2992 C   0  0  0  0  0  0
  -21.6818   -6.0735   22.5274 C   0  0  0  0  0  0
  -21.4028   -6.5626   23.8224 C   0  0  0  0  0  0
  -21.3655   -5.6774   24.9189 C   0  0  0  0  0  0
  -21.6025   -4.3030   24.7225 C   0  0  0  0  0  0
  -21.8817   -3.8137   23.4337 C   0  0  0  0  0  0
  -21.9211   -4.6972   22.3400 C   0  0  0  0  0  0
  -22.7718  -13.5220   21.1926 C   0  0  0  0  0  0
  -22.1686   -4.2165   21.0972 F   0  0  0  0  0  0
  -21.5608   -3.4513   25.7724 F   0  0  0  0  0  0
  -30.0082  -13.3080   20.4193 N   0  0  0  0  0  0
  -26.2897  -12.9473   20.3312 N   0  0  0  0  0  0
  -25.9211  -11.6612   20.5652 N   0  0  0  0  0  0
  -22.0435  -12.8203   22.0523 N   0  0  0  0  0  0
  -25.4172  -15.1992   20.4260 N   0  0  0  0  0  0
  -31.8391  -14.6523   20.2090 O   0  0  0  0  0  0
  -21.6611   -6.8883   21.4238 O   0  0  0  0  0  0
  -22.3332  -14.5471   20.6650 O   0  0  0  0  0  0
  -24.6302  -31.8688   23.2091 C   0  0  0  0  0  0
  -25.9147  -32.4801   23.8457 C   0  0  1  0  0  0
  -27.1572  -27.3278   20.1261 C   0  0  0  0  0  0
  -25.5918  -33.8582   24.2340 N   0  0  0  0  0  0
  -23.4206  -30.5184   21.5420 C   0  0  2  0  0  0
  -24.8476  -28.9736   20.1056 C   0  0  0  0  0  0
  -22.7370  -29.4970   22.4829 C   0  0  0  0  0  0
  -18.0276  -28.1523   22.8513 C   0  0  0  0  0  0
  -24.1451  -36.7301   23.2650 C   0  0  0  0  0  0
  -25.9642  -30.8063   21.3762 C   0  0  0  0  0  0
  -26.0194  -29.4361   20.7190 C   0  0  0  0  0  0
  -27.1817  -28.6185   20.7216 C   0  0  0  0  0  0
  -25.9749  -26.9372   19.4595 C   0  0  0  0  0  0
  -24.8253  -27.7340   19.4618 C   0  0  0  0  0  0
  -23.6263  -29.8601   20.1585 C   0  0  0  0  0  0
  -25.4076  -36.3064   24.0340 C   0  0  1  0  0  0
  -20.5930  -28.3966   23.1191 C   0  0  2  0  0  0
  -20.6897  -26.9657   22.5577 C   0  0  0  0  0  0
  -19.5859  -26.6515   21.5367 C   0  0  0  0  0  0
  -18.2122  -26.7916   22.2021 C   0  0  0  0  0  0
  -19.1530  -28.9086   23.2772 C   0  0  0  0  0  0
  -18.9418  -30.1716   23.8715 C   0  0  0  0  0  0
  -17.6404  -30.6828   24.0350 C   0  0  0  0  0  0
  -25.9040  -34.9430   23.5131 C   0  0  0  0  0  0
  -16.5313  -29.9197   23.6316 C   0  0  0  0  0  0
  -16.7245  -28.6533   23.0460 C   0  0  0  0  0  0
  -26.4491  -31.6573   25.0835 C   0  0  0  0  0  0
  -25.3809  -31.3666   26.1665 C   0  0  0  0  0  0
  -27.0284  -30.2973   24.6214 C   0  0  0  0  0  0
  -27.6025  -32.4311   25.7620 C   0  0  0  0  0  0
  -27.5530  -37.1823   24.8487 C   0  0  0  0  0  0
  -21.4134  -29.3159   22.3319 N   0  0  0  0  0  0
  -26.4239  -37.3755   23.9425 N   0  0  0  0  0  0
  -24.6925  -31.0829   22.0951 N   0  0  0  0  0  0
  -23.3994  -28.8682   23.3125 O   0  0  0  0  0  0
  -28.2436  -26.4653   20.2378 O   0  0  0  0  0  0
  -26.5613  -34.8847   22.4687 O   0  0  0  0  0  0
  -23.5463  -32.1467   23.7429 O   0  0  0  0  0  0
  -28.5509  -18.3743   22.2878 C   0  0  0  0  0  0
  -30.5559  -20.1481   21.4469 C   0  0  0  0  0  0
  -28.2807  -19.7685   22.2553 C   0  0  0  0  0  0
  -29.8187  -17.8622   21.9160 C   0  0  0  0  0  0
  -29.3061  -20.6821   21.8492 C   0  0  0  0  0  0
  -30.8024  -18.7663   21.4605 C   0  0  0  0  0  0
  -27.3661  -22.7827   20.2338 C   0  0  0  0  0  0
  -26.7512  -21.7754   19.5698 C   0  0  0  0  0  0
  -26.9333  -24.1972   20.5994 C   0  0  0  0  0  0
  -29.3006  -24.1483   20.1780 C   0  0  0  0  0  0
  -28.0533  -25.0448   19.9290 C   0  0  2  0  0  0
  -26.8660  -20.2063   22.6389 C   0  0  0  0  0  0
  -27.4968  -20.5190   19.1302 C   0  0  0  0  0  0
  -25.3045  -21.7933   19.1236 C   0  0  0  0  0  0
  -30.1591  -16.3762   22.0854 C   0  0  0  0  0  0
  -29.1547  -22.2192   21.8254 C   0  0  0  0  0  0
  -29.9117  -15.5355   20.9144 N   0  0  0  0  0  0
  -28.8086  -22.7718   20.4828 N   0  3  1  0  0  0
  -32.0033  -18.3060   21.0371 F   0  0  0  0  0  0
  -31.4506  -12.4435   19.0881 H   0  0  0  0  0  0
  -30.3250  -11.3135   19.7873 H   0  0  0  0  0  0
  -29.7181  -11.8157   17.3864 H   0  0  0  0  0  0
  -29.6252  -13.5145   17.7524 H   0  0  0  0  0  0
  -27.7869  -11.3240   18.7531 H   0  0  0  0  0  0
  -27.3540  -12.6808   17.7660 H   0  0  0  0  0  0
  -27.6867  -14.2749   19.5537 H   0  0  0  0  0  0
  -28.6543  -11.9791   21.3280 H   0  0  0  0  0  0
  -28.4347  -13.6369   21.8352 H   0  0  0  0  0  0
  -25.2753   -9.5671   22.4685 H   0  0  0  0  0  0
  -23.9965   -7.4616   22.7379 H   0  0  0  0  0  0
  -21.0851   -8.8695   19.8940 H   0  0  0  0  0  0
  -22.3638  -10.9576   19.6054 H   0  0  0  0  0  0
  -21.2060   -7.6140   23.9719 H   0  0  0  0  0  0
  -21.1448   -6.0506   25.9069 H   0  0  0  0  0  0
  -22.0614   -2.7617   23.2805 H   0  0  0  0  0  0
  -22.4066  -11.9850   22.4892 H   0  0  0  0  0  0
  -21.0948  -13.1018   22.2598 H   0  0  0  0  0  0
  -24.6548  -15.8571   20.5052 H   0  0  0  0  0  0
  -26.2774  -15.6578   20.1658 H   0  0  0  0  0  0
  -26.7252  -32.5418   23.1247 H   0  0  0  0  0  0
  -24.9955  -33.9668   25.0412 H   0  0  0  0  0  0
  -22.7345  -31.3574   21.3972 H   0  0  0  0  0  0
  -23.3631  -35.9719   23.3384 H   0  0  0  0  0  0
  -24.3562  -36.8856   22.2054 H   0  0  0  0  0  0
  -23.7281  -37.6553   23.6650 H   0  0  0  0  0  0
  -26.0931  -31.5700   20.6096 H   0  0  0  0  0  0
  -26.8451  -30.8486   22.0055 H   0  0  0  0  0  0
  -28.0859  -28.9640   21.1947 H   0  0  0  0  0  0
  -25.8801  -26.0108   18.9237 H   0  0  0  0  0  0
  -23.9216  -27.3924   18.9729 H   0  0  0  0  0  0
  -23.7392  -30.6357   19.4022 H   0  0  0  0  0  0
  -22.7418  -29.2918   19.8652 H   0  0  0  0  0  0
  -25.1239  -36.1936   25.0832 H   0  0  0  0  0  0
  -21.0057  -28.3943   24.1303 H   0  0  0  0  0  0
  -20.5742  -26.2855   23.4045 H   0  0  0  0  0  0
  -21.6806  -26.7684   22.1434 H   0  0  0  0  0  0
  -19.6592  -27.3460   20.6929 H   0  0  0  0  0  0
  -19.7194  -25.6468   21.1325 H   0  0  0  0  0  0
  -17.4111  -26.5997   21.4846 H   0  0  0  0  0  0
  -18.1173  -26.0531   23.0074 H   0  0  0  0  0  0
  -19.7851  -30.7588   24.2047 H   0  0  0  0  0  0
  -17.4945  -31.6721   24.4559 H   0  0  0  0  0  0
  -15.5316  -30.3199   23.7524 H   0  0  0  0  0  0
  -15.8631  -28.0743   22.7490 H   0  0  0  0  0  0
  -24.6044  -30.6865   25.8167 H   0  0  0  0  0  0
  -24.8915  -32.2782   26.5099 H   0  0  0  0  0  0
  -25.8279  -30.9000   27.0477 H   0  0  0  0  0  0
  -26.2816  -29.6844   24.1154 H   0  0  0  0  0  0
  -27.3921  -29.7077   25.4661 H   0  0  0  0  0  0
  -27.8734  -30.4240   23.9431 H   0  0  0  0  0  0
  -27.2601  -33.3642   26.2102 H   0  0  0  0  0  0
  -28.3891  -32.6840   25.0502 H   0  0  0  0  0  0
  -28.0661  -31.8551   26.5656 H   0  0  0  0  0  0
  -28.2599  -38.0059   24.7432 H   0  0  0  0  0  0
  -28.0960  -36.2598   24.6409 H   0  0  0  0  0  0
  -27.2289  -37.1583   25.8902 H   0  0  0  0  0  0
  -20.9538  -29.8240   21.5906 H   0  0  0  0  0  0
  -26.0119  -38.2837   24.1375 H   0  0  0  0  0  0
  -27.7715  -17.6917   22.6149 H   0  0  0  0  0  0
  -31.3578  -20.8051   21.1465 H   0  0  0  0  0  0
  -26.9286  -24.3219   21.6818 H   0  0  0  0  0  0
  -25.9214  -24.3977   20.2545 H   0  0  0  0  0  0
  -29.9555  -24.5380   20.9531 H   0  0  0  0  0  0
  -29.8968  -24.1014   19.2680 H   0  0  0  0  0  0
  -27.8676  -24.9994   18.8569 H   0  0  0  0  0  0
  -26.6596  -21.2468   22.4052 H   0  0  0  0  0  0
  -26.6720  -20.0526   23.7046 H   0  0  0  0  0  0
  -26.1322  -19.5929   22.1032 H   0  0  0  0  0  0
  -28.5621  -20.4996   19.3574 H   0  0  0  0  0  0
  -27.4399  -20.4007   18.0497 H   0  0  0  0  0  0
  -27.0483  -19.6502   19.5999 H   0  0  0  0  0  0
  -24.7736  -22.7080   19.3824 H   0  0  0  0  0  0
  -24.7609  -20.9557   19.5646 H   0  0  0  0  0  0
  -25.2644  -21.6664   18.0393 H   0  0  0  0  0  0
  -29.5934  -15.9839   22.9294 H   0  0  0  0  0  0
  -31.2115  -16.2993   22.3831 H   0  0  0  0  0  0
  -30.1106  -22.6325   22.1543 H   0  0  0  0  0  0
  -28.4158  -22.5625   22.5515 H   0  0  0  0  0  0
  -29.6902  -16.0848   20.0872 H   0  0  0  0  0  0
  -29.2257  -22.1453   19.8158 H   0  0  0  0  0  0
  1 25  1  0  0  0
  1 30  2  0  0  0
  1 87  1  0  0  0
  2  3  1  0  0  0
  2 25  1  0  0  0
  2 90  1  0  0  0
  2 91  1  0  0  0
  3  4  1  0  0  0
  3 92  1  0  0  0
  3 93  1  0  0  0
  4  5  1  0  0  0
  4 94  1  0  0  0
  4 95  1  0  0  0
  5  6  1  0  0  0
  5 26  1  0  0  0
  5 96  1  0  0  0
  6 25  1  0  0  0
  6 97  1  0  0  0
  6 98  1  0  0  0
  7  8  2  0  0  0
  7 26  1  0  0  0
  7 29  1  0  0  0
  8  9  1  0  0  0
  8 22  1  0  0  0
  9 10  1  0  0  0
  9 27  2  0  0  0
 10 11  2  0  0  0
 10 15  1  0  0  0
 11 12  1  0  0  0
 11 99  1  0  0  0
 12 13  2  0  0  0
 12100  1  0  0  0
 13 14  1  0  0  0
 13 31  1  0  0  0
 14 15  2  0  0  0
 14101  1  0  0  0
 15102  1  0  0  0
 16 17  2  0  0  0
 16 21  1  0  0  0
 16 31  1  0  0  0
 17 18  1  0  0  0
 17103  1  0  0  0
 18 19  2  0  0  0
 18104  1  0  0  0
 19 20  1  0  0  0
 19 24  1  0  0  0
 20 21  2  0  0  0
 20105  1  0  0  0
 21 23  1  0  0  0
 22 28  1  0  0  0
 22 32  2  0  0  0
 26 27  1  0  0  0
 28106  1  0  0  0
 28107  1  0  0  0
 29108  1  0  0  0
 29109  1  0  0  0
 33 34  1  0  0  0
 33 66  1  0  0  0
 33 70  2  0  0  0
 34 36  1  0  0  0
 34 59  1  0  0  0
 34110  1  0  0  0
 35 44  2  0  0  0
 35 45  1  0  0  0
 35 68  1  0  0  0
 36 56  1  0  0  0
 36111  1  0  0  0
 37 39  1  0  0  0
 37 47  1  0  0  0
 37 66  1  0  0  0
 37112  1  0  0  0
 38 43  2  0  0  0
 38 46  1  0  0  0
 38 47  1  0  0  0
 39 64  1  0  0  0
 39 67  2  0  0  0
 40 52  1  0  0  0
 40 53  2  0  0  0
 40 58  1  0  0  0
 41113  1  0  0  0
 41114  1  0  0  0
 41115  1  0  0  0
 41 48  1  0  0  0
 42 43  1  0  0  0
 42 66  1  0  0  0
 42116  1  0  0  0
 42117  1  0  0  0
 43 44  1  0  0  0
 44118  1  0  0  0
 45 46  2  0  0  0
 45119  1  0  0  0
 46120  1  0  0  0
 47121  1  0  0  0
 47122  1  0  0  0
 48 56  1  0  0  0
 48 65  1  0  0  0
 48123  1  0  0  0
 49 50  1  0  0  0
 49 53  1  0  0  0
 49 64  1  0  0  0
 49124  1  0  0  0
 50 51  1  0  0  0
 50125  1  0  0  0
 50126  1  0  0  0
 51 52  1  0  0  0
 51127  1  0  0  0
 51128  1  0  0  0
 52129  1  0  0  0
 52130  1  0  0  0
 53 54  1  0  0  0
 54 55  2  0  0  0
 54131  1  0  0  0
 55 57  1  0  0  0
 55132  1  0  0  0
 56 69  2  0  0  0
 57 58  2  0  0  0
 57133  1  0  0  0
 58134  1  0  0  0
 59 60  1  0  0  0
 59 61  1  0  0  0
 59 62  1  0  0  0
 60135  1  0  0  0
 60136  1  0  0  0
 60137  1  0  0  0
 61138  1  0  0  0
 61139  1  0  0  0
 61140  1  0  0  0
 62141  1  0  0  0
 62142  1  0  0  0
 62143  1  0  0  0
 63 65  1  0  0  0
 63144  1  0  0  0
 63145  1  0  0  0
 63146  1  0  0  0
 64147  1  0  0  0
 65148  1  0  0  0
 68 81  1  0  0  0
 71 73  2  0  0  0
 71 74  1  0  0  0
 71149  1  0  0  0
 72 75  2  0  0  0
 72 76  1  0  0  0
 72150  1  0  0  0
 73 75  1  0  0  0
 73 82  1  0  0  0
 74 76  2  0  0  0
 74 85  1  0  0  0
 75 86  1  0  0  0
 76 89  1  0  0  0
 77 78  2  0  0  0
 77 79  1  0  0  0
 77 88  1  0  0  0
 78 83  1  0  0  0
 78 84  1  0  0  0
 79 81  1  0  0  0
 79151  1  0  0  0
 79152  1  0  0  0
 80 81  1  0  0  0
 80 88  1  0  0  0
 80153  1  0  0  0
 80154  1  0  0  0
 81155  1  0  0  0
 82156  1  0  0  0
 82157  1  0  0  0
 82158  1  0  0  0
 83159  1  0  0  0
 83160  1  0  0  0
 83161  1  0  0  0
 84162  1  0  0  0
 84163  1  0  0  0
 84164  1  0  0  0
 85 87  1  0  0  0
 85165  1  0  0  0
 85166  1  0  0  0
 86167  1  0  0  0
 86168  1  0  0  0
 86 88  1  0  0  0
 87169  1  0  0  0
 88170  1  0  0  0
M  CHG  1  88   1
M  ISO  4   1 100  68 101  81 101  87 100
M  END
> <chiral flag>
0

> <version>
0

> <s_m_source_file>
/data/baiqing/PycharmProjects/Reinvent-master-3.2/result/LINK_invent/BTK/process_docking_weight1_custom_product_contain_oxygen_bond_distance_aromatic_linkinvent_7_9_3/rearranged_h_0032.sdf

> <i_m_source_file_index>
68

> <r_mmod_Potential_Energy-OPLS-2005>
-34.7104187011719

> <r_mmod_Stretch_Energy-OPLS-2005>
48.8229827880859

> <r_mmod_Bend_Energy-OPLS-2005>
164.536499023438

> <r_mmod_Torsional_Energy-OPLS-2005>
305.346801757812

> <r_mmod_Improper_Torsional_Energy-OPLS-2005>
11.2119636535645

> <r_mmod_Van_der_Waal_Energy-OPLS-2005>
149.927551269531

> <r_mmod_Electrostatic_Energy-OPLS-2005>
-332.176940917969

> <r_mmod_Solvation_Energy-OPLS-2005>
-424.182403564453

> <b_mmod_Minimization_Converged-OPLS-2005>
0

> <r_mmod_RMS_Derivative-OPLS-2005>
12.8544101715088

$$$$
68
                    3D
 Structure written by MMmdl.
161170  0  0  1  0            999 V2000
  -30.5905  -14.7145   20.4747 C   0  0  0  0  0  0
  -30.4459  -12.4333   19.4673 C   0  0  0  0  0  0
  -29.5152  -12.5072   18.2345 C   0  0  0  0  0  0
  -28.0365  -12.3470   18.6417 C   0  0  0  0  0  0
  -27.6517  -13.2250   19.8628 C   0  0  2  0  0  0
  -28.6963  -13.1049   20.9947 C   0  0  0  0  0  0
  -25.2551  -13.8197   20.5695 C   0  0  0  0  0  0
  -24.1826  -13.0444   20.9190 C   0  0  0  0  0  0
  -24.6412  -11.6919   20.8736 C   0  0  0  0  0  0
  -23.9082  -10.4301   21.0406 C   0  0  0  0  0  0
  -24.3637   -9.4219   21.9183 C   0  0  0  0  0  0
  -23.6311   -8.2253   22.0762 C   0  0  0  0  0  0
  -22.4291   -8.0293   21.3552 C   0  0  0  0  0  0
  -21.9922   -9.0261   20.4647 C   0  0  0  0  0  0
  -22.7252  -10.2141   20.3054 C   0  0  0  0  0  0
  -21.6857   -6.0744   22.5278 C   0  0  0  0  0  0
  -21.4009   -6.5649   23.8209 C   0  0  0  0  0  0
  -21.3661   -5.6802   24.9175 C   0  0  0  0  0  0
  -21.6049   -4.3065   24.7221 C   0  0  0  0  0  0
  -21.8825   -3.8155   23.4344 C   0  0  0  0  0  0
  -21.9199   -4.6972   22.3401 C   0  0  0  0  0  0
  -22.7844  -13.5223   21.1863 C   0  0  0  0  0  0
  -22.1669   -4.2159   21.0977 F   0  0  0  0  0  0
  -21.5630   -3.4551   25.7732 F   0  0  0  0  0  0
  -30.0054  -13.4685   20.4292 N   0  0  0  0  0  0
  -26.2985  -12.9388   20.3317 N   0  0  0  0  0  0
  -25.9341  -11.6533   20.5751 N   0  0  0  0  0  0
  -22.0502  -12.8193   22.0417 N   0  0  0  0  0  0
  -25.4236  -15.1919   20.4139 N   0  0  0  0  0  0
  -31.7577  -14.8688   20.1044 O   0  0  0  0  0  0
  -21.6652   -6.8892   21.4244 O   0  0  0  0  0  0
  -22.3511  -14.5521   20.6715 O   0  0  0  0  0  0
  -24.6313  -31.8556   23.1987 C   0  0  0  0  0  0
  -25.9140  -32.4758   23.8329 C   0  0  1  0  0  0
  -27.2249  -27.2742   20.1274 C   0  0  0  0  0  0
  -25.5942  -33.8562   24.2257 N   0  0  0  0  0  0
  -23.4272  -30.4792   21.5410 C   0  0  2  0  0  0
  -24.8760  -28.9266   20.1085 C   0  0  0  0  0  0
  -22.7495  -29.4608   22.4899 C   0  0  0  0  0  0
  -18.0300  -28.1391   22.8496 C   0  0  0  0  0  0
  -24.1490  -36.7281   23.2639 C   0  0  0  0  0  0
  -25.9716  -30.7740   21.3745 C   0  0  0  0  0  0
  -26.0465  -29.3970   20.7168 C   0  0  0  0  0  0
  -27.2243  -28.5838   20.7141 C   0  0  0  0  0  0
  -26.0341  -26.8738   19.4797 C   0  0  0  0  0  0
  -24.8736  -27.6722   19.4806 C   0  0  0  0  0  0
  -23.6450  -29.8122   20.1575 C   0  0  0  0  0  0
  -25.4113  -36.3070   24.0325 C   0  0  1  0  0  0
  -20.5901  -28.3701   23.1272 C   0  0  2  0  0  0
  -20.6779  -26.9412   22.5421 C   0  0  0  0  0  0
  -19.5754  -26.6378   21.5230 C   0  0  0  0  0  0
  -18.1934  -26.7931   22.1634 C   0  0  0  0  0  0
  -19.1553  -28.8866   23.2878 C   0  0  0  0  0  0
  -18.9470  -30.1467   23.8893 C   0  0  0  0  0  0
  -17.6466  -30.6588   24.0570 C   0  0  0  0  0  0
  -25.9052  -34.9444   23.5089 C   0  0  0  0  0  0
  -16.5361  -29.9085   23.6334 C   0  0  0  0  0  0
  -16.7286  -28.6504   23.0357 C   0  0  0  0  0  0
  -26.4509  -31.6585   25.0721 C   0  0  0  0  0  0
  -25.3737  -31.3738   26.1449 C   0  0  0  0  0  0
  -27.0363  -30.3005   24.6198 C   0  0  0  0  0  0
  -27.6049  -32.4338   25.7507 C   0  0  0  0  0  0
  -27.5575  -37.1796   24.8460 C   0  0  0  0  0  0
  -21.4200  -29.3051   22.3653 N   0  0  0  0  0  0
  -26.4280  -37.3773   23.9412 N   0  0  0  0  0  0
  -24.6959  -31.0532   22.0955 N   0  0  0  0  0  0
  -23.4197  -28.8145   23.2993 O   0  0  0  0  0  0
  -28.3226  -26.3855   20.1873 O   0  0  0  0  0  0
  -26.5621  -34.8922   22.4656 O   0  0  0  0  0  0
  -23.5466  -32.1370   23.7293 O   0  0  0  0  0  0
  -29.1765  -19.4734   21.5883 C   0  0  0  0  0  0
  -29.4749  -18.0827   21.7182 C   0  0  0  0  0  0
  -29.1268  -20.1462   20.3377 C   0  0  0  0  0  0
  -29.4790  -19.3215   19.2129 C   0  0  0  0  0  0
  -29.7543  -17.8963   19.3354 C   0  0  0  0  0  0
  -29.7529  -17.2335   20.6124 C   0  0  0  0  0  0
  -28.7198  -23.9898   19.2478 C   0  0  0  0  0  0
  -28.9582  -24.1380   17.9338 C   0  0  0  0  0  0
  -28.9455  -23.9885   21.2012 C   0  0  0  0  0  0
  -28.0561  -24.9053   20.2807 C   0  0  1  0  0  0
  -29.4996  -19.9611   17.8283 C   0  0  0  0  0  0
  -28.4381  -21.5987   20.2326 C   0  0  0  0  0  0
  -29.9583  -17.0550   18.0678 C   0  0  0  0  0  0
  -29.7728  -15.7659   20.8479 N   0  0  0  0  0  0
  -29.1900  -22.9373   20.1534 N   0  3  2  0  0  0
  -29.1554  -15.9908   18.0536 F   0  0  0  0  0  0
  -31.2275  -16.6688   17.9510 F   0  0  0  0  0  0
  -31.4841  -12.5735   19.1601 H   0  0  0  0  0  0
  -30.4024  -11.4446   19.9273 H   0  0  0  0  0  0
  -29.7866  -11.7377   17.5102 H   0  0  0  0  0  0
  -29.6538  -13.4620   17.7273 H   0  0  0  0  0  0
  -27.8704  -11.2947   18.8751 H   0  0  0  0  0  0
  -27.3873  -12.5757   17.7962 H   0  0  0  0  0  0
  -27.6596  -14.2572   19.5128 H   0  0  0  0  0  0
  -28.7221  -12.0866   21.3857 H   0  0  0  0  0  0
  -28.4303  -13.7388   21.8411 H   0  0  0  0  0  0
  -25.2795   -9.5694   22.4739 H   0  0  0  0  0  0
  -24.0034   -7.4646   22.7478 H   0  0  0  0  0  0
  -21.0862   -8.8778   19.8940 H   0  0  0  0  0  0
  -22.3723  -10.9680   19.6157 H   0  0  0  0  0  0
  -21.1999   -7.6155   23.9713 H   0  0  0  0  0  0
  -21.1471   -6.0533   25.9076 H   0  0  0  0  0  0
  -22.0604   -2.7616   23.2840 H   0  0  0  0  0  0
  -22.4150  -11.9862   22.4781 H   0  0  0  0  0  0
  -21.1114  -13.1186   22.2637 H   0  0  0  0  0  0
  -24.6552  -15.8443   20.5266 H   0  0  0  0  0  0
  -26.2727  -15.6343   20.0851 H   0  0  0  0  0  0
  -26.7207  -32.5420   23.1072 H   0  0  0  0  0  0
  -25.0125  -33.9697   25.0430 H   0  0  0  0  0  0
  -22.7246  -31.3025   21.3946 H   0  0  0  0  0  0
  -23.3763  -35.9602   23.3290 H   0  0  0  0  0  0
  -24.3573  -36.8921   22.2053 H   0  0  0  0  0  0
  -23.7234  -37.6474   23.6674 H   0  0  0  0  0  0
  -26.1045  -31.5343   20.6034 H   0  0  0  0  0  0
  -26.8512  -30.8252   22.0046 H   0  0  0  0  0  0
  -28.1202  -28.9369   21.2053 H   0  0  0  0  0  0
  -25.9776  -25.9205   18.9746 H   0  0  0  0  0  0
  -23.9774  -27.3093   18.9966 H   0  0  0  0  0  0
  -23.7678  -30.5885   19.4013 H   0  0  0  0  0  0
  -22.7631  -29.2452   19.8540 H   0  0  0  0  0  0
  -25.1295  -36.1906   25.0815 H   0  0  0  0  0  0
  -21.0012  -28.3287   24.1386 H   0  0  0  0  0  0
  -20.5694  -26.2305   23.3628 H   0  0  0  0  0  0
  -21.6643  -26.7432   22.1211 H   0  0  0  0  0  0
  -19.6905  -25.6290   21.1259 H   0  0  0  0  0  0
  -19.6688  -27.3190   20.6766 H   0  0  0  0  0  0
  -17.4203  -26.6717   21.4029 H   0  0  0  0  0  0
  -18.0303  -26.0065   22.9021 H   0  0  0  0  0  0
  -19.7940  -30.7299   24.2244 H   0  0  0  0  0  0
  -17.5014  -31.6267   24.5177 H   0  0  0  0  0  0
  -15.5359  -30.2990   23.7645 H   0  0  0  0  0  0
  -15.8689  -28.0825   22.7065 H   0  0  0  0  0  0
  -24.5915  -30.7077   25.7791 H   0  0  0  0  0  0
  -24.8938  -32.2918   26.4852 H   0  0  0  0  0  0
  -25.8071  -30.8942   27.0234 H   0  0  0  0  0  0
  -26.2953  -29.6747   24.1212 H   0  0  0  0  0  0
  -27.4043  -29.7268   25.4712 H   0  0  0  0  0  0
  -27.8823  -30.4294   23.9444 H   0  0  0  0  0  0
  -27.2639  -33.3641   26.2061 H   0  0  0  0  0  0
  -28.3879  -32.6894   25.0357 H   0  0  0  0  0  0
  -28.0690  -31.8482   26.5452 H   0  0  0  0  0  0
  -28.2577  -38.0111   24.7530 H   0  0  0  0  0  0
  -28.1093  -36.2642   24.6260 H   0  0  0  0  0  0
  -27.2294  -37.1409   25.8863 H   0  0  0  0  0  0
  -20.9371  -29.8790   21.6880 H   0  0  0  0  0  0
  -26.0158  -38.2837   24.1451 H   0  0  0  0  0  0
  -28.8964  -20.0132   22.4818 H   0  0  0  0  0  0
  -29.4178  -17.6462   22.7064 H   0  0  0  0  0  0
  -28.6030  -25.0127   17.4082 H   0  0  0  0  0  0
  -29.5148  -23.4065   17.3662 H   0  0  0  0  0  0
  -28.4315  -23.6198   22.0887 H   0  0  0  0  0  0
  -29.8768  -24.4778   21.4921 H   0  0  0  0  0  0
  -27.0098  -24.6818   20.4938 H   0  0  0  0  0  0
  -29.4767  -21.0477   17.8560 H   0  0  0  0  0  0
  -28.6466  -19.6277   17.2364 H   0  0  0  0  0  0
  -30.4153  -19.6991   17.2977 H   0  0  0  0  0  0
  -27.7341  -21.6703   21.0614 H   0  0  0  0  0  0
  -27.7833  -21.5596   19.3619 H   0  0  0  0  0  0
  -29.7213  -17.5713   17.1416 H   0  0  0  0  0  0
  -28.9498  -15.4306   21.3240 H   0  0  0  0  0  0
  -30.1801  -22.7738   20.0560 H   0  0  0  0  0  0
  1 25  1  0  0  0
  1 30  2  0  0  0
  1 84  1  0  0  0
  2  3  1  0  0  0
  2 25  1  0  0  0
  2 88  1  0  0  0
  2 89  1  0  0  0
  3  4  1  0  0  0
  3 90  1  0  0  0
  3 91  1  0  0  0
  4  5  1  0  0  0
  4 92  1  0  0  0
  4 93  1  0  0  0
  5  6  1  0  0  0
  5 26  1  0  0  0
  5 94  1  0  0  0
  6 25  1  0  0  0
  6 95  1  0  0  0
  6 96  1  0  0  0
  7  8  2  0  0  0
  7 26  1  0  0  0
  7 29  1  0  0  0
  8  9  1  0  0  0
  8 22  1  0  0  0
  9 10  1  0  0  0
  9 27  2  0  0  0
 10 11  2  0  0  0
 10 15  1  0  0  0
 11 12  1  0  0  0
 11 97  1  0  0  0
 12 13  2  0  0  0
 12 98  1  0  0  0
 13 14  1  0  0  0
 13 31  1  0  0  0
 14 15  2  0  0  0
 14 99  1  0  0  0
 15100  1  0  0  0
 16 17  2  0  0  0
 16 21  1  0  0  0
 16 31  1  0  0  0
 17 18  1  0  0  0
 17101  1  0  0  0
 18 19  2  0  0  0
 18102  1  0  0  0
 19 20  1  0  0  0
 19 24  1  0  0  0
 20 21  2  0  0  0
 20103  1  0  0  0
 21 23  1  0  0  0
 22 28  1  0  0  0
 22 32  2  0  0  0
 26 27  1  0  0  0
 28104  1  0  0  0
 28105  1  0  0  0
 29106  1  0  0  0
 29107  1  0  0  0
 33 34  1  0  0  0
 33 66  1  0  0  0
 33 70  2  0  0  0
 34 36  1  0  0  0
 34 59  1  0  0  0
 34108  1  0  0  0
 35 44  2  0  0  0
 35 45  1  0  0  0
 35 68  1  0  0  0
 36 56  1  0  0  0
 36109  1  0  0  0
 37 39  1  0  0  0
 37 47  1  0  0  0
 37 66  1  0  0  0
 37110  1  0  0  0
 38 43  2  0  0  0
 38 46  1  0  0  0
 38 47  1  0  0  0
 39 64  1  0  0  0
 39 67  2  0  0  0
 40 52  1  0  0  0
 40 53  2  0  0  0
 40 58  1  0  0  0
 41111  1  0  0  0
 41112  1  0  0  0
 41113  1  0  0  0
 41 48  1  0  0  0
 42 43  1  0  0  0
 42 66  1  0  0  0
 42114  1  0  0  0
 42115  1  0  0  0
 43 44  1  0  0  0
 44116  1  0  0  0
 45 46  2  0  0  0
 45117  1  0  0  0
 46118  1  0  0  0
 47119  1  0  0  0
 47120  1  0  0  0
 48 56  1  0  0  0
 48 65  1  0  0  0
 48121  1  0  0  0
 49 50  1  0  0  0
 49 53  1  0  0  0
 49 64  1  0  0  0
 49122  1  0  0  0
 50 51  1  0  0  0
 50123  1  0  0  0
 50124  1  0  0  0
 51 52  1  0  0  0
 51125  1  0  0  0
 51126  1  0  0  0
 52127  1  0  0  0
 52128  1  0  0  0
 53 54  1  0  0  0
 54 55  2  0  0  0
 54129  1  0  0  0
 55 57  1  0  0  0
 55130  1  0  0  0
 56 69  2  0  0  0
 57 58  2  0  0  0
 57131  1  0  0  0
 58132  1  0  0  0
 59 60  1  0  0  0
 59 61  1  0  0  0
 59 62  1  0  0  0
 60133  1  0  0  0
 60134  1  0  0  0
 60135  1  0  0  0
 61136  1  0  0  0
 61137  1  0  0  0
 61138  1  0  0  0
 62139  1  0  0  0
 62140  1  0  0  0
 62141  1  0  0  0
 63 65  1  0  0  0
 63142  1  0  0  0
 63143  1  0  0  0
 63144  1  0  0  0
 64145  1  0  0  0
 65146  1  0  0  0
 68 80  1  0  0  0
 71 72  2  0  0  0
 71 73  1  0  0  0
 71147  1  0  0  0
 72 76  1  0  0  0
 72148  1  0  0  0
 73 74  2  0  0  0
 73 82  1  0  0  0
 74 75  1  0  0  0
 74 81  1  0  0  0
 75 76  2  0  0  0
 75 83  1  0  0  0
 76 84  1  0  0  0
 77 78  2  0  0  0
 77 80  1  0  0  0
 77 85  1  0  0  0
 78149  1  0  0  0
 78150  1  0  0  0
 79 80  1  0  0  0
 79 85  1  0  0  0
 79151  1  0  0  0
 79152  1  0  0  0
 80153  1  0  0  0
 81154  1  0  0  0
 81155  1  0  0  0
 81156  1  0  0  0
 82157  1  0  0  0
 82158  1  0  0  0
 82 85  1  0  0  0
 83 86  1  0  0  0
 83 87  1  0  0  0
 83159  1  0  0  0
 84160  1  0  0  0
 85161  1  0  0  0
M  CHG  1  85   1
M  ISO  4   1 100  68 101  80 101  84 100
M  END
> <chiral flag>
0

> <version>
0

> <s_m_source_file>
/data/baiqing/PycharmProjects/Reinvent-master-3.2/result/LINK_invent/BTK/process_docking_weight1_custom_product_contain_oxygen_bond_distance_aromatic_linkinvent_7_9_3/rearranged_h_0032.sdf

> <i_m_source_file_index>
69

> <r_mmod_Potential_Energy-OPLS-2005>
61.3034934997559

> <r_mmod_Stretch_Energy-OPLS-2005>
115.493423461914

> <r_mmod_Bend_Energy-OPLS-2005>
201.269836425781

> <r_mmod_Torsional_Energy-OPLS-2005>
262.224151611328

> <r_mmod_Improper_Torsional_Energy-OPLS-2005>
6.4156699180603

> <r_mmod_Van_der_Waal_Energy-OPLS-2005>
137.626037597656

> <r_mmod_Electrostatic_Energy-OPLS-2005>
-265.598754882812

> <r_mmod_Solvation_Energy-OPLS-2005>
-470.085266113281

> <b_mmod_Minimization_Converged-OPLS-2005>
0

> <r_mmod_RMS_Derivative-OPLS-2005>
1.40068387985229

$$$$
69
                    3D
 Structure written by MMmdl.
160169  0  0  1  0            999 V2000
  -30.5880  -14.7136   20.4893 C   0  0  0  0  0  0
  -30.4461  -12.4374   19.4650 C   0  0  0  0  0  0
  -29.5141  -12.5161   18.2337 C   0  0  0  0  0  0
  -28.0383  -12.3411   18.6452 C   0  0  0  0  0  0
  -27.6520  -13.2213   19.8632 C   0  0  2  0  0  0
  -28.6967  -13.0998   20.9955 C   0  0  0  0  0  0
  -25.2557  -13.8178   20.5695 C   0  0  0  0  0  0
  -24.1827  -13.0440   20.9198 C   0  0  0  0  0  0
  -24.6400  -11.6912   20.8742 C   0  0  0  0  0  0
  -23.9069  -10.4294   21.0405 C   0  0  0  0  0  0
  -24.3618   -9.4208   21.9182 C   0  0  0  0  0  0
  -23.6292   -8.2245   22.0754 C   0  0  0  0  0  0
  -22.4273   -8.0283   21.3545 C   0  0  0  0  0  0
  -21.9908   -9.0259   20.4648 C   0  0  0  0  0  0
  -22.7240  -10.2136   20.3056 C   0  0  0  0  0  0
  -21.6853   -6.0735   22.5278 C   0  0  0  0  0  0
  -21.4015   -6.5639   23.8212 C   0  0  0  0  0  0
  -21.3659   -5.6792   24.9174 C   0  0  0  0  0  0
  -21.6044   -4.3055   24.7225 C   0  0  0  0  0  0
  -21.8819   -3.8147   23.4346 C   0  0  0  0  0  0
  -21.9193   -4.6963   22.3402 C   0  0  0  0  0  0
  -22.7849  -13.5232   21.1857 C   0  0  0  0  0  0
  -22.1661   -4.2148   21.0979 F   0  0  0  0  0  0
  -21.5627   -3.4539   25.7738 F   0  0  0  0  0  0
  -30.0058  -13.4674   20.4319 N   0  0  0  0  0  0
  -26.2986  -12.9364   20.3321 N   0  0  0  0  0  0
  -25.9331  -11.6516   20.5758 N   0  0  0  0  0  0
  -22.0488  -12.8226   22.0414 N   0  0  0  0  0  0
  -25.4268  -15.1899   20.4105 N   0  0  0  0  0  0
  -31.7447  -14.8847   20.0909 O   0  0  0  0  0  0
  -21.6640   -6.8879   21.4240 O   0  0  0  0  0  0
  -22.3535  -14.5539   20.6705 O   0  0  0  0  0  0
  -24.6307  -31.8562   23.2003 C   0  0  0  0  0  0
  -25.9137  -32.4760   23.8342 C   0  0  1  0  0  0
  -27.2193  -27.2672   20.1273 C   0  0  0  0  0  0
  -25.5936  -33.8563   24.2265 N   0  0  0  0  0  0
  -23.4270  -30.4799   21.5435 C   0  0  2  0  0  0
  -24.8744  -28.9304   20.1102 C   0  0  0  0  0  0
  -22.7499  -29.4605   22.4916 C   0  0  0  0  0  0
  -18.0292  -28.1387   22.8485 C   0  0  0  0  0  0
  -24.1489  -36.7285   23.2639 C   0  0  0  0  0  0
  -25.9731  -30.7693   21.3819 C   0  0  0  0  0  0
  -26.0450  -29.3926   20.7244 C   0  0  0  0  0  0
  -27.2190  -28.5728   20.7246 C   0  0  0  0  0  0
  -26.0317  -26.8868   19.4599 C   0  0  0  0  0  0
  -24.8730  -27.6850   19.4669 C   0  0  0  0  0  0
  -23.6451  -29.8163   20.1588 C   0  0  0  0  0  0
  -25.4115  -36.3073   24.0326 C   0  0  1  0  0  0
  -20.5895  -28.3697   23.1269 C   0  0  2  0  0  0
  -20.6779  -26.9414   22.5408 C   0  0  0  0  0  0
  -19.5754  -26.6384   21.5211 C   0  0  0  0  0  0
  -18.1935  -26.7931   22.1624 C   0  0  0  0  0  0
  -19.1546  -28.8860   23.2873 C   0  0  0  0  0  0
  -18.9466  -30.1461   23.8891 C   0  0  0  0  0  0
  -17.6464  -30.6588   24.0562 C   0  0  0  0  0  0
  -25.9056  -34.9442   23.5098 C   0  0  0  0  0  0
  -16.5356  -29.9085   23.6330 C   0  0  0  0  0  0
  -16.7279  -28.6502   23.0352 C   0  0  0  0  0  0
  -26.4505  -31.6584   25.0730 C   0  0  0  0  0  0
  -25.3727  -31.3739   26.1450 C   0  0  0  0  0  0
  -27.0354  -30.2999   24.6222 C   0  0  0  0  0  0
  -27.6058  -32.4328   25.7503 C   0  0  0  0  0  0
  -27.5578  -37.1800   24.8467 C   0  0  0  0  0  0
  -21.4207  -29.3045   22.3659 N   0  0  0  0  0  0
  -26.4292  -37.3769   23.9406 N   0  0  0  0  0  0
  -24.6958  -31.0530   22.0981 N   0  0  0  0  0  0
  -23.4203  -28.8139   23.3007 O   0  0  0  0  0  0
  -28.3174  -26.3754   20.1853 O   0  0  0  0  0  0
  -26.5624  -34.8914   22.4665 O   0  0  0  0  0  0
  -23.5457  -32.1385   23.7297 O   0  0  0  0  0  0
  -30.4584  -19.4032   19.7481 C   0  0  0  0  0  0
  -30.5232  -17.9735   19.8223 C   0  0  0  0  0  0
  -29.6966  -20.2152   20.6432 C   0  0  0  0  0  0
  -28.9635  -19.4723   21.6269 C   0  0  0  0  0  0
  -29.0093  -18.0242   21.6881 C   0  0  0  0  0  0
  -29.8084  -17.2322   20.7994 C   0  0  0  0  0  0
  -28.6500  -23.9963   21.3368 C   0  0  0  0  0  0
  -28.9647  -23.9105   19.3577 C   0  0  0  0  0  0
  -28.0754  -24.8848   20.1947 C   0  0  2  0  0  0
  -28.1392  -20.2266   22.6662 C   0  0  0  0  0  0
  -28.1933  -17.2720   22.7415 C   0  0  0  0  0  0
  -29.8929  -21.8126   20.6412 C   0  0  0  0  0  0
  -29.7692  -15.7516   20.8882 N   0  0  0  0  0  0
  -28.7789  -22.8429   20.3895 N   0  3  1  0  0  0
  -31.4845  -12.5788   19.1606 H   0  0  0  0  0  0
  -30.4015  -11.4470   19.9206 H   0  0  0  0  0  0
  -29.7903  -11.7558   17.5018 H   0  0  0  0  0  0
  -29.6434  -13.4791   17.7373 H   0  0  0  0  0  0
  -27.8872  -11.2889   18.8892 H   0  0  0  0  0  0
  -27.3820  -12.5539   17.8005 H   0  0  0  0  0  0
  -27.6624  -14.2528   19.5101 H   0  0  0  0  0  0
  -28.7254  -12.0806   21.3835 H   0  0  0  0  0  0
  -28.4284  -13.7315   21.8435 H   0  0  0  0  0  0
  -25.2762   -9.5683   22.4757 H   0  0  0  0  0  0
  -24.0000   -7.4635   22.7473 H   0  0  0  0  0  0
  -21.0838   -8.8779   19.8955 H   0  0  0  0  0  0
  -22.3698  -10.9675   19.6166 H   0  0  0  0  0  0
  -21.2009   -7.6147   23.9715 H   0  0  0  0  0  0
  -21.1479   -6.0522   25.9076 H   0  0  0  0  0  0
  -22.0599   -2.7609   23.2848 H   0  0  0  0  0  0
  -22.4099  -11.9886   22.4802 H   0  0  0  0  0  0
  -21.1107  -13.1254   22.2616 H   0  0  0  0  0  0
  -24.6562  -15.8413   20.5117 H   0  0  0  0  0  0
  -26.2687  -15.6266   20.0576 H   0  0  0  0  0  0
  -26.7201  -32.5413   23.1082 H   0  0  0  0  0  0
  -25.0084  -33.9701   25.0411 H   0  0  0  0  0  0
  -22.7230  -31.3021   21.3988 H   0  0  0  0  0  0
  -23.3750  -35.9620   23.3306 H   0  0  0  0  0  0
  -24.3577  -36.8903   22.2052 H   0  0  0  0  0  0
  -23.7244  -37.6489   23.6660 H   0  0  0  0  0  0
  -26.1131  -31.5298   20.6125 H   0  0  0  0  0  0
  -26.8503  -30.8172   22.0153 H   0  0  0  0  0  0
  -28.1128  -28.9203   21.2235 H   0  0  0  0  0  0
  -25.9682  -25.9571   18.9158 H   0  0  0  0  0  0
  -23.9824  -27.3336   18.9639 H   0  0  0  0  0  0
  -23.7695  -30.5938   19.4043 H   0  0  0  0  0  0
  -22.7635  -29.2500   19.8530 H   0  0  0  0  0  0
  -25.1296  -36.1923   25.0819 H   0  0  0  0  0  0
  -20.9989  -28.3277   24.1389 H   0  0  0  0  0  0
  -20.5675  -26.2308   23.3614 H   0  0  0  0  0  0
  -21.6647  -26.7436   22.1203 H   0  0  0  0  0  0
  -19.6913  -25.6293   21.1245 H   0  0  0  0  0  0
  -19.6690  -27.3191   20.6739 H   0  0  0  0  0  0
  -17.4202  -26.6677   21.4029 H   0  0  0  0  0  0
  -18.0335  -26.0075   22.9022 H   0  0  0  0  0  0
  -19.7941  -30.7280   24.2257 H   0  0  0  0  0  0
  -17.5018  -31.6267   24.5166 H   0  0  0  0  0  0
  -15.5356  -30.2983   23.7658 H   0  0  0  0  0  0
  -15.8679  -28.0819   22.7069 H   0  0  0  0  0  0
  -24.5907  -30.7079   25.7783 H   0  0  0  0  0  0
  -24.8912  -32.2910   26.4854 H   0  0  0  0  0  0
  -25.8043  -30.8935   27.0239 H   0  0  0  0  0  0
  -26.2941  -29.6743   24.1235 H   0  0  0  0  0  0
  -27.4018  -29.7266   25.4748 H   0  0  0  0  0  0
  -27.8828  -30.4269   23.9481 H   0  0  0  0  0  0
  -27.2664  -33.3631   26.2069 H   0  0  0  0  0  0
  -28.3874  -32.6883   25.0336 H   0  0  0  0  0  0
  -28.0720  -31.8462   26.5429 H   0  0  0  0  0  0
  -28.2601  -38.0091   24.7502 H   0  0  0  0  0  0
  -28.1068  -36.2621   24.6308 H   0  0  0  0  0  0
  -27.2295  -37.1469   25.8870 H   0  0  0  0  0  0
  -20.9391  -29.8775   21.6871 H   0  0  0  0  0  0
  -26.0173  -38.2846   24.1399 H   0  0  0  0  0  0
  -31.0623  -19.8884   18.9935 H   0  0  0  0  0  0
  -31.1357  -17.4467   19.1036 H   0  0  0  0  0  0
  -27.9546  -23.8138   22.1562 H   0  0  0  0  0  0
  -29.6107  -24.3543   21.7145 H   0  0  0  0  0  0
  -29.9997  -24.2473   19.2654 H   0  0  0  0  0  0
  -28.5521  -23.6487   18.3834 H   0  0  0  0  0  0
  -27.0239  -24.6215   20.0875 H   0  0  0  0  0  0
  -28.1143  -21.3013   22.5150 H   0  0  0  0  0  0
  -28.5460  -20.0609   23.6645 H   0  0  0  0  0  0
  -27.1036  -19.8844   22.6549 H   0  0  0  0  0  0
  -27.8609  -17.8852   23.5755 H   0  0  0  0  0  0
  -28.7794  -16.4687   23.1886 H   0  0  0  0  0  0
  -27.3080  -16.8305   22.2831 H   0  0  0  0  0  0
  -30.6882  -22.0328   19.9293 H   0  0  0  0  0  0
  -30.3368  -22.0516   21.6077 H   0  0  0  0  0  0
  -28.9190  -15.4013   21.3007 H   0  0  0  0  0  0
  -27.8899  -22.3861   20.2589 H   0  0  0  0  0  0
  1 25  1  0  0  0
  1 30  2  0  0  0
  1 83  1  0  0  0
  2  3  1  0  0  0
  2 25  1  0  0  0
  2 85  1  0  0  0
  2 86  1  0  0  0
  3  4  1  0  0  0
  3 87  1  0  0  0
  3 88  1  0  0  0
  4  5  1  0  0  0
  4 89  1  0  0  0
  4 90  1  0  0  0
  5  6  1  0  0  0
  5 26  1  0  0  0
  5 91  1  0  0  0
  6 25  1  0  0  0
  6 92  1  0  0  0
  6 93  1  0  0  0
  7  8  2  0  0  0
  7 26  1  0  0  0
  7 29  1  0  0  0
  8  9  1  0  0  0
  8 22  1  0  0  0
  9 10  1  0  0  0
  9 27  2  0  0  0
 10 11  2  0  0  0
 10 15  1  0  0  0
 11 12  1  0  0  0
 11 94  1  0  0  0
 12 13  2  0  0  0
 12 95  1  0  0  0
 13 14  1  0  0  0
 13 31  1  0  0  0
 14 15  2  0  0  0
 14 96  1  0  0  0
 15 97  1  0  0  0
 16 17  2  0  0  0
 16 21  1  0  0  0
 16 31  1  0  0  0
 17 18  1  0  0  0
 17 98  1  0  0  0
 18 19  2  0  0  0
 18 99  1  0  0  0
 19 20  1  0  0  0
 19 24  1  0  0  0
 20 21  2  0  0  0
 20100  1  0  0  0
 21 23  1  0  0  0
 22 28  1  0  0  0
 22 32  2  0  0  0
 26 27  1  0  0  0
 28101  1  0  0  0
 28102  1  0  0  0
 29103  1  0  0  0
 29104  1  0  0  0
 33 34  1  0  0  0
 33 66  1  0  0  0
 33 70  2  0  0  0
 34 36  1  0  0  0
 34 59  1  0  0  0
 34105  1  0  0  0
 35 44  2  0  0  0
 35 45  1  0  0  0
 35 68  1  0  0  0
 36 56  1  0  0  0
 36106  1  0  0  0
 37 39  1  0  0  0
 37 47  1  0  0  0
 37 66  1  0  0  0
 37107  1  0  0  0
 38 43  2  0  0  0
 38 46  1  0  0  0
 38 47  1  0  0  0
 39 64  1  0  0  0
 39 67  2  0  0  0
 40 52  1  0  0  0
 40 53  2  0  0  0
 40 58  1  0  0  0
 41108  1  0  0  0
 41109  1  0  0  0
 41110  1  0  0  0
 41 48  1  0  0  0
 42 43  1  0  0  0
 42 66  1  0  0  0
 42111  1  0  0  0
 42112  1  0  0  0
 43 44  1  0  0  0
 44113  1  0  0  0
 45 46  2  0  0  0
 45114  1  0  0  0
 46115  1  0  0  0
 47116  1  0  0  0
 47117  1  0  0  0
 48 56  1  0  0  0
 48 65  1  0  0  0
 48118  1  0  0  0
 49 50  1  0  0  0
 49 53  1  0  0  0
 49 64  1  0  0  0
 49119  1  0  0  0
 50 51  1  0  0  0
 50120  1  0  0  0
 50121  1  0  0  0
 51 52  1  0  0  0
 51122  1  0  0  0
 51123  1  0  0  0
 52124  1  0  0  0
 52125  1  0  0  0
 53 54  1  0  0  0
 54 55  2  0  0  0
 54126  1  0  0  0
 55 57  1  0  0  0
 55127  1  0  0  0
 56 69  2  0  0  0
 57 58  2  0  0  0
 57128  1  0  0  0
 58129  1  0  0  0
 59 60  1  0  0  0
 59 61  1  0  0  0
 59 62  1  0  0  0
 60130  1  0  0  0
 60131  1  0  0  0
 60132  1  0  0  0
 61133  1  0  0  0
 61134  1  0  0  0
 61135  1  0  0  0
 62136  1  0  0  0
 62137  1  0  0  0
 62138  1  0  0  0
 63 65  1  0  0  0
 63139  1  0  0  0
 63140  1  0  0  0
 63141  1  0  0  0
 64142  1  0  0  0
 65143  1  0  0  0
 68 79  1  0  0  0
 71 72  2  0  0  0
 71 73  1  0  0  0
 71144  1  0  0  0
 72 76  1  0  0  0
 72145  1  0  0  0
 73 74  2  0  0  0
 73 82  1  0  0  0
 74 75  1  0  0  0
 74 80  1  0  0  0
 75 76  2  0  0  0
 75 81  1  0  0  0
 76 83  1  0  0  0
 77 79  1  0  0  0
 77 84  1  0  0  0
 77146  1  0  0  0
 77147  1  0  0  0
 78 79  1  0  0  0
 78 84  1  0  0  0
 78148  1  0  0  0
 78149  1  0  0  0
 79150  1  0  0  0
 80151  1  0  0  0
 80152  1  0  0  0
 80153  1  0  0  0
 81154  1  0  0  0
 81155  1  0  0  0
 81156  1  0  0  0
 82157  1  0  0  0
 82158  1  0  0  0
 82 84  1  0  0  0
 83159  1  0  0  0
 84160  1  0  0  0
M  CHG  1  84   1
M  ISO  4   1 100  68 101  79 101  83 100
M  END
> <chiral flag>
0

> <version>
0

> <s_m_source_file>
/data/baiqing/PycharmProjects/Reinvent-master-3.2/result/LINK_invent/BTK/process_docking_weight1_custom_product_contain_oxygen_bond_distance_aromatic_linkinvent_7_9_3/rearranged_h_0032.sdf

> <i_m_source_file_index>
70

> <r_mmod_Potential_Energy-OPLS-2005>
-34.4198265075684

> <r_mmod_Stretch_Energy-OPLS-2005>
113.463043212891

> <r_mmod_Bend_Energy-OPLS-2005>
195.503936767578

> <r_mmod_Torsional_Energy-OPLS-2005>
237.091735839844

> <r_mmod_Improper_Torsional_Energy-OPLS-2005>
4.56192922592163

> <r_mmod_Van_der_Waal_Energy-OPLS-2005>
150.494094848633

> <r_mmod_Electrostatic_Energy-OPLS-2005>
-340.432769775391

> <r_mmod_Solvation_Energy-OPLS-2005>
-470.812835693359

> <b_mmod_Minimization_Converged-OPLS-2005>
0

> <r_mmod_RMS_Derivative-OPLS-2005>
0.247817024588585

$$$$
70
                    3D
 Structure written by MMmdl.
159167  0  0  1  0            999 V2000
  -30.7405  -14.4835   20.6095 C   0  0  0  0  0  0
  -30.4075  -12.3359   19.4121 C   0  0  0  0  0  0
  -29.4792  -12.5095   18.1923 C   0  0  0  0  0  0
  -27.9985  -12.3790   18.6015 C   0  0  0  0  0  0
  -27.6511  -13.2102   19.8662 C   0  0  2  0  0  0
  -28.6947  -12.9504   20.9724 C   0  0  0  0  0  0
  -25.2514  -13.8173   20.5652 C   0  0  0  0  0  0
  -24.1793  -13.0443   20.9177 C   0  0  0  0  0  0
  -24.6352  -11.6911   20.8703 C   0  0  0  0  0  0
  -23.9026  -10.4300   21.0371 C   0  0  0  0  0  0
  -24.3589   -9.4225   21.9158 C   0  0  0  0  0  0
  -23.6285   -8.2254   22.0738 C   0  0  0  0  0  0
  -22.4267   -8.0274   21.3531 C   0  0  0  0  0  0
  -21.9878   -9.0236   20.4630 C   0  0  0  0  0  0
  -22.7184  -10.2128   20.3032 C   0  0  0  0  0  0
  -21.6859   -6.0727   22.5282 C   0  0  0  0  0  0
  -21.4000   -6.5632   23.8211 C   0  0  0  0  0  0
  -21.3658   -5.6785   24.9173 C   0  0  0  0  0  0
  -21.6058   -4.3053   24.7226 C   0  0  0  0  0  0
  -21.8819   -3.8141   23.4345 C   0  0  0  0  0  0
  -21.9191   -4.6956   22.3403 C   0  0  0  0  0  0
  -22.7814  -13.5217   21.1892 C   0  0  0  0  0  0
  -22.1667   -4.2147   21.0979 F   0  0  0  0  0  0
  -21.5638   -3.4531   25.7737 F   0  0  0  0  0  0
  -30.0105  -13.3311   20.4372 N   0  0  0  0  0  0
  -26.2948  -12.9364   20.3293 N   0  0  0  0  0  0
  -25.9267  -11.6518   20.5700 N   0  0  0  0  0  0
  -22.0469  -12.8193   22.0445 N   0  0  0  0  0  0
  -25.4179  -15.1898   20.4047 N   0  0  0  0  0  0
  -31.8768  -14.5465   20.1316 O   0  0  0  0  0  0
  -21.6640   -6.8867   21.4238 O   0  0  0  0  0  0
  -22.3485  -14.5541   20.6770 O   0  0  0  0  0  0
  -24.6192  -31.8691   23.2101 C   0  0  0  0  0  0
  -25.9077  -32.4823   23.8405 C   0  0  1  0  0  0
  -27.2321  -27.4212   20.0936 C   0  0  0  0  0  0
  -25.5921  -33.8619   24.2343 N   0  0  0  0  0  0
  -23.4060  -30.4980   21.5515 C   0  0  2  0  0  0
  -24.8494  -28.9666   20.1122 C   0  0  0  0  0  0
  -22.7429  -29.4695   22.4963 C   0  0  0  0  0  0
  -18.0286  -28.1392   22.8485 C   0  0  0  0  0  0
  -24.1482  -36.7322   23.2638 C   0  0  0  0  0  0
  -25.9386  -30.8325   21.3637 C   0  0  0  0  0  0
  -26.0140  -29.4680   20.7069 C   0  0  0  0  0  0
  -27.2083  -28.7068   20.6888 C   0  0  0  0  0  0
  -26.0403  -26.9429   19.4937 C   0  0  0  0  0  0
  -24.8598  -27.7042   19.5015 C   0  0  0  0  0  0
  -23.6139  -29.8378   20.1636 C   0  0  0  0  0  0
  -25.4098  -36.3116   24.0342 C   0  0  1  0  0  0
  -20.5887  -28.3699   23.1284 C   0  0  2  0  0  0
  -20.6779  -26.9429   22.5404 C   0  0  0  0  0  0
  -19.5749  -26.6395   21.5209 C   0  0  0  0  0  0
  -18.1930  -26.7935   22.1618 C   0  0  0  0  0  0
  -19.1538  -28.8856   23.2890 C   0  0  0  0  0  0
  -18.9457  -30.1455   23.8907 C   0  0  0  0  0  0
  -17.6460  -30.6590   24.0568 C   0  0  0  0  0  0
  -25.9033  -34.9478   23.5143 C   0  0  0  0  0  0
  -16.5354  -29.9094   23.6325 C   0  0  0  0  0  0
  -16.7275  -28.6516   23.0340 C   0  0  0  0  0  0
  -26.4496  -31.6601   25.0739 C   0  0  0  0  0  0
  -25.3767  -31.3714   26.1495 C   0  0  0  0  0  0
  -27.0318  -30.3036   24.6124 C   0  0  0  0  0  0
  -27.6075  -32.4325   25.7493 C   0  0  0  0  0  0
  -27.5580  -37.1813   24.8466 C   0  0  0  0  0  0
  -21.4162  -29.3068   22.3689 N   0  0  0  0  0  0
  -26.4287  -37.3799   23.9417 N   0  0  0  0  0  0
  -24.6732  -31.0803   22.0998 N   0  0  0  0  0  0
  -23.4193  -28.8232   23.3003 O   0  0  0  0  0  0
  -28.3957  -26.6652   20.1235 O   0  0  0  0  0  0
  -26.5587  -34.8934   22.4702 O   0  0  0  0  0  0
  -23.5381  -32.1431   23.7500 O   0  0  0  0  0  0
  -29.4615  -20.3295   18.6067 C   0  0  0  0  0  0
  -29.2200  -19.0152   18.1803 C   0  0  0  0  0  0
  -30.1146  -20.5762   19.8317 C   0  0  0  0  0  0
  -30.3100  -18.1143   20.1900 C   0  0  0  0  0  0
  -29.6377  -17.9158   18.9492 C   0  0  0  0  0  0
  -30.5403  -19.4630   20.6179 C   0  0  0  0  0  0
  -29.0146  -15.7903   21.9898 C   0  0  0  0  0  0
  -30.9099  -16.9370   21.0063 C   0  0  0  0  0  0
  -30.4113  -22.0387   20.2192 C   0  0  0  0  0  0
  -29.4932  -24.3915   20.2787 C   0  0  0  0  0  0
  -28.2419  -25.2408   19.9427 C   0  0  0  0  0  0
  -30.1728  -15.6422   21.0983 N   0  0  0  0  0  0
  -29.2246  -22.9272   20.1350 N   0  3  0  0  0  0
  -29.3320  -16.3582   18.2663 Cl  0  0  0  0  0  0
  -31.3981  -19.7674   22.0947 Cl  0  0  0  0  0  0
  -31.4464  -12.4306   19.0893 H   0  0  0  0  0  0
  -30.3234  -11.3222   19.8060 H   0  0  0  0  0  0
  -29.7161  -11.7764   17.4194 H   0  0  0  0  0  0
  -29.6523  -13.4862   17.7408 H   0  0  0  0  0  0
  -27.8013  -11.3230   18.7888 H   0  0  0  0  0  0
  -27.3531  -12.6656   17.7709 H   0  0  0  0  0  0
  -27.6968  -14.2601   19.5785 H   0  0  0  0  0  0
  -28.6901  -11.8858   21.2138 H   0  0  0  0  0  0
  -28.4379  -13.4105   21.9178 H   0  0  0  0  0  0
  -25.2728   -9.5743   22.4737 H   0  0  0  0  0  0
  -24.0016   -7.4646   22.7450 H   0  0  0  0  0  0
  -21.0806   -8.8711   19.8948 H   0  0  0  0  0  0
  -22.3585  -10.9657   19.6149 H   0  0  0  0  0  0
  -21.1974   -7.6136   23.9704 H   0  0  0  0  0  0
  -21.1487   -6.0520   25.9077 H   0  0  0  0  0  0
  -22.0597   -2.7606   23.2838 H   0  0  0  0  0  0
  -22.4085  -11.9845   22.4818 H   0  0  0  0  0  0
  -21.1092  -13.1221   22.2708 H   0  0  0  0  0  0
  -24.6472  -15.8391   20.5200 H   0  0  0  0  0  0
  -26.2611  -15.6308   20.0618 H   0  0  0  0  0  0
  -26.7162  -32.5538   23.1183 H   0  0  0  0  0  0
  -25.0092  -33.9773   25.0500 H   0  0  0  0  0  0
  -22.6972  -31.3173   21.4157 H   0  0  0  0  0  0
  -23.3739  -35.9665   23.3309 H   0  0  0  0  0  0
  -24.3584  -36.8920   22.2054 H   0  0  0  0  0  0
  -23.7234  -37.6532   23.6638 H   0  0  0  0  0  0
  -26.0568  -31.5994   20.5965 H   0  0  0  0  0  0
  -26.8253  -30.8825   21.9843 H   0  0  0  0  0  0
  -28.1060  -29.0970   21.1489 H   0  0  0  0  0  0
  -25.9880  -25.9806   19.0086 H   0  0  0  0  0  0
  -23.9663  -27.3104   19.0370 H   0  0  0  0  0  0
  -23.7271  -30.6180   19.4091 H   0  0  0  0  0  0
  -22.7354  -29.2648   19.8618 H   0  0  0  0  0  0
  -25.1272  -36.1991   25.0832 H   0  0  0  0  0  0
  -20.9985  -28.3278   24.1398 H   0  0  0  0  0  0
  -20.5689  -26.2314   23.3605 H   0  0  0  0  0  0
  -21.6649  -26.7467   22.1195 H   0  0  0  0  0  0
  -19.6917  -25.6306   21.1238 H   0  0  0  0  0  0
  -19.6685  -27.3206   20.6738 H   0  0  0  0  0  0
  -17.4207  -26.6691   21.4018 H   0  0  0  0  0  0
  -18.0326  -26.0076   22.9007 H   0  0  0  0  0  0
  -19.7936  -30.7271   24.2279 H   0  0  0  0  0  0
  -17.5016  -31.6267   24.5178 H   0  0  0  0  0  0
  -15.5355  -30.3002   23.7631 H   0  0  0  0  0  0
  -15.8674  -28.0838   22.7033 H   0  0  0  0  0  0
  -24.5918  -30.7085   25.7839 H   0  0  0  0  0  0
  -24.8992  -32.2875   26.4984 H   0  0  0  0  0  0
  -25.8128  -30.8853   27.0230 H   0  0  0  0  0  0
  -26.2854  -29.6794   24.1194 H   0  0  0  0  0  0
  -27.4089  -29.7283   25.4590 H   0  0  0  0  0  0
  -27.8699  -30.4344   23.9273 H   0  0  0  0  0  0
  -27.2684  -33.3591   26.2138 H   0  0  0  0  0  0
  -28.3840  -32.6942   25.0293 H   0  0  0  0  0  0
  -28.0802  -31.8418   26.5350 H   0  0  0  0  0  0
  -28.2612  -38.0097   24.7505 H   0  0  0  0  0  0
  -28.1059  -36.2631   24.6294 H   0  0  0  0  0  0
  -27.2309  -37.1473   25.8872 H   0  0  0  0  0  0
  -20.9320  -29.8799   21.6923 H   0  0  0  0  0  0
  -26.0185  -38.2886   24.1404 H   0  0  0  0  0  0
  -29.1550  -21.1414   17.9632 H   0  0  0  0  0  0
  -28.7299  -18.8472   17.2308 H   0  0  0  0  0  0
  -29.1177  -15.1744   22.8837 H   0  0  0  0  0  0
  -28.0807  -15.5613   21.4804 H   0  0  0  0  0  0
  -28.8989  -16.8127   22.3538 H   0  0  0  0  0  0
  -31.0759  -17.2347   22.0405 H   0  0  0  0  0  0
  -31.9258  -16.8232   20.6263 H   0  0  0  0  0  0
  -31.1835  -22.4063   19.5430 H   0  0  0  0  0  0
  -30.8233  -22.1259   21.2229 H   0  0  0  0  0  0
  -29.8296  -24.5972   21.2960 H   0  0  0  0  0  0
  -30.3079  -24.6807   19.6134 H   0  0  0  0  0  0
  -27.4159  -24.8889   20.5656 H   0  0  0  0  0  0
  -27.9773  -25.0467   18.9021 H   0  0  0  0  0  0
  -28.5639  -22.6315   20.8367 H   0  0  0  0  0  0
  -28.7982  -22.7654   19.2371 H   0  0  0  0  0  0
  1 25  1  0  0  0
  1 30  2  0  0  0
  1 82  1  0  0  0
  2  3  1  0  0  0
  2 25  1  0  0  0
  2 86  1  0  0  0
  2 87  1  0  0  0
  3  4  1  0  0  0
  3 88  1  0  0  0
  3 89  1  0  0  0
  4  5  1  0  0  0
  4 90  1  0  0  0
  4 91  1  0  0  0
  5  6  1  0  0  0
  5 26  1  0  0  0
  5 92  1  0  0  0
  6 25  1  0  0  0
  6 93  1  0  0  0
  6 94  1  0  0  0
  7  8  2  0  0  0
  7 26  1  0  0  0
  7 29  1  0  0  0
  8  9  1  0  0  0
  8 22  1  0  0  0
  9 10  1  0  0  0
  9 27  2  0  0  0
 10 11  2  0  0  0
 10 15  1  0  0  0
 11 12  1  0  0  0
 11 95  1  0  0  0
 12 13  2  0  0  0
 12 96  1  0  0  0
 13 14  1  0  0  0
 13 31  1  0  0  0
 14 15  2  0  0  0
 14 97  1  0  0  0
 15 98  1  0  0  0
 16 17  2  0  0  0
 16 21  1  0  0  0
 16 31  1  0  0  0
 17 18  1  0  0  0
 17 99  1  0  0  0
 18 19  2  0  0  0
 18100  1  0  0  0
 19 20  1  0  0  0
 19 24  1  0  0  0
 20 21  2  0  0  0
 20101  1  0  0  0
 21 23  1  0  0  0
 22 28  1  0  0  0
 22 32  2  0  0  0
 26 27  1  0  0  0
 28102  1  0  0  0
 28103  1  0  0  0
 29104  1  0  0  0
 29105  1  0  0  0
 33 34  1  0  0  0
 33 66  1  0  0  0
 33 70  2  0  0  0
 34 36  1  0  0  0
 34 59  1  0  0  0
 34106  1  0  0  0
 35 44  2  0  0  0
 35 45  1  0  0  0
 35 68  1  0  0  0
 36 56  1  0  0  0
 36107  1  0  0  0
 37 39  1  0  0  0
 37 47  1  0  0  0
 37 66  1  0  0  0
 37108  1  0  0  0
 38 43  2  0  0  0
 38 46  1  0  0  0
 38 47  1  0  0  0
 39 64  1  0  0  0
 39 67  2  0  0  0
 40 52  1  0  0  0
 40 53  2  0  0  0
 40 58  1  0  0  0
 41109  1  0  0  0
 41110  1  0  0  0
 41111  1  0  0  0
 41 48  1  0  0  0
 42 43  1  0  0  0
 42 66  1  0  0  0
 42112  1  0  0  0
 42113  1  0  0  0
 43 44  1  0  0  0
 44114  1  0  0  0
 45 46  2  0  0  0
 45115  1  0  0  0
 46116  1  0  0  0
 47117  1  0  0  0
 47118  1  0  0  0
 48 56  1  0  0  0
 48 65  1  0  0  0
 48119  1  0  0  0
 49 50  1  0  0  0
 49 53  1  0  0  0
 49 64  1  0  0  0
 49120  1  0  0  0
 50 51  1  0  0  0
 50121  1  0  0  0
 50122  1  0  0  0
 51 52  1  0  0  0
 51123  1  0  0  0
 51124  1  0  0  0
 52125  1  0  0  0
 52126  1  0  0  0
 53 54  1  0  0  0
 54 55  2  0  0  0
 54127  1  0  0  0
 55 57  1  0  0  0
 55128  1  0  0  0
 56 69  2  0  0  0
 57 58  2  0  0  0
 57129  1  0  0  0
 58130  1  0  0  0
 59 60  1  0  0  0
 59 61  1  0  0  0
 59 62  1  0  0  0
 60131  1  0  0  0
 60132  1  0  0  0
 60133  1  0  0  0
 61134  1  0  0  0
 61135  1  0  0  0
 61136  1  0  0  0
 62137  1  0  0  0
 62138  1  0  0  0
 62139  1  0  0  0
 63 65  1  0  0  0
 63140  1  0  0  0
 63141  1  0  0  0
 63142  1  0  0  0
 64143  1  0  0  0
 65144  1  0  0  0
 68 81  1  0  0  0
 71 72  2  0  0  0
 71 73  1  0  0  0
 71145  1  0  0  0
 72 75  1  0  0  0
 72146  1  0  0  0
 73 76  2  0  0  0
 73 79  1  0  0  0
 74 75  2  0  0  0
 74 76  1  0  0  0
 74 78  1  0  0  0
 75 84  1  0  0  0
 76 85  1  0  0  0
 77 82  1  0  0  0
 77147  1  0  0  0
 77148  1  0  0  0
 77149  1  0  0  0
 78 82  1  0  0  0
 78150  1  0  0  0
 78151  1  0  0  0
 79 83  1  0  0  0
 79152  1  0  0  0
 79153  1  0  0  0
 80 81  1  0  0  0
 80 83  1  0  0  0
 80154  1  0  0  0
 80155  1  0  0  0
 81156  1  0  0  0
 81157  1  0  0  0
 83158  1  0  0  0
 83159  1  0  0  0
M  CHG  1  83   1
M  ISO  4   1 100  68 101  81 101  82 100
M  END
> <chiral flag>
0

> <version>
0

> <s_m_source_file>
/data/baiqing/PycharmProjects/Reinvent-master-3.2/result/LINK_invent/BTK/process_docking_weight1_custom_product_contain_oxygen_bond_distance_aromatic_linkinvent_7_9_3/rearranged_h_0032.sdf

> <i_m_source_file_index>
71

> <r_mmod_Potential_Energy-OPLS-2005>
-60.4410743713379

> <r_mmod_Stretch_Energy-OPLS-2005>
53.1660270690918

> <r_mmod_Bend_Energy-OPLS-2005>
133.591171264648

> <r_mmod_Torsional_Energy-OPLS-2005>
225.511306762695

> <r_mmod_Improper_Torsional_Energy-OPLS-2005>
5.86865186691284

> <r_mmod_Van_der_Waal_Energy-OPLS-2005>
178.094528198242

> <r_mmod_Electrostatic_Energy-OPLS-2005>
-213.082611083984

> <r_mmod_Solvation_Energy-OPLS-2005>
-461.1435546875

> <b_mmod_Minimization_Converged-OPLS-2005>
0

> <r_mmod_RMS_Derivative-OPLS-2005>
2.60256743431091

$$$$
71
                    3D
 Structure written by MMmdl.
153161  0  0  1  0            999 V2000
  -30.5337  -14.8517   20.4403 C   0  0  0  0  0  0
  -30.4533  -12.5203   19.4761 C   0  0  0  0  0  0
  -29.5226  -12.5267   18.2396 C   0  0  0  0  0  0
  -28.0496  -12.3283   18.6531 C   0  0  0  0  0  0
  -27.6427  -13.2305   19.8478 C   0  0  2  0  0  0
  -28.6914  -13.1786   20.9816 C   0  0  0  0  0  0
  -25.2519  -13.8174   20.5689 C   0  0  0  0  0  0
  -24.1820  -13.0433   20.9222 C   0  0  0  0  0  0
  -24.6414  -11.6914   20.8753 C   0  0  0  0  0  0
  -23.9090  -10.4296   21.0417 C   0  0  0  0  0  0
  -24.3636   -9.4206   21.9196 C   0  0  0  0  0  0
  -23.6301   -8.2244   22.0765 C   0  0  0  0  0  0
  -22.4283   -8.0288   21.3553 C   0  0  0  0  0  0
  -21.9923   -9.0268   20.4660 C   0  0  0  0  0  0
  -22.7262  -10.2140   20.3069 C   0  0  0  0  0  0
  -21.6853   -6.0746   22.5294 C   0  0  0  0  0  0
  -21.4013   -6.5647   23.8232 C   0  0  0  0  0  0
  -21.3656   -5.6792   24.9188 C   0  0  0  0  0  0
  -21.6046   -4.3057   24.7235 C   0  0  0  0  0  0
  -21.8814   -3.8155   23.4355 C   0  0  0  0  0  0
  -21.9192   -4.6972   22.3413 C   0  0  0  0  0  0
  -22.7842  -13.5221   21.1881 C   0  0  0  0  0  0
  -22.1660   -4.2159   21.0989 F   0  0  0  0  0  0
  -21.5627   -3.4541   25.7745 F   0  0  0  0  0  0
  -29.9822  -13.5806   20.4014 N   0  0  0  0  0  0
  -26.2949  -12.9385   20.3253 N   0  0  0  0  0  0
  -25.9340  -11.6534   20.5734 N   0  0  0  0  0  0
  -22.0468  -12.8221   22.0422 N   0  0  0  0  0  0
  -25.4168  -15.1904   20.4101 N   0  0  0  0  0  0
  -31.7206  -15.0044   20.1278 O   0  0  0  0  0  0
  -21.6641   -6.8887   21.4258 O   0  0  0  0  0  0
  -22.3534  -14.5532   20.6726 O   0  0  0  0  0  0
  -24.6412  -31.8466   23.1916 C   0  0  0  0  0  0
  -25.9199  -32.4703   23.8295 C   0  0  1  0  0  0
  -27.2215  -27.1755   20.1531 C   0  0  0  0  0  0
  -25.5960  -33.8505   24.2222 N   0  0  0  0  0  0
  -23.4415  -30.4666   21.5377 C   0  0  2  0  0  0
  -24.8901  -28.8940   20.1178 C   0  0  0  0  0  0
  -22.7550  -29.4568   22.4898 C   0  0  0  0  0  0
  -18.0292  -28.1376   22.8487 C   0  0  0  0  0  0
  -24.1481  -36.7242   23.2643 C   0  0  0  0  0  0
  -25.9952  -30.7298   21.3869 C   0  0  0  0  0  0
  -26.0662  -29.3437   20.7320 C   0  0  0  0  0  0
  -27.2346  -28.5002   20.7342 C   0  0  0  0  0  0
  -26.0259  -26.8201   19.4922 C   0  0  0  0  0  0
  -24.8805  -27.6427   19.4840 C   0  0  0  0  0  0
  -23.6636  -29.7903   20.1595 C   0  0  0  0  0  0
  -25.4111  -36.3044   24.0337 C   0  0  1  0  0  0
  -20.5903  -28.3704   23.1237 C   0  0  2  0  0  0
  -20.6753  -26.9406   22.5402 C   0  0  0  0  0  0
  -19.5728  -26.6380   21.5199 C   0  0  0  0  0  0
  -18.1920  -26.7916   22.1631 C   0  0  0  0  0  0
  -19.1550  -28.8861   23.2850 C   0  0  0  0  0  0
  -18.9470  -30.1454   23.8881 C   0  0  0  0  0  0
  -17.6466  -30.6581   24.0553 C   0  0  0  0  0  0
  -25.9076  -34.9413   23.5094 C   0  0  0  0  0  0
  -16.5357  -29.9071   23.6334 C   0  0  0  0  0  0
  -16.7275  -28.6480   23.0375 C   0  0  0  0  0  0
  -26.4527  -31.6560   25.0726 C   0  0  0  0  0  0
  -25.3731  -31.3731   26.1444 C   0  0  0  0  0  0
  -27.0383  -30.2958   24.6291 C   0  0  0  0  0  0
  -27.6075  -32.4325   25.7484 C   0  0  0  0  0  0
  -27.5580  -37.1768   24.8474 C   0  0  0  0  0  0
  -21.4251  -29.3039   22.3628 N   0  0  0  0  0  0
  -26.4280  -37.3756   23.9435 N   0  0  0  0  0  0
  -24.7119  -31.0361   22.0925 N   0  0  0  0  0  0
  -23.4213  -28.8128   23.3043 O   0  0  0  0  0  0
  -28.2919  -26.2239   20.1815 O   0  0  0  0  0  0
  -26.5658  -34.8913   22.4674 O   0  0  0  0  0  0
  -23.5547  -32.1315   23.7173 O   0  0  0  0  0  0
  -28.3040  -18.0483   20.4510 C   0  0  0  0  0  0
  -30.6292  -18.4108   20.6293 C   0  0  0  0  0  0
  -29.0824  -20.4658   20.6304 C   0  0  0  0  0  0
  -28.0521  -19.4697   20.4788 C   0  0  0  0  0  0
  -29.5861  -17.4299   20.5493 C   0  0  0  0  0  0
  -30.3883  -19.8502   20.6802 C   0  0  0  0  0  0
  -28.7440  -21.9948   21.0034 C   0  0  0  0  0  0
  -26.5938  -19.8966   20.4038 C   0  0  0  0  0  0
  -28.9721  -23.4123   20.2049 C   0  0  0  0  0  0
  -28.0201  -24.7464   20.5310 C   0  0  0  0  0  0
  -28.1736  -22.1468   22.1235 N   0  0  0  0  0  0
  -29.6435  -15.9169   20.6377 N   0  0  0  0  0  0
  -31.4640  -20.6555   20.8594 F   0  0  0  0  0  0
  -31.4888  -12.6818   19.1712 H   0  0  0  0  0  0
  -30.4332  -11.5479   19.9705 H   0  0  0  0  0  0
  -29.8230  -11.7503   17.5344 H   0  0  0  0  0  0
  -29.6260  -13.4737   17.7073 H   0  0  0  0  0  0
  -27.9219  -11.2796   18.9236 H   0  0  0  0  0  0
  -27.3910  -12.5032   17.8013 H   0  0  0  0  0  0
  -27.6263  -14.2477   19.4565 H   0  0  0  0  0  0
  -28.7544  -12.1757   21.4073 H   0  0  0  0  0  0
  -28.4109  -13.8375   21.8041 H   0  0  0  0  0  0
  -25.2790   -9.5673   22.4760 H   0  0  0  0  0  0
  -24.0015   -7.4634   22.7482 H   0  0  0  0  0  0
  -21.0852   -8.8805   19.8962 H   0  0  0  0  0  0
  -22.3743  -10.9686   19.6171 H   0  0  0  0  0  0
  -21.2004   -7.6154   23.9737 H   0  0  0  0  0  0
  -21.1478   -6.0524   25.9091 H   0  0  0  0  0  0
  -22.0590   -2.7617   23.2861 H   0  0  0  0  0  0
  -22.4079  -11.9891   22.4827 H   0  0  0  0  0  0
  -21.1090  -13.1258   22.2618 H   0  0  0  0  0  0
  -24.6397  -15.8314   20.5235 H   0  0  0  0  0  0
  -26.2340  -15.6287   20.0104 H   0  0  0  0  0  0
  -26.7270  -32.5309   23.1025 H   0  0  0  0  0  0
  -25.0089  -33.9601   25.0365 H   0  0  0  0  0  0
  -22.7431  -31.2912   21.3838 H   0  0  0  0  0  0
  -23.3763  -35.9556   23.3307 H   0  0  0  0  0  0
  -24.3563  -36.8856   22.2056 H   0  0  0  0  0  0
  -23.7206  -37.6435   23.6656 H   0  0  0  0  0  0
  -26.1560  -31.4809   20.6125 H   0  0  0  0  0  0
  -26.8640  -30.7749   22.0317 H   0  0  0  0  0  0
  -28.1316  -28.8416   21.2319 H   0  0  0  0  0  0
  -25.9589  -25.8737   18.9763 H   0  0  0  0  0  0
  -23.9845  -27.2945   18.9898 H   0  0  0  0  0  0
  -23.7943  -30.5592   19.3977 H   0  0  0  0  0  0
  -22.7785  -29.2278   19.8568 H   0  0  0  0  0  0
  -25.1283  -36.1886   25.0827 H   0  0  0  0  0  0
  -20.9991  -28.3286   24.1355 H   0  0  0  0  0  0
  -20.5600  -26.2324   23.3624 H   0  0  0  0  0  0
  -21.6621  -26.7368   22.1228 H   0  0  0  0  0  0
  -19.6882  -25.6294   21.1216 H   0  0  0  0  0  0
  -19.6652  -27.3197   20.6733 H   0  0  0  0  0  0
  -17.4176  -26.6662   21.4048 H   0  0  0  0  0  0
  -18.0334  -26.0047   22.9019 H   0  0  0  0  0  0
  -19.7949  -30.7262   24.2253 H   0  0  0  0  0  0
  -17.5024  -31.6263   24.5149 H   0  0  0  0  0  0
  -15.5358  -30.2967   23.7660 H   0  0  0  0  0  0
  -15.8675  -28.0779   22.7124 H   0  0  0  0  0  0
  -24.5920  -30.7050   25.7789 H   0  0  0  0  0  0
  -24.8905  -32.2896   26.4845 H   0  0  0  0  0  0
  -25.8046  -30.8943   27.0241 H   0  0  0  0  0  0
  -26.2993  -29.6690   24.1289 H   0  0  0  0  0  0
  -27.3984  -29.7244   25.4856 H   0  0  0  0  0  0
  -27.8902  -30.4191   23.9604 H   0  0  0  0  0  0
  -27.2674  -33.3632   26.2032 H   0  0  0  0  0  0
  -28.3875  -32.6876   25.0296 H   0  0  0  0  0  0
  -28.0752  -31.8476   26.5413 H   0  0  0  0  0  0
  -28.2597  -38.0069   24.7555 H   0  0  0  0  0  0
  -28.1076  -36.2608   24.6253 H   0  0  0  0  0  0
  -27.2308  -37.1364   25.8878 H   0  0  0  0  0  0
  -20.9477  -29.8741   21.6791 H   0  0  0  0  0  0
  -26.0161  -38.2828   24.1450 H   0  0  0  0  0  0
  -27.4461  -17.3940   20.3803 H   0  0  0  0  0  0
  -31.6486  -18.0656   20.7167 H   0  0  0  0  0  0
  -26.4721  -20.7989   19.8044 H   0  0  0  0  0  0
  -26.2096  -20.0924   21.4054 H   0  0  0  0  0  0
  -25.9715  -19.1262   19.9462 H   0  0  0  0  0  0
  -28.9146  -23.2037   19.1374 H   0  0  0  0  0  0
  -30.0081  -23.7013   20.3801 H   0  0  0  0  0  0
  -27.9095  -24.7801   21.6144 H   0  0  0  0  0  0
  -27.0274  -24.4710   20.1812 H   0  0  0  0  0  0
  -28.0284  -21.2557   22.5867 H   0  0  0  0  0  0
  -28.7314  -15.5262   20.8146 H   0  0  0  0  0  0
  1 25  1  0  0  0
  1 30  2  0  0  0
  1 82  1  0  0  0
  2  3  1  0  0  0
  2 25  1  0  0  0
  2 84  1  0  0  0
  2 85  1  0  0  0
  3  4  1  0  0  0
  3 86  1  0  0  0
  3 87  1  0  0  0
  4  5  1  0  0  0
  4 88  1  0  0  0
  4 89  1  0  0  0
  5  6  1  0  0  0
  5 26  1  0  0  0
  5 90  1  0  0  0
  6 25  1  0  0  0
  6 91  1  0  0  0
  6 92  1  0  0  0
  7  8  2  0  0  0
  7 26  1  0  0  0
  7 29  1  0  0  0
  8  9  1  0  0  0
  8 22  1  0  0  0
  9 10  1  0  0  0
  9 27  2  0  0  0
 10 11  2  0  0  0
 10 15  1  0  0  0
 11 12  1  0  0  0
 11 93  1  0  0  0
 12 13  2  0  0  0
 12 94  1  0  0  0
 13 14  1  0  0  0
 13 31  1  0  0  0
 14 15  2  0  0  0
 14 95  1  0  0  0
 15 96  1  0  0  0
 16 17  2  0  0  0
 16 21  1  0  0  0
 16 31  1  0  0  0
 17 18  1  0  0  0
 17 97  1  0  0  0
 18 19  2  0  0  0
 18 98  1  0  0  0
 19 20  1  0  0  0
 19 24  1  0  0  0
 20 21  2  0  0  0
 20 99  1  0  0  0
 21 23  1  0  0  0
 22 28  1  0  0  0
 22 32  2  0  0  0
 26 27  1  0  0  0
 28100  1  0  0  0
 28101  1  0  0  0
 29102  1  0  0  0
 29103  1  0  0  0
 33 34  1  0  0  0
 33 66  1  0  0  0
 33 70  2  0  0  0
 34 36  1  0  0  0
 34 59  1  0  0  0
 34104  1  0  0  0
 35 44  2  0  0  0
 35 45  1  0  0  0
 35 68  1  0  0  0
 36 56  1  0  0  0
 36105  1  0  0  0
 37 39  1  0  0  0
 37 47  1  0  0  0
 37 66  1  0  0  0
 37106  1  0  0  0
 38 43  2  0  0  0
 38 46  1  0  0  0
 38 47  1  0  0  0
 39 64  1  0  0  0
 39 67  2  0  0  0
 40 52  1  0  0  0
 40 53  2  0  0  0
 40 58  1  0  0  0
 41107  1  0  0  0
 41108  1  0  0  0
 41109  1  0  0  0
 41 48  1  0  0  0
 42 43  1  0  0  0
 42 66  1  0  0  0
 42110  1  0  0  0
 42111  1  0  0  0
 43 44  1  0  0  0
 44112  1  0  0  0
 45 46  2  0  0  0
 45113  1  0  0  0
 46114  1  0  0  0
 47115  1  0  0  0
 47116  1  0  0  0
 48 56  1  0  0  0
 48 65  1  0  0  0
 48117  1  0  0  0
 49 50  1  0  0  0
 49 53  1  0  0  0
 49 64  1  0  0  0
 49118  1  0  0  0
 50 51  1  0  0  0
 50119  1  0  0  0
 50120  1  0  0  0
 51 52  1  0  0  0
 51121  1  0  0  0
 51122  1  0  0  0
 52123  1  0  0  0
 52124  1  0  0  0
 53 54  1  0  0  0
 54 55  2  0  0  0
 54125  1  0  0  0
 55 57  1  0  0  0
 55126  1  0  0  0
 56 69  2  0  0  0
 57 58  2  0  0  0
 57127  1  0  0  0
 58128  1  0  0  0
 59 60  1  0  0  0
 59 61  1  0  0  0
 59 62  1  0  0  0
 60129  1  0  0  0
 60130  1  0  0  0
 60131  1  0  0  0
 61132  1  0  0  0
 61133  1  0  0  0
 61134  1  0  0  0
 62135  1  0  0  0
 62136  1  0  0  0
 62137  1  0  0  0
 63 65  1  0  0  0
 63138  1  0  0  0
 63139  1  0  0  0
 63140  1  0  0  0
 64141  1  0  0  0
 65142  1  0  0  0
 68 80  1  0  0  0
 71 74  2  0  0  0
 71 75  1  0  0  0
 71143  1  0  0  0
 72 75  2  0  0  0
 72 76  1  0  0  0
 72144  1  0  0  0
 73 74  1  0  0  0
 73 76  2  0  0  0
 73 77  1  0  0  0
 74 78  1  0  0  0
 75 82  1  0  0  0
 76 83  1  0  0  0
 77 79  1  0  0  0
 77 81  2  0  0  0
 78145  1  0  0  0
 78146  1  0  0  0
 78147  1  0  0  0
 79 80  1  0  0  0
 79148  1  0  0  0
 79149  1  0  0  0
 80150  1  0  0  0
 80151  1  0  0  0
 81152  1  0  0  0
 82153  1  0  0  0
M  ISO  4   1 100  68 101  80 101  82 100
M  END
> <chiral flag>
0

> <version>
0

> <s_m_source_file>
/data/baiqing/PycharmProjects/Reinvent-master-3.2/result/LINK_invent/BTK/process_docking_weight1_custom_product_contain_oxygen_bond_distance_aromatic_linkinvent_7_9_3/rearranged_h_0032.sdf

> <i_m_source_file_index>
72

> <r_mmod_Potential_Energy-OPLS-2005>
451.826232910156

> <r_mmod_Stretch_Energy-OPLS-2005>
196.932235717773

> <r_mmod_Bend_Energy-OPLS-2005>
244.530120849609

> <r_mmod_Torsional_Energy-OPLS-2005>
250.137344360352

> <r_mmod_Improper_Torsional_Energy-OPLS-2005>
7.2639627456665

> <r_mmod_Van_der_Waal_Energy-OPLS-2005>
133.876831054688

> <r_mmod_Electrostatic_Energy-OPLS-2005>
-306.277130126953

> <r_mmod_Solvation_Energy-OPLS-2005>
-217.115615844727

> <b_mmod_Minimization_Converged-OPLS-2005>
0

> <r_mmod_RMS_Derivative-OPLS-2005>
1.93175768852234

$$$$
72
                    3D
 Structure written by MMmdl.
166175  0  0  1  0            999 V2000
  -30.6113  -14.6530   20.4949 C   0  0  0  0  0  0
  -30.4427  -12.4036   19.4479 C   0  0  0  0  0  0
  -29.5100  -12.5197   18.2215 C   0  0  0  0  0  0
  -28.0333  -12.3535   18.6338 C   0  0  0  0  0  0
  -27.6545  -13.2173   19.8651 C   0  0  2  0  0  0
  -28.7008  -13.0694   20.9930 C   0  0  0  0  0  0
  -25.2564  -13.8162   20.5688 C   0  0  0  0  0  0
  -24.1829  -13.0428   20.9183 C   0  0  0  0  0  0
  -24.6398  -11.6900   20.8728 C   0  0  0  0  0  0
  -23.9060  -10.4283   21.0396 C   0  0  0  0  0  0
  -24.3611   -9.4201   21.9181 C   0  0  0  0  0  0
  -23.6285   -8.2242   22.0753 C   0  0  0  0  0  0
  -22.4259   -8.0277   21.3549 C   0  0  0  0  0  0
  -21.9899   -9.0250   20.4655 C   0  0  0  0  0  0
  -22.7231  -10.2127   20.3056 C   0  0  0  0  0  0
  -21.6855   -6.0729   22.5278 C   0  0  0  0  0  0
  -21.4014   -6.5634   23.8210 C   0  0  0  0  0  0
  -21.3662   -5.6789   24.9174 C   0  0  0  0  0  0
  -21.6043   -4.3050   24.7223 C   0  0  0  0  0  0
  -21.8819   -3.8141   23.4345 C   0  0  0  0  0  0
  -21.9193   -4.6960   22.3402 C   0  0  0  0  0  0
  -22.7854  -13.5232   21.1847 C   0  0  0  0  0  0
  -22.1661   -4.2151   21.0981 F   0  0  0  0  0  0
  -21.5635   -3.4532   25.7734 F   0  0  0  0  0  0
  -30.0141  -13.4204   20.4293 N   0  0  0  0  0  0
  -26.2995  -12.9346   20.3315 N   0  0  0  0  0  0
  -25.9325  -11.6502   20.5731 N   0  0  0  0  0  0
  -22.0484  -12.8235   22.0402 N   0  0  0  0  0  0
  -25.4254  -15.1888   20.4127 N   0  0  0  0  0  0
  -31.7721  -14.8243   20.1084 O   0  0  0  0  0  0
  -21.6636   -6.8868   21.4237 O   0  0  0  0  0  0
  -22.3544  -14.5543   20.6694 O   0  0  0  0  0  0
  -24.6278  -31.8605   23.2051 C   0  0  0  0  0  0
  -25.9129  -32.4774   23.8368 C   0  0  1  0  0  0
  -27.2129  -27.3052   20.1131 C   0  0  0  0  0  0
  -25.5950  -33.8574   24.2304 N   0  0  0  0  0  0
  -23.4201  -30.4870   21.5490 C   0  0  2  0  0  0
  -24.8643  -28.9444   20.1166 C   0  0  0  0  0  0
  -22.7482  -29.4630   22.4944 C   0  0  0  0  0  0
  -18.0288  -28.1392   22.8472 C   0  0  0  0  0  0
  -24.1488  -36.7291   23.2631 C   0  0  0  0  0  0
  -25.9637  -30.7845   21.3809 C   0  0  0  0  0  0
  -26.0349  -29.4092   20.7289 C   0  0  0  0  0  0
  -27.2117  -28.5995   20.7244 C   0  0  0  0  0  0
  -26.0291  -26.9220   19.4448 C   0  0  0  0  0  0
  -24.8638  -27.7046   19.4664 C   0  0  0  0  0  0
  -23.6358  -29.8282   20.1636 C   0  0  0  0  0  0
  -25.4103  -36.3077   24.0333 C   0  0  1  0  0  0
  -20.5887  -28.3695   23.1285 C   0  0  2  0  0  0
  -20.6778  -26.9419   22.5406 C   0  0  0  0  0  0
  -19.5752  -26.6393   21.5206 C   0  0  0  0  0  0
  -18.1932  -26.7932   22.1621 C   0  0  0  0  0  0
  -19.1539  -28.8858   23.2871 C   0  0  0  0  0  0
  -18.9458  -30.1459   23.8887 C   0  0  0  0  0  0
  -17.6455  -30.6582   24.0567 C   0  0  0  0  0  0
  -25.9046  -34.9449   23.5112 C   0  0  0  0  0  0
  -16.5347  -29.9083   23.6331 C   0  0  0  0  0  0
  -16.7272  -28.6512   23.0327 C   0  0  0  0  0  0
  -26.4509  -31.6562   25.0726 C   0  0  0  0  0  0
  -25.3751  -31.3706   26.1463 C   0  0  0  0  0  0
  -27.0325  -30.2976   24.6162 C   0  0  0  0  0  0
  -27.6075  -32.4285   25.7497 C   0  0  0  0  0  0
  -27.5574  -37.1801   24.8459 C   0  0  0  0  0  0
  -21.4194  -29.3055   22.3693 N   0  0  0  0  0  0
  -26.4276  -37.3775   23.9416 N   0  0  0  0  0  0
  -24.6896  -31.0607   22.1016 N   0  0  0  0  0  0
  -23.4213  -28.8150   23.3003 O   0  0  0  0  0  0
  -28.3274  -26.4468   20.1154 O   0  0  0  0  0  0
  -26.5604  -34.8912   22.4672 O   0  0  0  0  0  0
  -23.5442  -32.1423   23.7366 O   0  0  0  0  0  0
  -29.5242  -19.2212   19.3952 C   0  0  0  0  0  0
  -29.8776  -20.0778   20.4704 C   0  0  0  0  0  0
  -29.5275  -17.7989   19.5006 C   0  0  0  0  0  0
  -30.2112  -19.4279   21.6999 C   0  0  0  0  0  0
  -30.2499  -17.9894   21.8043 C   0  0  0  0  0  0
  -29.9237  -17.1441   20.7013 C   0  0  0  0  0  0
  -27.3261  -24.0821   19.5533 C   0  0  0  0  0  0
  -27.7770  -22.6180   19.7978 C   0  0  0  0  0  0
  -29.4471  -24.1113   20.5592 C   0  0  0  0  0  0
  -28.1574  -25.0032   20.4738 C   0  0  1  0  0  0
  -29.0814  -16.9822   18.2993 C   0  0  0  0  0  0
  -30.5496  -20.2782   22.9220 C   0  0  0  0  0  0
  -30.6354  -17.3157   23.1190 C   0  0  0  0  0  0
  -30.0802  -21.6275   20.2098 C   0  0  0  0  0  0
  -29.7958  -15.6927   20.8625 N   0  0  0  0  0  0
  -29.0274  -22.6572   20.5849 N   0  3  2  0  0  0
  -31.4828  -12.5360   19.1449 H   0  0  0  0  0  0
  -30.3828  -11.4054   19.8847 H   0  0  0  0  0  0
  -29.7755  -11.7736   17.4713 H   0  0  0  0  0  0
  -29.6497  -13.4920   17.7457 H   0  0  0  0  0  0
  -27.8702  -11.2987   18.8577 H   0  0  0  0  0  0
  -27.3788  -12.5899   17.7940 H   0  0  0  0  0  0
  -27.6712  -14.2530   19.5278 H   0  0  0  0  0  0
  -28.7167  -12.0449   21.3692 H   0  0  0  0  0  0
  -28.4452  -13.6943   21.8496 H   0  0  0  0  0  0
  -25.2754   -9.5690   22.4751 H   0  0  0  0  0  0
  -24.0004   -7.4634   22.7465 H   0  0  0  0  0  0
  -21.0835   -8.8762   19.8961 H   0  0  0  0  0  0
  -22.3679  -10.9662   19.6166 H   0  0  0  0  0  0
  -21.2002   -7.6137   23.9713 H   0  0  0  0  0  0
  -21.1488   -6.0516   25.9078 H   0  0  0  0  0  0
  -22.0595   -2.7604   23.2838 H   0  0  0  0  0  0
  -22.4084  -11.9901   22.4813 H   0  0  0  0  0  0
  -21.1106  -13.1281   22.2592 H   0  0  0  0  0  0
  -24.6533  -15.8368   20.5241 H   0  0  0  0  0  0
  -26.2743  -15.6369   20.0943 H   0  0  0  0  0  0
  -26.7192  -32.5447   23.1111 H   0  0  0  0  0  0
  -25.0128  -33.9722   25.0467 H   0  0  0  0  0  0
  -22.7138  -31.3081   21.4092 H   0  0  0  0  0  0
  -23.3748  -35.9626   23.3278 H   0  0  0  0  0  0
  -24.3588  -36.8920   22.2049 H   0  0  0  0  0  0
  -23.7244  -37.6491   23.6655 H   0  0  0  0  0  0
  -26.0953  -31.5415   20.6064 H   0  0  0  0  0  0
  -26.8458  -30.8376   22.0070 H   0  0  0  0  0  0
  -28.1085  -28.9509   21.2163 H   0  0  0  0  0  0
  -25.9760  -26.0272   18.8527 H   0  0  0  0  0  0
  -23.9777  -27.3571   18.9535 H   0  0  0  0  0  0
  -23.7644  -30.6076   19.4115 H   0  0  0  0  0  0
  -22.7538  -29.2645   19.8545 H   0  0  0  0  0  0
  -25.1277  -36.1927   25.0825 H   0  0  0  0  0  0
  -20.9972  -28.3264   24.1408 H   0  0  0  0  0  0
  -20.5689  -26.2297   23.3599 H   0  0  0  0  0  0
  -21.6645  -26.7457   22.1196 H   0  0  0  0  0  0
  -19.6915  -25.6307   21.1227 H   0  0  0  0  0  0
  -19.6688  -27.3208   20.6737 H   0  0  0  0  0  0
  -17.4202  -26.6668   21.4023 H   0  0  0  0  0  0
  -18.0337  -26.0083   22.9028 H   0  0  0  0  0  0
  -19.7930  -30.7279   24.2253 H   0  0  0  0  0  0
  -17.5006  -31.6253   24.5185 H   0  0  0  0  0  0
  -15.5343  -30.2976   23.7658 H   0  0  0  0  0  0
  -15.8678  -28.0836   22.7022 H   0  0  0  0  0  0
  -24.5929  -30.7041   25.7808 H   0  0  0  0  0  0
  -24.8937  -32.2872   26.4882 H   0  0  0  0  0  0
  -25.8093  -30.8900   27.0240 H   0  0  0  0  0  0
  -26.2879  -29.6742   24.1196 H   0  0  0  0  0  0
  -27.4024  -29.7213   25.4649 H   0  0  0  0  0  0
  -27.8761  -30.4236   23.9374 H   0  0  0  0  0  0
  -27.2698  -33.3603   26.2046 H   0  0  0  0  0  0
  -28.3905  -32.6807   25.0335 H   0  0  0  0  0  0
  -28.0716  -31.8419   26.5435 H   0  0  0  0  0  0
  -28.2577  -38.0110   24.7510 H   0  0  0  0  0  0
  -28.1084  -36.2641   24.6268 H   0  0  0  0  0  0
  -27.2304  -37.1439   25.8865 H   0  0  0  0  0  0
  -20.9373  -29.8810   21.6930 H   0  0  0  0  0  0
  -26.0155  -38.2848   24.1419 H   0  0  0  0  0  0
  -29.2646  -19.6708   18.4461 H   0  0  0  0  0  0
  -26.2567  -24.1609   19.7471 H   0  0  0  0  0  0
  -27.5070  -24.3422   18.5096 H   0  0  0  0  0  0
  -27.9159  -22.1036   18.8462 H   0  0  0  0  0  0
  -27.0265  -22.0617   20.3610 H   0  0  0  0  0  0
  -30.0649  -24.3647   21.4206 H   0  0  0  0  0  0
  -30.0506  -24.2833   19.6666 H   0  0  0  0  0  0
  -27.6926  -24.9868   21.4607 H   0  0  0  0  0  0
  -28.8320  -17.6217   17.4517 H   0  0  0  0  0  0
  -28.1940  -16.4003   18.5471 H   0  0  0  0  0  0
  -29.8669  -16.2966   17.9803 H   0  0  0  0  0  0
  -30.2354  -21.3152   22.8238 H   0  0  0  0  0  0
  -31.6243  -20.2713   23.1049 H   0  0  0  0  0  0
  -30.0443  -19.9022   23.8124 H   0  0  0  0  0  0
  -31.1955  -17.9582   23.7953 H   0  0  0  0  0  0
  -31.2744  -16.4517   22.9370 H   0  0  0  0  0  0
  -29.7429  -16.9686   23.6391 H   0  0  0  0  0  0
  -30.3099  -21.7582   19.1513 H   0  0  0  0  0  0
  -31.0030  -21.9134   20.7163 H   0  0  0  0  0  0
  -28.8906  -15.3881   21.1843 H   0  0  0  0  0  0
  -28.7571  -22.4570   21.5366 H   0  0  0  0  0  0
  1 25  1  0  0  0
  1 30  2  0  0  0
  1 85  1  0  0  0
  2  3  1  0  0  0
  2 25  1  0  0  0
  2 87  1  0  0  0
  2 88  1  0  0  0
  3  4  1  0  0  0
  3 89  1  0  0  0
  3 90  1  0  0  0
  4  5  1  0  0  0
  4 91  1  0  0  0
  4 92  1  0  0  0
  5  6  1  0  0  0
  5 26  1  0  0  0
  5 93  1  0  0  0
  6 25  1  0  0  0
  6 94  1  0  0  0
  6 95  1  0  0  0
  7  8  2  0  0  0
  7 26  1  0  0  0
  7 29  1  0  0  0
  8  9  1  0  0  0
  8 22  1  0  0  0
  9 10  1  0  0  0
  9 27  2  0  0  0
 10 11  2  0  0  0
 10 15  1  0  0  0
 11 12  1  0  0  0
 11 96  1  0  0  0
 12 13  2  0  0  0
 12 97  1  0  0  0
 13 14  1  0  0  0
 13 31  1  0  0  0
 14 15  2  0  0  0
 14 98  1  0  0  0
 15 99  1  0  0  0
 16 17  2  0  0  0
 16 21  1  0  0  0
 16 31  1  0  0  0
 17 18  1  0  0  0
 17100  1  0  0  0
 18 19  2  0  0  0
 18101  1  0  0  0
 19 20  1  0  0  0
 19 24  1  0  0  0
 20 21  2  0  0  0
 20102  1  0  0  0
 21 23  1  0  0  0
 22 28  1  0  0  0
 22 32  2  0  0  0
 26 27  1  0  0  0
 28103  1  0  0  0
 28104  1  0  0  0
 29105  1  0  0  0
 29106  1  0  0  0
 33 34  1  0  0  0
 33 66  1  0  0  0
 33 70  2  0  0  0
 34 36  1  0  0  0
 34 59  1  0  0  0
 34107  1  0  0  0
 35 44  2  0  0  0
 35 45  1  0  0  0
 35 68  1  0  0  0
 36 56  1  0  0  0
 36108  1  0  0  0
 37 39  1  0  0  0
 37 47  1  0  0  0
 37 66  1  0  0  0
 37109  1  0  0  0
 38 43  2  0  0  0
 38 46  1  0  0  0
 38 47  1  0  0  0
 39 64  1  0  0  0
 39 67  2  0  0  0
 40 52  1  0  0  0
 40 53  2  0  0  0
 40 58  1  0  0  0
 41110  1  0  0  0
 41111  1  0  0  0
 41112  1  0  0  0
 41 48  1  0  0  0
 42 43  1  0  0  0
 42 66  1  0  0  0
 42113  1  0  0  0
 42114  1  0  0  0
 43 44  1  0  0  0
 44115  1  0  0  0
 45 46  2  0  0  0
 45116  1  0  0  0
 46117  1  0  0  0
 47118  1  0  0  0
 47119  1  0  0  0
 48 56  1  0  0  0
 48 65  1  0  0  0
 48120  1  0  0  0
 49 50  1  0  0  0
 49 53  1  0  0  0
 49 64  1  0  0  0
 49121  1  0  0  0
 50 51  1  0  0  0
 50122  1  0  0  0
 50123  1  0  0  0
 51 52  1  0  0  0
 51124  1  0  0  0
 51125  1  0  0  0
 52126  1  0  0  0
 52127  1  0  0  0
 53 54  1  0  0  0
 54 55  2  0  0  0
 54128  1  0  0  0
 55 57  1  0  0  0
 55129  1  0  0  0
 56 69  2  0  0  0
 57 58  2  0  0  0
 57130  1  0  0  0
 58131  1  0  0  0
 59 60  1  0  0  0
 59 61  1  0  0  0
 59 62  1  0  0  0
 60132  1  0  0  0
 60133  1  0  0  0
 60134  1  0  0  0
 61135  1  0  0  0
 61136  1  0  0  0
 61137  1  0  0  0
 62138  1  0  0  0
 62139  1  0  0  0
 62140  1  0  0  0
 63 65  1  0  0  0
 63141  1  0  0  0
 63142  1  0  0  0
 63143  1  0  0  0
 64144  1  0  0  0
 65145  1  0  0  0
 68 80  1  0  0  0
 71 72  2  0  0  0
 71 73  1  0  0  0
 71146  1  0  0  0
 72 74  1  0  0  0
 72 84  1  0  0  0
 73 76  2  0  0  0
 73 81  1  0  0  0
 74 75  2  0  0  0
 74 82  1  0  0  0
 75 76  1  0  0  0
 75 83  1  0  0  0
 76 85  1  0  0  0
 77 78  1  0  0  0
 77 80  1  0  0  0
 77147  1  0  0  0
 77148  1  0  0  0
 78 86  1  0  0  0
 78149  1  0  0  0
 78150  1  0  0  0
 79 80  1  0  0  0
 79 86  1  0  0  0
 79151  1  0  0  0
 79152  1  0  0  0
 80153  1  0  0  0
 81154  1  0  0  0
 81155  1  0  0  0
 81156  1  0  0  0
 82157  1  0  0  0
 82158  1  0  0  0
 82159  1  0  0  0
 83160  1  0  0  0
 83161  1  0  0  0
 83162  1  0  0  0
 84163  1  0  0  0
 84164  1  0  0  0
 84 86  1  0  0  0
 85165  1  0  0  0
 86166  1  0  0  0
M  CHG  1  86   1
M  ISO  4   1 100  68 101  80 101  85 100
M  END
> <chiral flag>
0

> <version>
0

> <s_m_source_file>
/data/baiqing/PycharmProjects/Reinvent-master-3.2/result/LINK_invent/BTK/process_docking_weight1_custom_product_contain_oxygen_bond_distance_aromatic_linkinvent_7_9_3/rearranged_h_0032.sdf

> <i_m_source_file_index>
73

> <r_mmod_Potential_Energy-OPLS-2005>
2.91751313209534

> <r_mmod_Stretch_Energy-OPLS-2005>
84.2027740478516

> <r_mmod_Bend_Energy-OPLS-2005>
167.910064697266

> <r_mmod_Torsional_Energy-OPLS-2005>
305.123107910156

> <r_mmod_Improper_Torsional_Energy-OPLS-2005>
5.68570566177368

> <r_mmod_Van_der_Waal_Energy-OPLS-2005>
142.769805908203

> <r_mmod_Electrostatic_Energy-OPLS-2005>
-322.488708496094

> <r_mmod_Solvation_Energy-OPLS-2005>
-433.106506347656

> <b_mmod_Minimization_Converged-OPLS-2005>
0

> <r_mmod_RMS_Derivative-OPLS-2005>
1.57600116729736

$$$$
73
                    3D
 Structure written by MMmdl.
161170  0  0  1  0            999 V2000
  -30.5947  -14.7569   20.4696 C   0  0  0  0  0  0
  -30.4204  -12.4613   19.4776 C   0  0  0  0  0  0
  -29.5064  -12.5034   18.2336 C   0  0  0  0  0  0
  -28.0314  -12.3262   18.6422 C   0  0  0  0  0  0
  -27.6320  -13.2295   19.8399 C   0  0  2  0  0  0
  -28.6708  -13.1718   20.9784 C   0  0  0  0  0  0
  -25.2472  -13.8217   20.5748 C   0  0  0  0  0  0
  -24.1767  -13.0461   20.9213 C   0  0  0  0  0  0
  -24.6340  -11.6931   20.8730 C   0  0  0  0  0  0
  -23.9032  -10.4307   21.0394 C   0  0  0  0  0  0
  -24.3599   -9.4229   21.9170 C   0  0  0  0  0  0
  -23.6288   -8.2255   22.0752 C   0  0  0  0  0  0
  -22.4270   -8.0276   21.3537 C   0  0  0  0  0  0
  -21.9888   -9.0241   20.4640 C   0  0  0  0  0  0
  -22.7200  -10.2128   20.3041 C   0  0  0  0  0  0
  -21.6846   -6.0743   22.5291 C   0  0  0  0  0  0
  -21.4017   -6.5648   23.8223 C   0  0  0  0  0  0
  -21.3653   -5.6790   24.9179 C   0  0  0  0  0  0
  -21.6028   -4.3056   24.7214 C   0  0  0  0  0  0
  -21.8814   -3.8147   23.4340 C   0  0  0  0  0  0
  -21.9193   -4.6969   22.3405 C   0  0  0  0  0  0
  -22.7786  -13.5268   21.1872 C   0  0  0  0  0  0
  -22.1668   -4.2173   21.0976 F   0  0  0  0  0  0
  -21.5616   -3.4534   25.7722 F   0  0  0  0  0  0
  -29.9684  -13.5321   20.3978 N   0  0  0  0  0  0
  -26.2858  -12.9402   20.3220 N   0  0  0  0  0  0
  -25.9246  -11.6552   20.5681 N   0  0  0  0  0  0
  -22.0395  -12.8272   22.0415 N   0  0  0  0  0  0
  -25.4195  -15.1961   20.4331 N   0  0  0  0  0  0
  -31.7886  -14.8280   20.1553 O   0  0  0  0  0  0
  -21.6608   -6.8885   21.4259 O   0  0  0  0  0  0
  -22.3473  -14.5553   20.6675 O   0  0  0  0  0  0
  -24.6333  -31.8512   23.1946 C   0  0  0  0  0  0
  -25.9159  -32.4735   23.8302 C   0  0  1  0  0  0
  -27.2374  -27.2592   20.1268 C   0  0  0  0  0  0
  -25.5980  -33.8539   24.2243 N   0  0  0  0  0  0
  -23.4266  -30.4673   21.5380 C   0  0  2  0  0  0
  -24.8732  -28.9000   20.1108 C   0  0  0  0  0  0
  -22.7503  -29.4563   22.4945 C   0  0  0  0  0  0
  -18.0286  -28.1382   22.8504 C   0  0  0  0  0  0
  -24.1458  -36.7215   23.2639 C   0  0  0  0  0  0
  -25.9687  -30.7635   21.3670 C   0  0  0  0  0  0
  -26.0403  -29.3830   20.7132 C   0  0  0  0  0  0
  -27.2198  -28.5763   20.7024 C   0  0  0  0  0  0
  -26.0434  -26.8280   19.5116 C   0  0  0  0  0  0
  -24.8797  -27.6332   19.4986 C   0  0  0  0  0  0
  -23.6426  -29.7875   20.1564 C   0  0  0  0  0  0
  -25.4103  -36.3048   24.0321 C   0  0  1  0  0  0
  -20.5893  -28.3660   23.1308 C   0  0  2  0  0  0
  -20.6767  -26.9394   22.5409 C   0  0  0  0  0  0
  -19.5741  -26.6379   21.5230 C   0  0  0  0  0  0
  -18.1915  -26.7931   22.1640 C   0  0  0  0  0  0
  -19.1554  -28.8843   23.2897 C   0  0  0  0  0  0
  -18.9475  -30.1457   23.8892 C   0  0  0  0  0  0
  -17.6473  -30.6584   24.0572 C   0  0  0  0  0  0
  -25.9066  -34.9433   23.5079 C   0  0  0  0  0  0
  -16.5358  -29.9093   23.6339 C   0  0  0  0  0  0
  -16.7271  -28.6511   23.0365 C   0  0  0  0  0  0
  -26.4537  -31.6560   25.0690 C   0  0  0  0  0  0
  -25.3780  -31.3712   26.1424 C   0  0  0  0  0  0
  -27.0371  -30.2970   24.6166 C   0  0  0  0  0  0
  -27.6083  -32.4294   25.7515 C   0  0  0  0  0  0
  -27.5543  -37.1780   24.8484 C   0  0  0  0  0  0
  -21.4214  -29.3005   22.3704 N   0  0  0  0  0  0
  -26.4255  -37.3769   23.9428 N   0  0  0  0  0  0
  -24.6943  -31.0472   22.0902 N   0  0  0  0  0  0
  -23.4217  -28.8138   23.3051 O   0  0  0  0  0  0
  -28.4098  -26.4738   20.1795 O   0  0  0  0  0  0
  -26.5604  -34.8924   22.4624 O   0  0  0  0  0  0
  -23.5487  -32.1339   23.7240 O   0  0  0  0  0  0
  -29.2789  -18.4945   20.6527 C   0  0  0  0  0  0
  -31.5188  -17.6899   21.0903 C   0  0  0  0  0  0
  -29.6651  -19.8960   20.8582 C   0  0  0  0  0  0
  -31.0246  -20.1037   21.2473 C   0  0  0  0  0  0
  -30.1868  -17.3527   20.7762 C   0  0  0  0  0  0
  -31.9311  -19.0144   21.3145 C   0  0  0  0  0  0
  -28.7775  -22.7974   18.7825 C   0  0  0  0  0  0
  -28.9737  -21.8696   17.8292 C   0  0  0  0  0  0
  -28.4165  -24.2922   18.5798 C   0  0  0  0  0  0
  -28.4149  -23.7820   20.9224 C   0  0  0  0  0  0
  -28.6367  -24.9965   19.9331 C   0  0  2  0  0  0
  -31.5646  -21.4703   21.6622 C   0  0  0  0  0  0
  -28.6258  -21.1341   20.8292 C   0  0  0  0  0  0
  -29.8186  -15.9051   20.6587 N   0  0  0  0  0  0
  -28.9774  -22.5312   20.2494 N   0  3  1  0  0  0
  -33.6002  -19.2651   21.7067 Cl  0  0  0  0  0  0
  -31.4659  -12.5782   19.1888 H   0  0  0  0  0  0
  -30.3581  -11.4894   19.9707 H   0  0  0  0  0  0
  -29.7959  -11.7250   17.5262 H   0  0  0  0  0  0
  -29.6318  -13.4553   17.7139 H   0  0  0  0  0  0
  -27.8892  -11.2784   18.9048 H   0  0  0  0  0  0
  -27.3784  -12.5093   17.7876 H   0  0  0  0  0  0
  -27.6230  -14.2475   19.4497 H   0  0  0  0  0  0
  -28.7129  -12.1735   21.4168 H   0  0  0  0  0  0
  -28.3971  -13.8537   21.7851 H   0  0  0  0  0  0
  -25.2741   -9.5707   22.4745 H   0  0  0  0  0  0
  -23.9990   -7.4650   22.7481 H   0  0  0  0  0  0
  -21.0813   -8.8735   19.8966 H   0  0  0  0  0  0
  -22.3649  -10.9650   19.6145 H   0  0  0  0  0  0
  -21.2020   -7.6155   23.9743 H   0  0  0  0  0  0
  -21.1482   -6.0509   25.9090 H   0  0  0  0  0  0
  -22.0597   -2.7614   23.2816 H   0  0  0  0  0  0
  -22.3975  -11.9980   22.4919 H   0  0  0  0  0  0
  -21.1003  -13.1325   22.2550 H   0  0  0  0  0  0
  -24.6560  -15.8496   20.5743 H   0  0  0  0  0  0
  -26.2799  -15.6495   20.1535 H   0  0  0  0  0  0
  -26.7237  -32.5368   23.1054 H   0  0  0  0  0  0
  -25.0248  -33.9692   25.0470 H   0  0  0  0  0  0
  -22.7207  -31.2866   21.3878 H   0  0  0  0  0  0
  -23.3756  -35.9514   23.3330 H   0  0  0  0  0  0
  -24.3519  -36.8804   22.2048 H   0  0  0  0  0  0
  -23.7180  -37.6411   23.6628 H   0  0  0  0  0  0
  -26.1044  -31.5205   20.5926 H   0  0  0  0  0  0
  -26.8463  -30.8140   22.0006 H   0  0  0  0  0  0
  -28.1208  -28.9500   21.1667 H   0  0  0  0  0  0
  -25.9922  -25.8581   19.0422 H   0  0  0  0  0  0
  -23.9817  -27.2627   19.0243 H   0  0  0  0  0  0
  -23.7614  -30.5579   19.3933 H   0  0  0  0  0  0
  -22.7585  -29.2194   19.8587 H   0  0  0  0  0  0
  -25.1298  -36.1871   25.0810 H   0  0  0  0  0  0
  -20.9970  -28.3215   24.1438 H   0  0  0  0  0  0
  -20.5666  -26.2271   23.3608 H   0  0  0  0  0  0
  -21.6631  -26.7412   22.1183 H   0  0  0  0  0  0
  -19.6885  -25.6279   21.1293 H   0  0  0  0  0  0
  -19.6673  -27.3186   20.6743 H   0  0  0  0  0  0
  -17.4205  -26.6704   21.4025 H   0  0  0  0  0  0
  -18.0286  -26.0054   22.9014 H   0  0  0  0  0  0
  -19.7960  -30.7278   24.2229 H   0  0  0  0  0  0
  -17.5037  -31.6255   24.5193 H   0  0  0  0  0  0
  -15.5368  -30.3022   23.7671 H   0  0  0  0  0  0
  -15.8649  -28.0869   22.7088 H   0  0  0  0  0  0
  -24.5991  -30.7009   25.7781 H   0  0  0  0  0  0
  -24.8937  -32.2871   26.4800 H   0  0  0  0  0  0
  -25.8133  -30.8957   27.0216 H   0  0  0  0  0  0
  -26.2926  -29.6757   24.1170 H   0  0  0  0  0  0
  -27.4034  -29.7221   25.4684 H   0  0  0  0  0  0
  -27.8820  -30.4244   23.9401 H   0  0  0  0  0  0
  -27.2674  -33.3606   26.2042 H   0  0  0  0  0  0
  -28.3953  -32.6823   25.0404 H   0  0  0  0  0  0
  -28.0662  -31.8433   26.5495 H   0  0  0  0  0  0
  -28.2626  -38.0026   24.7516 H   0  0  0  0  0  0
  -28.0992  -36.2572   24.6339 H   0  0  0  0  0  0
  -27.2255  -37.1446   25.8890 H   0  0  0  0  0  0
  -20.9381  -29.8685   21.6887 H   0  0  0  0  0  0
  -26.0130  -38.2831   24.1474 H   0  0  0  0  0  0
  -28.2408  -18.2865   20.4302 H   0  0  0  0  0  0
  -32.2709  -16.9274   21.2101 H   0  0  0  0  0  0
  -28.8542  -22.1073   16.7831 H   0  0  0  0  0  0
  -29.2569  -20.8522   18.0651 H   0  0  0  0  0  0
  -27.3838  -24.3569   18.2406 H   0  0  0  0  0  0
  -29.0480  -24.7351   17.8057 H   0  0  0  0  0  0
  -27.3479  -23.6537   21.1070 H   0  0  0  0  0  0
  -28.9022  -23.9497   21.8819 H   0  0  0  0  0  0
  -29.7241  -25.0679   19.9509 H   0  0  0  0  0  0
  -32.1875  -21.3683   22.5509 H   0  0  0  0  0  0
  -30.8052  -22.1907   21.9518 H   0  0  0  0  0  0
  -32.1950  -21.8855   20.8763 H   0  0  0  0  0  0
  -28.3807  -21.3077   21.8777 H   0  0  0  0  0  0
  -27.6883  -20.8037   20.3839 H   0  0  0  0  0  0
  -28.8319  -15.7098   20.7407 H   0  0  0  0  0  0
  -29.9709  -22.5901   20.4211 H   0  0  0  0  0  0
  1 25  1  0  0  0
  1 30  2  0  0  0
  1 84  1  0  0  0
  2  3  1  0  0  0
  2 25  1  0  0  0
  2 87  1  0  0  0
  2 88  1  0  0  0
  3  4  1  0  0  0
  3 89  1  0  0  0
  3 90  1  0  0  0
  4  5  1  0  0  0
  4 91  1  0  0  0
  4 92  1  0  0  0
  5  6  1  0  0  0
  5 26  1  0  0  0
  5 93  1  0  0  0
  6 25  1  0  0  0
  6 94  1  0  0  0
  6 95  1  0  0  0
  7  8  2  0  0  0
  7 26  1  0  0  0
  7 29  1  0  0  0
  8  9  1  0  0  0
  8 22  1  0  0  0
  9 10  1  0  0  0
  9 27  2  0  0  0
 10 11  2  0  0  0
 10 15  1  0  0  0
 11 12  1  0  0  0
 11 96  1  0  0  0
 12 13  2  0  0  0
 12 97  1  0  0  0
 13 14  1  0  0  0
 13 31  1  0  0  0
 14 15  2  0  0  0
 14 98  1  0  0  0
 15 99  1  0  0  0
 16 17  2  0  0  0
 16 21  1  0  0  0
 16 31  1  0  0  0
 17 18  1  0  0  0
 17100  1  0  0  0
 18 19  2  0  0  0
 18101  1  0  0  0
 19 20  1  0  0  0
 19 24  1  0  0  0
 20 21  2  0  0  0
 20102  1  0  0  0
 21 23  1  0  0  0
 22 28  1  0  0  0
 22 32  2  0  0  0
 26 27  1  0  0  0
 28103  1  0  0  0
 28104  1  0  0  0
 29105  1  0  0  0
 29106  1  0  0  0
 33 34  1  0  0  0
 33 66  1  0  0  0
 33 70  2  0  0  0
 34 36  1  0  0  0
 34 59  1  0  0  0
 34107  1  0  0  0
 35 44  2  0  0  0
 35 45  1  0  0  0
 35 68  1  0  0  0
 36 56  1  0  0  0
 36108  1  0  0  0
 37 39  1  0  0  0
 37 47  1  0  0  0
 37 66  1  0  0  0
 37109  1  0  0  0
 38 43  2  0  0  0
 38 46  1  0  0  0
 38 47  1  0  0  0
 39 64  1  0  0  0
 39 67  2  0  0  0
 40 52  1  0  0  0
 40 53  2  0  0  0
 40 58  1  0  0  0
 41110  1  0  0  0
 41111  1  0  0  0
 41112  1  0  0  0
 41 48  1  0  0  0
 42 43  1  0  0  0
 42 66  1  0  0  0
 42113  1  0  0  0
 42114  1  0  0  0
 43 44  1  0  0  0
 44115  1  0  0  0
 45 46  2  0  0  0
 45116  1  0  0  0
 46117  1  0  0  0
 47118  1  0  0  0
 47119  1  0  0  0
 48 56  1  0  0  0
 48 65  1  0  0  0
 48120  1  0  0  0
 49 50  1  0  0  0
 49 53  1  0  0  0
 49 64  1  0  0  0
 49121  1  0  0  0
 50 51  1  0  0  0
 50122  1  0  0  0
 50123  1  0  0  0
 51 52  1  0  0  0
 51124  1  0  0  0
 51125  1  0  0  0
 52126  1  0  0  0
 52127  1  0  0  0
 53 54  1  0  0  0
 54 55  2  0  0  0
 54128  1  0  0  0
 55 57  1  0  0  0
 55129  1  0  0  0
 56 69  2  0  0  0
 57 58  2  0  0  0
 57130  1  0  0  0
 58131  1  0  0  0
 59 60  1  0  0  0
 59 61  1  0  0  0
 59 62  1  0  0  0
 60132  1  0  0  0
 60133  1  0  0  0
 60134  1  0  0  0
 61135  1  0  0  0
 61136  1  0  0  0
 61137  1  0  0  0
 62138  1  0  0  0
 62139  1  0  0  0
 62140  1  0  0  0
 63 65  1  0  0  0
 63141  1  0  0  0
 63142  1  0  0  0
 63143  1  0  0  0
 64144  1  0  0  0
 65145  1  0  0  0
 68 81  1  0  0  0
 71 73  2  0  0  0
 71 75  1  0  0  0
 71146  1  0  0  0
 72 75  2  0  0  0
 72 76  1  0  0  0
 72147  1  0  0  0
 73 74  1  0  0  0
 73 83  1  0  0  0
 74 76  2  0  0  0
 74 82  1  0  0  0
 75 84  1  0  0  0
 76 86  1  0  0  0
 77 78  2  0  0  0
 77 79  1  0  0  0
 77 85  1  0  0  0
 78148  1  0  0  0
 78149  1  0  0  0
 79 81  1  0  0  0
 79150  1  0  0  0
 79151  1  0  0  0
 80 81  1  0  0  0
 80 85  1  0  0  0
 80152  1  0  0  0
 80153  1  0  0  0
 81154  1  0  0  0
 82155  1  0  0  0
 82156  1  0  0  0
 82157  1  0  0  0
 83158  1  0  0  0
 83159  1  0  0  0
 83 85  1  0  0  0
 84160  1  0  0  0
 85161  1  0  0  0
M  CHG  1  85   1
M  ISO  4   1 100  68 101  81 101  84 100
M  END
> <chiral flag>
0

> <version>
0

> <s_m_source_file>
/data/baiqing/PycharmProjects/Reinvent-master-3.2/result/LINK_invent/BTK/process_docking_weight1_custom_product_contain_oxygen_bond_distance_aromatic_linkinvent_7_9_3/rearranged_h_0032.sdf

> <i_m_source_file_index>
74

> <r_mmod_Potential_Energy-OPLS-2005>
162.637420654297

> <r_mmod_Stretch_Energy-OPLS-2005>
136.897659301758

> <r_mmod_Bend_Energy-OPLS-2005>
273.969055175781

> <r_mmod_Torsional_Energy-OPLS-2005>
221.746307373047

> <r_mmod_Improper_Torsional_Energy-OPLS-2005>
5.7675895690918

> <r_mmod_Van_der_Waal_Energy-OPLS-2005>
135.060775756836

> <r_mmod_Electrostatic_Energy-OPLS-2005>
-243.502258300781

> <r_mmod_Solvation_Energy-OPLS-2005>
-449.457427978516

> <b_mmod_Minimization_Converged-OPLS-2005>
0

> <r_mmod_RMS_Derivative-OPLS-2005>
3.80094337463379

$$$$
74
                    3D
 Structure written by MMmdl.
164173  0  0  1  0            999 V2000
  -30.6350  -14.6310   20.4462 C   0  0  0  0  0  0
  -30.4479  -12.3784   19.4223 C   0  0  0  0  0  0
  -29.4987  -12.5089   18.2109 C   0  0  0  0  0  0
  -28.0256  -12.3405   18.6354 C   0  0  0  0  0  0
  -27.6613  -13.2065   19.8679 C   0  0  2  0  0  0
  -28.7213  -13.0499   20.9837 C   0  0  0  0  0  0
  -25.2604  -13.8121   20.5754 C   0  0  0  0  0  0
  -24.1857  -13.0413   20.9217 C   0  0  0  0  0  0
  -24.6387  -11.6862   20.8737 C   0  0  0  0  0  0
  -23.9052  -10.4244   21.0370 C   0  0  0  0  0  0
  -24.3589   -9.4170   21.9183 C   0  0  0  0  0  0
  -23.6249   -8.2223   22.0777 C   0  0  0  0  0  0
  -22.4250   -8.0238   21.3557 C   0  0  0  0  0  0
  -21.9867   -9.0220   20.4684 C   0  0  0  0  0  0
  -22.7187  -10.2099   20.3057 C   0  0  0  0  0  0
  -21.6852   -6.0713   22.5277 C   0  0  0  0  0  0
  -21.4011   -6.5653   23.8197 C   0  0  0  0  0  0
  -21.3644   -5.6827   24.9183 C   0  0  0  0  0  0
  -21.6049   -4.3084   24.7269 C   0  0  0  0  0  0
  -21.8803   -3.8156   23.4394 C   0  0  0  0  0  0
  -21.9178   -4.6942   22.3432 C   0  0  0  0  0  0
  -22.7860  -13.5185   21.1899 C   0  0  0  0  0  0
  -22.1646   -4.2118   21.1010 F   0  0  0  0  0  0
  -21.5606   -3.4575   25.7788 F   0  0  0  0  0  0
  -30.0346  -13.3968   20.4100 N   0  0  0  0  0  0
  -26.3049  -12.9298   20.3390 N   0  0  0  0  0  0
  -25.9336  -11.6464   20.5834 N   0  0  0  0  0  0
  -22.0511  -12.8161   22.0414 N   0  0  0  0  0  0
  -25.4387  -15.1857   20.4244 N   0  0  0  0  0  0
  -31.7837  -14.8079   20.0378 O   0  0  0  0  0  0
  -21.6628   -6.8837   21.4228 O   0  0  0  0  0  0
  -22.3571  -14.5526   20.6750 O   0  0  0  0  0  0
  -24.6380  -31.8527   23.1978 C   0  0  0  0  0  0
  -25.9141  -32.4785   23.8326 C   0  0  1  0  0  0
  -27.2570  -27.3274   20.0859 C   0  0  0  0  0  0
  -25.5899  -33.8583   24.2257 N   0  0  0  0  0  0
  -23.4362  -30.4684   21.5427 C   0  0  2  0  0  0
  -24.8818  -28.9263   20.1053 C   0  0  0  0  0  0
  -22.7533  -29.4543   22.4946 C   0  0  0  0  0  0
  -18.0340  -28.1417   22.8433 C   0  0  0  0  0  0
  -24.1472  -36.7328   23.2643 C   0  0  0  0  0  0
  -25.9776  -30.7808   21.3639 C   0  0  0  0  0  0
  -26.0473  -29.4083   20.7076 C   0  0  0  0  0  0
  -27.2367  -28.6206   20.6881 C   0  0  0  0  0  0
  -26.0701  -26.9110   19.4298 C   0  0  0  0  0  0
  -24.8938  -27.6835   19.4530 C   0  0  0  0  0  0
  -23.6467  -29.7985   20.1602 C   0  0  0  0  0  0
  -25.4091  -36.3099   24.0344 C   0  0  1  0  0  0
  -20.5905  -28.3773   23.1314 C   0  0  2  0  0  0
  -20.6858  -26.9460   22.5512 C   0  0  0  0  0  0
  -19.5879  -26.6273   21.5302 C   0  0  0  0  0  0
  -18.2007  -26.7986   22.1546 C   0  0  0  0  0  0
  -19.1534  -28.8941   23.2860 C   0  0  0  0  0  0
  -18.9376  -30.1550   23.8886 C   0  0  0  0  0  0
  -17.6334  -30.6596   24.0526 C   0  0  0  0  0  0
  -25.9029  -34.9453   23.5102 C   0  0  0  0  0  0
  -16.5275  -29.9016   23.6316 C   0  0  0  0  0  0
  -16.7285  -28.6477   23.0261 C   0  0  0  0  0  0
  -26.4489  -31.6633   25.0733 C   0  0  0  0  0  0
  -25.3751  -31.3775   26.1508 C   0  0  0  0  0  0
  -27.0322  -30.3081   24.6121 C   0  0  0  0  0  0
  -27.6042  -32.4355   25.7551 C   0  0  0  0  0  0
  -27.5576  -37.1825   24.8455 C   0  0  0  0  0  0
  -21.4238  -29.3068   22.3674 N   0  0  0  0  0  0
  -26.4263  -37.3797   23.9418 N   0  0  0  0  0  0
  -24.7034  -31.0476   22.0956 N   0  0  0  0  0  0
  -23.4189  -28.8073   23.3065 O   0  0  0  0  0  0
  -28.3925  -26.4988   20.1734 O   0  0  0  0  0  0
  -26.5608  -34.8939   22.4680 O   0  0  0  0  0  0
  -23.5509  -32.1288   23.7306 O   0  0  0  0  0  0
  -30.3851  -17.8513   21.8260 C   0  0  0  0  0  0
  -29.4210  -19.2906   19.6399 C   0  0  0  0  0  0
  -30.3028  -19.2707   21.8735 C   0  0  0  0  0  0
  -29.7681  -20.0515   20.7998 C   0  0  0  0  0  0
  -29.9871  -17.1087   20.7010 C   0  0  0  0  0  0
  -29.5331  -17.8624   19.5836 C   0  0  0  0  0  0
  -27.4516  -22.8448   20.6367 C   0  0  0  0  0  0
  -26.4515  -21.9409   20.7115 C   0  0  0  0  0  0
  -27.2630  -24.3418   20.8481 C   0  0  0  0  0  0
  -29.4569  -24.0431   20.1837 C   0  0  0  0  0  0
  -28.2682  -25.0407   19.9322 C   0  0  2  0  0  0
  -30.8512  -19.9524   23.1092 C   0  0  0  0  0  0
  -26.5352  -20.4667   20.4335 C   0  0  0  0  0  0
  -29.7625  -21.6424   20.9373 C   0  0  0  0  0  0
  -29.8302  -15.6677   20.8173 N   0  0  0  0  0  0
  -28.8852  -22.6302   20.1826 N   0  3  1  0  0  0
  -29.1778  -17.2173   18.4462 F   0  0  0  0  0  0
  -31.4787  -12.5135   19.0921 H   0  0  0  0  0  0
  -30.4032  -11.3752   19.8496 H   0  0  0  0  0  0
  -29.7573  -11.7719   17.4477 H   0  0  0  0  0  0
  -29.6285  -13.4876   17.7472 H   0  0  0  0  0  0
  -27.8765  -11.2870   18.8721 H   0  0  0  0  0  0
  -27.3563  -12.5585   17.8026 H   0  0  0  0  0  0
  -27.6783  -14.2445   19.5370 H   0  0  0  0  0  0
  -28.7285  -12.0200   21.3407 H   0  0  0  0  0  0
  -28.4833  -13.6630   21.8527 H   0  0  0  0  0  0
  -25.2725   -9.5694   22.4764 H   0  0  0  0  0  0
  -23.9968   -7.4675   22.7534 H   0  0  0  0  0  0
  -21.0769   -8.8730   19.9044 H   0  0  0  0  0  0
  -22.3592  -10.9637   19.6204 H   0  0  0  0  0  0
  -21.1995   -7.6173   23.9675 H   0  0  0  0  0  0
  -21.1482   -6.0598   25.9086 H   0  0  0  0  0  0
  -22.0584   -2.7608   23.2929 H   0  0  0  0  0  0
  -22.4106  -11.9791   22.4764 H   0  0  0  0  0  0
  -21.1180  -13.1249   22.2742 H   0  0  0  0  0  0
  -24.6831  -15.8483   20.5554 H   0  0  0  0  0  0
  -26.2988  -15.6169   20.1146 H   0  0  0  0  0  0
  -26.7254  -32.5405   23.1112 H   0  0  0  0  0  0
  -24.9993  -33.9682   25.0368 H   0  0  0  0  0  0
  -22.7329  -31.2876   21.3943 H   0  0  0  0  0  0
  -23.3723  -35.9671   23.3284 H   0  0  0  0  0  0
  -24.3562  -36.8954   22.2053 H   0  0  0  0  0  0
  -23.7242  -37.6537   23.6670 H   0  0  0  0  0  0
  -26.0918  -31.5200   20.5695 H   0  0  0  0  0  0
  -26.8728  -30.8442   21.9757 H   0  0  0  0  0  0
  -28.1380  -28.9920   21.1545 H   0  0  0  0  0  0
  -26.0201  -25.9734   18.8985 H   0  0  0  0  0  0
  -24.0055  -27.3110   18.9594 H   0  0  0  0  0  0
  -23.7711  -30.5632   19.3958 H   0  0  0  0  0  0
  -22.7716  -29.2151   19.8708 H   0  0  0  0  0  0
  -25.1296  -36.1933   25.0843 H   0  0  0  0  0  0
  -20.9946  -28.3415   24.1476 H   0  0  0  0  0  0
  -20.5822  -26.2353   23.3744 H   0  0  0  0  0  0
  -21.6765  -26.7538   22.1385 H   0  0  0  0  0  0
  -19.7037  -25.6071   21.1607 H   0  0  0  0  0  0
  -19.6847  -27.2851   20.6643 H   0  0  0  0  0  0
  -17.4414  -26.6884   21.3831 H   0  0  0  0  0  0
  -18.0199  -26.0110   22.8877 H   0  0  0  0  0  0
  -19.7773  -30.7494   24.2216 H   0  0  0  0  0  0
  -17.4773  -31.6299   24.5041 H   0  0  0  0  0  0
  -15.5254  -30.2852   23.7640 H   0  0  0  0  0  0
  -15.8729  -28.0799   22.6914 H   0  0  0  0  0  0
  -24.5831  -30.7230   25.7866 H   0  0  0  0  0  0
  -24.9090  -32.2975   26.5050 H   0  0  0  0  0  0
  -25.8108  -30.8858   27.0222 H   0  0  0  0  0  0
  -26.2874  -29.6868   24.1152 H   0  0  0  0  0  0
  -27.4076  -29.7286   25.4560 H   0  0  0  0  0  0
  -27.8704  -30.4435   23.9290 H   0  0  0  0  0  0
  -27.2608  -33.3593   26.2216 H   0  0  0  0  0  0
  -28.3850  -32.7017   25.0421 H   0  0  0  0  0  0
  -28.0727  -31.8438   26.5424 H   0  0  0  0  0  0
  -28.2622  -38.0104   24.7539 H   0  0  0  0  0  0
  -28.1064  -36.2662   24.6255 H   0  0  0  0  0  0
  -27.2313  -37.1449   25.8859 H   0  0  0  0  0  0
  -20.9507  -29.8677   21.6737 H   0  0  0  0  0  0
  -26.0144  -38.2872   24.1414 H   0  0  0  0  0  0
  -30.7583  -17.3041   22.6790 H   0  0  0  0  0  0
  -29.0471  -19.7816   18.7544 H   0  0  0  0  0  0
  -25.4764  -22.2722   21.0509 H   0  0  0  0  0  0
  -27.4728  -24.5876   21.8887 H   0  0  0  0  0  0
  -26.2289  -24.6264   20.6730 H   0  0  0  0  0  0
  -29.8881  -24.2546   21.1696 H   0  0  0  0  0  0
  -30.2801  -24.1548   19.4753 H   0  0  0  0  0  0
  -27.9881  -24.9124   18.8894 H   0  0  0  0  0  0
  -31.4166  -19.2619   23.7362 H   0  0  0  0  0  0
  -30.0361  -20.3622   23.7060 H   0  0  0  0  0  0
  -31.5345  -20.7518   22.8273 H   0  0  0  0  0  0
  -27.1191  -20.2991   19.5363 H   0  0  0  0  0  0
  -25.5574  -20.0274   20.2307 H   0  0  0  0  0  0
  -26.9759  -19.9768   21.3040 H   0  0  0  0  0  0
  -30.8000  -21.9212   20.7320 H   0  0  0  0  0  0
  -29.5802  -21.9132   21.9821 H   0  0  0  0  0  0
  -28.9429  -15.3873   21.2006 H   0  0  0  0  0  0
  -28.8829  -22.3205   19.2229 H   0  0  0  0  0  0
  1 25  1  0  0  0
  1 30  2  0  0  0
  1 85  1  0  0  0
  2  3  1  0  0  0
  2 25  1  0  0  0
  2 88  1  0  0  0
  2 89  1  0  0  0
  3  4  1  0  0  0
  3 90  1  0  0  0
  3 91  1  0  0  0
  4  5  1  0  0  0
  4 92  1  0  0  0
  4 93  1  0  0  0
  5  6  1  0  0  0
  5 26  1  0  0  0
  5 94  1  0  0  0
  6 25  1  0  0  0
  6 95  1  0  0  0
  6 96  1  0  0  0
  7  8  2  0  0  0
  7 26  1  0  0  0
  7 29  1  0  0  0
  8  9  1  0  0  0
  8 22  1  0  0  0
  9 10  1  0  0  0
  9 27  2  0  0  0
 10 11  2  0  0  0
 10 15  1  0  0  0
 11 12  1  0  0  0
 11 97  1  0  0  0
 12 13  2  0  0  0
 12 98  1  0  0  0
 13 14  1  0  0  0
 13 31  1  0  0  0
 14 15  2  0  0  0
 14 99  1  0  0  0
 15100  1  0  0  0
 16 17  2  0  0  0
 16 21  1  0  0  0
 16 31  1  0  0  0
 17 18  1  0  0  0
 17101  1  0  0  0
 18 19  2  0  0  0
 18102  1  0  0  0
 19 20  1  0  0  0
 19 24  1  0  0  0
 20 21  2  0  0  0
 20103  1  0  0  0
 21 23  1  0  0  0
 22 28  1  0  0  0
 22 32  2  0  0  0
 26 27  1  0  0  0
 28104  1  0  0  0
 28105  1  0  0  0
 29106  1  0  0  0
 29107  1  0  0  0
 33 34  1  0  0  0
 33 66  1  0  0  0
 33 70  2  0  0  0
 34 36  1  0  0  0
 34 59  1  0  0  0
 34108  1  0  0  0
 35 44  2  0  0  0
 35 45  1  0  0  0
 35 68  1  0  0  0
 36 56  1  0  0  0
 36109  1  0  0  0
 37 39  1  0  0  0
 37 47  1  0  0  0
 37 66  1  0  0  0
 37110  1  0  0  0
 38 43  2  0  0  0
 38 46  1  0  0  0
 38 47  1  0  0  0
 39 64  1  0  0  0
 39 67  2  0  0  0
 40 52  1  0  0  0
 40 53  2  0  0  0
 40 58  1  0  0  0
 41111  1  0  0  0
 41112  1  0  0  0
 41113  1  0  0  0
 41 48  1  0  0  0
 42 43  1  0  0  0
 42 66  1  0  0  0
 42114  1  0  0  0
 42115  1  0  0  0
 43 44  1  0  0  0
 44116  1  0  0  0
 45 46  2  0  0  0
 45117  1  0  0  0
 46118  1  0  0  0
 47119  1  0  0  0
 47120  1  0  0  0
 48 56  1  0  0  0
 48 65  1  0  0  0
 48121  1  0  0  0
 49 50  1  0  0  0
 49 53  1  0  0  0
 49 64  1  0  0  0
 49122  1  0  0  0
 50 51  1  0  0  0
 50123  1  0  0  0
 50124  1  0  0  0
 51 52  1  0  0  0
 51125  1  0  0  0
 51126  1  0  0  0
 52127  1  0  0  0
 52128  1  0  0  0
 53 54  1  0  0  0
 54 55  2  0  0  0
 54129  1  0  0  0
 55 57  1  0  0  0
 55130  1  0  0  0
 56 69  2  0  0  0
 57 58  2  0  0  0
 57131  1  0  0  0
 58132  1  0  0  0
 59 60  1  0  0  0
 59 61  1  0  0  0
 59 62  1  0  0  0
 60133  1  0  0  0
 60134  1  0  0  0
 60135  1  0  0  0
 61136  1  0  0  0
 61137  1  0  0  0
 61138  1  0  0  0
 62139  1  0  0  0
 62140  1  0  0  0
 62141  1  0  0  0
 63 65  1  0  0  0
 63142  1  0  0  0
 63143  1  0  0  0
 63144  1  0  0  0
 64145  1  0  0  0
 65146  1  0  0  0
 68 81  1  0  0  0
 71 73  2  0  0  0
 71 75  1  0  0  0
 71147  1  0  0  0
 72 74  2  0  0  0
 72 76  1  0  0  0
 72148  1  0  0  0
 73 74  1  0  0  0
 73 82  1  0  0  0
 74 84  1  0  0  0
 75 76  2  0  0  0
 75 85  1  0  0  0
 76 87  1  0  0  0
 77 78  2  0  0  0
 77 79  1  0  0  0
 77 86  1  0  0  0
 78 83  1  0  0  0
 78149  1  0  0  0
 79 81  1  0  0  0
 79150  1  0  0  0
 79151  1  0  0  0
 80 81  1  0  0  0
 80 86  1  0  0  0
 80152  1  0  0  0
 80153  1  0  0  0
 81154  1  0  0  0
 82155  1  0  0  0
 82156  1  0  0  0
 82157  1  0  0  0
 83158  1  0  0  0
 83159  1  0  0  0
 83160  1  0  0  0
 84161  1  0  0  0
 84162  1  0  0  0
 84 86  1  0  0  0
 85163  1  0  0  0
 86164  1  0  0  0
M  CHG  1  86   1
M  ISO  4   1 100  68 101  81 101  85 100
M  END
> <chiral flag>
0

> <version>
0

> <s_m_source_file>
/data/baiqing/PycharmProjects/Reinvent-master-3.2/result/LINK_invent/BTK/process_docking_weight1_custom_product_contain_oxygen_bond_distance_aromatic_linkinvent_7_9_3/rearranged_h_0032.sdf

> <i_m_source_file_index>
75

> <r_mmod_Potential_Energy-OPLS-2005>
21.5483875274658

> <r_mmod_Stretch_Energy-OPLS-2005>
84.1937866210938

> <r_mmod_Bend_Energy-OPLS-2005>
209.97868347168

> <r_mmod_Torsional_Energy-OPLS-2005>
265.527526855469

> <r_mmod_Improper_Torsional_Energy-OPLS-2005>
5.65611267089844

> <r_mmod_Van_der_Waal_Energy-OPLS-2005>
143.899185180664

> <r_mmod_Electrostatic_Energy-OPLS-2005>
-295.883941650391

> <r_mmod_Solvation_Energy-OPLS-2005>
-440.498748779297

> <b_mmod_Minimization_Converged-OPLS-2005>
0

> <r_mmod_RMS_Derivative-OPLS-2005>
9.20536422729492

$$$$
75
                    3D
 Structure written by MMmdl.
164173  0  0  1  0            999 V2000
  -30.5522  -14.6910   20.5530 C   0  0  0  0  0  0
  -30.4399  -12.4413   19.4635 C   0  0  0  0  0  0
  -29.5087  -12.5510   18.2334 C   0  0  0  0  0  0
  -28.0334  -12.3610   18.6418 C   0  0  0  0  0  0
  -27.6503  -13.2219   19.8748 C   0  0  2  0  0  0
  -28.6862  -13.0554   21.0092 C   0  0  0  0  0  0
  -25.2521  -13.8190   20.5662 C   0  0  0  0  0  0
  -24.1807  -13.0434   20.9126 C   0  0  0  0  0  0
  -24.6383  -11.6904   20.8687 C   0  0  0  0  0  0
  -23.9070  -10.4284   21.0373 C   0  0  0  0  0  0
  -24.3622   -9.4208   21.9156 C   0  0  0  0  0  0
  -23.6281   -8.2270   22.0770 C   0  0  0  0  0  0
  -22.4263   -8.0285   21.3554 C   0  0  0  0  0  0
  -21.9891   -9.0261   20.4658 C   0  0  0  0  0  0
  -22.7228  -10.2126   20.3033 C   0  0  0  0  0  0
  -21.6861   -6.0731   22.5261 C   0  0  0  0  0  0
  -21.4041   -6.5642   23.8186 C   0  0  0  0  0  0
  -21.3628   -5.6798   24.9148 C   0  0  0  0  0  0
  -21.6037   -4.3060   24.7203 C   0  0  0  0  0  0
  -21.8838   -3.8146   23.4333 C   0  0  0  0  0  0
  -21.9205   -4.6957   22.3384 C   0  0  0  0  0  0
  -22.7826  -13.5192   21.1817 C   0  0  0  0  0  0
  -22.1654   -4.2141   21.0953 F   0  0  0  0  0  0
  -21.5614   -3.4534   25.7716 F   0  0  0  0  0  0
  -29.9981  -13.4372   20.4670 N   0  0  0  0  0  0
  -26.2955  -12.9382   20.3327 N   0  0  0  0  0  0
  -25.9318  -11.6521   20.5754 N   0  0  0  0  0  0
  -22.0509  -12.8171   22.0382 N   0  0  0  0  0  0
  -25.4205  -15.1937   20.4114 N   0  0  0  0  0  0
  -31.6806  -14.9071   20.0913 O   0  0  0  0  0  0
  -21.6652   -6.8878   21.4229 O   0  0  0  0  0  0
  -22.3488  -14.5478   20.6643 O   0  0  0  0  0  0
  -24.6250  -31.8591   23.2051 C   0  0  0  0  0  0
  -25.9106  -32.4758   23.8352 C   0  0  1  0  0  0
  -27.2056  -27.3112   20.1203 C   0  0  0  0  0  0
  -25.5950  -33.8560   24.2324 N   0  0  0  0  0  0
  -23.4173  -30.4823   21.5497 C   0  0  2  0  0  0
  -24.8579  -28.9361   20.1138 C   0  0  0  0  0  0
  -22.7485  -29.4578   22.4964 C   0  0  0  0  0  0
  -18.0282  -28.1348   22.8484 C   0  0  0  0  0  0
  -24.1465  -36.7266   23.2632 C   0  0  0  0  0  0
  -25.9586  -30.7852   21.3750 C   0  0  0  0  0  0
  -26.0285  -29.4134   20.7170 C   0  0  0  0  0  0
  -27.2051  -28.6119   20.7095 C   0  0  0  0  0  0
  -26.0166  -26.8817   19.4921 C   0  0  0  0  0  0
  -24.8550  -27.6790   19.4903 C   0  0  0  0  0  0
  -23.6313  -29.8229   20.1630 C   0  0  0  0  0  0
  -25.4102  -36.3069   24.0326 C   0  0  1  0  0  0
  -20.5884  -28.3655   23.1281 C   0  0  2  0  0  0
  -20.6767  -26.9375   22.5410 C   0  0  0  0  0  0
  -19.5752  -26.6360   21.5196 C   0  0  0  0  0  0
  -18.1921  -26.7899   22.1595 C   0  0  0  0  0  0
  -19.1528  -28.8826   23.2874 C   0  0  0  0  0  0
  -18.9450  -30.1425   23.8908 C   0  0  0  0  0  0
  -17.6450  -30.6568   24.0543 C   0  0  0  0  0  0
  -25.9057  -34.9439   23.5137 C   0  0  0  0  0  0
  -16.5339  -29.9063   23.6328 C   0  0  0  0  0  0
  -16.7263  -28.6458   23.0376 C   0  0  0  0  0  0
  -26.4546  -31.6561   25.0702 C   0  0  0  0  0  0
  -25.3806  -31.3623   26.1428 C   0  0  0  0  0  0
  -27.0418  -30.3000   24.6114 C   0  0  0  0  0  0
  -27.6068  -32.4331   25.7491 C   0  0  0  0  0  0
  -27.5608  -37.1755   24.8478 C   0  0  0  0  0  0
  -21.4193  -29.2995   22.3706 N   0  0  0  0  0  0
  -26.4288  -37.3764   23.9442 N   0  0  0  0  0  0
  -24.6867  -31.0578   22.1011 N   0  0  0  0  0  0
  -23.4220  -28.8131   23.3039 O   0  0  0  0  0  0
  -28.3358  -26.4903   20.1944 O   0  0  0  0  0  0
  -26.5591  -34.8910   22.4683 O   0  0  0  0  0  0
  -23.5418  -32.1406   23.7354 O   0  0  0  0  0  0
  -29.1708  -19.1712   19.5570 C   0  0  0  0  0  0
  -29.1011  -17.9167   22.0201 C   0  0  0  0  0  0
  -28.6848  -19.9573   20.6429 C   0  0  0  0  0  0
  -29.5580  -17.7950   19.6677 C   0  0  0  0  0  0
  -28.6654  -19.2819   21.9039 C   0  0  0  0  0  0
  -29.5495  -17.1202   20.9237 C   0  0  0  0  0  0
  -29.8847  -23.1205   20.0707 C   0  0  0  0  0  0
  -30.9507  -22.3204   19.9161 C   0  0  0  0  0  0
  -29.7929  -24.5965   19.6869 C   0  0  0  0  0  0
  -27.7015  -23.9294   20.6771 C   0  0  0  0  0  0
  -28.3378  -25.0636   19.7843 C   0  0  1  0  0  0
  -29.8591  -17.0350   18.3888 C   0  0  0  0  0  0
  -28.1161  -19.9524   23.1623 C   0  0  0  0  0  0
  -27.9978  -21.3687   20.3463 C   0  0  0  0  0  0
  -29.7636  -15.6692   21.1298 N   0  0  0  0  0  0
  -28.6139  -22.7126   20.7362 N   0  3  1  0  0  0
  -31.4772  -12.5974   19.1649 H   0  0  0  0  0  0
  -30.3957  -11.4392   19.8901 H   0  0  0  0  0  0
  -29.7893  -11.8197   17.4748 H   0  0  0  0  0  0
  -29.6280  -13.5356   17.7785 H   0  0  0  0  0  0
  -27.8787  -11.3039   18.8654 H   0  0  0  0  0  0
  -27.3760  -12.5939   17.8042 H   0  0  0  0  0  0
  -27.6689  -14.2620   19.5480 H   0  0  0  0  0  0
  -28.7151  -12.0211   21.3579 H   0  0  0  0  0  0
  -28.4082  -13.6481   21.8809 H   0  0  0  0  0  0
  -25.2798   -9.5672   22.4682 H   0  0  0  0  0  0
  -23.9976   -7.4685   22.7518 H   0  0  0  0  0  0
  -21.0811   -8.8800   19.8969 H   0  0  0  0  0  0
  -22.3714  -10.9661   19.6112 H   0  0  0  0  0  0
  -21.2075   -7.6153   23.9670 H   0  0  0  0  0  0
  -21.1395   -6.0530   25.9035 H   0  0  0  0  0  0
  -22.0649   -2.7603   23.2842 H   0  0  0  0  0  0
  -22.4148  -11.9808   22.4707 H   0  0  0  0  0  0
  -21.1136  -13.1185   22.2627 H   0  0  0  0  0  0
  -24.6480  -15.8439   20.5036 H   0  0  0  0  0  0
  -26.2836  -15.6431   20.1355 H   0  0  0  0  0  0
  -26.7160  -32.5438   23.1074 H   0  0  0  0  0  0
  -25.0132  -33.9683   25.0505 H   0  0  0  0  0  0
  -22.7064  -31.2996   21.4107 H   0  0  0  0  0  0
  -23.3738  -35.9570   23.3234 H   0  0  0  0  0  0
  -24.3568  -36.8984   22.2072 H   0  0  0  0  0  0
  -23.7192  -37.6426   23.6719 H   0  0  0  0  0  0
  -26.0889  -31.5419   20.6013 H   0  0  0  0  0  0
  -26.8386  -30.8334   22.0028 H   0  0  0  0  0  0
  -28.1071  -28.9763   21.1823 H   0  0  0  0  0  0
  -25.9492  -25.9187   19.0093 H   0  0  0  0  0  0
  -23.9562  -27.3128   19.0139 H   0  0  0  0  0  0
  -23.7629  -30.6058   19.4168 H   0  0  0  0  0  0
  -22.7466  -29.2648   19.8575 H   0  0  0  0  0  0
  -25.1237  -36.1922   25.0805 H   0  0  0  0  0  0
  -20.9933  -28.3211   24.1421 H   0  0  0  0  0  0
  -20.5674  -26.2234   23.3587 H   0  0  0  0  0  0
  -21.6632  -26.7409   22.1208 H   0  0  0  0  0  0
  -19.6916  -25.6269   21.1234 H   0  0  0  0  0  0
  -19.6723  -27.3159   20.6722 H   0  0  0  0  0  0
  -17.4212  -26.6680   21.3971 H   0  0  0  0  0  0
  -18.0288  -26.0003   22.8962 H   0  0  0  0  0  0
  -19.7932  -30.7226   24.2303 H   0  0  0  0  0  0
  -17.5007  -31.6255   24.5127 H   0  0  0  0  0  0
  -15.5334  -30.2956   23.7650 H   0  0  0  0  0  0
  -15.8657  -28.0768   22.7109 H   0  0  0  0  0  0
  -24.6047  -30.6886   25.7790 H   0  0  0  0  0  0
  -24.8871  -32.2730   26.4808 H   0  0  0  0  0  0
  -25.8147  -30.8893   27.0245 H   0  0  0  0  0  0
  -26.2993  -29.6663   24.1243 H   0  0  0  0  0  0
  -27.4322  -29.7291   25.4555 H   0  0  0  0  0  0
  -27.8762  -30.4308   23.9210 H   0  0  0  0  0  0
  -27.2682  -33.3697   26.1921 H   0  0  0  0  0  0
  -28.3942  -32.6799   25.0366 H   0  0  0  0  0  0
  -28.0653  -31.8562   26.5533 H   0  0  0  0  0  0
  -28.2522  -38.0153   24.7603 H   0  0  0  0  0  0
  -28.1207  -36.2660   24.6182 H   0  0  0  0  0  0
  -27.2331  -37.1291   25.8884 H   0  0  0  0  0  0
  -20.9401  -29.8723   21.6920 H   0  0  0  0  0  0
  -26.0157  -38.2821   24.1480 H   0  0  0  0  0  0
  -29.1719  -19.6188   18.5754 H   0  0  0  0  0  0
  -29.0321  -17.4457   22.9916 H   0  0  0  0  0  0
  -31.8552  -22.6883   19.4527 H   0  0  0  0  0  0
  -30.9595  -21.2943   20.2513 H   0  0  0  0  0  0
  -30.1938  -24.7631   18.6870 H   0  0  0  0  0  0
  -30.4087  -25.1669   20.3838 H   0  0  0  0  0  0
  -26.7040  -23.6781   20.3133 H   0  0  0  0  0  0
  -27.5685  -24.3003   21.6916 H   0  0  0  0  0  0
  -27.9246  -24.9876   18.7763 H   0  0  0  0  0  0
  -29.7150  -17.6591   17.5051 H   0  0  0  0  0  0
  -29.1925  -16.1757   18.2951 H   0  0  0  0  0  0
  -30.8901  -16.6848   18.3823 H   0  0  0  0  0  0
  -27.4028  -19.2909   23.6574 H   0  0  0  0  0  0
  -27.5836  -20.8826   22.9698 H   0  0  0  0  0  0
  -28.9150  -20.1759   23.8730 H   0  0  0  0  0  0
  -27.0002  -21.3186   20.7849 H   0  0  0  0  0  0
  -27.8093  -21.4109   19.2725 H   0  0  0  0  0  0
  -29.0724  -15.2628   21.7388 H   0  0  0  0  0  0
  -28.8151  -22.6053   21.7188 H   0  0  0  0  0  0
  1 25  1  0  0  0
  1 30  2  0  0  0
  1 85  1  0  0  0
  2  3  1  0  0  0
  2 25  1  0  0  0
  2 87  1  0  0  0
  2 88  1  0  0  0
  3  4  1  0  0  0
  3 89  1  0  0  0
  3 90  1  0  0  0
  4  5  1  0  0  0
  4 91  1  0  0  0
  4 92  1  0  0  0
  5  6  1  0  0  0
  5 26  1  0  0  0
  5 93  1  0  0  0
  6 25  1  0  0  0
  6 94  1  0  0  0
  6 95  1  0  0  0
  7  8  2  0  0  0
  7 26  1  0  0  0
  7 29  1  0  0  0
  8  9  1  0  0  0
  8 22  1  0  0  0
  9 10  1  0  0  0
  9 27  2  0  0  0
 10 11  2  0  0  0
 10 15  1  0  0  0
 11 12  1  0  0  0
 11 96  1  0  0  0
 12 13  2  0  0  0
 12 97  1  0  0  0
 13 14  1  0  0  0
 13 31  1  0  0  0
 14 15  2  0  0  0
 14 98  1  0  0  0
 15 99  1  0  0  0
 16 17  2  0  0  0
 16 21  1  0  0  0
 16 31  1  0  0  0
 17 18  1  0  0  0
 17100  1  0  0  0
 18 19  2  0  0  0
 18101  1  0  0  0
 19 20  1  0  0  0
 19 24  1  0  0  0
 20 21  2  0  0  0
 20102  1  0  0  0
 21 23  1  0  0  0
 22 28  1  0  0  0
 22 32  2  0  0  0
 26 27  1  0  0  0
 28103  1  0  0  0
 28104  1  0  0  0
 29105  1  0  0  0
 29106  1  0  0  0
 33 34  1  0  0  0
 33 66  1  0  0  0
 33 70  2  0  0  0
 34 36  1  0  0  0
 34 59  1  0  0  0
 34107  1  0  0  0
 35 44  2  0  0  0
 35 45  1  0  0  0
 35 68  1  0  0  0
 36 56  1  0  0  0
 36108  1  0  0  0
 37 39  1  0  0  0
 37 47  1  0  0  0
 37 66  1  0  0  0
 37109  1  0  0  0
 38 43  2  0  0  0
 38 46  1  0  0  0
 38 47  1  0  0  0
 39 64  1  0  0  0
 39 67  2  0  0  0
 40 52  1  0  0  0
 40 53  2  0  0  0
 40 58  1  0  0  0
 41110  1  0  0  0
 41111  1  0  0  0
 41112  1  0  0  0
 41 48  1  0  0  0
 42 43  1  0  0  0
 42 66  1  0  0  0
 42113  1  0  0  0
 42114  1  0  0  0
 43 44  1  0  0  0
 44115  1  0  0  0
 45 46  2  0  0  0
 45116  1  0  0  0
 46117  1  0  0  0
 47118  1  0  0  0
 47119  1  0  0  0
 48 56  1  0  0  0
 48 65  1  0  0  0
 48120  1  0  0  0
 49 50  1  0  0  0
 49 53  1  0  0  0
 49 64  1  0  0  0
 49121  1  0  0  0
 50 51  1  0  0  0
 50122  1  0  0  0
 50123  1  0  0  0
 51 52  1  0  0  0
 51124  1  0  0  0
 51125  1  0  0  0
 52126  1  0  0  0
 52127  1  0  0  0
 53 54  1  0  0  0
 54 55  2  0  0  0
 54128  1  0  0  0
 55 57  1  0  0  0
 55129  1  0  0  0
 56 69  2  0  0  0
 57 58  2  0  0  0
 57130  1  0  0  0
 58131  1  0  0  0
 59 60  1  0  0  0
 59 61  1  0  0  0
 59 62  1  0  0  0
 60132  1  0  0  0
 60133  1  0  0  0
 60134  1  0  0  0
 61135  1  0  0  0
 61136  1  0  0  0
 61137  1  0  0  0
 62138  1  0  0  0
 62139  1  0  0  0
 62140  1  0  0  0
 63 65  1  0  0  0
 63141  1  0  0  0
 63142  1  0  0  0
 63143  1  0  0  0
 64144  1  0  0  0
 65145  1  0  0  0
 68 81  1  0  0  0
 71 73  2  0  0  0
 71 74  1  0  0  0
 71146  1  0  0  0
 72 75  2  0  0  0
 72 76  1  0  0  0
 72147  1  0  0  0
 73 75  1  0  0  0
 73 84  1  0  0  0
 74 76  2  0  0  0
 74 82  1  0  0  0
 75 83  1  0  0  0
 76 85  1  0  0  0
 77 78  2  0  0  0
 77 79  1  0  0  0
 77 86  1  0  0  0
 78148  1  0  0  0
 78149  1  0  0  0
 79 81  1  0  0  0
 79150  1  0  0  0
 79151  1  0  0  0
 80 81  1  0  0  0
 80 86  1  0  0  0
 80152  1  0  0  0
 80153  1  0  0  0
 81154  1  0  0  0
 82155  1  0  0  0
 82156  1  0  0  0
 82157  1  0  0  0
 83158  1  0  0  0
 83159  1  0  0  0
 83160  1  0  0  0
 84161  1  0  0  0
 84162  1  0  0  0
 84 86  1  0  0  0
 85163  1  0  0  0
 86164  1  0  0  0
M  CHG  1  86   1
M  ISO  4   1 100  68 101  81 101  85 100
M  END
> <chiral flag>
0

> <version>
0

> <s_m_source_file>
/data/baiqing/PycharmProjects/Reinvent-master-3.2/result/LINK_invent/BTK/process_docking_weight1_custom_product_contain_oxygen_bond_distance_aromatic_linkinvent_7_9_3/rearranged_h_0032.sdf

> <i_m_source_file_index>
76

> <r_mmod_Potential_Energy-OPLS-2005>
27.7521781921387

> <r_mmod_Stretch_Energy-OPLS-2005>
92.4588394165039

> <r_mmod_Bend_Energy-OPLS-2005>
191.245651245117

> <r_mmod_Torsional_Energy-OPLS-2005>
258.721893310547

> <r_mmod_Improper_Torsional_Energy-OPLS-2005>
5.29952430725098

> <r_mmod_Van_der_Waal_Energy-OPLS-2005>
132.331253051758

> <r_mmod_Electrostatic_Energy-OPLS-2005>
-286.605865478516

> <r_mmod_Solvation_Energy-OPLS-2005>
-426.716064453125

> <b_mmod_Minimization_Converged-OPLS-2005>
0

> <r_mmod_RMS_Derivative-OPLS-2005>
4.56892919540405

$$$$
76
                    3D
 Structure written by MMmdl.
158167  0  0  1  0            999 V2000
  -30.4135  -15.3301   20.3488 C   0  0  0  0  0  0
  -30.4378  -12.8469   19.5483 C   0  0  0  0  0  0
  -29.5444  -12.5936   18.3046 C   0  0  0  0  0  0
  -28.0948  -12.3075   18.7260 C   0  0  0  0  0  0
  -27.6120  -13.2837   19.8265 C   0  0  2  0  0  0
  -28.6372  -13.4888   20.9655 C   0  0  0  0  0  0
  -25.2389  -13.8264   20.5749 C   0  0  0  0  0  0
  -24.1744  -13.0449   20.9262 C   0  0  0  0  0  0
  -24.6404  -11.6946   20.8758 C   0  0  0  0  0  0
  -23.9098  -10.4314   21.0414 C   0  0  0  0  0  0
  -24.3645   -9.4218   21.9196 C   0  0  0  0  0  0
  -23.6304   -8.2263   22.0772 C   0  0  0  0  0  0
  -22.4289   -8.0309   21.3558 C   0  0  0  0  0  0
  -21.9928   -9.0285   20.4665 C   0  0  0  0  0  0
  -22.7266  -10.2159   20.3065 C   0  0  0  0  0  0
  -21.6867   -6.0748   22.5281 C   0  0  0  0  0  0
  -21.4019   -6.5647   23.8213 C   0  0  0  0  0  0
  -21.3652   -5.6796   24.9171 C   0  0  0  0  0  0
  -21.6034   -4.3061   24.7222 C   0  0  0  0  0  0
  -21.8816   -3.8150   23.4344 C   0  0  0  0  0  0
  -21.9194   -4.6966   22.3396 C   0  0  0  0  0  0
  -22.7767  -13.5203   21.1898 C   0  0  0  0  0  0
  -22.1668   -4.2146   21.0977 F   0  0  0  0  0  0
  -21.5618   -3.4538   25.7732 F   0  0  0  0  0  0
  -29.8707  -14.0054   20.3458 N   0  0  0  0  0  0
  -26.2816  -12.9554   20.3225 N   0  0  0  0  0  0
  -25.9344  -11.6646   20.5711 N   0  0  0  0  0  0
  -22.0418  -12.8203   22.0457 N   0  0  0  0  0  0
  -25.4010  -15.2006   20.4173 N   0  0  0  0  0  0
  -31.6198  -15.3311   20.0597 O   0  0  0  0  0  0
  -21.6653   -6.8902   21.4253 O   0  0  0  0  0  0
  -22.3451  -14.5493   20.6726 O   0  0  0  0  0  0
  -24.6656  -31.8186   23.1693 C   0  0  0  0  0  0
  -25.9310  -32.4565   23.8187 C   0  0  1  0  0  0
  -27.2320  -26.8883   20.1991 C   0  0  0  0  0  0
  -25.5954  -33.8384   24.2076 N   0  0  0  0  0  0
  -23.4857  -30.4265   21.5158 C   0  0  2  0  0  0
  -24.9451  -28.8066   20.1105 C   0  0  0  0  0  0
  -22.7690  -29.4411   22.4760 C   0  0  0  0  0  0
  -18.0333  -28.1411   22.8457 C   0  0  0  0  0  0
  -24.1493  -36.7208   23.2657 C   0  0  0  0  0  0
  -26.0559  -30.6127   21.4078 C   0  0  0  0  0  0
  -26.1263  -29.1974   20.7538 C   0  0  0  0  0  0
  -27.2598  -28.2596   20.7745 C   0  0  0  0  0  0
  -26.0244  -26.6633   19.4973 C   0  0  0  0  0  0
  -24.9224  -27.5600   19.4624 C   0  0  0  0  0  0
  -23.7306  -29.7377   20.1434 C   0  0  0  0  0  0
  -25.4139  -36.2960   24.0299 C   0  0  1  0  0  0
  -20.5958  -28.3761   23.1168 C   0  0  2  0  0  0
  -20.6809  -26.9439   22.5395 C   0  0  0  0  0  0
  -19.5785  -26.6372   21.5210 C   0  0  0  0  0  0
  -18.1968  -26.7942   22.1621 C   0  0  0  0  0  0
  -19.1593  -28.8911   23.2797 C   0  0  0  0  0  0
  -18.9499  -30.1499   23.8836 C   0  0  0  0  0  0
  -17.6488  -30.6599   24.0555 C   0  0  0  0  0  0
  -25.9086  -34.9334   23.5013 C   0  0  0  0  0  0
  -16.5381  -29.9080   23.6341 C   0  0  0  0  0  0
  -16.7315  -28.6503   23.0357 C   0  0  0  0  0  0
  -26.4555  -31.6528   25.0734 C   0  0  0  0  0  0
  -25.3692  -31.3785   26.1401 C   0  0  0  0  0  0
  -27.0458  -30.2883   24.6513 C   0  0  0  0  0  0
  -27.6034  -32.4356   25.7538 C   0  0  0  0  0  0
  -27.5560  -37.1782   24.8481 C   0  0  0  0  0  0
  -21.4353  -29.3032   22.3500 N   0  0  0  0  0  0
  -26.4299  -37.3681   23.9371 N   0  0  0  0  0  0
  -24.7572  -30.9807   22.0848 N   0  0  0  0  0  0
  -23.4199  -28.7995   23.3044 O   0  0  0  0  0  0
  -28.2205  -25.7593   20.3224 O   0  0  0  0  0  0
  -26.5705  -34.8866   22.4612 O   0  0  0  0  0  0
  -23.5706  -32.1178   23.6740 O   0  0  0  0  0  0
  -28.8264  -21.1734   19.9851 C   0  0  0  0  0  0
  -29.9184  -21.4318   22.4311 C   0  0  0  0  0  0
  -28.7900  -22.6294   20.5461 C   0  0  0  0  0  0
  -29.3858  -19.8470   20.5855 C   0  0  0  0  0  0
  -29.4390  -22.6295   21.8136 C   0  0  0  0  0  0
  -29.9000  -20.1241   21.8728 C   0  0  0  0  0  0
  -30.5560  -24.7776   22.1341 C   0  0  0  0  0  0
  -30.7774  -25.8164   23.2186 C   0  0  0  0  0  0
  -29.7554  -25.4352   24.2933 C   0  0  0  0  0  0
  -29.2753  -24.0277   23.9142 C   0  0  0  0  0  0
  -29.6728  -18.2170   19.9478 C   0  0  0  0  0  0
  -28.0417  -24.1360   19.9697 C   0  0  0  0  0  0
  -29.6638  -23.8466   22.5175 N   0  0  0  0  0  0
  -29.6407  -16.6070   20.4795 N   0  0  0  0  0  0
  -31.1437  -24.8266   21.0486 O   0  0  0  0  0  0
  -30.6152  -18.8545   22.8015 Cl  0  0  0  0  0  0
  -31.4580  -13.0472   19.2172 H   0  0  0  0  0  0
  -30.5054  -11.9500   20.1661 H   0  0  0  0  0  0
  -29.9337  -11.7606   17.7172 H   0  0  0  0  0  0
  -29.5703  -13.4672   17.6522 H   0  0  0  0  0  0
  -28.0572  -11.2845   19.1031 H   0  0  0  0  0  0
  -27.4305  -12.3442   17.8621 H   0  0  0  0  0  0
  -27.5189  -14.2434   19.3170 H   0  0  0  0  0  0
  -28.8132  -12.5663   21.5202 H   0  0  0  0  0  0
  -28.2604  -14.2190   21.6839 H   0  0  0  0  0  0
  -25.2794   -9.5670   22.4769 H   0  0  0  0  0  0
  -23.9996   -7.4643   22.7490 H   0  0  0  0  0  0
  -21.0858   -8.8803   19.8978 H   0  0  0  0  0  0
  -22.3725  -10.9697   19.6166 H   0  0  0  0  0  0
  -21.2034   -7.6160   23.9724 H   0  0  0  0  0  0
  -21.1472   -6.0531   25.9073 H   0  0  0  0  0  0
  -22.0601   -2.7616   23.2849 H   0  0  0  0  0  0
  -22.4039  -11.9864   22.4827 H   0  0  0  0  0  0
  -21.1033  -13.1226   22.2664 H   0  0  0  0  0  0
  -24.6305  -15.8508   20.5283 H   0  0  0  0  0  0
  -26.2364  -15.6373   20.0510 H   0  0  0  0  0  0
  -26.7396  -32.5093   23.0918 H   0  0  0  0  0  0
  -25.0048  -33.9464   25.0193 H   0  0  0  0  0  0
  -22.8018  -31.2588   21.3390 H   0  0  0  0  0  0
  -23.3729  -35.9570   23.3359 H   0  0  0  0  0  0
  -24.3553  -36.8808   22.2064 H   0  0  0  0  0  0
  -23.7293  -37.6427   23.6688 H   0  0  0  0  0  0
  -26.2384  -31.3521   20.6262 H   0  0  0  0  0  0
  -26.9141  -30.6749   22.0654 H   0  0  0  0  0  0
  -28.1469  -28.5548   21.3171 H   0  0  0  0  0  0
  -25.8941  -25.7121   19.0026 H   0  0  0  0  0  0
  -24.0281  -27.2513   18.9383 H   0  0  0  0  0  0
  -23.8868  -30.5048   19.3844 H   0  0  0  0  0  0
  -22.8413  -29.1912   19.8249 H   0  0  0  0  0  0
  -25.1346  -36.1790   25.0795 H   0  0  0  0  0  0
  -21.0049  -28.3383   24.1293 H   0  0  0  0  0  0
  -20.5692  -26.2386   23.3642 H   0  0  0  0  0  0
  -21.6674  -26.7410   22.1204 H   0  0  0  0  0  0
  -19.6944  -25.6265   21.1284 H   0  0  0  0  0  0
  -19.6733  -27.3144   20.6709 H   0  0  0  0  0  0
  -17.4239  -26.6678   21.4025 H   0  0  0  0  0  0
  -18.0363  -26.0098   22.9033 H   0  0  0  0  0  0
  -19.7974  -30.7329   24.2175 H   0  0  0  0  0  0
  -17.5039  -31.6270   24.5173 H   0  0  0  0  0  0
  -15.5375  -30.2959   23.7698 H   0  0  0  0  0  0
  -15.8719  -28.0802   22.7094 H   0  0  0  0  0  0
  -24.5887  -30.7107   25.7739 H   0  0  0  0  0  0
  -24.8862  -32.2977   26.4718 H   0  0  0  0  0  0
  -25.7939  -30.9048   27.0261 H   0  0  0  0  0  0
  -26.3134  -29.6544   24.1497 H   0  0  0  0  0  0
  -27.3924  -29.7273   25.5203 H   0  0  0  0  0  0
  -27.9105  -30.4039   23.9979 H   0  0  0  0  0  0
  -27.2586  -33.3692   26.1995 H   0  0  0  0  0  0
  -28.3904  -32.6861   25.0416 H   0  0  0  0  0  0
  -28.0640  -31.8574   26.5559 H   0  0  0  0  0  0
  -28.2632  -38.0018   24.7389 H   0  0  0  0  0  0
  -28.0989  -36.2528   24.6485 H   0  0  0  0  0  0
  -27.2244  -37.1648   25.8880 H   0  0  0  0  0  0
  -20.9620  -29.8697   21.6599 H   0  0  0  0  0  0
  -26.0153  -38.2760   24.1281 H   0  0  0  0  0  0
  -28.3966  -21.0713   18.9984 H   0  0  0  0  0  0
  -30.3921  -21.5126   23.3979 H   0  0  0  0  0  0
  -30.6288  -26.8283   22.8422 H   0  0  0  0  0  0
  -31.7995  -25.7254   23.5881 H   0  0  0  0  0  0
  -28.9207  -26.1380   24.2798 H   0  0  0  0  0  0
  -30.1870  -25.4573   25.2951 H   0  0  0  0  0  0
  -28.1988  -23.9151   24.0466 H   0  0  0  0  0  0
  -29.7660  -23.2886   24.5477 H   0  0  0  0  0  0
  -30.6773  -18.3097   19.5357 H   0  0  0  0  0  0
  -29.0361  -18.1931   19.0636 H   0  0  0  0  0  0
  -26.9799  -23.9502   20.1292 H   0  0  0  0  0  0
  -28.1657  -24.0860   18.8875 H   0  0  0  0  0  0
  -28.7166  -16.3894   20.8214 H   0  0  0  0  0  0
  1 25  1  0  0  0
  1 30  2  0  0  0
  1 84  1  0  0  0
  2  3  1  0  0  0
  2 25  1  0  0  0
  2 87  1  0  0  0
  2 88  1  0  0  0
  3  4  1  0  0  0
  3 89  1  0  0  0
  3 90  1  0  0  0
  4  5  1  0  0  0
  4 91  1  0  0  0
  4 92  1  0  0  0
  5  6  1  0  0  0
  5 26  1  0  0  0
  5 93  1  0  0  0
  6 25  1  0  0  0
  6 94  1  0  0  0
  6 95  1  0  0  0
  7  8  2  0  0  0
  7 26  1  0  0  0
  7 29  1  0  0  0
  8  9  1  0  0  0
  8 22  1  0  0  0
  9 10  1  0  0  0
  9 27  2  0  0  0
 10 11  2  0  0  0
 10 15  1  0  0  0
 11 12  1  0  0  0
 11 96  1  0  0  0
 12 13  2  0  0  0
 12 97  1  0  0  0
 13 14  1  0  0  0
 13 31  1  0  0  0
 14 15  2  0  0  0
 14 98  1  0  0  0
 15 99  1  0  0  0
 16 17  2  0  0  0
 16 21  1  0  0  0
 16 31  1  0  0  0
 17 18  1  0  0  0
 17100  1  0  0  0
 18 19  2  0  0  0
 18101  1  0  0  0
 19 20  1  0  0  0
 19 24  1  0  0  0
 20 21  2  0  0  0
 20102  1  0  0  0
 21 23  1  0  0  0
 22 28  1  0  0  0
 22 32  2  0  0  0
 26 27  1  0  0  0
 28103  1  0  0  0
 28104  1  0  0  0
 29105  1  0  0  0
 29106  1  0  0  0
 33 34  1  0  0  0
 33 66  1  0  0  0
 33 70  2  0  0  0
 34 36  1  0  0  0
 34 59  1  0  0  0
 34107  1  0  0  0
 35 44  2  0  0  0
 35 45  1  0  0  0
 35 68  1  0  0  0
 36 56  1  0  0  0
 36108  1  0  0  0
 37 39  1  0  0  0
 37 47  1  0  0  0
 37 66  1  0  0  0
 37109  1  0  0  0
 38 43  2  0  0  0
 38 46  1  0  0  0
 38 47  1  0  0  0
 39 64  1  0  0  0
 39 67  2  0  0  0
 40 52  1  0  0  0
 40 53  2  0  0  0
 40 58  1  0  0  0
 41110  1  0  0  0
 41111  1  0  0  0
 41112  1  0  0  0
 41 48  1  0  0  0
 42 43  1  0  0  0
 42 66  1  0  0  0
 42113  1  0  0  0
 42114  1  0  0  0
 43 44  1  0  0  0
 44115  1  0  0  0
 45 46  2  0  0  0
 45116  1  0  0  0
 46117  1  0  0  0
 47118  1  0  0  0
 47119  1  0  0  0
 48 56  1  0  0  0
 48 65  1  0  0  0
 48120  1  0  0  0
 49 50  1  0  0  0
 49 53  1  0  0  0
 49 64  1  0  0  0
 49121  1  0  0  0
 50 51  1  0  0  0
 50122  1  0  0  0
 50123  1  0  0  0
 51 52  1  0  0  0
 51124  1  0  0  0
 51125  1  0  0  0
 52126  1  0  0  0
 52127  1  0  0  0
 53 54  1  0  0  0
 54 55  2  0  0  0
 54128  1  0  0  0
 55 57  1  0  0  0
 55129  1  0  0  0
 56 69  2  0  0  0
 57 58  2  0  0  0
 57130  1  0  0  0
 58131  1  0  0  0
 59 60  1  0  0  0
 59 61  1  0  0  0
 59 62  1  0  0  0
 60132  1  0  0  0
 60133  1  0  0  0
 60134  1  0  0  0
 61135  1  0  0  0
 61136  1  0  0  0
 61137  1  0  0  0
 62138  1  0  0  0
 62139  1  0  0  0
 62140  1  0  0  0
 63 65  1  0  0  0
 63141  1  0  0  0
 63142  1  0  0  0
 63143  1  0  0  0
 64144  1  0  0  0
 65145  1  0  0  0
 68 82  1  0  0  0
 71 73  2  0  0  0
 71 74  1  0  0  0
 71146  1  0  0  0
 72 75  2  0  0  0
 72 76  1  0  0  0
 72147  1  0  0  0
 73 75  1  0  0  0
 73 82  1  0  0  0
 74 76  2  0  0  0
 74 81  1  0  0  0
 75 83  1  0  0  0
 76 86  1  0  0  0
 77 78  1  0  0  0
 77 83  1  0  0  0
 77 85  2  0  0  0
 78 79  1  0  0  0
 78148  1  0  0  0
 78149  1  0  0  0
 79 80  1  0  0  0
 79150  1  0  0  0
 79151  1  0  0  0
 80 83  1  0  0  0
 80152  1  0  0  0
 80153  1  0  0  0
 81 84  1  0  0  0
 81154  1  0  0  0
 81155  1  0  0  0
 82156  1  0  0  0
 82157  1  0  0  0
 84158  1  0  0  0
M  ISO  4   1 100  68 101  82 101  84 100
M  END
> <chiral flag>
0

> <version>
0

> <s_m_source_file>
/data/baiqing/PycharmProjects/Reinvent-master-3.2/result/LINK_invent/BTK/process_docking_weight1_custom_product_contain_oxygen_bond_distance_aromatic_linkinvent_7_9_3/rearranged_h_0032.sdf

> <i_m_source_file_index>
77

> <r_mmod_Potential_Energy-OPLS-2005>
1485.72119140625

> <r_mmod_Stretch_Energy-OPLS-2005>
652.104736328125

> <r_mmod_Bend_Energy-OPLS-2005>
467.843383789062

> <r_mmod_Torsional_Energy-OPLS-2005>
300.104339599609

> <r_mmod_Improper_Torsional_Energy-OPLS-2005>
6.77680587768555

> <r_mmod_Van_der_Waal_Energy-OPLS-2005>
117.701446533203

> <r_mmod_Electrostatic_Energy-OPLS-2005>
-351.483917236328

> <r_mmod_Solvation_Energy-OPLS-2005>
-236.623504638672

> <b_mmod_Minimization_Converged-OPLS-2005>
0

> <r_mmod_RMS_Derivative-OPLS-2005>
2.29596042633057

$$$$
77
                    3D
 Structure written by MMmdl.
155164  0  0  1  0            999 V2000
  -30.6157  -14.6459   20.5067 C   0  0  0  0  0  0
  -30.4409  -12.3968   19.4563 C   0  0  0  0  0  0
  -29.5098  -12.5125   18.2281 C   0  0  0  0  0  0
  -28.0326  -12.3484   18.6386 C   0  0  0  0  0  0
  -27.6556  -13.2167   19.8684 C   0  0  2  0  0  0
  -28.6994  -13.0653   20.9984 C   0  0  0  0  0  0
  -25.2565  -13.8169   20.5684 C   0  0  0  0  0  0
  -24.1829  -13.0436   20.9183 C   0  0  0  0  0  0
  -24.6399  -11.6908   20.8738 C   0  0  0  0  0  0
  -23.9067  -10.4292   21.0404 C   0  0  0  0  0  0
  -24.3617   -9.4207   21.9184 C   0  0  0  0  0  0
  -23.6291   -8.2243   22.0755 C   0  0  0  0  0  0
  -22.4273   -8.0281   21.3544 C   0  0  0  0  0  0
  -21.9909   -9.0256   20.4647 C   0  0  0  0  0  0
  -22.7239  -10.2134   20.3056 C   0  0  0  0  0  0
  -21.6853   -6.0736   22.5279 C   0  0  0  0  0  0
  -21.4014   -6.5640   23.8212 C   0  0  0  0  0  0
  -21.3659   -5.6793   24.9174 C   0  0  0  0  0  0
  -21.6044   -4.3055   24.7225 C   0  0  0  0  0  0
  -21.8819   -3.8148   23.4346 C   0  0  0  0  0  0
  -21.9192   -4.6964   22.3402 C   0  0  0  0  0  0
  -22.7852  -13.5231   21.1848 C   0  0  0  0  0  0
  -22.1660   -4.2150   21.0980 F   0  0  0  0  0  0
  -21.5629   -3.4539   25.7737 F   0  0  0  0  0  0
  -30.0162  -13.4138   20.4400 N   0  0  0  0  0  0
  -26.3001  -12.9353   20.3343 N   0  0  0  0  0  0
  -25.9330  -11.6506   20.5768 N   0  0  0  0  0  0
  -22.0496  -12.8224   22.0407 N   0  0  0  0  0  0
  -25.4275  -15.1887   20.4087 N   0  0  0  0  0  0
  -31.7632  -14.8233   20.0870 O   0  0  0  0  0  0
  -21.6638   -6.8878   21.4241 O   0  0  0  0  0  0
  -22.3533  -14.5536   20.6697 O   0  0  0  0  0  0
  -24.6264  -31.8594   23.2025 C   0  0  0  0  0  0
  -25.9111  -32.4776   23.8354 C   0  0  1  0  0  0
  -27.2246  -27.3143   20.1148 C   0  0  0  0  0  0
  -25.5924  -33.8578   24.2280 N   0  0  0  0  0  0
  -23.4201  -30.4834   21.5451 C   0  0  2  0  0  0
  -24.8665  -28.9388   20.1098 C   0  0  0  0  0  0
  -22.7475  -29.4622   22.4934 C   0  0  0  0  0  0
  -18.0286  -28.1383   22.8487 C   0  0  0  0  0  0
  -24.1490  -36.7293   23.2639 C   0  0  0  0  0  0
  -25.9617  -30.7878   21.3753 C   0  0  0  0  0  0
  -26.0347  -29.4152   20.7169 C   0  0  0  0  0  0
  -27.2147  -28.6136   20.7116 C   0  0  0  0  0  0
  -26.0345  -26.8977   19.4745 C   0  0  0  0  0  0
  -24.8685  -27.6853   19.4804 C   0  0  0  0  0  0
  -23.6346  -29.8190   20.1600 C   0  0  0  0  0  0
  -25.4114  -36.3084   24.0330 C   0  0  1  0  0  0
  -20.5886  -28.3688   23.1282 C   0  0  2  0  0  0
  -20.6775  -26.9411   22.5410 C   0  0  0  0  0  0
  -19.5751  -26.6383   21.5213 C   0  0  0  0  0  0
  -18.1930  -26.7926   22.1625 C   0  0  0  0  0  0
  -19.1539  -28.8852   23.2880 C   0  0  0  0  0  0
  -18.9462  -30.1454   23.8897 C   0  0  0  0  0  0
  -17.6462  -30.6585   24.0564 C   0  0  0  0  0  0
  -25.9051  -34.9451   23.5106 C   0  0  0  0  0  0
  -16.5353  -29.9085   23.6330 C   0  0  0  0  0  0
  -16.7274  -28.6502   23.0352 C   0  0  0  0  0  0
  -26.4494  -31.6586   25.0725 C   0  0  0  0  0  0
  -25.3727  -31.3723   26.1453 C   0  0  0  0  0  0
  -27.0340  -30.3011   24.6182 C   0  0  0  0  0  0
  -27.6054  -32.4323   25.7494 C   0  0  0  0  0  0
  -27.5579  -37.1802   24.8465 C   0  0  0  0  0  0
  -21.4189  -29.3042   22.3677 N   0  0  0  0  0  0
  -26.4293  -37.3778   23.9407 N   0  0  0  0  0  0
  -24.6881  -31.0603   22.0977 N   0  0  0  0  0  0
  -23.4198  -28.8161   23.3013 O   0  0  0  0  0  0
  -28.3477  -26.4705   20.1809 O   0  0  0  0  0  0
  -26.5621  -34.8918   22.4673 O   0  0  0  0  0  0
  -23.5427  -32.1394   23.7352 O   0  0  0  0  0  0
  -29.0650  -19.3636   21.5770 C   0  0  0  0  0  0
  -30.6894  -17.8477   19.8797 C   0  0  0  0  0  0
  -29.8808  -20.0876   20.6674 C   0  0  0  0  0  0
  -29.8924  -17.1351   20.8148 C   0  0  0  0  0  0
  -29.0584  -17.9381   21.6414 C   0  0  0  0  0  0
  -30.6828  -19.2770   19.8024 C   0  0  0  0  0  0
  -27.8072  -22.8269   20.9786 C   0  0  0  0  0  0
  -27.2402  -24.2505   20.8614 C   0  0  0  0  0  0
  -29.4855  -24.0993   20.0767 C   0  0  0  0  0  0
  -28.2103  -25.0090   19.9351 C   0  0  2  0  0  0
  -30.0826  -21.6569   20.7902 C   0  0  0  0  0  0
  -29.0580  -22.7307   20.4985 N   0  0  0  0  0  0
  -29.8234  -15.6740   20.9425 N   0  0  0  0  0  0
  -27.1677  -21.9187   21.5125 O   0  0  0  0  0  0
  -28.0214  -17.1708   22.7921 Cl  0  0  0  0  0  0
  -31.7273  -20.0098   18.6361 Cl  0  0  0  0  0  0
  -31.4818  -12.5250   19.1544 H   0  0  0  0  0  0
  -30.3788  -11.3994   19.8943 H   0  0  0  0  0  0
  -29.7754  -11.7628   17.4816 H   0  0  0  0  0  0
  -29.6508  -13.4832   17.7498 H   0  0  0  0  0  0
  -27.8698  -11.2947   18.8683 H   0  0  0  0  0  0
  -27.3782  -12.5799   17.7975 H   0  0  0  0  0  0
  -27.6763  -14.2536   19.5324 H   0  0  0  0  0  0
  -28.7117  -12.0406   21.3730 H   0  0  0  0  0  0
  -28.4401  -13.6883   21.8557 H   0  0  0  0  0  0
  -25.2763   -9.5683   22.4756 H   0  0  0  0  0  0
  -24.0001   -7.4635   22.7474 H   0  0  0  0  0  0
  -21.0841   -8.8775   19.8952 H   0  0  0  0  0  0
  -22.3699  -10.9673   19.6164 H   0  0  0  0  0  0
  -21.2007   -7.6148   23.9716 H   0  0  0  0  0  0
  -21.1481   -6.0523   25.9077 H   0  0  0  0  0  0
  -22.0598   -2.7610   23.2846 H   0  0  0  0  0  0
  -22.4110  -11.9883   22.4792 H   0  0  0  0  0  0
  -21.1116  -13.1254   22.2619 H   0  0  0  0  0  0
  -24.6642  -15.8449   20.5297 H   0  0  0  0  0  0
  -26.2838  -15.6314   20.1020 H   0  0  0  0  0  0
  -26.7176  -32.5443   23.1099 H   0  0  0  0  0  0
  -25.0072  -33.9723   25.0425 H   0  0  0  0  0  0
  -22.7140  -31.3041   21.4022 H   0  0  0  0  0  0
  -23.3752  -35.9626   23.3305 H   0  0  0  0  0  0
  -24.3580  -36.8912   22.2053 H   0  0  0  0  0  0
  -23.7245  -37.6497   23.6659 H   0  0  0  0  0  0
  -26.0948  -31.5512   20.6075 H   0  0  0  0  0  0
  -26.8417  -30.8354   22.0051 H   0  0  0  0  0  0
  -28.1096  -28.9730   21.2001 H   0  0  0  0  0  0
  -25.9722  -25.9470   18.9687 H   0  0  0  0  0  0
  -23.9744  -27.3167   18.9967 H   0  0  0  0  0  0
  -23.7534  -30.5958   19.4038 H   0  0  0  0  0  0
  -22.7544  -29.2485   19.8579 H   0  0  0  0  0  0
  -25.1295  -36.1938   25.0823 H   0  0  0  0  0  0
  -20.9979  -28.3263   24.1402 H   0  0  0  0  0  0
  -20.5679  -26.2298   23.3610 H   0  0  0  0  0  0
  -21.6643  -26.7440   22.1201 H   0  0  0  0  0  0
  -19.6914  -25.6295   21.1240 H   0  0  0  0  0  0
  -19.6688  -27.3195   20.6745 H   0  0  0  0  0  0
  -17.4200  -26.6676   21.4027 H   0  0  0  0  0  0
  -18.0328  -26.0065   22.9019 H   0  0  0  0  0  0
  -19.7938  -30.7269   24.2266 H   0  0  0  0  0  0
  -17.5017  -31.6266   24.5165 H   0  0  0  0  0  0
  -15.5354  -30.2988   23.7652 H   0  0  0  0  0  0
  -15.8673  -28.0823   22.7066 H   0  0  0  0  0  0
  -24.5904  -30.7069   25.7781 H   0  0  0  0  0  0
  -24.8914  -32.2888   26.4876 H   0  0  0  0  0  0
  -25.8052  -30.8903   27.0229 H   0  0  0  0  0  0
  -26.2915  -29.6760   24.1206 H   0  0  0  0  0  0
  -27.4039  -29.7268   25.4686 H   0  0  0  0  0  0
  -27.8782  -30.4299   23.9405 H   0  0  0  0  0  0
  -27.2667  -33.3625   26.2065 H   0  0  0  0  0  0
  -28.3865  -32.6879   25.0322 H   0  0  0  0  0  0
  -28.0719  -31.8452   26.5415 H   0  0  0  0  0  0
  -28.2599  -38.0097   24.7510 H   0  0  0  0  0  0
  -28.1075  -36.2629   24.6295 H   0  0  0  0  0  0
  -27.2296  -37.1455   25.8868 H   0  0  0  0  0  0
  -20.9366  -29.8770   21.6892 H   0  0  0  0  0  0
  -26.0176  -38.2855   24.1403 H   0  0  0  0  0  0
  -28.4589  -19.9049   22.2873 H   0  0  0  0  0  0
  -31.3290  -17.3007   19.2031 H   0  0  0  0  0  0
  -27.2247  -24.6972   21.8553 H   0  0  0  0  0  0
  -26.2202  -24.2301   20.4801 H   0  0  0  0  0  0
  -30.1476  -24.5040   20.8435 H   0  0  0  0  0  0
  -30.0509  -24.0640   19.1449 H   0  0  0  0  0  0
  -27.8706  -24.8812   18.9063 H   0  0  0  0  0  0
  -30.9778  -21.9364   20.2382 H   0  0  0  0  0  0
  -30.3696  -21.8187   21.8299 H   0  0  0  0  0  0
  -28.9825  -15.3543   21.3998 H   0  0  0  0  0  0
  1 25  1  0  0  0
  1 30  2  0  0  0
  1 83  1  0  0  0
  2  3  1  0  0  0
  2 25  1  0  0  0
  2 87  1  0  0  0
  2 88  1  0  0  0
  3  4  1  0  0  0
  3 89  1  0  0  0
  3 90  1  0  0  0
  4  5  1  0  0  0
  4 91  1  0  0  0
  4 92  1  0  0  0
  5  6  1  0  0  0
  5 26  1  0  0  0
  5 93  1  0  0  0
  6 25  1  0  0  0
  6 94  1  0  0  0
  6 95  1  0  0  0
  7  8  2  0  0  0
  7 26  1  0  0  0
  7 29  1  0  0  0
  8  9  1  0  0  0
  8 22  1  0  0  0
  9 10  1  0  0  0
  9 27  2  0  0  0
 10 11  2  0  0  0
 10 15  1  0  0  0
 11 12  1  0  0  0
 11 96  1  0  0  0
 12 13  2  0  0  0
 12 97  1  0  0  0
 13 14  1  0  0  0
 13 31  1  0  0  0
 14 15  2  0  0  0
 14 98  1  0  0  0
 15 99  1  0  0  0
 16 17  2  0  0  0
 16 21  1  0  0  0
 16 31  1  0  0  0
 17 18  1  0  0  0
 17100  1  0  0  0
 18 19  2  0  0  0
 18101  1  0  0  0
 19 20  1  0  0  0
 19 24  1  0  0  0
 20 21  2  0  0  0
 20102  1  0  0  0
 21 23  1  0  0  0
 22 28  1  0  0  0
 22 32  2  0  0  0
 26 27  1  0  0  0
 28103  1  0  0  0
 28104  1  0  0  0
 29105  1  0  0  0
 29106  1  0  0  0
 33 34  1  0  0  0
 33 66  1  0  0  0
 33 70  2  0  0  0
 34 36  1  0  0  0
 34 59  1  0  0  0
 34107  1  0  0  0
 35 44  2  0  0  0
 35 45  1  0  0  0
 35 68  1  0  0  0
 36 56  1  0  0  0
 36108  1  0  0  0
 37 39  1  0  0  0
 37 47  1  0  0  0
 37 66  1  0  0  0
 37109  1  0  0  0
 38 43  2  0  0  0
 38 46  1  0  0  0
 38 47  1  0  0  0
 39 64  1  0  0  0
 39 67  2  0  0  0
 40 52  1  0  0  0
 40 53  2  0  0  0
 40 58  1  0  0  0
 41110  1  0  0  0
 41111  1  0  0  0
 41112  1  0  0  0
 41 48  1  0  0  0
 42 43  1  0  0  0
 42 66  1  0  0  0
 42113  1  0  0  0
 42114  1  0  0  0
 43 44  1  0  0  0
 44115  1  0  0  0
 45 46  2  0  0  0
 45116  1  0  0  0
 46117  1  0  0  0
 47118  1  0  0  0
 47119  1  0  0  0
 48 56  1  0  0  0
 48 65  1  0  0  0
 48120  1  0  0  0
 49 50  1  0  0  0
 49 53  1  0  0  0
 49 64  1  0  0  0
 49121  1  0  0  0
 50 51  1  0  0  0
 50122  1  0  0  0
 50123  1  0  0  0
 51 52  1  0  0  0
 51124  1  0  0  0
 51125  1  0  0  0
 52126  1  0  0  0
 52127  1  0  0  0
 53 54  1  0  0  0
 54 55  2  0  0  0
 54128  1  0  0  0
 55 57  1  0  0  0
 55129  1  0  0  0
 56 69  2  0  0  0
 57 58  2  0  0  0
 57130  1  0  0  0
 58131  1  0  0  0
 59 60  1  0  0  0
 59 61  1  0  0  0
 59 62  1  0  0  0
 60132  1  0  0  0
 60133  1  0  0  0
 60134  1  0  0  0
 61135  1  0  0  0
 61136  1  0  0  0
 61137  1  0  0  0
 62138  1  0  0  0
 62139  1  0  0  0
 62140  1  0  0  0
 63 65  1  0  0  0
 63141  1  0  0  0
 63142  1  0  0  0
 63143  1  0  0  0
 64144  1  0  0  0
 65145  1  0  0  0
 68 80  1  0  0  0
 71 73  2  0  0  0
 71 75  1  0  0  0
 71146  1  0  0  0
 72 74  1  0  0  0
 72 76  2  0  0  0
 72147  1  0  0  0
 73 76  1  0  0  0
 73 81  1  0  0  0
 74 75  2  0  0  0
 74 83  1  0  0  0
 75 85  1  0  0  0
 76 86  1  0  0  0
 77 78  1  0  0  0
 77 82  1  0  0  0
 77 84  2  0  0  0
 78 80  1  0  0  0
 78148  1  0  0  0
 78149  1  0  0  0
 79 80  1  0  0  0
 79 82  1  0  0  0
 79150  1  0  0  0
 79151  1  0  0  0
 80152  1  0  0  0
 81 82  1  0  0  0
 81153  1  0  0  0
 81154  1  0  0  0
 83155  1  0  0  0
M  ISO  4   1 100  68 101  80 101  83 100
M  END
> <chiral flag>
0

> <version>
0

> <s_m_source_file>
/data/baiqing/PycharmProjects/Reinvent-master-3.2/result/LINK_invent/BTK/process_docking_weight1_custom_product_contain_oxygen_bond_distance_aromatic_linkinvent_7_9_3/rearranged_h_0032.sdf

> <i_m_source_file_index>
78

> <r_mmod_Potential_Energy-OPLS-2005>
42.4451484680176

> <r_mmod_Stretch_Energy-OPLS-2005>
82.1140823364258

> <r_mmod_Bend_Energy-OPLS-2005>
183.713943481445

> <r_mmod_Torsional_Energy-OPLS-2005>
239.057357788086

> <r_mmod_Improper_Torsional_Energy-OPLS-2005>
6.02524995803833

> <r_mmod_Van_der_Waal_Energy-OPLS-2005>
136.578353881836

> <r_mmod_Electrostatic_Energy-OPLS-2005>
-428.049102783203

> <r_mmod_Solvation_Energy-OPLS-2005>
-227.177795410156

> <b_mmod_Minimization_Converged-OPLS-2005>
0

> <r_mmod_RMS_Derivative-OPLS-2005>
0.19585719704628

$$$$
78
                    3D
 Structure written by MMmdl.
164173  0  0  1  0            999 V2000
  -30.6876  -14.5021   20.5928 C   0  0  0  0  0  0
  -30.4276  -12.3337   19.4327 C   0  0  0  0  0  0
  -29.4983  -12.5122   18.2150 C   0  0  0  0  0  0
  -28.0235  -12.3516   18.6324 C   0  0  0  0  0  0
  -27.6592  -13.2083   19.8737 C   0  0  2  0  0  0
  -28.6965  -13.0077   21.0022 C   0  0  0  0  0  0
  -25.2553  -13.8131   20.5603 C   0  0  0  0  0  0
  -24.1835  -13.0412   20.9190 C   0  0  0  0  0  0
  -24.6395  -11.6885   20.8753 C   0  0  0  0  0  0
  -23.9066  -10.4272   21.0417 C   0  0  0  0  0  0
  -24.3616   -9.4182   21.9195 C   0  0  0  0  0  0
  -23.6289   -8.2218   22.0759 C   0  0  0  0  0  0
  -22.4276   -8.0268   21.3544 C   0  0  0  0  0  0
  -21.9914   -9.0242   20.4656 C   0  0  0  0  0  0
  -22.7238  -10.2120   20.3067 C   0  0  0  0  0  0
  -21.6843   -6.0730   22.5276 C   0  0  0  0  0  0
  -21.4008   -6.5636   23.8205 C   0  0  0  0  0  0
  -21.3664   -5.6796   24.9173 C   0  0  0  0  0  0
  -21.6037   -4.3051   24.7227 C   0  0  0  0  0  0
  -21.8820   -3.8146   23.4347 C   0  0  0  0  0  0
  -21.9188   -4.6962   22.3403 C   0  0  0  0  0  0
  -22.7860  -13.5210   21.1852 C   0  0  0  0  0  0
  -22.1658   -4.2149   21.0981 F   0  0  0  0  0  0
  -21.5638   -3.4540   25.7740 F   0  0  0  0  0  0
  -30.0259  -13.3195   20.4529 N   0  0  0  0  0  0
  -26.3006  -12.9320   20.3329 N   0  0  0  0  0  0
  -25.9321  -11.6479   20.5772 N   0  0  0  0  0  0
  -22.0513  -12.8209   22.0421 N   0  0  0  0  0  0
  -25.4181  -15.1826   20.3843 N   0  0  0  0  0  0
  -31.8060  -14.6910   20.1075 O   0  0  0  0  0  0
  -21.6631   -6.8875   21.4239 O   0  0  0  0  0  0
  -22.3538  -14.5502   20.6684 O   0  0  0  0  0  0
  -24.6322  -31.8742   23.2141 C   0  0  0  0  0  0
  -25.9174  -32.4871   23.8450 C   0  0  1  0  0  0
  -27.2301  -27.4091   20.1086 C   0  0  0  0  0  0
  -25.5995  -33.8656   24.2386 N   0  0  0  0  0  0
  -23.4376  -30.4989   21.5679 C   0  0  2  0  0  0
  -24.8559  -28.9531   20.1241 C   0  0  0  0  0  0
  -22.7758  -29.4848   22.5233 C   0  0  0  0  0  0
  -17.9925  -28.1204   22.8726 C   0  0  0  0  0  0
  -24.1504  -36.7318   23.2630 C   0  0  0  0  0  0
  -25.9547  -30.8291   21.3669 C   0  0  0  0  0  0
  -26.0195  -29.4596   20.7153 C   0  0  0  0  0  0
  -27.2096  -28.6963   20.6994 C   0  0  0  0  0  0
  -26.0503  -26.9228   19.5058 C   0  0  0  0  0  0
  -24.8662  -27.6853   19.5167 C   0  0  0  0  0  0
  -23.6240  -29.8255   20.1808 C   0  0  0  0  0  0
  -25.4124  -36.3126   24.0337 C   0  0  1  0  0  0
  -20.4784  -28.4590   22.7847 C   0  0  2  0  0  0
  -20.6913  -26.9611   22.5380 C   0  0  0  0  0  0
  -19.5561  -26.4539   21.6233 C   0  0  0  0  0  0
  -18.1556  -26.7521   22.2046 C   0  0  0  0  0  0
  -19.1141  -28.8973   23.2549 C   0  0  0  0  0  0
  -18.9344  -30.1477   23.8807 C   0  0  0  0  0  0
  -17.6352  -30.6511   24.0802 C   0  0  0  0  0  0
  -25.9062  -34.9498   23.5141 C   0  0  0  0  0  0
  -16.5193  -29.8973   23.6731 C   0  0  0  0  0  0
  -16.6969  -28.6300   23.0874 C   0  0  0  0  0  0
  -26.4529  -31.6598   25.0764 C   0  0  0  0  0  0
  -25.3755  -31.3696   26.1471 C   0  0  0  0  0  0
  -27.0334  -30.3025   24.6132 C   0  0  0  0  0  0
  -27.6106  -32.4286   25.7549 C   0  0  0  0  0  0
  -27.5594  -37.1826   24.8465 C   0  0  0  0  0  0
  -21.4547  -29.4450   22.3972 N   0  0  0  0  0  0
  -26.4310  -37.3808   23.9404 N   0  0  0  0  0  0
  -24.6968  -31.0823   22.1079 N   0  0  0  0  0  0
  -23.4239  -28.7658   23.2843 O   0  0  0  0  0  0
  -28.4130  -26.6963   20.0748 O   0  0  0  0  0  0
  -26.5587  -34.8932   22.4683 O   0  0  0  0  0  0
  -23.5483  -32.1508   23.7480 O   0  0  0  0  0  0
  -28.0044  -17.6409   20.9812 C   0  0  0  0  0  0
  -27.0112  -18.5988   20.7341 C   0  0  0  0  0  0
  -29.3546  -18.0191   21.0956 C   0  0  0  0  0  0
  -29.6824  -19.4157   21.0169 C   0  0  0  0  0  0
  -28.6700  -20.4141   20.7747 C   0  0  0  0  0  0
  -27.3271  -19.9607   20.6022 C   0  0  0  0  0  0
  -27.7273  -23.5597   22.0626 C   0  0  0  0  0  0
  -27.4800  -22.8334   23.1669 C   0  0  0  0  0  0
  -27.7695  -25.0776   21.9456 C   0  0  0  0  0  0
  -28.1941  -24.1310   19.7676 C   0  0  0  0  0  0
  -28.5070  -25.3618   20.6373 C   0  0  1  0  0  0
  -31.1457  -19.8236   21.2032 C   0  0  0  0  0  0
  -30.4319  -16.9193   21.3013 C   0  0  0  0  0  0
  -29.0735  -21.9192   20.6289 C   0  0  0  0  0  0
  -30.0006  -15.5047   21.1858 N   0  0  0  0  0  0
  -28.0171  -22.9832   20.7076 N   0  3  2  0  0  0
  -26.0010  -20.9985   20.1998 Cl  0  0  0  0  0  0
  -31.4709  -12.4442   19.1304 H   0  0  0  0  0  0
  -30.3432  -11.3235   19.8350 H   0  0  0  0  0  0
  -29.7464  -11.7876   17.4379 H   0  0  0  0  0  0
  -29.6569  -13.4995   17.7772 H   0  0  0  0  0  0
  -27.8605  -11.2958   18.8545 H   0  0  0  0  0  0
  -27.3642  -12.5890   17.7984 H   0  0  0  0  0  0
  -27.6980  -14.2522   19.5621 H   0  0  0  0  0  0
  -28.6804  -11.9773   21.3574 H   0  0  0  0  0  0
  -28.4456  -13.6159   21.8719 H   0  0  0  0  0  0
  -25.2766   -9.5636   22.4767 H   0  0  0  0  0  0
  -23.9985   -7.4602   22.7477 H   0  0  0  0  0  0
  -21.0844   -8.8761   19.8971 H   0  0  0  0  0  0
  -22.3701  -10.9657   19.6178 H   0  0  0  0  0  0
  -21.2003   -7.6147   23.9696 H   0  0  0  0  0  0
  -21.1486   -6.0540   25.9070 H   0  0  0  0  0  0
  -22.0600   -2.7609   23.2848 H   0  0  0  0  0  0
  -22.4141  -11.9874   22.4805 H   0  0  0  0  0  0
  -21.1135  -13.1237   22.2640 H   0  0  0  0  0  0
  -24.6166  -15.8034   20.4079 H   0  0  0  0  0  0
  -26.2213  -15.5871   19.9210 H   0  0  0  0  0  0
  -26.7253  -32.5549   23.1217 H   0  0  0  0  0  0
  -25.0175  -33.9819   25.0551 H   0  0  0  0  0  0
  -22.7371  -31.3250   21.4246 H   0  0  0  0  0  0
  -23.3764  -35.9651   23.3303 H   0  0  0  0  0  0
  -24.3601  -36.8910   22.2038 H   0  0  0  0  0  0
  -23.7249  -37.6529   23.6631 H   0  0  0  0  0  0
  -26.0678  -31.5944   20.5984 H   0  0  0  0  0  0
  -26.8434  -30.8822   21.9845 H   0  0  0  0  0  0
  -28.1121  -29.0888   21.1479 H   0  0  0  0  0  0
  -26.0304  -25.9674   19.0080 H   0  0  0  0  0  0
  -23.9714  -27.2935   19.0519 H   0  0  0  0  0  0
  -23.7234  -30.5962   19.4161 H   0  0  0  0  0  0
  -22.7423  -29.2469   19.9001 H   0  0  0  0  0  0
  -25.1292  -36.2011   25.0828 H   0  0  0  0  0  0
  -20.1603  -28.6773   21.7648 H   0  0  0  0  0  0
  -20.6793  -26.4248   23.4877 H   0  0  0  0  0  0
  -21.6616  -26.7676   22.0791 H   0  0  0  0  0  0
  -19.6598  -25.3817   21.4529 H   0  0  0  0  0  0
  -19.6442  -26.9100   20.6356 H   0  0  0  0  0  0
  -17.4066  -26.6370   21.4196 H   0  0  0  0  0  0
  -17.9194  -26.0012   22.9602 H   0  0  0  0  0  0
  -19.7895  -30.7500   24.1570 H   0  0  0  0  0  0
  -17.4957  -31.6227   24.5351 H   0  0  0  0  0  0
  -15.5212  -30.2864   23.8265 H   0  0  0  0  0  0
  -15.8299  -28.0537   22.7922 H   0  0  0  0  0  0
  -24.5939  -30.7052   25.7769 H   0  0  0  0  0  0
  -24.8938  -32.2849   26.4919 H   0  0  0  0  0  0
  -25.8067  -30.8840   27.0232 H   0  0  0  0  0  0
  -26.2877  -29.6804   24.1163 H   0  0  0  0  0  0
  -27.4062  -29.7240   25.4596 H   0  0  0  0  0  0
  -27.8744  -30.4323   23.9314 H   0  0  0  0  0  0
  -27.2741  -33.3569   26.2178 H   0  0  0  0  0  0
  -28.3910  -32.6861   25.0378 H   0  0  0  0  0  0
  -28.0789  -31.8363   26.5418 H   0  0  0  0  0  0
  -28.2616  -38.0119   24.7513 H   0  0  0  0  0  0
  -28.1088  -36.2651   24.6305 H   0  0  0  0  0  0
  -27.2307  -37.1486   25.8865 H   0  0  0  0  0  0
  -21.0741  -30.1564   21.7877 H   0  0  0  0  0  0
  -26.0204  -38.2891   24.1385 H   0  0  0  0  0  0
  -27.7084  -16.6080   21.0721 H   0  0  0  0  0  0
  -25.9845  -18.2791   20.6250 H   0  0  0  0  0  0
  -27.2794  -23.3203   24.1110 H   0  0  0  0  0  0
  -27.4695  -21.7526   23.1550 H   0  0  0  0  0  0
  -28.2701  -25.5356   22.7988 H   0  0  0  0  0  0
  -26.7446  -25.4469   21.9201 H   0  0  0  0  0  0
  -28.9574  -23.9707   19.0063 H   0  0  0  0  0  0
  -27.2508  -24.2512   19.2409 H   0  0  0  0  0  0
  -29.5684  -25.2731   20.8780 H   0  0  0  0  0  0
  -31.8252  -19.1515   20.6833 H   0  0  0  0  0  0
  -31.3919  -20.8093   20.8162 H   0  0  0  0  0  0
  -31.4025  -19.8051   22.2639 H   0  0  0  0  0  0
  -31.2231  -17.0923   20.5726 H   0  0  0  0  0  0
  -30.8848  -17.0561   22.2847 H   0  0  0  0  0  0
  -29.5764  -21.9809   19.6641 H   0  0  0  0  0  0
  -29.8218  -22.1815   21.3768 H   0  0  0  0  0  0
  -29.0990  -15.2691   21.5689 H   0  0  0  0  0  0
  -27.1838  -22.5041   20.3835 H   0  0  0  0  0  0
  1 25  1  0  0  0
  1 30  2  0  0  0
  1 85  1  0  0  0
  2  3  1  0  0  0
  2 25  1  0  0  0
  2 88  1  0  0  0
  2 89  1  0  0  0
  3  4  1  0  0  0
  3 90  1  0  0  0
  3 91  1  0  0  0
  4  5  1  0  0  0
  4 92  1  0  0  0
  4 93  1  0  0  0
  5  6  1  0  0  0
  5 26  1  0  0  0
  5 94  1  0  0  0
  6 25  1  0  0  0
  6 95  1  0  0  0
  6 96  1  0  0  0
  7  8  2  0  0  0
  7 26  1  0  0  0
  7 29  1  0  0  0
  8  9  1  0  0  0
  8 22  1  0  0  0
  9 10  1  0  0  0
  9 27  2  0  0  0
 10 11  2  0  0  0
 10 15  1  0  0  0
 11 12  1  0  0  0
 11 97  1  0  0  0
 12 13  2  0  0  0
 12 98  1  0  0  0
 13 14  1  0  0  0
 13 31  1  0  0  0
 14 15  2  0  0  0
 14 99  1  0  0  0
 15100  1  0  0  0
 16 17  2  0  0  0
 16 21  1  0  0  0
 16 31  1  0  0  0
 17 18  1  0  0  0
 17101  1  0  0  0
 18 19  2  0  0  0
 18102  1  0  0  0
 19 20  1  0  0  0
 19 24  1  0  0  0
 20 21  2  0  0  0
 20103  1  0  0  0
 21 23  1  0  0  0
 22 28  1  0  0  0
 22 32  2  0  0  0
 26 27  1  0  0  0
 28104  1  0  0  0
 28105  1  0  0  0
 29106  1  0  0  0
 29107  1  0  0  0
 33 34  1  0  0  0
 33 66  1  0  0  0
 33 70  2  0  0  0
 34 36  1  0  0  0
 34 59  1  0  0  0
 34108  1  0  0  0
 35 44  2  0  0  0
 35 45  1  0  0  0
 35 68  1  0  0  0
 36 56  1  0  0  0
 36109  1  0  0  0
 37 39  1  0  0  0
 37 47  1  0  0  0
 37 66  1  0  0  0
 37110  1  0  0  0
 38 43  2  0  0  0
 38 46  1  0  0  0
 38 47  1  0  0  0
 39 64  1  0  0  0
 39 67  2  0  0  0
 40 52  1  0  0  0
 40 53  2  0  0  0
 40 58  1  0  0  0
 41111  1  0  0  0
 41112  1  0  0  0
 41113  1  0  0  0
 41 48  1  0  0  0
 42 43  1  0  0  0
 42 66  1  0  0  0
 42114  1  0  0  0
 42115  1  0  0  0
 43 44  1  0  0  0
 44116  1  0  0  0
 45 46  2  0  0  0
 45117  1  0  0  0
 46118  1  0  0  0
 47119  1  0  0  0
 47120  1  0  0  0
 48 56  1  0  0  0
 48 65  1  0  0  0
 48121  1  0  0  0
 49 50  1  0  0  0
 49 53  1  0  0  0
 49 64  1  0  0  0
 49122  1  0  0  0
 50 51  1  0  0  0
 50123  1  0  0  0
 50124  1  0  0  0
 51 52  1  0  0  0
 51125  1  0  0  0
 51126  1  0  0  0
 52127  1  0  0  0
 52128  1  0  0  0
 53 54  1  0  0  0
 54 55  2  0  0  0
 54129  1  0  0  0
 55 57  1  0  0  0
 55130  1  0  0  0
 56 69  2  0  0  0
 57 58  2  0  0  0
 57131  1  0  0  0
 58132  1  0  0  0
 59 60  1  0  0  0
 59 61  1  0  0  0
 59 62  1  0  0  0
 60133  1  0  0  0
 60134  1  0  0  0
 60135  1  0  0  0
 61136  1  0  0  0
 61137  1  0  0  0
 61138  1  0  0  0
 62139  1  0  0  0
 62140  1  0  0  0
 62141  1  0  0  0
 63 65  1  0  0  0
 63142  1  0  0  0
 63143  1  0  0  0
 63144  1  0  0  0
 64145  1  0  0  0
 65146  1  0  0  0
 68 81  1  0  0  0
 71 72  2  0  0  0
 71 73  1  0  0  0
 71147  1  0  0  0
 72 76  1  0  0  0
 72148  1  0  0  0
 73 74  2  0  0  0
 73 83  1  0  0  0
 74 75  1  0  0  0
 74 82  1  0  0  0
 75 76  2  0  0  0
 75 84  1  0  0  0
 76 87  1  0  0  0
 77 78  2  0  0  0
 77 79  1  0  0  0
 77 86  1  0  0  0
 78149  1  0  0  0
 78150  1  0  0  0
 79 81  1  0  0  0
 79151  1  0  0  0
 79152  1  0  0  0
 80 81  1  0  0  0
 80 86  1  0  0  0
 80153  1  0  0  0
 80154  1  0  0  0
 81155  1  0  0  0
 82156  1  0  0  0
 82157  1  0  0  0
 82158  1  0  0  0
 83 85  1  0  0  0
 83159  1  0  0  0
 83160  1  0  0  0
 84161  1  0  0  0
 84162  1  0  0  0
 84 86  1  0  0  0
 85163  1  0  0  0
 86164  1  0  0  0
M  CHG  1  86   1
M  ISO  4   1 100  68 101  81 101  85 100
M  END
> <chiral flag>
0

> <version>
0

> <s_m_source_file>
/data/baiqing/PycharmProjects/Reinvent-master-3.2/result/LINK_invent/BTK/process_docking_weight1_custom_product_contain_oxygen_bond_distance_aromatic_linkinvent_7_9_3/rearranged_h_0032.sdf

> <i_m_source_file_index>
79

> <r_mmod_Potential_Energy-OPLS-2005>
5.8001651763916

> <r_mmod_Stretch_Energy-OPLS-2005>
50.4371757507324

> <r_mmod_Bend_Energy-OPLS-2005>
257.096740722656

> <r_mmod_Torsional_Energy-OPLS-2005>
243.918609619141

> <r_mmod_Improper_Torsional_Energy-OPLS-2005>
5.60390424728394

> <r_mmod_Van_der_Waal_Energy-OPLS-2005>
163.631408691406

> <r_mmod_Electrostatic_Energy-OPLS-2005>
-333.189361572266

> <r_mmod_Solvation_Energy-OPLS-2005>
-416.505615234375

> <b_mmod_Minimization_Converged-OPLS-2005>
0

> <r_mmod_RMS_Derivative-OPLS-2005>
2.03231525421143

$$$$
79
                    3D
 Structure written by MMmdl.
155164  0  0  1  0            999 V2000
  -30.7132  -14.5948   20.5152 C   0  0  0  0  0  0
  -30.4150  -12.3751   19.4493 C   0  0  0  0  0  0
  -29.4921  -12.4927   18.2196 C   0  0  0  0  0  0
  -28.0187  -12.3412   18.6405 C   0  0  0  0  0  0
  -27.6476  -13.2284   19.8593 C   0  0  2  0  0  0
  -28.6968  -13.1212   20.9887 C   0  0  0  0  0  0
  -25.2523  -13.8195   20.5709 C   0  0  0  0  0  0
  -24.1805  -13.0440   20.9190 C   0  0  0  0  0  0
  -24.6402  -11.6923   20.8758 C   0  0  0  0  0  0
  -23.9082  -10.4296   21.0410 C   0  0  0  0  0  0
  -24.3627   -9.4210   21.9189 C   0  0  0  0  0  0
  -23.6298   -8.2249   22.0757 C   0  0  0  0  0  0
  -22.4281   -8.0286   21.3545 C   0  0  0  0  0  0
  -21.9927   -9.0259   20.4647 C   0  0  0  0  0  0
  -22.7259  -10.2136   20.3059 C   0  0  0  0  0  0
  -21.6854   -6.0743   22.5281 C   0  0  0  0  0  0
  -21.4010   -6.5645   23.8213 C   0  0  0  0  0  0
  -21.3655   -5.6797   24.9173 C   0  0  0  0  0  0
  -21.6041   -4.3061   24.7223 C   0  0  0  0  0  0
  -21.8822   -3.8157   23.4345 C   0  0  0  0  0  0
  -21.9191   -4.6974   22.3402 C   0  0  0  0  0  0
  -22.7823  -13.5222   21.1855 C   0  0  0  0  0  0
  -22.1663   -4.2162   21.0979 F   0  0  0  0  0  0
  -21.5627   -3.4546   25.7735 F   0  0  0  0  0  0
  -30.0108  -13.4246   20.4075 N   0  0  0  0  0  0
  -26.2973  -12.9415   20.3360 N   0  0  0  0  0  0
  -25.9336  -11.6552   20.5812 N   0  0  0  0  0  0
  -22.0481  -12.8199   22.0407 N   0  0  0  0  0  0
  -25.4186  -15.1909   20.4118 N   0  0  0  0  0  0
  -31.8824  -14.6620   20.1338 O   0  0  0  0  0  0
  -21.6639   -6.8888   21.4244 O   0  0  0  0  0  0
  -22.3497  -14.5529   20.6706 O   0  0  0  0  0  0
  -24.6277  -31.8638   23.2120 C   0  0  0  0  0  0
  -25.9143  -32.4802   23.8411 C   0  0  1  0  0  0
  -27.1966  -27.3102   20.1028 C   0  0  0  0  0  0
  -25.5970  -33.8602   24.2329 N   0  0  0  0  0  0
  -23.4182  -30.4967   21.5559 C   0  0  2  0  0  0
  -24.8583  -28.9679   20.1151 C   0  0  0  0  0  0
  -22.7479  -29.4653   22.4953 C   0  0  0  0  0  0
  -18.0283  -28.1388   22.8478 C   0  0  0  0  0  0
  -24.1484  -36.7275   23.2638 C   0  0  0  0  0  0
  -25.9662  -30.7864   21.3938 C   0  0  0  0  0  0
  -26.0316  -29.4164   20.7349 C   0  0  0  0  0  0
  -27.2022  -28.5943   20.7351 C   0  0  0  0  0  0
  -26.0176  -26.9727   19.4008 C   0  0  0  0  0  0
  -24.8541  -27.7476   19.4396 C   0  0  0  0  0  0
  -23.6315  -29.8499   20.1669 C   0  0  0  0  0  0
  -25.4105  -36.3080   24.0340 C   0  0  1  0  0  0
  -20.5887  -28.3695   23.1271 C   0  0  2  0  0  0
  -20.6779  -26.9423   22.5388 C   0  0  0  0  0  0
  -19.5746  -26.6383   21.5199 C   0  0  0  0  0  0
  -18.1926  -26.7930   22.1613 C   0  0  0  0  0  0
  -19.1539  -28.8856   23.2871 C   0  0  0  0  0  0
  -18.9465  -30.1453   23.8897 C   0  0  0  0  0  0
  -17.6464  -30.6589   24.0559 C   0  0  0  0  0  0
  -25.9056  -34.9456   23.5119 C   0  0  0  0  0  0
  -16.5354  -29.9083   23.6345 C   0  0  0  0  0  0
  -16.7270  -28.6501   23.0364 C   0  0  0  0  0  0
  -26.4527  -31.6603   25.0769 C   0  0  0  0  0  0
  -25.3760  -31.3704   26.1484 C   0  0  0  0  0  0
  -27.0405  -30.3044   24.6231 C   0  0  0  0  0  0
  -27.6077  -32.4345   25.7539 C   0  0  0  0  0  0
  -27.5567  -37.1799   24.8474 C   0  0  0  0  0  0
  -21.4194  -29.3057   22.3683 N   0  0  0  0  0  0
  -26.4275  -37.3779   23.9423 N   0  0  0  0  0  0
  -24.6893  -31.0650   22.1088 N   0  0  0  0  0  0
  -23.4209  -28.8158   23.2997 O   0  0  0  0  0  0
  -28.2803  -26.4097   20.1301 O   0  0  0  0  0  0
  -26.5590  -34.8911   22.4665 O   0  0  0  0  0  0
  -23.5446  -32.1455   23.7443 O   0  0  0  0  0  0
  -30.9677  -19.5155   20.4967 C   0  0  0  0  0  0
  -28.3198  -20.1518   20.9881 C   0  0  0  0  0  0
  -30.1139  -18.4518   20.9035 C   0  0  0  0  0  0
  -29.1693  -21.2170   20.5566 C   0  0  0  0  0  0
  -30.5256  -20.8587   20.3267 C   0  0  0  0  0  0
  -28.7666  -18.8092   21.1615 C   0  0  0  0  0  0
  -27.4973  -22.7279   19.5668 C   0  0  0  0  0  0
  -27.1163  -24.1870   19.4346 C   0  0  0  0  0  0
  -29.1709  -23.9138   20.5972 C   0  0  0  0  0  0
  -27.9984  -24.9664   20.4283 C   0  0  1  0  0  0
  -30.7502  -17.0414   21.1687 C   0  0  0  0  0  0
  -28.6105  -22.5539   20.2940 N   0  0  0  0  0  0
  -30.0626  -15.7310   20.9053 N   0  0  0  0  0  0
  -26.8228  -21.8405   19.0330 O   0  0  0  0  0  0
  -31.6812  -22.0219   19.7830 Cl  0  0  0  0  0  0
  -27.6392  -17.6272   21.7220 Cl  0  0  0  0  0  0
  -31.4587  -12.4603   19.1421 H   0  0  0  0  0  0
  -30.3232  -11.3904   19.9093 H   0  0  0  0  0  0
  -29.7485  -11.7310   17.4819 H   0  0  0  0  0  0
  -29.6400  -13.4574   17.7322 H   0  0  0  0  0  0
  -27.8563  -11.2907   18.8845 H   0  0  0  0  0  0
  -27.3600  -12.5608   17.7994 H   0  0  0  0  0  0
  -27.6569  -14.2584   19.5016 H   0  0  0  0  0  0
  -28.7018  -12.1190   21.4201 H   0  0  0  0  0  0
  -28.4559  -13.8029   21.8058 H   0  0  0  0  0  0
  -25.2770   -9.5686   22.4771 H   0  0  0  0  0  0
  -24.0005   -7.4640   22.7480 H   0  0  0  0  0  0
  -21.0863   -8.8780   19.8948 H   0  0  0  0  0  0
  -22.3722  -10.9678   19.6168 H   0  0  0  0  0  0
  -21.2001   -7.6155   23.9722 H   0  0  0  0  0  0
  -21.1470   -6.0525   25.9073 H   0  0  0  0  0  0
  -22.0604   -2.7622   23.2840 H   0  0  0  0  0  0
  -22.4101  -11.9855   22.4779 H   0  0  0  0  0  0
  -21.1102  -13.1218   22.2642 H   0  0  0  0  0  0
  -24.6572  -15.8456   20.5492 H   0  0  0  0  0  0
  -26.2868  -15.6458   20.1625 H   0  0  0  0  0  0
  -26.7196  -32.5470   23.1139 H   0  0  0  0  0  0
  -25.0204  -33.9768   25.0529 H   0  0  0  0  0  0
  -22.7122  -31.3189   21.4227 H   0  0  0  0  0  0
  -23.3763  -35.9593   23.3302 H   0  0  0  0  0  0
  -24.3566  -36.8888   22.2049 H   0  0  0  0  0  0
  -23.7226  -37.6475   23.6647 H   0  0  0  0  0  0
  -26.1088  -31.5486   20.6264 H   0  0  0  0  0  0
  -26.8442  -30.8273   22.0265 H   0  0  0  0  0  0
  -28.0948  -28.9249   21.2481 H   0  0  0  0  0  0
  -25.9468  -26.1252   18.7520 H   0  0  0  0  0  0
  -23.9724  -27.4215   18.9046 H   0  0  0  0  0  0
  -23.7562  -30.6351   19.4207 H   0  0  0  0  0  0
  -22.7490  -29.2878   19.8555 H   0  0  0  0  0  0
  -25.1282  -36.1925   25.0835 H   0  0  0  0  0  0
  -20.9974  -28.3262   24.1396 H   0  0  0  0  0  0
  -20.5705  -26.2305   23.3588 H   0  0  0  0  0  0
  -21.6645  -26.7466   22.1165 H   0  0  0  0  0  0
  -19.6919  -25.6292   21.1234 H   0  0  0  0  0  0
  -19.6680  -27.3191   20.6730 H   0  0  0  0  0  0
  -17.4193  -26.6682   21.4015 H   0  0  0  0  0  0
  -18.0329  -26.0065   22.9008 H   0  0  0  0  0  0
  -19.7938  -30.7264   24.2280 H   0  0  0  0  0  0
  -17.5020  -31.6279   24.5143 H   0  0  0  0  0  0
  -15.5357  -30.2985   23.7685 H   0  0  0  0  0  0
  -15.8666  -28.0820   22.7103 H   0  0  0  0  0  0
  -24.5950  -30.7041   25.7791 H   0  0  0  0  0  0
  -24.8935  -32.2853   26.4932 H   0  0  0  0  0  0
  -25.8088  -30.8857   27.0248 H   0  0  0  0  0  0
  -26.3006  -29.6760   24.1258 H   0  0  0  0  0  0
  -27.4133  -29.7315   25.4736 H   0  0  0  0  0  0
  -27.8850  -30.4356   23.9459 H   0  0  0  0  0  0
  -27.2698  -33.3665   26.2075 H   0  0  0  0  0  0
  -28.3907  -32.6877   25.0378 H   0  0  0  0  0  0
  -28.0722  -31.8499   26.5490 H   0  0  0  0  0  0
  -28.2582  -38.0102   24.7534 H   0  0  0  0  0  0
  -28.1067  -36.2632   24.6284 H   0  0  0  0  0  0
  -27.2279  -37.1422   25.8877 H   0  0  0  0  0  0
  -20.9374  -29.8808   21.6916 H   0  0  0  0  0  0
  -26.0155  -38.2850   24.1438 H   0  0  0  0  0  0
  -32.0110  -19.3026   20.3114 H   0  0  0  0  0  0
  -27.2782  -20.3572   21.1884 H   0  0  0  0  0  0
  -26.0539  -24.2671   19.6640 H   0  0  0  0  0  0
  -27.3085  -24.4822   18.4032 H   0  0  0  0  0  0
  -29.6094  -23.9505   21.5949 H   0  0  0  0  0  0
  -29.9582  -24.1433   19.8791 H   0  0  0  0  0  0
  -27.4648  -24.9757   21.3806 H   0  0  0  0  0  0
  -31.0250  -17.0281   22.2233 H   0  0  0  0  0  0
  -31.7036  -17.0446   20.6391 H   0  0  0  0  0  0
  -29.0840  -15.6634   21.1400 H   0  0  0  0  0  0
  1 25  1  0  0  0
  1 30  2  0  0  0
  1 83  1  0  0  0
  2  3  1  0  0  0
  2 25  1  0  0  0
  2 87  1  0  0  0
  2 88  1  0  0  0
  3  4  1  0  0  0
  3 89  1  0  0  0
  3 90  1  0  0  0
  4  5  1  0  0  0
  4 91  1  0  0  0
  4 92  1  0  0  0
  5  6  1  0  0  0
  5 26  1  0  0  0
  5 93  1  0  0  0
  6 25  1  0  0  0
  6 94  1  0  0  0
  6 95  1  0  0  0
  7  8  2  0  0  0
  7 26  1  0  0  0
  7 29  1  0  0  0
  8  9  1  0  0  0
  8 22  1  0  0  0
  9 10  1  0  0  0
  9 27  2  0  0  0
 10 11  2  0  0  0
 10 15  1  0  0  0
 11 12  1  0  0  0
 11 96  1  0  0  0
 12 13  2  0  0  0
 12 97  1  0  0  0
 13 14  1  0  0  0
 13 31  1  0  0  0
 14 15  2  0  0  0
 14 98  1  0  0  0
 15 99  1  0  0  0
 16 17  2  0  0  0
 16 21  1  0  0  0
 16 31  1  0  0  0
 17 18  1  0  0  0
 17100  1  0  0  0
 18 19  2  0  0  0
 18101  1  0  0  0
 19 20  1  0  0  0
 19 24  1  0  0  0
 20 21  2  0  0  0
 20102  1  0  0  0
 21 23  1  0  0  0
 22 28  1  0  0  0
 22 32  2  0  0  0
 26 27  1  0  0  0
 28103  1  0  0  0
 28104  1  0  0  0
 29105  1  0  0  0
 29106  1  0  0  0
 33 34  1  0  0  0
 33 66  1  0  0  0
 33 70  2  0  0  0
 34 36  1  0  0  0
 34 59  1  0  0  0
 34107  1  0  0  0
 35 44  2  0  0  0
 35 45  1  0  0  0
 35 68  1  0  0  0
 36 56  1  0  0  0
 36108  1  0  0  0
 37 39  1  0  0  0
 37 47  1  0  0  0
 37 66  1  0  0  0
 37109  1  0  0  0
 38 43  2  0  0  0
 38 46  1  0  0  0
 38 47  1  0  0  0
 39 64  1  0  0  0
 39 67  2  0  0  0
 40 52  1  0  0  0
 40 53  2  0  0  0
 40 58  1  0  0  0
 41110  1  0  0  0
 41111  1  0  0  0
 41112  1  0  0  0
 41 48  1  0  0  0
 42 43  1  0  0  0
 42 66  1  0  0  0
 42113  1  0  0  0
 42114  1  0  0  0
 43 44  1  0  0  0
 44115  1  0  0  0
 45 46  2  0  0  0
 45116  1  0  0  0
 46117  1  0  0  0
 47118  1  0  0  0
 47119  1  0  0  0
 48 56  1  0  0  0
 48 65  1  0  0  0
 48120  1  0  0  0
 49 50  1  0  0  0
 49 53  1  0  0  0
 49 64  1  0  0  0
 49121  1  0  0  0
 50 51  1  0  0  0
 50122  1  0  0  0
 50123  1  0  0  0
 51 52  1  0  0  0
 51124  1  0  0  0
 51125  1  0  0  0
 52126  1  0  0  0
 52127  1  0  0  0
 53 54  1  0  0  0
 54 55  2  0  0  0
 54128  1  0  0  0
 55 57  1  0  0  0
 55129  1  0  0  0
 56 69  2  0  0  0
 57 58  2  0  0  0
 57130  1  0  0  0
 58131  1  0  0  0
 59 60  1  0  0  0
 59 61  1  0  0  0
 59 62  1  0  0  0
 60132  1  0  0  0
 60133  1  0  0  0
 60134  1  0  0  0
 61135  1  0  0  0
 61136  1  0  0  0
 61137  1  0  0  0
 62138  1  0  0  0
 62139  1  0  0  0
 62140  1  0  0  0
 63 65  1  0  0  0
 63141  1  0  0  0
 63142  1  0  0  0
 63143  1  0  0  0
 64144  1  0  0  0
 65145  1  0  0  0
 68 80  1  0  0  0
 71 73  2  0  0  0
 71 75  1  0  0  0
 71146  1  0  0  0
 72 74  1  0  0  0
 72 76  2  0  0  0
 72147  1  0  0  0
 73 76  1  0  0  0
 73 81  1  0  0  0
 74 75  2  0  0  0
 74 82  1  0  0  0
 75 85  1  0  0  0
 76 86  1  0  0  0
 77 78  1  0  0  0
 77 82  1  0  0  0
 77 84  2  0  0  0
 78 80  1  0  0  0
 78148  1  0  0  0
 78149  1  0  0  0
 79 80  1  0  0  0
 79 82  1  0  0  0
 79150  1  0  0  0
 79151  1  0  0  0
 80152  1  0  0  0
 81 83  1  0  0  0
 81153  1  0  0  0
 81154  1  0  0  0
 83155  1  0  0  0
M  ISO  4   1 100  68 101  80 101  83 100
M  END
> <chiral flag>
0

> <version>
0

> <s_m_source_file>
/data/baiqing/PycharmProjects/Reinvent-master-3.2/result/LINK_invent/BTK/process_docking_weight1_custom_product_contain_oxygen_bond_distance_aromatic_linkinvent_7_9_3/rearranged_h_0032.sdf

> <i_m_source_file_index>
80

> <r_mmod_Potential_Energy-OPLS-2005>
104.01847076416

> <r_mmod_Stretch_Energy-OPLS-2005>
81.0752105712891

> <r_mmod_Bend_Energy-OPLS-2005>
182.161361694336

> <r_mmod_Torsional_Energy-OPLS-2005>
270.011779785156

> <r_mmod_Improper_Torsional_Energy-OPLS-2005>
3.90115189552307

> <r_mmod_Van_der_Waal_Energy-OPLS-2005>
158.423355102539

> <r_mmod_Electrostatic_Energy-OPLS-2005>
-429.949981689453

> <r_mmod_Solvation_Energy-OPLS-2005>
-213.78303527832

> <b_mmod_Minimization_Converged-OPLS-2005>
0

> <r_mmod_RMS_Derivative-OPLS-2005>
1.36008381843567

$$$$
80
                    3D
 Structure written by MMmdl.
166175  0  0  1  0            999 V2000
  -30.6762  -14.6346   20.4847 C   0  0  0  0  0  0
  -30.4175  -12.3896   19.4644 C   0  0  0  0  0  0
  -29.5012  -12.4953   18.2280 C   0  0  0  0  0  0
  -28.0253  -12.3407   18.6405 C   0  0  0  0  0  0
  -27.6453  -13.2290   19.8562 C   0  0  2  0  0  0
  -28.6892  -13.1341   20.9909 C   0  0  0  0  0  0
  -25.2518  -13.8200   20.5694 C   0  0  0  0  0  0
  -24.1804  -13.0446   20.9201 C   0  0  0  0  0  0
  -24.6390  -11.6923   20.8747 C   0  0  0  0  0  0
  -23.9068  -10.4296   21.0407 C   0  0  0  0  0  0
  -24.3620   -9.4211   21.9184 C   0  0  0  0  0  0
  -23.6295   -8.2247   22.0753 C   0  0  0  0  0  0
  -22.4277   -8.0283   21.3544 C   0  0  0  0  0  0
  -21.9915   -9.0256   20.4645 C   0  0  0  0  0  0
  -22.7242  -10.2136   20.3056 C   0  0  0  0  0  0
  -21.6856   -6.0736   22.5277 C   0  0  0  0  0  0
  -21.4014   -6.5639   23.8210 C   0  0  0  0  0  0
  -21.3660   -5.6792   24.9173 C   0  0  0  0  0  0
  -21.6046   -4.3055   24.7224 C   0  0  0  0  0  0
  -21.8820   -3.8146   23.4345 C   0  0  0  0  0  0
  -21.9192   -4.6963   22.3401 C   0  0  0  0  0  0
  -22.7825  -13.5227   21.1861 C   0  0  0  0  0  0
  -22.1662   -4.2149   21.0979 F   0  0  0  0  0  0
  -21.5629   -3.4539   25.7737 F   0  0  0  0  0  0
  -30.0007  -13.4453   20.4118 N   0  0  0  0  0  0
  -26.2951  -12.9408   20.3309 N   0  0  0  0  0  0
  -25.9323  -11.6550   20.5768 N   0  0  0  0  0  0
  -22.0474  -12.8212   22.0416 N   0  0  0  0  0  0
  -25.4208  -15.1923   20.4105 N   0  0  0  0  0  0
  -31.8590  -14.7015   20.1423 O   0  0  0  0  0  0
  -21.6642   -6.8879   21.4239 O   0  0  0  0  0  0
  -22.3509  -14.5531   20.6707 O   0  0  0  0  0  0
  -24.6248  -31.8601   23.2042 C   0  0  0  0  0  0
  -25.9104  -32.4777   23.8362 C   0  0  1  0  0  0
  -27.2122  -27.3146   20.1359 C   0  0  0  0  0  0
  -25.5924  -33.8578   24.2286 N   0  0  0  0  0  0
  -23.4186  -30.4839   21.5463 C   0  0  2  0  0  0
  -24.8657  -28.9394   20.1118 C   0  0  0  0  0  0
  -22.7469  -29.4618   22.4941 C   0  0  0  0  0  0
  -18.0284  -28.1381   22.8483 C   0  0  0  0  0  0
  -24.1491  -36.7295   23.2640 C   0  0  0  0  0  0
  -25.9592  -30.7882   21.3793 C   0  0  0  0  0  0
  -26.0314  -29.4133   20.7286 C   0  0  0  0  0  0
  -27.2088  -28.6092   20.7377 C   0  0  0  0  0  0
  -26.0466  -26.9165   19.4514 C   0  0  0  0  0  0
  -24.8743  -27.6945   19.4637 C   0  0  0  0  0  0
  -23.6341  -29.8199   20.1610 C   0  0  0  0  0  0
  -25.4115  -36.3084   24.0332 C   0  0  1  0  0  0
  -20.5886  -28.3677   23.1287 C   0  0  2  0  0  0
  -20.6771  -26.9401   22.5412 C   0  0  0  0  0  0
  -19.5748  -26.6379   21.5212 C   0  0  0  0  0  0
  -18.1926  -26.7924   22.1624 C   0  0  0  0  0  0
  -19.1538  -28.8847   23.2878 C   0  0  0  0  0  0
  -18.9464  -30.1450   23.8889 C   0  0  0  0  0  0
  -17.6467  -30.6582   24.0562 C   0  0  0  0  0  0
  -25.9052  -34.9450   23.5110 C   0  0  0  0  0  0
  -16.5354  -29.9079   23.6334 C   0  0  0  0  0  0
  -16.7273  -28.6500   23.0348 C   0  0  0  0  0  0
  -26.4492  -31.6585   25.0730 C   0  0  0  0  0  0
  -25.3731  -31.3719   26.1460 C   0  0  0  0  0  0
  -27.0339  -30.3012   24.6179 C   0  0  0  0  0  0
  -27.6051  -32.4320   25.7498 C   0  0  0  0  0  0
  -27.5577  -37.1801   24.8465 C   0  0  0  0  0  0
  -21.4184  -29.3033   22.3685 N   0  0  0  0  0  0
  -26.4291  -37.3778   23.9410 N   0  0  0  0  0  0
  -24.6860  -31.0613   22.1001 N   0  0  0  0  0  0
  -23.4194  -28.8161   23.3021 O   0  0  0  0  0  0
  -28.3202  -26.4595   20.1335 O   0  0  0  0  0  0
  -26.5616  -34.8913   22.4673 O   0  0  0  0  0  0
  -23.5411  -32.1409   23.7367 O   0  0  0  0  0  0
  -29.4949  -19.2591   19.4716 C   0  0  0  0  0  0
  -29.8301  -18.5241   20.6368 C   0  0  0  0  0  0
  -29.0261  -20.6066   19.5055 C   0  0  0  0  0  0
  -29.6569  -19.2091   21.8734 C   0  0  0  0  0  0
  -29.2260  -20.5835   21.9173 C   0  0  0  0  0  0
  -28.8782  -21.3165   20.7330 C   0  0  0  0  0  0
  -27.1382  -23.0258   21.3927 C   0  0  0  0  0  0
  -26.2522  -22.1971   21.9706 C   0  0  0  0  0  0
  -26.9199  -24.5267   21.2700 C   0  0  0  0  0  0
  -28.9593  -23.8622   20.1769 C   0  0  0  0  0  0
  -28.2657  -25.1330   20.8144 C   0  0  1  0  0  0
  -28.6677  -21.2643   18.1839 C   0  0  0  0  0  0
  -29.9855  -18.4767   23.1707 C   0  0  0  0  0  0
  -29.1731  -21.2851   23.2739 C   0  0  0  0  0  0
  -30.5962  -17.1513   20.5022 C   0  0  0  0  0  0
  -28.3363  -22.6572   20.7902 N   0  0  0  0  0  0
  -29.9792  -15.7945   20.7172 N   0  0  0  0  0  0
  -31.4630  -12.4801   19.1647 H   0  0  0  0  0  0
  -30.3272  -11.4069   19.9296 H   0  0  0  0  0  0
  -29.7661  -11.7327   17.4945 H   0  0  0  0  0  0
  -29.6490  -13.4585   17.7370 H   0  0  0  0  0  0
  -27.8628  -11.2903   18.8851 H   0  0  0  0  0  0
  -27.3718  -12.5587   17.7951 H   0  0  0  0  0  0
  -27.6514  -14.2569   19.4933 H   0  0  0  0  0  0
  -28.6972  -12.1351   21.4293 H   0  0  0  0  0  0
  -28.4436  -13.8221   21.8015 H   0  0  0  0  0  0
  -25.2765   -9.5689   22.4758 H   0  0  0  0  0  0
  -24.0004   -7.4640   22.7473 H   0  0  0  0  0  0
  -21.0847   -8.8774   19.8951 H   0  0  0  0  0  0
  -22.3699  -10.9674   19.6165 H   0  0  0  0  0  0
  -21.2006   -7.6147   23.9713 H   0  0  0  0  0  0
  -21.1482   -6.0523   25.9076 H   0  0  0  0  0  0
  -22.0598   -2.7608   23.2845 H   0  0  0  0  0  0
  -22.4097  -11.9876   22.4801 H   0  0  0  0  0  0
  -21.1090  -13.1230   22.2624 H   0  0  0  0  0  0
  -24.6532  -15.8458   20.5206 H   0  0  0  0  0  0
  -26.2694  -15.6332   20.0792 H   0  0  0  0  0  0
  -26.7166  -32.5453   23.1104 H   0  0  0  0  0  0
  -25.0078  -33.9723   25.0434 H   0  0  0  0  0  0
  -22.7125  -31.3044   21.4037 H   0  0  0  0  0  0
  -23.3748  -35.9633   23.3309 H   0  0  0  0  0  0
  -24.3584  -36.8910   22.2054 H   0  0  0  0  0  0
  -23.7249  -37.6502   23.6656 H   0  0  0  0  0  0
  -26.0918  -31.5484   20.6084 H   0  0  0  0  0  0
  -26.8401  -30.8387   22.0075 H   0  0  0  0  0  0
  -28.1034  -28.9645   21.2302 H   0  0  0  0  0  0
  -26.0371  -25.9842   18.9057 H   0  0  0  0  0  0
  -23.9894  -27.3350   18.9569 H   0  0  0  0  0  0
  -23.7536  -30.5971   19.4052 H   0  0  0  0  0  0
  -22.7536  -29.2504   19.8575 H   0  0  0  0  0  0
  -25.1292  -36.1934   25.0824 H   0  0  0  0  0  0
  -20.9976  -28.3245   24.1409 H   0  0  0  0  0  0
  -20.5676  -26.2281   23.3609 H   0  0  0  0  0  0
  -21.6637  -26.7430   22.1200 H   0  0  0  0  0  0
  -19.6914  -25.6292   21.1236 H   0  0  0  0  0  0
  -19.6690  -27.3194   20.6746 H   0  0  0  0  0  0
  -17.4199  -26.6674   21.4024 H   0  0  0  0  0  0
  -18.0317  -26.0067   22.9022 H   0  0  0  0  0  0
  -19.7943  -30.7264   24.2251 H   0  0  0  0  0  0
  -17.5023  -31.6263   24.5158 H   0  0  0  0  0  0
  -15.5352  -30.2978   23.7665 H   0  0  0  0  0  0
  -15.8675  -28.0819   22.7060 H   0  0  0  0  0  0
  -24.5910  -30.7060   25.7794 H   0  0  0  0  0  0
  -24.8918  -32.2884   26.4881 H   0  0  0  0  0  0
  -25.8065  -30.8904   27.0236 H   0  0  0  0  0  0
  -26.2914  -29.6760   24.1208 H   0  0  0  0  0  0
  -27.4051  -29.7265   25.4674 H   0  0  0  0  0  0
  -27.8775  -30.4308   23.9397 H   0  0  0  0  0  0
  -27.2661  -33.3621   26.2068 H   0  0  0  0  0  0
  -28.3862  -32.6877   25.0329 H   0  0  0  0  0  0
  -28.0715  -31.8453   26.5421 H   0  0  0  0  0  0
  -28.2591  -38.0099   24.7506 H   0  0  0  0  0  0
  -28.1073  -36.2628   24.6296 H   0  0  0  0  0  0
  -27.2293  -37.1458   25.8868 H   0  0  0  0  0  0
  -20.9356  -29.8765   21.6906 H   0  0  0  0  0  0
  -26.0171  -38.2853   24.1407 H   0  0  0  0  0  0
  -29.6346  -18.7836   18.5110 H   0  0  0  0  0  0
  -25.3350  -22.5766   22.3990 H   0  0  0  0  0  0
  -26.4157  -21.1302   22.0248 H   0  0  0  0  0  0
  -26.5824  -24.9637   22.2104 H   0  0  0  0  0  0
  -26.1201  -24.6351   20.5451 H   0  0  0  0  0  0
  -30.0385  -23.8741   20.3348 H   0  0  0  0  0  0
  -28.7810  -23.8523   19.1025 H   0  0  0  0  0  0
  -28.8141  -25.3118   21.7408 H   0  0  0  0  0  0
  -28.5535  -20.5273   17.3889 H   0  0  0  0  0  0
  -29.4497  -21.9613   17.8836 H   0  0  0  0  0  0
  -27.7252  -21.8067   18.2613 H   0  0  0  0  0  0
  -29.9496  -17.3942   23.0555 H   0  0  0  0  0  0
  -29.2681  -18.7176   23.9551 H   0  0  0  0  0  0
  -30.9821  -18.7462   23.5208 H   0  0  0  0  0  0
  -30.0428  -21.0360   23.8809 H   0  0  0  0  0  0
  -28.2768  -20.9902   23.8191 H   0  0  0  0  0  0
  -29.1733  -22.3705   23.1872 H   0  0  0  0  0  0
  -31.4663  -17.2145   21.1582 H   0  0  0  0  0  0
  -31.0262  -17.1403   19.4987 H   0  0  0  0  0  0
  -28.9975  -15.7392   20.9405 H   0  0  0  0  0  0
  1 25  1  0  0  0
  1 30  2  0  0  0
  1 87  1  0  0  0
  2  3  1  0  0  0
  2 25  1  0  0  0
  2 88  1  0  0  0
  2 89  1  0  0  0
  3  4  1  0  0  0
  3 90  1  0  0  0
  3 91  1  0  0  0
  4  5  1  0  0  0
  4 92  1  0  0  0
  4 93  1  0  0  0
  5  6  1  0  0  0
  5 26  1  0  0  0
  5 94  1  0  0  0
  6 25  1  0  0  0
  6 95  1  0  0  0
  6 96  1  0  0  0
  7  8  2  0  0  0
  7 26  1  0  0  0
  7 29  1  0  0  0
  8  9  1  0  0  0
  8 22  1  0  0  0
  9 10  1  0  0  0
  9 27  2  0  0  0
 10 11  2  0  0  0
 10 15  1  0  0  0
 11 12  1  0  0  0
 11 97  1  0  0  0
 12 13  2  0  0  0
 12 98  1  0  0  0
 13 14  1  0  0  0
 13 31  1  0  0  0
 14 15  2  0  0  0
 14 99  1  0  0  0
 15100  1  0  0  0
 16 17  2  0  0  0
 16 21  1  0  0  0
 16 31  1  0  0  0
 17 18  1  0  0  0
 17101  1  0  0  0
 18 19  2  0  0  0
 18102  1  0  0  0
 19 20  1  0  0  0
 19 24  1  0  0  0
 20 21  2  0  0  0
 20103  1  0  0  0
 21 23  1  0  0  0
 22 28  1  0  0  0
 22 32  2  0  0  0
 26 27  1  0  0  0
 28104  1  0  0  0
 28105  1  0  0  0
 29106  1  0  0  0
 29107  1  0  0  0
 33 34  1  0  0  0
 33 66  1  0  0  0
 33 70  2  0  0  0
 34 36  1  0  0  0
 34 59  1  0  0  0
 34108  1  0  0  0
 35 44  2  0  0  0
 35 45  1  0  0  0
 35 68  1  0  0  0
 36 56  1  0  0  0
 36109  1  0  0  0
 37 39  1  0  0  0
 37 47  1  0  0  0
 37 66  1  0  0  0
 37110  1  0  0  0
 38 43  2  0  0  0
 38 46  1  0  0  0
 38 47  1  0  0  0
 39 64  1  0  0  0
 39 67  2  0  0  0
 40 52  1  0  0  0
 40 53  2  0  0  0
 40 58  1  0  0  0
 41111  1  0  0  0
 41112  1  0  0  0
 41113  1  0  0  0
 41 48  1  0  0  0
 42 43  1  0  0  0
 42 66  1  0  0  0
 42114  1  0  0  0
 42115  1  0  0  0
 43 44  1  0  0  0
 44116  1  0  0  0
 45 46  2  0  0  0
 45117  1  0  0  0
 46118  1  0  0  0
 47119  1  0  0  0
 47120  1  0  0  0
 48 56  1  0  0  0
 48 65  1  0  0  0
 48121  1  0  0  0
 49 50  1  0  0  0
 49 53  1  0  0  0
 49 64  1  0  0  0
 49122  1  0  0  0
 50 51  1  0  0  0
 50123  1  0  0  0
 50124  1  0  0  0
 51 52  1  0  0  0
 51125  1  0  0  0
 51126  1  0  0  0
 52127  1  0  0  0
 52128  1  0  0  0
 53 54  1  0  0  0
 54 55  2  0  0  0
 54129  1  0  0  0
 55 57  1  0  0  0
 55130  1  0  0  0
 56 69  2  0  0  0
 57 58  2  0  0  0
 57131  1  0  0  0
 58132  1  0  0  0
 59 60  1  0  0  0
 59 61  1  0  0  0
 59 62  1  0  0  0
 60133  1  0  0  0
 60134  1  0  0  0
 60135  1  0  0  0
 61136  1  0  0  0
 61137  1  0  0  0
 61138  1  0  0  0
 62139  1  0  0  0
 62140  1  0  0  0
 62141  1  0  0  0
 63 65  1  0  0  0
 63142  1  0  0  0
 63143  1  0  0  0
 63144  1  0  0  0
 64145  1  0  0  0
 65146  1  0  0  0
 68 81  1  0  0  0
 71 72  2  0  0  0
 71 73  1  0  0  0
 71147  1  0  0  0
 72 74  1  0  0  0
 72 85  1  0  0  0
 73 76  2  0  0  0
 73 82  1  0  0  0
 74 75  2  0  0  0
 74 83  1  0  0  0
 75 76  1  0  0  0
 75 84  1  0  0  0
 76 86  1  0  0  0
 77 78  2  0  0  0
 77 79  1  0  0  0
 77 86  1  0  0  0
 78148  1  0  0  0
 78149  1  0  0  0
 79 81  1  0  0  0
 79150  1  0  0  0
 79151  1  0  0  0
 80 81  1  0  0  0
 80 86  1  0  0  0
 80152  1  0  0  0
 80153  1  0  0  0
 81154  1  0  0  0
 82155  1  0  0  0
 82156  1  0  0  0
 82157  1  0  0  0
 83158  1  0  0  0
 83159  1  0  0  0
 83160  1  0  0  0
 84161  1  0  0  0
 84162  1  0  0  0
 84163  1  0  0  0
 85 87  1  0  0  0
 85164  1  0  0  0
 85165  1  0  0  0
 87166  1  0  0  0
M  ISO  4   1 100  68 101  81 101  87 100
M  END
> <chiral flag>
0

> <version>
0

> <s_m_source_file>
/data/baiqing/PycharmProjects/Reinvent-master-3.2/result/LINK_invent/BTK/process_docking_weight1_custom_product_contain_oxygen_bond_distance_aromatic_linkinvent_7_9_3/rearranged_h_0032.sdf

> <i_m_source_file_index>
81

> <r_mmod_Potential_Energy-OPLS-2005>
104.947631835938

> <r_mmod_Stretch_Energy-OPLS-2005>
81.9373245239258

> <r_mmod_Bend_Energy-OPLS-2005>
192.667205810547

> <r_mmod_Torsional_Energy-OPLS-2005>
278.329620361328

> <r_mmod_Improper_Torsional_Energy-OPLS-2005>
6.8219895362854

> <r_mmod_Van_der_Waal_Energy-OPLS-2005>
151.550140380859

> <r_mmod_Electrostatic_Energy-OPLS-2005>
-460.252532958984

> <r_mmod_Solvation_Energy-OPLS-2005>
-197.349151611328

> <b_mmod_Minimization_Converged-OPLS-2005>
0

> <r_mmod_RMS_Derivative-OPLS-2005>
0.643662095069885

$$$$
81
                    3D
 Structure written by MMmdl.
149157  0  0  1  0            999 V2000
  -30.4210  -15.2130   20.3809 C   0  0  0  0  0  0
  -30.4492  -12.7680   19.5225 C   0  0  0  0  0  0
  -29.5385  -12.5754   18.2827 C   0  0  0  0  0  0
  -28.0805  -12.3126   18.7017 C   0  0  0  0  0  0
  -27.6190  -13.2681   19.8305 C   0  0  2  0  0  0
  -28.6564  -13.3923   20.9668 C   0  0  0  0  0  0
  -25.2412  -13.8238   20.5738 C   0  0  0  0  0  0
  -24.1754  -13.0430   20.9254 C   0  0  0  0  0  0
  -24.6401  -11.6926   20.8757 C   0  0  0  0  0  0
  -23.9092  -10.4288   21.0408 C   0  0  0  0  0  0
  -24.3638   -9.4204   21.9185 C   0  0  0  0  0  0
  -23.6307   -8.2239   22.0757 C   0  0  0  0  0  0
  -22.4287   -8.0280   21.3547 C   0  0  0  0  0  0
  -21.9924   -9.0256   20.4645 C   0  0  0  0  0  0
  -22.7263  -10.2133   20.3057 C   0  0  0  0  0  0
  -21.6856   -6.0736   22.5285 C   0  0  0  0  0  0
  -21.4016   -6.5639   23.8217 C   0  0  0  0  0  0
  -21.3663   -5.6793   24.9179 C   0  0  0  0  0  0
  -21.6046   -4.3053   24.7225 C   0  0  0  0  0  0
  -21.8820   -3.8147   23.4346 C   0  0  0  0  0  0
  -21.9193   -4.6963   22.3402 C   0  0  0  0  0  0
  -22.7772  -13.5185   21.1904 C   0  0  0  0  0  0
  -22.1662   -4.2149   21.0981 F   0  0  0  0  0  0
  -21.5626   -3.4538   25.7740 F   0  0  0  0  0  0
  -29.8972  -13.8940   20.3543 N   0  0  0  0  0  0
  -26.2843  -12.9498   20.3223 N   0  0  0  0  0  0
  -25.9339  -11.6612   20.5721 N   0  0  0  0  0  0
  -22.0433  -12.8168   22.0462 N   0  0  0  0  0  0
  -25.4025  -15.1977   20.4177 N   0  0  0  0  0  0
  -31.6353  -15.2722   20.1384 O   0  0  0  0  0  0
  -21.6640   -6.8885   21.4248 O   0  0  0  0  0  0
  -22.3452  -14.5483   20.6747 O   0  0  0  0  0  0
  -24.6600  -31.8276   23.1723 C   0  0  0  0  0  0
  -25.9301  -32.4605   23.8177 C   0  0  1  0  0  0
  -27.2206  -26.9635   20.1800 C   0  0  0  0  0  0
  -25.5980  -33.8419   24.2086 N   0  0  0  0  0  0
  -23.4727  -30.4389   21.5216 C   0  0  2  0  0  0
  -24.9247  -28.8306   20.1123 C   0  0  0  0  0  0
  -22.7656  -29.4454   22.4797 C   0  0  0  0  0  0
  -18.0325  -28.1418   22.8475 C   0  0  0  0  0  0
  -24.1490  -36.7203   23.2647 C   0  0  0  0  0  0
  -26.0396  -30.6448   21.3974 C   0  0  0  0  0  0
  -26.1078  -29.2388   20.7405 C   0  0  0  0  0  0
  -27.2509  -28.3259   20.7493 C   0  0  0  0  0  0
  -26.0086  -26.6976   19.5048 C   0  0  0  0  0  0
  -24.8981  -27.5797   19.4744 C   0  0  0  0  0  0
  -23.7096  -29.7549   20.1476 C   0  0  0  0  0  0
  -25.4136  -36.2980   24.0299 C   0  0  1  0  0  0
  -20.5947  -28.3763   23.1206 C   0  0  2  0  0  0
  -20.6802  -26.9442   22.5423 C   0  0  0  0  0  0
  -19.5775  -26.6383   21.5230 C   0  0  0  0  0  0
  -18.1952  -26.7960   22.1621 C   0  0  0  0  0  0
  -19.1584  -28.8911   23.2822 C   0  0  0  0  0  0
  -18.9490  -30.1497   23.8858 C   0  0  0  0  0  0
  -17.6485  -30.6604   24.0564 C   0  0  0  0  0  0
  -25.9103  -34.9361   23.5012 C   0  0  0  0  0  0
  -16.5375  -29.9092   23.6350 C   0  0  0  0  0  0
  -16.7305  -28.6510   23.0373 C   0  0  0  0  0  0
  -26.4552  -31.6549   25.0697 C   0  0  0  0  0  0
  -25.3676  -31.3810   26.1352 C   0  0  0  0  0  0
  -27.0439  -30.2911   24.6425 C   0  0  0  0  0  0
  -27.6058  -32.4351   25.7488 C   0  0  0  0  0  0
  -27.5574  -37.1758   24.8465 C   0  0  0  0  0  0
  -21.4329  -29.3044   22.3548 N   0  0  0  0  0  0
  -26.4282  -37.3712   23.9407 N   0  0  0  0  0  0
  -24.7451  -30.9972   22.0842 N   0  0  0  0  0  0
  -23.4220  -28.8038   23.3038 O   0  0  0  0  0  0
  -28.2327  -25.8816   20.2658 O   0  0  0  0  0  0
  -26.5703  -34.8895   22.4601 O   0  0  0  0  0  0
  -23.5674  -32.1224   23.6835 O   0  0  0  0  0  0
  -30.5550  -19.0095   20.2451 C   0  0  0  0  0  0
  -28.2925  -18.8131   20.5339 C   0  0  0  0  0  0
  -29.1631  -21.2921   20.3433 C   0  0  0  0  0  0
  -30.4042  -20.4938   20.2144 C   0  0  0  0  0  0
  -29.5148  -18.0154   20.4180 C   0  0  0  0  0  0
  -28.1171  -20.2924   20.5024 C   0  0  0  0  0  0
  -29.0919  -23.0120   20.4827 C   0  0  0  0  0  0
  -31.7166  -21.2439   20.0316 C   0  0  0  0  0  0
  -27.9826  -24.2727   20.0647 C   0  0  0  0  0  0
  -29.5602  -16.4030   20.4968 N   0  0  0  0  0  0
  -30.0901  -23.5085   21.0155 O   0  0  0  0  0  0
  -26.8552  -20.7546   20.6755 F   0  0  0  0  0  0
  -31.4679  -12.9795   19.1956 H   0  0  0  0  0  0
  -30.5115  -11.8478   20.1057 H   0  0  0  0  0  0
  -29.9038  -11.7561   17.6617 H   0  0  0  0  0  0
  -29.5810  -13.4737   17.6649 H   0  0  0  0  0  0
  -28.0203  -11.2799   19.0467 H   0  0  0  0  0  0
  -27.4166  -12.3880   17.8389 H   0  0  0  0  0  0
  -27.5473  -14.2479   19.3578 H   0  0  0  0  0  0
  -28.8081  -12.4374   21.4720 H   0  0  0  0  0  0
  -28.3073  -14.0921   21.7284 H   0  0  0  0  0  0
  -25.2789   -9.5668   22.4751 H   0  0  0  0  0  0
  -24.0010   -7.4629   22.7477 H   0  0  0  0  0  0
  -21.0850   -8.8780   19.8952 H   0  0  0  0  0  0
  -22.3729  -10.9669   19.6155 H   0  0  0  0  0  0
  -21.2016   -7.6151   23.9719 H   0  0  0  0  0  0
  -21.1484   -6.0525   25.9081 H   0  0  0  0  0  0
  -22.0598   -2.7607   23.2851 H   0  0  0  0  0  0
  -22.4063  -11.9835   22.4851 H   0  0  0  0  0  0
  -21.1043  -13.1178   22.2660 H   0  0  0  0  0  0
  -24.6246  -15.8399   20.5242 H   0  0  0  0  0  0
  -26.2269  -15.6403   20.0348 H   0  0  0  0  0  0
  -26.7375  -32.5146   23.0898 H   0  0  0  0  0  0
  -25.0109  -33.9507   25.0224 H   0  0  0  0  0  0
  -22.7833  -31.2688   21.3536 H   0  0  0  0  0  0
  -23.3767  -35.9517   23.3299 H   0  0  0  0  0  0
  -24.3552  -36.8860   22.2062 H   0  0  0  0  0  0
  -23.7234  -37.6381   23.6709 H   0  0  0  0  0  0
  -26.2215  -31.3896   20.6216 H   0  0  0  0  0  0
  -26.8990  -30.6950   22.0546 H   0  0  0  0  0  0
  -28.1483  -28.6363   21.2661 H   0  0  0  0  0  0
  -25.8869  -25.7404   19.0187 H   0  0  0  0  0  0
  -23.9971  -27.2609   18.9690 H   0  0  0  0  0  0
  -23.8620  -30.5238   19.3890 H   0  0  0  0  0  0
  -22.8191  -29.2085   19.8320 H   0  0  0  0  0  0
  -25.1332  -36.1776   25.0788 H   0  0  0  0  0  0
  -21.0029  -28.3376   24.1329 H   0  0  0  0  0  0
  -20.5695  -26.2377   23.3661 H   0  0  0  0  0  0
  -21.6666  -26.7428   22.1220 H   0  0  0  0  0  0
  -19.6936  -25.6279   21.1291 H   0  0  0  0  0  0
  -19.6723  -27.3170   20.6742 H   0  0  0  0  0  0
  -17.4232  -26.6735   21.4005 H   0  0  0  0  0  0
  -18.0304  -26.0099   22.9010 H   0  0  0  0  0  0
  -19.7962  -30.7329   24.2207 H   0  0  0  0  0  0
  -17.5033  -31.6280   24.5177 H   0  0  0  0  0  0
  -15.5370  -30.2985   23.7693 H   0  0  0  0  0  0
  -15.8708  -28.0813   22.7125 H   0  0  0  0  0  0
  -24.5936  -30.7054   25.7695 H   0  0  0  0  0  0
  -24.8760  -32.3005   26.4539 H   0  0  0  0  0  0
  -25.7911  -30.9184   27.0278 H   0  0  0  0  0  0
  -26.3107  -29.6589   24.1404 H   0  0  0  0  0  0
  -27.3951  -29.7269   25.5078 H   0  0  0  0  0  0
  -27.9060  -30.4088   23.9854 H   0  0  0  0  0  0
  -27.2654  -33.3726   26.1896 H   0  0  0  0  0  0
  -28.3949  -32.6786   25.0362 H   0  0  0  0  0  0
  -28.0633  -31.8581   26.5533 H   0  0  0  0  0  0
  -28.2584  -38.0066   24.7509 H   0  0  0  0  0  0
  -28.1086  -36.2588   24.6302 H   0  0  0  0  0  0
  -27.2289  -37.1419   25.8871 H   0  0  0  0  0  0
  -20.9584  -29.8706   21.6657 H   0  0  0  0  0  0
  -26.0134  -38.2767   24.1425 H   0  0  0  0  0  0
  -31.5567  -18.6146   20.1411 H   0  0  0  0  0  0
  -27.3796  -18.2545   20.6787 H   0  0  0  0  0  0
  -32.4931  -20.6064   19.6051 H   0  0  0  0  0  0
  -32.0806  -21.6106   20.9929 H   0  0  0  0  0  0
  -31.6019  -22.0921   19.3565 H   0  0  0  0  0  0
  -27.0461  -24.0318   20.5673 H   0  0  0  0  0  0
  -27.7760  -24.1315   19.0042 H   0  0  0  0  0  0
  -28.6309  -16.0510   20.6700 H   0  0  0  0  0  0
  1 25  1  0  0  0
  1 30  2  0  0  0
  1 80  1  0  0  0
  2  3  1  0  0  0
  2 25  1  0  0  0
  2 83  1  0  0  0
  2 84  1  0  0  0
  3  4  1  0  0  0
  3 85  1  0  0  0
  3 86  1  0  0  0
  4  5  1  0  0  0
  4 87  1  0  0  0
  4 88  1  0  0  0
  5  6  1  0  0  0
  5 26  1  0  0  0
  5 89  1  0  0  0
  6 25  1  0  0  0
  6 90  1  0  0  0
  6 91  1  0  0  0
  7  8  2  0  0  0
  7 26  1  0  0  0
  7 29  1  0  0  0
  8  9  1  0  0  0
  8 22  1  0  0  0
  9 10  1  0  0  0
  9 27  2  0  0  0
 10 11  2  0  0  0
 10 15  1  0  0  0
 11 12  1  0  0  0
 11 92  1  0  0  0
 12 13  2  0  0  0
 12 93  1  0  0  0
 13 14  1  0  0  0
 13 31  1  0  0  0
 14 15  2  0  0  0
 14 94  1  0  0  0
 15 95  1  0  0  0
 16 17  2  0  0  0
 16 21  1  0  0  0
 16 31  1  0  0  0
 17 18  1  0  0  0
 17 96  1  0  0  0
 18 19  2  0  0  0
 18 97  1  0  0  0
 19 20  1  0  0  0
 19 24  1  0  0  0
 20 21  2  0  0  0
 20 98  1  0  0  0
 21 23  1  0  0  0
 22 28  1  0  0  0
 22 32  2  0  0  0
 26 27  1  0  0  0
 28 99  1  0  0  0
 28100  1  0  0  0
 29101  1  0  0  0
 29102  1  0  0  0
 33 34  1  0  0  0
 33 66  1  0  0  0
 33 70  2  0  0  0
 34 36  1  0  0  0
 34 59  1  0  0  0
 34103  1  0  0  0
 35 44  2  0  0  0
 35 45  1  0  0  0
 35 68  1  0  0  0
 36 56  1  0  0  0
 36104  1  0  0  0
 37 39  1  0  0  0
 37 47  1  0  0  0
 37 66  1  0  0  0
 37105  1  0  0  0
 38 43  2  0  0  0
 38 46  1  0  0  0
 38 47  1  0  0  0
 39 64  1  0  0  0
 39 67  2  0  0  0
 40 52  1  0  0  0
 40 53  2  0  0  0
 40 58  1  0  0  0
 41106  1  0  0  0
 41107  1  0  0  0
 41108  1  0  0  0
 41 48  1  0  0  0
 42 43  1  0  0  0
 42 66  1  0  0  0
 42109  1  0  0  0
 42110  1  0  0  0
 43 44  1  0  0  0
 44111  1  0  0  0
 45 46  2  0  0  0
 45112  1  0  0  0
 46113  1  0  0  0
 47114  1  0  0  0
 47115  1  0  0  0
 48 56  1  0  0  0
 48 65  1  0  0  0
 48116  1  0  0  0
 49 50  1  0  0  0
 49 53  1  0  0  0
 49 64  1  0  0  0
 49117  1  0  0  0
 50 51  1  0  0  0
 50118  1  0  0  0
 50119  1  0  0  0
 51 52  1  0  0  0
 51120  1  0  0  0
 51121  1  0  0  0
 52122  1  0  0  0
 52123  1  0  0  0
 53 54  1  0  0  0
 54 55  2  0  0  0
 54124  1  0  0  0
 55 57  1  0  0  0
 55125  1  0  0  0
 56 69  2  0  0  0
 57 58  2  0  0  0
 57126  1  0  0  0
 58127  1  0  0  0
 59 60  1  0  0  0
 59 61  1  0  0  0
 59 62  1  0  0  0
 60128  1  0  0  0
 60129  1  0  0  0
 60130  1  0  0  0
 61131  1  0  0  0
 61132  1  0  0  0
 61133  1  0  0  0
 62134  1  0  0  0
 62135  1  0  0  0
 62136  1  0  0  0
 63 65  1  0  0  0
 63137  1  0  0  0
 63138  1  0  0  0
 63139  1  0  0  0
 64140  1  0  0  0
 65141  1  0  0  0
 68 79  1  0  0  0
 71 74  2  0  0  0
 71 75  1  0  0  0
 71142  1  0  0  0
 72 75  2  0  0  0
 72 76  1  0  0  0
 72143  1  0  0  0
 73 74  1  0  0  0
 73 76  2  0  0  0
 73 77  1  0  0  0
 74 78  1  0  0  0
 75 80  1  0  0  0
 76 82  1  0  0  0
 77 79  1  0  0  0
 77 81  2  0  0  0
 78144  1  0  0  0
 78145  1  0  0  0
 78146  1  0  0  0
 79147  1  0  0  0
 79148  1  0  0  0
 80149  1  0  0  0
M  ISO  4   1 100  68 101  79 101  80 100
M  END
> <chiral flag>
0

> <version>
0

> <s_m_source_file>
/data/baiqing/PycharmProjects/Reinvent-master-3.2/result/LINK_invent/BTK/process_docking_weight1_custom_product_contain_oxygen_bond_distance_aromatic_linkinvent_7_9_3/rearranged_h_0032.sdf

> <i_m_source_file_index>
82

> <r_mmod_Potential_Energy-OPLS-2005>
1161.40283203125

> <r_mmod_Stretch_Energy-OPLS-2005>
486.380126953125

> <r_mmod_Bend_Energy-OPLS-2005>
409.919769287109

> <r_mmod_Torsional_Energy-OPLS-2005>
239.893020629883

> <r_mmod_Improper_Torsional_Energy-OPLS-2005>
4.82352304458618

> <r_mmod_Van_der_Waal_Energy-OPLS-2005>
129.639663696289

> <r_mmod_Electrostatic_Energy-OPLS-2005>
-293.896881103516

> <r_mmod_Solvation_Energy-OPLS-2005>
-222.683441162109

> <b_mmod_Minimization_Converged-OPLS-2005>
0

> <r_mmod_RMS_Derivative-OPLS-2005>
1.42806386947632

$$$$
82
                    3D
 Structure written by MMmdl.
175184  0  0  1  0            999 V2000
  -29.6096  -16.9041   20.1466 C   0  0  0  0  0  0
  -30.2070  -14.0372   19.4997 C   0  0  0  0  0  0
  -29.5464  -13.0509   18.4302 C   0  0  0  0  0  0
  -28.2621  -12.4053   18.9427 C   0  0  0  0  0  0
  -27.5465  -13.4512   19.8057 C   0  0  2  0  0  0
  -28.4287  -14.2679   20.8302 C   0  0  0  0  0  0
  -25.2011  -13.8478   20.5935 C   0  0  0  0  0  0
  -24.1573  -13.0428   20.9385 C   0  0  0  0  0  0
  -24.6477  -11.7012   20.8746 C   0  0  0  0  0  0
  -23.9224  -10.4282   21.0338 C   0  0  0  0  0  0
  -24.3722   -9.4195   21.9148 C   0  0  0  0  0  0
  -23.6341   -8.2260   22.0741 C   0  0  0  0  0  0
  -22.4327   -8.0298   21.3530 C   0  0  0  0  0  0
  -22.0000   -9.0273   20.4627 C   0  0  0  0  0  0
  -22.7372  -10.2122   20.3001 C   0  0  0  0  0  0
  -21.6875   -6.0753   22.5274 C   0  0  0  0  0  0
  -21.4034   -6.5646   23.8212 C   0  0  0  0  0  0
  -21.3665   -5.6796   24.9175 C   0  0  0  0  0  0
  -21.6050   -4.3057   24.7225 C   0  0  0  0  0  0
  -21.8806   -3.8146   23.4341 C   0  0  0  0  0  0
  -21.9195   -4.6973   22.3400 C   0  0  0  0  0  0
  -22.7548  -13.5011   21.1959 C   0  0  0  0  0  0
  -22.1655   -4.2153   21.0979 F   0  0  0  0  0  0
  -21.5628   -3.4535   25.7736 F   0  0  0  0  0  0
  -29.3220  -15.2917   20.0860 N   0  0  0  0  0  0
  -26.2667  -13.0113   20.3435 N   0  0  0  0  0  0
  -25.9479  -11.7017   20.5635 N   0  0  0  0  0  0
  -22.0284  -12.7972   22.0546 N   0  0  0  0  0  0
  -25.3323  -15.2244   20.4312 N   0  0  0  0  0  0
  -30.8715  -16.6802   20.0854 O   0  0  0  0  0  0
  -21.6658   -6.8912   21.4240 O   0  0  0  0  0  0
  -22.3214  -14.5322   20.6830 O   0  0  0  0  0  0
  -24.7072  -31.6560   23.0677 C   0  0  0  0  0  0
  -25.9592  -32.3469   23.7417 C   0  0  1  0  0  0
  -27.9548  -25.9417   20.6640 C   0  0  0  0  0  0
  -25.6053  -33.7469   24.1282 N   0  0  0  0  0  0
  -23.5879  -30.1542   21.3920 C   0  0  2  0  0  0
  -25.0165  -28.0998   20.0596 C   0  0  0  0  0  0
  -22.7735  -29.3331   22.4224 C   0  0  0  0  0  0
  -18.0390  -28.1477   22.8438 C   0  0  0  0  0  0
  -24.1620  -36.6873   23.2666 C   0  0  0  0  0  0
  -26.1117  -30.0606   21.5500 C   0  0  0  0  0  0
  -26.1915  -28.4864   21.0625 C   0  0  0  0  0  0
  -27.4893  -27.5070   21.4384 C   0  0  0  0  0  0
  -26.0562  -25.3617   19.0400 C   0  0  0  0  0  0
  -24.8855  -26.7209   19.1077 C   0  0  0  0  0  0
  -23.9109  -29.2648   20.0754 C   0  0  0  0  0  0
  -25.4265  -36.2371   24.0181 C   0  0  1  0  0  0
  -20.5930  -28.3686   23.1081 C   0  0  2  0  0  0
  -20.6733  -26.9298   22.5484 C   0  0  0  0  0  0
  -19.5793  -26.6325   21.5225 C   0  0  0  0  0  0
  -18.1973  -26.8013   22.1575 C   0  0  0  0  0  0
  -19.1649  -28.8957   23.2738 C   0  0  0  0  0  0
  -18.9591  -30.1549   23.8774 C   0  0  0  0  0  0
  -17.6581  -30.6639   24.0561 C   0  0  0  0  0  0
  -25.9239  -34.8737   23.4637 C   0  0  0  0  0  0
  -16.5452  -29.9108   23.6398 C   0  0  0  0  0  0
  -16.7377  -28.6544   23.0379 C   0  0  0  0  0  0
  -26.4691  -31.6008   25.0502 C   0  0  0  0  0  0
  -25.3364  -31.4062   26.0917 C   0  0  0  0  0  0
  -27.1055  -30.2125   24.7859 C   0  0  0  0  0  0
  -27.6081  -32.4184   25.7064 C   0  0  0  0  0  0
  -27.5607  -37.1611   24.8477 C   0  0  0  0  0  0
  -21.4325  -29.2649   22.3106 N   0  0  0  0  0  0
  -26.4304  -37.3258   23.9399 N   0  0  0  0  0  0
  -24.8206  -30.7005   22.0456 N   0  0  0  0  0  0
  -23.3795  -28.7220   23.3083 O   0  0  0  0  0  0
  -29.2762  -25.6927   20.6154 O   0  0  0  0  0  0
  -26.6047  -34.8523   22.4373 O   0  0  0  0  0  0
  -23.6030  -32.0383   23.5007 O   0  0  0  0  0  0
  -25.8583  -25.8694   21.0887 C   0  0  0  0  0  0
  -26.4916  -24.0417   21.0043 C   0  0  0  0  0  0
  -28.1889  -25.8816   18.3177 C   0  0  0  0  0  0
  -27.1993  -27.1949   19.1106 C   0  0  0  0  0  0
  -27.6442  -23.0314   19.9847 C   0  0  0  0  0  0
  -28.2549  -24.1660   18.8062 C   0  0  0  0  0  0
  -29.8257  -29.6369   20.9863 C   0  0  0  0  0  0
  -34.3344  -29.4105   24.2186 C   0  0  0  0  0  0
  -30.8324  -30.5358   20.7846 C   0  0  0  0  0  0
  -33.9718  -30.1145   23.1278 C   0  0  0  0  0  0
  -32.6948  -29.9424   22.4477 C   0  0  0  0  0  0
  -32.1748  -30.6879   21.4262 C   0  0  0  0  0  0
  -29.8179  -28.8765   22.3208 C   0  0  0  0  0  0
  -30.2888  -27.3639   22.2628 C   0  0  0  0  0  0
  -30.4195  -27.6388   19.6650 C   0  0  0  0  0  0
  -30.2990  -26.6666   20.8517 C   0  0  2  0  0  0
  -33.0155  -31.8003   20.8308 C   0  0  0  0  0  0
  -28.5247  -20.8271   19.9610 C   0  0  0  0  0  0
  -28.0759  -28.5672   19.0027 C   0  0  0  0  0  0
  -28.7679  -18.5921   20.1261 N   0  0  0  0  0  0
  -29.3591  -28.6176   19.8968 N   0  3  2  0  0  0
  -29.2777  -23.3417   17.6872 Cl  0  0  0  0  0  0
  -31.0909  -14.4559   19.0168 H   0  0  0  0  0  0
  -30.6559  -13.4405   20.2985 H   0  0  0  0  0  0
  -30.2448  -12.2759   18.1178 H   0  0  0  0  0  0
  -29.3130  -13.6271   17.5360 H   0  0  0  0  0  0
  -28.5099  -11.5407   19.5610 H   0  0  0  0  0  0
  -27.6303  -12.0463   18.1279 H   0  0  0  0  0  0
  -27.2584  -14.1943   19.0580 H   0  0  0  0  0  0
  -28.9536  -13.6045   21.5239 H   0  0  0  0  0  0
  -27.7869  -14.8617   21.4825 H   0  0  0  0  0  0
  -25.2850   -9.5675   22.4755 H   0  0  0  0  0  0
  -24.0028   -7.4662   22.7475 H   0  0  0  0  0  0
  -21.0939   -8.8797   19.8934 H   0  0  0  0  0  0
  -22.3819  -10.9658   19.6110 H   0  0  0  0  0  0
  -21.2033   -7.6152   23.9724 H   0  0  0  0  0  0
  -21.1505   -6.0523   25.9086 H   0  0  0  0  0  0
  -22.0582   -2.7601   23.2838 H   0  0  0  0  0  0
  -22.3992  -11.9659   22.4913 H   0  0  0  0  0  0
  -21.0859  -13.0884   22.2722 H   0  0  0  0  0  0
  -24.5431  -15.8544   20.5273 H   0  0  0  0  0  0
  -26.1700  -15.6760   20.0880 H   0  0  0  0  0  0
  -26.7707  -32.3811   23.0107 H   0  0  0  0  0  0
  -25.0378  -33.8351   24.9577 H   0  0  0  0  0  0
  -22.9674  -30.9982   21.0734 H   0  0  0  0  0  0
  -23.3769  -35.9323   23.3160 H   0  0  0  0  0  0
  -24.3620  -36.8786   22.2123 H   0  0  0  0  0  0
  -23.7607  -37.6014   23.6981 H   0  0  0  0  0  0
  -26.3907  -30.6246   20.6633 H   0  0  0  0  0  0
  -26.9207  -30.2223   22.2529 H   0  0  0  0  0  0
  -27.7937  -27.5356   22.4719 H   0  0  0  0  0  0
  -25.9230  -24.5162   18.3673 H   0  0  0  0  0  0
  -24.0184  -26.6705   18.4491 H   0  0  0  0  0  0
  -24.2033  -29.9596   19.2856 H   0  0  0  0  0  0
  -22.9851  -28.8030   19.7183 H   0  0  0  0  0  0
  -25.1526  -36.0901   25.0658 H   0  0  0  0  0  0
  -21.0155  -28.3600   24.1153 H   0  0  0  0  0  0
  -20.5493  -26.2388   23.3833 H   0  0  0  0  0  0
  -21.6641  -26.7168   22.1412 H   0  0  0  0  0  0
  -19.6949  -25.6201   21.1389 H   0  0  0  0  0  0
  -19.6884  -27.3063   20.6720 H   0  0  0  0  0  0
  -17.4273  -26.6815   21.3940 H   0  0  0  0  0  0
  -18.0312  -26.0157   22.8960 H   0  0  0  0  0  0
  -19.8080  -30.7399   24.2026 H   0  0  0  0  0  0
  -17.5169  -31.6340   24.5172 H   0  0  0  0  0  0
  -15.5455  -30.3005   23.7820 H   0  0  0  0  0  0
  -15.8759  -28.0867   22.7101 H   0  0  0  0  0  0
  -24.5170  -30.8006   25.7030 H   0  0  0  0  0  0
  -24.9154  -32.3679   26.3806 H   0  0  0  0  0  0
  -25.6636  -30.9185   27.0086 H   0  0  0  0  0  0
  -26.4664  -29.5002   24.2577 H   0  0  0  0  0  0
  -27.2871  -29.7226   25.7459 H   0  0  0  0  0  0
  -28.0991  -30.2853   24.3281 H   0  0  0  0  0  0
  -27.2597  -33.3734   26.0915 H   0  0  0  0  0  0
  -28.3999  -32.6241   24.9848 H   0  0  0  0  0  0
  -28.0590  -31.8866   26.5435 H   0  0  0  0  0  0
  -28.2483  -38.0005   24.7373 H   0  0  0  0  0  0
  -28.1255  -36.2505   24.6457 H   0  0  0  0  0  0
  -27.2343  -37.1392   25.8882 H   0  0  0  0  0  0
  -20.9718  -29.7889   21.5780 H   0  0  0  0  0  0
  -25.9928  -38.2190   24.1413 H   0  0  0  0  0  0
  -25.2723  -26.2328   21.9316 H   0  0  0  0  0  0
  -26.0937  -23.4645   21.8246 H   0  0  0  0  0  0
  -28.8432  -26.1683   17.4986 H   0  0  0  0  0  0
  -35.2842  -29.6036   24.6958 H   0  0  0  0  0  0
  -33.7296  -28.6305   24.6763 H   0  0  0  0  0  0
  -30.3962  -31.4632   21.1560 H   0  0  0  0  0  0
  -34.7064  -30.8174   22.7639 H   0  0  0  0  0  0
  -32.1831  -29.1094   22.8615 H   0  0  0  0  0  0
  -28.8447  -29.0750   22.7410 H   0  0  0  0  0  0
  -30.3059  -29.4112   23.1298 H   0  0  0  0  0  0
  -29.7324  -26.7599   22.9906 H   0  0  0  0  0  0
  -31.3146  -27.3169   22.6182 H   0  0  0  0  0  0
  -30.3753  -27.1302   18.7070 H   0  0  0  0  0  0
  -31.4043  -28.1169   19.6921 H   0  0  0  0  0  0
  -31.2104  -26.0744   20.7944 H   0  0  0  0  0  0
  -32.3954  -32.6646   20.5785 H   0  0  0  0  0  0
  -33.4869  -31.3991   19.9295 H   0  0  0  0  0  0
  -33.8020  -32.1852   21.4772 H   0  0  0  0  0  0
  -29.5410  -21.1050   20.2571 H   0  0  0  0  0  0
  -28.5752  -20.7998   18.8678 H   0  0  0  0  0  0
  -27.4819  -29.4743   19.1028 H   0  0  0  0  0  0
  -28.4404  -28.5701   17.9705 H   0  0  0  0  0  0
  -27.8079  -18.2862   20.1957 H   0  0  0  0  0  0
  -28.8407  -27.9911   20.5119 H   0  0  0  0  0  0
  1 25  1  0  0  0
  1 30  2  0  0  0
  1 90  1  0  0  0
  2  3  1  0  0  0
  2 25  1  0  0  0
  2 93  1  0  0  0
  2 94  1  0  0  0
  3  4  1  0  0  0
  3 95  1  0  0  0
  3 96  1  0  0  0
  4  5  1  0  0  0
  4 97  1  0  0  0
  4 98  1  0  0  0
  5  6  1  0  0  0
  5 26  1  0  0  0
  5 99  1  0  0  0
  6 25  1  0  0  0
  6100  1  0  0  0
  6101  1  0  0  0
  7  8  2  0  0  0
  7 26  1  0  0  0
  7 29  1  0  0  0
  8  9  1  0  0  0
  8 22  1  0  0  0
  9 10  1  0  0  0
  9 27  2  0  0  0
 10 11  2  0  0  0
 10 15  1  0  0  0
 11 12  1  0  0  0
 11102  1  0  0  0
 12 13  2  0  0  0
 12103  1  0  0  0
 13 14  1  0  0  0
 13 31  1  0  0  0
 14 15  2  0  0  0
 14104  1  0  0  0
 15105  1  0  0  0
 16 17  2  0  0  0
 16 21  1  0  0  0
 16 31  1  0  0  0
 17 18  1  0  0  0
 17106  1  0  0  0
 18 19  2  0  0  0
 18107  1  0  0  0
 19 20  1  0  0  0
 19 24  1  0  0  0
 20 21  2  0  0  0
 20108  1  0  0  0
 21 23  1  0  0  0
 22 28  1  0  0  0
 22 32  2  0  0  0
 26 27  1  0  0  0
 28109  1  0  0  0
 28110  1  0  0  0
 29111  1  0  0  0
 29112  1  0  0  0
 33 34  1  0  0  0
 33 66  1  0  0  0
 33 70  2  0  0  0
 34 36  1  0  0  0
 34 59  1  0  0  0
 34113  1  0  0  0
 35 44  2  0  0  0
 35 45  1  0  0  0
 35 68  1  0  0  0
 36 56  1  0  0  0
 36114  1  0  0  0
 37 39  1  0  0  0
 37 47  1  0  0  0
 37 66  1  0  0  0
 37115  1  0  0  0
 38 43  2  0  0  0
 38 46  1  0  0  0
 38 47  1  0  0  0
 39 64  1  0  0  0
 39 67  2  0  0  0
 40 52  1  0  0  0
 40 53  2  0  0  0
 40 58  1  0  0  0
 41116  1  0  0  0
 41117  1  0  0  0
 41118  1  0  0  0
 41 48  1  0  0  0
 42 43  1  0  0  0
 42 66  1  0  0  0
 42119  1  0  0  0
 42120  1  0  0  0
 43 44  1  0  0  0
 44121  1  0  0  0
 45 46  2  0  0  0
 45122  1  0  0  0
 46123  1  0  0  0
 47124  1  0  0  0
 47125  1  0  0  0
 48 56  1  0  0  0
 48 65  1  0  0  0
 48126  1  0  0  0
 49 50  1  0  0  0
 49 53  1  0  0  0
 49 64  1  0  0  0
 49127  1  0  0  0
 50 51  1  0  0  0
 50128  1  0  0  0
 50129  1  0  0  0
 51 52  1  0  0  0
 51130  1  0  0  0
 51131  1  0  0  0
 52132  1  0  0  0
 52133  1  0  0  0
 53 54  1  0  0  0
 54 55  2  0  0  0
 54134  1  0  0  0
 55 57  1  0  0  0
 55135  1  0  0  0
 56 69  2  0  0  0
 57 58  2  0  0  0
 57136  1  0  0  0
 58137  1  0  0  0
 59 60  1  0  0  0
 59 61  1  0  0  0
 59 62  1  0  0  0
 60138  1  0  0  0
 60139  1  0  0  0
 60140  1  0  0  0
 61141  1  0  0  0
 61142  1  0  0  0
 61143  1  0  0  0
 62144  1  0  0  0
 62145  1  0  0  0
 62146  1  0  0  0
 63 65  1  0  0  0
 63147  1  0  0  0
 63148  1  0  0  0
 63149  1  0  0  0
 64150  1  0  0  0
 65151  1  0  0  0
 68 86  1  0  0  0
 71 72  2  0  0  0
 71 74  1  0  0  0
 71152  1  0  0  0
 72 75  1  0  0  0
 72153  1  0  0  0
 73 74  2  0  0  0
 73 76  1  0  0  0
 73154  1  0  0  0
 74 89  1  0  0  0
 75 76  2  0  0  0
 75 88  1  0  0  0
 76 92  1  0  0  0
 77 79  2  0  0  0
 77 83  1  0  0  0
 77 91  1  0  0  0
 78 80  2  0  0  0
 78155  1  0  0  0
 78156  1  0  0  0
 79 82  1  0  0  0
 79157  1  0  0  0
 80 81  1  0  0  0
 80158  1  0  0  0
 81 82  2  0  0  0
 81159  1  0  0  0
 82 87  1  0  0  0
 83 84  1  0  0  0
 83160  1  0  0  0
 83161  1  0  0  0
 84 86  1  0  0  0
 84162  1  0  0  0
 84163  1  0  0  0
 85 86  1  0  0  0
 85 91  1  0  0  0
 85164  1  0  0  0
 85165  1  0  0  0
 86166  1  0  0  0
 87167  1  0  0  0
 87168  1  0  0  0
 87169  1  0  0  0
 88 90  1  0  0  0
 88170  1  0  0  0
 88171  1  0  0  0
 89172  1  0  0  0
 89173  1  0  0  0
 89 91  1  0  0  0
 90174  1  0  0  0
 91175  1  0  0  0
M  CHG  1  91   1
M  ISO  4   1 100  68 101  86 101  90 100
M  END
> <chiral flag>
0

> <version>
0

> <s_m_source_file>
/data/baiqing/PycharmProjects/Reinvent-master-3.2/result/LINK_invent/BTK/process_docking_weight1_custom_product_contain_oxygen_bond_distance_aromatic_linkinvent_7_9_3/rearranged_h_0032.sdf

> <i_m_source_file_index>
83

> <r_mmod_Potential_Energy-OPLS-2005>
20770.75

> <r_mmod_Stretch_Energy-OPLS-2005>
11930.888671875

> <r_mmod_Bend_Energy-OPLS-2005>
1388.23291015625

> <r_mmod_Torsional_Energy-OPLS-2005>
556.224609375

> <r_mmod_Improper_Torsional_Energy-OPLS-2005>
46.5666885375977

> <r_mmod_Van_der_Waal_Energy-OPLS-2005>
3659.85595703125

> <r_mmod_Electrostatic_Energy-OPLS-2005>
-311.530181884766

> <r_mmod_Solvation_Energy-OPLS-2005>
-417.369567871094

> <b_mmod_Minimization_Converged-OPLS-2005>
0

> <r_mmod_RMS_Derivative-OPLS-2005>
26.0051116943359

$$$$
83
                    3D
 Structure written by MMmdl.
159168  0  0  1  0            999 V2000
  -30.6349  -14.7528   20.4096 C   0  0  0  0  0  0
  -30.4266  -12.4517   19.4771 C   0  0  0  0  0  0
  -29.5078  -12.4883   18.2360 C   0  0  0  0  0  0
  -28.0393  -12.2948   18.6571 C   0  0  0  0  0  0
  -27.6329  -13.2173   19.8365 C   0  0  2  0  0  0
  -28.6791  -13.2115   20.9694 C   0  0  0  0  0  0
  -25.2511  -13.8152   20.5684 C   0  0  0  0  0  0
  -24.1801  -13.0425   20.9193 C   0  0  0  0  0  0
  -24.6365  -11.6895   20.8748 C   0  0  0  0  0  0
  -23.9050  -10.4282   21.0418 C   0  0  0  0  0  0
  -24.3610   -9.4195   21.9186 C   0  0  0  0  0  0
  -23.6284   -8.2233   22.0751 C   0  0  0  0  0  0
  -22.4267   -8.0273   21.3541 C   0  0  0  0  0  0
  -21.9902   -9.0247   20.4648 C   0  0  0  0  0  0
  -22.7229  -10.2120   20.3061 C   0  0  0  0  0  0
  -21.6845   -6.0733   22.5275 C   0  0  0  0  0  0
  -21.4014   -6.5638   23.8210 C   0  0  0  0  0  0
  -21.3658   -5.6792   24.9175 C   0  0  0  0  0  0
  -21.6042   -4.3053   24.7230 C   0  0  0  0  0  0
  -21.8822   -3.8145   23.4353 C   0  0  0  0  0  0
  -21.9196   -4.6966   22.3406 C   0  0  0  0  0  0
  -22.7825  -13.5218   21.1867 C   0  0  0  0  0  0
  -22.1663   -4.2146   21.0985 F   0  0  0  0  0  0
  -21.5628   -3.4542   25.7746 F   0  0  0  0  0  0
  -29.9842  -13.5371   20.3838 N   0  0  0  0  0  0
  -26.2902  -12.9326   20.3246 N   0  0  0  0  0  0
  -25.9287  -11.6488   20.5750 N   0  0  0  0  0  0
  -22.0477  -12.8201   22.0416 N   0  0  0  0  0  0
  -25.4259  -15.1875   20.4092 N   0  0  0  0  0  0
  -31.8519  -14.7727   20.2157 O   0  0  0  0  0  0
  -21.6628   -6.8874   21.4233 O   0  0  0  0  0  0
  -22.3521  -14.5534   20.6732 O   0  0  0  0  0  0
  -24.6309  -31.8564   23.2016 C   0  0  0  0  0  0
  -25.9139  -32.4756   23.8354 C   0  0  1  0  0  0
  -27.2039  -27.2508   20.1327 C   0  0  0  0  0  0
  -25.5937  -33.8559   24.2262 N   0  0  0  0  0  0
  -23.4280  -30.4819   21.5449 C   0  0  2  0  0  0
  -24.8744  -28.9297   20.1155 C   0  0  0  0  0  0
  -22.7507  -29.4614   22.4907 C   0  0  0  0  0  0
  -18.0318  -28.1403   22.8492 C   0  0  0  0  0  0
  -24.1492  -36.7284   23.2639 C   0  0  0  0  0  0
  -25.9773  -30.7603   21.3923 C   0  0  0  0  0  0
  -26.0465  -29.3815   20.7379 C   0  0  0  0  0  0
  -27.2160  -28.5508   20.7462 C   0  0  0  0  0  0
  -26.0258  -26.8942   19.4490 C   0  0  0  0  0  0
  -24.8681  -27.6906   19.4621 C   0  0  0  0  0  0
  -23.6482  -29.8189   20.1608 C   0  0  0  0  0  0
  -25.4122  -36.3069   24.0318 C   0  0  1  0  0  0
  -20.5927  -28.3710   23.1295 C   0  0  2  0  0  0
  -20.6807  -26.9410   22.5483 C   0  0  0  0  0  0
  -19.5825  -26.6447   21.5236 C   0  0  0  0  0  0
  -18.1977  -26.7966   22.1606 C   0  0  0  0  0  0
  -19.1571  -28.8876   23.2886 C   0  0  0  0  0  0
  -18.9481  -30.1488   23.8891 C   0  0  0  0  0  0
  -17.6468  -30.6598   24.0561 C   0  0  0  0  0  0
  -25.9062  -34.9440   23.5092 C   0  0  0  0  0  0
  -16.5370  -29.9078   23.6333 C   0  0  0  0  0  0
  -16.7301  -28.6499   23.0353 C   0  0  0  0  0  0
  -26.4504  -31.6589   25.0747 C   0  0  0  0  0  0
  -25.3717  -31.3747   26.1457 C   0  0  0  0  0  0
  -27.0358  -30.2994   24.6278 C   0  0  0  0  0  0
  -27.6051  -32.4341   25.7512 C   0  0  0  0  0  0
  -27.5580  -37.1804   24.8464 C   0  0  0  0  0  0
  -21.4221  -29.3029   22.3633 N   0  0  0  0  0  0
  -26.4303  -37.3763   23.9394 N   0  0  0  0  0  0
  -24.6976  -31.0515   22.1010 N   0  0  0  0  0  0
  -23.4208  -28.8165   23.3016 O   0  0  0  0  0  0
  -28.2758  -26.3289   20.1011 O   0  0  0  0  0  0
  -26.5632  -34.8911   22.4660 O   0  0  0  0  0  0
  -23.5457  -32.1404   23.7303 O   0  0  0  0  0  0
  -26.7665  -22.0199   19.1241 C   0  0  0  0  0  0
  -27.5837  -20.9427   19.5159 C   0  0  0  0  0  0
  -27.0462  -23.3422   19.5229 C   0  0  0  0  0  0
  -29.0059  -22.5278   20.6836 C   0  0  0  0  0  0
  -28.7391  -21.1401   20.3042 C   0  0  0  0  0  0
  -28.1702  -23.6691   20.3104 C   0  0  0  0  0  0
  -29.8401  -16.0382   20.2785 C   0  0  0  0  0  0
  -29.8746  -17.1560   21.0739 C   0  0  0  0  0  0
  -29.3035  -16.4874   18.9323 C   0  0  0  0  0  0
  -29.3041  -18.0426   18.9922 C   0  0  0  0  0  0
  -30.5195  -17.3779   22.4313 C   0  0  0  0  0  0
  -29.6280  -19.8778   20.7554 C   0  0  0  0  0  0
  -28.2950  -25.1605   20.9059 C   0  0  0  0  0  0
  -29.2229  -18.4169   20.4292 N   0  3  2  0  0  0
  -29.4451  -25.1834   21.6224 F   0  0  0  0  0  0
  -27.3074  -25.2374   21.8335 F   0  0  0  0  0  0
  -31.4689  -12.5580   19.1716 H   0  0  0  0  0  0
  -30.3604  -11.4859   19.9792 H   0  0  0  0  0  0
  -29.7988  -11.7129   17.5253 H   0  0  0  0  0  0
  -29.6243  -13.4404   17.7154 H   0  0  0  0  0  0
  -27.9211  -11.2514   18.9530 H   0  0  0  0  0  0
  -27.3716  -12.4459   17.8077 H   0  0  0  0  0  0
  -27.6044  -14.2180   19.4210 H   0  0  0  0  0  0
  -28.7156  -12.2377   21.4623 H   0  0  0  0  0  0
  -28.4124  -13.9390   21.7384 H   0  0  0  0  0  0
  -25.2764   -9.5655   22.4753 H   0  0  0  0  0  0
  -23.9988   -7.4620   22.7461 H   0  0  0  0  0  0
  -21.0838   -8.8767   19.8952 H   0  0  0  0  0  0
  -22.3699  -10.9652   19.6166 H   0  0  0  0  0  0
  -21.2000   -7.6143   23.9710 H   0  0  0  0  0  0
  -21.1470   -6.0524   25.9075 H   0  0  0  0  0  0
  -22.0601   -2.7606   23.2853 H   0  0  0  0  0  0
  -22.4087  -11.9838   22.4777 H   0  0  0  0  0  0
  -21.1097  -13.1218   22.2652 H   0  0  0  0  0  0
  -24.6539  -15.8390   20.4985 H   0  0  0  0  0  0
  -26.2756  -15.6162   20.0704 H   0  0  0  0  0  0
  -26.7204  -32.5419   23.1093 H   0  0  0  0  0  0
  -25.0065  -33.9700   25.0390 H   0  0  0  0  0  0
  -22.7245  -31.3052   21.4000 H   0  0  0  0  0  0
  -23.3749  -35.9623   23.3311 H   0  0  0  0  0  0
  -24.3581  -36.8902   22.2056 H   0  0  0  0  0  0
  -23.7262  -37.6491   23.6661 H   0  0  0  0  0  0
  -26.1276  -31.5204   20.6236 H   0  0  0  0  0  0
  -26.8503  -30.8034   22.0314 H   0  0  0  0  0  0
  -28.1150  -28.8894   21.2430 H   0  0  0  0  0  0
  -25.9842  -25.9895   18.8742 H   0  0  0  0  0  0
  -23.9802  -27.3487   18.9469 H   0  0  0  0  0  0
  -23.7769  -30.5958   19.4064 H   0  0  0  0  0  0
  -22.7643  -29.2561   19.8545 H   0  0  0  0  0  0
  -25.1310  -36.1923   25.0814 H   0  0  0  0  0  0
  -21.0025  -28.3332   24.1415 H   0  0  0  0  0  0
  -20.5595  -26.2326   23.3699 H   0  0  0  0  0  0
  -21.6688  -26.7355   22.1343 H   0  0  0  0  0  0
  -19.6980  -25.6379   21.1219 H   0  0  0  0  0  0
  -19.6832  -27.3302   20.6818 H   0  0  0  0  0  0
  -17.4277  -26.6766   21.3967 H   0  0  0  0  0  0
  -18.0343  -26.0074   22.8970 H   0  0  0  0  0  0
  -19.7945  -30.7334   24.2248 H   0  0  0  0  0  0
  -17.5008  -31.6297   24.5134 H   0  0  0  0  0  0
  -15.5371  -30.2965   23.7668 H   0  0  0  0  0  0
  -15.8707  -28.0805   22.7060 H   0  0  0  0  0  0
  -24.5890  -30.7093   25.7782 H   0  0  0  0  0  0
  -24.8902  -32.2917   26.4877 H   0  0  0  0  0  0
  -25.8026  -30.8933   27.0246 H   0  0  0  0  0  0
  -26.2959  -29.6727   24.1280 H   0  0  0  0  0  0
  -27.3975  -29.7281   25.4840 H   0  0  0  0  0  0
  -27.8873  -30.4228   23.9573 H   0  0  0  0  0  0
  -27.2646  -33.3640   26.2082 H   0  0  0  0  0  0
  -28.3861  -32.6916   25.0342 H   0  0  0  0  0  0
  -28.0719  -31.8481   26.5443 H   0  0  0  0  0  0
  -28.2607  -38.0092   24.7494 H   0  0  0  0  0  0
  -28.1071  -36.2624   24.6317 H   0  0  0  0  0  0
  -27.2290  -37.1480   25.8865 H   0  0  0  0  0  0
  -20.9411  -29.8691   21.6787 H   0  0  0  0  0  0
  -26.0184  -38.2840   24.1379 H   0  0  0  0  0  0
  -25.8777  -21.8234   18.5400 H   0  0  0  0  0  0
  -27.2700  -19.9581   19.2112 H   0  0  0  0  0  0
  -26.3261  -24.0923   19.2652 H   0  0  0  0  0  0
  -29.8569  -22.7198   21.3216 H   0  0  0  0  0  0
  -28.2879  -16.1290   18.7915 H   0  0  0  0  0  0
  -29.9105  -16.1184   18.1050 H   0  0  0  0  0  0
  -28.5108  -18.4625   18.3768 H   0  0  0  0  0  0
  -30.2465  -18.4139   18.5898 H   0  0  0  0  0  0
  -30.7462  -16.4240   22.9084 H   0  0  0  0  0  0
  -29.8580  -17.9323   23.0975 H   0  0  0  0  0  0
  -31.4551  -17.9270   22.3229 H   0  0  0  0  0  0
  -29.6927  -19.9503   21.8399 H   0  0  0  0  0  0
  -30.6456  -20.0370   20.3994 H   0  0  0  0  0  0
  -28.2451  -18.3854   20.6725 H   0  0  0  0  0  0
  1 25  1  0  0  0
  1 30  2  0  0  0
  1 77  1  0  0  0
  2  3  1  0  0  0
  2 25  1  0  0  0
  2 87  1  0  0  0
  2 88  1  0  0  0
  3  4  1  0  0  0
  3 89  1  0  0  0
  3 90  1  0  0  0
  4  5  1  0  0  0
  4 91  1  0  0  0
  4 92  1  0  0  0
  5  6  1  0  0  0
  5 26  1  0  0  0
  5 93  1  0  0  0
  6 25  1  0  0  0
  6 94  1  0  0  0
  6 95  1  0  0  0
  7  8  2  0  0  0
  7 26  1  0  0  0
  7 29  1  0  0  0
  8  9  1  0  0  0
  8 22  1  0  0  0
  9 10  1  0  0  0
  9 27  2  0  0  0
 10 11  2  0  0  0
 10 15  1  0  0  0
 11 12  1  0  0  0
 11 96  1  0  0  0
 12 13  2  0  0  0
 12 97  1  0  0  0
 13 14  1  0  0  0
 13 31  1  0  0  0
 14 15  2  0  0  0
 14 98  1  0  0  0
 15 99  1  0  0  0
 16 17  2  0  0  0
 16 21  1  0  0  0
 16 31  1  0  0  0
 17 18  1  0  0  0
 17100  1  0  0  0
 18 19  2  0  0  0
 18101  1  0  0  0
 19 20  1  0  0  0
 19 24  1  0  0  0
 20 21  2  0  0  0
 20102  1  0  0  0
 21 23  1  0  0  0
 22 28  1  0  0  0
 22 32  2  0  0  0
 26 27  1  0  0  0
 28103  1  0  0  0
 28104  1  0  0  0
 29105  1  0  0  0
 29106  1  0  0  0
 33 34  1  0  0  0
 33 66  1  0  0  0
 33 70  2  0  0  0
 34 36  1  0  0  0
 34 59  1  0  0  0
 34107  1  0  0  0
 35 44  2  0  0  0
 35 45  1  0  0  0
 35 68  1  0  0  0
 36 56  1  0  0  0
 36108  1  0  0  0
 37 39  1  0  0  0
 37 47  1  0  0  0
 37 66  1  0  0  0
 37109  1  0  0  0
 38 43  2  0  0  0
 38 46  1  0  0  0
 38 47  1  0  0  0
 39 64  1  0  0  0
 39 67  2  0  0  0
 40 52  1  0  0  0
 40 53  2  0  0  0
 40 58  1  0  0  0
 41110  1  0  0  0
 41111  1  0  0  0
 41112  1  0  0  0
 41 48  1  0  0  0
 42 43  1  0  0  0
 42 66  1  0  0  0
 42113  1  0  0  0
 42114  1  0  0  0
 43 44  1  0  0  0
 44115  1  0  0  0
 45 46  2  0  0  0
 45116  1  0  0  0
 46117  1  0  0  0
 47118  1  0  0  0
 47119  1  0  0  0
 48 56  1  0  0  0
 48 65  1  0  0  0
 48120  1  0  0  0
 49 50  1  0  0  0
 49 53  1  0  0  0
 49 64  1  0  0  0
 49121  1  0  0  0
 50 51  1  0  0  0
 50122  1  0  0  0
 50123  1  0  0  0
 51 52  1  0  0  0
 51124  1  0  0  0
 51125  1  0  0  0
 52126  1  0  0  0
 52127  1  0  0  0
 53 54  1  0  0  0
 54 55  2  0  0  0
 54128  1  0  0  0
 55 57  1  0  0  0
 55129  1  0  0  0
 56 69  2  0  0  0
 57 58  2  0  0  0
 57130  1  0  0  0
 58131  1  0  0  0
 59 60  1  0  0  0
 59 61  1  0  0  0
 59 62  1  0  0  0
 60132  1  0  0  0
 60133  1  0  0  0
 60134  1  0  0  0
 61135  1  0  0  0
 61136  1  0  0  0
 61137  1  0  0  0
 62138  1  0  0  0
 62139  1  0  0  0
 62140  1  0  0  0
 63 65  1  0  0  0
 63141  1  0  0  0
 63142  1  0  0  0
 63143  1  0  0  0
 64144  1  0  0  0
 65145  1  0  0  0
 68 83  1  0  0  0
 71 72  2  0  0  0
 71 73  1  0  0  0
 71146  1  0  0  0
 72 75  1  0  0  0
 72147  1  0  0  0
 73 76  2  0  0  0
 73148  1  0  0  0
 74 75  2  0  0  0
 74 76  1  0  0  0
 74149  1  0  0  0
 75 82  1  0  0  0
 76 83  1  0  0  0
 77 78  2  0  0  0
 77 79  1  0  0  0
 78 81  1  0  0  0
 78 84  1  0  0  0
 79 80  1  0  0  0
 79150  1  0  0  0
 79151  1  0  0  0
 80 84  1  0  0  0
 80152  1  0  0  0
 80153  1  0  0  0
 81154  1  0  0  0
 81155  1  0  0  0
 81156  1  0  0  0
 82157  1  0  0  0
 82158  1  0  0  0
 82 84  1  0  0  0
 83 85  1  0  0  0
 83 86  1  0  0  0
 84159  1  0  0  0
M  CHG  1  84   1
M  ISO  4   1 100  68 101  77 100  83 101
M  END
> <chiral flag>
0

> <version>
0

> <s_m_source_file>
/data/baiqing/PycharmProjects/Reinvent-master-3.2/result/LINK_invent/BTK/process_docking_weight1_custom_product_contain_oxygen_bond_distance_aromatic_linkinvent_7_9_3/rearranged_h_0032.sdf

> <i_m_source_file_index>
84

> <r_mmod_Potential_Energy-OPLS-2005>
249.564697265625

> <r_mmod_Stretch_Energy-OPLS-2005>
125.801139831543

> <r_mmod_Bend_Energy-OPLS-2005>
238.68537902832

> <r_mmod_Torsional_Energy-OPLS-2005>
259.680114746094

> <r_mmod_Improper_Torsional_Energy-OPLS-2005>
12.1870374679565

> <r_mmod_Van_der_Waal_Energy-OPLS-2005>
129.562957763672

> <r_mmod_Electrostatic_Energy-OPLS-2005>
-176.722579956055

> <r_mmod_Solvation_Energy-OPLS-2005>
-436.052612304688

> <b_mmod_Minimization_Converged-OPLS-2005>
0

> <r_mmod_RMS_Derivative-OPLS-2005>
2.4289379119873

$$$$
84
                    3D
 Structure written by MMmdl.
161170  0  0  1  0            999 V2000
  -30.6329  -14.6516   20.4900 C   0  0  0  0  0  0
  -30.4287  -12.3902   19.4589 C   0  0  0  0  0  0
  -29.5010  -12.5017   18.2286 C   0  0  0  0  0  0
  -28.0293  -12.3320   18.6463 C   0  0  0  0  0  0
  -27.6525  -13.2168   19.8632 C   0  0  2  0  0  0
  -28.6973  -13.0908   20.9963 C   0  0  0  0  0  0
  -25.2539  -13.8177   20.5651 C   0  0  0  0  0  0
  -24.1802  -13.0430   20.9143 C   0  0  0  0  0  0
  -24.6383  -11.6908   20.8743 C   0  0  0  0  0  0
  -23.9060  -10.4288   21.0419 C   0  0  0  0  0  0
  -24.3613   -9.4202   21.9186 C   0  0  0  0  0  0
  -23.6288   -8.2242   22.0776 C   0  0  0  0  0  0
  -22.4263   -8.0288   21.3572 C   0  0  0  0  0  0
  -21.9908   -9.0249   20.4661 C   0  0  0  0  0  0
  -22.7244  -10.2120   20.3066 C   0  0  0  0  0  0
  -21.6848   -6.0724   22.5295 C   0  0  0  0  0  0
  -21.4014   -6.5634   23.8217 C   0  0  0  0  0  0
  -21.3662   -5.6794   24.9182 C   0  0  0  0  0  0
  -21.6044   -4.3056   24.7244 C   0  0  0  0  0  0
  -21.8810   -3.8142   23.4360 C   0  0  0  0  0  0
  -21.9182   -4.6954   22.3415 C   0  0  0  0  0  0
  -22.7827  -13.5237   21.1795 C   0  0  0  0  0  0
  -22.1649   -4.2131   21.0995 F   0  0  0  0  0  0
  -21.5623   -3.4551   25.7757 F   0  0  0  0  0  0
  -30.0166  -13.4247   20.4328 N   0  0  0  0  0  0
  -26.2988  -12.9356   20.3332 N   0  0  0  0  0  0
  -25.9318  -11.6512   20.5790 N   0  0  0  0  0  0
  -22.0477  -12.8257   22.0378 N   0  0  0  0  0  0
  -25.4218  -15.1904   20.4058 N   0  0  0  0  0  0
  -31.7780  -14.8092   20.0562 O   0  0  0  0  0  0
  -21.6644   -6.8871   21.4257 O   0  0  0  0  0  0
  -22.3511  -14.5528   20.6615 O   0  0  0  0  0  0
  -24.6274  -31.8620   23.2080 C   0  0  0  0  0  0
  -25.9128  -32.4803   23.8366 C   0  0  1  0  0  0
  -27.2084  -27.3050   20.1044 C   0  0  0  0  0  0
  -25.5977  -33.8613   24.2316 N   0  0  0  0  0  0
  -23.4198  -30.4931   21.5481 C   0  0  2  0  0  0
  -24.8634  -28.9514   20.1134 C   0  0  0  0  0  0
  -22.7460  -29.4657   22.4895 C   0  0  0  0  0  0
  -18.0296  -28.1386   22.8428 C   0  0  0  0  0  0
  -24.1546  -36.7334   23.2631 C   0  0  0  0  0  0
  -25.9659  -30.7815   21.3859 C   0  0  0  0  0  0
  -26.0332  -29.4096   20.7295 C   0  0  0  0  0  0
  -27.2082  -28.5963   20.7228 C   0  0  0  0  0  0
  -26.0281  -26.9301   19.4298 C   0  0  0  0  0  0
  -24.8632  -27.7157   19.4534 C   0  0  0  0  0  0
  -23.6389  -29.8428   20.1596 C   0  0  0  0  0  0
  -25.4149  -36.3116   24.0348 C   0  0  1  0  0  0
  -20.5893  -28.3716   23.1261 C   0  0  2  0  0  0
  -20.6858  -26.9457   22.5392 C   0  0  0  0  0  0
  -19.5844  -26.6368   21.5215 C   0  0  0  0  0  0
  -18.1990  -26.7910   22.1583 C   0  0  0  0  0  0
  -19.1543  -28.8845   23.2840 C   0  0  0  0  0  0
  -18.9477  -30.1416   23.8900 C   0  0  0  0  0  0
  -17.6498  -30.6578   24.0560 C   0  0  0  0  0  0
  -25.9067  -34.9479   23.5120 C   0  0  0  0  0  0
  -16.5383  -29.9091   23.6322 C   0  0  0  0  0  0
  -16.7281  -28.6523   23.0299 C   0  0  0  0  0  0
  -26.4505  -31.6566   25.0710 C   0  0  0  0  0  0
  -25.3712  -31.3687   26.1416 C   0  0  0  0  0  0
  -27.0336  -30.3006   24.6073 C   0  0  0  0  0  0
  -27.6079  -32.4274   25.7479 C   0  0  0  0  0  0
  -27.5617  -37.1822   24.8451 C   0  0  0  0  0  0
  -21.4181  -29.3095   22.3654 N   0  0  0  0  0  0
  -26.4326  -37.3797   23.9401 N   0  0  0  0  0  0
  -24.6909  -31.0589   22.1061 N   0  0  0  0  0  0
  -23.4194  -28.8169   23.2954 O   0  0  0  0  0  0
  -28.3213  -26.4434   20.1016 O   0  0  0  0  0  0
  -26.5587  -34.8928   22.4658 O   0  0  0  0  0  0
  -23.5427  -32.1433   23.7386 O   0  0  0  0  0  0
  -30.3096  -19.1476   19.3073 C   0  0  0  0  0  0
  -30.3284  -17.7373   19.5141 C   0  0  0  0  0  0
  -29.9667  -20.0771   20.3290 C   0  0  0  0  0  0
  -29.6317  -19.5082   21.5915 C   0  0  0  0  0  0
  -29.6019  -18.0777   21.7918 C   0  0  0  0  0  0
  -29.9764  -17.1558   20.7579 C   0  0  0  0  0  0
  -27.8925  -22.6749   19.6328 C   0  0  0  0  0  0
  -27.3062  -24.0867   19.4966 C   0  0  0  0  0  0
  -29.4501  -24.1081   20.5322 C   0  0  0  0  0  0
  -28.1490  -24.9917   20.4213 C   0  0  1  0  0  0
  -29.3541  -20.4616   22.7531 C   0  0  0  0  0  0
  -29.1897  -17.5342   23.1583 C   0  0  0  0  0  0
  -30.1704  -21.6278   20.0715 C   0  0  0  0  0  0
  -29.1033  -22.6884   20.2086 N   0  0  0  0  0  0
  -29.8792  -15.7009   20.9508 N   0  0  0  0  0  0
  -27.3128  -21.6794   19.1897 O   0  0  0  0  0  0
  -31.4726  -12.4960   19.1609 H   0  0  0  0  0  0
  -30.3471  -11.3972   19.9038 H   0  0  0  0  0  0
  -29.7641  -11.7501   17.4840 H   0  0  0  0  0  0
  -29.6370  -13.4697   17.7441 H   0  0  0  0  0  0
  -27.8773  -11.2817   18.8960 H   0  0  0  0  0  0
  -27.3679  -12.5410   17.8050 H   0  0  0  0  0  0
  -27.6656  -14.2476   19.5079 H   0  0  0  0  0  0
  -28.7052  -12.0765   21.3988 H   0  0  0  0  0  0
  -28.4358  -13.7406   21.8335 H   0  0  0  0  0  0
  -25.2753   -9.5666   22.4769 H   0  0  0  0  0  0
  -23.9975   -7.4645   22.7522 H   0  0  0  0  0  0
  -21.0823   -8.8773   19.8984 H   0  0  0  0  0  0
  -22.3700  -10.9658   19.6181 H   0  0  0  0  0  0
  -21.2025   -7.6147   23.9718 H   0  0  0  0  0  0
  -21.1488   -6.0531   25.9077 H   0  0  0  0  0  0
  -22.0584   -2.7606   23.2881 H   0  0  0  0  0  0
  -22.4098  -11.9934   22.4797 H   0  0  0  0  0  0
  -21.1124  -13.1346   22.2621 H   0  0  0  0  0  0
  -24.6421  -15.8351   20.4793 H   0  0  0  0  0  0
  -26.2805  -15.6451   20.1222 H   0  0  0  0  0  0
  -26.7174  -32.5457   23.1074 H   0  0  0  0  0  0
  -25.0263  -33.9797   25.0535 H   0  0  0  0  0  0
  -22.7172  -31.3171   21.4079 H   0  0  0  0  0  0
  -23.3833  -35.9644   23.3249 H   0  0  0  0  0  0
  -24.3658  -36.8979   22.2056 H   0  0  0  0  0  0
  -23.7302  -37.6530   23.6661 H   0  0  0  0  0  0
  -26.0948  -31.5389   20.6151 H   0  0  0  0  0  0
  -26.8520  -30.8346   22.0059 H   0  0  0  0  0  0
  -28.1060  -28.9404   21.2194 H   0  0  0  0  0  0
  -25.9788  -26.0381   18.8317 H   0  0  0  0  0  0
  -23.9805  -27.3761   18.9315 H   0  0  0  0  0  0
  -23.7828  -30.6345   19.4247 H   0  0  0  0  0  0
  -22.7541  -29.2957   19.8309 H   0  0  0  0  0  0
  -25.1333  -36.1988   25.0845 H   0  0  0  0  0  0
  -20.9940  -28.3313   24.1397 H   0  0  0  0  0  0
  -20.5907  -26.2312   23.3583 H   0  0  0  0  0  0
  -21.6712  -26.7591   22.1100 H   0  0  0  0  0  0
  -19.7096  -25.6267   21.1282 H   0  0  0  0  0  0
  -19.6839  -27.3132   20.6717 H   0  0  0  0  0  0
  -17.4296  -26.6623   21.3949 H   0  0  0  0  0  0
  -18.0379  -26.0031   22.8965 H   0  0  0  0  0  0
  -19.7952  -30.7190   24.2307 H   0  0  0  0  0  0
  -17.5067  -31.6274   24.5145 H   0  0  0  0  0  0
  -15.5388  -30.3044   23.7617 H   0  0  0  0  0  0
  -15.8665  -28.0885   22.7010 H   0  0  0  0  0  0
  -24.5958  -30.6969   25.7719 H   0  0  0  0  0  0
  -24.8817  -32.2830   26.4740 H   0  0  0  0  0  0
  -25.7988  -30.8934   27.0239 H   0  0  0  0  0  0
  -26.2856  -29.6772   24.1144 H   0  0  0  0  0  0
  -27.4170  -29.7239   25.4496 H   0  0  0  0  0  0
  -27.8673  -30.4376   23.9200 H   0  0  0  0  0  0
  -27.2736  -33.3608   26.1992 H   0  0  0  0  0  0
  -28.3887  -32.6720   25.0289 H   0  0  0  0  0  0
  -28.0707  -31.8413   26.5423 H   0  0  0  0  0  0
  -28.2552  -38.0191   24.7522 H   0  0  0  0  0  0
  -28.1202  -36.2703   24.6238 H   0  0  0  0  0  0
  -27.2327  -37.1400   25.8850 H   0  0  0  0  0  0
  -20.9342  -29.8867   21.6919 H   0  0  0  0  0  0
  -26.0247  -38.2890   24.1360 H   0  0  0  0  0  0
  -30.6092  -19.5210   18.3374 H   0  0  0  0  0  0
  -30.6052  -17.1014   18.6855 H   0  0  0  0  0  0
  -26.2487  -24.0873   19.7639 H   0  0  0  0  0  0
  -27.4092  -24.3833   18.4533 H   0  0  0  0  0  0
  -29.8871  -24.1854   21.5294 H   0  0  0  0  0  0
  -30.1983  -24.4540   19.8184 H   0  0  0  0  0  0
  -27.6732  -24.9609   21.4016 H   0  0  0  0  0  0
  -29.9904  -21.3435   22.7021 H   0  0  0  0  0  0
  -29.5617  -20.0215   23.7276 H   0  0  0  0  0  0
  -28.3162  -20.7980   22.7406 H   0  0  0  0  0  0
  -28.2728  -18.0139   23.5022 H   0  0  0  0  0  0
  -29.9776  -17.7365   23.8854 H   0  0  0  0  0  0
  -29.0039  -16.4630   23.1750 H   0  0  0  0  0  0
  -30.5717  -21.7469   19.0631 H   0  0  0  0  0  0
  -30.9983  -21.9300   20.7136 H   0  0  0  0  0  0
  -29.0546  -15.4037   21.4502 H   0  0  0  0  0  0
  1 25  1  0  0  0
  1 30  2  0  0  0
  1 85  1  0  0  0
  2  3  1  0  0  0
  2 25  1  0  0  0
  2 87  1  0  0  0
  2 88  1  0  0  0
  3  4  1  0  0  0
  3 89  1  0  0  0
  3 90  1  0  0  0
  4  5  1  0  0  0
  4 91  1  0  0  0
  4 92  1  0  0  0
  5  6  1  0  0  0
  5 26  1  0  0  0
  5 93  1  0  0  0
  6 25  1  0  0  0
  6 94  1  0  0  0
  6 95  1  0  0  0
  7  8  2  0  0  0
  7 26  1  0  0  0
  7 29  1  0  0  0
  8  9  1  0  0  0
  8 22  1  0  0  0
  9 10  1  0  0  0
  9 27  2  0  0  0
 10 11  2  0  0  0
 10 15  1  0  0  0
 11 12  1  0  0  0
 11 96  1  0  0  0
 12 13  2  0  0  0
 12 97  1  0  0  0
 13 14  1  0  0  0
 13 31  1  0  0  0
 14 15  2  0  0  0
 14 98  1  0  0  0
 15 99  1  0  0  0
 16 17  2  0  0  0
 16 21  1  0  0  0
 16 31  1  0  0  0
 17 18  1  0  0  0
 17100  1  0  0  0
 18 19  2  0  0  0
 18101  1  0  0  0
 19 20  1  0  0  0
 19 24  1  0  0  0
 20 21  2  0  0  0
 20102  1  0  0  0
 21 23  1  0  0  0
 22 28  1  0  0  0
 22 32  2  0  0  0
 26 27  1  0  0  0
 28103  1  0  0  0
 28104  1  0  0  0
 29105  1  0  0  0
 29106  1  0  0  0
 33 34  1  0  0  0
 33 66  1  0  0  0
 33 70  2  0  0  0
 34 36  1  0  0  0
 34 59  1  0  0  0
 34107  1  0  0  0
 35 44  2  0  0  0
 35 45  1  0  0  0
 35 68  1  0  0  0
 36 56  1  0  0  0
 36108  1  0  0  0
 37 39  1  0  0  0
 37 47  1  0  0  0
 37 66  1  0  0  0
 37109  1  0  0  0
 38 43  2  0  0  0
 38 46  1  0  0  0
 38 47  1  0  0  0
 39 64  1  0  0  0
 39 67  2  0  0  0
 40 52  1  0  0  0
 40 53  2  0  0  0
 40 58  1  0  0  0
 41110  1  0  0  0
 41111  1  0  0  0
 41112  1  0  0  0
 41 48  1  0  0  0
 42 43  1  0  0  0
 42 66  1  0  0  0
 42113  1  0  0  0
 42114  1  0  0  0
 43 44  1  0  0  0
 44115  1  0  0  0
 45 46  2  0  0  0
 45116  1  0  0  0
 46117  1  0  0  0
 47118  1  0  0  0
 47119  1  0  0  0
 48 56  1  0  0  0
 48 65  1  0  0  0
 48120  1  0  0  0
 49 50  1  0  0  0
 49 53  1  0  0  0
 49 64  1  0  0  0
 49121  1  0  0  0
 50 51  1  0  0  0
 50122  1  0  0  0
 50123  1  0  0  0
 51 52  1  0  0  0
 51124  1  0  0  0
 51125  1  0  0  0
 52126  1  0  0  0
 52127  1  0  0  0
 53 54  1  0  0  0
 54 55  2  0  0  0
 54128  1  0  0  0
 55 57  1  0  0  0
 55129  1  0  0  0
 56 69  2  0  0  0
 57 58  2  0  0  0
 57130  1  0  0  0
 58131  1  0  0  0
 59 60  1  0  0  0
 59 61  1  0  0  0
 59 62  1  0  0  0
 60132  1  0  0  0
 60133  1  0  0  0
 60134  1  0  0  0
 61135  1  0  0  0
 61136  1  0  0  0
 61137  1  0  0  0
 62138  1  0  0  0
 62139  1  0  0  0
 62140  1  0  0  0
 63 65  1  0  0  0
 63141  1  0  0  0
 63142  1  0  0  0
 63143  1  0  0  0
 64144  1  0  0  0
 65145  1  0  0  0
 68 80  1  0  0  0
 71 72  2  0  0  0
 71 73  1  0  0  0
 71146  1  0  0  0
 72 76  1  0  0  0
 72147  1  0  0  0
 73 74  2  0  0  0
 73 83  1  0  0  0
 74 75  1  0  0  0
 74 81  1  0  0  0
 75 76  2  0  0  0
 75 82  1  0  0  0
 76 85  1  0  0  0
 77 78  1  0  0  0
 77 84  1  0  0  0
 77 86  2  0  0  0
 78 80  1  0  0  0
 78148  1  0  0  0
 78149  1  0  0  0
 79 80  1  0  0  0
 79 84  1  0  0  0
 79150  1  0  0  0
 79151  1  0  0  0
 80152  1  0  0  0
 81153  1  0  0  0
 81154  1  0  0  0
 81155  1  0  0  0
 82156  1  0  0  0
 82157  1  0  0  0
 82158  1  0  0  0
 83 84  1  0  0  0
 83159  1  0  0  0
 83160  1  0  0  0
 85161  1  0  0  0
M  ISO  4   1 100  68 101  80 101  85 100
M  END
> <chiral flag>
0

> <version>
0

> <s_m_source_file>
/data/baiqing/PycharmProjects/Reinvent-master-3.2/result/LINK_invent/BTK/process_docking_weight1_custom_product_contain_oxygen_bond_distance_aromatic_linkinvent_7_9_3/rearranged_h_0032.sdf

> <i_m_source_file_index>
85

> <r_mmod_Potential_Energy-OPLS-2005>
83.3066558837891

> <r_mmod_Stretch_Energy-OPLS-2005>
88.8563003540039

> <r_mmod_Bend_Energy-OPLS-2005>
180.54328918457

> <r_mmod_Torsional_Energy-OPLS-2005>
263.188537597656

> <r_mmod_Improper_Torsional_Energy-OPLS-2005>
5.6870379447937

> <r_mmod_Van_der_Waal_Energy-OPLS-2005>
143.831680297852

> <r_mmod_Electrostatic_Energy-OPLS-2005>
-419.232147216797

> <r_mmod_Solvation_Energy-OPLS-2005>
-232.708633422852

> <b_mmod_Minimization_Converged-OPLS-2005>
0

> <r_mmod_RMS_Derivative-OPLS-2005>
4.5093994140625

$$$$
85
                    3D
 Structure written by MMmdl.
161170  0  0  1  0            999 V2000
  -30.7101  -14.4450   20.6246 C   0  0  0  0  0  0
  -30.4194  -12.3085   19.4237 C   0  0  0  0  0  0
  -29.4900  -12.5037   18.2082 C   0  0  0  0  0  0
  -28.0120  -12.3593   18.6157 C   0  0  0  0  0  0
  -27.6556  -13.2006   19.8697 C   0  0  2  0  0  0
  -28.6894  -12.9797   20.9940 C   0  0  0  0  0  0
  -25.2561  -13.8157   20.5651 C   0  0  0  0  0  0
  -24.1786  -13.0454   20.9135 C   0  0  0  0  0  0
  -24.6322  -11.6913   20.8691 C   0  0  0  0  0  0
  -23.8989  -10.4313   21.0399 C   0  0  0  0  0  0
  -24.3561   -9.4241   21.9181 C   0  0  0  0  0  0
  -23.6265   -8.2263   22.0748 C   0  0  0  0  0  0
  -22.4245   -8.0277   21.3533 C   0  0  0  0  0  0
  -21.9855   -9.0248   20.4635 C   0  0  0  0  0  0
  -22.7168  -10.2139   20.3056 C   0  0  0  0  0  0
  -21.6866   -6.0736   22.5288 C   0  0  0  0  0  0
  -21.4019   -6.5637   23.8219 C   0  0  0  0  0  0
  -21.3649   -5.6762   24.9166 C   0  0  0  0  0  0
  -21.6042   -4.3047   24.7220 C   0  0  0  0  0  0
  -21.8820   -3.8138   23.4327 C   0  0  0  0  0  0
  -21.9192   -4.6969   22.3391 C   0  0  0  0  0  0
  -22.7822  -13.5294   21.1808 C   0  0  0  0  0  0
  -22.1676   -4.2184   21.0966 F   0  0  0  0  0  0
  -21.5605   -3.4508   25.7717 F   0  0  0  0  0  0
  -30.0245  -13.2847   20.4495 N   0  0  0  0  0  0
  -26.2957  -12.9306   20.3279 N   0  0  0  0  0  0
  -25.9226  -11.6483   20.5662 N   0  0  0  0  0  0
  -22.0470  -12.8295   22.0368 N   0  0  0  0  0  0
  -25.4364  -15.1871   20.4134 N   0  0  0  0  0  0
  -31.8324  -14.6360   20.1482 O   0  0  0  0  0  0
  -21.6650   -6.8874   21.4237 O   0  0  0  0  0  0
  -22.3535  -14.5617   20.6679 O   0  0  0  0  0  0
  -24.6137  -31.8697   23.2132 C   0  0  0  0  0  0
  -25.9033  -32.4836   23.8437 C   0  0  1  0  0  0
  -27.2202  -27.4472   20.0979 C   0  0  0  0  0  0
  -25.5900  -33.8638   24.2370 N   0  0  0  0  0  0
  -23.3999  -30.4934   21.5531 C   0  0  2  0  0  0
  -24.8417  -28.9570   20.1201 C   0  0  0  0  0  0
  -22.7410  -29.4657   22.5004 C   0  0  0  0  0  0
  -18.0275  -28.1377   22.8500 C   0  0  0  0  0  0
  -24.1466  -36.7324   23.2637 C   0  0  0  0  0  0
  -25.9273  -30.8378   21.3643 C   0  0  0  0  0  0
  -26.0002  -29.4706   20.7165 C   0  0  0  0  0  0
  -27.1972  -28.7207   20.7029 C   0  0  0  0  0  0
  -26.0504  -26.9368   19.5038 C   0  0  0  0  0  0
  -24.8596  -27.6881   19.5130 C   0  0  0  0  0  0
  -23.6067  -29.8288   20.1661 C   0  0  0  0  0  0
  -25.4084  -36.3123   24.0345 C   0  0  1  0  0  0
  -20.5867  -28.3661   23.1330 C   0  0  2  0  0  0
  -20.6759  -26.9396   22.5425 C   0  0  0  0  0  0
  -19.5727  -26.6391   21.5226 C   0  0  0  0  0  0
  -18.1909  -26.7931   22.1628 C   0  0  0  0  0  0
  -19.1523  -28.8834   23.2916 C   0  0  0  0  0  0
  -18.9452  -30.1441   23.8930 C   0  0  0  0  0  0
  -17.6449  -30.6576   24.0574 C   0  0  0  0  0  0
  -25.9023  -34.9485   23.5150 C   0  0  0  0  0  0
  -16.5343  -29.9084   23.6325 C   0  0  0  0  0  0
  -16.7266  -28.6499   23.0358 C   0  0  0  0  0  0
  -26.4480  -31.6611   25.0754 C   0  0  0  0  0  0
  -25.3774  -31.3707   26.1533 C   0  0  0  0  0  0
  -27.0329  -30.3062   24.6124 C   0  0  0  0  0  0
  -27.6079  -32.4328   25.7487 C   0  0  0  0  0  0
  -27.5576  -37.1793   24.8455 C   0  0  0  0  0  0
  -21.4141  -29.3025   22.3741 N   0  0  0  0  0  0
  -26.4273  -37.3805   23.9423 N   0  0  0  0  0  0
  -24.6646  -31.0816   22.1026 N   0  0  0  0  0  0
  -23.4193  -28.8217   23.3047 O   0  0  0  0  0  0
  -28.3942  -26.7469   20.0164 O   0  0  0  0  0  0
  -26.5584  -34.8934   22.4710 O   0  0  0  0  0  0
  -23.5329  -32.1444   23.7538 O   0  0  0  0  0  0
  -29.5185  -19.7194   19.5357 C   0  0  0  0  0  0
  -29.0230  -18.6656   22.0873 C   0  0  0  0  0  0
  -28.7257  -20.4597   20.4407 C   0  0  0  0  0  0
  -29.8623  -17.9530   21.1988 C   0  0  0  0  0  0
  -28.4492  -19.9023   21.7129 C   0  0  0  0  0  0
  -30.0765  -18.4765   19.9010 C   0  0  0  0  0  0
  -29.9975  -23.1058   21.3165 C   0  0  0  0  0  0
  -30.3981  -24.3986   22.0273 C   0  0  0  0  0  0
  -30.0413  -25.6254   21.1991 C   0  0  0  0  0  0
  -28.0513  -24.2965   20.2964 C   0  0  0  0  0  0
  -28.5461  -25.6412   20.9061 C   0  0  2  0  0  0
  -28.2182  -21.8516   20.0258 C   0  0  0  0  0  0
  -30.6087  -16.7075   21.6938 C   0  0  0  0  0  0
  -28.8085  -23.0660   20.6550 N   0  0  0  0  0  0
  -30.0507  -15.4123   21.2886 N   0  0  0  0  0  0
  -30.7761  -22.1529   21.4110 O   0  0  0  0  0  0
  -27.4382  -20.7374   22.8391 Cl  0  0  0  0  0  0
  -31.0569  -17.6448   18.7467 Cl  0  0  0  0  0  0
  -31.4634  -12.4224   19.1248 H   0  0  0  0  0  0
  -30.3329  -11.2964   19.8255 H   0  0  0  0  0  0
  -29.7320  -11.7848   17.4250 H   0  0  0  0  0  0
  -29.6524  -13.4899   17.7722 H   0  0  0  0  0  0
  -27.8154  -11.3035   18.8036 H   0  0  0  0  0  0
  -27.3709  -12.6389   17.7800 H   0  0  0  0  0  0
  -27.7047  -14.2481   19.5694 H   0  0  0  0  0  0
  -28.6591  -11.9424   21.3310 H   0  0  0  0  0  0
  -28.4316  -13.5738   21.8715 H   0  0  0  0  0  0
  -25.2740   -9.5708   22.4706 H   0  0  0  0  0  0
  -23.9989   -7.4650   22.7444 H   0  0  0  0  0  0
  -21.0792   -8.8759   19.8931 H   0  0  0  0  0  0
  -22.3660  -10.9650   19.6130 H   0  0  0  0  0  0
  -21.2046   -7.6147   23.9717 H   0  0  0  0  0  0
  -21.1459   -6.0511   25.9072 H   0  0  0  0  0  0
  -22.0607   -2.7605   23.2822 H   0  0  0  0  0  0
  -22.4112  -12.0002   22.4793 H   0  0  0  0  0  0
  -21.1070  -13.1342   22.2542 H   0  0  0  0  0  0
  -24.6814  -15.8524   20.5335 H   0  0  0  0  0  0
  -26.2977  -15.6174   20.1041 H   0  0  0  0  0  0
  -26.7122  -32.5548   23.1225 H   0  0  0  0  0  0
  -25.0052  -33.9804   25.0517 H   0  0  0  0  0  0
  -22.6861  -31.3082   21.4184 H   0  0  0  0  0  0
  -23.3735  -35.9643   23.3279 H   0  0  0  0  0  0
  -24.3569  -36.8964   22.2056 H   0  0  0  0  0  0
  -23.7207  -37.6515   23.6674 H   0  0  0  0  0  0
  -26.0372  -31.5990   20.5911 H   0  0  0  0  0  0
  -26.8157  -30.8919   21.9834 H   0  0  0  0  0  0
  -28.0997  -29.1122   21.1503 H   0  0  0  0  0  0
  -26.0603  -25.9700   19.0204 H   0  0  0  0  0  0
  -23.9689  -27.2874   19.0492 H   0  0  0  0  0  0
  -23.7147  -30.6049   19.4063 H   0  0  0  0  0  0
  -22.7282  -29.2511   19.8749 H   0  0  0  0  0  0
  -25.1240  -36.1991   25.0836 H   0  0  0  0  0  0
  -20.9966  -28.3220   24.1444 H   0  0  0  0  0  0
  -20.5659  -26.2267   23.3610 H   0  0  0  0  0  0
  -21.6629  -26.7429   22.1211 H   0  0  0  0  0  0
  -19.6878  -25.6314   21.1225 H   0  0  0  0  0  0
  -19.6662  -27.3227   20.6778 H   0  0  0  0  0  0
  -17.4181  -26.6720   21.4023 H   0  0  0  0  0  0
  -18.0271  -26.0068   22.9011 H   0  0  0  0  0  0
  -19.7924  -30.7263   24.2314 H   0  0  0  0  0  0
  -17.5001  -31.6253   24.5176 H   0  0  0  0  0  0
  -15.5344  -30.2993   23.7639 H   0  0  0  0  0  0
  -15.8667  -28.0829   22.7069 H   0  0  0  0  0  0
  -24.5898  -30.7121   25.7874 H   0  0  0  0  0  0
  -24.9038  -32.2868   26.5075 H   0  0  0  0  0  0
  -25.8129  -30.8791   27.0246 H   0  0  0  0  0  0
  -26.2876  -29.6788   24.1243 H   0  0  0  0  0  0
  -27.4198  -29.7330   25.4560 H   0  0  0  0  0  0
  -27.8659  -30.4394   23.9219 H   0  0  0  0  0  0
  -27.2725  -33.3616   26.2118 H   0  0  0  0  0  0
  -28.3843  -32.6916   25.0274 H   0  0  0  0  0  0
  -28.0829  -31.8451   26.5353 H   0  0  0  0  0  0
  -28.2565  -38.0120   24.7545 H   0  0  0  0  0  0
  -28.1095  -36.2655   24.6196 H   0  0  0  0  0  0
  -27.2317  -37.1358   25.8865 H   0  0  0  0  0  0
  -20.9313  -29.8765   21.6976 H   0  0  0  0  0  0
  -26.0160  -38.2871   24.1476 H   0  0  0  0  0  0
  -29.7428  -20.1217   18.5577 H   0  0  0  0  0  0
  -28.8423  -18.2887   23.0857 H   0  0  0  0  0  0
  -31.4711  -24.3997   22.2203 H   0  0  0  0  0  0
  -29.9066  -24.4313   22.9995 H   0  0  0  0  0  0
  -30.6090  -25.6210   20.2674 H   0  0  0  0  0  0
  -30.3251  -26.5325   21.7321 H   0  0  0  0  0  0
  -28.0677  -24.3806   19.2073 H   0  0  0  0  0  0
  -27.0015  -24.1619   20.5680 H   0  0  0  0  0  0
  -28.0175  -25.8317   21.8437 H   0  0  0  0  0  0
  -27.1385  -21.8660   20.1893 H   0  0  0  0  0  0
  -28.3448  -21.9520   18.9473 H   0  0  0  0  0  0
  -30.6437  -16.7293   22.7829 H   0  0  0  0  0  0
  -31.6526  -16.7968   21.3851 H   0  0  0  0  0  0
  -29.1107  -15.2017   21.5849 H   0  0  0  0  0  0
  1 25  1  0  0  0
  1 30  2  0  0  0
  1 85  1  0  0  0
  2  3  1  0  0  0
  2 25  1  0  0  0
  2 89  1  0  0  0
  2 90  1  0  0  0
  3  4  1  0  0  0
  3 91  1  0  0  0
  3 92  1  0  0  0
  4  5  1  0  0  0
  4 93  1  0  0  0
  4 94  1  0  0  0
  5  6  1  0  0  0
  5 26  1  0  0  0
  5 95  1  0  0  0
  6 25  1  0  0  0
  6 96  1  0  0  0
  6 97  1  0  0  0
  7  8  2  0  0  0
  7 26  1  0  0  0
  7 29  1  0  0  0
  8  9  1  0  0  0
  8 22  1  0  0  0
  9 10  1  0  0  0
  9 27  2  0  0  0
 10 11  2  0  0  0
 10 15  1  0  0  0
 11 12  1  0  0  0
 11 98  1  0  0  0
 12 13  2  0  0  0
 12 99  1  0  0  0
 13 14  1  0  0  0
 13 31  1  0  0  0
 14 15  2  0  0  0
 14100  1  0  0  0
 15101  1  0  0  0
 16 17  2  0  0  0
 16 21  1  0  0  0
 16 31  1  0  0  0
 17 18  1  0  0  0
 17102  1  0  0  0
 18 19  2  0  0  0
 18103  1  0  0  0
 19 20  1  0  0  0
 19 24  1  0  0  0
 20 21  2  0  0  0
 20104  1  0  0  0
 21 23  1  0  0  0
 22 28  1  0  0  0
 22 32  2  0  0  0
 26 27  1  0  0  0
 28105  1  0  0  0
 28106  1  0  0  0
 29107  1  0  0  0
 29108  1  0  0  0
 33 34  1  0  0  0
 33 66  1  0  0  0
 33 70  2  0  0  0
 34 36  1  0  0  0
 34 59  1  0  0  0
 34109  1  0  0  0
 35 44  2  0  0  0
 35 45  1  0  0  0
 35 68  1  0  0  0
 36 56  1  0  0  0
 36110  1  0  0  0
 37 39  1  0  0  0
 37 47  1  0  0  0
 37 66  1  0  0  0
 37111  1  0  0  0
 38 43  2  0  0  0
 38 46  1  0  0  0
 38 47  1  0  0  0
 39 64  1  0  0  0
 39 67  2  0  0  0
 40 52  1  0  0  0
 40 53  2  0  0  0
 40 58  1  0  0  0
 41112  1  0  0  0
 41113  1  0  0  0
 41114  1  0  0  0
 41 48  1  0  0  0
 42 43  1  0  0  0
 42 66  1  0  0  0
 42115  1  0  0  0
 42116  1  0  0  0
 43 44  1  0  0  0
 44117  1  0  0  0
 45 46  2  0  0  0
 45118  1  0  0  0
 46119  1  0  0  0
 47120  1  0  0  0
 47121  1  0  0  0
 48 56  1  0  0  0
 48 65  1  0  0  0
 48122  1  0  0  0
 49 50  1  0  0  0
 49 53  1  0  0  0
 49 64  1  0  0  0
 49123  1  0  0  0
 50 51  1  0  0  0
 50124  1  0  0  0
 50125  1  0  0  0
 51 52  1  0  0  0
 51126  1  0  0  0
 51127  1  0  0  0
 52128  1  0  0  0
 52129  1  0  0  0
 53 54  1  0  0  0
 54 55  2  0  0  0
 54130  1  0  0  0
 55 57  1  0  0  0
 55131  1  0  0  0
 56 69  2  0  0  0
 57 58  2  0  0  0
 57132  1  0  0  0
 58133  1  0  0  0
 59 60  1  0  0  0
 59 61  1  0  0  0
 59 62  1  0  0  0
 60134  1  0  0  0
 60135  1  0  0  0
 60136  1  0  0  0
 61137  1  0  0  0
 61138  1  0  0  0
 61139  1  0  0  0
 62140  1  0  0  0
 62141  1  0  0  0
 62142  1  0  0  0
 63 65  1  0  0  0
 63143  1  0  0  0
 63144  1  0  0  0
 63145  1  0  0  0
 64146  1  0  0  0
 65147  1  0  0  0
 68 81  1  0  0  0
 71 73  2  0  0  0
 71 76  1  0  0  0
 71148  1  0  0  0
 72 74  1  0  0  0
 72 75  2  0  0  0
 72149  1  0  0  0
 73 75  1  0  0  0
 73 82  1  0  0  0
 74 76  2  0  0  0
 74 83  1  0  0  0
 75 87  1  0  0  0
 76 88  1  0  0  0
 77 78  1  0  0  0
 77 84  1  0  0  0
 77 86  2  0  0  0
 78 79  1  0  0  0
 78150  1  0  0  0
 78151  1  0  0  0
 79 81  1  0  0  0
 79152  1  0  0  0
 79153  1  0  0  0
 80 81  1  0  0  0
 80 84  1  0  0  0
 80154  1  0  0  0
 80155  1  0  0  0
 81156  1  0  0  0
 82 84  1  0  0  0
 82157  1  0  0  0
 82158  1  0  0  0
 83 85  1  0  0  0
 83159  1  0  0  0
 83160  1  0  0  0
 85161  1  0  0  0
M  ISO  4   1 100  68 101  81 101  85 100
M  END
> <chiral flag>
0

> <version>
0

> <s_m_source_file>
/data/baiqing/PycharmProjects/Reinvent-master-3.2/result/LINK_invent/BTK/process_docking_weight1_custom_product_contain_oxygen_bond_distance_aromatic_linkinvent_7_9_3/rearranged_h_0032.sdf

> <i_m_source_file_index>
86

> <r_mmod_Potential_Energy-OPLS-2005>
-93.9332656860352

> <r_mmod_Stretch_Energy-OPLS-2005>
40.6862487792969

> <r_mmod_Bend_Energy-OPLS-2005>
105.471908569336

> <r_mmod_Torsional_Energy-OPLS-2005>
251.244873046875

> <r_mmod_Improper_Torsional_Energy-OPLS-2005>
2.96968650817871

> <r_mmod_Van_der_Waal_Energy-OPLS-2005>
154.374969482422

> <r_mmod_Electrostatic_Energy-OPLS-2005>
-433.217437744141

> <r_mmod_Solvation_Energy-OPLS-2005>
-226.238647460938

> <b_mmod_Minimization_Converged-OPLS-2005>
0

> <r_mmod_RMS_Derivative-OPLS-2005>
4.27904319763184

$$$$
86
                    3D
 Structure written by MMmdl.
164173  0  0  1  0            999 V2000
  -30.6083  -14.7308   20.4829 C   0  0  0  0  0  0
  -30.4359  -12.4511   19.4643 C   0  0  0  0  0  0
  -29.5083  -12.5085   18.2309 C   0  0  0  0  0  0
  -28.0348  -12.3310   18.6472 C   0  0  0  0  0  0
  -27.6429  -13.2269   19.8522 C   0  0  2  0  0  0
  -28.6889  -13.1465   20.9855 C   0  0  0  0  0  0
  -25.2516  -13.8186   20.5692 C   0  0  0  0  0  0
  -24.1806  -13.0437   20.9212 C   0  0  0  0  0  0
  -24.6392  -11.6913   20.8755 C   0  0  0  0  0  0
  -23.9070  -10.4292   21.0413 C   0  0  0  0  0  0
  -24.3621   -9.4205   21.9188 C   0  0  0  0  0  0
  -23.6295   -8.2241   22.0754 C   0  0  0  0  0  0
  -22.4277   -8.0282   21.3545 C   0  0  0  0  0  0
  -21.9915   -9.0256   20.4646 C   0  0  0  0  0  0
  -22.7245  -10.2135   20.3057 C   0  0  0  0  0  0
  -21.6852   -6.0737   22.5279 C   0  0  0  0  0  0
  -21.4014   -6.5640   23.8213 C   0  0  0  0  0  0
  -21.3659   -5.6793   24.9176 C   0  0  0  0  0  0
  -21.6043   -4.3056   24.7225 C   0  0  0  0  0  0
  -21.8820   -3.8149   23.4345 C   0  0  0  0  0  0
  -21.9193   -4.6965   22.3401 C   0  0  0  0  0  0
  -22.7828  -13.5222   21.1869 C   0  0  0  0  0  0
  -22.1662   -4.2152   21.0979 F   0  0  0  0  0  0
  -21.5629   -3.4539   25.7737 F   0  0  0  0  0  0
  -29.9889  -13.5043   20.4030 N   0  0  0  0  0  0
  -26.2941  -12.9384   20.3287 N   0  0  0  0  0  0
  -25.9320  -11.6532   20.5759 N   0  0  0  0  0  0
  -22.0471  -12.8210   22.0423 N   0  0  0  0  0  0
  -25.4196  -15.1910   20.4089 N   0  0  0  0  0  0
  -31.7887  -14.8449   20.1400 O   0  0  0  0  0  0
  -21.6639   -6.8881   21.4241 O   0  0  0  0  0  0
  -22.3515  -14.5529   20.6718 O   0  0  0  0  0  0
  -24.6313  -31.8545   23.1978 C   0  0  0  0  0  0
  -25.9138  -32.4747   23.8323 C   0  0  1  0  0  0
  -27.2227  -27.2603   20.1171 C   0  0  0  0  0  0
  -25.5934  -33.8550   24.2248 N   0  0  0  0  0  0
  -23.4273  -30.4777   21.5414 C   0  0  2  0  0  0
  -24.8725  -28.9237   20.1097 C   0  0  0  0  0  0
  -22.7497  -29.4602   22.4910 C   0  0  0  0  0  0
  -18.0291  -28.1388   22.8484 C   0  0  0  0  0  0
  -24.1490  -36.7278   23.2642 C   0  0  0  0  0  0
  -25.9735  -30.7666   21.3772 C   0  0  0  0  0  0
  -26.0440  -29.3896   20.7171 C   0  0  0  0  0  0
  -27.2172  -28.5698   20.7100 C   0  0  0  0  0  0
  -26.0177  -26.8556   19.4966 C   0  0  0  0  0  0
  -24.8646  -27.6649   19.4915 C   0  0  0  0  0  0
  -23.6443  -29.8116   20.1575 C   0  0  0  0  0  0
  -25.4117  -36.3063   24.0326 C   0  0  1  0  0  0
  -20.5894  -28.3699   23.1269 C   0  0  2  0  0  0
  -20.6780  -26.9417   22.5408 C   0  0  0  0  0  0
  -19.5755  -26.6384   21.5212 C   0  0  0  0  0  0
  -18.1934  -26.7930   22.1625 C   0  0  0  0  0  0
  -19.1545  -28.8860   23.2872 C   0  0  0  0  0  0
  -18.9467  -30.1460   23.8892 C   0  0  0  0  0  0
  -17.6466  -30.6588   24.0562 C   0  0  0  0  0  0
  -25.9059  -34.9435   23.5090 C   0  0  0  0  0  0
  -16.5357  -29.9086   23.6332 C   0  0  0  0  0  0
  -16.7278  -28.6504   23.0353 C   0  0  0  0  0  0
  -26.4506  -31.6578   25.0718 C   0  0  0  0  0  0
  -25.3727  -31.3728   26.1437 C   0  0  0  0  0  0
  -27.0361  -30.2995   24.6213 C   0  0  0  0  0  0
  -27.6051  -32.4329   25.7494 C   0  0  0  0  0  0
  -27.5576  -37.1795   24.8466 C   0  0  0  0  0  0
  -21.4205  -29.3043   22.3653 N   0  0  0  0  0  0
  -26.4289  -37.3764   23.9408 N   0  0  0  0  0  0
  -24.6966  -31.0512   22.0950 N   0  0  0  0  0  0
  -23.4199  -28.8145   23.3010 O   0  0  0  0  0  0
  -28.3507  -26.4065   20.1903 O   0  0  0  0  0  0
  -26.5633  -34.8912   22.4661 O   0  0  0  0  0  0
  -23.5464  -32.1370   23.7275 O   0  0  0  0  0  0
  -30.5189  -19.9888   21.8769 C   0  0  0  0  0  0
  -31.3000  -18.9290   22.3697 C   0  0  0  0  0  0
  -29.5221  -19.7892   20.9006 C   0  0  0  0  0  0
  -29.3352  -18.3994   20.4638 C   0  0  0  0  0  0
  -30.1124  -17.2715   20.9927 C   0  0  0  0  0  0
  -31.0976  -17.5957   21.9677 C   0  0  0  0  0  0
  -28.3007  -23.7752   20.6207 C   0  0  0  0  0  0
  -27.7828  -23.8718   21.8584 C   0  0  0  0  0  0
  -30.8425  -24.1339   19.6023 C   0  0  0  0  0  0
  -29.7456  -24.9037   18.8352 C   0  0  0  0  0  0
  -30.4711  -22.6539   19.8923 C   0  0  0  0  0  0
  -28.4207  -25.0096   19.6281 C   0  0  1  0  0  0
  -28.2397  -18.1013   19.4501 C   0  0  0  0  0  0
  -28.5622  -21.0421   20.5741 C   0  0  0  0  0  0
  -29.8064  -15.8424   20.7037 N   0  0  0  0  0  0
  -29.0138  -22.4590   20.1194 N   0  3  2  0  0  0
  -32.0118  -16.3984   22.8211 Cl  0  0  0  0  0  0
  -31.4750  -12.5842   19.1586 H   0  0  0  0  0  0
  -30.3876  -11.4709   19.9413 H   0  0  0  0  0  0
  -29.7889  -11.7386   17.5110 H   0  0  0  0  0  0
  -29.6331  -13.4650   17.7207 H   0  0  0  0  0  0
  -27.8922  -11.2816   18.9075 H   0  0  0  0  0  0
  -27.3757  -12.5256   17.8003 H   0  0  0  0  0  0
  -27.6401  -14.2499   19.4762 H   0  0  0  0  0  0
  -28.7243  -12.1427   21.4113 H   0  0  0  0  0  0
  -28.4255  -13.8157   21.8063 H   0  0  0  0  0  0
  -25.2766   -9.5679   22.4764 H   0  0  0  0  0  0
  -24.0004   -7.4629   22.7470 H   0  0  0  0  0  0
  -21.0848   -8.8777   19.8949 H   0  0  0  0  0  0
  -22.3706  -10.9676   19.6167 H   0  0  0  0  0  0
  -21.2005   -7.6148   23.9718 H   0  0  0  0  0  0
  -21.1480   -6.0522   25.9080 H   0  0  0  0  0  0
  -22.0599   -2.7612   23.2845 H   0  0  0  0  0  0
  -22.4089  -11.9872   22.4809 H   0  0  0  0  0  0
  -21.1086  -13.1230   22.2626 H   0  0  0  0  0  0
  -24.6456  -15.8381   20.5130 H   0  0  0  0  0  0
  -26.2545  -15.6305   20.0469 H   0  0  0  0  0  0
  -26.7200  -32.5392   23.1059 H   0  0  0  0  0  0
  -25.0075  -33.9687   25.0389 H   0  0  0  0  0  0
  -22.7241  -31.3004   21.3955 H   0  0  0  0  0  0
  -23.3752  -35.9610   23.3304 H   0  0  0  0  0  0
  -24.3576  -36.8903   22.2055 H   0  0  0  0  0  0
  -23.7246  -37.6480   23.6670 H   0  0  0  0  0  0
  -26.1148  -31.5283   20.6092 H   0  0  0  0  0  0
  -26.8502  -30.8124   22.0116 H   0  0  0  0  0  0
  -28.1152  -28.9241   21.1961 H   0  0  0  0  0  0
  -25.9088  -25.8916   19.0290 H   0  0  0  0  0  0
  -23.9632  -27.2993   19.0191 H   0  0  0  0  0  0
  -23.7696  -30.5877   19.4017 H   0  0  0  0  0  0
  -22.7619  -29.2459   19.8528 H   0  0  0  0  0  0
  -25.1301  -36.1906   25.0818 H   0  0  0  0  0  0
  -20.9989  -28.3280   24.1389 H   0  0  0  0  0  0
  -20.5680  -26.2310   23.3614 H   0  0  0  0  0  0
  -21.6648  -26.7440   22.1201 H   0  0  0  0  0  0
  -19.6917  -25.6295   21.1247 H   0  0  0  0  0  0
  -19.6691  -27.3190   20.6739 H   0  0  0  0  0  0
  -17.4204  -26.6675   21.4028 H   0  0  0  0  0  0
  -18.0336  -26.0073   22.9022 H   0  0  0  0  0  0
  -19.7943  -30.7277   24.2260 H   0  0  0  0  0  0
  -17.5021  -31.6268   24.5163 H   0  0  0  0  0  0
  -15.5357  -30.2987   23.7659 H   0  0  0  0  0  0
  -15.8678  -28.0821   22.7074 H   0  0  0  0  0  0
  -24.5906  -30.7073   25.7765 H   0  0  0  0  0  0
  -24.8915  -32.2897   26.4850 H   0  0  0  0  0  0
  -25.8044  -30.8915   27.0222 H   0  0  0  0  0  0
  -26.2950  -29.6732   24.1232 H   0  0  0  0  0  0
  -27.4036  -29.7268   25.4738 H   0  0  0  0  0  0
  -27.8829  -30.4269   23.9464 H   0  0  0  0  0  0
  -27.2649  -33.3634   26.2051 H   0  0  0  0  0  0
  -28.3870  -32.6885   25.0329 H   0  0  0  0  0  0
  -28.0711  -31.8472   26.5428 H   0  0  0  0  0  0
  -28.2592  -38.0093   24.7507 H   0  0  0  0  0  0
  -28.1074  -36.2623   24.6301 H   0  0  0  0  0  0
  -27.2292  -37.1452   25.8869 H   0  0  0  0  0  0
  -20.9391  -29.8766   21.6858 H   0  0  0  0  0  0
  -26.0166  -38.2837   24.1406 H   0  0  0  0  0  0
  -30.6636  -20.9626   22.3212 H   0  0  0  0  0  0
  -32.0333  -19.1363   23.1358 H   0  0  0  0  0  0
  -27.3602  -24.8069   22.1976 H   0  0  0  0  0  0
  -27.7753  -23.0523   22.5601 H   0  0  0  0  0  0
  -31.0323  -24.6494   20.5455 H   0  0  0  0  0  0
  -31.7837  -24.1701   19.0527 H   0  0  0  0  0  0
  -29.5633  -24.3979   17.8857 H   0  0  0  0  0  0
  -30.1008  -25.8997   18.5677 H   0  0  0  0  0  0
  -31.0526  -22.3401   20.7536 H   0  0  0  0  0  0
  -30.7743  -22.0167   19.0607 H   0  0  0  0  0  0
  -27.6435  -24.8693   18.8832 H   0  0  0  0  0  0
  -28.2769  -18.8083   18.6215 H   0  0  0  0  0  0
  -27.2576  -18.1676   19.9190 H   0  0  0  0  0  0
  -28.3364  -17.1094   19.0100 H   0  0  0  0  0  0
  -27.9627  -21.1617   21.4739 H   0  0  0  0  0  0
  -27.8342  -20.7289   19.8285 H   0  0  0  0  0  0
  -28.8249  -15.6195   20.7272 H   0  0  0  0  0  0
  -28.7110  -22.3877   19.1593 H   0  0  0  0  0  0
  1 25  1  0  0  0
  1 30  2  0  0  0
  1 85  1  0  0  0
  2  3  1  0  0  0
  2 25  1  0  0  0
  2 88  1  0  0  0
  2 89  1  0  0  0
  3  4  1  0  0  0
  3 90  1  0  0  0
  3 91  1  0  0  0
  4  5  1  0  0  0
  4 92  1  0  0  0
  4 93  1  0  0  0
  5  6  1  0  0  0
  5 26  1  0  0  0
  5 94  1  0  0  0
  6 25  1  0  0  0
  6 95  1  0  0  0
  6 96  1  0  0  0
  7  8  2  0  0  0
  7 26  1  0  0  0
  7 29  1  0  0  0
  8  9  1  0  0  0
  8 22  1  0  0  0
  9 10  1  0  0  0
  9 27  2  0  0  0
 10 11  2  0  0  0
 10 15  1  0  0  0
 11 12  1  0  0  0
 11 97  1  0  0  0
 12 13  2  0  0  0
 12 98  1  0  0  0
 13 14  1  0  0  0
 13 31  1  0  0  0
 14 15  2  0  0  0
 14 99  1  0  0  0
 15100  1  0  0  0
 16 17  2  0  0  0
 16 21  1  0  0  0
 16 31  1  0  0  0
 17 18  1  0  0  0
 17101  1  0  0  0
 18 19  2  0  0  0
 18102  1  0  0  0
 19 20  1  0  0  0
 19 24  1  0  0  0
 20 21  2  0  0  0
 20103  1  0  0  0
 21 23  1  0  0  0
 22 28  1  0  0  0
 22 32  2  0  0  0
 26 27  1  0  0  0
 28104  1  0  0  0
 28105  1  0  0  0
 29106  1  0  0  0
 29107  1  0  0  0
 33 34  1  0  0  0
 33 66  1  0  0  0
 33 70  2  0  0  0
 34 36  1  0  0  0
 34 59  1  0  0  0
 34108  1  0  0  0
 35 44  2  0  0  0
 35 45  1  0  0  0
 35 68  1  0  0  0
 36 56  1  0  0  0
 36109  1  0  0  0
 37 39  1  0  0  0
 37 47  1  0  0  0
 37 66  1  0  0  0
 37110  1  0  0  0
 38 43  2  0  0  0
 38 46  1  0  0  0
 38 47  1  0  0  0
 39 64  1  0  0  0
 39 67  2  0  0  0
 40 52  1  0  0  0
 40 53  2  0  0  0
 40 58  1  0  0  0
 41111  1  0  0  0
 41112  1  0  0  0
 41113  1  0  0  0
 41 48  1  0  0  0
 42 43  1  0  0  0
 42 66  1  0  0  0
 42114  1  0  0  0
 42115  1  0  0  0
 43 44  1  0  0  0
 44116  1  0  0  0
 45 46  2  0  0  0
 45117  1  0  0  0
 46118  1  0  0  0
 47119  1  0  0  0
 47120  1  0  0  0
 48 56  1  0  0  0
 48 65  1  0  0  0
 48121  1  0  0  0
 49 50  1  0  0  0
 49 53  1  0  0  0
 49 64  1  0  0  0
 49122  1  0  0  0
 50 51  1  0  0  0
 50123  1  0  0  0
 50124  1  0  0  0
 51 52  1  0  0  0
 51125  1  0  0  0
 51126  1  0  0  0
 52127  1  0  0  0
 52128  1  0  0  0
 53 54  1  0  0  0
 54 55  2  0  0  0
 54129  1  0  0  0
 55 57  1  0  0  0
 55130  1  0  0  0
 56 69  2  0  0  0
 57 58  2  0  0  0
 57131  1  0  0  0
 58132  1  0  0  0
 59 60  1  0  0  0
 59 61  1  0  0  0
 59 62  1  0  0  0
 60133  1  0  0  0
 60134  1  0  0  0
 60135  1  0  0  0
 61136  1  0  0  0
 61137  1  0  0  0
 61138  1  0  0  0
 62139  1  0  0  0
 62140  1  0  0  0
 62141  1  0  0  0
 63 65  1  0  0  0
 63142  1  0  0  0
 63143  1  0  0  0
 63144  1  0  0  0
 64145  1  0  0  0
 65146  1  0  0  0
 68 82  1  0  0  0
 71 72  2  0  0  0
 71 73  1  0  0  0
 71147  1  0  0  0
 72 76  1  0  0  0
 72148  1  0  0  0
 73 74  2  0  0  0
 73 84  1  0  0  0
 74 75  1  0  0  0
 74 83  1  0  0  0
 75 76  2  0  0  0
 75 85  1  0  0  0
 76 87  1  0  0  0
 77 78  2  0  0  0
 77 82  1  0  0  0
 77 86  1  0  0  0
 78149  1  0  0  0
 78150  1  0  0  0
 79 80  1  0  0  0
 79 81  1  0  0  0
 79151  1  0  0  0
 79152  1  0  0  0
 80 82  1  0  0  0
 80153  1  0  0  0
 80154  1  0  0  0
 81 86  1  0  0  0
 81155  1  0  0  0
 81156  1  0  0  0
 82157  1  0  0  0
 83158  1  0  0  0
 83159  1  0  0  0
 83160  1  0  0  0
 84161  1  0  0  0
 84162  1  0  0  0
 84 86  1  0  0  0
 85163  1  0  0  0
 86164  1  0  0  0
M  CHG  1  86   1
M  ISO  4   1 100  68 101  82 101  85 100
M  END
> <chiral flag>
0

> <version>
0

> <s_m_source_file>
/data/baiqing/PycharmProjects/Reinvent-master-3.2/result/LINK_invent/BTK/process_docking_weight1_custom_product_contain_oxygen_bond_distance_aromatic_linkinvent_7_9_3/rearranged_h_0032.sdf

> <i_m_source_file_index>
87

> <r_mmod_Potential_Energy-OPLS-2005>
93.8056640625

> <r_mmod_Stretch_Energy-OPLS-2005>
140.35563659668

> <r_mmod_Bend_Energy-OPLS-2005>
199.991226196289

> <r_mmod_Torsional_Energy-OPLS-2005>
256.025970458984

> <r_mmod_Improper_Torsional_Energy-OPLS-2005>
8.51172161102295

> <r_mmod_Van_der_Waal_Energy-OPLS-2005>
151.954895019531

> <r_mmod_Electrostatic_Energy-OPLS-2005>
-285.659362792969

> <r_mmod_Solvation_Energy-OPLS-2005>
-456.273345947266

> <b_mmod_Minimization_Converged-OPLS-2005>
0

> <r_mmod_RMS_Derivative-OPLS-2005>
0.289254546165466

$$$$
87
                    3D
 Structure written by MMmdl.
161170  0  0  1  0            999 V2000
  -30.5902  -14.6829   20.4767 C   0  0  0  0  0  0
  -30.4424  -12.4154   19.4608 C   0  0  0  0  0  0
  -29.5079  -12.5091   18.2331 C   0  0  0  0  0  0
  -28.0347  -12.3276   18.6474 C   0  0  0  0  0  0
  -27.6497  -13.2152   19.8582 C   0  0  2  0  0  0
  -28.6910  -13.0901   20.9925 C   0  0  0  0  0  0
  -25.2523  -13.8186   20.5625 C   0  0  0  0  0  0
  -24.1807  -13.0454   20.9178 C   0  0  0  0  0  0
  -24.6380  -11.6930   20.8755 C   0  0  0  0  0  0
  -23.9056  -10.4294   21.0406 C   0  0  0  0  0  0
  -24.3616   -9.4211   21.9176 C   0  0  0  0  0  0
  -23.6300   -8.2252   22.0742 C   0  0  0  0  0  0
  -22.4284   -8.0278   21.3535 C   0  0  0  0  0  0
  -21.9913   -9.0254   20.4636 C   0  0  0  0  0  0
  -22.7241  -10.2138   20.3044 C   0  0  0  0  0  0
  -21.6860   -6.0738   22.5271 C   0  0  0  0  0  0
  -21.4018   -6.5645   23.8207 C   0  0  0  0  0  0
  -21.3654   -5.6796   24.9177 C   0  0  0  0  0  0
  -21.6040   -4.3055   24.7219 C   0  0  0  0  0  0
  -21.8823   -3.8151   23.4343 C   0  0  0  0  0  0
  -21.9196   -4.6964   22.3403 C   0  0  0  0  0  0
  -22.7825  -13.5225   21.1861 C   0  0  0  0  0  0
  -22.1661   -4.2153   21.0974 F   0  0  0  0  0  0
  -21.5627   -3.4533   25.7733 F   0  0  0  0  0  0
  -30.0094  -13.4382   20.4358 N   0  0  0  0  0  0
  -26.2962  -12.9371   20.3295 N   0  0  0  0  0  0
  -25.9306  -11.6524   20.5774 N   0  0  0  0  0  0
  -22.0480  -12.8212   22.0423 N   0  0  0  0  0  0
  -25.4245  -15.1896   20.3937 N   0  0  0  0  0  0
  -31.7313  -14.8699   20.0420 O   0  0  0  0  0  0
  -21.6647   -6.8883   21.4237 O   0  0  0  0  0  0
  -22.3483  -14.5521   20.6704 O   0  0  0  0  0  0
  -24.6206  -31.8613   23.1970 C   0  0  0  0  0  0
  -25.9050  -32.4827   23.8311 C   0  0  1  0  0  0
  -27.2469  -27.3414   20.1263 C   0  0  0  0  0  0
  -25.5853  -33.8609   24.2252 N   0  0  0  0  0  0
  -23.4158  -30.4844   21.5339 C   0  0  2  0  0  0
  -24.8658  -28.9200   20.1188 C   0  0  0  0  0  0
  -22.7457  -29.4643   22.4849 C   0  0  0  0  0  0
  -18.0308  -28.1455   22.8520 C   0  0  0  0  0  0
  -24.1473  -36.7301   23.2652 C   0  0  0  0  0  0
  -25.9485  -30.8061   21.3535 C   0  0  0  0  0  0
  -26.0289  -29.4254   20.7130 C   0  0  0  0  0  0
  -27.2194  -28.6492   20.6982 C   0  0  0  0  0  0
  -26.0618  -26.8621   19.5312 C   0  0  0  0  0  0
  -24.8810  -27.6444   19.5240 C   0  0  0  0  0  0
  -23.6384  -29.8104   20.1511 C   0  0  0  0  0  0
  -25.4109  -36.3091   24.0331 C   0  0  1  0  0  0
  -20.5906  -28.3723   23.1285 C   0  0  2  0  0  0
  -20.6763  -26.9435   22.5412 C   0  0  0  0  0  0
  -19.5726  -26.6408   21.5224 C   0  0  0  0  0  0
  -18.1915  -26.8023   22.1633 C   0  0  0  0  0  0
  -19.1557  -28.8897   23.2936 C   0  0  0  0  0  0
  -18.9496  -30.1497   23.8948 C   0  0  0  0  0  0
  -17.6484  -30.6636   24.0602 C   0  0  0  0  0  0
  -25.9022  -34.9481   23.5104 C   0  0  0  0  0  0
  -16.5377  -29.9170   23.6339 C   0  0  0  0  0  0
  -16.7288  -28.6605   23.0339 C   0  0  0  0  0  0
  -26.4452  -31.6627   25.0665 C   0  0  0  0  0  0
  -25.3715  -31.3791   26.1411 C   0  0  0  0  0  0
  -27.0279  -30.3090   24.6033 C   0  0  0  0  0  0
  -27.5992  -32.4350   25.7441 C   0  0  0  0  0  0
  -27.5575  -37.1810   24.8481 C   0  0  0  0  0  0
  -21.4159  -29.3112   22.3692 N   0  0  0  0  0  0
  -26.4301  -37.3778   23.9420 N   0  0  0  0  0  0
  -24.6817  -31.0673   22.0885 N   0  0  0  0  0  0
  -23.4227  -28.8155   23.2864 O   0  0  0  0  0  0
  -28.4507  -26.6389   20.0548 O   0  0  0  0  0  0
  -26.5619  -34.8945   22.4674 O   0  0  0  0  0  0
  -23.5360  -32.1328   23.7349 O   0  0  0  0  0  0
  -29.9585  -19.2684   19.4080 C   0  0  0  0  0  0
  -30.2955  -17.8914   19.6395 C   0  0  0  0  0  0
  -29.0002  -19.9901   20.1884 C   0  0  0  0  0  0
  -28.4110  -19.2276   21.2443 C   0  0  0  0  0  0
  -29.6693  -17.1359   20.6707 C   0  0  0  0  0  0
  -28.7354  -17.8504   21.4593 C   0  0  0  0  0  0
  -28.8797  -23.1801   21.6600 C   0  0  0  0  0  0
  -29.4305  -22.4718   22.6626 C   0  0  0  0  0  0
  -28.4109  -24.6471   21.7382 C   0  0  0  0  0  0
  -28.3763  -23.9679   19.4610 C   0  0  0  0  0  0
  -28.6931  -25.2087   20.3489 C   0  0  1  0  0  0
  -27.3443  -19.8192   22.1494 C   0  0  0  0  0  0
  -28.4339  -21.4114   19.7236 C   0  0  0  0  0  0
  -29.7991  -15.6969   20.9452 N   0  0  0  0  0  0
  -28.9415  -22.7723   20.2059 N   0  3  2  0  0  0
  -28.0848  -17.1683   22.4349 F   0  0  0  0  0  0
  -31.4801  -12.5559   19.1533 H   0  0  0  0  0  0
  -30.3965  -11.4226   19.9120 H   0  0  0  0  0  0
  -29.7824  -11.7605   17.4895 H   0  0  0  0  0  0
  -29.6314  -13.4799   17.7499 H   0  0  0  0  0  0
  -27.8921  -11.2771   18.9042 H   0  0  0  0  0  0
  -27.3734  -12.5259   17.8024 H   0  0  0  0  0  0
  -27.6631  -14.2457   19.4987 H   0  0  0  0  0  0
  -28.7074  -12.0754   21.3913 H   0  0  0  0  0  0
  -28.4206  -13.7340   21.8308 H   0  0  0  0  0  0
  -25.2767   -9.5696   22.4743 H   0  0  0  0  0  0
  -24.0023   -7.4631   22.7437 H   0  0  0  0  0  0
  -21.0860   -8.8759   19.8924 H   0  0  0  0  0  0
  -22.3695  -10.9670   19.6140 H   0  0  0  0  0  0
  -21.2012   -7.6149   23.9717 H   0  0  0  0  0  0
  -21.1467   -6.0519   25.9075 H   0  0  0  0  0  0
  -22.0606   -2.7610   23.2839 H   0  0  0  0  0  0
  -22.4128  -11.9898   22.4845 H   0  0  0  0  0  0
  -21.1062  -13.1162   22.2584 H   0  0  0  0  0  0
  -24.6575  -15.8479   20.4705 H   0  0  0  0  0  0
  -26.2822  -15.6196   20.0752 H   0  0  0  0  0  0
  -26.7140  -32.5510   23.1083 H   0  0  0  0  0  0
  -24.9989  -33.9747   25.0402 H   0  0  0  0  0  0
  -22.7100  -31.3059   21.3860 H   0  0  0  0  0  0
  -23.3729  -35.9638   23.3324 H   0  0  0  0  0  0
  -24.3562  -36.8888   22.2061 H   0  0  0  0  0  0
  -23.7235  -37.6512   23.6670 H   0  0  0  0  0  0
  -26.0565  -31.5613   20.5719 H   0  0  0  0  0  0
  -26.8366  -30.8752   21.9708 H   0  0  0  0  0  0
  -28.1259  -29.0557   21.1305 H   0  0  0  0  0  0
  -26.0505  -25.8946   19.0520 H   0  0  0  0  0  0
  -23.9844  -27.2532   19.0596 H   0  0  0  0  0  0
  -23.7835  -30.5845   19.3947 H   0  0  0  0  0  0
  -22.7556  -29.2521   19.8341 H   0  0  0  0  0  0
  -25.1301  -36.1911   25.0829 H   0  0  0  0  0  0
  -21.0053  -28.3274   24.1382 H   0  0  0  0  0  0
  -20.5602  -26.2342   23.3628 H   0  0  0  0  0  0
  -21.6645  -26.7424   22.1225 H   0  0  0  0  0  0
  -19.6847  -25.6306   21.1273 H   0  0  0  0  0  0
  -19.6669  -27.3226   20.6763 H   0  0  0  0  0  0
  -17.4183  -26.6804   21.4022 H   0  0  0  0  0  0
  -18.0277  -26.0194   22.9045 H   0  0  0  0  0  0
  -19.7960  -30.7331   24.2302 H   0  0  0  0  0  0
  -17.5058  -31.6318   24.5233 H   0  0  0  0  0  0
  -15.5389  -30.3100   23.7650 H   0  0  0  0  0  0
  -15.8698  -28.0961   22.6978 H   0  0  0  0  0  0
  -24.5884  -30.7141   25.7770 H   0  0  0  0  0  0
  -24.8931  -32.2981   26.4803 H   0  0  0  0  0  0
  -25.8038  -30.9006   27.0209 H   0  0  0  0  0  0
  -26.2826  -29.6857   24.1101 H   0  0  0  0  0  0
  -27.4109  -29.7304   25.4438 H   0  0  0  0  0  0
  -27.8609  -30.4441   23.9139 H   0  0  0  0  0  0
  -27.2612  -33.3667   26.1999 H   0  0  0  0  0  0
  -28.3834  -32.6885   25.0295 H   0  0  0  0  0  0
  -28.0655  -31.8514   26.5381 H   0  0  0  0  0  0
  -28.2605  -38.0093   24.7496 H   0  0  0  0  0  0
  -28.1038  -36.2614   24.6329 H   0  0  0  0  0  0
  -27.2306  -37.1509   25.8891 H   0  0  0  0  0  0
  -20.9282  -29.9000   21.7090 H   0  0  0  0  0  0
  -26.0150  -38.2833   24.1439 H   0  0  0  0  0  0
  -30.4051  -19.7530   18.5518 H   0  0  0  0  0  0
  -30.9956  -17.4033   18.9749 H   0  0  0  0  0  0
  -29.4883  -22.8869   23.6598 H   0  0  0  0  0  0
  -29.8561  -21.4917   22.5076 H   0  0  0  0  0  0
  -28.9541  -25.2018   22.5052 H   0  0  0  0  0  0
  -27.3468  -24.6980   21.9744 H   0  0  0  0  0  0
  -28.8012  -24.0461   18.4602 H   0  0  0  0  0  0
  -27.2950  -23.8636   19.3549 H   0  0  0  0  0  0
  -29.7844  -25.2397   20.3151 H   0  0  0  0  0  0
  -27.3073  -20.9040   22.1260 H   0  0  0  0  0  0
  -27.5377  -19.5269   23.1835 H   0  0  0  0  0  0
  -26.3637  -19.4381   21.8616 H   0  0  0  0  0  0
  -27.3480  -21.4021   19.8149 H   0  0  0  0  0  0
  -28.6047  -21.4361   18.6462 H   0  0  0  0  0  0
  -29.0314  -15.3514   21.5022 H   0  0  0  0  0  0
  -29.9214  -22.7561   19.9606 H   0  0  0  0  0  0
  1 25  1  0  0  0
  1 30  2  0  0  0
  1 84  1  0  0  0
  2  3  1  0  0  0
  2 25  1  0  0  0
  2 87  1  0  0  0
  2 88  1  0  0  0
  3  4  1  0  0  0
  3 89  1  0  0  0
  3 90  1  0  0  0
  4  5  1  0  0  0
  4 91  1  0  0  0
  4 92  1  0  0  0
  5  6  1  0  0  0
  5 26  1  0  0  0
  5 93  1  0  0  0
  6 25  1  0  0  0
  6 94  1  0  0  0
  6 95  1  0  0  0
  7  8  2  0  0  0
  7 26  1  0  0  0
  7 29  1  0  0  0
  8  9  1  0  0  0
  8 22  1  0  0  0
  9 10  1  0  0  0
  9 27  2  0  0  0
 10 11  2  0  0  0
 10 15  1  0  0  0
 11 12  1  0  0  0
 11 96  1  0  0  0
 12 13  2  0  0  0
 12 97  1  0  0  0
 13 14  1  0  0  0
 13 31  1  0  0  0
 14 15  2  0  0  0
 14 98  1  0  0  0
 15 99  1  0  0  0
 16 17  2  0  0  0
 16 21  1  0  0  0
 16 31  1  0  0  0
 17 18  1  0  0  0
 17100  1  0  0  0
 18 19  2  0  0  0
 18101  1  0  0  0
 19 20  1  0  0  0
 19 24  1  0  0  0
 20 21  2  0  0  0
 20102  1  0  0  0
 21 23  1  0  0  0
 22 28  1  0  0  0
 22 32  2  0  0  0
 26 27  1  0  0  0
 28103  1  0  0  0
 28104  1  0  0  0
 29105  1  0  0  0
 29106  1  0  0  0
 33 34  1  0  0  0
 33 66  1  0  0  0
 33 70  2  0  0  0
 34 36  1  0  0  0
 34 59  1  0  0  0
 34107  1  0  0  0
 35 44  2  0  0  0
 35 45  1  0  0  0
 35 68  1  0  0  0
 36 56  1  0  0  0
 36108  1  0  0  0
 37 39  1  0  0  0
 37 47  1  0  0  0
 37 66  1  0  0  0
 37109  1  0  0  0
 38 43  2  0  0  0
 38 46  1  0  0  0
 38 47  1  0  0  0
 39 64  1  0  0  0
 39 67  2  0  0  0
 40 52  1  0  0  0
 40 53  2  0  0  0
 40 58  1  0  0  0
 41110  1  0  0  0
 41111  1  0  0  0
 41112  1  0  0  0
 41 48  1  0  0  0
 42 43  1  0  0  0
 42 66  1  0  0  0
 42113  1  0  0  0
 42114  1  0  0  0
 43 44  1  0  0  0
 44115  1  0  0  0
 45 46  2  0  0  0
 45116  1  0  0  0
 46117  1  0  0  0
 47118  1  0  0  0
 47119  1  0  0  0
 48 56  1  0  0  0
 48 65  1  0  0  0
 48120  1  0  0  0
 49 50  1  0  0  0
 49 53  1  0  0  0
 49 64  1  0  0  0
 49121  1  0  0  0
 50 51  1  0  0  0
 50122  1  0  0  0
 50123  1  0  0  0
 51 52  1  0  0  0
 51124  1  0  0  0
 51125  1  0  0  0
 52126  1  0  0  0
 52127  1  0  0  0
 53 54  1  0  0  0
 54 55  2  0  0  0
 54128  1  0  0  0
 55 57  1  0  0  0
 55129  1  0  0  0
 56 69  2  0  0  0
 57 58  2  0  0  0
 57130  1  0  0  0
 58131  1  0  0  0
 59 60  1  0  0  0
 59 61  1  0  0  0
 59 62  1  0  0  0
 60132  1  0  0  0
 60133  1  0  0  0
 60134  1  0  0  0
 61135  1  0  0  0
 61136  1  0  0  0
 61137  1  0  0  0
 62138  1  0  0  0
 62139  1  0  0  0
 62140  1  0  0  0
 63 65  1  0  0  0
 63141  1  0  0  0
 63142  1  0  0  0
 63143  1  0  0  0
 64144  1  0  0  0
 65145  1  0  0  0
 68 81  1  0  0  0
 71 72  2  0  0  0
 71 73  1  0  0  0
 71146  1  0  0  0
 72 75  1  0  0  0
 72147  1  0  0  0
 73 74  2  0  0  0
 73 83  1  0  0  0
 74 76  1  0  0  0
 74 82  1  0  0  0
 75 76  2  0  0  0
 75 84  1  0  0  0
 76 86  1  0  0  0
 77 78  2  0  0  0
 77 79  1  0  0  0
 77 85  1  0  0  0
 78148  1  0  0  0
 78149  1  0  0  0
 79 81  1  0  0  0
 79150  1  0  0  0
 79151  1  0  0  0
 80 81  1  0  0  0
 80 85  1  0  0  0
 80152  1  0  0  0
 80153  1  0  0  0
 81154  1  0  0  0
 82155  1  0  0  0
 82156  1  0  0  0
 82157  1  0  0  0
 83158  1  0  0  0
 83159  1  0  0  0
 83 85  1  0  0  0
 84160  1  0  0  0
 85161  1  0  0  0
M  CHG  1  85   1
M  ISO  4   1 100  68 101  81 101  84 100
M  END
> <chiral flag>
0

> <version>
0

> <s_m_source_file>
/data/baiqing/PycharmProjects/Reinvent-master-3.2/result/LINK_invent/BTK/process_docking_weight1_custom_product_contain_oxygen_bond_distance_aromatic_linkinvent_7_9_3/rearranged_h_0032.sdf

> <i_m_source_file_index>
88

> <r_mmod_Potential_Energy-OPLS-2005>
34.8917770385742

> <r_mmod_Stretch_Energy-OPLS-2005>
85.4372329711914

> <r_mmod_Bend_Energy-OPLS-2005>
255.193344116211

> <r_mmod_Torsional_Energy-OPLS-2005>
238.379043579102

> <r_mmod_Improper_Torsional_Energy-OPLS-2005>
6.10312128067017

> <r_mmod_Van_der_Waal_Energy-OPLS-2005>
128.33869934082

> <r_mmod_Electrostatic_Energy-OPLS-2005>
-289.012329101562

> <r_mmod_Solvation_Energy-OPLS-2005>
-437.669494628906

> <b_mmod_Minimization_Converged-OPLS-2005>
0

> <r_mmod_RMS_Derivative-OPLS-2005>
4.95792484283447

$$$$
88
                    3D
 Structure written by MMmdl.
150158  0  0  1  0            999 V2000
  -30.4887  -15.1919   20.3672 C   0  0  0  0  0  0
  -30.4351  -12.7611   19.5071 C   0  0  0  0  0  0
  -29.5228  -12.5551   18.2739 C   0  0  0  0  0  0
  -28.0743  -12.2864   18.7145 C   0  0  0  0  0  0
  -27.6123  -13.2673   19.8204 C   0  0  2  0  0  0
  -28.6515  -13.4389   20.9495 C   0  0  0  0  0  0
  -25.2400  -13.8235   20.5743 C   0  0  0  0  0  0
  -24.1738  -13.0432   20.9245 C   0  0  0  0  0  0
  -24.6378  -11.6926   20.8756 C   0  0  0  0  0  0
  -23.9076  -10.4289   21.0405 C   0  0  0  0  0  0
  -24.3625   -9.4204   21.9185 C   0  0  0  0  0  0
  -23.6294   -8.2243   22.0758 C   0  0  0  0  0  0
  -22.4283   -8.0281   21.3541 C   0  0  0  0  0  0
  -21.9922   -9.0252   20.4645 C   0  0  0  0  0  0
  -22.7248  -10.2129   20.3053 C   0  0  0  0  0  0
  -21.6861   -6.0734   22.5272 C   0  0  0  0  0  0
  -21.4021   -6.5639   23.8204 C   0  0  0  0  0  0
  -21.3665   -5.6792   24.9168 C   0  0  0  0  0  0
  -21.6042   -4.3054   24.7219 C   0  0  0  0  0  0
  -21.8820   -3.8143   23.4341 C   0  0  0  0  0  0
  -21.9189   -4.6959   22.3394 C   0  0  0  0  0  0
  -22.7757  -13.5188   21.1886 C   0  0  0  0  0  0
  -22.1657   -4.2136   21.0973 F   0  0  0  0  0  0
  -21.5628   -3.4544   25.7738 F   0  0  0  0  0  0
  -29.8923  -13.9086   20.3141 N   0  0  0  0  0  0
  -26.2824  -12.9496   20.3243 N   0  0  0  0  0  0
  -25.9318  -11.6608   20.5742 N   0  0  0  0  0  0
  -22.0437  -12.8168   22.0456 N   0  0  0  0  0  0
  -25.4050  -15.1968   20.4159 N   0  0  0  0  0  0
  -31.7131  -15.1779   20.1865 O   0  0  0  0  0  0
  -21.6648   -6.8876   21.4236 O   0  0  0  0  0  0
  -22.3425  -14.5482   20.6721 O   0  0  0  0  0  0
  -24.6580  -31.8301   23.1735 C   0  0  0  0  0  0
  -25.9295  -32.4621   23.8170 C   0  0  1  0  0  0
  -27.2133  -26.9766   20.1706 C   0  0  0  0  0  0
  -25.6000  -33.8431   24.2099 N   0  0  0  0  0  0
  -23.4702  -30.4459   21.5207 C   0  0  2  0  0  0
  -24.9217  -28.8469   20.1069 C   0  0  0  0  0  0
  -22.7646  -29.4494   22.4772 C   0  0  0  0  0  0
  -18.0337  -28.1429   22.8471 C   0  0  0  0  0  0
  -24.1498  -36.7213   23.2643 C   0  0  0  0  0  0
  -26.0366  -30.6531   21.3953 C   0  0  0  0  0  0
  -26.1053  -29.2479   20.7386 C   0  0  0  0  0  0
  -27.2468  -28.3339   20.7497 C   0  0  0  0  0  0
  -26.0019  -26.7233   19.4854 C   0  0  0  0  0  0
  -24.8924  -27.6016   19.4620 C   0  0  0  0  0  0
  -23.7079  -29.7712   20.1425 C   0  0  0  0  0  0
  -25.4143  -36.2979   24.0297 C   0  0  1  0  0  0
  -20.5950  -28.3773   23.1198 C   0  0  2  0  0  0
  -20.6825  -26.9470   22.5398 C   0  0  0  0  0  0
  -19.5788  -26.6402   21.5215 C   0  0  0  0  0  0
  -18.1976  -26.7970   22.1612 C   0  0  0  0  0  0
  -19.1593  -28.8919   23.2831 C   0  0  0  0  0  0
  -18.9509  -30.1508   23.8863 C   0  0  0  0  0  0
  -17.6505  -30.6617   24.0574 C   0  0  0  0  0  0
  -25.9102  -34.9366   23.5007 C   0  0  0  0  0  0
  -16.5400  -29.9117   23.6339 C   0  0  0  0  0  0
  -16.7321  -28.6534   23.0358 C   0  0  0  0  0  0
  -26.4568  -31.6525   25.0661 C   0  0  0  0  0  0
  -25.3694  -31.3785   26.1307 C   0  0  0  0  0  0
  -27.0452  -30.2900   24.6343 C   0  0  0  0  0  0
  -27.6072  -32.4308   25.7465 C   0  0  0  0  0  0
  -27.5575  -37.1770   24.8474 C   0  0  0  0  0  0
  -21.4317  -29.3071   22.3543 N   0  0  0  0  0  0
  -26.4292  -37.3716   23.9410 N   0  0  0  0  0  0
  -24.7426  -31.0014   22.0840 N   0  0  0  0  0  0
  -23.4225  -28.8051   23.2981 O   0  0  0  0  0  0
  -28.2017  -25.8739   20.2673 O   0  0  0  0  0  0
  -26.5693  -34.8901   22.4586 O   0  0  0  0  0  0
  -23.5662  -32.1259   23.6849 O   0  0  0  0  0  0
  -29.5331  -22.1000   19.3621 C   0  0  0  0  0  0
  -29.9512  -20.6811   19.4006 C   0  0  0  0  0  0
  -28.5704  -22.7614   20.2215 C   0  0  0  0  0  0
  -29.4819  -19.6226   20.2851 C   0  0  0  0  0  0
  -28.0925  -21.7058   21.1306 C   0  0  0  0  0  0
  -28.5191  -20.2696   21.1636 C   0  0  0  0  0  0
  -27.0218  -22.1028   22.1364 C   0  0  0  0  0  0
  -30.2118  -18.0486   20.3828 C   0  0  0  0  0  0
  -27.8518  -24.3220   19.9427 C   0  0  0  0  0  0
  -29.7586  -16.4672   20.4123 N   0  0  0  0  0  0
  -27.8314  -19.2305   22.3635 Cl  0  0  0  0  0  0
  -31.4541  -12.9529   19.1696 H   0  0  0  0  0  0
  -30.4878  -11.8537   20.1102 H   0  0  0  0  0  0
  -29.8899  -11.7306   17.6606 H   0  0  0  0  0  0
  -29.5543  -13.4461   17.6444 H   0  0  0  0  0  0
  -28.0326  -11.2647   19.0938 H   0  0  0  0  0  0
  -27.3990  -12.3207   17.8595 H   0  0  0  0  0  0
  -27.5302  -14.2318   19.3177 H   0  0  0  0  0  0
  -28.8060  -12.5131   21.5049 H   0  0  0  0  0  0
  -28.3022  -14.1836   21.6673 H   0  0  0  0  0  0
  -25.2769   -9.5686   22.4763 H   0  0  0  0  0  0
  -24.0003   -7.4638   22.7485 H   0  0  0  0  0  0
  -21.0856   -8.8755   19.8948 H   0  0  0  0  0  0
  -22.3697  -10.9662   19.6157 H   0  0  0  0  0  0
  -21.2024   -7.6150   23.9700 H   0  0  0  0  0  0
  -21.1491   -6.0531   25.9067 H   0  0  0  0  0  0
  -22.0596   -2.7605   23.2843 H   0  0  0  0  0  0
  -22.4082  -11.9819   22.4800 H   0  0  0  0  0  0
  -21.1058  -13.1165   22.2698 H   0  0  0  0  0  0
  -24.6358  -15.8492   20.5221 H   0  0  0  0  0  0
  -26.2521  -15.6394   20.0851 H   0  0  0  0  0  0
  -26.7348  -32.5182   23.0867 H   0  0  0  0  0  0
  -25.0151  -33.9515   25.0257 H   0  0  0  0  0  0
  -22.7831  -31.2786   21.3567 H   0  0  0  0  0  0
  -23.3764  -35.9537   23.3280 H   0  0  0  0  0  0
  -24.3589  -36.8867   22.2064 H   0  0  0  0  0  0
  -23.7247  -37.6403   23.6697 H   0  0  0  0  0  0
  -26.2101  -31.3981   20.6176 H   0  0  0  0  0  0
  -26.8998  -30.7093   22.0454 H   0  0  0  0  0  0
  -28.1388  -28.6399   21.2762 H   0  0  0  0  0  0
  -25.8612  -25.7755   18.9891 H   0  0  0  0  0  0
  -23.9905  -27.2889   18.9552 H   0  0  0  0  0  0
  -23.8657  -30.5465   19.3902 H   0  0  0  0  0  0
  -22.8173  -29.2304   19.8183 H   0  0  0  0  0  0
  -25.1336  -36.1768   25.0788 H   0  0  0  0  0  0
  -21.0047  -28.3364   24.1317 H   0  0  0  0  0  0
  -20.5735  -26.2390   23.3624 H   0  0  0  0  0  0
  -21.6694  -26.7490   22.1189 H   0  0  0  0  0  0
  -19.6957  -25.6300   21.1278 H   0  0  0  0  0  0
  -19.6726  -27.3193   20.6725 H   0  0  0  0  0  0
  -17.4252  -26.6728   21.4008 H   0  0  0  0  0  0
  -18.0361  -26.0145   22.9031 H   0  0  0  0  0  0
  -19.7995  -30.7338   24.2212 H   0  0  0  0  0  0
  -17.5070  -31.6293   24.5194 H   0  0  0  0  0  0
  -15.5398  -30.3010   23.7693 H   0  0  0  0  0  0
  -15.8722  -28.0844   22.7074 H   0  0  0  0  0  0
  -24.5915  -30.7091   25.7615 H   0  0  0  0  0  0
  -24.8844  -32.2995   26.4553 H   0  0  0  0  0  0
  -25.7921  -30.9081   27.0188 H   0  0  0  0  0  0
  -26.3108  -29.6585   24.1339 H   0  0  0  0  0  0
  -27.4020  -29.7244   25.4958 H   0  0  0  0  0  0
  -27.9022  -30.4113   23.9717 H   0  0  0  0  0  0
  -27.2662  -33.3662   26.1917 H   0  0  0  0  0  0
  -28.3959  -32.6775   25.0337 H   0  0  0  0  0  0
  -28.0649  -31.8504   26.5487 H   0  0  0  0  0  0
  -28.2575  -38.0082   24.7530 H   0  0  0  0  0  0
  -28.1082  -36.2611   24.6282 H   0  0  0  0  0  0
  -27.2295  -37.1395   25.8878 H   0  0  0  0  0  0
  -20.9542  -29.8761   21.6690 H   0  0  0  0  0  0
  -26.0120  -38.2763   24.1431 H   0  0  0  0  0  0
  -29.9719  -22.7115   18.5848 H   0  0  0  0  0  0
  -30.7126  -20.3980   18.6849 H   0  0  0  0  0  0
  -26.0672  -21.6534   21.8619 H   0  0  0  0  0  0
  -26.8832  -23.1792   22.2062 H   0  0  0  0  0  0
  -27.2796  -21.7626   23.1393 H   0  0  0  0  0  0
  -30.7882  -18.1294   21.3058 H   0  0  0  0  0  0
  -30.9784  -18.0779   19.6069 H   0  0  0  0  0  0
  -26.8260  -24.1990   20.2835 H   0  0  0  0  0  0
  -27.7544  -24.3341   18.8573 H   0  0  0  0  0  0
  -28.7589  -16.3426   20.4619 H   0  0  0  0  0  0
  1 25  1  0  0  0
  1 30  2  0  0  0
  1 80  1  0  0  0
  2  3  1  0  0  0
  2 25  1  0  0  0
  2 82  1  0  0  0
  2 83  1  0  0  0
  3  4  1  0  0  0
  3 84  1  0  0  0
  3 85  1  0  0  0
  4  5  1  0  0  0
  4 86  1  0  0  0
  4 87  1  0  0  0
  5  6  1  0  0  0
  5 26  1  0  0  0
  5 88  1  0  0  0
  6 25  1  0  0  0
  6 89  1  0  0  0
  6 90  1  0  0  0
  7  8  2  0  0  0
  7 26  1  0  0  0
  7 29  1  0  0  0
  8  9  1  0  0  0
  8 22  1  0  0  0
  9 10  1  0  0  0
  9 27  2  0  0  0
 10 11  2  0  0  0
 10 15  1  0  0  0
 11 12  1  0  0  0
 11 91  1  0  0  0
 12 13  2  0  0  0
 12 92  1  0  0  0
 13 14  1  0  0  0
 13 31  1  0  0  0
 14 15  2  0  0  0
 14 93  1  0  0  0
 15 94  1  0  0  0
 16 17  2  0  0  0
 16 21  1  0  0  0
 16 31  1  0  0  0
 17 18  1  0  0  0
 17 95  1  0  0  0
 18 19  2  0  0  0
 18 96  1  0  0  0
 19 20  1  0  0  0
 19 24  1  0  0  0
 20 21  2  0  0  0
 20 97  1  0  0  0
 21 23  1  0  0  0
 22 28  1  0  0  0
 22 32  2  0  0  0
 26 27  1  0  0  0
 28 98  1  0  0  0
 28 99  1  0  0  0
 29100  1  0  0  0
 29101  1  0  0  0
 33 34  1  0  0  0
 33 66  1  0  0  0
 33 70  2  0  0  0
 34 36  1  0  0  0
 34 59  1  0  0  0
 34102  1  0  0  0
 35 44  2  0  0  0
 35 45  1  0  0  0
 35 68  1  0  0  0
 36 56  1  0  0  0
 36103  1  0  0  0
 37 39  1  0  0  0
 37 47  1  0  0  0
 37 66  1  0  0  0
 37104  1  0  0  0
 38 43  2  0  0  0
 38 46  1  0  0  0
 38 47  1  0  0  0
 39 64  1  0  0  0
 39 67  2  0  0  0
 40 52  1  0  0  0
 40 53  2  0  0  0
 40 58  1  0  0  0
 41105  1  0  0  0
 41106  1  0  0  0
 41107  1  0  0  0
 41 48  1  0  0  0
 42 43  1  0  0  0
 42 66  1  0  0  0
 42108  1  0  0  0
 42109  1  0  0  0
 43 44  1  0  0  0
 44110  1  0  0  0
 45 46  2  0  0  0
 45111  1  0  0  0
 46112  1  0  0  0
 47113  1  0  0  0
 47114  1  0  0  0
 48 56  1  0  0  0
 48 65  1  0  0  0
 48115  1  0  0  0
 49 50  1  0  0  0
 49 53  1  0  0  0
 49 64  1  0  0  0
 49116  1  0  0  0
 50 51  1  0  0  0
 50117  1  0  0  0
 50118  1  0  0  0
 51 52  1  0  0  0
 51119  1  0  0  0
 51120  1  0  0  0
 52121  1  0  0  0
 52122  1  0  0  0
 53 54  1  0  0  0
 54 55  2  0  0  0
 54123  1  0  0  0
 55 57  1  0  0  0
 55124  1  0  0  0
 56 69  2  0  0  0
 57 58  2  0  0  0
 57125  1  0  0  0
 58126  1  0  0  0
 59 60  1  0  0  0
 59 61  1  0  0  0
 59 62  1  0  0  0
 60127  1  0  0  0
 60128  1  0  0  0
 60129  1  0  0  0
 61130  1  0  0  0
 61131  1  0  0  0
 61132  1  0  0  0
 62133  1  0  0  0
 62134  1  0  0  0
 62135  1  0  0  0
 63 65  1  0  0  0
 63136  1  0  0  0
 63137  1  0  0  0
 63138  1  0  0  0
 64139  1  0  0  0
 65140  1  0  0  0
 68 79  1  0  0  0
 71 72  2  0  0  0
 71 73  1  0  0  0
 71141  1  0  0  0
 72 74  1  0  0  0
 72142  1  0  0  0
 73 75  2  0  0  0
 73 79  1  0  0  0
 74 76  2  0  0  0
 74 78  1  0  0  0
 75 76  1  0  0  0
 75 77  1  0  0  0
 76 81  1  0  0  0
 77143  1  0  0  0
 77144  1  0  0  0
 77145  1  0  0  0
 78 80  1  0  0  0
 78146  1  0  0  0
 78147  1  0  0  0
 79148  1  0  0  0
 79149  1  0  0  0
 80150  1  0  0  0
M  ISO  4   1 100  68 101  79 101  80 100
M  END
> <chiral flag>
0

> <version>
0

> <s_m_source_file>
/data/baiqing/PycharmProjects/Reinvent-master-3.2/result/LINK_invent/BTK/process_docking_weight1_custom_product_contain_oxygen_bond_distance_aromatic_linkinvent_7_9_3/rearranged_h_0032.sdf

> <i_m_source_file_index>
89

> <r_mmod_Potential_Energy-OPLS-2005>
1036.96179199219

> <r_mmod_Stretch_Energy-OPLS-2005>
450.001586914062

> <r_mmod_Bend_Energy-OPLS-2005>
408.375518798828

> <r_mmod_Torsional_Energy-OPLS-2005>
224.552093505859

> <r_mmod_Improper_Torsional_Energy-OPLS-2005>
9.12857913970947

> <r_mmod_Van_der_Waal_Energy-OPLS-2005>
135.528701782227

> <r_mmod_Electrostatic_Energy-OPLS-2005>
-376.728210449219

> <r_mmod_Solvation_Energy-OPLS-2005>
-206.896423339844

> <b_mmod_Minimization_Converged-OPLS-2005>
0

> <r_mmod_RMS_Derivative-OPLS-2005>
2.41532778739929

$$$$
89
                    3D
 Structure written by MMmdl.
161170  0  0  1  0            999 V2000
  -30.5645  -14.8043   20.4220 C   0  0  0  0  0  0
  -30.4403  -12.4804   19.4939 C   0  0  0  0  0  0
  -29.5182  -12.5052   18.2532 C   0  0  0  0  0  0
  -28.0460  -12.3093   18.6654 C   0  0  0  0  0  0
  -27.6422  -13.2045   19.8653 C   0  0  2  0  0  0
  -28.6887  -13.1717   21.0015 C   0  0  0  0  0  0
  -25.2538  -13.8115   20.5750 C   0  0  0  0  0  0
  -24.1795  -13.0398   20.9218 C   0  0  0  0  0  0
  -24.6355  -11.6867   20.8772 C   0  0  0  0  0  0
  -23.9031  -10.4266   21.0426 C   0  0  0  0  0  0
  -24.3598   -9.4183   21.9196 C   0  0  0  0  0  0
  -23.6274   -8.2222   22.0757 C   0  0  0  0  0  0
  -22.4256   -8.0270   21.3546 C   0  0  0  0  0  0
  -21.9884   -9.0247   20.4656 C   0  0  0  0  0  0
  -22.7212  -10.2123   20.3069 C   0  0  0  0  0  0
  -21.6839   -6.0731   22.5281 C   0  0  0  0  0  0
  -21.4010   -6.5637   23.8216 C   0  0  0  0  0  0
  -21.3655   -5.6789   24.9179 C   0  0  0  0  0  0
  -21.6039   -4.3052   24.7229 C   0  0  0  0  0  0
  -21.8821   -3.8146   23.4350 C   0  0  0  0  0  0
  -21.9188   -4.6961   22.3406 C   0  0  0  0  0  0
  -22.7826  -13.5218   21.1863 C   0  0  0  0  0  0
  -22.1660   -4.2152   21.0982 F   0  0  0  0  0  0
  -21.5624   -3.4535   25.7739 F   0  0  0  0  0  0
  -29.9864  -13.5478   20.4204 N   0  0  0  0  0  0
  -26.2934  -12.9254   20.3381 N   0  0  0  0  0  0
  -25.9278  -11.6428   20.5814 N   0  0  0  0  0  0
  -22.0454  -12.8236   22.0421 N   0  0  0  0  0  0
  -25.4245  -15.1841   20.4223 N   0  0  0  0  0  0
  -31.7230  -14.9348   20.0145 O   0  0  0  0  0  0
  -21.6620   -6.8870   21.4241 O   0  0  0  0  0  0
  -22.3531  -14.5531   20.6701 O   0  0  0  0  0  0
  -24.6297  -31.8507   23.1926 C   0  0  0  0  0  0
  -25.9118  -32.4731   23.8290 C   0  0  1  0  0  0
  -27.2433  -27.2566   20.1310 C   0  0  0  0  0  0
  -25.5913  -33.8534   24.2214 N   0  0  0  0  0  0
  -23.4298  -30.4659   21.5327 C   0  0  2  0  0  0
  -24.8836  -28.9019   20.0988 C   0  0  0  0  0  0
  -22.7501  -29.4562   22.4880 C   0  0  0  0  0  0
  -18.0290  -28.1394   22.8480 C   0  0  0  0  0  0
  -24.1495  -36.7277   23.2644 C   0  0  0  0  0  0
  -25.9714  -30.7578   21.3765 C   0  0  0  0  0  0
  -26.0443  -29.3797   20.7165 C   0  0  0  0  0  0
  -27.2163  -28.5640   20.7253 C   0  0  0  0  0  0
  -26.0688  -26.8372   19.4747 C   0  0  0  0  0  0
  -24.9014  -27.6415   19.4670 C   0  0  0  0  0  0
  -23.6502  -29.7880   20.1499 C   0  0  0  0  0  0
  -25.4125  -36.3060   24.0321 C   0  0  1  0  0  0
  -20.5890  -28.3701   23.1264 C   0  0  2  0  0  0
  -20.6777  -26.9416   22.5411 C   0  0  0  0  0  0
  -19.5754  -26.6386   21.5212 C   0  0  0  0  0  0
  -18.1931  -26.7935   22.1618 C   0  0  0  0  0  0
  -19.1543  -28.8866   23.2867 C   0  0  0  0  0  0
  -18.9468  -30.1463   23.8891 C   0  0  0  0  0  0
  -17.6466  -30.6592   24.0564 C   0  0  0  0  0  0
  -25.9061  -34.9427   23.5078 C   0  0  0  0  0  0
  -16.5356  -29.9088   23.6338 C   0  0  0  0  0  0
  -16.7276  -28.6507   23.0357 C   0  0  0  0  0  0
  -26.4492  -31.6581   25.0702 C   0  0  0  0  0  0
  -25.3711  -31.3747   26.1425 C   0  0  0  0  0  0
  -27.0356  -30.2991   24.6237 C   0  0  0  0  0  0
  -27.6039  -32.4347   25.7468 C   0  0  0  0  0  0
  -27.5582  -37.1794   24.8460 C   0  0  0  0  0  0
  -21.4205  -29.3031   22.3634 N   0  0  0  0  0  0
  -26.4299  -37.3758   23.9402 N   0  0  0  0  0  0
  -24.6950  -31.0453   22.0901 N   0  0  0  0  0  0
  -23.4189  -28.8131   23.3013 O   0  0  0  0  0  0
  -28.3685  -26.4229   20.3070 O   0  0  0  0  0  0
  -26.5645  -34.8910   22.4656 O   0  0  0  0  0  0
  -23.5443  -32.1338   23.7214 O   0  0  0  0  0  0
  -28.0340  -19.4714   19.0144 C   0  0  0  0  0  0
  -28.3454  -17.0508   19.2179 C   0  0  0  0  0  0
  -29.1353  -19.7360   19.8506 C   0  0  0  0  0  0
  -29.8011  -18.5618   20.4447 C   0  0  0  0  0  0
  -29.4022  -17.1775   20.1452 C   0  0  0  0  0  0
  -27.6619  -18.1585   18.6842 C   0  0  0  0  0  0
  -29.9881  -22.9410   21.4840 C   0  0  0  0  0  0
  -30.3401  -24.4369   21.5189 C   0  0  0  0  0  0
  -30.2280  -25.0720   20.1126 C   0  0  0  0  0  0
  -28.1991  -23.6038   19.9671 C   0  0  0  0  0  0
  -28.7570  -25.1151   19.6718 C   0  0  1  0  0  0
  -30.9659  -18.7911   21.3871 C   0  0  0  0  0  0
  -29.6577  -21.2518   19.7619 C   0  0  0  0  0  0
  -29.1612  -22.5153   20.5010 N   0  0  0  0  0  0
  -29.8072  -15.9030   20.8277 N   0  0  0  0  0  0
  -30.5814  -22.1742   22.2468 O   0  0  0  0  0  0
  -26.3582  -17.8985   17.5842 Cl  0  0  0  0  0  0
  -31.4817  -12.6111   19.1942 H   0  0  0  0  0  0
  -30.3977  -11.5086   19.9878 H   0  0  0  0  0  0
  -29.8152  -11.7268   17.5492 H   0  0  0  0  0  0
  -29.6319  -13.4546   17.7276 H   0  0  0  0  0  0
  -27.9145  -11.2601   18.9316 H   0  0  0  0  0  0
  -27.3871  -12.4920   17.8157 H   0  0  0  0  0  0
  -27.6200  -14.2089   19.4723 H   0  0  0  0  0  0
  -28.7438  -12.1793   21.4506 H   0  0  0  0  0  0
  -28.4053  -13.8501   21.8077 H   0  0  0  0  0  0
  -25.2747   -9.5653   22.4768 H   0  0  0  0  0  0
  -23.9988   -7.4600   22.7459 H   0  0  0  0  0  0
  -21.0817   -8.8767   19.8957 H   0  0  0  0  0  0
  -22.3678  -10.9671   19.6184 H   0  0  0  0  0  0
  -21.2006   -7.6146   23.9724 H   0  0  0  0  0  0
  -21.1471   -6.0519   25.9083 H   0  0  0  0  0  0
  -22.0604   -2.7610   23.2847 H   0  0  0  0  0  0
  -22.4056  -11.9908   22.4830 H   0  0  0  0  0  0
  -21.1083  -13.1293   22.2624 H   0  0  0  0  0  0
  -24.6522  -15.8322   20.5317 H   0  0  0  0  0  0
  -26.2770  -15.6344   20.1200 H   0  0  0  0  0  0
  -26.7180  -32.5367   23.1023 H   0  0  0  0  0  0
  -25.0052  -33.9668   25.0357 H   0  0  0  0  0  0
  -22.7266  -31.2874   21.3802 H   0  0  0  0  0  0
  -23.3760  -35.9606   23.3302 H   0  0  0  0  0  0
  -24.3581  -36.8909   22.2058 H   0  0  0  0  0  0
  -23.7250  -37.6474   23.6678 H   0  0  0  0  0  0
  -26.1194  -31.5210   20.6109 H   0  0  0  0  0  0
  -26.8440  -30.8017   22.0171 H   0  0  0  0  0  0
  -28.1006  -28.9164   21.2378 H   0  0  0  0  0  0
  -26.0350  -25.8627   19.0093 H   0  0  0  0  0  0
  -24.0099  -27.2715   18.9791 H   0  0  0  0  0  0
  -23.7706  -30.5611   19.3898 H   0  0  0  0  0  0
  -22.7706  -29.2168   19.8495 H   0  0  0  0  0  0
  -25.1314  -36.1900   25.0814 H   0  0  0  0  0  0
  -20.9986  -28.3294   24.1382 H   0  0  0  0  0  0
  -20.5680  -26.2311   23.3619 H   0  0  0  0  0  0
  -21.6644  -26.7441   22.1202 H   0  0  0  0  0  0
  -19.6917  -25.6297   21.1244 H   0  0  0  0  0  0
  -19.6697  -27.3195   20.6741 H   0  0  0  0  0  0
  -17.4205  -26.6688   21.4015 H   0  0  0  0  0  0
  -18.0324  -26.0077   22.9014 H   0  0  0  0  0  0
  -19.7946  -30.7279   24.2255 H   0  0  0  0  0  0
  -17.5024  -31.6269   24.5173 H   0  0  0  0  0  0
  -15.5357  -30.2990   23.7672 H   0  0  0  0  0  0
  -15.8674  -28.0826   22.7080 H   0  0  0  0  0  0
  -24.5869  -30.7123   25.7746 H   0  0  0  0  0  0
  -24.8927  -32.2926   26.4849 H   0  0  0  0  0  0
  -25.8015  -30.8912   27.0204 H   0  0  0  0  0  0
  -26.2956  -29.6720   24.1253 H   0  0  0  0  0  0
  -27.4007  -29.7282   25.4786 H   0  0  0  0  0  0
  -27.8845  -30.4251   23.9512 H   0  0  0  0  0  0
  -27.2630  -33.3638   26.2046 H   0  0  0  0  0  0
  -28.3831  -32.6933   25.0288 H   0  0  0  0  0  0
  -28.0735  -31.8491   26.5379 H   0  0  0  0  0  0
  -28.2599  -38.0092   24.7505 H   0  0  0  0  0  0
  -28.1083  -36.2621   24.6294 H   0  0  0  0  0  0
  -27.2298  -37.1450   25.8863 H   0  0  0  0  0  0
  -20.9403  -29.8717   21.6802 H   0  0  0  0  0  0
  -26.0175  -38.2834   24.1396 H   0  0  0  0  0  0
  -27.5157  -20.2895   18.5346 H   0  0  0  0  0  0
  -28.0092  -16.0843   18.9000 H   0  0  0  0  0  0
  -31.3600  -24.5464   21.8886 H   0  0  0  0  0  0
  -29.6901  -24.9453   22.2313 H   0  0  0  0  0  0
  -30.8078  -24.4827   19.3996 H   0  0  0  0  0  0
  -30.6769  -26.0660   20.0980 H   0  0  0  0  0  0
  -27.7387  -23.2201   19.0560 H   0  0  0  0  0  0
  -27.3797  -23.6833   20.6818 H   0  0  0  0  0  0
  -28.7266  -25.2830   18.5945 H   0  0  0  0  0  0
  -31.8223  -19.1909   20.8438 H   0  0  0  0  0  0
  -31.2808  -17.8702   21.8779 H   0  0  0  0  0  0
  -30.6877  -19.5006   22.1659 H   0  0  0  0  0  0
  -29.5645  -21.5203   18.7086 H   0  0  0  0  0  0
  -30.7422  -21.1839   19.8712 H   0  0  0  0  0  0
  -29.0511  -15.5547   21.3984 H   0  0  0  0  0  0
  1 25  1  0  0  0
  1 30  2  0  0  0
  1 85  1  0  0  0
  2  3  1  0  0  0
  2 25  1  0  0  0
  2 88  1  0  0  0
  2 89  1  0  0  0
  3  4  1  0  0  0
  3 90  1  0  0  0
  3 91  1  0  0  0
  4  5  1  0  0  0
  4 92  1  0  0  0
  4 93  1  0  0  0
  5  6  1  0  0  0
  5 26  1  0  0  0
  5 94  1  0  0  0
  6 25  1  0  0  0
  6 95  1  0  0  0
  6 96  1  0  0  0
  7  8  2  0  0  0
  7 26  1  0  0  0
  7 29  1  0  0  0
  8  9  1  0  0  0
  8 22  1  0  0  0
  9 10  1  0  0  0
  9 27  2  0  0  0
 10 11  2  0  0  0
 10 15  1  0  0  0
 11 12  1  0  0  0
 11 97  1  0  0  0
 12 13  2  0  0  0
 12 98  1  0  0  0
 13 14  1  0  0  0
 13 31  1  0  0  0
 14 15  2  0  0  0
 14 99  1  0  0  0
 15100  1  0  0  0
 16 17  2  0  0  0
 16 21  1  0  0  0
 16 31  1  0  0  0
 17 18  1  0  0  0
 17101  1  0  0  0
 18 19  2  0  0  0
 18102  1  0  0  0
 19 20  1  0  0  0
 19 24  1  0  0  0
 20 21  2  0  0  0
 20103  1  0  0  0
 21 23  1  0  0  0
 22 28  1  0  0  0
 22 32  2  0  0  0
 26 27  1  0  0  0
 28104  1  0  0  0
 28105  1  0  0  0
 29106  1  0  0  0
 29107  1  0  0  0
 33 34  1  0  0  0
 33 66  1  0  0  0
 33 70  2  0  0  0
 34 36  1  0  0  0
 34 59  1  0  0  0
 34108  1  0  0  0
 35 44  2  0  0  0
 35 45  1  0  0  0
 35 68  1  0  0  0
 36 56  1  0  0  0
 36109  1  0  0  0
 37 39  1  0  0  0
 37 47  1  0  0  0
 37 66  1  0  0  0
 37110  1  0  0  0
 38 43  2  0  0  0
 38 46  1  0  0  0
 38 47  1  0  0  0
 39 64  1  0  0  0
 39 67  2  0  0  0
 40 52  1  0  0  0
 40 53  2  0  0  0
 40 58  1  0  0  0
 41111  1  0  0  0
 41112  1  0  0  0
 41113  1  0  0  0
 41 48  1  0  0  0
 42 43  1  0  0  0
 42 66  1  0  0  0
 42114  1  0  0  0
 42115  1  0  0  0
 43 44  1  0  0  0
 44116  1  0  0  0
 45 46  2  0  0  0
 45117  1  0  0  0
 46118  1  0  0  0
 47119  1  0  0  0
 47120  1  0  0  0
 48 56  1  0  0  0
 48 65  1  0  0  0
 48121  1  0  0  0
 49 50  1  0  0  0
 49 53  1  0  0  0
 49 64  1  0  0  0
 49122  1  0  0  0
 50 51  1  0  0  0
 50123  1  0  0  0
 50124  1  0  0  0
 51 52  1  0  0  0
 51125  1  0  0  0
 51126  1  0  0  0
 52127  1  0  0  0
 52128  1  0  0  0
 53 54  1  0  0  0
 54 55  2  0  0  0
 54129  1  0  0  0
 55 57  1  0  0  0
 55130  1  0  0  0
 56 69  2  0  0  0
 57 58  2  0  0  0
 57131  1  0  0  0
 58132  1  0  0  0
 59 60  1  0  0  0
 59 61  1  0  0  0
 59 62  1  0  0  0
 60133  1  0  0  0
 60134  1  0  0  0
 60135  1  0  0  0
 61136  1  0  0  0
 61137  1  0  0  0
 61138  1  0  0  0
 62139  1  0  0  0
 62140  1  0  0  0
 62141  1  0  0  0
 63 65  1  0  0  0
 63142  1  0  0  0
 63143  1  0  0  0
 63144  1  0  0  0
 64145  1  0  0  0
 65146  1  0  0  0
 68 81  1  0  0  0
 71 73  2  0  0  0
 71 76  1  0  0  0
 71147  1  0  0  0
 72 75  1  0  0  0
 72 76  2  0  0  0
 72148  1  0  0  0
 73 74  1  0  0  0
 73 83  1  0  0  0
 74 75  2  0  0  0
 74 82  1  0  0  0
 75 85  1  0  0  0
 76 87  1  0  0  0
 77 78  1  0  0  0
 77 84  1  0  0  0
 77 86  2  0  0  0
 78 79  1  0  0  0
 78149  1  0  0  0
 78150  1  0  0  0
 79 81  1  0  0  0
 79151  1  0  0  0
 79152  1  0  0  0
 80 81  1  0  0  0
 80 84  1  0  0  0
 80153  1  0  0  0
 80154  1  0  0  0
 81155  1  0  0  0
 82156  1  0  0  0
 82157  1  0  0  0
 82158  1  0  0  0
 83 84  1  0  0  0
 83159  1  0  0  0
 83160  1  0  0  0
 85161  1  0  0  0
M  ISO  4   1 100  68 101  81 101  85 100
M  END
> <chiral flag>
0

> <version>
0

> <s_m_source_file>
/data/baiqing/PycharmProjects/Reinvent-master-3.2/result/LINK_invent/BTK/process_docking_weight1_custom_product_contain_oxygen_bond_distance_aromatic_linkinvent_7_9_3/rearranged_h_0032.sdf

> <i_m_source_file_index>
90

> <r_mmod_Potential_Energy-OPLS-2005>
356.057189941406

> <r_mmod_Stretch_Energy-OPLS-2005>
153.095764160156

> <r_mmod_Bend_Energy-OPLS-2005>
277.631378173828

> <r_mmod_Torsional_Energy-OPLS-2005>
321.378784179688

> <r_mmod_Improper_Torsional_Energy-OPLS-2005>
11.6521148681641

> <r_mmod_Van_der_Waal_Energy-OPLS-2005>
135.488891601562

> <r_mmod_Electrostatic_Energy-OPLS-2005>
-417.687225341797

> <r_mmod_Solvation_Energy-OPLS-2005>
-230.887649536133

> <b_mmod_Minimization_Converged-OPLS-2005>
0

> <r_mmod_RMS_Derivative-OPLS-2005>
1.08584105968475

$$$$
90
                    3D
 Structure written by MMmdl.
153161  0  0  1  0            999 V2000
  -30.4808  -15.1923   20.3760 C   0  0  0  0  0  0
  -30.4383  -12.7583   19.5201 C   0  0  0  0  0  0
  -29.5312  -12.5553   18.2814 C   0  0  0  0  0  0
  -28.0763  -12.2971   18.7092 C   0  0  0  0  0  0
  -27.6130  -13.2711   19.8225 C   0  0  2  0  0  0
  -28.6508  -13.4253   20.9554 C   0  0  0  0  0  0
  -25.2393  -13.8249   20.5739 C   0  0  0  0  0  0
  -24.1739  -13.0440   20.9251 C   0  0  0  0  0  0
  -24.6398  -11.6937   20.8760 C   0  0  0  0  0  0
  -23.9106  -10.4293   21.0407 C   0  0  0  0  0  0
  -24.3646   -9.4197   21.9184 C   0  0  0  0  0  0
  -23.6303   -8.2242   22.0761 C   0  0  0  0  0  0
  -22.4281   -8.0284   21.3551 C   0  0  0  0  0  0
  -21.9932   -9.0260   20.4646 C   0  0  0  0  0  0
  -22.7278  -10.2129   20.3053 C   0  0  0  0  0  0
  -21.6853   -6.0735   22.5274 C   0  0  0  0  0  0
  -21.4017   -6.5640   23.8203 C   0  0  0  0  0  0
  -21.3658   -5.6784   24.9164 C   0  0  0  0  0  0
  -21.6045   -4.3050   24.7209 C   0  0  0  0  0  0
  -21.8819   -3.8145   23.4329 C   0  0  0  0  0  0
  -21.9195   -4.6968   22.3386 C   0  0  0  0  0  0
  -22.7754  -13.5189   21.1875 C   0  0  0  0  0  0
  -22.1658   -4.2152   21.0965 F   0  0  0  0  0  0
  -21.5629   -3.4532   25.7723 F   0  0  0  0  0  0
  -29.8929  -13.9034   20.3287 N   0  0  0  0  0  0
  -26.2824  -12.9519   20.3223 N   0  0  0  0  0  0
  -25.9337  -11.6632   20.5734 N   0  0  0  0  0  0
  -22.0423  -12.8171   22.0438 N   0  0  0  0  0  0
  -25.4032  -15.1982   20.4164 N   0  0  0  0  0  0
  -31.7013  -15.1848   20.1701 O   0  0  0  0  0  0
  -21.6644   -6.8882   21.4236 O   0  0  0  0  0  0
  -22.3427  -14.5483   20.6705 O   0  0  0  0  0  0
  -24.6591  -31.8288   23.1751 C   0  0  0  0  0  0
  -25.9287  -32.4612   23.8205 C   0  0  1  0  0  0
  -27.2185  -26.9804   20.1588 C   0  0  0  0  0  0
  -25.5990  -33.8437   24.2118 N   0  0  0  0  0  0
  -23.4711  -30.4438   21.5242 C   0  0  2  0  0  0
  -24.9236  -28.8459   20.1091 C   0  0  0  0  0  0
  -22.7646  -29.4473   22.4810 C   0  0  0  0  0  0
  -18.0314  -28.1421   22.8465 C   0  0  0  0  0  0
  -24.1488  -36.7211   23.2645 C   0  0  0  0  0  0
  -26.0394  -30.6520   21.3970 C   0  0  0  0  0  0
  -26.1087  -29.2481   20.7393 C   0  0  0  0  0  0
  -27.2507  -28.3343   20.7453 C   0  0  0  0  0  0
  -26.0042  -26.7269   19.4786 C   0  0  0  0  0  0
  -24.8940  -27.6030   19.4622 C   0  0  0  0  0  0
  -23.7067  -29.7653   20.1488 C   0  0  0  0  0  0
  -25.4125  -36.2985   24.0308 C   0  0  1  0  0  0
  -20.5937  -28.3744   23.1218 C   0  0  2  0  0  0
  -20.6797  -26.9440   22.5424 C   0  0  0  0  0  0
  -19.5771  -26.6385   21.5229 C   0  0  0  0  0  0
  -18.1947  -26.7959   22.1619 C   0  0  0  0  0  0
  -19.1577  -28.8902   23.2834 C   0  0  0  0  0  0
  -18.9489  -30.1490   23.8867 C   0  0  0  0  0  0
  -17.6481  -30.6612   24.0552 C   0  0  0  0  0  0
  -25.9099  -34.9364   23.5026 C   0  0  0  0  0  0
  -16.5372  -29.9098   23.6348 C   0  0  0  0  0  0
  -16.7296  -28.6516   23.0362 C   0  0  0  0  0  0
  -26.4569  -31.6535   25.0688 C   0  0  0  0  0  0
  -25.3713  -31.3763   26.1351 C   0  0  0  0  0  0
  -27.0447  -30.2919   24.6345 C   0  0  0  0  0  0
  -27.6110  -32.4310   25.7469 C   0  0  0  0  0  0
  -27.5584  -37.1736   24.8448 C   0  0  0  0  0  0
  -21.4317  -29.3047   22.3564 N   0  0  0  0  0  0
  -26.4258  -37.3730   23.9440 N   0  0  0  0  0  0
  -24.7446  -30.9990   22.0865 N   0  0  0  0  0  0
  -23.4206  -28.8036   23.3038 O   0  0  0  0  0  0
  -28.2121  -25.8799   20.2318 O   0  0  0  0  0  0
  -26.5700  -34.8877   22.4616 O   0  0  0  0  0  0
  -23.5666  -32.1247   23.6859 O   0  0  0  0  0  0
  -29.5179  -20.5094   19.1564 C   0  0  0  0  0  0
  -28.5276  -21.8826   21.2913 C   0  0  0  0  0  0
  -29.1268  -21.9398   19.0614 C   0  0  0  0  0  0
  -28.9206  -20.4485   21.3844 C   0  0  0  0  0  0
  -29.4454  -19.6169   20.3036 C   0  0  0  0  0  0
  -28.5985  -22.7722   20.1401 C   0  0  0  0  0  0
  -29.2615  -22.5816   17.6885 C   0  0  0  0  0  0
  -28.7790  -19.7983   22.7491 C   0  0  0  0  0  0
  -30.1903  -18.0464   20.3866 C   0  0  0  0  0  0
  -27.8317  -24.3230   19.9721 C   0  0  0  0  0  0
  -29.7453  -16.4638   20.4484 N   0  0  0  0  0  0
  -31.4603  -12.9488   19.1889 H   0  0  0  0  0  0
  -30.4900  -11.8490   20.1207 H   0  0  0  0  0  0
  -29.8976  -11.7262   17.6759 H   0  0  0  0  0  0
  -29.5751  -13.4422   17.6467 H   0  0  0  0  0  0
  -28.0187  -11.2708   19.0757 H   0  0  0  0  0  0
  -27.4064  -12.3509   17.8502 H   0  0  0  0  0  0
  -27.5356  -14.2416   19.3342 H   0  0  0  0  0  0
  -28.7989  -12.4872   21.4902 H   0  0  0  0  0  0
  -28.3026  -14.1520   21.6906 H   0  0  0  0  0  0
  -25.2796   -9.5660   22.4754 H   0  0  0  0  0  0
  -23.9996   -7.4635   22.7487 H   0  0  0  0  0  0
  -21.0866   -8.8787   19.8949 H   0  0  0  0  0  0
  -22.3751  -10.9666   19.6147 H   0  0  0  0  0  0
  -21.2018   -7.6146   23.9708 H   0  0  0  0  0  0
  -21.1480   -6.0514   25.9062 H   0  0  0  0  0  0
  -22.0609   -2.7611   23.2821 H   0  0  0  0  0  0
  -22.4058  -11.9832   22.4820 H   0  0  0  0  0  0
  -21.1035  -13.1166   22.2661 H   0  0  0  0  0  0
  -24.6354  -15.8500   20.5377 H   0  0  0  0  0  0
  -26.2447  -15.6409   20.0721 H   0  0  0  0  0  0
  -26.7338  -32.5160   23.0906 H   0  0  0  0  0  0
  -25.0127  -33.9548   25.0251 H   0  0  0  0  0  0
  -22.7828  -31.2747   21.3560 H   0  0  0  0  0  0
  -23.3781  -35.9516   23.3239 H   0  0  0  0  0  0
  -24.3598  -36.8914   22.2079 H   0  0  0  0  0  0
  -23.7193  -37.6362   23.6730 H   0  0  0  0  0  0
  -26.2081  -31.3949   20.6156 H   0  0  0  0  0  0
  -26.9062  -30.7132   22.0435 H   0  0  0  0  0  0
  -28.1429  -28.6359   21.2743 H   0  0  0  0  0  0
  -25.8673  -25.7840   18.9714 H   0  0  0  0  0  0
  -23.9946  -27.2887   18.9525 H   0  0  0  0  0  0
  -23.8527  -30.5348   19.3905 H   0  0  0  0  0  0
  -22.8188  -29.2161   19.8335 H   0  0  0  0  0  0
  -25.1308  -36.1791   25.0800 H   0  0  0  0  0  0
  -21.0013  -28.3329   24.1346 H   0  0  0  0  0  0
  -20.5694  -26.2366   23.3646 H   0  0  0  0  0  0
  -21.6660  -26.7441   22.1217 H   0  0  0  0  0  0
  -19.6952  -25.6295   21.1277 H   0  0  0  0  0  0
  -19.6726  -27.3176   20.6747 H   0  0  0  0  0  0
  -17.4231  -26.6714   21.3994 H   0  0  0  0  0  0
  -18.0309  -26.0117   22.9020 H   0  0  0  0  0  0
  -19.7964  -30.7315   24.2219 H   0  0  0  0  0  0
  -17.5035  -31.6283   24.5164 H   0  0  0  0  0  0
  -15.5370  -30.2988   23.7702 H   0  0  0  0  0  0
  -15.8683  -28.0820   22.7118 H   0  0  0  0  0  0
  -24.5966  -30.7021   25.7663 H   0  0  0  0  0  0
  -24.8812  -32.2948   26.4608 H   0  0  0  0  0  0
  -25.7964  -30.9074   27.0227 H   0  0  0  0  0  0
  -26.3091  -29.6617   24.1325 H   0  0  0  0  0  0
  -27.4006  -29.7257   25.4961 H   0  0  0  0  0  0
  -27.9015  -30.4146   23.9713 H   0  0  0  0  0  0
  -27.2754  -33.3698   26.1890 H   0  0  0  0  0  0
  -28.3988  -32.6716   25.0308 H   0  0  0  0  0  0
  -28.0679  -31.8509   26.5491 H   0  0  0  0  0  0
  -28.2510  -38.0121   24.7627 H   0  0  0  0  0  0
  -28.1166  -36.2667   24.6094 H   0  0  0  0  0  0
  -27.2334  -37.1144   25.8849 H   0  0  0  0  0  0
  -20.9558  -29.8730   21.6692 H   0  0  0  0  0  0
  -26.0103  -38.2766   24.1553 H   0  0  0  0  0  0
  -29.9305  -20.0651   18.2612 H   0  0  0  0  0  0
  -28.1096  -22.3284   22.1837 H   0  0  0  0  0  0
  -29.8614  -21.9713   17.0113 H   0  0  0  0  0  0
  -29.7451  -23.5565   17.7593 H   0  0  0  0  0  0
  -28.2818  -22.7153   17.2286 H   0  0  0  0  0  0
  -28.0560  -20.3323   23.3679 H   0  0  0  0  0  0
  -29.7343  -19.8018   23.2750 H   0  0  0  0  0  0
  -28.4380  -18.7665   22.6599 H   0  0  0  0  0  0
  -30.8378  -18.1411   21.2581 H   0  0  0  0  0  0
  -30.8933  -18.0654   19.5527 H   0  0  0  0  0  0
  -26.8997  -24.1905   20.5228 H   0  0  0  0  0  0
  -27.5208  -24.3213   18.9286 H   0  0  0  0  0  0
  -28.7500  -16.3314   20.5552 H   0  0  0  0  0  0
  1 25  1  0  0  0
  1 30  2  0  0  0
  1 81  1  0  0  0
  2  3  1  0  0  0
  2 25  1  0  0  0
  2 82  1  0  0  0
  2 83  1  0  0  0
  3  4  1  0  0  0
  3 84  1  0  0  0
  3 85  1  0  0  0
  4  5  1  0  0  0
  4 86  1  0  0  0
  4 87  1  0  0  0
  5  6  1  0  0  0
  5 26  1  0  0  0
  5 88  1  0  0  0
  6 25  1  0  0  0
  6 89  1  0  0  0
  6 90  1  0  0  0
  7  8  2  0  0  0
  7 26  1  0  0  0
  7 29  1  0  0  0
  8  9  1  0  0  0
  8 22  1  0  0  0
  9 10  1  0  0  0
  9 27  2  0  0  0
 10 11  2  0  0  0
 10 15  1  0  0  0
 11 12  1  0  0  0
 11 91  1  0  0  0
 12 13  2  0  0  0
 12 92  1  0  0  0
 13 14  1  0  0  0
 13 31  1  0  0  0
 14 15  2  0  0  0
 14 93  1  0  0  0
 15 94  1  0  0  0
 16 17  2  0  0  0
 16 21  1  0  0  0
 16 31  1  0  0  0
 17 18  1  0  0  0
 17 95  1  0  0  0
 18 19  2  0  0  0
 18 96  1  0  0  0
 19 20  1  0  0  0
 19 24  1  0  0  0
 20 21  2  0  0  0
 20 97  1  0  0  0
 21 23  1  0  0  0
 22 28  1  0  0  0
 22 32  2  0  0  0
 26 27  1  0  0  0
 28 98  1  0  0  0
 28 99  1  0  0  0
 29100  1  0  0  0
 29101  1  0  0  0
 33 34  1  0  0  0
 33 66  1  0  0  0
 33 70  2  0  0  0
 34 36  1  0  0  0
 34 59  1  0  0  0
 34102  1  0  0  0
 35 44  2  0  0  0
 35 45  1  0  0  0
 35 68  1  0  0  0
 36 56  1  0  0  0
 36103  1  0  0  0
 37 39  1  0  0  0
 37 47  1  0  0  0
 37 66  1  0  0  0
 37104  1  0  0  0
 38 43  2  0  0  0
 38 46  1  0  0  0
 38 47  1  0  0  0
 39 64  1  0  0  0
 39 67  2  0  0  0
 40 52  1  0  0  0
 40 53  2  0  0  0
 40 58  1  0  0  0
 41105  1  0  0  0
 41106  1  0  0  0
 41107  1  0  0  0
 41 48  1  0  0  0
 42 43  1  0  0  0
 42 66  1  0  0  0
 42108  1  0  0  0
 42109  1  0  0  0
 43 44  1  0  0  0
 44110  1  0  0  0
 45 46  2  0  0  0
 45111  1  0  0  0
 46112  1  0  0  0
 47113  1  0  0  0
 47114  1  0  0  0
 48 56  1  0  0  0
 48 65  1  0  0  0
 48115  1  0  0  0
 49 50  1  0  0  0
 49 53  1  0  0  0
 49 64  1  0  0  0
 49116  1  0  0  0
 50 51  1  0  0  0
 50117  1  0  0  0
 50118  1  0  0  0
 51 52  1  0  0  0
 51119  1  0  0  0
 51120  1  0  0  0
 52121  1  0  0  0
 52122  1  0  0  0
 53 54  1  0  0  0
 54 55  2  0  0  0
 54123  1  0  0  0
 55 57  1  0  0  0
 55124  1  0  0  0
 56 69  2  0  0  0
 57 58  2  0  0  0
 57125  1  0  0  0
 58126  1  0  0  0
 59 60  1  0  0  0
 59 61  1  0  0  0
 59 62  1  0  0  0
 60127  1  0  0  0
 60128  1  0  0  0
 60129  1  0  0  0
 61130  1  0  0  0
 61131  1  0  0  0
 61132  1  0  0  0
 62133  1  0  0  0
 62134  1  0  0  0
 62135  1  0  0  0
 63 65  1  0  0  0
 63136  1  0  0  0
 63137  1  0  0  0
 63138  1  0  0  0
 64139  1  0  0  0
 65140  1  0  0  0
 68 80  1  0  0  0
 71 73  2  0  0  0
 71 75  1  0  0  0
 71141  1  0  0  0
 72 74  1  0  0  0
 72 76  2  0  0  0
 72142  1  0  0  0
 73 76  1  0  0  0
 73 77  1  0  0  0
 74 75  2  0  0  0
 74 78  1  0  0  0
 75 79  1  0  0  0
 76 80  1  0  0  0
 77143  1  0  0  0
 77144  1  0  0  0
 77145  1  0  0  0
 78146  1  0  0  0
 78147  1  0  0  0
 78148  1  0  0  0
 79 81  1  0  0  0
 79149  1  0  0  0
 79150  1  0  0  0
 80151  1  0  0  0
 80152  1  0  0  0
 81153  1  0  0  0
M  ISO  4   1 100  68 101  80 101  81 100
M  END
> <chiral flag>
0

> <version>
0

> <s_m_source_file>
/data/baiqing/PycharmProjects/Reinvent-master-3.2/result/LINK_invent/BTK/process_docking_weight1_custom_product_contain_oxygen_bond_distance_aromatic_linkinvent_7_9_3/rearranged_h_0032.sdf

> <i_m_source_file_index>
91

> <r_mmod_Potential_Energy-OPLS-2005>
1016.04241943359

> <r_mmod_Stretch_Energy-OPLS-2005>
449.231567382812

> <r_mmod_Bend_Energy-OPLS-2005>
407.587249755859

> <r_mmod_Torsional_Energy-OPLS-2005>
228.287170410156

> <r_mmod_Improper_Torsional_Energy-OPLS-2005>
9.82418441772461

> <r_mmod_Van_der_Waal_Energy-OPLS-2005>
132.39518737793

> <r_mmod_Electrostatic_Energy-OPLS-2005>
-387.583984375

> <r_mmod_Solvation_Energy-OPLS-2005>
-210.972778320312

> <b_mmod_Minimization_Converged-OPLS-2005>
0

> <r_mmod_RMS_Derivative-OPLS-2005>
2.38308024406433

$$$$
91
                    3D
 Structure written by MMmdl.
160169  0  0  1  0            999 V2000
  -30.5913  -14.7324   20.4736 C   0  0  0  0  0  0
  -30.4457  -12.4478   19.4663 C   0  0  0  0  0  0
  -29.5155  -12.5168   18.2339 C   0  0  0  0  0  0
  -28.0378  -12.3490   18.6425 C   0  0  0  0  0  0
  -27.6512  -13.2287   19.8610 C   0  0  2  0  0  0
  -28.6972  -13.1190   20.9922 C   0  0  0  0  0  0
  -25.2544  -13.8186   20.5700 C   0  0  0  0  0  0
  -24.1824  -13.0439   20.9194 C   0  0  0  0  0  0
  -24.6413  -11.6916   20.8737 C   0  0  0  0  0  0
  -23.9084  -10.4298   21.0400 C   0  0  0  0  0  0
  -24.3625   -9.4207   21.9174 C   0  0  0  0  0  0
  -23.6294   -8.2249   22.0750 C   0  0  0  0  0  0
  -22.4275   -8.0298   21.3544 C   0  0  0  0  0  0
  -21.9906   -9.0271   20.4646 C   0  0  0  0  0  0
  -22.7246  -10.2145   20.3052 C   0  0  0  0  0  0
  -21.6854   -6.0740   22.5273 C   0  0  0  0  0  0
  -21.4020   -6.5644   23.8213 C   0  0  0  0  0  0
  -21.3660   -5.6789   24.9169 C   0  0  0  0  0  0
  -21.6040   -4.3053   24.7222 C   0  0  0  0  0  0
  -21.8815   -3.8156   23.4339 C   0  0  0  0  0  0
  -21.9195   -4.6966   22.3392 C   0  0  0  0  0  0
  -22.7845  -13.5233   21.1850 C   0  0  0  0  0  0
  -22.1664   -4.2157   21.0966 F   0  0  0  0  0  0
  -21.5617   -3.4538   25.7735 F   0  0  0  0  0  0
  -30.0054  -13.4859   20.4250 N   0  0  0  0  0  0
  -26.2994  -12.9394   20.3319 N   0  0  0  0  0  0
  -25.9344  -11.6536   20.5745 N   0  0  0  0  0  0
  -22.0470  -12.8239   22.0410 N   0  0  0  0  0  0
  -25.4229  -15.1912   20.4135 N   0  0  0  0  0  0
  -31.7512  -14.8929   20.0817 O   0  0  0  0  0  0
  -21.6638   -6.8895   21.4243 O   0  0  0  0  0  0
  -22.3530  -14.5539   20.6699 O   0  0  0  0  0  0
  -24.6314  -31.8539   23.1951 C   0  0  0  0  0  0
  -25.9140  -32.4748   23.8298 C   0  0  1  0  0  0
  -27.2379  -27.2678   20.1173 C   0  0  0  0  0  0
  -25.5926  -33.8543   24.2240 N   0  0  0  0  0  0
  -23.4280  -30.4737   21.5406 C   0  0  2  0  0  0
  -24.8773  -28.9149   20.1111 C   0  0  0  0  0  0
  -22.7499  -29.4590   22.4923 C   0  0  0  0  0  0
  -18.0292  -28.1397   22.8478 C   0  0  0  0  0  0
  -24.1485  -36.7268   23.2633 C   0  0  0  0  0  0
  -25.9712  -30.7679   21.3717 C   0  0  0  0  0  0
  -26.0471  -29.3890   20.7167 C   0  0  0  0  0  0
  -27.2258  -28.5773   20.7078 C   0  0  0  0  0  0
  -26.0367  -26.8498   19.5004 C   0  0  0  0  0  0
  -24.8767  -27.6530   19.4950 C   0  0  0  0  0  0
  -23.6456  -29.8003   20.1591 C   0  0  0  0  0  0
  -25.4114  -36.3062   24.0323 C   0  0  1  0  0  0
  -20.5892  -28.3697   23.1276 C   0  0  2  0  0  0
  -20.6782  -26.9408   22.5419 C   0  0  0  0  0  0
  -19.5767  -26.6389   21.5208 C   0  0  0  0  0  0
  -18.1942  -26.7939   22.1609 C   0  0  0  0  0  0
  -19.1542  -28.8858   23.2875 C   0  0  0  0  0  0
  -18.9463  -30.1466   23.8900 C   0  0  0  0  0  0
  -17.6460  -30.6589   24.0562 C   0  0  0  0  0  0
  -25.9061  -34.9433   23.5090 C   0  0  0  0  0  0
  -16.5356  -29.9088   23.6324 C   0  0  0  0  0  0
  -16.7280  -28.6504   23.0343 C   0  0  0  0  0  0
  -26.4510  -31.6570   25.0683 C   0  0  0  0  0  0
  -25.3731  -31.3745   26.1408 C   0  0  0  0  0  0
  -27.0328  -30.2979   24.6146 C   0  0  0  0  0  0
  -27.6084  -32.4296   25.7451 C   0  0  0  0  0  0
  -27.5578  -37.1791   24.8459 C   0  0  0  0  0  0
  -21.4201  -29.3033   22.3656 N   0  0  0  0  0  0
  -26.4287  -37.3766   23.9407 N   0  0  0  0  0  0
  -24.6969  -31.0493   22.0936 N   0  0  0  0  0  0
  -23.4190  -28.8132   23.3022 O   0  0  0  0  0  0
  -28.3706  -26.4201   20.1615 O   0  0  0  0  0  0
  -26.5630  -34.8919   22.4659 O   0  0  0  0  0  0
  -23.5471  -32.1353   23.7254 O   0  0  0  0  0  0
  -30.6198  -18.0334   19.8372 C   0  0  0  0  0  0
  -30.5555  -19.4722   19.7682 C   0  0  0  0  0  0
  -29.6864  -20.2634   20.6017 C   0  0  0  0  0  0
  -28.8579  -19.4804   21.4756 C   0  0  0  0  0  0
  -29.8174  -17.2656   20.7251 C   0  0  0  0  0  0
  -28.9190  -18.0396   21.5146 C   0  0  0  0  0  0
  -27.9958  -23.7837   20.6427 C   0  0  0  0  0  0
  -29.6958  -24.2158   19.6578 C   0  0  0  0  0  0
  -28.3438  -24.9875   19.6979 C   0  0  2  0  0  0
  -31.4923  -20.1558   18.7837 C   0  0  0  0  0  0
  -27.8967  -20.1614   22.4452 C   0  0  0  0  0  0
  -29.8274  -21.8698   20.7312 C   0  0  0  0  0  0
  -29.7787  -15.7847   20.8463 N   0  0  0  0  0  0
  -29.0093  -22.9198   19.9552 N   0  3  1  0  0  0
  -27.8700  -17.1743   22.5913 Cl  0  0  0  0  0  0
  -31.4840  -12.5857   19.1608 H   0  0  0  0  0  0
  -30.3996  -11.4616   19.9297 H   0  0  0  0  0  0
  -29.7898  -11.7489   17.5091 H   0  0  0  0  0  0
  -29.6509  -13.4749   17.7295 H   0  0  0  0  0  0
  -27.8771  -11.2972   18.8805 H   0  0  0  0  0  0
  -27.3879  -12.5718   17.7957 H   0  0  0  0  0  0
  -27.6566  -14.2591   19.5042 H   0  0  0  0  0  0
  -28.7294  -12.1025   21.3861 H   0  0  0  0  0  0
  -28.4297  -13.7579   21.8350 H   0  0  0  0  0  0
  -25.2761   -9.5684   22.4757 H   0  0  0  0  0  0
  -24.0001   -7.4638   22.7470 H   0  0  0  0  0  0
  -21.0830   -8.8800   19.8956 H   0  0  0  0  0  0
  -22.3699  -10.9688   19.6181 H   0  0  0  0  0  0
  -21.2017   -7.6148   23.9719 H   0  0  0  0  0  0
  -21.1478   -6.0517   25.9074 H   0  0  0  0  0  0
  -22.0591   -2.7616   23.2836 H   0  0  0  0  0  0
  -22.4063  -11.9905   22.4814 H   0  0  0  0  0  0
  -21.1094  -13.1285   22.2587 H   0  0  0  0  0  0
  -24.6612  -15.8464   20.5469 H   0  0  0  0  0  0
  -26.2796  -15.6391   20.1155 H   0  0  0  0  0  0
  -26.7190  -32.5417   23.1028 H   0  0  0  0  0  0
  -25.0075  -33.9667   25.0383 H   0  0  0  0  0  0
  -22.7249  -31.2959   21.3920 H   0  0  0  0  0  0
  -23.3752  -35.9597   23.3321 H   0  0  0  0  0  0
  -24.3567  -36.8859   22.2040 H   0  0  0  0  0  0
  -23.7233  -37.6478   23.6637 H   0  0  0  0  0  0
  -26.1010  -31.5255   20.5982 H   0  0  0  0  0  0
  -26.8528  -30.8247   21.9982 H   0  0  0  0  0  0
  -28.1239  -28.9403   21.1875 H   0  0  0  0  0  0
  -25.9612  -25.8810   19.0310 H   0  0  0  0  0  0
  -23.9772  -27.2819   19.0231 H   0  0  0  0  0  0
  -23.7626  -30.5723   19.3978 H   0  0  0  0  0  0
  -22.7655  -29.2264   19.8635 H   0  0  0  0  0  0
  -25.1293  -36.1914   25.0814 H   0  0  0  0  0  0
  -20.9976  -28.3289   24.1399 H   0  0  0  0  0  0
  -20.5657  -26.2300   23.3623 H   0  0  0  0  0  0
  -21.6660  -26.7430   22.1230 H   0  0  0  0  0  0
  -19.6929  -25.6295   21.1244 H   0  0  0  0  0  0
  -19.6719  -27.3201   20.6738 H   0  0  0  0  0  0
  -17.4207  -26.6669   21.4021 H   0  0  0  0  0  0
  -18.0349  -26.0095   22.9015 H   0  0  0  0  0  0
  -19.7940  -30.7280   24.2271 H   0  0  0  0  0  0
  -17.5016  -31.6277   24.5159 H   0  0  0  0  0  0
  -15.5355  -30.2986   23.7659 H   0  0  0  0  0  0
  -15.8678  -28.0831   22.7054 H   0  0  0  0  0  0
  -24.5908  -30.7082   25.7747 H   0  0  0  0  0  0
  -24.8920  -32.2924   26.4794 H   0  0  0  0  0  0
  -25.8044  -30.8952   27.0199 H   0  0  0  0  0  0
  -26.2885  -29.6752   24.1158 H   0  0  0  0  0  0
  -27.3998  -29.7222   25.4652 H   0  0  0  0  0  0
  -27.8778  -30.4251   23.9374 H   0  0  0  0  0  0
  -27.2711  -33.3602   26.2027 H   0  0  0  0  0  0
  -28.3894  -32.6833   25.0270 H   0  0  0  0  0  0
  -28.0741  -31.8404   26.5358 H   0  0  0  0  0  0
  -28.2611  -38.0077   24.7499 H   0  0  0  0  0  0
  -28.1062  -36.2609   24.6294 H   0  0  0  0  0  0
  -27.2299  -37.1463   25.8864 H   0  0  0  0  0  0
  -20.9384  -29.8741   21.6851 H   0  0  0  0  0  0
  -26.0173  -38.2839   24.1422 H   0  0  0  0  0  0
  -31.3069  -17.5086   19.1874 H   0  0  0  0  0  0
  -26.9778  -23.4097   20.5344 H   0  0  0  0  0  0
  -28.2326  -23.9775   21.6908 H   0  0  0  0  0  0
  -30.3803  -24.5250   20.4513 H   0  0  0  0  0  0
  -30.2019  -24.2273   18.6921 H   0  0  0  0  0  0
  -27.8659  -24.8930   18.7208 H   0  0  0  0  0  0
  -31.9439  -19.4376   18.0978 H   0  0  0  0  0  0
  -32.3049  -20.6633   19.3057 H   0  0  0  0  0  0
  -30.9549  -20.8836   18.1749 H   0  0  0  0  0  0
  -27.9644  -21.2454   22.4680 H   0  0  0  0  0  0
  -28.0834  -19.8119   23.4616 H   0  0  0  0  0  0
  -26.8676  -19.9078   22.1897 H   0  0  0  0  0  0
  -30.8617  -22.0812   20.4652 H   0  0  0  0  0  0
  -29.8161  -22.1423   21.7852 H   0  0  0  0  0  0
  -28.9281  -15.4614   21.2830 H   0  0  0  0  0  0
  -28.6423  -22.5331   19.0990 H   0  0  0  0  0  0
  1 25  1  0  0  0
  1 30  2  0  0  0
  1 83  1  0  0  0
  2  3  1  0  0  0
  2 25  1  0  0  0
  2 86  1  0  0  0
  2 87  1  0  0  0
  3  4  1  0  0  0
  3 88  1  0  0  0
  3 89  1  0  0  0
  4  5  1  0  0  0
  4 90  1  0  0  0
  4 91  1  0  0  0
  5  6  1  0  0  0
  5 26  1  0  0  0
  5 92  1  0  0  0
  6 25  1  0  0  0
  6 93  1  0  0  0
  6 94  1  0  0  0
  7  8  2  0  0  0
  7 26  1  0  0  0
  7 29  1  0  0  0
  8  9  1  0  0  0
  8 22  1  0  0  0
  9 10  1  0  0  0
  9 27  2  0  0  0
 10 11  2  0  0  0
 10 15  1  0  0  0
 11 12  1  0  0  0
 11 95  1  0  0  0
 12 13  2  0  0  0
 12 96  1  0  0  0
 13 14  1  0  0  0
 13 31  1  0  0  0
 14 15  2  0  0  0
 14 97  1  0  0  0
 15 98  1  0  0  0
 16 17  2  0  0  0
 16 21  1  0  0  0
 16 31  1  0  0  0
 17 18  1  0  0  0
 17 99  1  0  0  0
 18 19  2  0  0  0
 18100  1  0  0  0
 19 20  1  0  0  0
 19 24  1  0  0  0
 20 21  2  0  0  0
 20101  1  0  0  0
 21 23  1  0  0  0
 22 28  1  0  0  0
 22 32  2  0  0  0
 26 27  1  0  0  0
 28102  1  0  0  0
 28103  1  0  0  0
 29104  1  0  0  0
 29105  1  0  0  0
 33 34  1  0  0  0
 33 66  1  0  0  0
 33 70  2  0  0  0
 34 36  1  0  0  0
 34 59  1  0  0  0
 34106  1  0  0  0
 35 44  2  0  0  0
 35 45  1  0  0  0
 35 68  1  0  0  0
 36 56  1  0  0  0
 36107  1  0  0  0
 37 39  1  0  0  0
 37 47  1  0  0  0
 37 66  1  0  0  0
 37108  1  0  0  0
 38 43  2  0  0  0
 38 46  1  0  0  0
 38 47  1  0  0  0
 39 64  1  0  0  0
 39 67  2  0  0  0
 40 52  1  0  0  0
 40 53  2  0  0  0
 40 58  1  0  0  0
 41109  1  0  0  0
 41110  1  0  0  0
 41111  1  0  0  0
 41 48  1  0  0  0
 42 43  1  0  0  0
 42 66  1  0  0  0
 42112  1  0  0  0
 42113  1  0  0  0
 43 44  1  0  0  0
 44114  1  0  0  0
 45 46  2  0  0  0
 45115  1  0  0  0
 46116  1  0  0  0
 47117  1  0  0  0
 47118  1  0  0  0
 48 56  1  0  0  0
 48 65  1  0  0  0
 48119  1  0  0  0
 49 50  1  0  0  0
 49 53  1  0  0  0
 49 64  1  0  0  0
 49120  1  0  0  0
 50 51  1  0  0  0
 50121  1  0  0  0
 50122  1  0  0  0
 51 52  1  0  0  0
 51123  1  0  0  0
 51124  1  0  0  0
 52125  1  0  0  0
 52126  1  0  0  0
 53 54  1  0  0  0
 54 55  2  0  0  0
 54127  1  0  0  0
 55 57  1  0  0  0
 55128  1  0  0  0
 56 69  2  0  0  0
 57 58  2  0  0  0
 57129  1  0  0  0
 58130  1  0  0  0
 59 60  1  0  0  0
 59 61  1  0  0  0
 59 62  1  0  0  0
 60131  1  0  0  0
 60132  1  0  0  0
 60133  1  0  0  0
 61134  1  0  0  0
 61135  1  0  0  0
 61136  1  0  0  0
 62137  1  0  0  0
 62138  1  0  0  0
 62139  1  0  0  0
 63 65  1  0  0  0
 63140  1  0  0  0
 63141  1  0  0  0
 63142  1  0  0  0
 64143  1  0  0  0
 65144  1  0  0  0
 68 79  1  0  0  0
 71 72  2  0  0  0
 71 75  1  0  0  0
 71145  1  0  0  0
 72 73  1  0  0  0
 72 80  1  0  0  0
 73 74  2  0  0  0
 73 82  1  0  0  0
 74 76  1  0  0  0
 74 81  1  0  0  0
 75 76  2  0  0  0
 75 83  1  0  0  0
 76 85  1  0  0  0
 77 79  1  0  0  0
 77 84  1  0  0  0
 77146  1  0  0  0
 77147  1  0  0  0
 78 79  1  0  0  0
 78 84  1  0  0  0
 78148  1  0  0  0
 78149  1  0  0  0
 79150  1  0  0  0
 80151  1  0  0  0
 80152  1  0  0  0
 80153  1  0  0  0
 81154  1  0  0  0
 81155  1  0  0  0
 81156  1  0  0  0
 82157  1  0  0  0
 82158  1  0  0  0
 82 84  1  0  0  0
 83159  1  0  0  0
 84160  1  0  0  0
M  CHG  1  84   1
M  ISO  4   1 100  68 101  79 101  83 100
M  END
> <chiral flag>
0

> <version>
0

> <s_m_source_file>
/data/baiqing/PycharmProjects/Reinvent-master-3.2/result/LINK_invent/BTK/process_docking_weight1_custom_product_contain_oxygen_bond_distance_aromatic_linkinvent_7_9_3/rearranged_h_0032.sdf

> <i_m_source_file_index>
92

> <r_mmod_Potential_Energy-OPLS-2005>
-35.7375526428223

> <r_mmod_Stretch_Energy-OPLS-2005>
117.933433532715

> <r_mmod_Bend_Energy-OPLS-2005>
209.605361938477

> <r_mmod_Torsional_Energy-OPLS-2005>
220.542434692383

> <r_mmod_Improper_Torsional_Energy-OPLS-2005>
4.60323858261108

> <r_mmod_Van_der_Waal_Energy-OPLS-2005>
141.55290222168

> <r_mmod_Electrostatic_Energy-OPLS-2005>
-331.174285888672

> <r_mmod_Solvation_Energy-OPLS-2005>
-474.711975097656

> <b_mmod_Minimization_Converged-OPLS-2005>
0

> <r_mmod_RMS_Derivative-OPLS-2005>
1.96358752250671

$$$$
92
                    3D
 Structure written by MMmdl.
150158  0  0  1  0            999 V2000
  -30.5810  -14.7580   20.4779 C   0  0  0  0  0  0
  -30.4467  -12.4636   19.4765 C   0  0  0  0  0  0
  -29.5199  -12.5281   18.2402 C   0  0  0  0  0  0
  -28.0432  -12.3462   18.6479 C   0  0  0  0  0  0
  -27.6506  -13.2302   19.8626 C   0  0  2  0  0  0
  -28.6953  -13.1309   20.9965 C   0  0  0  0  0  0
  -25.2547  -13.8201   20.5726 C   0  0  0  0  0  0
  -24.1824  -13.0445   20.9206 C   0  0  0  0  0  0
  -24.6412  -11.6919   20.8745 C   0  0  0  0  0  0
  -23.9085  -10.4291   21.0403 C   0  0  0  0  0  0
  -24.3628   -9.4208   21.9185 C   0  0  0  0  0  0
  -23.6297   -8.2247   22.0763 C   0  0  0  0  0  0
  -22.4277   -8.0288   21.3552 C   0  0  0  0  0  0
  -21.9917   -9.0259   20.4654 C   0  0  0  0  0  0
  -22.7252  -10.2132   20.3055 C   0  0  0  0  0  0
  -21.6856   -6.0742   22.5285 C   0  0  0  0  0  0
  -21.4012   -6.5636   23.8220 C   0  0  0  0  0  0
  -21.3660   -5.6785   24.9182 C   0  0  0  0  0  0
  -21.6044   -4.3052   24.7220 C   0  0  0  0  0  0
  -21.8816   -3.8150   23.4340 C   0  0  0  0  0  0
  -21.9189   -4.6970   22.3403 C   0  0  0  0  0  0
  -22.7841  -13.5238   21.1843 C   0  0  0  0  0  0
  -22.1657   -4.2164   21.0977 F   0  0  0  0  0  0
  -21.5631   -3.4528   25.7727 F   0  0  0  0  0  0
  -30.0008  -13.5061   20.4312 N   0  0  0  0  0  0
  -26.2984  -12.9402   20.3328 N   0  0  0  0  0  0
  -25.9348  -11.6545   20.5768 N   0  0  0  0  0  0
  -22.0456  -12.8258   22.0398 N   0  0  0  0  0  0
  -25.4250  -15.1929   20.4189 N   0  0  0  0  0  0
  -31.7436  -14.9086   20.0923 O   0  0  0  0  0  0
  -21.6638   -6.8886   21.4249 O   0  0  0  0  0  0
  -22.3528  -14.5533   20.6669 O   0  0  0  0  0  0
  -24.6346  -31.8526   23.1969 C   0  0  0  0  0  0
  -25.9162  -32.4739   23.8323 C   0  0  1  0  0  0
  -27.2222  -27.2406   20.1291 C   0  0  0  0  0  0
  -25.5948  -33.8538   24.2243 N   0  0  0  0  0  0
  -23.4319  -30.4755   21.5401 C   0  0  2  0  0  0
  -24.8804  -28.9228   20.1066 C   0  0  0  0  0  0
  -22.7516  -29.4592   22.4899 C   0  0  0  0  0  0
  -18.0296  -28.1383   22.8495 C   0  0  0  0  0  0
  -24.1490  -36.7286   23.2638 C   0  0  0  0  0  0
  -25.9804  -30.7590   21.3802 C   0  0  0  0  0  0
  -26.0531  -29.3804   20.7215 C   0  0  0  0  0  0
  -27.2246  -28.5523   20.7223 C   0  0  0  0  0  0
  -26.0254  -26.8648   19.4743 C   0  0  0  0  0  0
  -24.8740  -27.6738   19.4706 C   0  0  0  0  0  0
  -23.6511  -29.8101   20.1564 C   0  0  0  0  0  0
  -25.4113  -36.3056   24.0328 C   0  0  1  0  0  0
  -20.5899  -28.3704   23.1262 C   0  0  2  0  0  0
  -20.6783  -26.9419   22.5401 C   0  0  0  0  0  0
  -19.5755  -26.6379   21.5212 C   0  0  0  0  0  0
  -18.1935  -26.7927   22.1624 C   0  0  0  0  0  0
  -19.1549  -28.8863   23.2870 C   0  0  0  0  0  0
  -18.9465  -30.1461   23.8886 C   0  0  0  0  0  0
  -17.6462  -30.6587   24.0559 C   0  0  0  0  0  0
  -25.9058  -34.9430   23.5088 C   0  0  0  0  0  0
  -16.5354  -29.9081   23.6336 C   0  0  0  0  0  0
  -16.7279  -28.6495   23.0366 C   0  0  0  0  0  0
  -26.4504  -31.6572   25.0725 C   0  0  0  0  0  0
  -25.3730  -31.3755   26.1456 C   0  0  0  0  0  0
  -27.0342  -30.2974   24.6243 C   0  0  0  0  0  0
  -27.6044  -32.4322   25.7509 C   0  0  0  0  0  0
  -27.5578  -37.1798   24.8457 C   0  0  0  0  0  0
  -21.4218  -29.3052   22.3654 N   0  0  0  0  0  0
  -26.4281  -37.3765   23.9414 N   0  0  0  0  0  0
  -24.7016  -31.0472   22.0956 N   0  0  0  0  0  0
  -23.4204  -28.8134   23.3006 O   0  0  0  0  0  0
  -28.3047  -26.3201   20.2096 O   0  0  0  0  0  0
  -26.5621  -34.8914   22.4651 O   0  0  0  0  0  0
  -23.5488  -32.1351   23.7255 O   0  0  0  0  0  0
  -28.8094  -18.0472   21.4848 C   0  0  0  0  0  0
  -28.5378  -19.4420   21.2828 C   0  0  0  0  0  0
  -30.1314  -19.4746   19.4996 C   0  0  0  0  0  0
  -29.7225  -17.2900   20.6891 C   0  0  0  0  0  0
  -30.4023  -18.0698   19.6985 C   0  0  0  0  0  0
  -29.1613  -20.2016   20.2565 C   0  0  0  0  0  0
  -28.0509  -24.8508   19.9372 C   0  0  0  0  0  0
  -28.9871  -23.5889   20.3783 C   0  0  0  0  0  0
  -29.7719  -15.8090   20.8850 N   0  0  0  0  0  0
  -28.7093  -21.9325   18.2265 O   0  0  0  0  0  0
  -26.9816  -21.7810   20.0196 O   0  0  0  0  0  0
  -31.2741  -17.4616   18.8604 F   0  0  0  0  0  0
  -28.4119  -21.8655   19.6688 S   0  0  0  0  0  0
  -31.4857  -12.6020   19.1736 H   0  0  0  0  0  0
  -30.4023  -11.4768   19.9400 H   0  0  0  0  0  0
  -29.8064  -11.7669   17.5127 H   0  0  0  0  0  0
  -29.6462  -13.4903   17.7421 H   0  0  0  0  0  0
  -27.8967  -11.2941   18.8936 H   0  0  0  0  0  0
  -27.3874  -12.5552   17.8021 H   0  0  0  0  0  0
  -27.6537  -14.2600   19.5050 H   0  0  0  0  0  0
  -28.7309  -12.1188   21.4028 H   0  0  0  0  0  0
  -28.4220  -13.7765   21.8326 H   0  0  0  0  0  0
  -25.2767   -9.5684   22.4766 H   0  0  0  0  0  0
  -24.0006   -7.4636   22.7483 H   0  0  0  0  0  0
  -21.0845   -8.8775   19.8959 H   0  0  0  0  0  0
  -22.3714  -10.9671   19.6161 H   0  0  0  0  0  0
  -21.2004   -7.6142   23.9736 H   0  0  0  0  0  0
  -21.1492   -6.0510   25.9089 H   0  0  0  0  0  0
  -22.0597   -2.7617   23.2831 H   0  0  0  0  0  0
  -22.4020  -11.9910   22.4815 H   0  0  0  0  0  0
  -21.1077  -13.1328   22.2557 H   0  0  0  0  0  0
  -24.6590  -15.8455   20.5433 H   0  0  0  0  0  0
  -26.2751  -15.6399   20.0990 H   0  0  0  0  0  0
  -26.7238  -32.5377   23.1070 H   0  0  0  0  0  0
  -25.0101  -33.9661   25.0395 H   0  0  0  0  0  0
  -22.7305  -31.2994   21.3932 H   0  0  0  0  0  0
  -23.3753  -35.9618   23.3273 H   0  0  0  0  0  0
  -24.3592  -36.8932   22.2059 H   0  0  0  0  0  0
  -23.7246  -37.6481   23.6680 H   0  0  0  0  0  0
  -26.1198  -31.5191   20.6108 H   0  0  0  0  0  0
  -26.8581  -30.8084   22.0130 H   0  0  0  0  0  0
  -28.1185  -28.8932   21.2253 H   0  0  0  0  0  0
  -25.9392  -25.9140   18.9713 H   0  0  0  0  0  0
  -23.9801  -27.3196   18.9760 H   0  0  0  0  0  0
  -23.7725  -30.5854   19.3992 H   0  0  0  0  0  0
  -22.7703  -29.2408   19.8530 H   0  0  0  0  0  0
  -25.1300  -36.1890   25.0823 H   0  0  0  0  0  0
  -20.9986  -28.3274   24.1387 H   0  0  0  0  0  0
  -20.5687  -26.2310   23.3610 H   0  0  0  0  0  0
  -21.6648  -26.7449   22.1183 H   0  0  0  0  0  0
  -19.6908  -25.6284   21.1261 H   0  0  0  0  0  0
  -19.6685  -27.3180   20.6739 H   0  0  0  0  0  0
  -17.4204  -26.6681   21.4027 H   0  0  0  0  0  0
  -18.0329  -26.0062   22.9016 H   0  0  0  0  0  0
  -19.7936  -30.7288   24.2238 H   0  0  0  0  0  0
  -17.5014  -31.6273   24.5149 H   0  0  0  0  0  0
  -15.5351  -30.2980   23.7665 H   0  0  0  0  0  0
  -15.8675  -28.0809   22.7093 H   0  0  0  0  0  0
  -24.5839  -30.7181   25.7789 H   0  0  0  0  0  0
  -24.9012  -32.2949   26.4936 H   0  0  0  0  0  0
  -25.8032  -30.8867   27.0207 H   0  0  0  0  0  0
  -26.2927  -29.6724   24.1249 H   0  0  0  0  0  0
  -27.3970  -29.7241   25.4787 H   0  0  0  0  0  0
  -27.8839  -30.4220   23.9527 H   0  0  0  0  0  0
  -27.2624  -33.3616   26.2085 H   0  0  0  0  0  0
  -28.3864  -32.6896   25.0351 H   0  0  0  0  0  0
  -28.0708  -31.8456   26.5437 H   0  0  0  0  0  0
  -28.2572  -38.0115   24.7521 H   0  0  0  0  0  0
  -28.1096  -36.2649   24.6252 H   0  0  0  0  0  0
  -27.2309  -37.1412   25.8861 H   0  0  0  0  0  0
  -20.9399  -29.8787   21.6874 H   0  0  0  0  0  0
  -26.0151  -38.2836   24.1416 H   0  0  0  0  0  0
  -28.2396  -17.5357   22.2475 H   0  0  0  0  0  0
  -27.7588  -19.9107   21.8663 H   0  0  0  0  0  0
  -30.6120  -19.9787   18.6746 H   0  0  0  0  0  0
  -27.0761  -24.6126   20.3647 H   0  0  0  0  0  0
  -27.9230  -24.7703   18.8569 H   0  0  0  0  0  0
  -29.0120  -23.4929   21.4611 H   0  0  0  0  0  0
  -30.0154  -23.7327   20.0528 H   0  0  0  0  0  0
  -28.9495  -15.4527   21.3447 H   0  0  0  0  0  0
  1 25  1  0  0  0
  1 30  2  0  0  0
  1 79  1  0  0  0
  2  3  1  0  0  0
  2 25  1  0  0  0
  2 84  1  0  0  0
  2 85  1  0  0  0
  3  4  1  0  0  0
  3 86  1  0  0  0
  3 87  1  0  0  0
  4  5  1  0  0  0
  4 88  1  0  0  0
  4 89  1  0  0  0
  5  6  1  0  0  0
  5 26  1  0  0  0
  5 90  1  0  0  0
  6 25  1  0  0  0
  6 91  1  0  0  0
  6 92  1  0  0  0
  7  8  2  0  0  0
  7 26  1  0  0  0
  7 29  1  0  0  0
  8  9  1  0  0  0
  8 22  1  0  0  0
  9 10  1  0  0  0
  9 27  2  0  0  0
 10 11  2  0  0  0
 10 15  1  0  0  0
 11 12  1  0  0  0
 11 93  1  0  0  0
 12 13  2  0  0  0
 12 94  1  0  0  0
 13 14  1  0  0  0
 13 31  1  0  0  0
 14 15  2  0  0  0
 14 95  1  0  0  0
 15 96  1  0  0  0
 16 17  2  0  0  0
 16 21  1  0  0  0
 16 31  1  0  0  0
 17 18  1  0  0  0
 17 97  1  0  0  0
 18 19  2  0  0  0
 18 98  1  0  0  0
 19 20  1  0  0  0
 19 24  1  0  0  0
 20 21  2  0  0  0
 20 99  1  0  0  0
 21 23  1  0  0  0
 22 28  1  0  0  0
 22 32  2  0  0  0
 26 27  1  0  0  0
 28100  1  0  0  0
 28101  1  0  0  0
 29102  1  0  0  0
 29103  1  0  0  0
 33 34  1  0  0  0
 33 66  1  0  0  0
 33 70  2  0  0  0
 34 36  1  0  0  0
 34 59  1  0  0  0
 34104  1  0  0  0
 35 44  2  0  0  0
 35 45  1  0  0  0
 35 68  1  0  0  0
 36 56  1  0  0  0
 36105  1  0  0  0
 37 39  1  0  0  0
 37 47  1  0  0  0
 37 66  1  0  0  0
 37106  1  0  0  0
 38 43  2  0  0  0
 38 46  1  0  0  0
 38 47  1  0  0  0
 39 64  1  0  0  0
 39 67  2  0  0  0
 40 52  1  0  0  0
 40 53  2  0  0  0
 40 58  1  0  0  0
 41107  1  0  0  0
 41108  1  0  0  0
 41109  1  0  0  0
 41 48  1  0  0  0
 42 43  1  0  0  0
 42 66  1  0  0  0
 42110  1  0  0  0
 42111  1  0  0  0
 43 44  1  0  0  0
 44112  1  0  0  0
 45 46  2  0  0  0
 45113  1  0  0  0
 46114  1  0  0  0
 47115  1  0  0  0
 47116  1  0  0  0
 48 56  1  0  0  0
 48 65  1  0  0  0
 48117  1  0  0  0
 49 50  1  0  0  0
 49 53  1  0  0  0
 49 64  1  0  0  0
 49118  1  0  0  0
 50 51  1  0  0  0
 50119  1  0  0  0
 50120  1  0  0  0
 51 52  1  0  0  0
 51121  1  0  0  0
 51122  1  0  0  0
 52123  1  0  0  0
 52124  1  0  0  0
 53 54  1  0  0  0
 54 55  2  0  0  0
 54125  1  0  0  0
 55 57  1  0  0  0
 55126  1  0  0  0
 56 69  2  0  0  0
 57 58  2  0  0  0
 57127  1  0  0  0
 58128  1  0  0  0
 59 60  1  0  0  0
 59 61  1  0  0  0
 59 62  1  0  0  0
 60129  1  0  0  0
 60130  1  0  0  0
 60131  1  0  0  0
 61132  1  0  0  0
 61133  1  0  0  0
 61134  1  0  0  0
 62135  1  0  0  0
 62136  1  0  0  0
 62137  1  0  0  0
 63 65  1  0  0  0
 63138  1  0  0  0
 63139  1  0  0  0
 63140  1  0  0  0
 64141  1  0  0  0
 65142  1  0  0  0
 68 77  1  0  0  0
 71 72  2  0  0  0
 71 74  1  0  0  0
 71143  1  0  0  0
 72 76  1  0  0  0
 72144  1  0  0  0
 73 75  1  0  0  0
 73 76  2  0  0  0
 73145  1  0  0  0
 74 75  2  0  0  0
 74 79  1  0  0  0
 75 82  1  0  0  0
 76 83  1  0  0  0
 77 78  1  0  0  0
 77146  1  0  0  0
 77147  1  0  0  0
 78148  1  0  0  0
 78149  1  0  0  0
 78 83  1  0  0  0
 79150  1  0  0  0
 80 83  2  0  0  0
 81 83  2  0  0  0
M  ISO  4   1 100  68 101  77 101  79 100
M  END
> <chiral flag>
0

> <version>
0

> <s_m_source_file>
/data/baiqing/PycharmProjects/Reinvent-master-3.2/result/LINK_invent/BTK/process_docking_weight1_custom_product_contain_oxygen_bond_distance_aromatic_linkinvent_7_9_3/rearranged_h_0032.sdf

> <i_m_source_file_index>
93

> <r_mmod_Potential_Energy-OPLS-2005>
25.1743984222412

> <r_mmod_Stretch_Energy-OPLS-2005>
132.727142333984

> <r_mmod_Bend_Energy-OPLS-2005>
210.100524902344

> <r_mmod_Torsional_Energy-OPLS-2005>
226.156692504883

> <r_mmod_Improper_Torsional_Energy-OPLS-2005>
6.32801055908203

> <r_mmod_Van_der_Waal_Energy-OPLS-2005>
134.103302001953

> <r_mmod_Electrostatic_Energy-OPLS-2005>
-505.008270263672

> <r_mmod_Solvation_Energy-OPLS-2005>
-273.815765380859

> <b_mmod_Minimization_Converged-OPLS-2005>
0

> <r_mmod_RMS_Derivative-OPLS-2005>
1.58267855644226

$$$$
93
                    3D
 Structure written by MMmdl.
160169  0  0  1  0            999 V2000
  -30.5347  -14.9336   20.4453 C   0  0  0  0  0  0
  -30.4389  -12.5903   19.4874 C   0  0  0  0  0  0
  -29.5157  -12.5696   18.2476 C   0  0  0  0  0  0
  -28.0511  -12.3441   18.6628 C   0  0  0  0  0  0
  -27.6387  -13.2471   19.8559 C   0  0  2  0  0  0
  -28.6788  -13.2418   20.9944 C   0  0  0  0  0  0
  -25.2534  -13.8185   20.5714 C   0  0  0  0  0  0
  -24.1826  -13.0418   20.9205 C   0  0  0  0  0  0
  -24.6442  -11.6918   20.8754 C   0  0  0  0  0  0
  -23.9093  -10.4309   21.0397 C   0  0  0  0  0  0
  -24.3647   -9.4240   21.9188 C   0  0  0  0  0  0
  -23.6337   -8.2269   22.0753 C   0  0  0  0  0  0
  -22.4326   -8.0294   21.3529 C   0  0  0  0  0  0
  -21.9953   -9.0279   20.4634 C   0  0  0  0  0  0
  -22.7259  -10.2170   20.3052 C   0  0  0  0  0  0
  -21.6866   -6.0754   22.5287 C   0  0  0  0  0  0
  -21.3983   -6.5646   23.8211 C   0  0  0  0  0  0
  -21.3643   -5.6800   24.9168 C   0  0  0  0  0  0
  -21.6055   -4.3058   24.7220 C   0  0  0  0  0  0
  -21.8828   -3.8149   23.4344 C   0  0  0  0  0  0
  -21.9204   -4.6976   22.3408 C   0  0  0  0  0  0
  -22.7862  -13.5224   21.1821 C   0  0  0  0  0  0
  -22.1683   -4.2154   21.0966 F   0  0  0  0  0  0
  -21.5646   -3.4540   25.7741 F   0  0  0  0  0  0
  -29.9594  -13.6666   20.4022 N   0  0  0  0  0  0
  -26.2968  -12.9429   20.3304 N   0  0  0  0  0  0
  -25.9389  -11.6551   20.5772 N   0  0  0  0  0  0
  -22.0500  -12.8237   22.0375 N   0  0  0  0  0  0
  -25.4211  -15.1907   20.4123 N   0  0  0  0  0  0
  -31.7268  -15.0282   20.1233 O   0  0  0  0  0  0
  -21.6649   -6.8910   21.4245 O   0  0  0  0  0  0
  -22.3556  -14.5540   20.6646 O   0  0  0  0  0  0
  -24.6441  -31.8481   23.1857 C   0  0  0  0  0  0
  -25.9268  -32.4687   23.8251 C   0  0  1  0  0  0
  -27.2387  -27.1460   20.1404 C   0  0  0  0  0  0
  -25.6034  -33.8486   24.2184 N   0  0  0  0  0  0
  -23.4474  -30.4641   21.5335 C   0  0  2  0  0  0
  -24.9001  -28.8951   20.1011 C   0  0  0  0  0  0
  -22.7600  -29.4544   22.4867 C   0  0  0  0  0  0
  -18.0352  -28.1389   22.8478 C   0  0  0  0  0  0
  -24.1507  -36.7225   23.2639 C   0  0  0  0  0  0
  -26.0015  -30.7129   21.3906 C   0  0  0  0  0  0
  -26.0719  -29.3279   20.7319 C   0  0  0  0  0  0
  -27.2355  -28.4693   20.7417 C   0  0  0  0  0  0
  -26.0379  -26.8190   19.4641 C   0  0  0  0  0  0
  -24.8976  -27.6538   19.4477 C   0  0  0  0  0  0
  -23.6767  -29.7990   20.1483 C   0  0  0  0  0  0
  -25.4143  -36.3017   24.0303 C   0  0  1  0  0  0
  -20.5968  -28.3719   23.1243 C   0  0  2  0  0  0
  -20.6853  -26.9436   22.5415 C   0  0  0  0  0  0
  -19.5814  -26.6385   21.5236 C   0  0  0  0  0  0
  -18.1988  -26.7933   22.1630 C   0  0  0  0  0  0
  -19.1617  -28.8877   23.2830 C   0  0  0  0  0  0
  -18.9519  -30.1477   23.8830 C   0  0  0  0  0  0
  -17.6508  -30.6567   24.0564 C   0  0  0  0  0  0
  -25.9107  -34.9399   23.5046 C   0  0  0  0  0  0
  -16.5397  -29.9048   23.6347 C   0  0  0  0  0  0
  -16.7337  -28.6494   23.0328 C   0  0  0  0  0  0
  -26.4559  -31.6522   25.0687 C   0  0  0  0  0  0
  -25.3710  -31.3734   26.1356 C   0  0  0  0  0  0
  -27.0412  -30.2908   24.6269 C   0  0  0  0  0  0
  -27.6095  -32.4248   25.7484 C   0  0  0  0  0  0
  -27.5569  -37.1782   24.8464 C   0  0  0  0  0  0
  -21.4311  -29.3007   22.3593 N   0  0  0  0  0  0
  -26.4281  -37.3745   23.9403 N   0  0  0  0  0  0
  -24.7174  -31.0307   22.0926 N   0  0  0  0  0  0
  -23.4258  -28.8140   23.3043 O   0  0  0  0  0  0
  -28.3134  -26.1782   20.2322 O   0  0  0  0  0  0
  -26.5660  -34.8921   22.4606 O   0  0  0  0  0  0
  -23.5559  -32.1409   23.7071 O   0  0  0  0  0  0
  -30.5689  -19.8467   20.8358 C   0  0  0  0  0  0
  -30.8137  -18.3953   21.0036 C   0  0  0  0  0  0
  -29.3755  -20.2475   20.2415 C   0  0  0  0  0  0
  -29.8521  -17.5077   20.5394 C   0  0  0  0  0  0
  -26.7068  -21.5856   22.1840 C   0  0  0  0  0  0
  -26.2681  -21.8735   20.7336 C   0  0  0  0  0  0
  -28.1281  -21.9904   22.6302 C   0  0  0  0  0  0
  -27.2283  -21.5829   19.5559 C   0  0  0  0  0  0
  -28.6825  -23.2840   22.0112 C   0  0  0  0  0  0
  -28.7432  -21.7296   19.8091 C   0  0  1  0  0  0
  -28.9376  -23.2857   20.4818 C   0  0  1  0  0  0
  -28.1830  -24.6748   19.8375 C   0  0  0  0  0  0
  -29.7177  -16.0743   20.6516 N   0  0  0  0  0  0
  -28.5870  -18.6345   19.8856 S   0  0  0  0  0  0
  -31.4699  -12.7579   19.1677 H   0  0  0  0  0  0
  -30.4311  -11.6237   19.9957 H   0  0  0  0  0  0
  -29.8321  -11.7933   17.5513 H   0  0  0  0  0  0
  -29.6016  -13.5156   17.7075 H   0  0  0  0  0  0
  -27.9445  -11.2929   18.9374 H   0  0  0  0  0  0
  -27.3866  -12.5124   17.8138 H   0  0  0  0  0  0
  -27.6132  -14.2639   19.4635 H   0  0  0  0  0  0
  -28.7631  -12.2518   21.4468 H   0  0  0  0  0  0
  -28.3715  -13.9197   21.7935 H   0  0  0  0  0  0
  -25.2783   -9.5731   22.4792 H   0  0  0  0  0  0
  -24.0039   -7.4665   22.7481 H   0  0  0  0  0  0
  -21.0882   -8.8794   19.8967 H   0  0  0  0  0  0
  -22.3695  -10.9720   19.6195 H   0  0  0  0  0  0
  -21.1935   -7.6136   23.9694 H   0  0  0  0  0  0
  -21.1453   -6.0522   25.9064 H   0  0  0  0  0  0
  -22.0625   -2.7612   23.2839 H   0  0  0  0  0  0
  -22.4104  -11.9946   22.4832 H   0  0  0  0  0  0
  -21.1104  -13.1309   22.2487 H   0  0  0  0  0  0
  -24.6485  -15.8368   20.5229 H   0  0  0  0  0  0
  -26.2617  -15.6373   20.0697 H   0  0  0  0  0  0
  -26.7321  -32.5279   23.0965 H   0  0  0  0  0  0
  -25.0277  -33.9619   25.0393 H   0  0  0  0  0  0
  -22.7444  -31.2894   21.3822 H   0  0  0  0  0  0
  -23.3791  -35.9534   23.3293 H   0  0  0  0  0  0
  -24.3605  -36.8864   22.2053 H   0  0  0  0  0  0
  -23.7251  -37.6410   23.6687 H   0  0  0  0  0  0
  -26.1760  -31.4612   20.6163 H   0  0  0  0  0  0
  -26.8666  -30.7496   22.0420 H   0  0  0  0  0  0
  -28.1205  -28.8014   21.2711 H   0  0  0  0  0  0
  -25.9371  -25.8805   18.9427 H   0  0  0  0  0  0
  -24.0093  -27.3224   18.9218 H   0  0  0  0  0  0
  -23.8209  -30.5842   19.4037 H   0  0  0  0  0  0
  -22.7857  -29.2544   19.8234 H   0  0  0  0  0  0
  -25.1333  -36.1825   25.0783 H   0  0  0  0  0  0
  -21.0066  -28.3316   24.1365 H   0  0  0  0  0  0
  -20.5832  -26.2333   23.3634 H   0  0  0  0  0  0
  -21.6701  -26.7484   22.1156 H   0  0  0  0  0  0
  -19.6974  -25.6301   21.1241 H   0  0  0  0  0  0
  -19.6715  -27.3226   20.6791 H   0  0  0  0  0  0
  -17.4291  -26.6757   21.3976 H   0  0  0  0  0  0
  -18.0308  -26.0036   22.8984 H   0  0  0  0  0  0
  -19.7981  -30.7334   24.2140 H   0  0  0  0  0  0
  -17.5048  -31.6235   24.5195 H   0  0  0  0  0  0
  -15.5387  -30.2907   23.7695 H   0  0  0  0  0  0
  -15.8771  -28.0787   22.7013 H   0  0  0  0  0  0
  -24.5987  -30.6955   25.7710 H   0  0  0  0  0  0
  -24.8789  -32.2907   26.4565 H   0  0  0  0  0  0
  -25.7984  -30.9100   27.0256 H   0  0  0  0  0  0
  -26.3014  -29.6604   24.1320 H   0  0  0  0  0  0
  -27.4086  -29.7217   25.4823 H   0  0  0  0  0  0
  -27.8905  -30.4138   23.9552 H   0  0  0  0  0  0
  -27.2739  -33.3620   26.1931 H   0  0  0  0  0  0
  -28.4004  -32.6660   25.0367 H   0  0  0  0  0  0
  -28.0639  -31.8426   26.5510 H   0  0  0  0  0  0
  -28.2577  -38.0098   24.7533 H   0  0  0  0  0  0
  -28.1090  -36.2620   24.6265 H   0  0  0  0  0  0
  -27.2294  -37.1380   25.8877 H   0  0  0  0  0  0
  -20.9587  -29.8619   21.6652 H   0  0  0  0  0  0
  -26.0133  -38.2807   24.1419 H   0  0  0  0  0  0
  -31.3164  -20.5504   21.1801 H   0  0  0  0  0  0
  -31.7035  -18.0507   21.5122 H   0  0  0  0  0  0
  -26.5334  -20.5379   22.4385 H   0  0  0  0  0  0
  -26.0156  -22.1635   22.8055 H   0  0  0  0  0  0
  -25.9917  -22.9226   20.7090 H   0  0  0  0  0  0
  -25.3247  -21.3608   20.5386 H   0  0  0  0  0  0
  -28.8381  -21.1742   22.5176 H   0  0  0  0  0  0
  -28.0878  -22.1338   23.7098 H   0  0  0  0  0  0
  -26.9740  -22.3071   18.7817 H   0  0  0  0  0  0
  -26.9894  -20.6349   19.0826 H   0  0  0  0  0  0
  -29.6189  -23.5285   22.5155 H   0  0  0  0  0  0
  -27.9964  -24.0886   22.2754 H   0  0  0  0  0  0
  -29.1645  -21.8640   18.8104 H   0  0  0  0  0  0
  -30.0039  -23.4817   20.3700 H   0  0  0  0  0  0
  -27.1244  -24.4578   19.8981 H   0  0  0  0  0  0
  -28.3965  -24.6632   18.7673 H   0  0  0  0  0  0
  -28.7758  -15.7999   20.8899 H   0  0  0  0  0  0
  1 25  1  0  0  0
  1 30  2  0  0  0
  1 83  1  0  0  0
  2  3  1  0  0  0
  2 25  1  0  0  0
  2 85  1  0  0  0
  2 86  1  0  0  0
  3  4  1  0  0  0
  3 87  1  0  0  0
  3 88  1  0  0  0
  4  5  1  0  0  0
  4 89  1  0  0  0
  4 90  1  0  0  0
  5  6  1  0  0  0
  5 26  1  0  0  0
  5 91  1  0  0  0
  6 25  1  0  0  0
  6 92  1  0  0  0
  6 93  1  0  0  0
  7  8  2  0  0  0
  7 26  1  0  0  0
  7 29  1  0  0  0
  8  9  1  0  0  0
  8 22  1  0  0  0
  9 10  1  0  0  0
  9 27  2  0  0  0
 10 11  2  0  0  0
 10 15  1  0  0  0
 11 12  1  0  0  0
 11 94  1  0  0  0
 12 13  2  0  0  0
 12 95  1  0  0  0
 13 14  1  0  0  0
 13 31  1  0  0  0
 14 15  2  0  0  0
 14 96  1  0  0  0
 15 97  1  0  0  0
 16 17  2  0  0  0
 16 21  1  0  0  0
 16 31  1  0  0  0
 17 18  1  0  0  0
 17 98  1  0  0  0
 18 19  2  0  0  0
 18 99  1  0  0  0
 19 20  1  0  0  0
 19 24  1  0  0  0
 20 21  2  0  0  0
 20100  1  0  0  0
 21 23  1  0  0  0
 22 28  1  0  0  0
 22 32  2  0  0  0
 26 27  1  0  0  0
 28101  1  0  0  0
 28102  1  0  0  0
 29103  1  0  0  0
 29104  1  0  0  0
 33 34  1  0  0  0
 33 66  1  0  0  0
 33 70  2  0  0  0
 34 36  1  0  0  0
 34 59  1  0  0  0
 34105  1  0  0  0
 35 44  2  0  0  0
 35 45  1  0  0  0
 35 68  1  0  0  0
 36 56  1  0  0  0
 36106  1  0  0  0
 37 39  1  0  0  0
 37 47  1  0  0  0
 37 66  1  0  0  0
 37107  1  0  0  0
 38 43  2  0  0  0
 38 46  1  0  0  0
 38 47  1  0  0  0
 39 64  1  0  0  0
 39 67  2  0  0  0
 40 52  1  0  0  0
 40 53  2  0  0  0
 40 58  1  0  0  0
 41108  1  0  0  0
 41109  1  0  0  0
 41110  1  0  0  0
 41 48  1  0  0  0
 42 43  1  0  0  0
 42 66  1  0  0  0
 42111  1  0  0  0
 42112  1  0  0  0
 43 44  1  0  0  0
 44113  1  0  0  0
 45 46  2  0  0  0
 45114  1  0  0  0
 46115  1  0  0  0
 47116  1  0  0  0
 47117  1  0  0  0
 48 56  1  0  0  0
 48 65  1  0  0  0
 48118  1  0  0  0
 49 50  1  0  0  0
 49 53  1  0  0  0
 49 64  1  0  0  0
 49119  1  0  0  0
 50 51  1  0  0  0
 50120  1  0  0  0
 50121  1  0  0  0
 51 52  1  0  0  0
 51122  1  0  0  0
 51123  1  0  0  0
 52124  1  0  0  0
 52125  1  0  0  0
 53 54  1  0  0  0
 54 55  2  0  0  0
 54126  1  0  0  0
 55 57  1  0  0  0
 55127  1  0  0  0
 56 69  2  0  0  0
 57 58  2  0  0  0
 57128  1  0  0  0
 58129  1  0  0  0
 59 60  1  0  0  0
 59 61  1  0  0  0
 59 62  1  0  0  0
 60130  1  0  0  0
 60131  1  0  0  0
 60132  1  0  0  0
 61133  1  0  0  0
 61134  1  0  0  0
 61135  1  0  0  0
 62136  1  0  0  0
 62137  1  0  0  0
 62138  1  0  0  0
 63 65  1  0  0  0
 63139  1  0  0  0
 63140  1  0  0  0
 63141  1  0  0  0
 64142  1  0  0  0
 65143  1  0  0  0
 68 82  1  0  0  0
 71 72  1  0  0  0
 71 73  2  0  0  0
 71144  1  0  0  0
 72 74  2  0  0  0
 72145  1  0  0  0
 73 84  1  0  0  0
 73 80  1  0  0  0
 74 83  1  0  0  0
 74 84  1  0  0  0
 75 76  1  0  0  0
 75 77  1  0  0  0
 75146  1  0  0  0
 75147  1  0  0  0
 76 78  1  0  0  0
 76148  1  0  0  0
 76149  1  0  0  0
 77 79  1  0  0  0
 77150  1  0  0  0
 77151  1  0  0  0
 78 80  1  0  0  0
 78152  1  0  0  0
 78153  1  0  0  0
 79 81  1  0  0  0
 79154  1  0  0  0
 79155  1  0  0  0
 80 81  1  0  0  0
 80156  1  0  0  0
 81 82  1  0  0  0
 81157  1  0  0  0
 82158  1  0  0  0
 82159  1  0  0  0
 83160  1  0  0  0
M  ISO  4   1 100  68 101  82 101  83 100
M  END
> <chiral flag>
0

> <version>
0

> <s_m_source_file>
/data/baiqing/PycharmProjects/Reinvent-master-3.2/result/LINK_invent/BTK/process_docking_weight1_custom_product_contain_oxygen_bond_distance_aromatic_linkinvent_7_9_3/rearranged_h_0032.sdf

> <i_m_source_file_index>
94

> <r_mmod_Potential_Energy-OPLS-2005>
596.645385742188

> <r_mmod_Stretch_Energy-OPLS-2005>
260.619750976562

> <r_mmod_Bend_Energy-OPLS-2005>
308.212829589844

> <r_mmod_Torsional_Energy-OPLS-2005>
273.181304931641

> <r_mmod_Improper_Torsional_Energy-OPLS-2005>
5.06810474395752

> <r_mmod_Van_der_Waal_Energy-OPLS-2005>
123.360420227051

> <r_mmod_Electrostatic_Energy-OPLS-2005>
-353.363189697266

> <r_mmod_Solvation_Energy-OPLS-2005>
-201.124282836914

> <b_mmod_Minimization_Converged-OPLS-2005>
0

> <r_mmod_RMS_Derivative-OPLS-2005>
7.25107717514038

$$$$
94
                    3D
 Structure written by MMmdl.
161170  0  0  1  0            999 V2000
  -30.7415  -14.5063   20.5818 C   0  0  0  0  0  0
  -30.4189  -12.3273   19.4544 C   0  0  0  0  0  0
  -29.5034  -12.4937   18.2260 C   0  0  0  0  0  0
  -28.0296  -12.3403   18.6396 C   0  0  0  0  0  0
  -27.6611  -13.2117   19.8700 C   0  0  2  0  0  0
  -28.6995  -13.0517   21.0044 C   0  0  0  0  0  0
  -25.2616  -13.8163   20.5667 C   0  0  0  0  0  0
  -24.1847  -13.0437   20.9165 C   0  0  0  0  0  0
  -24.6398  -11.6900   20.8694 C   0  0  0  0  0  0
  -23.9045  -10.4283   21.0373 C   0  0  0  0  0  0
  -24.3606   -9.4200   21.9154 C   0  0  0  0  0  0
  -23.6277   -8.2241   22.0743 C   0  0  0  0  0  0
  -22.4259   -8.0283   21.3541 C   0  0  0  0  0  0
  -21.9889   -9.0248   20.4641 C   0  0  0  0  0  0
  -22.7221  -10.2122   20.3034 C   0  0  0  0  0  0
  -21.6857   -6.0716   22.5274 C   0  0  0  0  0  0
  -21.4029   -6.5619   23.8210 C   0  0  0  0  0  0
  -21.3659   -5.6772   24.9171 C   0  0  0  0  0  0
  -21.6047   -4.3033   24.7217 C   0  0  0  0  0  0
  -21.8838   -3.8127   23.4334 C   0  0  0  0  0  0
  -21.9210   -4.6939   22.3393 C   0  0  0  0  0  0
  -22.7875  -13.5226   21.1844 C   0  0  0  0  0  0
  -22.1678   -4.2141   21.0959 F   0  0  0  0  0  0
  -21.5620   -3.4526   25.7723 F   0  0  0  0  0  0
  -30.0288  -13.3463   20.4474 N   0  0  0  0  0  0
  -26.3041  -12.9329   20.3342 N   0  0  0  0  0  0
  -25.9336  -11.6486   20.5758 N   0  0  0  0  0  0
  -22.0532  -12.8201   22.0391 N   0  0  0  0  0  0
  -25.4316  -15.1880   20.4060 N   0  0  0  0  0  0
  -31.8649  -14.6322   20.0910 O   0  0  0  0  0  0
  -21.6640   -6.8859   21.4234 O   0  0  0  0  0  0
  -22.3531  -14.5533   20.6711 O   0  0  0  0  0  0
  -24.6153  -31.8698   23.2111 C   0  0  0  0  0  0
  -25.9042  -32.4837   23.8406 C   0  0  1  0  0  0
  -27.2018  -27.4037   20.1079 C   0  0  0  0  0  0
  -25.5889  -33.8635   24.2330 N   0  0  0  0  0  0
  -23.4035  -30.5041   21.5491 C   0  0  2  0  0  0
  -24.8448  -28.9793   20.1125 C   0  0  0  0  0  0
  -22.7393  -29.4735   22.4921 C   0  0  0  0  0  0
  -18.0270  -28.1406   22.8501 C   0  0  0  0  0  0
  -24.1480  -36.7342   23.2645 C   0  0  0  0  0  0
  -25.9380  -30.8331   21.3675 C   0  0  0  0  0  0
  -26.0128  -29.4707   20.7089 C   0  0  0  0  0  0
  -27.2018  -28.6944   20.6963 C   0  0  0  0  0  0
  -26.0080  -26.9426   19.5157 C   0  0  0  0  0  0
  -24.8405  -27.7180   19.5060 C   0  0  0  0  0  0
  -23.6084  -29.8453   20.1632 C   0  0  0  0  0  0
  -25.4092  -36.3111   24.0342 C   0  0  1  0  0  0
  -20.5857  -28.3714   23.1278 C   0  0  2  0  0  0
  -20.6766  -26.9443   22.5397 C   0  0  0  0  0  0
  -19.5752  -26.6412   21.5198 C   0  0  0  0  0  0
  -18.1925  -26.7940   22.1613 C   0  0  0  0  0  0
  -19.1521  -28.8867   23.2901 C   0  0  0  0  0  0
  -18.9449  -30.1457   23.8945 C   0  0  0  0  0  0
  -17.6459  -30.6611   24.0580 C   0  0  0  0  0  0
  -25.9028  -34.9487   23.5129 C   0  0  0  0  0  0
  -16.5347  -29.9119   23.6341 C   0  0  0  0  0  0
  -16.7255  -28.6525   23.0380 C   0  0  0  0  0  0
  -26.4485  -31.6607   25.0739 C   0  0  0  0  0  0
  -25.3739  -31.3676   26.1473 C   0  0  0  0  0  0
  -27.0334  -30.3034   24.6154 C   0  0  0  0  0  0
  -27.6065  -32.4347   25.7469 C   0  0  0  0  0  0
  -27.5566  -37.1811   24.8448 C   0  0  0  0  0  0
  -21.4119  -29.3089   22.3668 N   0  0  0  0  0  0
  -26.4276  -37.3790   23.9396 N   0  0  0  0  0  0
  -24.6712  -31.0825   22.1004 N   0  0  0  0  0  0
  -23.4152  -28.8237   23.2943 O   0  0  0  0  0  0
  -28.3184  -26.5837   20.1332 O   0  0  0  0  0  0
  -26.5601  -34.8923   22.4693 O   0  0  0  0  0  0
  -23.5345  -32.1454   23.7502 O   0  0  0  0  0  0
  -28.3592  -19.6543   20.6723 C   0  0  0  0  0  0
  -28.9576  -18.3718   20.7661 C   0  0  0  0  0  0
  -30.1421  -20.5975   22.0088 C   0  0  0  0  0  0
  -28.9393  -20.7861   21.2943 C   0  0  0  0  0  0
  -30.1652  -18.1811   21.4786 C   0  0  0  0  0  0
  -30.7575  -19.3220   22.0964 C   0  0  0  0  0  0
  -28.0024  -24.0911   19.6971 C   0  0  0  0  0  0
  -27.4109  -23.8289   18.5157 C   0  0  0  0  0  0
  -29.3203  -24.4721   21.1267 C   0  0  0  0  0  0
  -28.0574  -25.2576   20.6731 C   0  0  1  0  0  0
  -32.0735  -19.2134   22.8575 C   0  0  0  0  0  0
  -30.8754  -16.8065   21.5471 C   0  0  0  0  0  0
  -28.2279  -22.1595   21.2671 C   0  0  0  0  0  0
  -30.1514  -15.5559   21.2019 N   0  0  0  0  0  0
  -28.8765  -23.2294   20.4425 N   0  3  1  0  0  0
  -31.4665  -12.4050   19.1578 H   0  0  0  0  0  0
  -30.3139  -11.3295   19.8835 H   0  0  0  0  0  0
  -29.7576  -11.7560   17.4656 H   0  0  0  0  0  0
  -29.6667  -13.4719   17.7737 H   0  0  0  0  0  0
  -27.8723  -11.2851   18.8712 H   0  0  0  0  0  0
  -27.3717  -12.5651   17.7990 H   0  0  0  0  0  0
  -27.6925  -14.2502   19.5403 H   0  0  0  0  0  0
  -28.6765  -12.0346   21.3998 H   0  0  0  0  0  0
  -28.4516  -13.6982   21.8459 H   0  0  0  0  0  0
  -25.2769   -9.5668   22.4700 H   0  0  0  0  0  0
  -24.0002   -7.4623   22.7455 H   0  0  0  0  0  0
  -21.0834   -8.8744   19.8928 H   0  0  0  0  0  0
  -22.3683  -10.9639   19.6118 H   0  0  0  0  0  0
  -21.2024   -7.6136   23.9703 H   0  0  0  0  0  0
  -21.1467   -6.0501   25.9072 H   0  0  0  0  0  0
  -22.0621   -2.7592   23.2831 H   0  0  0  0  0  0
  -22.4211  -11.9862   22.4718 H   0  0  0  0  0  0
  -21.1165  -13.1207   22.2668 H   0  0  0  0  0  0
  -24.6643  -15.8427   20.5207 H   0  0  0  0  0  0
  -26.2906  -15.6310   20.1013 H   0  0  0  0  0  0
  -26.7095  -32.5542   23.1165 H   0  0  0  0  0  0
  -24.9968  -33.9782   25.0424 H   0  0  0  0  0  0
  -22.6925  -31.3226   21.4137 H   0  0  0  0  0  0
  -23.3717  -35.9704   23.3322 H   0  0  0  0  0  0
  -24.3550  -36.8963   22.2054 H   0  0  0  0  0  0
  -23.7286  -37.6565   23.6666 H   0  0  0  0  0  0
  -26.0589  -31.6039   20.6041 H   0  0  0  0  0  0
  -26.8227  -30.8811   21.9914 H   0  0  0  0  0  0
  -28.0984  -29.0675   21.1698 H   0  0  0  0  0  0
  -25.9414  -25.9719   19.0666 H   0  0  0  0  0  0
  -23.9402  -27.3381   19.0457 H   0  0  0  0  0  0
  -23.7062  -30.6217   19.4023 H   0  0  0  0  0  0
  -22.7293  -29.2649   19.8743 H   0  0  0  0  0  0
  -25.1274  -36.1969   25.0841 H   0  0  0  0  0  0
  -20.9998  -28.3324   24.1388 H   0  0  0  0  0  0
  -20.5664  -26.2353   23.3608 H   0  0  0  0  0  0
  -21.6638  -26.7483   22.1209 H   0  0  0  0  0  0
  -19.6940  -25.6328   21.1241 H   0  0  0  0  0  0
  -19.6693  -27.3213   20.6716 H   0  0  0  0  0  0
  -17.4192  -26.6706   21.4017 H   0  0  0  0  0  0
  -18.0342  -26.0062   22.9002 H   0  0  0  0  0  0
  -19.7918  -30.7251   24.2369 H   0  0  0  0  0  0
  -17.5014  -31.6297   24.5176 H   0  0  0  0  0  0
  -15.5354  -30.3055   23.7639 H   0  0  0  0  0  0
  -15.8643  -28.0846   22.7129 H   0  0  0  0  0  0
  -24.5929  -30.7025   25.7764 H   0  0  0  0  0  0
  -24.8914  -32.2815   26.4943 H   0  0  0  0  0  0
  -25.8107  -30.8799   27.0206 H   0  0  0  0  0  0
  -26.2881  -29.6735   24.1291 H   0  0  0  0  0  0
  -27.4156  -29.7355   25.4641 H   0  0  0  0  0  0
  -27.8702  -30.4316   23.9283 H   0  0  0  0  0  0
  -27.2690  -33.3643   26.2062 H   0  0  0  0  0  0
  -28.3839  -32.6938   25.0261 H   0  0  0  0  0  0
  -28.0783  -31.8483   26.5351 H   0  0  0  0  0  0
  -28.2600  -38.0090   24.7484 H   0  0  0  0  0  0
  -28.1069  -36.2636   24.6304 H   0  0  0  0  0  0
  -27.2292  -37.1496   25.8855 H   0  0  0  0  0  0
  -20.9275  -29.8824   21.6919 H   0  0  0  0  0  0
  -26.0182  -38.2877   24.1382 H   0  0  0  0  0  0
  -27.4317  -19.7581   20.1266 H   0  0  0  0  0  0
  -28.4838  -17.5355   20.2723 H   0  0  0  0  0  0
  -30.5988  -21.4473   22.5010 H   0  0  0  0  0  0
  -26.7836  -24.5256   17.9851 H   0  0  0  0  0  0
  -27.5450  -22.8645   18.0503 H   0  0  0  0  0  0
  -29.4370  -24.3814   22.2059 H   0  0  0  0  0  0
  -30.2303  -24.8824   20.6864 H   0  0  0  0  0  0
  -27.3113  -25.2681   21.4731 H   0  0  0  0  0  0
  -32.3288  -20.1571   23.3402 H   0  0  0  0  0  0
  -32.8881  -18.9730   22.1738 H   0  0  0  0  0  0
  -32.0384  -18.4566   23.6411 H   0  0  0  0  0  0
  -31.2597  -16.6534   22.5530 H   0  0  0  0  0  0
  -31.7584  -16.9218   20.9171 H   0  0  0  0  0  0
  -28.0613  -22.5027   22.2875 H   0  0  0  0  0  0
  -27.2264  -21.9915   20.8675 H   0  0  0  0  0  0
  -29.2315  -15.4202   21.5915 H   0  0  0  0  0  0
  -29.6119  -22.8440   19.8725 H   0  0  0  0  0  0
  1 25  1  0  0  0
  1 30  2  0  0  0
  1 84  1  0  0  0
  2  3  1  0  0  0
  2 25  1  0  0  0
  2 86  1  0  0  0
  2 87  1  0  0  0
  3  4  1  0  0  0
  3 88  1  0  0  0
  3 89  1  0  0  0
  4  5  1  0  0  0
  4 90  1  0  0  0
  4 91  1  0  0  0
  5  6  1  0  0  0
  5 26  1  0  0  0
  5 92  1  0  0  0
  6 25  1  0  0  0
  6 93  1  0  0  0
  6 94  1  0  0  0
  7  8  2  0  0  0
  7 26  1  0  0  0
  7 29  1  0  0  0
  8  9  1  0  0  0
  8 22  1  0  0  0
  9 10  1  0  0  0
  9 27  2  0  0  0
 10 11  2  0  0  0
 10 15  1  0  0  0
 11 12  1  0  0  0
 11 95  1  0  0  0
 12 13  2  0  0  0
 12 96  1  0  0  0
 13 14  1  0  0  0
 13 31  1  0  0  0
 14 15  2  0  0  0
 14 97  1  0  0  0
 15 98  1  0  0  0
 16 17  2  0  0  0
 16 21  1  0  0  0
 16 31  1  0  0  0
 17 18  1  0  0  0
 17 99  1  0  0  0
 18 19  2  0  0  0
 18100  1  0  0  0
 19 20  1  0  0  0
 19 24  1  0  0  0
 20 21  2  0  0  0
 20101  1  0  0  0
 21 23  1  0  0  0
 22 28  1  0  0  0
 22 32  2  0  0  0
 26 27  1  0  0  0
 28102  1  0  0  0
 28103  1  0  0  0
 29104  1  0  0  0
 29105  1  0  0  0
 33 34  1  0  0  0
 33 66  1  0  0  0
 33 70  2  0  0  0
 34 36  1  0  0  0
 34 59  1  0  0  0
 34106  1  0  0  0
 35 44  2  0  0  0
 35 45  1  0  0  0
 35 68  1  0  0  0
 36 56  1  0  0  0
 36107  1  0  0  0
 37 39  1  0  0  0
 37 47  1  0  0  0
 37 66  1  0  0  0
 37108  1  0  0  0
 38 43  2  0  0  0
 38 46  1  0  0  0
 38 47  1  0  0  0
 39 64  1  0  0  0
 39 67  2  0  0  0
 40 52  1  0  0  0
 40 53  2  0  0  0
 40 58  1  0  0  0
 41109  1  0  0  0
 41110  1  0  0  0
 41111  1  0  0  0
 41 48  1  0  0  0
 42 43  1  0  0  0
 42 66  1  0  0  0
 42112  1  0  0  0
 42113  1  0  0  0
 43 44  1  0  0  0
 44114  1  0  0  0
 45 46  2  0  0  0
 45115  1  0  0  0
 46116  1  0  0  0
 47117  1  0  0  0
 47118  1  0  0  0
 48 56  1  0  0  0
 48 65  1  0  0  0
 48119  1  0  0  0
 49 50  1  0  0  0
 49 53  1  0  0  0
 49 64  1  0  0  0
 49120  1  0  0  0
 50 51  1  0  0  0
 50121  1  0  0  0
 50122  1  0  0  0
 51 52  1  0  0  0
 51123  1  0  0  0
 51124  1  0  0  0
 52125  1  0  0  0
 52126  1  0  0  0
 53 54  1  0  0  0
 54 55  2  0  0  0
 54127  1  0  0  0
 55 57  1  0  0  0
 55128  1  0  0  0
 56 69  2  0  0  0
 57 58  2  0  0  0
 57129  1  0  0  0
 58130  1  0  0  0
 59 60  1  0  0  0
 59 61  1  0  0  0
 59 62  1  0  0  0
 60131  1  0  0  0
 60132  1  0  0  0
 60133  1  0  0  0
 61134  1  0  0  0
 61135  1  0  0  0
 61136  1  0  0  0
 62137  1  0  0  0
 62138  1  0  0  0
 62139  1  0  0  0
 63 65  1  0  0  0
 63140  1  0  0  0
 63141  1  0  0  0
 63142  1  0  0  0
 64143  1  0  0  0
 65144  1  0  0  0
 68 80  1  0  0  0
 71 72  2  0  0  0
 71 74  1  0  0  0
 71145  1  0  0  0
 72 75  1  0  0  0
 72146  1  0  0  0
 73 74  2  0  0  0
 73 76  1  0  0  0
 73147  1  0  0  0
 74 83  1  0  0  0
 75 76  2  0  0  0
 75 82  1  0  0  0
 76 81  1  0  0  0
 77 78  2  0  0  0
 77 80  1  0  0  0
 77 85  1  0  0  0
 78148  1  0  0  0
 78149  1  0  0  0
 79 80  1  0  0  0
 79 85  1  0  0  0
 79150  1  0  0  0
 79151  1  0  0  0
 80152  1  0  0  0
 81153  1  0  0  0
 81154  1  0  0  0
 81155  1  0  0  0
 82 84  1  0  0  0
 82156  1  0  0  0
 82157  1  0  0  0
 83158  1  0  0  0
 83159  1  0  0  0
 83 85  1  0  0  0
 84160  1  0  0  0
 85161  1  0  0  0
M  CHG  1  85   1
M  ISO  4   1 100  68 101  80 101  84 100
M  END
> <chiral flag>
0

> <version>
0

> <s_m_source_file>
/data/baiqing/PycharmProjects/Reinvent-master-3.2/result/LINK_invent/BTK/process_docking_weight1_custom_product_contain_oxygen_bond_distance_aromatic_linkinvent_7_9_3/rearranged_h_0032.sdf

> <i_m_source_file_index>
95

> <r_mmod_Potential_Energy-OPLS-2005>
-221.378448486328

> <r_mmod_Stretch_Energy-OPLS-2005>
49.1621322631836

> <r_mmod_Bend_Energy-OPLS-2005>
141.047927856445

> <r_mmod_Torsional_Energy-OPLS-2005>
216.389007568359

> <r_mmod_Improper_Torsional_Energy-OPLS-2005>
2.64383482933044

> <r_mmod_Van_der_Waal_Energy-OPLS-2005>
154.625595092773

> <r_mmod_Electrostatic_Energy-OPLS-2005>
-356.496948242188

> <r_mmod_Solvation_Energy-OPLS-2005>
-450.886962890625

> <b_mmod_Minimization_Converged-OPLS-2005>
0

> <r_mmod_RMS_Derivative-OPLS-2005>
4.72566556930542

$$$$
95
                    3D
 Structure written by MMmdl.
159167  0  0  1  0            999 V2000
  -30.6456  -14.7918   20.3022 C   0  0  0  0  0  0
  -30.4263  -12.4751   19.4300 C   0  0  0  0  0  0
  -29.4907  -12.4448   18.2082 C   0  0  0  0  0  0
  -28.0197  -12.2996   18.6528 C   0  0  0  0  0  0
  -27.6332  -13.2103   19.8538 C   0  0  2  0  0  0
  -28.7099  -13.2414   20.9501 C   0  0  0  0  0  0
  -25.2527  -13.8136   20.5851 C   0  0  0  0  0  0
  -24.1781  -13.0401   20.9265 C   0  0  0  0  0  0
  -24.6356  -11.6875   20.8811 C   0  0  0  0  0  0
  -23.9032  -10.4267   21.0432 C   0  0  0  0  0  0
  -24.3593   -9.4183   21.9201 C   0  0  0  0  0  0
  -23.6275   -8.2218   22.0755 C   0  0  0  0  0  0
  -22.4260   -8.0264   21.3540 C   0  0  0  0  0  0
  -21.9895   -9.0238   20.4643 C   0  0  0  0  0  0
  -22.7217  -10.2120   20.3064 C   0  0  0  0  0  0
  -21.6843   -6.0728   22.5278 C   0  0  0  0  0  0
  -21.4008   -6.5635   23.8211 C   0  0  0  0  0  0
  -21.3658   -5.6789   24.9174 C   0  0  0  0  0  0
  -21.6045   -4.3053   24.7227 C   0  0  0  0  0  0
  -21.8821   -3.8142   23.4348 C   0  0  0  0  0  0
  -21.9190   -4.6957   22.3402 C   0  0  0  0  0  0
  -22.7804  -13.5206   21.1877 C   0  0  0  0  0  0
  -22.1659   -4.2145   21.0980 F   0  0  0  0  0  0
  -21.5631   -3.4537   25.7740 F   0  0  0  0  0  0
  -29.9614  -13.5963   20.2689 N   0  0  0  0  0  0
  -26.2938  -12.9292   20.3492 N   0  0  0  0  0  0
  -25.9294  -11.6456   20.5902 N   0  0  0  0  0  0
  -22.0427  -12.8206   22.0422 N   0  0  0  0  0  0
  -25.4221  -15.1870   20.4355 N   0  0  0  0  0  0
  -31.8688  -14.7358   20.4527 O   0  0  0  0  0  0
  -21.6625   -6.8864   21.4236 O   0  0  0  0  0  0
  -22.3509  -14.5513   20.6710 O   0  0  0  0  0  0
  -24.6318  -31.8556   23.1992 C   0  0  0  0  0  0
  -25.9144  -32.4755   23.8335 C   0  0  1  0  0  0
  -27.2161  -27.2597   20.1235 C   0  0  0  0  0  0
  -25.5939  -33.8558   24.2258 N   0  0  0  0  0  0
  -23.4277  -30.4801   21.5432 C   0  0  2  0  0  0
  -24.8738  -28.9307   20.1086 C   0  0  0  0  0  0
  -22.7503  -29.4605   22.4912 C   0  0  0  0  0  0
  -18.0290  -28.1391   22.8486 C   0  0  0  0  0  0
  -24.1491  -36.7285   23.2639 C   0  0  0  0  0  0
  -25.9752  -30.7672   21.3807 C   0  0  0  0  0  0
  -26.0467  -29.3910   20.7202 C   0  0  0  0  0  0
  -27.2200  -28.5685   20.7176 C   0  0  0  0  0  0
  -26.0197  -26.8766   19.4720 C   0  0  0  0  0  0
  -24.8661  -27.6818   19.4732 C   0  0  0  0  0  0
  -23.6454  -29.8178   20.1584 C   0  0  0  0  0  0
  -25.4117  -36.3070   24.0325 C   0  0  1  0  0  0
  -20.5895  -28.3701   23.1267 C   0  0  2  0  0  0
  -20.6776  -26.9417   22.5408 C   0  0  0  0  0  0
  -19.5751  -26.6387   21.5211 C   0  0  0  0  0  0
  -18.1934  -26.7932   22.1628 C   0  0  0  0  0  0
  -19.1545  -28.8863   23.2871 C   0  0  0  0  0  0
  -18.9469  -30.1464   23.8892 C   0  0  0  0  0  0
  -17.6468  -30.6592   24.0565 C   0  0  0  0  0  0
  -25.9059  -34.9439   23.5092 C   0  0  0  0  0  0
  -16.5358  -29.9090   23.6335 C   0  0  0  0  0  0
  -16.7277  -28.6507   23.0355 C   0  0  0  0  0  0
  -26.4506  -31.6581   25.0728 C   0  0  0  0  0  0
  -25.3725  -31.3732   26.1445 C   0  0  0  0  0  0
  -27.0358  -30.2995   24.6225 C   0  0  0  0  0  0
  -27.6057  -32.4325   25.7504 C   0  0  0  0  0  0
  -27.5577  -37.1800   24.8465 C   0  0  0  0  0  0
  -21.4210  -29.3048   22.3658 N   0  0  0  0  0  0
  -26.4291  -37.3769   23.9406 N   0  0  0  0  0  0
  -24.6974  -31.0520   22.0971 N   0  0  0  0  0  0
  -23.4205  -28.8137   23.3003 O   0  0  0  0  0  0
  -28.3025  -26.3513   20.1963 O   0  0  0  0  0  0
  -26.5631  -34.8913   22.4662 O   0  0  0  0  0  0
  -23.5469  -32.1381   23.7288 O   0  0  0  0  0  0
  -27.6860  -19.4290   19.5331 C   0  0  0  0  0  0
  -27.2838  -18.2297   18.9293 C   0  0  0  0  0  0
  -29.7334  -18.3147   20.2392 C   0  0  0  0  0  0
  -28.9574  -19.5514   20.1262 C   0  0  0  0  0  0
  -28.1130  -17.0915   18.9069 C   0  0  0  0  0  0
  -29.3132  -17.0299   19.6804 C   0  0  0  0  0  0
  -27.7317  -16.0588   17.8542 C   0  0  0  0  0  0
  -31.0842  -16.0857   18.3291 C   0  0  0  0  0  0
  -29.4257  -21.0154   20.5745 C   0  0  0  0  0  0
  -29.0405  -23.6892   20.4349 C   0  0  0  0  0  0
  -28.0372  -24.8811   19.9827 C   0  0  0  0  0  0
  -30.1945  -15.8445   19.4808 N   0  0  0  0  0  0
  -28.6149  -22.2401   20.1039 N   0  3  0  0  0  0
  -31.4606  -12.6054   19.1058 H   0  0  0  0  0  0
  -30.3914  -11.5330   19.9792 H   0  0  0  0  0  0
  -29.7615  -11.6190   17.5489 H   0  0  0  0  0  0
  -29.6205  -13.3508   17.6174 H   0  0  0  0  0  0
  -27.8756  -11.2557   18.9333 H   0  0  0  0  0  0
  -27.3500  -12.4790   17.8110 H   0  0  0  0  0  0
  -27.5958  -14.2192   19.4836 H   0  0  0  0  0  0
  -28.7917  -12.2796   21.4579 H   0  0  0  0  0  0
  -28.4651  -13.9868   21.7086 H   0  0  0  0  0  0
  -25.2733   -9.5665   22.4782 H   0  0  0  0  0  0
  -23.9987   -7.4607   22.7469 H   0  0  0  0  0  0
  -21.0829   -8.8755   19.8945 H   0  0  0  0  0  0
  -22.3676  -10.9665   19.6181 H   0  0  0  0  0  0
  -21.1995   -7.6143   23.9714 H   0  0  0  0  0  0
  -21.1478   -6.0518   25.9078 H   0  0  0  0  0  0
  -22.0602   -2.7605   23.2846 H   0  0  0  0  0  0
  -22.4032  -11.9874   22.4829 H   0  0  0  0  0  0
  -21.1039  -13.1235   22.2603 H   0  0  0  0  0  0
  -24.6577  -15.8400   20.5664 H   0  0  0  0  0  0
  -26.2887  -15.6395   20.1728 H   0  0  0  0  0  0
  -26.7209  -32.5400   23.1074 H   0  0  0  0  0  0
  -25.0081  -33.9695   25.0400 H   0  0  0  0  0  0
  -22.7242  -31.3027   21.3992 H   0  0  0  0  0  0
  -23.3753  -35.9618   23.3301 H   0  0  0  0  0  0
  -24.3580  -36.8908   22.2053 H   0  0  0  0  0  0
  -23.7245  -37.6486   23.6665 H   0  0  0  0  0  0
  -26.1168  -31.5286   20.6126 H   0  0  0  0  0  0
  -26.8520  -30.8133   22.0151 H   0  0  0  0  0  0
  -28.1148  -28.9143   21.2161 H   0  0  0  0  0  0
  -25.9348  -25.9287   18.9631 H   0  0  0  0  0  0
  -23.9701  -27.3267   18.9823 H   0  0  0  0  0  0
  -23.7700  -30.5959   19.4045 H   0  0  0  0  0  0
  -22.7631  -29.2530   19.8520 H   0  0  0  0  0  0
  -25.1300  -36.1916   25.0818 H   0  0  0  0  0  0
  -20.9989  -28.3279   24.1386 H   0  0  0  0  0  0
  -20.5671  -26.2313   23.3615 H   0  0  0  0  0  0
  -21.6645  -26.7437   22.1205 H   0  0  0  0  0  0
  -19.6912  -25.6296   21.1244 H   0  0  0  0  0  0
  -19.6684  -27.3195   20.6737 H   0  0  0  0  0  0
  -17.4198  -26.6675   21.4036 H   0  0  0  0  0  0
  -18.0339  -26.0077   22.9029 H   0  0  0  0  0  0
  -19.7945  -30.7281   24.2259 H   0  0  0  0  0  0
  -17.5025  -31.6270   24.5171 H   0  0  0  0  0  0
  -15.5359  -30.2992   23.7668 H   0  0  0  0  0  0
  -15.8676  -28.0825   22.7076 H   0  0  0  0  0  0
  -24.5907  -30.7073   25.7772 H   0  0  0  0  0  0
  -24.8910  -32.2902   26.4851 H   0  0  0  0  0  0
  -25.8040  -30.8923   27.0232 H   0  0  0  0  0  0
  -26.2947  -29.6736   24.1238 H   0  0  0  0  0  0
  -27.4019  -29.7263   25.4753 H   0  0  0  0  0  0
  -27.8834  -30.4264   23.9487 H   0  0  0  0  0  0
  -27.2661  -33.3630   26.2065 H   0  0  0  0  0  0
  -28.3876  -32.6878   25.0340 H   0  0  0  0  0  0
  -28.0715  -31.8462   26.5434 H   0  0  0  0  0  0
  -28.2597  -38.0095   24.7508 H   0  0  0  0  0  0
  -28.1073  -36.2626   24.6300 H   0  0  0  0  0  0
  -27.2295  -37.1458   25.8868 H   0  0  0  0  0  0
  -20.9393  -29.8787   21.6877 H   0  0  0  0  0  0
  -26.0170  -38.2844   24.1402 H   0  0  0  0  0  0
  -27.0219  -20.2764   19.4450 H   0  0  0  0  0  0
  -26.3571  -18.2245   18.3711 H   0  0  0  0  0  0
  -30.7135  -18.3722   20.6920 H   0  0  0  0  0  0
  -26.7340  -15.6582   18.0308 H   0  0  0  0  0  0
  -28.4344  -15.2371   17.7590 H   0  0  0  0  0  0
  -27.7061  -16.5426   16.8774 H   0  0  0  0  0  0
  -31.9740  -16.6373   18.6371 H   0  0  0  0  0  0
  -30.5931  -16.6725   17.5519 H   0  0  0  0  0  0
  -31.4072  -15.1547   17.8583 H   0  0  0  0  0  0
  -30.4538  -21.1472   20.2364 H   0  0  0  0  0  0
  -29.4649  -21.0320   21.6640 H   0  0  0  0  0  0
  -29.1916  -23.7587   21.5123 H   0  0  0  0  0  0
  -30.0164  -23.8642   19.9818 H   0  0  0  0  0  0
  -27.0884  -24.6536   20.4701 H   0  0  0  0  0  0
  -27.8637  -24.7554   18.9135 H   0  0  0  0  0  0
  -27.6852  -22.1122   20.4701 H   0  0  0  0  0  0
  -28.5491  -22.1665   19.1009 H   0  0  0  0  0  0
  1 25  1  0  0  0
  1 30  2  0  0  0
  1 82  1  0  0  0
  2  3  1  0  0  0
  2 25  1  0  0  0
  2 84  1  0  0  0
  2 85  1  0  0  0
  3  4  1  0  0  0
  3 86  1  0  0  0
  3 87  1  0  0  0
  4  5  1  0  0  0
  4 88  1  0  0  0
  4 89  1  0  0  0
  5  6  1  0  0  0
  5 26  1  0  0  0
  5 90  1  0  0  0
  6 25  1  0  0  0
  6 91  1  0  0  0
  6 92  1  0  0  0
  7  8  2  0  0  0
  7 26  1  0  0  0
  7 29  1  0  0  0
  8  9  1  0  0  0
  8 22  1  0  0  0
  9 10  1  0  0  0
  9 27  2  0  0  0
 10 11  2  0  0  0
 10 15  1  0  0  0
 11 12  1  0  0  0
 11 93  1  0  0  0
 12 13  2  0  0  0
 12 94  1  0  0  0
 13 14  1  0  0  0
 13 31  1  0  0  0
 14 15  2  0  0  0
 14 95  1  0  0  0
 15 96  1  0  0  0
 16 17  2  0  0  0
 16 21  1  0  0  0
 16 31  1  0  0  0
 17 18  1  0  0  0
 17 97  1  0  0  0
 18 19  2  0  0  0
 18 98  1  0  0  0
 19 20  1  0  0  0
 19 24  1  0  0  0
 20 21  2  0  0  0
 20 99  1  0  0  0
 21 23  1  0  0  0
 22 28  1  0  0  0
 22 32  2  0  0  0
 26 27  1  0  0  0
 28100  1  0  0  0
 28101  1  0  0  0
 29102  1  0  0  0
 29103  1  0  0  0
 33 34  1  0  0  0
 33 66  1  0  0  0
 33 70  2  0  0  0
 34 36  1  0  0  0
 34 59  1  0  0  0
 34104  1  0  0  0
 35 44  2  0  0  0
 35 45  1  0  0  0
 35 68  1  0  0  0
 36 56  1  0  0  0
 36105  1  0  0  0
 37 39  1  0  0  0
 37 47  1  0  0  0
 37 66  1  0  0  0
 37106  1  0  0  0
 38 43  2  0  0  0
 38 46  1  0  0  0
 38 47  1  0  0  0
 39 64  1  0  0  0
 39 67  2  0  0  0
 40 52  1  0  0  0
 40 53  2  0  0  0
 40 58  1  0  0  0
 41107  1  0  0  0
 41108  1  0  0  0
 41109  1  0  0  0
 41 48  1  0  0  0
 42 43  1  0  0  0
 42 66  1  0  0  0
 42110  1  0  0  0
 42111  1  0  0  0
 43 44  1  0  0  0
 44112  1  0  0  0
 45 46  2  0  0  0
 45113  1  0  0  0
 46114  1  0  0  0
 47115  1  0  0  0
 47116  1  0  0  0
 48 56  1  0  0  0
 48 65  1  0  0  0
 48117  1  0  0  0
 49 50  1  0  0  0
 49 53  1  0  0  0
 49 64  1  0  0  0
 49118  1  0  0  0
 50 51  1  0  0  0
 50119  1  0  0  0
 50120  1  0  0  0
 51 52  1  0  0  0
 51121  1  0  0  0
 51122  1  0  0  0
 52123  1  0  0  0
 52124  1  0  0  0
 53 54  1  0  0  0
 54 55  2  0  0  0
 54125  1  0  0  0
 55 57  1  0  0  0
 55126  1  0  0  0
 56 69  2  0  0  0
 57 58  2  0  0  0
 57127  1  0  0  0
 58128  1  0  0  0
 59 60  1  0  0  0
 59 61  1  0  0  0
 59 62  1  0  0  0
 60129  1  0  0  0
 60130  1  0  0  0
 60131  1  0  0  0
 61132  1  0  0  0
 61133  1  0  0  0
 61134  1  0  0  0
 62135  1  0  0  0
 62136  1  0  0  0
 62137  1  0  0  0
 63 65  1  0  0  0
 63138  1  0  0  0
 63139  1  0  0  0
 63140  1  0  0  0
 64141  1  0  0  0
 65142  1  0  0  0
 68 81  1  0  0  0
 71 72  2  0  0  0
 71 74  1  0  0  0
 71143  1  0  0  0
 72 75  1  0  0  0
 72144  1  0  0  0
 73 74  2  0  0  0
 73 76  1  0  0  0
 73145  1  0  0  0
 74 79  1  0  0  0
 75 76  2  0  0  0
 75 77  1  0  0  0
 76 82  1  0  0  0
 77146  1  0  0  0
 77147  1  0  0  0
 77148  1  0  0  0
 78 82  1  0  0  0
 78149  1  0  0  0
 78150  1  0  0  0
 78151  1  0  0  0
 79 83  1  0  0  0
 79152  1  0  0  0
 79153  1  0  0  0
 80 81  1  0  0  0
 80 83  1  0  0  0
 80154  1  0  0  0
 80155  1  0  0  0
 81156  1  0  0  0
 81157  1  0  0  0
 83158  1  0  0  0
 83159  1  0  0  0
M  CHG  1  83   1
M  ISO  4   1 100  68 101  81 101  82 100
M  END
> <chiral flag>
0

> <version>
0

> <s_m_source_file>
/data/baiqing/PycharmProjects/Reinvent-master-3.2/result/LINK_invent/BTK/process_docking_weight1_custom_product_contain_oxygen_bond_distance_aromatic_linkinvent_7_9_3/rearranged_h_0032.sdf

> <i_m_source_file_index>
96

> <r_mmod_Potential_Energy-OPLS-2005>
306.608184814453

> <r_mmod_Stretch_Energy-OPLS-2005>
135.113220214844

> <r_mmod_Bend_Energy-OPLS-2005>
199.451431274414

> <r_mmod_Torsional_Energy-OPLS-2005>
334.857238769531

> <r_mmod_Improper_Torsional_Energy-OPLS-2005>
36.2162742614746

> <r_mmod_Van_der_Waal_Energy-OPLS-2005>
145.695053100586

> <r_mmod_Electrostatic_Energy-OPLS-2005>
-221.779891967773

> <r_mmod_Solvation_Energy-OPLS-2005>
-450.222778320312

> <b_mmod_Minimization_Converged-OPLS-2005>
0

> <r_mmod_RMS_Derivative-OPLS-2005>
0.336541622877121

$$$$
