0
                    3D
 Structure written by MMmdl.
155163  0  0  1  0            999 V2000
  -30.5044  -14.9706   20.4281 C   0  0  0  0  0  0
  -30.4490  -12.6035   19.5006 C   0  0  0  0  0  0
  -29.5259  -12.5587   18.2563 C   0  0  0  0  0  0
  -28.0549  -12.3374   18.6613 C   0  0  0  0  0  0
  -27.6355  -13.2332   19.8548 C   0  0  2  0  0  0
  -28.6826  -13.1957   20.9867 C   0  0  0  0  0  0
  -25.2499  -13.8166   20.5744 C   0  0  0  0  0  0
  -24.1762  -13.0409   20.9160 C   0  0  0  0  0  0
  -24.6354  -11.6893   20.8683 C   0  0  0  0  0  0
  -23.9034  -10.4284   21.0366 C   0  0  0  0  0  0
  -24.3583   -9.4218   21.9164 C   0  0  0  0  0  0
  -23.6280   -8.2246   22.0755 C   0  0  0  0  0  0
  -22.4269   -8.0275   21.3542 C   0  0  0  0  0  0
  -21.9891   -9.0232   20.4639 C   0  0  0  0  0  0
  -22.7195  -10.2124   20.3038 C   0  0  0  0  0  0
  -21.6863   -6.0715   22.5267 C   0  0  0  0  0  0
  -21.4015   -6.5626   23.8192 C   0  0  0  0  0  0
  -21.3676   -5.6795   24.9162 C   0  0  0  0  0  0
  -21.6046   -4.3053   24.7221 C   0  0  0  0  0  0
  -21.8822   -3.8133   23.4346 C   0  0  0  0  0  0
  -21.9201   -4.6941   22.3395 C   0  0  0  0  0  0
  -22.7800  -13.5205   21.1851 C   0  0  0  0  0  0
  -22.1672   -4.2125   21.0970 F   0  0  0  0  0  0
  -21.5640   -3.4535   25.7733 F   0  0  0  0  0  0
  -29.9511  -13.6772   20.4127 N   0  0  0  0  0  0
  -26.2910  -12.9360   20.3317 N   0  0  0  0  0  0
  -25.9294  -11.6495   20.5719 N   0  0  0  0  0  0
  -22.0470  -12.8174   22.0415 N   0  0  0  0  0  0
  -25.4287  -15.1878   20.4302 N   0  0  0  0  0  0
  -31.7011  -15.0515   20.1166 O   0  0  0  0  0  0
  -21.6647   -6.8860   21.4230 O   0  0  0  0  0  0
  -22.3489  -14.5538   20.6760 O   0  0  0  0  0  0
  -24.6444  -31.8431   23.1885 C   0  0  0  0  0  0
  -25.9203  -32.4693   23.8295 C   0  0  1  0  0  0
  -27.2243  -27.1280   20.1519 C   0  0  0  0  0  0
  -25.5935  -33.8496   24.2199 N   0  0  0  0  0  0
  -23.4512  -30.4614   21.5331 C   0  0  2  0  0  0
  -24.9037  -28.8888   20.1122 C   0  0  0  0  0  0
  -22.7588  -29.4528   22.4842 C   0  0  0  0  0  0
  -18.0300  -28.1411   22.8444 C   0  0  0  0  0  0
  -24.1488  -36.7262   23.2647 C   0  0  0  0  0  0
  -26.0081  -30.7154   21.3899 C   0  0  0  0  0  0
  -26.0816  -29.3245   20.7325 C   0  0  0  0  0  0
  -27.2444  -28.4613   20.7331 C   0  0  0  0  0  0
  -26.0209  -26.8026   19.4856 C   0  0  0  0  0  0
  -24.8865  -27.6421   19.4719 C   0  0  0  0  0  0
  -23.6796  -29.7908   20.1530 C   0  0  0  0  0  0
  -25.4123  -36.3033   24.0310 C   0  0  1  0  0  0
  -20.5910  -28.3738   23.1215 C   0  0  2  0  0  0
  -20.6785  -26.9429   22.5412 C   0  0  0  0  0  0
  -19.5791  -26.6380   21.5190 C   0  0  0  0  0  0
  -18.1946  -26.7962   22.1567 C   0  0  0  0  0  0
  -19.1552  -28.8890   23.2820 C   0  0  0  0  0  0
  -18.9473  -30.1477   23.8861 C   0  0  0  0  0  0
  -17.6472  -30.6605   24.0557 C   0  0  0  0  0  0
  -25.9071  -34.9402   23.5069 C   0  0  0  0  0  0
  -16.5357  -29.9103   23.6338 C   0  0  0  0  0  0
  -16.7284  -28.6525   23.0341 C   0  0  0  0  0  0
  -26.4516  -31.6571   25.0749 C   0  0  0  0  0  0
  -25.3679  -31.3742   26.1426 C   0  0  0  0  0  0
  -27.0416  -30.2972   24.6363 C   0  0  0  0  0  0
  -27.6059  -32.4342   25.7500 C   0  0  0  0  0  0
  -27.5590  -37.1775   24.8450 C   0  0  0  0  0  0
  -21.4271  -29.3050   22.3594 N   0  0  0  0  0  0
  -26.4280  -37.3749   23.9417 N   0  0  0  0  0  0
  -24.7211  -31.0266   22.0933 N   0  0  0  0  0  0
  -23.4219  -28.8059   23.2992 O   0  0  0  0  0  0
  -28.2765  -26.1351   20.1877 O   0  0  0  0  0  0
  -26.5669  -34.8896   22.4656 O   0  0  0  0  0  0
  -23.5555  -32.1304   23.7081 O   0  0  0  0  0  0
  -30.6219  -20.6137   19.3552 C   0  0  0  0  0  0
  -31.0240  -18.1662   19.4749 C   0  0  0  0  0  0
  -29.4993  -20.5667   20.2053 C   0  0  0  0  0  0
  -29.9268  -17.9198   20.3313 C   0  0  0  0  0  0
  -31.3682  -19.4604   19.0131 C   0  0  0  0  0  0
  -29.2040  -19.1896   20.7102 C   0  0  0  0  0  0
  -28.7268  -21.9568   20.4767 C   0  0  0  0  0  0
  -28.9132  -23.3268   20.1352 C   0  0  0  0  0  0
  -29.5692  -16.3588   20.6837 C   0  0  0  0  0  0
  -32.5682  -19.6119   18.0973 C   0  0  0  0  0  0
  -28.0717  -19.1130   21.7263 C   0  0  0  0  0  0
  -27.9486  -24.6299   20.4398 C   0  0  0  0  0  0
  -28.4121  -16.1955   21.1657 N   0  0  0  0  0  0
  -31.4779  -12.7781   19.1865 H   0  0  0  0  0  0
  -30.4588  -11.6378   20.0088 H   0  0  0  0  0  0
  -29.8477  -11.7776   17.5670 H   0  0  0  0  0  0
  -29.6110  -13.5010   17.7115 H   0  0  0  0  0  0
  -27.9355  -11.2871   18.9278 H   0  0  0  0  0  0
  -27.3980  -12.5142   17.8090 H   0  0  0  0  0  0
  -27.6122  -14.2482   19.4599 H   0  0  0  0  0  0
  -28.7863  -12.1822   21.3771 H   0  0  0  0  0  0
  -28.3747  -13.7909   21.8442 H   0  0  0  0  0  0
  -25.2727   -9.5712   22.4741 H   0  0  0  0  0  0
  -23.9988   -7.4649   22.7487 H   0  0  0  0  0  0
  -21.0832   -8.8726   19.8942 H   0  0  0  0  0  0
  -22.3620  -10.9663   19.6153 H   0  0  0  0  0  0
  -21.2003   -7.6138   23.9669 H   0  0  0  0  0  0
  -21.1517   -6.0538   25.9063 H   0  0  0  0  0  0
  -22.0599   -2.7600   23.2847 H   0  0  0  0  0  0
  -22.4099  -11.9825   22.4768 H   0  0  0  0  0  0
  -21.1085  -13.1177   22.2649 H   0  0  0  0  0  0
  -24.6977  -15.8594   20.6385 H   0  0  0  0  0  0
  -26.3581  -15.5981   20.4034 H   0  0  0  0  0  0
  -26.7274  -32.5302   23.1028 H   0  0  0  0  0  0
  -25.0034  -33.9609   25.0322 H   0  0  0  0  0  0
  -22.7521  -31.2852   21.3760 H   0  0  0  0  0  0
  -23.3760  -35.9578   23.3249 H   0  0  0  0  0  0
  -24.3567  -36.8985   22.2077 H   0  0  0  0  0  0
  -23.7224  -37.6420   23.6742 H   0  0  0  0  0  0
  -26.1599  -31.4684   20.6154 H   0  0  0  0  0  0
  -26.8785  -30.7704   22.0321 H   0  0  0  0  0  0
  -28.1447  -28.7912   21.2324 H   0  0  0  0  0  0
  -25.9281  -25.8641   18.9607 H   0  0  0  0  0  0
  -23.9906  -27.3097   18.9656 H   0  0  0  0  0  0
  -23.8133  -30.5640   19.3960 H   0  0  0  0  0  0
  -22.7964  -29.2293   19.8459 H   0  0  0  0  0  0
  -25.1297  -36.1860   25.0793 H   0  0  0  0  0  0
  -20.9979  -28.3347   24.1342 H   0  0  0  0  0  0
  -20.5641  -26.2345   23.3633 H   0  0  0  0  0  0
  -21.6661  -26.7418   22.1245 H   0  0  0  0  0  0
  -19.6956  -25.6283   21.1254 H   0  0  0  0  0  0
  -19.6770  -27.3151   20.6688 H   0  0  0  0  0  0
  -17.4243  -26.6702   21.3949 H   0  0  0  0  0  0
  -18.0315  -26.0103   22.8952 H   0  0  0  0  0  0
  -19.7947  -30.7277   24.2240 H   0  0  0  0  0  0
  -17.5039  -31.6277   24.5179 H   0  0  0  0  0  0
  -15.5367  -30.2998   23.7705 H   0  0  0  0  0  0
  -15.8668  -28.0845   22.7081 H   0  0  0  0  0  0
  -24.5968  -30.6946   25.7760 H   0  0  0  0  0  0
  -24.8705  -32.2889   26.4664 H   0  0  0  0  0  0
  -25.7965  -30.9100   27.0321 H   0  0  0  0  0  0
  -26.3076  -29.6647   24.1364 H   0  0  0  0  0  0
  -27.4012  -29.7320   25.4970 H   0  0  0  0  0  0
  -27.8974  -30.4201   23.9723 H   0  0  0  0  0  0
  -27.2709  -33.3719   26.1942 H   0  0  0  0  0  0
  -28.3922  -32.6778   25.0338 H   0  0  0  0  0  0
  -28.0673  -31.8554   26.5510 H   0  0  0  0  0  0
  -28.2550  -38.0128   24.7542 H   0  0  0  0  0  0
  -28.1138  -36.2648   24.6203 H   0  0  0  0  0  0
  -27.2309  -37.1351   25.8853 H   0  0  0  0  0  0
  -20.9490  -29.8784   21.6774 H   0  0  0  0  0  0
  -26.0143  -38.2800   24.1473 H   0  0  0  0  0  0
  -30.9213  -21.5674   18.9403 H   0  0  0  0  0  0
  -31.6263  -17.3357   19.1348 H   0  0  0  0  0  0
  -27.8161  -21.8089   21.0368 H   0  0  0  0  0  0
  -29.7968  -23.5744   19.5654 H   0  0  0  0  0  0
  -33.0079  -20.6057   18.1880 H   0  0  0  0  0  0
  -32.2829  -19.4601   17.0557 H   0  0  0  0  0  0
  -33.3444  -18.8868   18.3440 H   0  0  0  0  0  0
  -27.9568  -20.0474   22.2736 H   0  0  0  0  0  0
  -28.2687  -18.3677   22.4959 H   0  0  0  0  0  0
  -27.1220  -18.8878   21.2412 H   0  0  0  0  0  0
  -27.7022  -24.5613   21.5000 H   0  0  0  0  0  0
  -27.0211  -24.3766   19.9334 H   0  0  0  0  0  0
  -27.9496  -17.0904   21.2593 H   0  0  0  0  0  0
  1 25  1  0  0  0
  1 30  2  0  0  0
  1 79  1  0  0  0
  2  3  1  0  0  0
  2 25  1  0  0  0
  2 84  1  0  0  0
  2 85  1  0  0  0
  3  4  1  0  0  0
  3 86  1  0  0  0
  3 87  1  0  0  0
  4  5  1  0  0  0
  4 88  1  0  0  0
  4 89  1  0  0  0
  5  6  1  0  0  0
  5 26  1  0  0  0
  5 90  1  0  0  0
  6 25  1  0  0  0
  6 91  1  0  0  0
  6 92  1  0  0  0
  7  8  2  0  0  0
  7 26  1  0  0  0
  7 29  1  0  0  0
  8  9  1  0  0  0
  8 22  1  0  0  0
  9 10  1  0  0  0
  9 27  2  0  0  0
 10 11  2  0  0  0
 10 15  1  0  0  0
 11 12  1  0  0  0
 11 93  1  0  0  0
 12 13  2  0  0  0
 12 94  1  0  0  0
 13 14  1  0  0  0
 13 31  1  0  0  0
 14 15  2  0  0  0
 14 95  1  0  0  0
 15 96  1  0  0  0
 16 17  2  0  0  0
 16 21  1  0  0  0
 16 31  1  0  0  0
 17 18  1  0  0  0
 17 97  1  0  0  0
 18 19  2  0  0  0
 18 98  1  0  0  0
 19 20  1  0  0  0
 19 24  1  0  0  0
 20 21  2  0  0  0
 20 99  1  0  0  0
 21 23  1  0  0  0
 22 28  1  0  0  0
 22 32  2  0  0  0
 26 27  1  0  0  0
 28100  1  0  0  0
 28101  1  0  0  0
 29102  1  0  0  0
 29103  1  0  0  0
 33 34  1  0  0  0
 33 66  1  0  0  0
 33 70  2  0  0  0
 34 36  1  0  0  0
 34 59  1  0  0  0
 34104  1  0  0  0
 35 44  2  0  0  0
 35 45  1  0  0  0
 35 68  1  0  0  0
 36 56  1  0  0  0
 36105  1  0  0  0
 37 39  1  0  0  0
 37 47  1  0  0  0
 37 66  1  0  0  0
 37106  1  0  0  0
 38 43  2  0  0  0
 38 46  1  0  0  0
 38 47  1  0  0  0
 39 64  1  0  0  0
 39 67  2  0  0  0
 40 52  1  0  0  0
 40 53  2  0  0  0
 40 58  1  0  0  0
 41107  1  0  0  0
 41108  1  0  0  0
 41109  1  0  0  0
 41 48  1  0  0  0
 42 43  1  0  0  0
 42 66  1  0  0  0
 42110  1  0  0  0
 42111  1  0  0  0
 43 44  1  0  0  0
 44112  1  0  0  0
 45 46  2  0  0  0
 45113  1  0  0  0
 46114  1  0  0  0
 47115  1  0  0  0
 47116  1  0  0  0
 48 56  1  0  0  0
 48 65  1  0  0  0
 48117  1  0  0  0
 49 50  1  0  0  0
 49 53  1  0  0  0
 49 64  1  0  0  0
 49118  1  0  0  0
 50 51  1  0  0  0
 50119  1  0  0  0
 50120  1  0  0  0
 51 52  1  0  0  0
 51121  1  0  0  0
 51122  1  0  0  0
 52123  1  0  0  0
 52124  1  0  0  0
 53 54  1  0  0  0
 54 55  2  0  0  0
 54125  1  0  0  0
 55 57  1  0  0  0
 55126  1  0  0  0
 56 69  2  0  0  0
 57 58  2  0  0  0
 57127  1  0  0  0
 58128  1  0  0  0
 59 60  1  0  0  0
 59 61  1  0  0  0
 59 62  1  0  0  0
 60129  1  0  0  0
 60130  1  0  0  0
 60131  1  0  0  0
 61132  1  0  0  0
 61133  1  0  0  0
 61134  1  0  0  0
 62135  1  0  0  0
 62136  1  0  0  0
 62137  1  0  0  0
 63 65  1  0  0  0
 63138  1  0  0  0
 63139  1  0  0  0
 63140  1  0  0  0
 64141  1  0  0  0
 65142  1  0  0  0
 68 82  1  0  0  0
 71 73  2  0  0  0
 71 75  1  0  0  0
 71143  1  0  0  0
 72 74  1  0  0  0
 72 75  2  0  0  0
 72144  1  0  0  0
 73 76  1  0  0  0
 73 77  1  0  0  0
 74 76  2  0  0  0
 74 79  1  0  0  0
 75 80  1  0  0  0
 76 81  1  0  0  0
 77 78  2  0  0  0
 77145  1  0  0  0
 78 82  1  0  0  0
 78146  1  0  0  0
 79 83  2  0  0  0
 80147  1  0  0  0
 80148  1  0  0  0
 80149  1  0  0  0
 81150  1  0  0  0
 81151  1  0  0  0
 81152  1  0  0  0
 82153  1  0  0  0
 82154  1  0  0  0
 83155  1  0  0  0
M  ISO  4   1 100  68 101  79 100  82 101
M  END
> <chiral flag>
0

> <version>
0

> <s_m_source_file>
/data/baiqing/PycharmProjects/Reinvent-master-3.2/result/LINK_invent/BTK/process_docking_weight1_custom_product_contain_oxygen_bond_distance_aromatic_linkinvent_7_9_3/rearranged_h_0123.sdf

> <i_m_source_file_index>
1

> <r_mmod_Potential_Energy-OPLS-2005>
680.471313476562

> <r_mmod_Stretch_Energy-OPLS-2005>
302.642303466797

> <r_mmod_Bend_Energy-OPLS-2005>
247.129516601562

> <r_mmod_Torsional_Energy-OPLS-2005>
202.886260986328

> <r_mmod_Improper_Torsional_Energy-OPLS-2005>
4.54483985900879

> <r_mmod_Van_der_Waal_Energy-OPLS-2005>
148.682998657227

> <r_mmod_Electrostatic_Energy-OPLS-2005>
-234.832656860352

> <r_mmod_Solvation_Energy-OPLS-2005>
-186.962463378906

> <b_mmod_Minimization_Converged-OPLS-2005>
0

> <r_mmod_RMS_Derivative-OPLS-2005>
2.31397175788879

$$$$
1
                    3D
 Structure written by MMmdl.
159167  0  0  1  0            999 V2000
  -30.6090  -14.5962   20.5635 C   0  0  0  0  0  0
  -30.4426  -12.3726   19.4489 C   0  0  0  0  0  0
  -29.5108  -12.4976   18.2216 C   0  0  0  0  0  0
  -28.0327  -12.3274   18.6320 C   0  0  0  0  0  0
  -27.6512  -13.2001   19.8550 C   0  0  2  0  0  0
  -28.6886  -13.0235   20.9851 C   0  0  0  0  0  0
  -25.2575  -13.8114   20.5690 C   0  0  0  0  0  0
  -24.1847  -13.0399   20.9208 C   0  0  0  0  0  0
  -24.6391  -11.6863   20.8758 C   0  0  0  0  0  0
  -23.9063  -10.4260   21.0444 C   0  0  0  0  0  0
  -24.3626   -9.4169   21.9210 C   0  0  0  0  0  0
  -23.6287   -8.2213   22.0768 C   0  0  0  0  0  0
  -22.4274   -8.0274   21.3551 C   0  0  0  0  0  0
  -21.9911   -9.0254   20.4658 C   0  0  0  0  0  0
  -22.7253  -10.2120   20.3074 C   0  0  0  0  0  0
  -21.6842   -6.0746   22.5283 C   0  0  0  0  0  0
  -21.3999   -6.5644   23.8212 C   0  0  0  0  0  0
  -21.3654   -5.6799   24.9180 C   0  0  0  0  0  0
  -21.6049   -4.3059   24.7228 C   0  0  0  0  0  0
  -21.8814   -3.8156   23.4353 C   0  0  0  0  0  0
  -21.9189   -4.6967   22.3405 C   0  0  0  0  0  0
  -22.7871  -13.5205   21.1865 C   0  0  0  0  0  0
  -22.1655   -4.2159   21.0984 F   0  0  0  0  0  0
  -21.5638   -3.4544   25.7745 F   0  0  0  0  0  0
  -30.0081  -13.3751   20.4358 N   0  0  0  0  0  0
  -26.2960  -12.9263   20.3219 N   0  0  0  0  0  0
  -25.9294  -11.6435   20.5712 N   0  0  0  0  0  0
  -22.0517  -12.8218   22.0425 N   0  0  0  0  0  0
  -25.4265  -15.1857   20.4167 N   0  0  0  0  0  0
  -31.7795  -14.7952   20.2258 O   0  0  0  0  0  0
  -21.6628   -6.8878   21.4235 O   0  0  0  0  0  0
  -22.3551  -14.5506   20.6704 O   0  0  0  0  0  0
  -24.6202  -31.8628   23.2064 C   0  0  0  0  0  0
  -25.9059  -32.4799   23.8367 C   0  0  1  0  0  0
  -27.2272  -27.3653   20.1261 C   0  0  0  0  0  0
  -25.5875  -33.8591   24.2274 N   0  0  0  0  0  0
  -23.4143  -30.4845   21.5457 C   0  0  2  0  0  0
  -24.8637  -28.9354   20.1180 C   0  0  0  0  0  0
  -22.7474  -29.4636   22.4968 C   0  0  0  0  0  0
  -18.0295  -28.1402   22.8482 C   0  0  0  0  0  0
  -24.1466  -36.7296   23.2646 C   0  0  0  0  0  0
  -25.9464  -30.8064   21.3704 C   0  0  0  0  0  0
  -26.0249  -29.4304   20.7270 C   0  0  0  0  0  0
  -27.2139  -28.6507   20.7329 C   0  0  0  0  0  0
  -26.0526  -26.9007   19.5038 C   0  0  0  0  0  0
  -24.8752  -27.6739   19.5006 C   0  0  0  0  0  0
  -23.6287  -29.8108   20.1625 C   0  0  0  0  0  0
  -25.4097  -36.3107   24.0334 C   0  0  1  0  0  0
  -20.5885  -28.3672   23.1309 C   0  0  2  0  0  0
  -20.6775  -26.9410   22.5416 C   0  0  0  0  0  0
  -19.5756  -26.6392   21.5217 C   0  0  0  0  0  0
  -18.1936  -26.7944   22.1628 C   0  0  0  0  0  0
  -19.1548  -28.8858   23.2879 C   0  0  0  0  0  0
  -18.9483  -30.1470   23.8877 C   0  0  0  0  0  0
  -17.6487  -30.6601   24.0572 C   0  0  0  0  0  0
  -25.9034  -34.9476   23.5116 C   0  0  0  0  0  0
  -16.5376  -29.9098   23.6348 C   0  0  0  0  0  0
  -16.7286  -28.6527   23.0340 C   0  0  0  0  0  0
  -26.4447  -31.6618   25.0733 C   0  0  0  0  0  0
  -25.3673  -31.3750   26.1458 C   0  0  0  0  0  0
  -27.0284  -30.3068   24.6115 C   0  0  0  0  0  0
  -27.6025  -32.4353   25.7472 C   0  0  0  0  0  0
  -27.5572  -37.1804   24.8482 C   0  0  0  0  0  0
  -21.4196  -29.3029   22.3704 N   0  0  0  0  0  0
  -26.4280  -37.3805   23.9432 N   0  0  0  0  0  0
  -24.6787  -31.0667   22.0996 N   0  0  0  0  0  0
  -23.4236  -28.8194   23.3043 O   0  0  0  0  0  0
  -28.3448  -26.5497   20.0586 O   0  0  0  0  0  0
  -26.5626  -34.8946   22.4695 O   0  0  0  0  0  0
  -23.5379  -32.1405   23.7416 O   0  0  0  0  0  0
  -29.4185  -19.2754   22.9773 C   0  0  0  0  0  0
  -29.3379  -18.0331   23.6252 C   0  0  0  0  0  0
  -29.9154  -18.1351   20.8861 C   0  0  0  0  0  0
  -29.7233  -19.3680   21.6016 C   0  0  0  0  0  0
  -29.5348  -16.8287   22.9214 C   0  0  0  0  0  0
  -29.8238  -16.8529   21.5314 C   0  0  0  0  0  0
  -31.9755  -23.0755   20.6998 C   0  0  0  0  0  0
  -29.8302  -20.7448   20.9870 C   0  0  0  0  0  0
  -30.8141  -23.7316   20.5354 C   0  0  0  0  0  0
  -29.2470  -21.9001   21.4435 C   0  0  0  0  0  0
  -28.5743  -24.2867   21.2774 C   0  0  0  0  0  0
  -29.5171  -23.3173   21.0628 C   0  0  0  0  0  0
  -29.3682  -15.5318   23.6992 C   0  0  0  0  0  0
  -28.7304  -25.8396   21.2575 C   0  0  0  0  0  0
  -29.7250  -15.6087   20.8017 N   0  0  0  0  0  0
  -31.4858  -12.5083   19.1613 H   0  0  0  0  0  0
  -30.3762  -11.3730   19.8837 H   0  0  0  0  0  0
  -29.7803  -11.7550   17.4680 H   0  0  0  0  0  0
  -29.6479  -13.4737   17.7524 H   0  0  0  0  0  0
  -27.8816  -11.2753   18.8760 H   0  0  0  0  0  0
  -27.3744  -12.5402   17.7893 H   0  0  0  0  0  0
  -27.6710  -14.2372   19.5162 H   0  0  0  0  0  0
  -28.6949  -11.9917   21.3390 H   0  0  0  0  0  0
  -28.4211  -13.6246   21.8532 H   0  0  0  0  0  0
  -25.2789   -9.5612   22.4768 H   0  0  0  0  0  0
  -23.9999   -7.4602   22.7489 H   0  0  0  0  0  0
  -21.0837   -8.8789   19.8977 H   0  0  0  0  0  0
  -22.3751  -10.9665   19.6177 H   0  0  0  0  0  0
  -21.1975   -7.6152   23.9727 H   0  0  0  0  0  0
  -21.1480   -6.0524   25.9083 H   0  0  0  0  0  0
  -22.0602   -2.7617   23.2850 H   0  0  0  0  0  0
  -22.4109  -11.9864   22.4810 H   0  0  0  0  0  0
  -21.1128  -13.1232   22.2613 H   0  0  0  0  0  0
  -24.6625  -15.8325   20.5799 H   0  0  0  0  0  0
  -26.2591  -15.6411   20.0646 H   0  0  0  0  0  0
  -26.7125  -32.5482   23.1128 H   0  0  0  0  0  0
  -24.9969  -33.9728   25.0382 H   0  0  0  0  0  0
  -22.7084  -31.3052   21.4003 H   0  0  0  0  0  0
  -23.3736  -35.9626   23.3336 H   0  0  0  0  0  0
  -24.3551  -36.8890   22.2067 H   0  0  0  0  0  0
  -23.7207  -37.6501   23.6631 H   0  0  0  0  0  0
  -26.0609  -31.5670   20.5964 H   0  0  0  0  0  0
  -26.8339  -30.8661   21.9878 H   0  0  0  0  0  0
  -28.1138  -29.0220   21.2010 H   0  0  0  0  0  0
  -26.0407  -25.9251   19.0340 H   0  0  0  0  0  0
  -23.9881  -27.2931   19.0173 H   0  0  0  0  0  0
  -23.7466  -30.5814   19.4002 H   0  0  0  0  0  0
  -22.7526  -29.2348   19.8596 H   0  0  0  0  0  0
  -25.1281  -36.1974   25.0829 H   0  0  0  0  0  0
  -20.9965  -28.3230   24.1442 H   0  0  0  0  0  0
  -20.5693  -26.2300   23.3604 H   0  0  0  0  0  0
  -21.6640  -26.7461   22.1205 H   0  0  0  0  0  0
  -19.6927  -25.6303   21.1241 H   0  0  0  0  0  0
  -19.6682  -27.3201   20.6734 H   0  0  0  0  0  0
  -17.4203  -26.6698   21.4026 H   0  0  0  0  0  0
  -18.0350  -26.0080   22.9020 H   0  0  0  0  0  0
  -19.7962  -30.7292   24.2240 H   0  0  0  0  0  0
  -17.5044  -31.6283   24.5171 H   0  0  0  0  0  0
  -15.5377  -30.2997   23.7686 H   0  0  0  0  0  0
  -15.8683  -28.0852   22.7046 H   0  0  0  0  0  0
  -24.5845  -30.7105   25.7776 H   0  0  0  0  0  0
  -24.8850  -32.2921   26.4863 H   0  0  0  0  0  0
  -25.7980  -30.8931   27.0248 H   0  0  0  0  0  0
  -26.2841  -29.6839   24.1126 H   0  0  0  0  0  0
  -27.4032  -29.7295   25.4578 H   0  0  0  0  0  0
  -27.8684  -30.4422   23.9291 H   0  0  0  0  0  0
  -27.2648  -33.3666   26.2024 H   0  0  0  0  0  0
  -28.3798  -32.6902   25.0257 H   0  0  0  0  0  0
  -28.0694  -31.8485   26.5391 H   0  0  0  0  0  0
  -28.2623  -38.0079   24.7531 H   0  0  0  0  0  0
  -28.1044  -36.2621   24.6298 H   0  0  0  0  0  0
  -27.2307  -37.1453   25.8893 H   0  0  0  0  0  0
  -20.9412  -29.8708   21.6840 H   0  0  0  0  0  0
  -26.0178  -38.2885   24.1439 H   0  0  0  0  0  0
  -29.2717  -20.1631   23.5764 H   0  0  0  0  0  0
  -29.1037  -18.0142   24.6811 H   0  0  0  0  0  0
  -30.0958  -18.1775   19.8209 H   0  0  0  0  0  0
  -32.8862  -23.4563   20.2596 H   0  0  0  0  0  0
  -32.0474  -22.1643   21.2745 H   0  0  0  0  0  0
  -30.4978  -20.8098   20.1402 H   0  0  0  0  0  0
  -30.8556  -24.6348   19.9413 H   0  0  0  0  0  0
  -28.5471  -21.7875   22.2596 H   0  0  0  0  0  0
  -27.5878  -23.9698   21.5878 H   0  0  0  0  0  0
  -29.6263  -15.6746   24.7488 H   0  0  0  0  0  0
  -30.0112  -14.7366   23.3288 H   0  0  0  0  0  0
  -28.3319  -15.1965   23.6590 H   0  0  0  0  0  0
  -29.7645  -26.1064   21.4725 H   0  0  0  0  0  0
  -28.1644  -26.2191   22.1106 H   0  0  0  0  0  0
  -28.7869  -15.2425   20.8072 H   0  0  0  0  0  0
  1 25  1  0  0  0
  1 30  2  0  0  0
  1 85  1  0  0  0
  2  3  1  0  0  0
  2 25  1  0  0  0
  2 86  1  0  0  0
  2 87  1  0  0  0
  3  4  1  0  0  0
  3 88  1  0  0  0
  3 89  1  0  0  0
  4  5  1  0  0  0
  4 90  1  0  0  0
  4 91  1  0  0  0
  5  6  1  0  0  0
  5 26  1  0  0  0
  5 92  1  0  0  0
  6 25  1  0  0  0
  6 93  1  0  0  0
  6 94  1  0  0  0
  7  8  2  0  0  0
  7 26  1  0  0  0
  7 29  1  0  0  0
  8  9  1  0  0  0
  8 22  1  0  0  0
  9 10  1  0  0  0
  9 27  2  0  0  0
 10 11  2  0  0  0
 10 15  1  0  0  0
 11 12  1  0  0  0
 11 95  1  0  0  0
 12 13  2  0  0  0
 12 96  1  0  0  0
 13 14  1  0  0  0
 13 31  1  0  0  0
 14 15  2  0  0  0
 14 97  1  0  0  0
 15 98  1  0  0  0
 16 17  2  0  0  0
 16 21  1  0  0  0
 16 31  1  0  0  0
 17 18  1  0  0  0
 17 99  1  0  0  0
 18 19  2  0  0  0
 18100  1  0  0  0
 19 20  1  0  0  0
 19 24  1  0  0  0
 20 21  2  0  0  0
 20101  1  0  0  0
 21 23  1  0  0  0
 22 28  1  0  0  0
 22 32  2  0  0  0
 26 27  1  0  0  0
 28102  1  0  0  0
 28103  1  0  0  0
 29104  1  0  0  0
 29105  1  0  0  0
 33 34  1  0  0  0
 33 66  1  0  0  0
 33 70  2  0  0  0
 34 36  1  0  0  0
 34 59  1  0  0  0
 34106  1  0  0  0
 35 44  2  0  0  0
 35 45  1  0  0  0
 35 68  1  0  0  0
 36 56  1  0  0  0
 36107  1  0  0  0
 37 39  1  0  0  0
 37 47  1  0  0  0
 37 66  1  0  0  0
 37108  1  0  0  0
 38 43  2  0  0  0
 38 46  1  0  0  0
 38 47  1  0  0  0
 39 64  1  0  0  0
 39 67  2  0  0  0
 40 52  1  0  0  0
 40 53  2  0  0  0
 40 58  1  0  0  0
 41109  1  0  0  0
 41110  1  0  0  0
 41111  1  0  0  0
 41 48  1  0  0  0
 42 43  1  0  0  0
 42 66  1  0  0  0
 42112  1  0  0  0
 42113  1  0  0  0
 43 44  1  0  0  0
 44114  1  0  0  0
 45 46  2  0  0  0
 45115  1  0  0  0
 46116  1  0  0  0
 47117  1  0  0  0
 47118  1  0  0  0
 48 56  1  0  0  0
 48 65  1  0  0  0
 48119  1  0  0  0
 49 50  1  0  0  0
 49 53  1  0  0  0
 49 64  1  0  0  0
 49120  1  0  0  0
 50 51  1  0  0  0
 50121  1  0  0  0
 50122  1  0  0  0
 51 52  1  0  0  0
 51123  1  0  0  0
 51124  1  0  0  0
 52125  1  0  0  0
 52126  1  0  0  0
 53 54  1  0  0  0
 54 55  2  0  0  0
 54127  1  0  0  0
 55 57  1  0  0  0
 55128  1  0  0  0
 56 69  2  0  0  0
 57 58  2  0  0  0
 57129  1  0  0  0
 58130  1  0  0  0
 59 60  1  0  0  0
 59 61  1  0  0  0
 59 62  1  0  0  0
 60131  1  0  0  0
 60132  1  0  0  0
 60133  1  0  0  0
 61134  1  0  0  0
 61135  1  0  0  0
 61136  1  0  0  0
 62137  1  0  0  0
 62138  1  0  0  0
 62139  1  0  0  0
 63 65  1  0  0  0
 63140  1  0  0  0
 63141  1  0  0  0
 63142  1  0  0  0
 64143  1  0  0  0
 65144  1  0  0  0
 68 84  1  0  0  0
 71 72  2  0  0  0
 71 74  1  0  0  0
 71145  1  0  0  0
 72 75  1  0  0  0
 72146  1  0  0  0
 73 74  2  0  0  0
 73 76  1  0  0  0
 73147  1  0  0  0
 74 78  1  0  0  0
 75 76  2  0  0  0
 75 83  1  0  0  0
 76 85  1  0  0  0
 77 79  2  0  0  0
 77148  1  0  0  0
 77149  1  0  0  0
 78 80  2  0  0  0
 78150  1  0  0  0
 79 82  1  0  0  0
 79151  1  0  0  0
 80 82  1  0  0  0
 80152  1  0  0  0
 81 82  2  0  0  0
 81 84  1  0  0  0
 81153  1  0  0  0
 83154  1  0  0  0
 83155  1  0  0  0
 83156  1  0  0  0
 84157  1  0  0  0
 84158  1  0  0  0
 85159  1  0  0  0
M  ISO  4   1 100  68 101  84 101  85 100
M  END
> <chiral flag>
0

> <version>
0

> <s_m_source_file>
/data/baiqing/PycharmProjects/Reinvent-master-3.2/result/LINK_invent/BTK/process_docking_weight1_custom_product_contain_oxygen_bond_distance_aromatic_linkinvent_7_9_3/rearranged_h_0123.sdf

> <i_m_source_file_index>
2

> <r_mmod_Potential_Energy-OPLS-2005>
112.755615234375

> <r_mmod_Stretch_Energy-OPLS-2005>
60.8567886352539

> <r_mmod_Bend_Energy-OPLS-2005>
128.845397949219

> <r_mmod_Torsional_Energy-OPLS-2005>
316.749908447266

> <r_mmod_Improper_Torsional_Energy-OPLS-2005>
14.2001237869263

> <r_mmod_Van_der_Waal_Energy-OPLS-2005>
146.991439819336

> <r_mmod_Electrostatic_Energy-OPLS-2005>
-389.444152832031

> <r_mmod_Solvation_Energy-OPLS-2005>
-200.726821899414

> <b_mmod_Minimization_Converged-OPLS-2005>
0

> <r_mmod_RMS_Derivative-OPLS-2005>
3.60123538970947

$$$$
2
                    3D
 Structure written by MMmdl.
160169  0  0  1  0            999 V2000
  -30.6759  -14.5394   20.5651 C   0  0  0  0  0  0
  -30.4231  -12.3394   19.4642 C   0  0  0  0  0  0
  -29.5119  -12.5228   18.2347 C   0  0  0  0  0  0
  -28.0307  -12.3695   18.6313 C   0  0  0  0  0  0
  -27.6591  -13.2162   19.8779 C   0  0  2  0  0  0
  -28.6899  -13.0397   21.0151 C   0  0  0  0  0  0
  -25.2563  -13.8174   20.5674 C   0  0  0  0  0  0
  -24.1827  -13.0445   20.9159 C   0  0  0  0  0  0
  -24.6396  -11.6914   20.8724 C   0  0  0  0  0  0
  -23.9075  -10.4300   21.0408 C   0  0  0  0  0  0
  -24.3637   -9.4211   21.9183 C   0  0  0  0  0  0
  -23.6304   -8.2254   22.0759 C   0  0  0  0  0  0
  -22.4283   -8.0297   21.3551 C   0  0  0  0  0  0
  -21.9921   -9.0270   20.4652 C   0  0  0  0  0  0
  -22.7252  -10.2141   20.3048 C   0  0  0  0  0  0
  -21.6865   -6.0748   22.5272 C   0  0  0  0  0  0
  -21.4027   -6.5649   23.8207 C   0  0  0  0  0  0
  -21.3659   -5.6797   24.9166 C   0  0  0  0  0  0
  -21.6045   -4.3060   24.7217 C   0  0  0  0  0  0
  -21.8816   -3.8156   23.4334 C   0  0  0  0  0  0
  -21.9197   -4.6976   22.3394 C   0  0  0  0  0  0
  -22.7847  -13.5232   21.1839 C   0  0  0  0  0  0
  -22.1664   -4.2158   21.0973 F   0  0  0  0  0  0
  -21.5625   -3.4543   25.7729 F   0  0  0  0  0  0
  -30.0199  -13.3485   20.4596 N   0  0  0  0  0  0
  -26.3005  -12.9358   20.3334 N   0  0  0  0  0  0
  -25.9321  -11.6514   20.5753 N   0  0  0  0  0  0
  -22.0516  -12.8215   22.0404 N   0  0  0  0  0  0
  -25.4284  -15.1903   20.4109 N   0  0  0  0  0  0
  -31.8125  -14.7025   20.1104 O   0  0  0  0  0  0
  -21.6652   -6.8890   21.4233 O   0  0  0  0  0  0
  -22.3527  -14.5551   20.6711 O   0  0  0  0  0  0
  -24.6189  -31.8681   23.2070 C   0  0  0  0  0  0
  -25.9063  -32.4822   23.8392 C   0  0  1  0  0  0
  -27.2364  -27.3919   20.1248 C   0  0  0  0  0  0
  -25.5916  -33.8622   24.2330 N   0  0  0  0  0  0
  -23.4104  -30.4887   21.5484 C   0  0  2  0  0  0
  -24.8605  -28.9430   20.1267 C   0  0  0  0  0  0
  -22.7463  -29.4652   22.4971 C   0  0  0  0  0  0
  -18.0310  -28.1367   22.8538 C   0  0  0  0  0  0
  -24.1502  -36.7336   23.2624 C   0  0  0  0  0  0
  -25.9403  -30.8230   21.3643 C   0  0  0  0  0  0
  -26.0215  -29.4479   20.7242 C   0  0  0  0  0  0
  -27.2133  -28.6773   20.7273 C   0  0  0  0  0  0
  -26.0610  -26.9093   19.5129 C   0  0  0  0  0  0
  -24.8770  -27.6746   19.5163 C   0  0  0  0  0  0
  -23.6275  -29.8213   20.1654 C   0  0  0  0  0  0
  -25.4115  -36.3109   24.0322 C   0  0  1  0  0  0
  -20.5916  -28.3689   23.1354 C   0  0  2  0  0  0
  -20.6821  -26.9414   22.5511 C   0  0  0  0  0  0
  -19.5827  -26.6346   21.5294 C   0  0  0  0  0  0
  -18.2005  -26.7893   22.1700 C   0  0  0  0  0  0
  -19.1563  -28.8836   23.2941 C   0  0  0  0  0  0
  -18.9475  -30.1455   23.8926 C   0  0  0  0  0  0
  -17.6486  -30.6595   24.0556 C   0  0  0  0  0  0
  -25.9039  -34.9468   23.5120 C   0  0  0  0  0  0
  -16.5373  -29.9093   23.6336 C   0  0  0  0  0  0
  -16.7291  -28.6492   23.0401 C   0  0  0  0  0  0
  -26.4486  -31.6573   25.0701 C   0  0  0  0  0  0
  -25.3755  -31.3682   26.1449 C   0  0  0  0  0  0
  -27.0300  -30.3013   24.6042 C   0  0  0  0  0  0
  -27.6062  -32.4278   25.7471 C   0  0  0  0  0  0
  -27.5591  -37.1820   24.8452 C   0  0  0  0  0  0
  -21.4167  -29.3074   22.3744 N   0  0  0  0  0  0
  -26.4307  -37.3790   23.9393 N   0  0  0  0  0  0
  -24.6747  -31.0765   22.0976 N   0  0  0  0  0  0
  -23.4230  -28.8218   23.3033 O   0  0  0  0  0  0
  -28.3580  -26.5841   20.1180 O   0  0  0  0  0  0
  -26.5602  -34.8916   22.4682 O   0  0  0  0  0  0
  -23.5366  -32.1430   23.7453 O   0  0  0  0  0  0
  -28.1608  -17.7601   22.0341 C   0  0  0  0  0  0
  -27.2135  -18.7620   22.3139 C   0  0  0  0  0  0
  -29.6050  -19.4629   21.0705 C   0  0  0  0  0  0
  -29.3716  -18.0905   21.3952 C   0  0  0  0  0  0
  -27.4362  -20.1113   21.9671 C   0  0  0  0  0  0
  -28.6616  -20.4997   21.3519 C   0  0  0  0  0  0
  -28.6305  -24.2251   20.7263 C   0  0  0  0  0  0
  -28.3632  -25.5263   21.0184 C   0  0  0  0  0  0
  -28.9133  -23.6543   19.3578 C   0  0  0  0  0  0
  -28.7042  -23.0758   21.7303 C   0  0  0  0  0  0
  -29.2118  -22.1532   19.5657 C   0  0  0  0  0  0
  -26.2898  -21.0758   22.2228 C   0  0  0  0  0  0
  -30.4254  -16.9981   21.0899 C   0  0  0  0  0  0
  -28.9446  -21.8429   20.9637 N   0  0  0  0  0  0
  -29.9678  -15.5833   21.0556 N   0  0  0  0  0  0
  -31.4727  -12.4327   19.1786 H   0  0  0  0  0  0
  -30.3200  -11.3350   19.8803 H   0  0  0  0  0  0
  -29.7766  -11.8053   17.4585 H   0  0  0  0  0  0
  -29.6755  -13.5128   17.8051 H   0  0  0  0  0  0
  -27.8452  -11.3133   18.8276 H   0  0  0  0  0  0
  -27.3902  -12.6400   17.7914 H   0  0  0  0  0  0
  -27.6915  -14.2622   19.5717 H   0  0  0  0  0  0
  -28.6656  -12.0193   21.4011 H   0  0  0  0  0  0
  -28.4355  -13.6764   21.8640 H   0  0  0  0  0  0
  -25.2790   -9.5686   22.4750 H   0  0  0  0  0  0
  -24.0025   -7.4641   22.7468 H   0  0  0  0  0  0
  -21.0861   -8.8796   19.8946 H   0  0  0  0  0  0
  -22.3732  -10.9689   19.6160 H   0  0  0  0  0  0
  -21.2033   -7.6159   23.9707 H   0  0  0  0  0  0
  -21.1481   -6.0534   25.9068 H   0  0  0  0  0  0
  -22.0599   -2.7617   23.2829 H   0  0  0  0  0  0
  -22.4169  -11.9878   22.4770 H   0  0  0  0  0  0
  -21.1129  -13.1210   22.2639 H   0  0  0  0  0  0
  -24.6602  -15.8436   20.5172 H   0  0  0  0  0  0
  -26.2816  -15.6334   20.0973 H   0  0  0  0  0  0
  -26.7131  -32.5537   23.1160 H   0  0  0  0  0  0
  -25.0053  -33.9785   25.0469 H   0  0  0  0  0  0
  -22.6971  -31.3024   21.4096 H   0  0  0  0  0  0
  -23.3745  -35.9692   23.3287 H   0  0  0  0  0  0
  -24.3593  -36.8965   22.2039 H   0  0  0  0  0  0
  -23.7289  -37.6552   23.6652 H   0  0  0  0  0  0
  -26.0415  -31.5798   20.5858 H   0  0  0  0  0  0
  -26.8297  -30.8936   21.9773 H   0  0  0  0  0  0
  -28.0983  -29.0581   21.2181 H   0  0  0  0  0  0
  -26.0650  -25.9302   19.0494 H   0  0  0  0  0  0
  -23.9827  -27.2840   19.0519 H   0  0  0  0  0  0
  -23.7467  -30.5993   19.4103 H   0  0  0  0  0  0
  -22.7503  -29.2523   19.8575 H   0  0  0  0  0  0
  -25.1297  -36.1961   25.0817 H   0  0  0  0  0  0
  -21.0010  -28.3288   24.1482 H   0  0  0  0  0  0
  -20.5718  -26.2335   23.3745 H   0  0  0  0  0  0
  -21.6707  -26.7462   22.1348 H   0  0  0  0  0  0
  -19.6996  -25.6261   21.1325 H   0  0  0  0  0  0
  -19.6796  -27.3144   20.6820 H   0  0  0  0  0  0
  -17.4281  -26.6570   21.4114 H   0  0  0  0  0  0
  -18.0444  -26.0047   22.9114 H   0  0  0  0  0  0
  -19.7938  -30.7300   24.2272 H   0  0  0  0  0  0
  -17.5069  -31.6316   24.5112 H   0  0  0  0  0  0
  -15.5377  -30.3025   23.7684 H   0  0  0  0  0  0
  -15.8674  -28.0836   22.7123 H   0  0  0  0  0  0
  -24.5936  -30.7013   25.7804 H   0  0  0  0  0  0
  -24.8927  -32.2832   26.4880 H   0  0  0  0  0  0
  -25.8111  -30.8873   27.0211 H   0  0  0  0  0  0
  -26.2845  -29.6814   24.1041 H   0  0  0  0  0  0
  -27.4040  -29.7185   25.4470 H   0  0  0  0  0  0
  -27.8689  -30.4342   23.9202 H   0  0  0  0  0  0
  -27.2683  -33.3574   26.2055 H   0  0  0  0  0  0
  -28.3867  -32.6837   25.0297 H   0  0  0  0  0  0
  -28.0723  -31.8382   26.5375 H   0  0  0  0  0  0
  -28.2594  -38.0128   24.7503 H   0  0  0  0  0  0
  -28.1100  -36.2659   24.6270 H   0  0  0  0  0  0
  -27.2297  -37.1453   25.8849 H   0  0  0  0  0  0
  -20.9301  -29.8850   21.7039 H   0  0  0  0  0  0
  -26.0192  -38.2872   24.1379 H   0  0  0  0  0  0
  -27.9389  -16.7405   22.3204 H   0  0  0  0  0  0
  -26.2876  -18.4808   22.7951 H   0  0  0  0  0  0
  -30.5415  -19.7234   20.5973 H   0  0  0  0  0  0
  -28.1662  -25.8583   22.0286 H   0  0  0  0  0  0
  -29.7544  -24.1667   18.8875 H   0  0  0  0  0  0
  -28.0314  -23.7833   18.7300 H   0  0  0  0  0  0
  -27.8210  -23.0563   22.3596 H   0  0  0  0  0  0
  -29.5532  -23.2568   22.3910 H   0  0  0  0  0  0
  -28.6000  -21.5345   18.9066 H   0  0  0  0  0  0
  -30.2588  -21.9442   19.3527 H   0  0  0  0  0  0
  -26.4185  -21.5810   23.1806 H   0  0  0  0  0  0
  -25.3366  -20.5465   22.2568 H   0  0  0  0  0  0
  -26.2020  -21.8143   21.4264 H   0  0  0  0  0  0
  -31.2233  -17.0840   21.8290 H   0  0  0  0  0  0
  -30.8778  -17.2421   20.1274 H   0  0  0  0  0  0
  -29.0316  -15.3900   21.3714 H   0  0  0  0  0  0
  1 25  1  0  0  0
  1 30  2  0  0  0
  1 85  1  0  0  0
  2  3  1  0  0  0
  2 25  1  0  0  0
  2 86  1  0  0  0
  2 87  1  0  0  0
  3  4  1  0  0  0
  3 88  1  0  0  0
  3 89  1  0  0  0
  4  5  1  0  0  0
  4 90  1  0  0  0
  4 91  1  0  0  0
  5  6  1  0  0  0
  5 26  1  0  0  0
  5 92  1  0  0  0
  6 25  1  0  0  0
  6 93  1  0  0  0
  6 94  1  0  0  0
  7  8  2  0  0  0
  7 26  1  0  0  0
  7 29  1  0  0  0
  8  9  1  0  0  0
  8 22  1  0  0  0
  9 10  1  0  0  0
  9 27  2  0  0  0
 10 11  2  0  0  0
 10 15  1  0  0  0
 11 12  1  0  0  0
 11 95  1  0  0  0
 12 13  2  0  0  0
 12 96  1  0  0  0
 13 14  1  0  0  0
 13 31  1  0  0  0
 14 15  2  0  0  0
 14 97  1  0  0  0
 15 98  1  0  0  0
 16 17  2  0  0  0
 16 21  1  0  0  0
 16 31  1  0  0  0
 17 18  1  0  0  0
 17 99  1  0  0  0
 18 19  2  0  0  0
 18100  1  0  0  0
 19 20  1  0  0  0
 19 24  1  0  0  0
 20 21  2  0  0  0
 20101  1  0  0  0
 21 23  1  0  0  0
 22 28  1  0  0  0
 22 32  2  0  0  0
 26 27  1  0  0  0
 28102  1  0  0  0
 28103  1  0  0  0
 29104  1  0  0  0
 29105  1  0  0  0
 33 34  1  0  0  0
 33 66  1  0  0  0
 33 70  2  0  0  0
 34 36  1  0  0  0
 34 59  1  0  0  0
 34106  1  0  0  0
 35 44  2  0  0  0
 35 45  1  0  0  0
 35 68  1  0  0  0
 36 56  1  0  0  0
 36107  1  0  0  0
 37 39  1  0  0  0
 37 47  1  0  0  0
 37 66  1  0  0  0
 37108  1  0  0  0
 38 43  2  0  0  0
 38 46  1  0  0  0
 38 47  1  0  0  0
 39 64  1  0  0  0
 39 67  2  0  0  0
 40 52  1  0  0  0
 40 53  2  0  0  0
 40 58  1  0  0  0
 41109  1  0  0  0
 41110  1  0  0  0
 41111  1  0  0  0
 41 48  1  0  0  0
 42 43  1  0  0  0
 42 66  1  0  0  0
 42112  1  0  0  0
 42113  1  0  0  0
 43 44  1  0  0  0
 44114  1  0  0  0
 45 46  2  0  0  0
 45115  1  0  0  0
 46116  1  0  0  0
 47117  1  0  0  0
 47118  1  0  0  0
 48 56  1  0  0  0
 48 65  1  0  0  0
 48119  1  0  0  0
 49 50  1  0  0  0
 49 53  1  0  0  0
 49 64  1  0  0  0
 49120  1  0  0  0
 50 51  1  0  0  0
 50121  1  0  0  0
 50122  1  0  0  0
 51 52  1  0  0  0
 51123  1  0  0  0
 51124  1  0  0  0
 52125  1  0  0  0
 52126  1  0  0  0
 53 54  1  0  0  0
 54 55  2  0  0  0
 54127  1  0  0  0
 55 57  1  0  0  0
 55128  1  0  0  0
 56 69  2  0  0  0
 57 58  2  0  0  0
 57129  1  0  0  0
 58130  1  0  0  0
 59 60  1  0  0  0
 59 61  1  0  0  0
 59 62  1  0  0  0
 60131  1  0  0  0
 60132  1  0  0  0
 60133  1  0  0  0
 61134  1  0  0  0
 61135  1  0  0  0
 61136  1  0  0  0
 62137  1  0  0  0
 62138  1  0  0  0
 62139  1  0  0  0
 63 65  1  0  0  0
 63140  1  0  0  0
 63141  1  0  0  0
 63142  1  0  0  0
 64143  1  0  0  0
 65144  1  0  0  0
 68 78  1  0  0  0
 71 72  2  0  0  0
 71 74  1  0  0  0
 71145  1  0  0  0
 72 75  1  0  0  0
 72146  1  0  0  0
 73 74  2  0  0  0
 73 76  1  0  0  0
 73147  1  0  0  0
 74 83  1  0  0  0
 75 76  2  0  0  0
 75 82  1  0  0  0
 76 84  1  0  0  0
 77 78  2  0  0  0
 77 79  1  0  0  0
 77 80  1  0  0  0
 78148  1  0  0  0
 79 81  1  0  0  0
 79149  1  0  0  0
 79150  1  0  0  0
 80 84  1  0  0  0
 80151  1  0  0  0
 80152  1  0  0  0
 81 84  1  0  0  0
 81153  1  0  0  0
 81154  1  0  0  0
 82155  1  0  0  0
 82156  1  0  0  0
 82157  1  0  0  0
 83 85  1  0  0  0
 83158  1  0  0  0
 83159  1  0  0  0
 85160  1  0  0  0
M  ISO  4   1 100  68 101  78 101  85 100
M  END
> <chiral flag>
0

> <version>
0

> <s_m_source_file>
/data/baiqing/PycharmProjects/Reinvent-master-3.2/result/LINK_invent/BTK/process_docking_weight1_custom_product_contain_oxygen_bond_distance_aromatic_linkinvent_7_9_3/rearranged_h_0123.sdf

> <i_m_source_file_index>
3

> <r_mmod_Potential_Energy-OPLS-2005>
-44.8458099365234

> <r_mmod_Stretch_Energy-OPLS-2005>
47.8312568664551

> <r_mmod_Bend_Energy-OPLS-2005>
141.971282958984

> <r_mmod_Torsional_Energy-OPLS-2005>
250.209411621094

> <r_mmod_Improper_Torsional_Energy-OPLS-2005>
4.13933897018433

> <r_mmod_Van_der_Waal_Energy-OPLS-2005>
139.854736328125

> <r_mmod_Electrostatic_Energy-OPLS-2005>
-436.011108398438

> <r_mmod_Solvation_Energy-OPLS-2005>
-215.527725219727

> <b_mmod_Minimization_Converged-OPLS-2005>
0

> <r_mmod_RMS_Derivative-OPLS-2005>
4.81364631652832

$$$$
3
                    3D
 Structure written by MMmdl.
160168  0  0  1  0            999 V2000
  -30.7302  -14.4094   20.6256 C   0  0  0  0  0  0
  -30.4229  -12.2935   19.4054 C   0  0  0  0  0  0
  -29.4823  -12.5152   18.2019 C   0  0  0  0  0  0
  -28.0068  -12.3620   18.6167 C   0  0  0  0  0  0
  -27.6607  -13.1866   19.8826 C   0  0  2  0  0  0
  -28.7024  -12.9461   20.9993 C   0  0  0  0  0  0
  -25.2576  -13.8128   20.5697 C   0  0  0  0  0  0
  -24.1786  -13.0439   20.9179 C   0  0  0  0  0  0
  -24.6312  -11.6900   20.8741 C   0  0  0  0  0  0
  -23.8979  -10.4301   21.0428 C   0  0  0  0  0  0
  -24.3548   -9.4210   21.9203 C   0  0  0  0  0  0
  -23.6244   -8.2232   22.0748 C   0  0  0  0  0  0
  -22.4232   -8.0260   21.3533 C   0  0  0  0  0  0
  -21.9854   -9.0232   20.4638 C   0  0  0  0  0  0
  -22.7159  -10.2129   20.3065 C   0  0  0  0  0  0
  -21.6845   -6.0707   22.5272 C   0  0  0  0  0  0
  -21.4011   -6.5611   23.8208 C   0  0  0  0  0  0
  -21.3657   -5.6765   24.9171 C   0  0  0  0  0  0
  -21.6050   -4.3032   24.7232 C   0  0  0  0  0  0
  -21.8812   -3.8117   23.4358 C   0  0  0  0  0  0
  -21.9185   -4.6928   22.3410 C   0  0  0  0  0  0
  -22.7818  -13.5259   21.1863 C   0  0  0  0  0  0
  -22.1652   -4.2104   21.0995 F   0  0  0  0  0  0
  -21.5633   -3.4529   25.7758 F   0  0  0  0  0  0
  -30.0475  -13.2446   20.4613 N   0  0  0  0  0  0
  -26.2980  -12.9241   20.3406 N   0  0  0  0  0  0
  -25.9225  -11.6423   20.5764 N   0  0  0  0  0  0
  -22.0430  -12.8284   22.0420 N   0  0  0  0  0  0
  -25.4393  -15.1850   20.4132 N   0  0  0  0  0  0
  -31.7996  -14.6606   20.0610 O   0  0  0  0  0  0
  -21.6611   -6.8843   21.4233 O   0  0  0  0  0  0
  -22.3516  -14.5571   20.6702 O   0  0  0  0  0  0
  -24.6142  -31.8698   23.2109 C   0  0  0  0  0  0
  -25.9051  -32.4822   23.8380 C   0  0  1  0  0  0
  -27.2394  -27.4631   20.0778 C   0  0  0  0  0  0
  -25.5942  -33.8621   24.2339 N   0  0  0  0  0  0
  -23.3994  -30.4912   21.5521 C   0  0  2  0  0  0
  -24.8472  -28.9560   20.1149 C   0  0  0  0  0  0
  -22.7410  -29.4657   22.5028 C   0  0  0  0  0  0
  -18.0270  -28.1370   22.8503 C   0  0  0  0  0  0
  -24.1478  -36.7305   23.2633 C   0  0  0  0  0  0
  -25.9243  -30.8402   21.3595 C   0  0  0  0  0  0
  -26.0061  -29.4760   20.7067 C   0  0  0  0  0  0
  -27.2078  -28.7346   20.6882 C   0  0  0  0  0  0
  -26.0697  -26.9478   19.4842 C   0  0  0  0  0  0
  -24.8732  -27.6904   19.5019 C   0  0  0  0  0  0
  -23.6046  -29.8171   20.1684 C   0  0  0  0  0  0
  -25.4102  -36.3103   24.0339 C   0  0  1  0  0  0
  -20.5877  -28.3649   23.1333 C   0  0  2  0  0  0
  -20.6767  -26.9399   22.5427 C   0  0  0  0  0  0
  -19.5739  -26.6403   21.5215 C   0  0  0  0  0  0
  -18.1910  -26.7921   22.1623 C   0  0  0  0  0  0
  -19.1522  -28.8819   23.2917 C   0  0  0  0  0  0
  -18.9452  -30.1423   23.8939 C   0  0  0  0  0  0
  -17.6453  -30.6578   24.0585 C   0  0  0  0  0  0
  -25.9034  -34.9475   23.5120 C   0  0  0  0  0  0
  -16.5343  -29.9084   23.6337 C   0  0  0  0  0  0
  -16.7255  -28.6501   23.0367 C   0  0  0  0  0  0
  -26.4481  -31.6604   25.0712 C   0  0  0  0  0  0
  -25.3754  -31.3730   26.1474 C   0  0  0  0  0  0
  -27.0323  -30.3049   24.6081 C   0  0  0  0  0  0
  -27.6056  -32.4326   25.7482 C   0  0  0  0  0  0
  -27.5578  -37.1814   24.8466 C   0  0  0  0  0  0
  -21.4139  -29.3048   22.3776 N   0  0  0  0  0  0
  -26.4281  -37.3798   23.9425 N   0  0  0  0  0  0
  -24.6639  -31.0811   22.0998 N   0  0  0  0  0  0
  -23.4201  -28.8199   23.3040 O   0  0  0  0  0  0
  -28.3903  -26.7155   20.0612 O   0  0  0  0  0  0
  -26.5554  -34.8922   22.4653 O   0  0  0  0  0  0
  -23.5331  -32.1454   23.7517 O   0  0  0  0  0  0
  -29.6650  -18.8839   20.3993 C   0  0  0  0  0  0
  -30.6529  -17.3884   22.5531 C   0  0  0  0  0  0
  -30.0173  -19.5566   21.5893 C   0  0  0  0  0  0
  -29.7737  -17.4801   20.2820 C   0  0  0  0  0  0
  -30.5579  -18.7939   22.6587 C   0  0  0  0  0  0
  -30.2346  -16.7162   21.3876 C   0  0  0  0  0  0
  -29.6965  -20.9921   21.7834 C   0  0  0  0  0  0
  -28.8456  -21.7577   21.0703 C   0  0  0  0  0  0
  -29.3324  -16.8299   18.9816 C   0  0  0  0  0  0
  -30.9877  -19.4623   23.9564 C   0  0  0  0  0  0
  -28.4915  -23.1798   21.4822 C   0  0  0  0  0  0
  -28.6510  -24.2712   20.4079 C   0  0  0  0  0  0
  -28.3943  -25.6621   21.0256 C   0  0  0  0  0  0
  -30.1361  -15.2974   21.4338 N   0  0  0  0  0  0
  -31.4623  -12.4079   19.0927 H   0  0  0  0  0  0
  -30.3368  -11.2689   19.7746 H   0  0  0  0  0  0
  -29.7160  -11.8035   17.4091 H   0  0  0  0  0  0
  -29.6433  -13.5084   17.7787 H   0  0  0  0  0  0
  -27.8190  -11.3033   18.8024 H   0  0  0  0  0  0
  -27.3512  -12.6482   17.7935 H   0  0  0  0  0  0
  -27.7054  -14.2324   19.5963 H   0  0  0  0  0  0
  -28.6668  -11.9035   21.3221 H   0  0  0  0  0  0
  -28.4435  -13.5260   21.8863 H   0  0  0  0  0  0
  -25.2693   -9.5690   22.4782 H   0  0  0  0  0  0
  -23.9946   -7.4619   22.7466 H   0  0  0  0  0  0
  -21.0780   -8.8746   19.8955 H   0  0  0  0  0  0
  -22.3605  -10.9664   19.6173 H   0  0  0  0  0  0
  -21.2000   -7.6116   23.9698 H   0  0  0  0  0  0
  -21.1494   -6.0505   25.9074 H   0  0  0  0  0  0
  -22.0598   -2.7575   23.2881 H   0  0  0  0  0  0
  -22.3946  -11.9923   22.4845 H   0  0  0  0  0  0
  -21.1057  -13.1378   22.2606 H   0  0  0  0  0  0
  -24.6932  -15.8604   20.5389 H   0  0  0  0  0  0
  -26.3118  -15.6144   20.1333 H   0  0  0  0  0  0
  -26.7142  -32.5538   23.1163 H   0  0  0  0  0  0
  -25.0210  -33.9767   25.0556 H   0  0  0  0  0  0
  -22.6867  -31.3062   21.4129 H   0  0  0  0  0  0
  -23.3735  -35.9642   23.3300 H   0  0  0  0  0  0
  -24.3562  -36.8913   22.2045 H   0  0  0  0  0  0
  -23.7230  -37.6513   23.6622 H   0  0  0  0  0  0
  -26.0312  -31.6089   20.5923 H   0  0  0  0  0  0
  -26.8118  -30.8929   21.9782 H   0  0  0  0  0  0
  -28.1037  -29.1326   21.1439 H   0  0  0  0  0  0
  -26.0869  -25.9756   19.0097 H   0  0  0  0  0  0
  -23.9850  -27.2867   19.0369 H   0  0  0  0  0  0
  -23.6964  -30.5875   19.4025 H   0  0  0  0  0  0
  -22.7293  -29.2291   19.8840 H   0  0  0  0  0  0
  -25.1278  -36.1973   25.0832 H   0  0  0  0  0  0
  -20.9956  -28.3162   24.1450 H   0  0  0  0  0  0
  -20.5629  -26.2266   23.3605 H   0  0  0  0  0  0
  -21.6646  -26.7460   22.1217 H   0  0  0  0  0  0
  -19.6651  -27.3243   20.6766 H   0  0  0  0  0  0
  -19.6930  -25.6328   21.1216 H   0  0  0  0  0  0
  -17.4186  -26.6713   21.4011 H   0  0  0  0  0  0
  -18.0298  -26.0040   22.9002 H   0  0  0  0  0  0
  -19.7927  -30.7227   24.2327 H   0  0  0  0  0  0
  -17.5005  -31.6261   24.5175 H   0  0  0  0  0  0
  -15.5340  -30.3002   23.7648 H   0  0  0  0  0  0
  -15.8644  -28.0830   22.7089 H   0  0  0  0  0  0
  -24.5888  -30.7123   25.7827 H   0  0  0  0  0  0
  -24.8983  -32.2896   26.4950 H   0  0  0  0  0  0
  -25.8105  -30.8876   27.0224 H   0  0  0  0  0  0
  -26.2877  -29.6818   24.1119 H   0  0  0  0  0  0
  -27.4100  -29.7287   25.4546 H   0  0  0  0  0  0
  -27.8694  -30.4383   23.9224 H   0  0  0  0  0  0
  -27.2665  -33.3614   26.2085 H   0  0  0  0  0  0
  -28.3838  -32.6940   25.0298 H   0  0  0  0  0  0
  -28.0742  -31.8447   26.5385 H   0  0  0  0  0  0
  -28.2614  -38.0099   24.7510 H   0  0  0  0  0  0
  -28.1055  -36.2637   24.6280 H   0  0  0  0  0  0
  -27.2290  -37.1460   25.8866 H   0  0  0  0  0  0
  -20.9255  -29.8839   21.7100 H   0  0  0  0  0  0
  -26.0173  -38.2879   24.1423 H   0  0  0  0  0  0
  -29.2652  -19.4469   19.5703 H   0  0  0  0  0  0
  -31.0118  -16.8126   23.3949 H   0  0  0  0  0  0
  -30.1842  -21.4754   22.6148 H   0  0  0  0  0  0
  -28.3357  -21.3626   20.2021 H   0  0  0  0  0  0
  -28.4819  -16.1760   19.1546 H   0  0  0  0  0  0
  -30.1433  -16.2496   18.5429 H   0  0  0  0  0  0
  -29.0312  -17.5750   18.2452 H   0  0  0  0  0  0
  -31.3952  -18.7455   24.6696 H   0  0  0  0  0  0
  -30.1424  -19.9602   24.4321 H   0  0  0  0  0  0
  -31.7603  -20.2072   23.7638 H   0  0  0  0  0  0
  -29.0860  -23.4479   22.3576 H   0  0  0  0  0  0
  -27.4525  -23.1668   21.8162 H   0  0  0  0  0  0
  -29.6554  -24.2376   19.9838 H   0  0  0  0  0  0
  -27.9549  -24.0942   19.5854 H   0  0  0  0  0  0
  -29.1672  -25.8868   21.7614 H   0  0  0  0  0  0
  -27.4582  -25.6291   21.5875 H   0  0  0  0  0  0
  -29.3668  -14.9272   21.9722 H   0  0  0  0  0  0
  1 25  1  0  0  0
  1 30  2  0  0  0
  1 84  1  0  0  0
  2  3  1  0  0  0
  2 25  1  0  0  0
  2 85  1  0  0  0
  2 86  1  0  0  0
  3  4  1  0  0  0
  3 87  1  0  0  0
  3 88  1  0  0  0
  4  5  1  0  0  0
  4 89  1  0  0  0
  4 90  1  0  0  0
  5  6  1  0  0  0
  5 26  1  0  0  0
  5 91  1  0  0  0
  6 25  1  0  0  0
  6 92  1  0  0  0
  6 93  1  0  0  0
  7  8  2  0  0  0
  7 26  1  0  0  0
  7 29  1  0  0  0
  8  9  1  0  0  0
  8 22  1  0  0  0
  9 10  1  0  0  0
  9 27  2  0  0  0
 10 11  2  0  0  0
 10 15  1  0  0  0
 11 12  1  0  0  0
 11 94  1  0  0  0
 12 13  2  0  0  0
 12 95  1  0  0  0
 13 14  1  0  0  0
 13 31  1  0  0  0
 14 15  2  0  0  0
 14 96  1  0  0  0
 15 97  1  0  0  0
 16 17  2  0  0  0
 16 21  1  0  0  0
 16 31  1  0  0  0
 17 18  1  0  0  0
 17 98  1  0  0  0
 18 19  2  0  0  0
 18 99  1  0  0  0
 19 20  1  0  0  0
 19 24  1  0  0  0
 20 21  2  0  0  0
 20100  1  0  0  0
 21 23  1  0  0  0
 22 28  1  0  0  0
 22 32  2  0  0  0
 26 27  1  0  0  0
 28101  1  0  0  0
 28102  1  0  0  0
 29103  1  0  0  0
 29104  1  0  0  0
 33 34  1  0  0  0
 33 66  1  0  0  0
 33 70  2  0  0  0
 34 36  1  0  0  0
 34 59  1  0  0  0
 34105  1  0  0  0
 35 44  2  0  0  0
 35 45  1  0  0  0
 35 68  1  0  0  0
 36 56  1  0  0  0
 36106  1  0  0  0
 37 39  1  0  0  0
 37 47  1  0  0  0
 37 66  1  0  0  0
 37107  1  0  0  0
 38 43  2  0  0  0
 38 46  1  0  0  0
 38 47  1  0  0  0
 39 64  1  0  0  0
 39 67  2  0  0  0
 40 52  1  0  0  0
 40 53  2  0  0  0
 40 58  1  0  0  0
 41108  1  0  0  0
 41109  1  0  0  0
 41110  1  0  0  0
 41 48  1  0  0  0
 42 43  1  0  0  0
 42 66  1  0  0  0
 42111  1  0  0  0
 42112  1  0  0  0
 43 44  1  0  0  0
 44113  1  0  0  0
 45 46  2  0  0  0
 45114  1  0  0  0
 46115  1  0  0  0
 47116  1  0  0  0
 47117  1  0  0  0
 48 56  1  0  0  0
 48 65  1  0  0  0
 48118  1  0  0  0
 49 50  1  0  0  0
 49 53  1  0  0  0
 49 64  1  0  0  0
 49119  1  0  0  0
 50 51  1  0  0  0
 50120  1  0  0  0
 50121  1  0  0  0
 51 52  1  0  0  0
 51122  1  0  0  0
 51123  1  0  0  0
 52124  1  0  0  0
 52125  1  0  0  0
 53 54  1  0  0  0
 54 55  2  0  0  0
 54126  1  0  0  0
 55 57  1  0  0  0
 55127  1  0  0  0
 56 69  2  0  0  0
 57 58  2  0  0  0
 57128  1  0  0  0
 58129  1  0  0  0
 59 60  1  0  0  0
 59 61  1  0  0  0
 59 62  1  0  0  0
 60130  1  0  0  0
 60131  1  0  0  0
 60132  1  0  0  0
 61133  1  0  0  0
 61134  1  0  0  0
 61135  1  0  0  0
 62136  1  0  0  0
 62137  1  0  0  0
 62138  1  0  0  0
 63 65  1  0  0  0
 63139  1  0  0  0
 63140  1  0  0  0
 63141  1  0  0  0
 64142  1  0  0  0
 65143  1  0  0  0
 68 83  1  0  0  0
 71 73  2  0  0  0
 71 74  1  0  0  0
 71144  1  0  0  0
 72 75  2  0  0  0
 72 76  1  0  0  0
 72145  1  0  0  0
 73 75  1  0  0  0
 73 77  1  0  0  0
 74 76  2  0  0  0
 74 79  1  0  0  0
 75 80  1  0  0  0
 76 84  1  0  0  0
 77 78  2  0  0  0
 77146  1  0  0  0
 78 81  1  0  0  0
 78147  1  0  0  0
 79148  1  0  0  0
 79149  1  0  0  0
 79150  1  0  0  0
 80151  1  0  0  0
 80152  1  0  0  0
 80153  1  0  0  0
 81 82  1  0  0  0
 81154  1  0  0  0
 81155  1  0  0  0
 82 83  1  0  0  0
 82156  1  0  0  0
 82157  1  0  0  0
 83158  1  0  0  0
 83159  1  0  0  0
 84160  1  0  0  0
M  ISO  4   1 100  68 101  83 101  84 100
M  END
> <chiral flag>
0

> <version>
0

> <s_m_source_file>
/data/baiqing/PycharmProjects/Reinvent-master-3.2/result/LINK_invent/BTK/process_docking_weight1_custom_product_contain_oxygen_bond_distance_aromatic_linkinvent_7_9_3/rearranged_h_0123.sdf

> <i_m_source_file_index>
4

> <r_mmod_Potential_Energy-OPLS-2005>
-31.4617137908936

> <r_mmod_Stretch_Energy-OPLS-2005>
34.8010940551758

> <r_mmod_Bend_Energy-OPLS-2005>
91.8592071533203

> <r_mmod_Torsional_Energy-OPLS-2005>
265.274810791016

> <r_mmod_Improper_Torsional_Energy-OPLS-2005>
4.39815282821655

> <r_mmod_Van_der_Waal_Energy-OPLS-2005>
154.486938476562

> <r_mmod_Electrostatic_Energy-OPLS-2005>
-388.134887695312

> <r_mmod_Solvation_Energy-OPLS-2005>
-202.173431396484

> <b_mmod_Minimization_Converged-OPLS-2005>
0

> <r_mmod_RMS_Derivative-OPLS-2005>
3.13539671897888

$$$$
4
                    3D
 Structure written by MMmdl.
154162  0  0  1  0            999 V2000
  -30.5474  -14.8069   20.4870 C   0  0  0  0  0  0
  -30.4506  -12.4983   19.4694 C   0  0  0  0  0  0
  -29.5179  -12.5458   18.2352 C   0  0  0  0  0  0
  -28.0425  -12.3573   18.6437 C   0  0  0  0  0  0
  -27.6471  -13.2344   19.8615 C   0  0  2  0  0  0
  -28.6970  -13.1392   20.9917 C   0  0  0  0  0  0
  -25.2532  -13.8202   20.5733 C   0  0  0  0  0  0
  -24.1822  -13.0432   20.9212 C   0  0  0  0  0  0
  -24.6427  -11.6906   20.8752 C   0  0  0  0  0  0
  -23.9108  -10.4290   21.0427 C   0  0  0  0  0  0
  -24.3649   -9.4200   21.9207 C   0  0  0  0  0  0
  -23.6308   -8.2242   22.0772 C   0  0  0  0  0  0
  -22.4292   -8.0294   21.3552 C   0  0  0  0  0  0
  -21.9946   -9.0277   20.4655 C   0  0  0  0  0  0
  -22.7291  -10.2143   20.3068 C   0  0  0  0  0  0
  -21.6858   -6.0747   22.5285 C   0  0  0  0  0  0
  -21.4017   -6.5646   23.8225 C   0  0  0  0  0  0
  -21.3660   -5.6803   24.9189 C   0  0  0  0  0  0
  -21.6044   -4.3061   24.7237 C   0  0  0  0  0  0
  -21.8821   -3.8152   23.4356 C   0  0  0  0  0  0
  -21.9194   -4.6967   22.3416 C   0  0  0  0  0  0
  -22.7834  -13.5187   21.1877 C   0  0  0  0  0  0
  -22.1660   -4.2152   21.0988 F   0  0  0  0  0  0
  -21.5628   -3.4544   25.7745 F   0  0  0  0  0  0
  -29.9918  -13.5393   20.4220 N   0  0  0  0  0  0
  -26.2976  -12.9420   20.3344 N   0  0  0  0  0  0
  -25.9365  -11.6547   20.5775 N   0  0  0  0  0  0
  -22.0490  -12.8162   22.0420 N   0  0  0  0  0  0
  -25.4163  -15.1941   20.4181 N   0  0  0  0  0  0
  -31.7028  -14.9620   20.0759 O   0  0  0  0  0  0
  -21.6633   -6.8893   21.4257 O   0  0  0  0  0  0
  -22.3505  -14.5500   20.6738 O   0  0  0  0  0  0
  -24.6398  -31.8542   23.1962 C   0  0  0  0  0  0
  -25.9195  -32.4765   23.8336 C   0  0  1  0  0  0
  -27.2203  -27.2118   20.1219 C   0  0  0  0  0  0
  -25.5969  -33.8566   24.2260 N   0  0  0  0  0  0
  -23.4401  -30.4744   21.5457 C   0  0  2  0  0  0
  -24.8839  -28.9149   20.1189 C   0  0  0  0  0  0
  -22.7555  -29.4593   22.4937 C   0  0  0  0  0  0
  -18.0297  -28.1403   22.8488 C   0  0  0  0  0  0
  -24.1483  -36.7254   23.2642 C   0  0  0  0  0  0
  -25.9916  -30.7509   21.3813 C   0  0  0  0  0  0
  -26.0650  -29.3699   20.7194 C   0  0  0  0  0  0
  -27.2371  -28.5346   20.7045 C   0  0  0  0  0  0
  -26.0062  -26.8438   19.4945 C   0  0  0  0  0  0
  -24.8605  -27.6590   19.5003 C   0  0  0  0  0  0
  -23.6608  -29.8100   20.1639 C   0  0  0  0  0  0
  -25.4119  -36.3089   24.0331 C   0  0  1  0  0  0
  -20.5905  -28.3722   23.1262 C   0  0  2  0  0  0
  -20.6787  -26.9436   22.5420 C   0  0  0  0  0  0
  -19.5754  -26.6381   21.5228 C   0  0  0  0  0  0
  -18.1929  -26.7945   22.1625 C   0  0  0  0  0  0
  -19.1554  -28.8878   23.2870 C   0  0  0  0  0  0
  -18.9471  -30.1473   23.8887 C   0  0  0  0  0  0
  -17.6472  -30.6603   24.0550 C   0  0  0  0  0  0
  -25.9081  -34.9456   23.5093 C   0  0  0  0  0  0
  -16.5357  -29.9098   23.6334 C   0  0  0  0  0  0
  -16.7283  -28.6508   23.0375 C   0  0  0  0  0  0
  -26.4541  -31.6593   25.0728 C   0  0  0  0  0  0
  -25.3723  -31.3709   26.1399 C   0  0  0  0  0  0
  -27.0379  -30.3007   24.6208 C   0  0  0  0  0  0
  -27.6098  -32.4312   25.7521 C   0  0  0  0  0  0
  -27.5583  -37.1795   24.8479 C   0  0  0  0  0  0
  -21.4257  -29.3054   22.3647 N   0  0  0  0  0  0
  -26.4294  -37.3791   23.9428 N   0  0  0  0  0  0
  -24.7108  -31.0449   22.0974 N   0  0  0  0  0  0
  -23.4209  -28.8138   23.3073 O   0  0  0  0  0  0
  -28.2873  -26.2601   20.1798 O   0  0  0  0  0  0
  -26.5648  -34.8927   22.4659 O   0  0  0  0  0  0
  -23.5528  -32.1370   23.7210 O   0  0  0  0  0  0
  -29.6510  -20.0931   21.2892 C   0  0  0  0  0  0
  -29.9338  -18.6969   21.5208 C   0  0  0  0  0  0
  -29.0328  -19.5469   19.0648 C   0  0  0  0  0  0
  -29.2837  -18.1350   19.2919 C   0  0  0  0  0  0
  -29.1462  -20.5853   20.0519 C   0  0  0  0  0  0
  -29.7343  -17.6462   20.5618 C   0  0  0  0  0  0
  -28.7944  -17.3976   16.9196 C   0  0  0  0  0  0
  -29.0259  -17.1474   18.2197 C   0  0  0  0  0  0
  -28.9429  -23.5480   20.2401 C   0  0  0  0  0  0
  -28.4955  -22.0548   19.7807 C   0  0  0  0  0  0
  -29.7077  -16.0896   21.0374 C   0  0  0  0  0  0
  -27.9395  -24.7914   19.9390 C   0  0  0  0  0  0
  -30.0249  -23.7361   20.8066 O   0  0  0  0  0  0
  -31.4869  -12.6525   19.1634 H   0  0  0  0  0  0
  -30.4199  -11.5129   19.9373 H   0  0  0  0  0  0
  -29.8056  -11.7827   17.5099 H   0  0  0  0  0  0
  -29.6361  -13.5071   17.7329 H   0  0  0  0  0  0
  -27.8943  -11.3035   18.8834 H   0  0  0  0  0  0
  -27.3889  -12.5724   17.7979 H   0  0  0  0  0  0
  -27.6419  -14.2627   19.5050 H   0  0  0  0  0  0
  -28.7451  -12.1223   21.3855 H   0  0  0  0  0  0
  -28.4226  -13.7656   21.8404 H   0  0  0  0  0  0
  -25.2811   -9.5641   22.4762 H   0  0  0  0  0  0
  -24.0014   -7.4623   22.7482 H   0  0  0  0  0  0
  -21.0896   -8.8831   19.8934 H   0  0  0  0  0  0
  -22.3812  -10.9695   19.6165 H   0  0  0  0  0  0
  -21.2011   -7.6155   23.9730 H   0  0  0  0  0  0
  -21.1479   -6.0531   25.9095 H   0  0  0  0  0  0
  -22.0594   -2.7602   23.2872 H   0  0  0  0  0  0
  -22.4131  -11.9815   22.4795 H   0  0  0  0  0  0
  -21.1103  -13.1173   22.2635 H   0  0  0  0  0  0
  -24.6417  -15.8397   20.5269 H   0  0  0  0  0  0
  -26.2636  -15.6470   20.1041 H   0  0  0  0  0  0
  -26.7263  -32.5403   23.1083 H   0  0  0  0  0  0
  -25.0150  -33.9709   25.0429 H   0  0  0  0  0  0
  -22.7398  -31.2993   21.3976 H   0  0  0  0  0  0
  -23.3800  -35.9535   23.3317 H   0  0  0  0  0  0
  -24.3556  -36.8861   22.2057 H   0  0  0  0  0  0
  -23.7171  -37.6418   23.6660 H   0  0  0  0  0  0
  -26.1329  -31.5097   20.6112 H   0  0  0  0  0  0
  -26.8693  -30.8035   22.0148 H   0  0  0  0  0  0
  -28.1430  -28.8801   21.1825 H   0  0  0  0  0  0
  -25.8917  -25.8865   19.0114 H   0  0  0  0  0  0
  -23.9499  -27.2988   19.0422 H   0  0  0  0  0  0
  -23.8007  -30.5888   19.4138 H   0  0  0  0  0  0
  -22.7758  -29.2541   19.8500 H   0  0  0  0  0  0
  -25.1304  -36.1951   25.0829 H   0  0  0  0  0  0
  -20.9982  -28.3307   24.1393 H   0  0  0  0  0  0
  -20.5699  -26.2340   23.3632 H   0  0  0  0  0  0
  -21.6657  -26.7464   22.1204 H   0  0  0  0  0  0
  -19.6929  -25.6291   21.1273 H   0  0  0  0  0  0
  -19.6695  -27.3182   20.6749 H   0  0  0  0  0  0
  -17.4214  -26.6717   21.4020 H   0  0  0  0  0  0
  -18.0314  -26.0080   22.9010 H   0  0  0  0  0  0
  -19.7949  -30.7301   24.2262 H   0  0  0  0  0  0
  -17.5022  -31.6288   24.5160 H   0  0  0  0  0  0
  -15.5361  -30.3002   23.7657 H   0  0  0  0  0  0
  -15.8682  -28.0814   22.7120 H   0  0  0  0  0  0
  -24.6056  -30.6877   25.7733 H   0  0  0  0  0  0
  -24.8704  -32.2824   26.4655 H   0  0  0  0  0  0
  -25.8022  -30.9066   27.0284 H   0  0  0  0  0  0
  -26.2952  -29.6767   24.1209 H   0  0  0  0  0  0
  -27.4057  -29.7263   25.4734 H   0  0  0  0  0  0
  -27.8855  -30.4313   23.9460 H   0  0  0  0  0  0
  -27.2782  -33.3706   26.1961 H   0  0  0  0  0  0
  -28.3996  -32.6686   25.0379 H   0  0  0  0  0  0
  -28.0656  -31.8476   26.5537 H   0  0  0  0  0  0
  -28.2606  -38.0096   24.7562 H   0  0  0  0  0  0
  -28.1079  -36.2624   24.6293 H   0  0  0  0  0  0
  -27.2290  -37.1425   25.8877 H   0  0  0  0  0  0
  -20.9477  -29.8751   21.6804 H   0  0  0  0  0  0
  -26.0186  -38.2865   24.1440 H   0  0  0  0  0  0
  -29.7571  -20.7825   22.1146 H   0  0  0  0  0  0
  -30.2352  -18.4197   22.5206 H   0  0  0  0  0  0
  -28.6334  -19.8413   18.1049 H   0  0  0  0  0  0
  -28.6024  -16.5821   16.2353 H   0  0  0  0  0  0
  -28.7926  -18.3923   16.5016 H   0  0  0  0  0  0
  -29.0045  -16.1082   18.5103 H   0  0  0  0  0  0
  -27.4675  -21.9612   20.1324 H   0  0  0  0  0  0
  -28.3962  -22.1319   18.6978 H   0  0  0  0  0  0
  -28.6540  -15.8317   20.9595 H   0  0  0  0  0  0
  -29.8980  -16.0950   22.1098 H   0  0  0  0  0  0
  -27.0489  -24.5785   20.5318 H   0  0  0  0  0  0
  -27.6432  -24.6847   18.8967 H   0  0  0  0  0  0
  1 25  1  0  0  0
  1 30  2  0  0  0
  1 81  1  0  0  0
  2  3  1  0  0  0
  2 25  1  0  0  0
  2 84  1  0  0  0
  2 85  1  0  0  0
  3  4  1  0  0  0
  3 86  1  0  0  0
  3 87  1  0  0  0
  4  5  1  0  0  0
  4 88  1  0  0  0
  4 89  1  0  0  0
  5  6  1  0  0  0
  5 26  1  0  0  0
  5 90  1  0  0  0
  6 25  1  0  0  0
  6 91  1  0  0  0
  6 92  1  0  0  0
  7  8  2  0  0  0
  7 26  1  0  0  0
  7 29  1  0  0  0
  8  9  1  0  0  0
  8 22  1  0  0  0
  9 10  1  0  0  0
  9 27  2  0  0  0
 10 11  2  0  0  0
 10 15  1  0  0  0
 11 12  1  0  0  0
 11 93  1  0  0  0
 12 13  2  0  0  0
 12 94  1  0  0  0
 13 14  1  0  0  0
 13 31  1  0  0  0
 14 15  2  0  0  0
 14 95  1  0  0  0
 15 96  1  0  0  0
 16 17  2  0  0  0
 16 21  1  0  0  0
 16 31  1  0  0  0
 17 18  1  0  0  0
 17 97  1  0  0  0
 18 19  2  0  0  0
 18 98  1  0  0  0
 19 20  1  0  0  0
 19 24  1  0  0  0
 20 21  2  0  0  0
 20 99  1  0  0  0
 21 23  1  0  0  0
 22 28  1  0  0  0
 22 32  2  0  0  0
 26 27  1  0  0  0
 28100  1  0  0  0
 28101  1  0  0  0
 29102  1  0  0  0
 29103  1  0  0  0
 33 34  1  0  0  0
 33 66  1  0  0  0
 33 70  2  0  0  0
 34 36  1  0  0  0
 34 59  1  0  0  0
 34104  1  0  0  0
 35 44  2  0  0  0
 35 45  1  0  0  0
 35 68  1  0  0  0
 36 56  1  0  0  0
 36105  1  0  0  0
 37 39  1  0  0  0
 37 47  1  0  0  0
 37 66  1  0  0  0
 37106  1  0  0  0
 38 43  2  0  0  0
 38 46  1  0  0  0
 38 47  1  0  0  0
 39 64  1  0  0  0
 39 67  2  0  0  0
 40 52  1  0  0  0
 40 53  2  0  0  0
 40 58  1  0  0  0
 41107  1  0  0  0
 41108  1  0  0  0
 41109  1  0  0  0
 41 48  1  0  0  0
 42 43  1  0  0  0
 42 66  1  0  0  0
 42110  1  0  0  0
 42111  1  0  0  0
 43 44  1  0  0  0
 44112  1  0  0  0
 45 46  2  0  0  0
 45113  1  0  0  0
 46114  1  0  0  0
 47115  1  0  0  0
 47116  1  0  0  0
 48 56  1  0  0  0
 48 65  1  0  0  0
 48117  1  0  0  0
 49 50  1  0  0  0
 49 53  1  0  0  0
 49 64  1  0  0  0
 49118  1  0  0  0
 50 51  1  0  0  0
 50119  1  0  0  0
 50120  1  0  0  0
 51 52  1  0  0  0
 51121  1  0  0  0
 51122  1  0  0  0
 52123  1  0  0  0
 52124  1  0  0  0
 53 54  1  0  0  0
 54 55  2  0  0  0
 54125  1  0  0  0
 55 57  1  0  0  0
 55126  1  0  0  0
 56 69  2  0  0  0
 57 58  2  0  0  0
 57127  1  0  0  0
 58128  1  0  0  0
 59 60  1  0  0  0
 59 61  1  0  0  0
 59 62  1  0  0  0
 60129  1  0  0  0
 60130  1  0  0  0
 60131  1  0  0  0
 61132  1  0  0  0
 61133  1  0  0  0
 61134  1  0  0  0
 62135  1  0  0  0
 62136  1  0  0  0
 62137  1  0  0  0
 63 65  1  0  0  0
 63138  1  0  0  0
 63139  1  0  0  0
 63140  1  0  0  0
 64141  1  0  0  0
 65142  1  0  0  0
 68 82  1  0  0  0
 71 72  2  0  0  0
 71 75  1  0  0  0
 71143  1  0  0  0
 72 76  1  0  0  0
 72144  1  0  0  0
 73 74  1  0  0  0
 73 75  2  0  0  0
 73145  1  0  0  0
 74 76  2  0  0  0
 74 78  1  0  0  0
 75 80  1  0  0  0
 76 81  1  0  0  0
 77 78  2  0  0  0
 77146  1  0  0  0
 77147  1  0  0  0
 78148  1  0  0  0
 79 80  1  0  0  0
 79 82  1  0  0  0
 79 83  2  0  0  0
 80149  1  0  0  0
 80150  1  0  0  0
 81151  1  0  0  0
 81152  1  0  0  0
 82153  1  0  0  0
 82154  1  0  0  0
M  ISO  4   1 100  68 101  81 100  82 101
M  END
> <chiral flag>
0

> <version>
0

> <s_m_source_file>
/data/baiqing/PycharmProjects/Reinvent-master-3.2/result/LINK_invent/BTK/process_docking_weight1_custom_product_contain_oxygen_bond_distance_aromatic_linkinvent_7_9_3/rearranged_h_0123.sdf

> <i_m_source_file_index>
5

> <r_mmod_Potential_Energy-OPLS-2005>
363.330444335938

> <r_mmod_Stretch_Energy-OPLS-2005>
170.036499023438

> <r_mmod_Bend_Energy-OPLS-2005>
239.63786315918

> <r_mmod_Torsional_Energy-OPLS-2005>
186.004013061523

> <r_mmod_Improper_Torsional_Energy-OPLS-2005>
5.9391040802002

> <r_mmod_Van_der_Waal_Energy-OPLS-2005>
135.993545532227

> <r_mmod_Electrostatic_Energy-OPLS-2005>
-261.1318359375

> <r_mmod_Solvation_Energy-OPLS-2005>
-229.071365356445

> <b_mmod_Minimization_Converged-OPLS-2005>
0

> <r_mmod_RMS_Derivative-OPLS-2005>
2.60059094429016

$$$$
5
                    3D
 Structure written by MMmdl.
153161  0  0  1  0            999 V2000
  -30.5967  -14.7302   20.4817 C   0  0  0  0  0  0
  -30.4360  -12.4506   19.4573 C   0  0  0  0  0  0
  -29.5058  -12.5169   18.2267 C   0  0  0  0  0  0
  -28.0332  -12.3369   18.6465 C   0  0  0  0  0  0
  -27.6429  -13.2273   19.8564 C   0  0  2  0  0  0
  -28.6917  -13.1370   20.9866 C   0  0  0  0  0  0
  -25.2516  -13.8181   20.5729 C   0  0  0  0  0  0
  -24.1801  -13.0424   20.9219 C   0  0  0  0  0  0
  -24.6389  -11.6909   20.8760 C   0  0  0  0  0  0
  -23.9069  -10.4283   21.0418 C   0  0  0  0  0  0
  -24.3618   -9.4196   21.9193 C   0  0  0  0  0  0
  -23.6287   -8.2235   22.0755 C   0  0  0  0  0  0
  -22.4270   -8.0277   21.3542 C   0  0  0  0  0  0
  -21.9910   -9.0256   20.4645 C   0  0  0  0  0  0
  -22.7244  -10.2130   20.3064 C   0  0  0  0  0  0
  -21.6854   -6.0736   22.5277 C   0  0  0  0  0  0
  -21.4018   -6.5641   23.8212 C   0  0  0  0  0  0
  -21.3656   -5.6790   24.9173 C   0  0  0  0  0  0
  -21.6052   -4.3053   24.7224 C   0  0  0  0  0  0
  -21.8812   -3.8145   23.4342 C   0  0  0  0  0  0
  -21.9189   -4.6964   22.3403 C   0  0  0  0  0  0
  -22.7817  -13.5203   21.1875 C   0  0  0  0  0  0
  -22.1657   -4.2154   21.0983 F   0  0  0  0  0  0
  -21.5625   -3.4536   25.7734 F   0  0  0  0  0  0
  -29.9872  -13.5009   20.3976 N   0  0  0  0  0  0
  -26.2947  -12.9381   20.3319 N   0  0  0  0  0  0
  -25.9322  -11.6526   20.5777 N   0  0  0  0  0  0
  -22.0463  -12.8191   22.0429 N   0  0  0  0  0  0
  -25.4168  -15.1908   20.4159 N   0  0  0  0  0  0
  -31.7888  -14.8539   20.1869 O   0  0  0  0  0  0
  -21.6632   -6.8876   21.4237 O   0  0  0  0  0  0
  -22.3514  -14.5522   20.6727 O   0  0  0  0  0  0
  -24.6308  -31.8529   23.1949 C   0  0  0  0  0  0
  -25.9120  -32.4747   23.8314 C   0  0  1  0  0  0
  -27.2262  -27.2627   20.1496 C   0  0  0  0  0  0
  -25.5909  -33.8544   24.2236 N   0  0  0  0  0  0
  -23.4295  -30.4744   21.5370 C   0  0  2  0  0  0
  -24.8809  -28.9155   20.1152 C   0  0  0  0  0  0
  -22.7515  -29.4580   22.4875 C   0  0  0  0  0  0
  -18.0298  -28.1387   22.8466 C   0  0  0  0  0  0
  -24.1491  -36.7278   23.2644 C   0  0  0  0  0  0
  -25.9748  -30.7706   21.3747 C   0  0  0  0  0  0
  -26.0515  -29.3914   20.7208 C   0  0  0  0  0  0
  -27.2311  -28.5811   20.7171 C   0  0  0  0  0  0
  -26.0354  -26.8444   19.5236 C   0  0  0  0  0  0
  -24.8790  -27.6503   19.5030 C   0  0  0  0  0  0
  -23.6524  -29.8038   20.1555 C   0  0  0  0  0  0
  -25.4113  -36.3062   24.0334 C   0  0  1  0  0  0
  -20.5907  -28.3688   23.1259 C   0  0  2  0  0  0
  -20.6783  -26.9397   22.5406 C   0  0  0  0  0  0
  -19.5762  -26.6367   21.5209 C   0  0  0  0  0  0
  -18.1937  -26.7920   22.1608 C   0  0  0  0  0  0
  -19.1554  -28.8850   23.2858 C   0  0  0  0  0  0
  -18.9476  -30.1445   23.8885 C   0  0  0  0  0  0
  -17.6479  -30.6578   24.0559 C   0  0  0  0  0  0
  -25.9052  -34.9436   23.5086 C   0  0  0  0  0  0
  -16.5366  -29.9078   23.6343 C   0  0  0  0  0  0
  -16.7289  -28.6510   23.0338 C   0  0  0  0  0  0
  -26.4487  -31.6588   25.0716 C   0  0  0  0  0  0
  -25.3689  -31.3740   26.1427 C   0  0  0  0  0  0
  -27.0343  -30.3008   24.6195 C   0  0  0  0  0  0
  -27.6047  -32.4330   25.7486 C   0  0  0  0  0  0
  -27.5580  -37.1790   24.8457 C   0  0  0  0  0  0
  -21.4216  -29.3027   22.3642 N   0  0  0  0  0  0
  -26.4286  -37.3760   23.9412 N   0  0  0  0  0  0
  -24.6976  -31.0507   22.0916 N   0  0  0  0  0  0
  -23.4228  -28.8110   23.2965 O   0  0  0  0  0  0
  -28.3275  -26.3830   20.1493 O   0  0  0  0  0  0
  -26.5628  -34.8916   22.4652 O   0  0  0  0  0  0
  -23.5456  -32.1329   23.7245 O   0  0  0  0  0  0
  -29.4134  -18.4101   20.3666 C   0  0  0  0  0  0
  -30.4103  -19.8799   21.9755 C   0  0  0  0  0  0
  -30.0504  -17.2578   20.9915 C   0  0  0  0  0  0
  -29.5820  -19.7784   20.8355 C   0  0  0  0  0  0
  -30.8640  -17.5753   22.1098 C   0  0  0  0  0  0
  -31.5624  -16.5192   22.9501 C   0  0  0  0  0  0
  -28.5590  -23.6262   20.0013 C   0  0  0  0  0  0
  -28.1990  -25.0163   20.7657 C   0  0  0  0  0  0
  -29.0204  -22.3041   20.8350 C   0  0  0  0  0  0
  -31.0294  -18.8359   22.5725 N   0  0  0  0  0  0
  -29.7759  -15.8397   20.6292 N   0  0  0  0  0  0
  -28.9914  -20.9330   20.2217 O   0  0  0  0  0  0
  -31.4762  -12.5877   19.1554 H   0  0  0  0  0  0
  -30.3837  -11.4676   19.9278 H   0  0  0  0  0  0
  -29.7840  -11.7532   17.5003 H   0  0  0  0  0  0
  -29.6289  -13.4777   17.7244 H   0  0  0  0  0  0
  -27.8922  -11.2861   18.9035 H   0  0  0  0  0  0
  -27.3699  -12.5350   17.8037 H   0  0  0  0  0  0
  -27.6390  -14.2526   19.4884 H   0  0  0  0  0  0
  -28.7313  -12.1287   21.4029 H   0  0  0  0  0  0
  -28.4348  -13.7985   21.8162 H   0  0  0  0  0  0
  -25.2760   -9.5668   22.4771 H   0  0  0  0  0  0
  -23.9994   -7.4628   22.7472 H   0  0  0  0  0  0
  -21.0839   -8.8775   19.8956 H   0  0  0  0  0  0
  -22.3701  -10.9673   19.6177 H   0  0  0  0  0  0
  -21.2015   -7.6148   23.9717 H   0  0  0  0  0  0
  -21.1487   -6.0522   25.9077 H   0  0  0  0  0  0
  -22.0596   -2.7610   23.2841 H   0  0  0  0  0  0
  -22.4073  -11.9845   22.4796 H   0  0  0  0  0  0
  -21.1094  -13.1231   22.2668 H   0  0  0  0  0  0
  -24.6433  -15.8360   20.5387 H   0  0  0  0  0  0
  -26.2524  -15.6426   20.0673 H   0  0  0  0  0  0
  -26.7184  -32.5413   23.1063 H   0  0  0  0  0  0
  -25.0079  -33.9679   25.0401 H   0  0  0  0  0  0
  -22.7272  -31.2961   21.3848 H   0  0  0  0  0  0
  -23.3767  -35.9596   23.3294 H   0  0  0  0  0  0
  -24.3593  -36.8902   22.2060 H   0  0  0  0  0  0
  -23.7233  -37.6478   23.6671 H   0  0  0  0  0  0
  -26.1127  -31.5321   20.6047 H   0  0  0  0  0  0
  -26.8518  -30.8206   22.0084 H   0  0  0  0  0  0
  -28.1350  -28.9449   21.1869 H   0  0  0  0  0  0
  -25.9988  -25.8709   19.0565 H   0  0  0  0  0  0
  -23.9845  -27.2808   19.0215 H   0  0  0  0  0  0
  -23.7844  -30.5786   19.3994 H   0  0  0  0  0  0
  -22.7709  -29.2387   19.8460 H   0  0  0  0  0  0
  -25.1290  -36.1917   25.0830 H   0  0  0  0  0  0
  -21.0008  -28.3263   24.1378 H   0  0  0  0  0  0
  -20.5674  -26.2285   23.3604 H   0  0  0  0  0  0
  -21.6645  -26.7393   22.1201 H   0  0  0  0  0  0
  -19.6919  -25.6282   21.1233 H   0  0  0  0  0  0
  -19.6722  -27.3184   20.6747 H   0  0  0  0  0  0
  -17.4206  -26.6689   21.4010 H   0  0  0  0  0  0
  -18.0324  -26.0066   22.9002 H   0  0  0  0  0  0
  -19.7960  -30.7258   24.2260 H   0  0  0  0  0  0
  -17.5035  -31.6266   24.5141 H   0  0  0  0  0  0
  -15.5365  -30.2965   23.7667 H   0  0  0  0  0  0
  -15.8692  -28.0821   22.7037 H   0  0  0  0  0  0
  -24.5903  -30.7044   25.7747 H   0  0  0  0  0  0
  -24.8842  -32.2915   26.4787 H   0  0  0  0  0  0
  -25.7994  -30.8976   27.0244 H   0  0  0  0  0  0
  -26.2936  -29.6757   24.1199 H   0  0  0  0  0  0
  -27.4017  -29.7267   25.4715 H   0  0  0  0  0  0
  -27.8803  -30.4297   23.9437 H   0  0  0  0  0  0
  -27.2678  -33.3659   26.2013 H   0  0  0  0  0  0
  -28.3886  -32.6828   25.0327 H   0  0  0  0  0  0
  -28.0673  -31.8482   26.5446 H   0  0  0  0  0  0
  -28.2560  -38.0119   24.7530 H   0  0  0  0  0  0
  -28.1114  -36.2652   24.6249 H   0  0  0  0  0  0
  -27.2307  -37.1381   25.8860 H   0  0  0  0  0  0
  -20.9395  -29.8802   21.6897 H   0  0  0  0  0  0
  -26.0174  -38.2829   24.1450 H   0  0  0  0  0  0
  -28.7705  -18.2438   19.5150 H   0  0  0  0  0  0
  -30.6030  -20.8320   22.4455 H   0  0  0  0  0  0
  -32.3754  -16.0552   22.3927 H   0  0  0  0  0  0
  -30.8631  -15.7445   23.2644 H   0  0  0  0  0  0
  -31.9981  -16.9510   23.8520 H   0  0  0  0  0  0
  -29.3485  -23.8429   19.2817 H   0  0  0  0  0  0
  -27.6929  -23.3564   19.3970 H   0  0  0  0  0  0
  -28.8488  -25.0568   21.6410 H   0  0  0  0  0  0
  -27.1998  -24.9141   21.1925 H   0  0  0  0  0  0
  -28.4207  -22.2518   21.7446 H   0  0  0  0  0  0
  -30.0397  -22.5068   21.1638 H   0  0  0  0  0  0
  -28.7964  -15.6143   20.5423 H   0  0  0  0  0  0
  1 25  1  0  0  0
  1 30  2  0  0  0
  1 81  1  0  0  0
  2  3  1  0  0  0
  2 25  1  0  0  0
  2 83  1  0  0  0
  2 84  1  0  0  0
  3  4  1  0  0  0
  3 85  1  0  0  0
  3 86  1  0  0  0
  4  5  1  0  0  0
  4 87  1  0  0  0
  4 88  1  0  0  0
  5  6  1  0  0  0
  5 26  1  0  0  0
  5 89  1  0  0  0
  6 25  1  0  0  0
  6 90  1  0  0  0
  6 91  1  0  0  0
  7  8  2  0  0  0
  7 26  1  0  0  0
  7 29  1  0  0  0
  8  9  1  0  0  0
  8 22  1  0  0  0
  9 10  1  0  0  0
  9 27  2  0  0  0
 10 11  2  0  0  0
 10 15  1  0  0  0
 11 12  1  0  0  0
 11 92  1  0  0  0
 12 13  2  0  0  0
 12 93  1  0  0  0
 13 14  1  0  0  0
 13 31  1  0  0  0
 14 15  2  0  0  0
 14 94  1  0  0  0
 15 95  1  0  0  0
 16 17  2  0  0  0
 16 21  1  0  0  0
 16 31  1  0  0  0
 17 18  1  0  0  0
 17 96  1  0  0  0
 18 19  2  0  0  0
 18 97  1  0  0  0
 19 20  1  0  0  0
 19 24  1  0  0  0
 20 21  2  0  0  0
 20 98  1  0  0  0
 21 23  1  0  0  0
 22 28  1  0  0  0
 22 32  2  0  0  0
 26 27  1  0  0  0
 28 99  1  0  0  0
 28100  1  0  0  0
 29101  1  0  0  0
 29102  1  0  0  0
 33 34  1  0  0  0
 33 66  1  0  0  0
 33 70  2  0  0  0
 34 36  1  0  0  0
 34 59  1  0  0  0
 34103  1  0  0  0
 35 44  2  0  0  0
 35 45  1  0  0  0
 35 68  1  0  0  0
 36 56  1  0  0  0
 36104  1  0  0  0
 37 39  1  0  0  0
 37 47  1  0  0  0
 37 66  1  0  0  0
 37105  1  0  0  0
 38 43  2  0  0  0
 38 46  1  0  0  0
 38 47  1  0  0  0
 39 64  1  0  0  0
 39 67  2  0  0  0
 40 52  1  0  0  0
 40 53  2  0  0  0
 40 58  1  0  0  0
 41106  1  0  0  0
 41107  1  0  0  0
 41108  1  0  0  0
 41 48  1  0  0  0
 42 43  1  0  0  0
 42 66  1  0  0  0
 42109  1  0  0  0
 42110  1  0  0  0
 43 44  1  0  0  0
 44111  1  0  0  0
 45 46  2  0  0  0
 45112  1  0  0  0
 46113  1  0  0  0
 47114  1  0  0  0
 47115  1  0  0  0
 48 56  1  0  0  0
 48 65  1  0  0  0
 48116  1  0  0  0
 49 50  1  0  0  0
 49 53  1  0  0  0
 49 64  1  0  0  0
 49117  1  0  0  0
 50 51  1  0  0  0
 50118  1  0  0  0
 50119  1  0  0  0
 51 52  1  0  0  0
 51120  1  0  0  0
 51121  1  0  0  0
 52122  1  0  0  0
 52123  1  0  0  0
 53 54  1  0  0  0
 54 55  2  0  0  0
 54124  1  0  0  0
 55 57  1  0  0  0
 55125  1  0  0  0
 56 69  2  0  0  0
 57 58  2  0  0  0
 57126  1  0  0  0
 58127  1  0  0  0
 59 60  1  0  0  0
 59 61  1  0  0  0
 59 62  1  0  0  0
 60128  1  0  0  0
 60129  1  0  0  0
 60130  1  0  0  0
 61131  1  0  0  0
 61132  1  0  0  0
 61133  1  0  0  0
 62134  1  0  0  0
 62135  1  0  0  0
 62136  1  0  0  0
 63 65  1  0  0  0
 63137  1  0  0  0
 63138  1  0  0  0
 63139  1  0  0  0
 64140  1  0  0  0
 65141  1  0  0  0
 68 78  1  0  0  0
 71 73  2  0  0  0
 71 74  1  0  0  0
 71142  1  0  0  0
 72 74  2  0  0  0
 72 80  1  0  0  0
 72143  1  0  0  0
 73 75  1  0  0  0
 73 81  1  0  0  0
 74 82  1  0  0  0
 75 76  1  0  0  0
 75 80  2  0  0  0
 76144  1  0  0  0
 76145  1  0  0  0
 76146  1  0  0  0
 77 78  1  0  0  0
 77 79  1  0  0  0
 77147  1  0  0  0
 77148  1  0  0  0
 78149  1  0  0  0
 78150  1  0  0  0
 79 82  1  0  0  0
 79151  1  0  0  0
 79152  1  0  0  0
 81153  1  0  0  0
M  ISO  4   1 100  68 101  78 101  81 100
M  END
> <chiral flag>
0

> <version>
0

> <s_m_source_file>
/data/baiqing/PycharmProjects/Reinvent-master-3.2/result/LINK_invent/BTK/process_docking_weight1_custom_product_contain_oxygen_bond_distance_aromatic_linkinvent_7_9_3/rearranged_h_0123.sdf

> <i_m_source_file_index>
6

> <r_mmod_Potential_Energy-OPLS-2005>
62.3008613586426

> <r_mmod_Stretch_Energy-OPLS-2005>
127.016716003418

> <r_mmod_Bend_Energy-OPLS-2005>
172.866409301758

> <r_mmod_Torsional_Energy-OPLS-2005>
254.305816650391

> <r_mmod_Improper_Torsional_Energy-OPLS-2005>
7.1234278678894

> <r_mmod_Van_der_Waal_Energy-OPLS-2005>
140.461318969727

> <r_mmod_Electrostatic_Energy-OPLS-2005>
-496.908294677734

> <r_mmod_Solvation_Energy-OPLS-2005>
-222.776763916016

> <b_mmod_Minimization_Converged-OPLS-2005>
0

> <r_mmod_RMS_Derivative-OPLS-2005>
2.40902400016785

$$$$
6
                    3D
 Structure written by MMmdl.
157165  0  0  1  0            999 V2000
  -30.5998  -14.7315   20.4499 C   0  0  0  0  0  0
  -30.4323  -12.4362   19.4885 C   0  0  0  0  0  0
  -29.5178  -12.5102   18.2451 C   0  0  0  0  0  0
  -28.0398  -12.3403   18.6472 C   0  0  0  0  0  0
  -27.6459  -13.2325   19.8549 C   0  0  2  0  0  0
  -28.6850  -13.1466   20.9954 C   0  0  0  0  0  0
  -25.2526  -13.8205   20.5674 C   0  0  0  0  0  0
  -24.1809  -13.0450   20.9186 C   0  0  0  0  0  0
  -24.6399  -11.6929   20.8722 C   0  0  0  0  0  0
  -23.9072  -10.4308   21.0378 C   0  0  0  0  0  0
  -24.3622   -9.4218   21.9155 C   0  0  0  0  0  0
  -23.6298   -8.2251   22.0736 C   0  0  0  0  0  0
  -22.4279   -8.0288   21.3541 C   0  0  0  0  0  0
  -21.9913   -9.0254   20.4645 C   0  0  0  0  0  0
  -22.7235  -10.2137   20.3041 C   0  0  0  0  0  0
  -21.6866   -6.0728   22.5270 C   0  0  0  0  0  0
  -21.4018   -6.5627   23.8207 C   0  0  0  0  0  0
  -21.3668   -5.6776   24.9168 C   0  0  0  0  0  0
  -21.6053   -4.3039   24.7219 C   0  0  0  0  0  0
  -21.8820   -3.8136   23.4335 C   0  0  0  0  0  0
  -21.9195   -4.6954   22.3392 C   0  0  0  0  0  0
  -22.7825  -13.5219   21.1850 C   0  0  0  0  0  0
  -22.1659   -4.2144   21.0974 F   0  0  0  0  0  0
  -21.5641   -3.4519   25.7722 F   0  0  0  0  0  0
  -29.9962  -13.4926   20.4325 N   0  0  0  0  0  0
  -26.2955  -12.9416   20.3264 N   0  0  0  0  0  0
  -25.9336  -11.6562   20.5739 N   0  0  0  0  0  0
  -22.0479  -12.8221   22.0425 N   0  0  0  0  0  0
  -25.4254  -15.1929   20.4111 N   0  0  0  0  0  0
  -31.7597  -14.8557   20.0454 O   0  0  0  0  0  0
  -21.6649   -6.8872   21.4236 O   0  0  0  0  0  0
  -22.3488  -14.5499   20.6671 O   0  0  0  0  0  0
  -24.6304  -31.8568   23.2010 C   0  0  0  0  0  0
  -25.9131  -32.4758   23.8338 C   0  0  1  0  0  0
  -27.2102  -27.2588   20.1226 C   0  0  0  0  0  0
  -25.5926  -33.8556   24.2259 N   0  0  0  0  0  0
  -23.4269  -30.4850   21.5420 C   0  0  2  0  0  0
  -24.8733  -28.9384   20.1039 C   0  0  0  0  0  0
  -22.7492  -29.4628   22.4869 C   0  0  0  0  0  0
  -18.0304  -28.1398   22.8499 C   0  0  0  0  0  0
  -24.1486  -36.7292   23.2633 C   0  0  0  0  0  0
  -25.9745  -30.7686   21.3842 C   0  0  0  0  0  0
  -26.0442  -29.3926   20.7231 C   0  0  0  0  0  0
  -27.2129  -28.5632   20.7287 C   0  0  0  0  0  0
  -26.0223  -26.8948   19.4458 C   0  0  0  0  0  0
  -24.8671  -27.6973   19.4556 C   0  0  0  0  0  0
  -23.6467  -29.8272   20.1553 C   0  0  0  0  0  0
  -25.4112  -36.3067   24.0319 C   0  0  1  0  0  0
  -20.5906  -28.3719   23.1260 C   0  0  2  0  0  0
  -20.6796  -26.9436   22.5407 C   0  0  0  0  0  0
  -19.5760  -26.6392   21.5227 C   0  0  0  0  0  0
  -18.1946  -26.7942   22.1644 C   0  0  0  0  0  0
  -19.1554  -28.8870   23.2887 C   0  0  0  0  0  0
  -18.9472  -30.1468   23.8912 C   0  0  0  0  0  0
  -17.6470  -30.6601   24.0577 C   0  0  0  0  0  0
  -25.9052  -34.9439   23.5095 C   0  0  0  0  0  0
  -16.5364  -29.9107   23.6329 C   0  0  0  0  0  0
  -16.7290  -28.6523   23.0356 C   0  0  0  0  0  0
  -26.4487  -31.6576   25.0727 C   0  0  0  0  0  0
  -25.3692  -31.3760   26.1436 C   0  0  0  0  0  0
  -27.0312  -30.2974   24.6230 C   0  0  0  0  0  0
  -27.6043  -32.4302   25.7511 C   0  0  0  0  0  0
  -27.5578  -37.1803   24.8460 C   0  0  0  0  0  0
  -21.4197  -29.3068   22.3626 N   0  0  0  0  0  0
  -26.4283  -37.3772   23.9406 N   0  0  0  0  0  0
  -24.6961  -31.0534   22.0990 N   0  0  0  0  0  0
  -23.4200  -28.8155   23.2958 O   0  0  0  0  0  0
  -28.2865  -26.3387   20.2167 O   0  0  0  0  0  0
  -26.5628  -34.8908   22.4666 O   0  0  0  0  0  0
  -23.5455  -32.1389   23.7299 O   0  0  0  0  0  0
  -29.4396  -18.3755   18.0401 C   0  0  0  0  0  0
  -29.6596  -17.1895   18.7616 C   0  0  0  0  0  0
  -29.3099  -19.6180   18.6859 C   0  0  0  0  0  0
  -29.6265  -18.4967   20.8356 C   0  0  0  0  0  0
  -29.7544  -17.1879   20.1699 C   0  0  0  0  0  0
  -29.3972  -19.7492   20.0930 C   0  0  0  0  0  0
  -29.5411  -23.9482   21.6927 C   0  0  0  0  0  0
  -29.6895  -18.5423   22.3300 C   0  0  0  0  0  0
  -28.8806  -23.7156   20.5466 C   0  0  0  0  0  0
  -30.3646  -19.7441   22.9821 C   0  0  0  0  0  0
  -28.0621  -24.8891   19.8560 C   0  0  0  0  0  0
  -28.8993  -22.2706   19.8712 C   0  0  0  0  0  0
  -29.8499  -15.8424   20.8084 N   0  0  0  0  0  0
  -29.2717  -17.6399   23.0621 O   0  0  0  0  0  0
  -29.2549  -21.0548   20.6767 O   0  0  0  0  0  0
  -31.4777  -12.5476   19.1957 H   0  0  0  0  0  0
  -30.3609  -11.4544   19.9600 H   0  0  0  0  0  0
  -29.7995  -11.7415   17.5240 H   0  0  0  0  0  0
  -29.6553  -13.4696   17.7442 H   0  0  0  0  0  0
  -27.8878  -11.2896   18.8989 H   0  0  0  0  0  0
  -27.3880  -12.5441   17.7961 H   0  0  0  0  0  0
  -27.6465  -14.2589   19.4858 H   0  0  0  0  0  0
  -28.7074  -12.1442   21.4250 H   0  0  0  0  0  0
  -28.4157  -13.8183   21.8097 H   0  0  0  0  0  0
  -25.2775   -9.5691   22.4715 H   0  0  0  0  0  0
  -24.0019   -7.4642   22.7449 H   0  0  0  0  0  0
  -21.0842   -8.8757   19.8960 H   0  0  0  0  0  0
  -22.3677  -10.9661   19.6136 H   0  0  0  0  0  0
  -21.2005   -7.6136   23.9703 H   0  0  0  0  0  0
  -21.1496   -6.0511   25.9074 H   0  0  0  0  0  0
  -22.0597   -2.7603   23.2830 H   0  0  0  0  0  0
  -22.4115  -11.9912   22.4852 H   0  0  0  0  0  0
  -21.1086  -13.1241   22.2591 H   0  0  0  0  0  0
  -24.6602  -15.8501   20.5220 H   0  0  0  0  0  0
  -26.2819  -15.6329   20.0986 H   0  0  0  0  0  0
  -26.7199  -32.5415   23.1083 H   0  0  0  0  0  0
  -25.0032  -33.9688   25.0375 H   0  0  0  0  0  0
  -22.7240  -31.3090   21.3982 H   0  0  0  0  0  0
  -23.3739  -35.9634   23.3286 H   0  0  0  0  0  0
  -24.3599  -36.8921   22.2054 H   0  0  0  0  0  0
  -23.7245  -37.6489   23.6670 H   0  0  0  0  0  0
  -26.1112  -31.5316   20.6162 H   0  0  0  0  0  0
  -26.8547  -30.8162   22.0147 H   0  0  0  0  0  0
  -28.1007  -28.9008   21.2435 H   0  0  0  0  0  0
  -25.9419  -25.9658   18.9036 H   0  0  0  0  0  0
  -23.9741  -27.3516   18.9525 H   0  0  0  0  0  0
  -23.7763  -30.6091   19.4060 H   0  0  0  0  0  0
  -22.7649  -29.2646   19.8438 H   0  0  0  0  0  0
  -25.1294  -36.1912   25.0811 H   0  0  0  0  0  0
  -21.0023  -28.3315   24.1370 H   0  0  0  0  0  0
  -20.5723  -26.2333   23.3618 H   0  0  0  0  0  0
  -21.6659  -26.7483   22.1176 H   0  0  0  0  0  0
  -19.6928  -25.6301   21.1260 H   0  0  0  0  0  0
  -19.6691  -27.3201   20.6754 H   0  0  0  0  0  0
  -17.4216  -26.6693   21.4049 H   0  0  0  0  0  0
  -18.0355  -26.0093   22.9047 H   0  0  0  0  0  0
  -19.7945  -30.7288   24.2284 H   0  0  0  0  0  0
  -17.5029  -31.6283   24.5172 H   0  0  0  0  0  0
  -15.5367  -30.3025   23.7627 H   0  0  0  0  0  0
  -15.8692  -28.0851   22.7050 H   0  0  0  0  0  0
  -24.5881  -30.7086   25.7776 H   0  0  0  0  0  0
  -24.8859  -32.2938   26.4785 H   0  0  0  0  0  0
  -25.7983  -30.8998   27.0256 H   0  0  0  0  0  0
  -26.2899  -29.6745   24.1206 H   0  0  0  0  0  0
  -27.3908  -29.7218   25.4768 H   0  0  0  0  0  0
  -27.8818  -30.4215   23.9527 H   0  0  0  0  0  0
  -27.2652  -33.3608   26.2075 H   0  0  0  0  0  0
  -28.3869  -32.6844   25.0351 H   0  0  0  0  0  0
  -28.0684  -31.8421   26.5439 H   0  0  0  0  0  0
  -28.2576  -38.0113   24.7495 H   0  0  0  0  0  0
  -28.1078  -36.2637   24.6285 H   0  0  0  0  0  0
  -27.2297  -37.1447   25.8860 H   0  0  0  0  0  0
  -20.9356  -29.8803   21.6853 H   0  0  0  0  0  0
  -26.0151  -38.2834   24.1426 H   0  0  0  0  0  0
  -29.3532  -18.3297   16.9626 H   0  0  0  0  0  0
  -29.7166  -16.2614   18.2073 H   0  0  0  0  0  0
  -29.1355  -20.4718   18.0502 H   0  0  0  0  0  0
  -29.5212  -24.9278   22.1485 H   0  0  0  0  0  0
  -30.1077  -23.1748   22.1906 H   0  0  0  0  0  0
  -31.1221  -20.1662   22.3220 H   0  0  0  0  0  0
  -30.8512  -19.4458   23.9100 H   0  0  0  0  0  0
  -29.6259  -20.5109   23.2140 H   0  0  0  0  0  0
  -27.0312  -24.6037   20.0625 H   0  0  0  0  0  0
  -28.2023  -24.8031   18.7786 H   0  0  0  0  0  0
  -29.5864  -22.3558   19.0291 H   0  0  0  0  0  0
  -27.9085  -22.0989   19.4494 H   0  0  0  0  0  0
  -29.0753  -15.6238   21.4173 H   0  0  0  0  0  0
  1 25  1  0  0  0
  1 30  2  0  0  0
  1 83  1  0  0  0
  2  3  1  0  0  0
  2 25  1  0  0  0
  2 86  1  0  0  0
  2 87  1  0  0  0
  3  4  1  0  0  0
  3 88  1  0  0  0
  3 89  1  0  0  0
  4  5  1  0  0  0
  4 90  1  0  0  0
  4 91  1  0  0  0
  5  6  1  0  0  0
  5 26  1  0  0  0
  5 92  1  0  0  0
  6 25  1  0  0  0
  6 93  1  0  0  0
  6 94  1  0  0  0
  7  8  2  0  0  0
  7 26  1  0  0  0
  7 29  1  0  0  0
  8  9  1  0  0  0
  8 22  1  0  0  0
  9 10  1  0  0  0
  9 27  2  0  0  0
 10 11  2  0  0  0
 10 15  1  0  0  0
 11 12  1  0  0  0
 11 95  1  0  0  0
 12 13  2  0  0  0
 12 96  1  0  0  0
 13 14  1  0  0  0
 13 31  1  0  0  0
 14 15  2  0  0  0
 14 97  1  0  0  0
 15 98  1  0  0  0
 16 17  2  0  0  0
 16 21  1  0  0  0
 16 31  1  0  0  0
 17 18  1  0  0  0
 17 99  1  0  0  0
 18 19  2  0  0  0
 18100  1  0  0  0
 19 20  1  0  0  0
 19 24  1  0  0  0
 20 21  2  0  0  0
 20101  1  0  0  0
 21 23  1  0  0  0
 22 28  1  0  0  0
 22 32  2  0  0  0
 26 27  1  0  0  0
 28102  1  0  0  0
 28103  1  0  0  0
 29104  1  0  0  0
 29105  1  0  0  0
 33 34  1  0  0  0
 33 66  1  0  0  0
 33 70  2  0  0  0
 34 36  1  0  0  0
 34 59  1  0  0  0
 34106  1  0  0  0
 35 44  2  0  0  0
 35 45  1  0  0  0
 35 68  1  0  0  0
 36 56  1  0  0  0
 36107  1  0  0  0
 37 39  1  0  0  0
 37 47  1  0  0  0
 37 66  1  0  0  0
 37108  1  0  0  0
 38 43  2  0  0  0
 38 46  1  0  0  0
 38 47  1  0  0  0
 39 64  1  0  0  0
 39 67  2  0  0  0
 40 52  1  0  0  0
 40 53  2  0  0  0
 40 58  1  0  0  0
 41109  1  0  0  0
 41110  1  0  0  0
 41111  1  0  0  0
 41 48  1  0  0  0
 42 43  1  0  0  0
 42 66  1  0  0  0
 42112  1  0  0  0
 42113  1  0  0  0
 43 44  1  0  0  0
 44114  1  0  0  0
 45 46  2  0  0  0
 45115  1  0  0  0
 46116  1  0  0  0
 47117  1  0  0  0
 47118  1  0  0  0
 48 56  1  0  0  0
 48 65  1  0  0  0
 48119  1  0  0  0
 49 50  1  0  0  0
 49 53  1  0  0  0
 49 64  1  0  0  0
 49120  1  0  0  0
 50 51  1  0  0  0
 50121  1  0  0  0
 50122  1  0  0  0
 51 52  1  0  0  0
 51123  1  0  0  0
 51124  1  0  0  0
 52125  1  0  0  0
 52126  1  0  0  0
 53 54  1  0  0  0
 54 55  2  0  0  0
 54127  1  0  0  0
 55 57  1  0  0  0
 55128  1  0  0  0
 56 69  2  0  0  0
 57 58  2  0  0  0
 57129  1  0  0  0
 58130  1  0  0  0
 59 60  1  0  0  0
 59 61  1  0  0  0
 59 62  1  0  0  0
 60131  1  0  0  0
 60132  1  0  0  0
 60133  1  0  0  0
 61134  1  0  0  0
 61135  1  0  0  0
 61136  1  0  0  0
 62137  1  0  0  0
 62138  1  0  0  0
 62139  1  0  0  0
 63 65  1  0  0  0
 63140  1  0  0  0
 63141  1  0  0  0
 63142  1  0  0  0
 64143  1  0  0  0
 65144  1  0  0  0
 68 81  1  0  0  0
 71 72  2  0  0  0
 71 73  1  0  0  0
 71145  1  0  0  0
 72 75  1  0  0  0
 72146  1  0  0  0
 73 76  2  0  0  0
 73147  1  0  0  0
 74 75  2  0  0  0
 74 76  1  0  0  0
 74 78  1  0  0  0
 75 83  1  0  0  0
 76 85  1  0  0  0
 77 79  2  0  0  0
 77148  1  0  0  0
 77149  1  0  0  0
 78 80  1  0  0  0
 78 84  2  0  0  0
 79 81  1  0  0  0
 79 82  1  0  0  0
 80150  1  0  0  0
 80151  1  0  0  0
 80152  1  0  0  0
 81153  1  0  0  0
 81154  1  0  0  0
 82 85  1  0  0  0
 82155  1  0  0  0
 82156  1  0  0  0
 83157  1  0  0  0
M  ISO  4   1 100  68 101  81 101  83 100
M  END
> <chiral flag>
0

> <version>
0

> <s_m_source_file>
/data/baiqing/PycharmProjects/Reinvent-master-3.2/result/LINK_invent/BTK/process_docking_weight1_custom_product_contain_oxygen_bond_distance_aromatic_linkinvent_7_9_3/rearranged_h_0123.sdf

> <i_m_source_file_index>
7

> <r_mmod_Potential_Energy-OPLS-2005>
283.939636230469

> <r_mmod_Stretch_Energy-OPLS-2005>
137.375213623047

> <r_mmod_Bend_Energy-OPLS-2005>
164.45166015625

> <r_mmod_Torsional_Energy-OPLS-2005>
267.308868408203

> <r_mmod_Improper_Torsional_Energy-OPLS-2005>
4.55799341201782

> <r_mmod_Van_der_Waal_Energy-OPLS-2005>
146.976928710938

> <r_mmod_Electrostatic_Energy-OPLS-2005>
-308.474365234375

> <r_mmod_Solvation_Energy-OPLS-2005>
-214.70378112793

> <b_mmod_Minimization_Converged-OPLS-2005>
0

> <r_mmod_RMS_Derivative-OPLS-2005>
2.16663503646851

$$$$
7
                    3D
 Structure written by MMmdl.
161169  0  0  1  0            999 V2000
  -30.6713  -14.5604   20.6380 C   0  0  0  0  0  0
  -30.4431  -12.3955   19.4186 C   0  0  0  0  0  0
  -29.4962  -12.5505   18.2091 C   0  0  0  0  0  0
  -28.0201  -12.3873   18.6248 C   0  0  0  0  0  0
  -27.6674  -13.2099   19.8927 C   0  0  2  0  0  0
  -28.7192  -12.9563   20.9969 C   0  0  0  0  0  0
  -25.2552  -13.8122   20.5563 C   0  0  0  0  0  0
  -24.1835  -13.0417   20.9151 C   0  0  0  0  0  0
  -24.6412  -11.6888   20.8759 C   0  0  0  0  0  0
  -23.9073  -10.4281   21.0413 C   0  0  0  0  0  0
  -24.3616   -9.4196   21.9191 C   0  0  0  0  0  0
  -23.6288   -8.2234   22.0759 C   0  0  0  0  0  0
  -22.4273   -8.0275   21.3544 C   0  0  0  0  0  0
  -21.9912   -9.0252   20.4649 C   0  0  0  0  0  0
  -22.7244  -10.2130   20.3061 C   0  0  0  0  0  0
  -21.6852   -6.0730   22.5273 C   0  0  0  0  0  0
  -21.4015   -6.5636   23.8206 C   0  0  0  0  0  0
  -21.3659   -5.6790   24.9170 C   0  0  0  0  0  0
  -21.6045   -4.3053   24.7222 C   0  0  0  0  0  0
  -21.8821   -3.8142   23.4344 C   0  0  0  0  0  0
  -21.9194   -4.6958   22.3399 C   0  0  0  0  0  0
  -22.7858  -13.5219   21.1814 C   0  0  0  0  0  0
  -22.1661   -4.2143   21.0977 F   0  0  0  0  0  0
  -21.5630   -3.4538   25.7737 F   0  0  0  0  0  0
  -30.0301  -13.3557   20.4637 N   0  0  0  0  0  0
  -26.3064  -12.9327   20.3471 N   0  0  0  0  0  0
  -25.9362  -11.6485   20.5861 N   0  0  0  0  0  0
  -22.0513  -12.8220   22.0390 N   0  0  0  0  0  0
  -25.4158  -15.1802   20.3664 N   0  0  0  0  0  0
  -31.7099  -14.8315   20.0226 O   0  0  0  0  0  0
  -21.6637   -6.8873   21.4236 O   0  0  0  0  0  0
  -22.3538  -14.5529   20.6671 O   0  0  0  0  0  0
  -24.6223  -31.8625   23.2038 C   0  0  0  0  0  0
  -25.9085  -32.4787   23.8362 C   0  0  1  0  0  0
  -27.2372  -27.3568   20.1069 C   0  0  0  0  0  0
  -25.5920  -33.8587   24.2293 N   0  0  0  0  0  0
  -23.4152  -30.4843   21.5460 C   0  0  2  0  0  0
  -24.8627  -28.9412   20.1147 C   0  0  0  0  0  0
  -22.7456  -29.4628   22.4955 C   0  0  0  0  0  0
  -18.0288  -28.1370   22.8484 C   0  0  0  0  0  0
  -24.1493  -36.7307   23.2636 C   0  0  0  0  0  0
  -25.9522  -30.8052   21.3680 C   0  0  0  0  0  0
  -26.0295  -29.4345   20.7116 C   0  0  0  0  0  0
  -27.2202  -28.6549   20.6940 C   0  0  0  0  0  0
  -26.0435  -26.9006   19.5012 C   0  0  0  0  0  0
  -24.8700  -27.6779   19.5025 C   0  0  0  0  0  0
  -23.6280  -29.8161   20.1624 C   0  0  0  0  0  0
  -25.4113  -36.3088   24.0331 C   0  0  1  0  0  0
  -20.5881  -28.3669   23.1293 C   0  0  2  0  0  0
  -20.6772  -26.9396   22.5407 C   0  0  0  0  0  0
  -19.5751  -26.6373   21.5204 C   0  0  0  0  0  0
  -18.1931  -26.7916   22.1616 C   0  0  0  0  0  0
  -19.1536  -28.8835   23.2885 C   0  0  0  0  0  0
  -18.9457  -30.1438   23.8901 C   0  0  0  0  0  0
  -17.6459  -30.6573   24.0555 C   0  0  0  0  0  0
  -25.9042  -34.9454   23.5107 C   0  0  0  0  0  0
  -16.5350  -29.9072   23.6320 C   0  0  0  0  0  0
  -16.7274  -28.6489   23.0345 C   0  0  0  0  0  0
  -26.4489  -31.6585   25.0717 C   0  0  0  0  0  0
  -25.3733  -31.3706   26.1450 C   0  0  0  0  0  0
  -27.0327  -30.3014   24.6138 C   0  0  0  0  0  0
  -27.6060  -32.4314   25.7479 C   0  0  0  0  0  0
  -27.5586  -37.1805   24.8461 C   0  0  0  0  0  0
  -21.4174  -29.3034   22.3698 N   0  0  0  0  0  0
  -26.4298  -37.3778   23.9405 N   0  0  0  0  0  0
  -24.6816  -31.0667   22.0968 N   0  0  0  0  0  0
  -23.4191  -28.8168   23.3022 O   0  0  0  0  0  0
  -28.3866  -26.5605   20.1274 O   0  0  0  0  0  0
  -26.5604  -34.8916   22.4669 O   0  0  0  0  0  0
  -23.5395  -32.1408   23.7385 O   0  0  0  0  0  0
  -27.5583  -18.3989   21.7987 C   0  0  0  0  0  0
  -28.2238  -19.4539   21.1659 C   0  0  0  0  0  0
  -30.1321  -17.9776   20.8233 C   0  0  0  0  0  0
  -29.4738  -16.8655   21.4588 C   0  0  0  0  0  0
  -28.1678  -17.1412   21.9884 C   0  0  0  0  0  0
  -29.5375  -19.2833   20.6954 C   0  0  0  0  0  0
  -30.1704  -15.5241   21.7583 C   0  0  0  0  0  0
  -27.5315  -16.4274   24.3490 C   0  0  0  0  0  0
  -27.3569  -16.1728   22.8454 C   0  0  0  0  0  0
  -29.5085  -22.7701   20.8268 C   0  0  0  0  0  0
  -29.5565  -24.2863   20.3541 C   0  0  0  0  0  0
  -29.5995  -21.6162   19.7608 C   0  0  0  0  0  0
  -28.2274  -25.1004   20.1442 C   0  0  0  0  0  0
  -30.3632  -15.1901   22.9663 N   0  0  0  0  0  0
  -30.2496  -20.3648   20.1677 O   0  0  0  0  0  0
  -31.4775  -12.5450   19.1047 H   0  0  0  0  0  0
  -30.4032  -11.3767   19.8064 H   0  0  0  0  0  0
  -29.7487  -11.8223   17.4372 H   0  0  0  0  0  0
  -29.6405  -13.5344   17.7600 H   0  0  0  0  0  0
  -27.8413  -11.3275   18.8114 H   0  0  0  0  0  0
  -27.3627  -12.6662   17.8005 H   0  0  0  0  0  0
  -27.7169  -14.2649   19.6216 H   0  0  0  0  0  0
  -28.7351  -11.8957   21.2528 H   0  0  0  0  0  0
  -28.4754  -13.4423   21.9322 H   0  0  0  0  0  0
  -25.2761   -9.5667   22.4766 H   0  0  0  0  0  0
  -23.9993   -7.4627   22.7478 H   0  0  0  0  0  0
  -21.0846   -8.8771   19.8953 H   0  0  0  0  0  0
  -22.3703  -10.9669   19.6168 H   0  0  0  0  0  0
  -21.2006   -7.6143   23.9707 H   0  0  0  0  0  0
  -21.1482   -6.0521   25.9072 H   0  0  0  0  0  0
  -22.0602   -2.7605   23.2845 H   0  0  0  0  0  0
  -22.4135  -11.9881   22.4771 H   0  0  0  0  0  0
  -21.1137  -13.1251   22.2613 H   0  0  0  0  0  0
  -24.6396  -15.8271   20.4480 H   0  0  0  0  0  0
  -26.2650  -15.6215   20.0388 H   0  0  0  0  0  0
  -26.7152  -32.5471   23.1117 H   0  0  0  0  0  0
  -25.0074  -33.9732   25.0442 H   0  0  0  0  0  0
  -22.7070  -31.3028   21.4027 H   0  0  0  0  0  0
  -23.3744  -35.9649   23.3301 H   0  0  0  0  0  0
  -24.3582  -36.8926   22.2049 H   0  0  0  0  0  0
  -23.7261  -37.6518   23.6655 H   0  0  0  0  0  0
  -26.0761  -31.5697   20.5998 H   0  0  0  0  0  0
  -26.8350  -30.8567   21.9932 H   0  0  0  0  0  0
  -28.1210  -29.0333   21.1566 H   0  0  0  0  0  0
  -25.9947  -25.9370   19.0183 H   0  0  0  0  0  0
  -23.9757  -27.2935   19.0318 H   0  0  0  0  0  0
  -23.7432  -30.5909   19.4035 H   0  0  0  0  0  0
  -22.7507  -29.2399   19.8633 H   0  0  0  0  0  0
  -25.1295  -36.1950   25.0825 H   0  0  0  0  0  0
  -20.9973  -28.3234   24.1415 H   0  0  0  0  0  0
  -20.5667  -26.2272   23.3595 H   0  0  0  0  0  0
  -21.6641  -26.7424   22.1204 H   0  0  0  0  0  0
  -19.6906  -25.6285   21.1230 H   0  0  0  0  0  0
  -19.6692  -27.3183   20.6732 H   0  0  0  0  0  0
  -17.4200  -26.6658   21.4019 H   0  0  0  0  0  0
  -18.0338  -26.0054   22.9010 H   0  0  0  0  0  0
  -19.7934  -30.7248   24.2277 H   0  0  0  0  0  0
  -17.5014  -31.6258   24.5149 H   0  0  0  0  0  0
  -15.5349  -30.2971   23.7642 H   0  0  0  0  0  0
  -15.8674  -28.0804   22.7057 H   0  0  0  0  0  0
  -24.5917  -30.7041   25.7785 H   0  0  0  0  0  0
  -24.8901  -32.2859   26.4876 H   0  0  0  0  0  0
  -25.8073  -30.8888   27.0219 H   0  0  0  0  0  0
  -26.2882  -29.6764   24.1187 H   0  0  0  0  0  0
  -27.4073  -29.7265   25.4619 H   0  0  0  0  0  0
  -27.8735  -30.4314   23.9319 H   0  0  0  0  0  0
  -27.2687  -33.3618   26.2059 H   0  0  0  0  0  0
  -28.3869  -32.6871   25.0305 H   0  0  0  0  0  0
  -28.0726  -31.8432   26.5388 H   0  0  0  0  0  0
  -28.2599  -38.0106   24.7513 H   0  0  0  0  0  0
  -28.1089  -36.2637   24.6288 H   0  0  0  0  0  0
  -27.2299  -37.1461   25.8863 H   0  0  0  0  0  0
  -20.9342  -29.8769   21.6928 H   0  0  0  0  0  0
  -26.0182  -38.2856   24.1397 H   0  0  0  0  0  0
  -26.5698  -18.5832   22.1974 H   0  0  0  0  0  0
  -27.7173  -20.4053   21.1005 H   0  0  0  0  0  0
  -31.1462  -17.8407   20.4744 H   0  0  0  0  0  0
  -26.9300  -15.7284   24.9299 H   0  0  0  0  0  0
  -27.2157  -17.4361   24.6167 H   0  0  0  0  0  0
  -28.5660  -16.3104   24.6669 H   0  0  0  0  0  0
  -27.5690  -15.1405   22.6091 H   0  0  0  0  0  0
  -26.3003  -16.2973   22.6085 H   0  0  0  0  0  0
  -30.3813  -22.6359   21.4671 H   0  0  0  0  0  0
  -28.6561  -22.6099   21.4871 H   0  0  0  0  0  0
  -30.1811  -24.3746   19.4648 H   0  0  0  0  0  0
  -30.1039  -24.8229   21.1301 H   0  0  0  0  0  0
  -30.2122  -21.9871   18.9388 H   0  0  0  0  0  0
  -28.6257  -21.4293   19.3070 H   0  0  0  0  0  0
  -27.5302  -24.8449   20.9439 H   0  0  0  0  0  0
  -27.7807  -24.7573   19.2113 H   0  0  0  0  0  0
  -30.0021  -15.9003   23.5910 H   0  0  0  0  0  0
  1 25  1  0  0  0
  1 30  2  0  0  0
  1 77  1  0  0  0
  2  3  1  0  0  0
  2 25  1  0  0  0
  2 86  1  0  0  0
  2 87  1  0  0  0
  3  4  1  0  0  0
  3 88  1  0  0  0
  3 89  1  0  0  0
  4  5  1  0  0  0
  4 90  1  0  0  0
  4 91  1  0  0  0
  5  6  1  0  0  0
  5 26  1  0  0  0
  5 92  1  0  0  0
  6 25  1  0  0  0
  6 93  1  0  0  0
  6 94  1  0  0  0
  7  8  2  0  0  0
  7 26  1  0  0  0
  7 29  1  0  0  0
  8  9  1  0  0  0
  8 22  1  0  0  0
  9 10  1  0  0  0
  9 27  2  0  0  0
 10 11  2  0  0  0
 10 15  1  0  0  0
 11 12  1  0  0  0
 11 95  1  0  0  0
 12 13  2  0  0  0
 12 96  1  0  0  0
 13 14  1  0  0  0
 13 31  1  0  0  0
 14 15  2  0  0  0
 14 97  1  0  0  0
 15 98  1  0  0  0
 16 17  2  0  0  0
 16 21  1  0  0  0
 16 31  1  0  0  0
 17 18  1  0  0  0
 17 99  1  0  0  0
 18 19  2  0  0  0
 18100  1  0  0  0
 19 20  1  0  0  0
 19 24  1  0  0  0
 20 21  2  0  0  0
 20101  1  0  0  0
 21 23  1  0  0  0
 22 28  1  0  0  0
 22 32  2  0  0  0
 26 27  1  0  0  0
 28102  1  0  0  0
 28103  1  0  0  0
 29104  1  0  0  0
 29105  1  0  0  0
 33 34  1  0  0  0
 33 66  1  0  0  0
 33 70  2  0  0  0
 34 36  1  0  0  0
 34 59  1  0  0  0
 34106  1  0  0  0
 35 44  2  0  0  0
 35 45  1  0  0  0
 35 68  1  0  0  0
 36 56  1  0  0  0
 36107  1  0  0  0
 37 39  1  0  0  0
 37 47  1  0  0  0
 37 66  1  0  0  0
 37108  1  0  0  0
 38 43  2  0  0  0
 38 46  1  0  0  0
 38 47  1  0  0  0
 39 64  1  0  0  0
 39 67  2  0  0  0
 40 52  1  0  0  0
 40 53  2  0  0  0
 40 58  1  0  0  0
 41109  1  0  0  0
 41110  1  0  0  0
 41111  1  0  0  0
 41 48  1  0  0  0
 42 43  1  0  0  0
 42 66  1  0  0  0
 42112  1  0  0  0
 42113  1  0  0  0
 43 44  1  0  0  0
 44114  1  0  0  0
 45 46  2  0  0  0
 45115  1  0  0  0
 46116  1  0  0  0
 47117  1  0  0  0
 47118  1  0  0  0
 48 56  1  0  0  0
 48 65  1  0  0  0
 48119  1  0  0  0
 49 50  1  0  0  0
 49 53  1  0  0  0
 49 64  1  0  0  0
 49120  1  0  0  0
 50 51  1  0  0  0
 50121  1  0  0  0
 50122  1  0  0  0
 51 52  1  0  0  0
 51123  1  0  0  0
 51124  1  0  0  0
 52125  1  0  0  0
 52126  1  0  0  0
 53 54  1  0  0  0
 54 55  2  0  0  0
 54127  1  0  0  0
 55 57  1  0  0  0
 55128  1  0  0  0
 56 69  2  0  0  0
 57 58  2  0  0  0
 57129  1  0  0  0
 58130  1  0  0  0
 59 60  1  0  0  0
 59 61  1  0  0  0
 59 62  1  0  0  0
 60131  1  0  0  0
 60132  1  0  0  0
 60133  1  0  0  0
 61134  1  0  0  0
 61135  1  0  0  0
 61136  1  0  0  0
 62137  1  0  0  0
 62138  1  0  0  0
 62139  1  0  0  0
 63 65  1  0  0  0
 63140  1  0  0  0
 63141  1  0  0  0
 63142  1  0  0  0
 64143  1  0  0  0
 65144  1  0  0  0
 68 83  1  0  0  0
 71 72  2  0  0  0
 71 75  1  0  0  0
 71145  1  0  0  0
 72 76  1  0  0  0
 72146  1  0  0  0
 73 74  1  0  0  0
 73 76  2  0  0  0
 73147  1  0  0  0
 74 75  2  0  0  0
 74 77  1  0  0  0
 75 79  1  0  0  0
 76 85  1  0  0  0
 77 84  2  0  0  0
 78 79  1  0  0  0
 78148  1  0  0  0
 78149  1  0  0  0
 78150  1  0  0  0
 79151  1  0  0  0
 79152  1  0  0  0
 80 81  1  0  0  0
 80 82  1  0  0  0
 80153  1  0  0  0
 80154  1  0  0  0
 81 83  1  0  0  0
 81155  1  0  0  0
 81156  1  0  0  0
 82 85  1  0  0  0
 82157  1  0  0  0
 82158  1  0  0  0
 83159  1  0  0  0
 83160  1  0  0  0
 84161  1  0  0  0
M  ISO  4   1 100  68 101  77 100  83 101
M  END
> <chiral flag>
0

> <version>
0

> <s_m_source_file>
/data/baiqing/PycharmProjects/Reinvent-master-3.2/result/LINK_invent/BTK/process_docking_weight1_custom_product_contain_oxygen_bond_distance_aromatic_linkinvent_7_9_3/rearranged_h_0123.sdf

> <i_m_source_file_index>
8

> <r_mmod_Potential_Energy-OPLS-2005>
219.638763427734

> <r_mmod_Stretch_Energy-OPLS-2005>
79.4375839233398

> <r_mmod_Bend_Energy-OPLS-2005>
153.075408935547

> <r_mmod_Torsional_Energy-OPLS-2005>
238.330413818359

> <r_mmod_Improper_Torsional_Energy-OPLS-2005>
4.4537525177002

> <r_mmod_Van_der_Waal_Energy-OPLS-2005>
144.219711303711

> <r_mmod_Electrostatic_Energy-OPLS-2005>
-235.781143188477

> <r_mmod_Solvation_Energy-OPLS-2005>
-193.390579223633

> <b_mmod_Minimization_Converged-OPLS-2005>
0

> <r_mmod_RMS_Derivative-OPLS-2005>
0.851248741149902

$$$$
8
                    3D
 Structure written by MMmdl.
159167  0  0  1  0            999 V2000
  -30.7835  -14.3985   20.5822 C   0  0  0  0  0  0
  -30.4197  -12.3056   19.4061 C   0  0  0  0  0  0
  -29.4565  -12.4887   18.2187 C   0  0  0  0  0  0
  -28.0012  -12.3095   18.6734 C   0  0  0  0  0  0
  -27.6579  -13.1550   19.9281 C   0  0  2  0  0  0
  -28.7175  -13.0022   21.0494 C   0  0  0  0  0  0
  -25.2499  -13.8148   20.5722 C   0  0  0  0  0  0
  -24.1785  -13.0483   20.9105 C   0  0  0  0  0  0
  -24.6288  -11.6928   20.8869 C   0  0  0  0  0  0
  -23.8969  -10.4353   21.0519 C   0  0  0  0  0  0
  -24.3565   -9.4311   21.9270 C   0  0  0  0  0  0
  -23.6294   -8.2334   22.0852 C   0  0  0  0  0  0
  -22.4311   -8.0341   21.3565 C   0  0  0  0  0  0
  -21.9896   -9.0310   20.4702 C   0  0  0  0  0  0
  -22.7185  -10.2198   20.3095 C   0  0  0  0  0  0
  -21.6913   -6.0756   22.5246 C   0  0  0  0  0  0
  -21.4102   -6.5692   23.8175 C   0  0  0  0  0  0
  -21.3672   -5.6846   24.9137 C   0  0  0  0  0  0
  -21.6028   -4.3105   24.7200 C   0  0  0  0  0  0
  -21.8819   -3.8170   23.4333 C   0  0  0  0  0  0
  -21.9229   -4.6981   22.3384 C   0  0  0  0  0  0
  -22.7762  -13.5332   21.1730 C   0  0  0  0  0  0
  -22.1686   -4.2159   21.0955 F   0  0  0  0  0  0
  -21.5591   -3.4592   25.7711 F   0  0  0  0  0  0
  -30.0595  -13.2576   20.4637 N   0  0  0  0  0  0
  -26.2957  -12.9165   20.3750 N   0  0  0  0  0  0
  -25.9203  -11.6367   20.6075 N   0  0  0  0  0  0
  -22.0437  -12.8287   22.0314 N   0  0  0  0  0  0
  -25.4360  -15.1871   20.4014 N   0  0  0  0  0  0
  -31.8555  -14.5457   19.9595 O   0  0  0  0  0  0
  -21.6733   -6.8904   21.4209 O   0  0  0  0  0  0
  -22.3417  -14.5584   20.6565 O   0  0  0  0  0  0
  -24.6086  -31.8605   23.2187 C   0  0  0  0  0  0
  -25.8947  -32.4853   23.8412 C   0  0  1  0  0  0
  -27.2521  -27.4605   20.0505 C   0  0  0  0  0  0
  -25.5824  -33.8630   24.2317 N   0  0  0  0  0  0
  -23.3985  -30.4797   21.5675 C   0  0  2  0  0  0
  -24.8322  -28.9466   20.1090 C   0  0  0  0  0  0
  -22.7318  -29.4625   22.5056 C   0  0  0  0  0  0
  -18.0186  -28.1456   22.8413 C   0  0  0  0  0  0
  -24.1462  -36.7304   23.2638 C   0  0  0  0  0  0
  -25.9138  -30.8220   21.3635 C   0  0  0  0  0  0
  -25.9964  -29.4663   20.6983 C   0  0  0  0  0  0
  -27.2063  -28.7371   20.6524 C   0  0  0  0  0  0
  -26.0700  -26.9480   19.4635 C   0  0  0  0  0  0
  -24.8739  -27.6877   19.4798 C   0  0  0  0  0  0
  -23.5834  -29.8022   20.1801 C   0  0  0  0  0  0
  -25.4118  -36.3131   24.0332 C   0  0  1  0  0  0
  -20.5764  -28.3640   23.1049 C   0  0  2  0  0  0
  -20.6773  -26.9422   22.5150 C   0  0  0  0  0  0
  -19.5571  -26.6302   21.5269 C   0  0  0  0  0  0
  -18.1809  -26.7881   22.1857 C   0  0  0  0  0  0
  -19.1458  -28.8882   23.2707 C   0  0  0  0  0  0
  -18.9460  -30.1460   23.8757 C   0  0  0  0  0  0
  -17.6499  -30.6763   24.0240 C   0  0  0  0  0  0
  -25.9049  -34.9538   23.5172 C   0  0  0  0  0  0
  -16.5359  -29.9229   23.6163 C   0  0  0  0  0  0
  -16.7181  -28.6567   23.0357 C   0  0  0  0  0  0
  -26.4416  -31.6619   25.0722 C   0  0  0  0  0  0
  -25.3646  -31.3695   26.1455 C   0  0  0  0  0  0
  -27.0269  -30.3098   24.6013 C   0  0  0  0  0  0
  -27.5995  -32.4326   25.7492 C   0  0  0  0  0  0
  -27.5586  -37.1806   24.8459 C   0  0  0  0  0  0
  -21.4144  -29.2998   22.3574 N   0  0  0  0  0  0
  -26.4260  -37.3866   23.9454 N   0  0  0  0  0  0
  -24.6609  -31.0621   22.1130 N   0  0  0  0  0  0
  -23.4061  -28.8158   23.3143 O   0  0  0  0  0  0
  -28.4613  -26.7893   20.0471 O   0  0  0  0  0  0
  -26.5658  -34.8964   22.4748 O   0  0  0  0  0  0
  -23.5313  -32.1337   23.7605 O   0  0  0  0  0  0
  -27.3953  -19.7874   20.6483 C   0  0  0  0  0  0
  -27.3119  -18.6441   19.8261 C   0  0  0  0  0  0
  -29.2639  -18.7514   21.8115 C   0  0  0  0  0  0
  -28.3973  -19.8479   21.6384 C   0  0  0  0  0  0
  -28.2521  -17.5886   19.9356 C   0  0  0  0  0  0
  -29.2353  -17.6269   20.9659 C   0  0  0  0  0  0
  -28.0464  -16.7098   17.5504 C   0  0  0  0  0  0
  -28.6499  -21.0514   22.4437 C   0  0  0  0  0  0
  -28.3954  -16.6025   18.8494 C   0  0  0  0  0  0
  -28.5782  -22.3675   22.1461 C   0  0  0  0  0  0
  -30.4229  -16.6911   20.9911 C   0  0  0  0  0  0
  -28.2444  -23.0452   20.8511 C   0  0  0  0  0  0
  -28.0155  -24.5800   20.9001 C   0  0  0  0  0  0
  -28.5262  -25.4050   19.7017 C   0  0  0  0  0  0
  -30.2077  -15.3899   21.2822 N   0  0  0  0  0  0
  -31.5319  -17.1598   20.6762 O   0  0  0  0  0  0
  -28.1248  -22.4703   19.7734 O   0  0  0  0  0  0
  -31.4497  -12.4387   19.0623 H   0  0  0  0  0  0
  -30.3755  -11.2910   19.7969 H   0  0  0  0  0  0
  -29.7011  -11.7525   17.4539 H   0  0  0  0  0  0
  -29.5694  -13.4705   17.7514 H   0  0  0  0  0  0
  -27.8390  -11.2494   18.8695 H   0  0  0  0  0  0
  -27.3243  -12.5633   17.8599 H   0  0  0  0  0  0
  -27.6553  -14.1888   19.6241 H   0  0  0  0  0  0
  -28.7077  -12.0032   21.4847 H   0  0  0  0  0  0
  -28.4559  -13.6823   21.8612 H   0  0  0  0  0  0
  -25.2757   -9.5895   22.4756 H   0  0  0  0  0  0
  -24.0115   -7.4787   22.7577 H   0  0  0  0  0  0
  -21.0865   -8.8828   19.8923 H   0  0  0  0  0  0
  -22.3764  -10.9740   19.6161 H   0  0  0  0  0  0
  -21.2165   -7.6217   23.9658 H   0  0  0  0  0  0
  -21.1485   -6.0606   25.9029 H   0  0  0  0  0  0
  -22.0580   -2.7629   23.2833 H   0  0  0  0  0  0
  -22.4103  -11.9996   22.4706 H   0  0  0  0  0  0
  -21.0966  -13.1228   22.2417 H   0  0  0  0  0  0
  -24.6863  -15.8613   20.4924 H   0  0  0  0  0  0
  -26.3094  -15.6213   20.1482 H   0  0  0  0  0  0
  -26.6850  -32.5503   23.1014 H   0  0  0  0  0  0
  -24.9856  -33.9828   25.0382 H   0  0  0  0  0  0
  -22.6908  -31.3048   21.4495 H   0  0  0  0  0  0
  -23.3766  -35.9584   23.3308 H   0  0  0  0  0  0
  -24.3486  -36.8922   22.2026 H   0  0  0  0  0  0
  -23.7141  -37.6469   23.6675 H   0  0  0  0  0  0
  -26.0012  -31.5787   20.5796 H   0  0  0  0  0  0
  -26.8136  -30.8822   21.9728 H   0  0  0  0  0  0
  -28.1147  -29.1512   21.0716 H   0  0  0  0  0  0
  -26.0663  -25.9804   18.9784 H   0  0  0  0  0  0
  -23.9907  -27.2902   18.9972 H   0  0  0  0  0  0
  -23.6285  -30.5763   19.4167 H   0  0  0  0  0  0
  -22.6977  -29.2114   19.9314 H   0  0  0  0  0  0
  -25.1294  -36.1990   25.0815 H   0  0  0  0  0  0
  -20.9804  -28.3321   24.1133 H   0  0  0  0  0  0
  -20.6136  -26.2049   23.3187 H   0  0  0  0  0  0
  -21.6533  -26.7702   22.0520 H   0  0  0  0  0  0
  -19.6768  -25.6242   21.1311 H   0  0  0  0  0  0
  -19.6433  -27.2785   20.6595 H   0  0  0  0  0  0
  -17.3950  -26.6201   21.4534 H   0  0  0  0  0  0
  -18.0437  -26.0320   22.9662 H   0  0  0  0  0  0
  -19.7989  -30.7082   24.2307 H   0  0  0  0  0  0
  -17.5141  -31.6600   24.4476 H   0  0  0  0  0  0
  -15.5398  -30.3153   23.7619 H   0  0  0  0  0  0
  -15.8486  -28.0844   22.7386 H   0  0  0  0  0  0
  -24.5801  -30.7076   25.7743 H   0  0  0  0  0  0
  -24.8860  -32.2854   26.4929 H   0  0  0  0  0  0
  -25.7934  -30.8788   27.0193 H   0  0  0  0  0  0
  -26.2844  -29.6877   24.1003 H   0  0  0  0  0  0
  -27.4003  -29.7264   25.4421 H   0  0  0  0  0  0
  -27.8663  -30.4460   23.9203 H   0  0  0  0  0  0
  -27.2597  -33.3600   26.2123 H   0  0  0  0  0  0
  -28.3806  -32.6884   25.0313 H   0  0  0  0  0  0
  -28.0647  -31.8385   26.5362 H   0  0  0  0  0  0
  -28.2646  -38.0098   24.7666 H   0  0  0  0  0  0
  -28.1061  -36.2647   24.6141 H   0  0  0  0  0  0
  -27.2313  -37.1323   25.8863 H   0  0  0  0  0  0
  -20.9309  -29.8173   21.6312 H   0  0  0  0  0  0
  -26.0161  -38.2933   24.1486 H   0  0  0  0  0  0
  -26.7345  -20.6368   20.4834 H   0  0  0  0  0  0
  -26.5636  -18.6098   19.0506 H   0  0  0  0  0  0
  -30.0703  -18.8120   22.5288 H   0  0  0  0  0  0
  -28.3014  -15.8784   16.9097 H   0  0  0  0  0  0
  -27.5657  -17.5720   17.1179 H   0  0  0  0  0  0
  -28.9219  -20.7829   23.4597 H   0  0  0  0  0  0
  -28.8781  -15.6810   19.0994 H   0  0  0  0  0  0
  -28.8079  -23.0074   22.9828 H   0  0  0  0  0  0
  -26.9536  -24.7672   21.0422 H   0  0  0  0  0  0
  -28.5136  -25.0035   21.7696 H   0  0  0  0  0  0
  -28.0563  -25.1991   18.7337 H   0  0  0  0  0  0
  -29.5817  -25.1665   19.5629 H   0  0  0  0  0  0
  -29.4210  -15.1665   21.8813 H   0  0  0  0  0  0
  1 25  1  0  0  0
  1 30  2  0  0  0
  1 85  1  0  0  0
  2  3  1  0  0  0
  2 25  1  0  0  0
  2 88  1  0  0  0
  2 89  1  0  0  0
  3  4  1  0  0  0
  3 90  1  0  0  0
  3 91  1  0  0  0
  4  5  1  0  0  0
  4 92  1  0  0  0
  4 93  1  0  0  0
  5  6  1  0  0  0
  5 26  1  0  0  0
  5 94  1  0  0  0
  6 25  1  0  0  0
  6 95  1  0  0  0
  6 96  1  0  0  0
  7  8  2  0  0  0
  7 26  1  0  0  0
  7 29  1  0  0  0
  8  9  1  0  0  0
  8 22  1  0  0  0
  9 10  1  0  0  0
  9 27  2  0  0  0
 10 11  2  0  0  0
 10 15  1  0  0  0
 11 12  1  0  0  0
 11 97  1  0  0  0
 12 13  2  0  0  0
 12 98  1  0  0  0
 13 14  1  0  0  0
 13 31  1  0  0  0
 14 15  2  0  0  0
 14 99  1  0  0  0
 15100  1  0  0  0
 16 17  2  0  0  0
 16 21  1  0  0  0
 16 31  1  0  0  0
 17 18  1  0  0  0
 17101  1  0  0  0
 18 19  2  0  0  0
 18102  1  0  0  0
 19 20  1  0  0  0
 19 24  1  0  0  0
 20 21  2  0  0  0
 20103  1  0  0  0
 21 23  1  0  0  0
 22 28  1  0  0  0
 22 32  2  0  0  0
 26 27  1  0  0  0
 28104  1  0  0  0
 28105  1  0  0  0
 29106  1  0  0  0
 29107  1  0  0  0
 33 34  1  0  0  0
 33 66  1  0  0  0
 33 70  2  0  0  0
 34 36  1  0  0  0
 34 59  1  0  0  0
 34108  1  0  0  0
 35 44  2  0  0  0
 35 45  1  0  0  0
 35 68  1  0  0  0
 36 56  1  0  0  0
 36109  1  0  0  0
 37 39  1  0  0  0
 37 47  1  0  0  0
 37 66  1  0  0  0
 37110  1  0  0  0
 38 43  2  0  0  0
 38 46  1  0  0  0
 38 47  1  0  0  0
 39 64  1  0  0  0
 39 67  2  0  0  0
 40 52  1  0  0  0
 40 53  2  0  0  0
 40 58  1  0  0  0
 41111  1  0  0  0
 41112  1  0  0  0
 41113  1  0  0  0
 41 48  1  0  0  0
 42 43  1  0  0  0
 42 66  1  0  0  0
 42114  1  0  0  0
 42115  1  0  0  0
 43 44  1  0  0  0
 44116  1  0  0  0
 45 46  2  0  0  0
 45117  1  0  0  0
 46118  1  0  0  0
 47119  1  0  0  0
 47120  1  0  0  0
 48 56  1  0  0  0
 48 65  1  0  0  0
 48121  1  0  0  0
 49 50  1  0  0  0
 49 53  1  0  0  0
 49 64  1  0  0  0
 49122  1  0  0  0
 50 51  1  0  0  0
 50123  1  0  0  0
 50124  1  0  0  0
 51 52  1  0  0  0
 51125  1  0  0  0
 51126  1  0  0  0
 52127  1  0  0  0
 52128  1  0  0  0
 53 54  1  0  0  0
 54 55  2  0  0  0
 54129  1  0  0  0
 55 57  1  0  0  0
 55130  1  0  0  0
 56 69  2  0  0  0
 57 58  2  0  0  0
 57131  1  0  0  0
 58132  1  0  0  0
 59 60  1  0  0  0
 59 61  1  0  0  0
 59 62  1  0  0  0
 60133  1  0  0  0
 60134  1  0  0  0
 60135  1  0  0  0
 61136  1  0  0  0
 61137  1  0  0  0
 61138  1  0  0  0
 62139  1  0  0  0
 62140  1  0  0  0
 62141  1  0  0  0
 63 65  1  0  0  0
 63142  1  0  0  0
 63143  1  0  0  0
 63144  1  0  0  0
 64145  1  0  0  0
 65146  1  0  0  0
 68 84  1  0  0  0
 71 72  2  0  0  0
 71 74  1  0  0  0
 71147  1  0  0  0
 72 75  1  0  0  0
 72148  1  0  0  0
 73 74  2  0  0  0
 73 76  1  0  0  0
 73149  1  0  0  0
 74 78  1  0  0  0
 75 76  2  0  0  0
 75 79  1  0  0  0
 76 81  1  0  0  0
 77 79  2  0  0  0
 77150  1  0  0  0
 77151  1  0  0  0
 78 80  2  0  0  0
 78152  1  0  0  0
 79153  1  0  0  0
 80 82  1  0  0  0
 80154  1  0  0  0
 81 85  1  0  0  0
 81 86  2  0  0  0
 82 83  1  0  0  0
 82 87  2  0  0  0
 83 84  1  0  0  0
 83155  1  0  0  0
 83156  1  0  0  0
 84157  1  0  0  0
 84158  1  0  0  0
 85159  1  0  0  0
M  ISO  4   1 100  68 101  84 101  85 100
M  END
> <chiral flag>
0

> <version>
0

> <s_m_source_file>
/data/baiqing/PycharmProjects/Reinvent-master-3.2/result/LINK_invent/BTK/process_docking_weight1_custom_product_contain_oxygen_bond_distance_aromatic_linkinvent_7_9_3/rearranged_h_0123.sdf

> <i_m_source_file_index>
9

> <r_mmod_Potential_Energy-OPLS-2005>
-18.5668754577637

> <r_mmod_Stretch_Energy-OPLS-2005>
38.9981727600098

> <r_mmod_Bend_Energy-OPLS-2005>
132.692352294922

> <r_mmod_Torsional_Energy-OPLS-2005>
284.840423583984

> <r_mmod_Improper_Torsional_Energy-OPLS-2005>
8.61952781677246

> <r_mmod_Van_der_Waal_Energy-OPLS-2005>
179.825469970703

> <r_mmod_Electrostatic_Energy-OPLS-2005>
-448.558441162109

> <r_mmod_Solvation_Energy-OPLS-2005>
-230.986557006836

> <b_mmod_Minimization_Converged-OPLS-2005>
0

> <r_mmod_RMS_Derivative-OPLS-2005>
23.1100101470947

$$$$
9
                    3D
 Structure written by MMmdl.
162170  0  0  1  0            999 V2000
  -30.6297  -14.5286   20.5403 C   0  0  0  0  0  0
  -30.4454  -12.3365   19.3996 C   0  0  0  0  0  0
  -29.4968  -12.5037   18.1916 C   0  0  0  0  0  0
  -28.0165  -12.3617   18.6087 C   0  0  0  0  0  0
  -27.6630  -13.1935   19.8701 C   0  0  2  0  0  0
  -28.7143  -12.9552   20.9788 C   0  0  0  0  0  0
  -25.2632  -13.8113   20.5677 C   0  0  0  0  0  0
  -24.1868  -13.0405   20.9178 C   0  0  0  0  0  0
  -24.6404  -11.6875   20.8734 C   0  0  0  0  0  0
  -23.9056  -10.4274   21.0411 C   0  0  0  0  0  0
  -24.3604   -9.4185   21.9184 C   0  0  0  0  0  0
  -23.6276   -8.2228   22.0754 C   0  0  0  0  0  0
  -22.4261   -8.0278   21.3542 C   0  0  0  0  0  0
  -21.9897   -9.0249   20.4642 C   0  0  0  0  0  0
  -22.7232  -10.2127   20.3054 C   0  0  0  0  0  0
  -21.6860   -6.0737   22.5278 C   0  0  0  0  0  0
  -21.4010   -6.5633   23.8210 C   0  0  0  0  0  0
  -21.3650   -5.6791   24.9175 C   0  0  0  0  0  0
  -21.6043   -4.3053   24.7223 C   0  0  0  0  0  0
  -21.8822   -3.8144   23.4345 C   0  0  0  0  0  0
  -21.9190   -4.6965   22.3406 C   0  0  0  0  0  0
  -22.7889  -13.5221   21.1831 C   0  0  0  0  0  0
  -22.1665   -4.2152   21.0978 F   0  0  0  0  0  0
  -21.5629   -3.4530   25.7734 F   0  0  0  0  0  0
  -30.0338  -13.3082   20.4224 N   0  0  0  0  0  0
  -26.3040  -12.9250   20.3336 N   0  0  0  0  0  0
  -25.9321  -11.6429   20.5748 N   0  0  0  0  0  0
  -22.0531  -12.8221   22.0399 N   0  0  0  0  0  0
  -25.4359  -15.1836   20.4133 N   0  0  0  0  0  0
  -31.7772  -14.7617   20.1460 O   0  0  0  0  0  0
  -21.6630   -6.8876   21.4237 O   0  0  0  0  0  0
  -22.3583  -14.5541   20.6703 O   0  0  0  0  0  0
  -24.6179  -31.8662   23.2045 C   0  0  0  0  0  0
  -25.9051  -32.4814   23.8365 C   0  0  1  0  0  0
  -27.2431  -27.3983   20.1168 C   0  0  0  0  0  0
  -25.5908  -33.8607   24.2296 N   0  0  0  0  0  0
  -23.4103  -30.4885   21.5435 C   0  0  2  0  0  0
  -24.8612  -28.9470   20.1155 C   0  0  0  0  0  0
  -22.7465  -29.4630   22.4905 C   0  0  0  0  0  0
  -18.0327  -28.1382   22.8471 C   0  0  0  0  0  0
  -24.1509  -36.7288   23.2649 C   0  0  0  0  0  0
  -25.9413  -30.8275   21.3578 C   0  0  0  0  0  0
  -26.0233  -29.4548   20.7104 C   0  0  0  0  0  0
  -27.2184  -28.6919   20.6995 C   0  0  0  0  0  0
  -26.0608  -26.9085   19.5226 C   0  0  0  0  0  0
  -24.8781  -27.6742   19.5177 C   0  0  0  0  0  0
  -23.6277  -29.8256   20.1574 C   0  0  0  0  0  0
  -25.4114  -36.3083   24.0362 C   0  0  1  0  0  0
  -20.5922  -28.3668   23.1286 C   0  0  2  0  0  0
  -20.6838  -26.9396   22.5409 C   0  0  0  0  0  0
  -19.5818  -26.6386   21.5221 C   0  0  0  0  0  0
  -18.1984  -26.7928   22.1612 C   0  0  0  0  0  0
  -19.1573  -28.8837   23.2887 C   0  0  0  0  0  0
  -18.9516  -30.1451   23.8881 C   0  0  0  0  0  0
  -17.6514  -30.6575   24.0563 C   0  0  0  0  0  0
  -25.9045  -34.9459   23.5110 C   0  0  0  0  0  0
  -16.5396  -29.9077   23.6324 C   0  0  0  0  0  0
  -16.7317  -28.6511   23.0296 C   0  0  0  0  0  0
  -26.4464  -31.6595   25.0684 C   0  0  0  0  0  0
  -25.3722  -31.3737   26.1428 C   0  0  0  0  0  0
  -27.0285  -30.3067   24.5996 C   0  0  0  0  0  0
  -27.6044  -32.4297   25.7455 C   0  0  0  0  0  0
  -27.5587  -37.1780   24.8481 C   0  0  0  0  0  0
  -21.4181  -29.3029   22.3667 N   0  0  0  0  0  0
  -26.4287  -37.3771   23.9434 N   0  0  0  0  0  0
  -24.6746  -31.0756   22.0939 N   0  0  0  0  0  0
  -23.4247  -28.8159   23.2923 O   0  0  0  0  0  0
  -28.4035  -26.6404   20.0820 O   0  0  0  0  0  0
  -26.5618  -34.8927   22.4675 O   0  0  0  0  0  0
  -23.5358  -32.1405   23.7430 O   0  0  0  0  0  0
  -29.7512  -17.0671   22.7314 C   0  0  0  0  0  0
  -30.1172  -17.9627   20.5109 C   0  0  0  0  0  0
  -29.6951  -18.3701   23.2680 C   0  0  0  0  0  0
  -30.0498  -19.3087   20.9972 C   0  0  0  0  0  0
  -29.7990  -19.4959   22.3927 C   0  0  0  0  0  0
  -29.9558  -16.8400   21.3642 C   0  0  0  0  0  0
  -29.5841  -17.5449   25.6654 C   0  0  0  0  0  0
  -28.5727  -21.3544   23.4844 C   0  0  0  0  0  0
  -29.5591  -18.5245   24.7416 C   0  0  0  0  0  0
  -30.2521  -20.3969   19.9627 C   0  0  0  0  0  0
  -29.7016  -20.8457   22.9590 C   0  0  0  0  0  0
  -29.9964  -21.7331   19.7904 C   0  0  0  0  0  0
  -29.2814  -22.8256   20.6126 C   0  0  0  0  0  0
  -29.0644  -24.1839   19.8487 C   0  0  0  0  0  0
  -28.3522  -25.3133   20.6694 C   0  0  0  0  0  0
  -29.7619  -15.4976   20.9076 N   0  0  0  0  0  0
  -31.4834  -12.4791   19.0920 H   0  0  0  0  0  0
  -30.3866  -11.3228   19.7963 H   0  0  0  0  0  0
  -29.7366  -11.7685   17.4220 H   0  0  0  0  0  0
  -29.6530  -13.4817   17.7335 H   0  0  0  0  0  0
  -27.8249  -11.3043   18.7972 H   0  0  0  0  0  0
  -27.3638  -12.6432   17.7819 H   0  0  0  0  0  0
  -27.7043  -14.2407   19.5741 H   0  0  0  0  0  0
  -28.7118  -11.9049   21.2800 H   0  0  0  0  0  0
  -28.4786  -13.5168   21.8840 H   0  0  0  0  0  0
  -25.2771   -9.5670   22.4738 H   0  0  0  0  0  0
  -23.9998   -7.4629   22.7477 H   0  0  0  0  0  0
  -21.0830   -8.8773   19.8947 H   0  0  0  0  0  0
  -22.3705  -10.9663   19.6158 H   0  0  0  0  0  0
  -21.2001   -7.6144   23.9722 H   0  0  0  0  0  0
  -21.1468   -6.0512   25.9075 H   0  0  0  0  0  0
  -22.0609   -2.7611   23.2846 H   0  0  0  0  0  0
  -22.4156  -11.9866   22.4751 H   0  0  0  0  0  0
  -21.1163  -13.1254   22.2617 H   0  0  0  0  0  0
  -24.6715  -15.8369   20.5451 H   0  0  0  0  0  0
  -26.2826  -15.6301   20.0827 H   0  0  0  0  0  0
  -26.7111  -32.5526   23.1122 H   0  0  0  0  0  0
  -25.0046  -33.9768   25.0437 H   0  0  0  0  0  0
  -22.6990  -31.3039   21.3999 H   0  0  0  0  0  0
  -23.3776  -35.9614   23.3314 H   0  0  0  0  0  0
  -24.3641  -36.8894   22.2069 H   0  0  0  0  0  0
  -23.7268  -37.6491   23.6663 H   0  0  0  0  0  0
  -26.0512  -31.5914   20.5854 H   0  0  0  0  0  0
  -26.8280  -30.8894   21.9757 H   0  0  0  0  0  0
  -28.1192  -29.0868   21.1499 H   0  0  0  0  0  0
  -26.0599  -25.9307   19.0605 H   0  0  0  0  0  0
  -23.9856  -27.2759   19.0541 H   0  0  0  0  0  0
  -23.7521  -30.6113   19.4096 H   0  0  0  0  0  0
  -22.7463  -29.2648   19.8396 H   0  0  0  0  0  0
  -25.1285  -36.1924   25.0861 H   0  0  0  0  0  0
  -21.0048  -28.3257   24.1393 H   0  0  0  0  0  0
  -20.5820  -26.2248   23.3596 H   0  0  0  0  0  0
  -21.6693  -26.7462   22.1146 H   0  0  0  0  0  0
  -19.6999  -25.6308   21.1227 H   0  0  0  0  0  0
  -19.6783  -27.3197   20.6759 H   0  0  0  0  0  0
  -17.4263  -26.6689   21.3998 H   0  0  0  0  0  0
  -18.0360  -26.0066   22.9001 H   0  0  0  0  0  0
  -19.8000  -30.7277   24.2223 H   0  0  0  0  0  0
  -17.5074  -31.6250   24.5161 H   0  0  0  0  0  0
  -15.5390  -30.2969   23.7673 H   0  0  0  0  0  0
  -15.8727  -28.0864   22.6930 H   0  0  0  0  0  0
  -24.5914  -30.7058   25.7785 H   0  0  0  0  0  0
  -24.8860  -32.2902   26.4799 H   0  0  0  0  0  0
  -25.8055  -30.8983   27.0242 H   0  0  0  0  0  0
  -26.2805  -29.6843   24.1078 H   0  0  0  0  0  0
  -27.4164  -29.7268   25.4375 H   0  0  0  0  0  0
  -27.8597  -30.4442   23.9069 H   0  0  0  0  0  0
  -27.2708  -33.3646   26.1988 H   0  0  0  0  0  0
  -28.3894  -32.6800   25.0296 H   0  0  0  0  0  0
  -28.0668  -31.8442   26.5405 H   0  0  0  0  0  0
  -28.2562  -38.0112   24.7518 H   0  0  0  0  0  0
  -28.1120  -36.2633   24.6294 H   0  0  0  0  0  0
  -27.2326  -37.1406   25.8892 H   0  0  0  0  0  0
  -20.9351  -29.8763   21.6895 H   0  0  0  0  0  0
  -26.0188  -38.2848   24.1457 H   0  0  0  0  0  0
  -29.6045  -16.2068   23.3638 H   0  0  0  0  0  0
  -30.2560  -17.7871   19.4527 H   0  0  0  0  0  0
  -29.4764  -17.7860   26.7138 H   0  0  0  0  0  0
  -29.7158  -16.5004   25.4251 H   0  0  0  0  0  0
  -28.5433  -22.3518   23.8993 H   0  0  0  0  0  0
  -27.6570  -20.7796   23.5039 H   0  0  0  0  0  0
  -29.4299  -19.5259   25.1253 H   0  0  0  0  0  0
  -30.7843  -20.0018   19.1079 H   0  0  0  0  0  0
  -30.6091  -21.4335   22.9620 H   0  0  0  0  0  0
  -30.3789  -22.1293   18.8577 H   0  0  0  0  0  0
  -29.8834  -23.0463   21.4938 H   0  0  0  0  0  0
  -28.3221  -22.4387   20.9543 H   0  0  0  0  0  0
  -28.5026  -24.0052   18.9308 H   0  0  0  0  0  0
  -30.0391  -24.5547   19.5272 H   0  0  0  0  0  0
  -28.8553  -25.3972   21.6337 H   0  0  0  0  0  0
  -27.3282  -25.0099   20.8968 H   0  0  0  0  0  0
  -28.8612  -15.1075   21.1410 H   0  0  0  0  0  0
  1 25  1  0  0  0
  1 30  2  0  0  0
  1 86  1  0  0  0
  2  3  1  0  0  0
  2 25  1  0  0  0
  2 87  1  0  0  0
  2 88  1  0  0  0
  3  4  1  0  0  0
  3 89  1  0  0  0
  3 90  1  0  0  0
  4  5  1  0  0  0
  4 91  1  0  0  0
  4 92  1  0  0  0
  5  6  1  0  0  0
  5 26  1  0  0  0
  5 93  1  0  0  0
  6 25  1  0  0  0
  6 94  1  0  0  0
  6 95  1  0  0  0
  7  8  2  0  0  0
  7 26  1  0  0  0
  7 29  1  0  0  0
  8  9  1  0  0  0
  8 22  1  0  0  0
  9 10  1  0  0  0
  9 27  2  0  0  0
 10 11  2  0  0  0
 10 15  1  0  0  0
 11 12  1  0  0  0
 11 96  1  0  0  0
 12 13  2  0  0  0
 12 97  1  0  0  0
 13 14  1  0  0  0
 13 31  1  0  0  0
 14 15  2  0  0  0
 14 98  1  0  0  0
 15 99  1  0  0  0
 16 17  2  0  0  0
 16 21  1  0  0  0
 16 31  1  0  0  0
 17 18  1  0  0  0
 17100  1  0  0  0
 18 19  2  0  0  0
 18101  1  0  0  0
 19 20  1  0  0  0
 19 24  1  0  0  0
 20 21  2  0  0  0
 20102  1  0  0  0
 21 23  1  0  0  0
 22 28  1  0  0  0
 22 32  2  0  0  0
 26 27  1  0  0  0
 28103  1  0  0  0
 28104  1  0  0  0
 29105  1  0  0  0
 29106  1  0  0  0
 33 34  1  0  0  0
 33 66  1  0  0  0
 33 70  2  0  0  0
 34 36  1  0  0  0
 34 59  1  0  0  0
 34107  1  0  0  0
 35 44  2  0  0  0
 35 45  1  0  0  0
 35 68  1  0  0  0
 36 56  1  0  0  0
 36108  1  0  0  0
 37 39  1  0  0  0
 37 47  1  0  0  0
 37 66  1  0  0  0
 37109  1  0  0  0
 38 43  2  0  0  0
 38 46  1  0  0  0
 38 47  1  0  0  0
 39 64  1  0  0  0
 39 67  2  0  0  0
 40 52  1  0  0  0
 40 53  2  0  0  0
 40 58  1  0  0  0
 41110  1  0  0  0
 41111  1  0  0  0
 41112  1  0  0  0
 41 48  1  0  0  0
 42 43  1  0  0  0
 42 66  1  0  0  0
 42113  1  0  0  0
 42114  1  0  0  0
 43 44  1  0  0  0
 44115  1  0  0  0
 45 46  2  0  0  0
 45116  1  0  0  0
 46117  1  0  0  0
 47118  1  0  0  0
 47119  1  0  0  0
 48 56  1  0  0  0
 48 65  1  0  0  0
 48120  1  0  0  0
 49 50  1  0  0  0
 49 53  1  0  0  0
 49 64  1  0  0  0
 49121  1  0  0  0
 50 51  1  0  0  0
 50122  1  0  0  0
 50123  1  0  0  0
 51 52  1  0  0  0
 51124  1  0  0  0
 51125  1  0  0  0
 52126  1  0  0  0
 52127  1  0  0  0
 53 54  1  0  0  0
 54 55  2  0  0  0
 54128  1  0  0  0
 55 57  1  0  0  0
 55129  1  0  0  0
 56 69  2  0  0  0
 57 58  2  0  0  0
 57130  1  0  0  0
 58131  1  0  0  0
 59 60  1  0  0  0
 59 61  1  0  0  0
 59 62  1  0  0  0
 60132  1  0  0  0
 60133  1  0  0  0
 60134  1  0  0  0
 61135  1  0  0  0
 61136  1  0  0  0
 61137  1  0  0  0
 62138  1  0  0  0
 62139  1  0  0  0
 62140  1  0  0  0
 63 65  1  0  0  0
 63141  1  0  0  0
 63142  1  0  0  0
 63143  1  0  0  0
 64144  1  0  0  0
 65145  1  0  0  0
 68 85  1  0  0  0
 71 73  2  0  0  0
 71 76  1  0  0  0
 71146  1  0  0  0
 72 74  1  0  0  0
 72 76  2  0  0  0
 72147  1  0  0  0
 73 75  1  0  0  0
 73 79  1  0  0  0
 74 75  2  0  0  0
 74 80  1  0  0  0
 75 81  1  0  0  0
 76 86  1  0  0  0
 77 79  2  0  0  0
 77148  1  0  0  0
 77149  1  0  0  0
 78 81  2  0  0  0
 78150  1  0  0  0
 78151  1  0  0  0
 79152  1  0  0  0
 80 82  2  0  0  0
 80153  1  0  0  0
 81154  1  0  0  0
 82 83  1  0  0  0
 82155  1  0  0  0
 83 84  1  0  0  0
 83156  1  0  0  0
 83157  1  0  0  0
 84 85  1  0  0  0
 84158  1  0  0  0
 84159  1  0  0  0
 85160  1  0  0  0
 85161  1  0  0  0
 86162  1  0  0  0
M  ISO  4   1 100  68 101  85 101  86 100
M  END
> <chiral flag>
0

> <version>
0

> <s_m_source_file>
/data/baiqing/PycharmProjects/Reinvent-master-3.2/result/LINK_invent/BTK/process_docking_weight1_custom_product_contain_oxygen_bond_distance_aromatic_linkinvent_7_9_3/rearranged_h_0123.sdf

> <i_m_source_file_index>
10

> <r_mmod_Potential_Energy-OPLS-2005>
145.114822387695

> <r_mmod_Stretch_Energy-OPLS-2005>
54.8943138122559

> <r_mmod_Bend_Energy-OPLS-2005>
153.234420776367

> <r_mmod_Torsional_Energy-OPLS-2005>
294.554107666016

> <r_mmod_Improper_Torsional_Energy-OPLS-2005>
7.76238536834717

> <r_mmod_Van_der_Waal_Energy-OPLS-2005>
158.78271484375

> <r_mmod_Electrostatic_Energy-OPLS-2005>
-343.844085693359

> <r_mmod_Solvation_Energy-OPLS-2005>
-200.81982421875

> <b_mmod_Minimization_Converged-OPLS-2005>
0

> <r_mmod_RMS_Derivative-OPLS-2005>
3.1410071849823

$$$$
10
                    3D
 Structure written by MMmdl.
163172  0  0  1  0            999 V2000
  -30.5055  -15.0682   20.4200 C   0  0  0  0  0  0
  -30.4484  -12.6792   19.4933 C   0  0  0  0  0  0
  -29.5329  -12.5481   18.2546 C   0  0  0  0  0  0
  -28.0710  -12.3043   18.6800 C   0  0  0  0  0  0
  -27.6253  -13.2523   19.8249 C   0  0  2  0  0  0
  -28.6695  -13.3423   20.9563 C   0  0  0  0  0  0
  -25.2479  -13.8202   20.5714 C   0  0  0  0  0  0
  -24.1793  -13.0425   20.9209 C   0  0  0  0  0  0
  -24.6412  -11.6905   20.8732 C   0  0  0  0  0  0
  -23.9071  -10.4284   21.0384 C   0  0  0  0  0  0
  -24.3609   -9.4209   21.9172 C   0  0  0  0  0  0
  -23.6288   -8.2243   22.0757 C   0  0  0  0  0  0
  -22.4277   -8.0276   21.3541 C   0  0  0  0  0  0
  -21.9899   -9.0245   20.4651 C   0  0  0  0  0  0
  -22.7230  -10.2123   20.3050 C   0  0  0  0  0  0
  -21.6857   -6.0726   22.5269 C   0  0  0  0  0  0
  -21.4035   -6.5626   23.8209 C   0  0  0  0  0  0
  -21.3662   -5.6777   24.9157 C   0  0  0  0  0  0
  -21.6043   -4.3041   24.7208 C   0  0  0  0  0  0
  -21.8834   -3.8137   23.4330 C   0  0  0  0  0  0
  -21.9205   -4.6948   22.3391 C   0  0  0  0  0  0
  -22.7821  -13.5220   21.1850 C   0  0  0  0  0  0
  -22.1671   -4.2130   21.0965 F   0  0  0  0  0  0
  -21.5606   -3.4535   25.7726 F   0  0  0  0  0  0
  -29.9222  -13.7956   20.3364 N   0  0  0  0  0  0
  -26.2893  -12.9433   20.3201 N   0  0  0  0  0  0
  -25.9348  -11.6554   20.5692 N   0  0  0  0  0  0
  -22.0462  -12.8221   22.0396 N   0  0  0  0  0  0
  -25.4163  -15.1931   20.4169 N   0  0  0  0  0  0
  -31.7280  -15.1054   20.2368 O   0  0  0  0  0  0
  -21.6656   -6.8867   21.4239 O   0  0  0  0  0  0
  -22.3520  -14.5526   20.6679 O   0  0  0  0  0  0
  -24.6512  -31.8382   23.1824 C   0  0  0  0  0  0
  -25.9268  -32.4661   23.8214 C   0  0  1  0  0  0
  -27.2158  -27.0608   20.1677 C   0  0  0  0  0  0
  -25.6006  -33.8467   24.2138 N   0  0  0  0  0  0
  -23.4568  -30.4557   21.5292 C   0  0  2  0  0  0
  -24.9064  -28.8649   20.1140 C   0  0  0  0  0  0
  -22.7593  -29.4534   22.4834 C   0  0  0  0  0  0
  -18.0308  -28.1399   22.8454 C   0  0  0  0  0  0
  -24.1503  -36.7222   23.2640 C   0  0  0  0  0  0
  -26.0178  -30.6876   21.3916 C   0  0  0  0  0  0
  -26.0876  -29.2911   20.7344 C   0  0  0  0  0  0
  -27.2422  -28.4076   20.7385 C   0  0  0  0  0  0
  -26.0077  -26.7545   19.5043 C   0  0  0  0  0  0
  -24.8841  -27.6126   19.4807 C   0  0  0  0  0  0
  -23.6878  -29.7793   20.1511 C   0  0  0  0  0  0
  -25.4142  -36.3004   24.0305 C   0  0  1  0  0  0
  -20.5919  -28.3749   23.1204 C   0  0  2  0  0  0
  -20.6802  -26.9450   22.5394 C   0  0  0  0  0  0
  -19.5791  -26.6386   21.5193 C   0  0  0  0  0  0
  -18.1967  -26.7934   22.1599 C   0  0  0  0  0  0
  -19.1559  -28.8890   23.2825 C   0  0  0  0  0  0
  -18.9487  -30.1477   23.8860 C   0  0  0  0  0  0
  -17.6486  -30.6600   24.0544 C   0  0  0  0  0  0
  -25.9093  -34.9388   23.5028 C   0  0  0  0  0  0
  -16.5377  -29.9088   23.6343 C   0  0  0  0  0  0
  -16.7291  -28.6512   23.0356 C   0  0  0  0  0  0
  -26.4562  -31.6551   25.0685 C   0  0  0  0  0  0
  -25.3732  -31.3736   26.1370 C   0  0  0  0  0  0
  -27.0433  -30.2944   24.6306 C   0  0  0  0  0  0
  -27.6089  -32.4314   25.7478 C   0  0  0  0  0  0
  -27.5574  -37.1779   24.8469 C   0  0  0  0  0  0
  -21.4274  -29.3063   22.3568 N   0  0  0  0  0  0
  -26.4287  -37.3740   23.9409 N   0  0  0  0  0  0
  -24.7287  -31.0170   22.0891 N   0  0  0  0  0  0
  -23.4200  -28.8099   23.3026 O   0  0  0  0  0  0
  -28.2589  -26.0404   20.2132 O   0  0  0  0  0  0
  -26.5673  -34.8906   22.4596 O   0  0  0  0  0  0
  -23.5624  -32.1296   23.7012 O   0  0  0  0  0  0
  -30.5027  -19.4567   22.5111 C   0  0  0  0  0  0
  -29.9586  -20.5718   21.8325 C   0  0  0  0  0  0
  -29.2732  -19.0208   20.1118 C   0  0  0  0  0  0
  -30.4629  -18.1224   22.0245 C   0  0  0  0  0  0
  -29.3230  -20.4639   20.5806 C   0  0  0  0  0  0
  -29.8473  -17.7934   20.7844 C   0  0  0  0  0  0
  -30.4273  -23.5876   20.1972 C   0  0  0  0  0  0
  -29.1195  -23.2298   20.2695 C   0  0  0  0  0  0
  -31.4559  -22.6419   19.5794 C   0  0  0  0  0  0
  -30.8433  -21.7566   18.4539 C   0  0  0  0  0  0
  -29.3010  -21.6093   18.5420 C   0  0  0  0  0  0
  -31.0595  -17.0500   22.9218 C   0  0  0  0  0  0
  -30.9703  -24.9601   20.5380 C   0  0  0  0  0  0
  -27.9828  -24.4744   20.3504 C   0  0  0  0  0  0
  -28.8739  -21.7686   19.9307 N   0  0  0  0  0  0
  -29.7013  -16.2740   20.4076 N   0  0  0  0  0  0
  -31.4746  -12.8661   19.1735 H   0  0  0  0  0  0
  -30.4704  -11.7483   20.0611 H   0  0  0  0  0  0
  -29.8823  -11.7395   17.6114 H   0  0  0  0  0  0
  -29.5910  -13.4602   17.6571 H   0  0  0  0  0  0
  -27.9975  -11.2680   19.0122 H   0  0  0  0  0  0
  -27.4059  -12.3931   17.8204 H   0  0  0  0  0  0
  -27.5661  -14.2410   19.3688 H   0  0  0  0  0  0
  -28.7967  -12.3864   21.4645 H   0  0  0  0  0  0
  -28.3454  -14.0582   21.7126 H   0  0  0  0  0  0
  -25.2747   -9.5693   22.4744 H   0  0  0  0  0  0
  -24.0000   -7.4652   22.7482 H   0  0  0  0  0  0
  -21.0828   -8.8753   19.8974 H   0  0  0  0  0  0
  -22.3678  -10.9642   19.6155 H   0  0  0  0  0  0
  -21.2062   -7.6141   23.9697 H   0  0  0  0  0  0
  -21.1462   -6.0508   25.9053 H   0  0  0  0  0  0
  -22.0623   -2.7599   23.2838 H   0  0  0  0  0  0
  -22.4072  -11.9898   22.4804 H   0  0  0  0  0  0
  -21.1084  -13.1270   22.2593 H   0  0  0  0  0  0
  -24.6467  -15.8444   20.5254 H   0  0  0  0  0  0
  -26.2613  -15.6313   20.0748 H   0  0  0  0  0  0
  -26.7331  -32.5244   23.0923 H   0  0  0  0  0  0
  -25.0163  -33.9560   25.0299 H   0  0  0  0  0  0
  -22.7657  -31.2861   21.3696 H   0  0  0  0  0  0
  -23.3783  -35.9534   23.3284 H   0  0  0  0  0  0
  -24.3582  -36.8878   22.2057 H   0  0  0  0  0  0
  -23.7248  -37.6407   23.6691 H   0  0  0  0  0  0
  -26.1828  -31.4399   20.6189 H   0  0  0  0  0  0
  -26.8839  -30.7366   22.0391 H   0  0  0  0  0  0
  -28.1410  -28.7310   21.2438 H   0  0  0  0  0  0
  -25.9029  -25.8047   19.0024 H   0  0  0  0  0  0
  -23.9854  -27.2807   18.9776 H   0  0  0  0  0  0
  -23.8339  -30.5521   19.3954 H   0  0  0  0  0  0
  -22.7978  -29.2306   19.8359 H   0  0  0  0  0  0
  -25.1344  -36.1792   25.0799 H   0  0  0  0  0  0
  -21.0010  -28.3351   24.1325 H   0  0  0  0  0  0
  -20.5684  -26.2373   23.3624 H   0  0  0  0  0  0
  -21.6673  -26.7464   22.1198 H   0  0  0  0  0  0
  -19.6958  -25.6283   21.1268 H   0  0  0  0  0  0
  -19.6712  -27.3152   20.6687 H   0  0  0  0  0  0
  -17.4234  -26.6651   21.4011 H   0  0  0  0  0  0
  -18.0383  -26.0087   22.9008 H   0  0  0  0  0  0
  -19.7967  -30.7286   24.2228 H   0  0  0  0  0  0
  -17.5052  -31.6279   24.5143 H   0  0  0  0  0  0
  -15.5377  -30.2978   23.7707 H   0  0  0  0  0  0
  -15.8692  -28.0824   22.7090 H   0  0  0  0  0  0
  -24.5928  -30.7072   25.7681 H   0  0  0  0  0  0
  -24.8896  -32.2902   26.4757 H   0  0  0  0  0  0
  -25.8012  -30.8934   27.0177 H   0  0  0  0  0  0
  -26.3050  -29.6654   24.1324 H   0  0  0  0  0  0
  -27.4041  -29.7274   25.4897 H   0  0  0  0  0  0
  -27.8966  -30.4176   23.9633 H   0  0  0  0  0  0
  -27.2702  -33.3647   26.1989 H   0  0  0  0  0  0
  -28.3943  -32.6821   25.0333 H   0  0  0  0  0  0
  -28.0709  -31.8471   26.5450 H   0  0  0  0  0  0
  -28.2600  -38.0075   24.7532 H   0  0  0  0  0  0
  -28.1063  -36.2607   24.6274 H   0  0  0  0  0  0
  -27.2284  -37.1403   25.8871 H   0  0  0  0  0  0
  -20.9509  -29.8744   21.6700 H   0  0  0  0  0  0
  -26.0134  -38.2800   24.1416 H   0  0  0  0  0  0
  -30.9699  -19.6510   23.4669 H   0  0  0  0  0  0
  -30.0670  -21.5446   22.2898 H   0  0  0  0  0  0
  -28.7605  -18.8350   19.1803 H   0  0  0  0  0  0
  -31.8665  -22.0195   20.3744 H   0  0  0  0  0  0
  -32.2979  -23.2045   19.1738 H   0  0  0  0  0  0
  -31.3143  -20.7741   18.4819 H   0  0  0  0  0  0
  -31.0918  -22.1712   17.4762 H   0  0  0  0  0  0
  -28.9626  -20.6786   18.0880 H   0  0  0  0  0  0
  -28.8340  -22.3968   17.9472 H   0  0  0  0  0  0
  -31.2375  -17.4214   23.9309 H   0  0  0  0  0  0
  -32.0117  -16.7066   22.5163 H   0  0  0  0  0  0
  -30.3903  -16.1970   23.0194 H   0  0  0  0  0  0
  -30.3656  -25.4539   21.2982 H   0  0  0  0  0  0
  -31.0087  -25.5890   19.6483 H   0  0  0  0  0  0
  -31.9764  -24.8720   20.9502 H   0  0  0  0  0  0
  -27.5121  -24.3659   21.3273 H   0  0  0  0  0  0
  -27.2108  -24.1998   19.6319 H   0  0  0  0  0  0
  -28.7442  -16.0331   20.2048 H   0  0  0  0  0  0
  1 25  1  0  0  0
  1 30  2  0  0  0
  1 86  1  0  0  0
  2  3  1  0  0  0
  2 25  1  0  0  0
  2 87  1  0  0  0
  2 88  1  0  0  0
  3  4  1  0  0  0
  3 89  1  0  0  0
  3 90  1  0  0  0
  4  5  1  0  0  0
  4 91  1  0  0  0
  4 92  1  0  0  0
  5  6  1  0  0  0
  5 26  1  0  0  0
  5 93  1  0  0  0
  6 25  1  0  0  0
  6 94  1  0  0  0
  6 95  1  0  0  0
  7  8  2  0  0  0
  7 26  1  0  0  0
  7 29  1  0  0  0
  8  9  1  0  0  0
  8 22  1  0  0  0
  9 10  1  0  0  0
  9 27  2  0  0  0
 10 11  2  0  0  0
 10 15  1  0  0  0
 11 12  1  0  0  0
 11 96  1  0  0  0
 12 13  2  0  0  0
 12 97  1  0  0  0
 13 14  1  0  0  0
 13 31  1  0  0  0
 14 15  2  0  0  0
 14 98  1  0  0  0
 15 99  1  0  0  0
 16 17  2  0  0  0
 16 21  1  0  0  0
 16 31  1  0  0  0
 17 18  1  0  0  0
 17100  1  0  0  0
 18 19  2  0  0  0
 18101  1  0  0  0
 19 20  1  0  0  0
 19 24  1  0  0  0
 20 21  2  0  0  0
 20102  1  0  0  0
 21 23  1  0  0  0
 22 28  1  0  0  0
 22 32  2  0  0  0
 26 27  1  0  0  0
 28103  1  0  0  0
 28104  1  0  0  0
 29105  1  0  0  0
 29106  1  0  0  0
 33 34  1  0  0  0
 33 66  1  0  0  0
 33 70  2  0  0  0
 34 36  1  0  0  0
 34 59  1  0  0  0
 34107  1  0  0  0
 35 44  2  0  0  0
 35 45  1  0  0  0
 35 68  1  0  0  0
 36 56  1  0  0  0
 36108  1  0  0  0
 37 39  1  0  0  0
 37 47  1  0  0  0
 37 66  1  0  0  0
 37109  1  0  0  0
 38 43  2  0  0  0
 38 46  1  0  0  0
 38 47  1  0  0  0
 39 64  1  0  0  0
 39 67  2  0  0  0
 40 52  1  0  0  0
 40 53  2  0  0  0
 40 58  1  0  0  0
 41110  1  0  0  0
 41111  1  0  0  0
 41112  1  0  0  0
 41 48  1  0  0  0
 42 43  1  0  0  0
 42 66  1  0  0  0
 42113  1  0  0  0
 42114  1  0  0  0
 43 44  1  0  0  0
 44115  1  0  0  0
 45 46  2  0  0  0
 45116  1  0  0  0
 46117  1  0  0  0
 47118  1  0  0  0
 47119  1  0  0  0
 48 56  1  0  0  0
 48 65  1  0  0  0
 48120  1  0  0  0
 49 50  1  0  0  0
 49 53  1  0  0  0
 49 64  1  0  0  0
 49121  1  0  0  0
 50 51  1  0  0  0
 50122  1  0  0  0
 50123  1  0  0  0
 51 52  1  0  0  0
 51124  1  0  0  0
 51125  1  0  0  0
 52126  1  0  0  0
 52127  1  0  0  0
 53 54  1  0  0  0
 54 55  2  0  0  0
 54128  1  0  0  0
 55 57  1  0  0  0
 55129  1  0  0  0
 56 69  2  0  0  0
 57 58  2  0  0  0
 57130  1  0  0  0
 58131  1  0  0  0
 59 60  1  0  0  0
 59 61  1  0  0  0
 59 62  1  0  0  0
 60132  1  0  0  0
 60133  1  0  0  0
 60134  1  0  0  0
 61135  1  0  0  0
 61136  1  0  0  0
 61137  1  0  0  0
 62138  1  0  0  0
 62139  1  0  0  0
 62140  1  0  0  0
 63 65  1  0  0  0
 63141  1  0  0  0
 63142  1  0  0  0
 63143  1  0  0  0
 64144  1  0  0  0
 65145  1  0  0  0
 68 84  1  0  0  0
 71 72  2  0  0  0
 71 74  1  0  0  0
 71146  1  0  0  0
 72 75  1  0  0  0
 72147  1  0  0  0
 73 75  2  0  0  0
 73 76  1  0  0  0
 73148  1  0  0  0
 74 76  2  0  0  0
 74 82  1  0  0  0
 75 85  1  0  0  0
 76 86  1  0  0  0
 77 78  2  0  0  0
 77 79  1  0  0  0
 77 83  1  0  0  0
 78 84  1  0  0  0
 78 85  1  0  0  0
 79 80  1  0  0  0
 79149  1  0  0  0
 79150  1  0  0  0
 80 81  1  0  0  0
 80151  1  0  0  0
 80152  1  0  0  0
 81 85  1  0  0  0
 81153  1  0  0  0
 81154  1  0  0  0
 82155  1  0  0  0
 82156  1  0  0  0
 82157  1  0  0  0
 83158  1  0  0  0
 83159  1  0  0  0
 83160  1  0  0  0
 84161  1  0  0  0
 84162  1  0  0  0
 86163  1  0  0  0
M  ISO  4   1 100  68 101  84 101  86 100
M  END
> <chiral flag>
0

> <version>
0

> <s_m_source_file>
/data/baiqing/PycharmProjects/Reinvent-master-3.2/result/LINK_invent/BTK/process_docking_weight1_custom_product_contain_oxygen_bond_distance_aromatic_linkinvent_7_9_3/rearranged_h_0123.sdf

> <i_m_source_file_index>
11

> <r_mmod_Potential_Energy-OPLS-2005>
844.726806640625

> <r_mmod_Stretch_Energy-OPLS-2005>
361.716217041016

> <r_mmod_Bend_Energy-OPLS-2005>
303.675262451172

> <r_mmod_Torsional_Energy-OPLS-2005>
311.306396484375

> <r_mmod_Improper_Torsional_Energy-OPLS-2005>
14.5472841262817

> <r_mmod_Van_der_Waal_Energy-OPLS-2005>
155.865478515625

> <r_mmod_Electrostatic_Energy-OPLS-2005>
-374.550994873047

> <r_mmod_Solvation_Energy-OPLS-2005>
-204.641708374023

> <b_mmod_Minimization_Converged-OPLS-2005>
0

> <r_mmod_RMS_Derivative-OPLS-2005>
2.68240451812744

$$$$
11
                    3D
 Structure written by MMmdl.
159167  0  0  1  0            999 V2000
  -30.7051  -14.5222   20.5181 C   0  0  0  0  0  0
  -30.4134  -12.3258   19.4482 C   0  0  0  0  0  0
  -29.4906  -12.4895   18.2226 C   0  0  0  0  0  0
  -28.0127  -12.3574   18.6353 C   0  0  0  0  0  0
  -27.6510  -13.2191   19.8754 C   0  0  2  0  0  0
  -28.6988  -13.0692   21.0023 C   0  0  0  0  0  0
  -25.2525  -13.8197   20.5776 C   0  0  0  0  0  0
  -24.1791  -13.0468   20.9218 C   0  0  0  0  0  0
  -24.6388  -11.6941   20.8778 C   0  0  0  0  0  0
  -23.9075  -10.4324   21.0433 C   0  0  0  0  0  0
  -24.3639   -9.4233   21.9198 C   0  0  0  0  0  0
  -23.6329   -8.2264   22.0772 C   0  0  0  0  0  0
  -22.4302   -8.0309   21.3558 C   0  0  0  0  0  0
  -21.9939   -9.0279   20.4648 C   0  0  0  0  0  0
  -22.7255  -10.2162   20.3070 C   0  0  0  0  0  0
  -21.6858   -6.0773   22.5301 C   0  0  0  0  0  0
  -21.3997   -6.5670   23.8235 C   0  0  0  0  0  0
  -21.3661   -5.6816   24.9202 C   0  0  0  0  0  0
  -21.6056   -4.3085   24.7231 C   0  0  0  0  0  0
  -21.8806   -3.8174   23.4340 C   0  0  0  0  0  0
  -21.9193   -4.7002   22.3413 C   0  0  0  0  0  0
  -22.7800  -13.5249   21.1872 C   0  0  0  0  0  0
  -22.1663   -4.2208   21.0989 F   0  0  0  0  0  0
  -21.5650   -3.4549   25.7723 F   0  0  0  0  0  0
  -30.0165  -13.3524   20.4244 N   0  0  0  0  0  0
  -26.2976  -12.9400   20.3448 N   0  0  0  0  0  0
  -25.9327  -11.6556   20.5856 N   0  0  0  0  0  0
  -22.0455  -12.8213   22.0406 N   0  0  0  0  0  0
  -25.4200  -15.1928   20.4226 N   0  0  0  0  0  0
  -31.8862  -14.6200   20.1908 O   0  0  0  0  0  0
  -21.6649   -6.8911   21.4258 O   0  0  0  0  0  0
  -22.3463  -14.5561   20.6731 O   0  0  0  0  0  0
  -24.6170  -31.8649   23.2036 C   0  0  0  0  0  0
  -25.9075  -32.4773   23.8335 C   0  0  1  0  0  0
  -27.2280  -27.4141   20.1017 C   0  0  0  0  0  0
  -25.5925  -33.8573   24.2268 N   0  0  0  0  0  0
  -23.4036  -30.4909   21.5416 C   0  0  2  0  0  0
  -24.8460  -28.9510   20.1116 C   0  0  0  0  0  0
  -22.7416  -29.4667   22.4923 C   0  0  0  0  0  0
  -18.0292  -28.1392   22.8453 C   0  0  0  0  0  0
  -24.1506  -36.7323   23.2630 C   0  0  0  0  0  0
  -25.9342  -30.8219   21.3636 C   0  0  0  0  0  0
  -26.0046  -29.4552   20.7128 C   0  0  0  0  0  0
  -27.1949  -28.6936   20.7043 C   0  0  0  0  0  0
  -26.0465  -26.9247   19.4976 C   0  0  0  0  0  0
  -24.8627  -27.6865   19.4996 C   0  0  0  0  0  0
  -23.6110  -29.8200   20.1570 C   0  0  0  0  0  0
  -25.4122  -36.3075   24.0314 C   0  0  1  0  0  0
  -20.5882  -28.3693   23.1258 C   0  0  2  0  0  0
  -20.6769  -26.9422   22.5373 C   0  0  0  0  0  0
  -19.5756  -26.6403   21.5160 C   0  0  0  0  0  0
  -18.1943  -26.7932   22.1590 C   0  0  0  0  0  0
  -19.1542  -28.8860   23.2857 C   0  0  0  0  0  0
  -18.9470  -30.1467   23.8873 C   0  0  0  0  0  0
  -17.6473  -30.6581   24.0581 C   0  0  0  0  0  0
  -25.9055  -34.9449   23.5094 C   0  0  0  0  0  0
  -16.5367  -29.9087   23.6332 C   0  0  0  0  0  0
  -16.7284  -28.6523   23.0306 C   0  0  0  0  0  0
  -26.4488  -31.6557   25.0684 C   0  0  0  0  0  0
  -25.3736  -31.3682   26.1419 C   0  0  0  0  0  0
  -27.0323  -30.2986   24.6104 C   0  0  0  0  0  0
  -27.6071  -32.4257   25.7460 C   0  0  0  0  0  0
  -27.5595  -37.1805   24.8448 C   0  0  0  0  0  0
  -21.4148  -29.3070   22.3668 N   0  0  0  0  0  0
  -26.4297  -37.3772   23.9405 N   0  0  0  0  0  0
  -24.6690  -31.0742   22.0940 N   0  0  0  0  0  0
  -23.4183  -28.8218   23.2979 O   0  0  0  0  0  0
  -28.4255  -26.7220   20.1070 O   0  0  0  0  0  0
  -26.5623  -34.8912   22.4661 O   0  0  0  0  0  0
  -23.5365  -32.1427   23.7423 O   0  0  0  0  0  0
  -28.6806  -20.0753   22.4239 C   0  0  0  0  0  0
  -29.7633  -18.7562   20.1748 C   0  0  0  0  0  0
  -29.7963  -20.1874   20.2658 C   0  0  0  0  0  0
  -29.2766  -17.9773   21.2808 C   0  0  0  0  0  0
  -29.2245  -20.8513   21.3853 C   0  0  0  0  0  0
  -28.7245  -18.6718   22.3827 C   0  0  0  0  0  0
  -28.3727  -22.9744   20.9799 C   0  0  0  0  0  0
  -30.2187  -18.0907   18.8764 C   0  0  0  0  0  0
  -30.4656  -21.0256   19.1705 C   0  0  0  0  0  0
  -29.2737  -16.4236   21.4129 C   0  0  0  0  0  0
  -28.2816  -24.4858   21.1776 C   0  0  0  0  0  0
  -28.4663  -25.3007   19.8770 C   0  0  0  0  0  0
  -29.2508  -22.2463   21.5550 N   0  0  0  0  0  0
  -29.9698  -15.6416   20.3870 N   0  0  0  0  0  0
  -28.2183  -17.9756   23.4294 F   0  0  0  0  0  0
  -31.4595  -12.4155   19.1464 H   0  0  0  0  0  0
  -30.3080  -11.3334   19.8897 H   0  0  0  0  0  0
  -29.7315  -11.7429   17.4636 H   0  0  0  0  0  0
  -29.6587  -13.4650   17.7640 H   0  0  0  0  0  0
  -27.8239  -11.3026   18.8451 H   0  0  0  0  0  0
  -27.3629  -12.6212   17.8014 H   0  0  0  0  0  0
  -27.6731  -14.2569   19.5442 H   0  0  0  0  0  0
  -28.6827  -12.0606   21.4177 H   0  0  0  0  0  0
  -28.4772  -13.7431   21.8303 H   0  0  0  0  0  0
  -25.2820   -9.5707   22.4748 H   0  0  0  0  0  0
  -24.0070   -7.4653   22.7478 H   0  0  0  0  0  0
  -21.0902   -8.8780   19.8937 H   0  0  0  0  0  0
  -22.3740  -10.9705   19.6159 H   0  0  0  0  0  0
  -21.1944   -7.6164   23.9745 H   0  0  0  0  0  0
  -21.1501   -6.0554   25.9115 H   0  0  0  0  0  0
  -22.0564   -2.7633   23.2829 H   0  0  0  0  0  0
  -22.4143  -11.9905   22.4792 H   0  0  0  0  0  0
  -21.1051  -13.1164   22.2662 H   0  0  0  0  0  0
  -24.6545  -15.8405   20.5690 H   0  0  0  0  0  0
  -26.2728  -15.6449   20.1215 H   0  0  0  0  0  0
  -26.7147  -32.5474   23.1089 H   0  0  0  0  0  0
  -25.0050  -33.9696   25.0397 H   0  0  0  0  0  0
  -22.6959  -31.3098   21.3955 H   0  0  0  0  0  0
  -23.3743  -35.9680   23.3256 H   0  0  0  0  0  0
  -24.3624  -36.8990   22.2057 H   0  0  0  0  0  0
  -23.7281  -37.6523   23.6684 H   0  0  0  0  0  0
  -26.0560  -31.5831   20.5919 H   0  0  0  0  0  0
  -26.8207  -30.8672   21.9859 H   0  0  0  0  0  0
  -28.0922  -29.0781   21.1714 H   0  0  0  0  0  0
  -26.0050  -25.9676   19.0051 H   0  0  0  0  0  0
  -23.9749  -27.2937   19.0224 H   0  0  0  0  0  0
  -23.7220  -30.5887   19.3906 H   0  0  0  0  0  0
  -22.7362  -29.2362   19.8620 H   0  0  0  0  0  0
  -25.1294  -36.1920   25.0803 H   0  0  0  0  0  0
  -20.9980  -28.3273   24.1374 H   0  0  0  0  0  0
  -20.5624  -26.2320   23.3576 H   0  0  0  0  0  0
  -21.6646  -26.7429   22.1203 H   0  0  0  0  0  0
  -19.6924  -25.6312   21.1193 H   0  0  0  0  0  0
  -19.6694  -27.3211   20.6689 H   0  0  0  0  0  0
  -17.4195  -26.6654   21.4014 H   0  0  0  0  0  0
  -18.0393  -26.0078   22.9003 H   0  0  0  0  0  0
  -19.7957  -30.7290   24.2206 H   0  0  0  0  0  0
  -17.5036  -31.6237   24.5224 H   0  0  0  0  0  0
  -15.5369  -30.2987   23.7658 H   0  0  0  0  0  0
  -15.8690  -28.0865   22.6969 H   0  0  0  0  0  0
  -24.5900  -30.7037   25.7744 H   0  0  0  0  0  0
  -24.8934  -32.2846   26.4869 H   0  0  0  0  0  0
  -25.8071  -30.8834   27.0179 H   0  0  0  0  0  0
  -26.2877  -29.6716   24.1174 H   0  0  0  0  0  0
  -27.4091  -29.7251   25.4589 H   0  0  0  0  0  0
  -27.8719  -30.4277   23.9261 H   0  0  0  0  0  0
  -27.2707  -33.3552   26.2076 H   0  0  0  0  0  0
  -28.3885  -32.6815   25.0282 H   0  0  0  0  0  0
  -28.0739  -31.8334   26.5347 H   0  0  0  0  0  0
  -28.2553  -38.0156   24.7537 H   0  0  0  0  0  0
  -28.1143  -36.2682   24.6205 H   0  0  0  0  0  0
  -27.2321  -37.1377   25.8849 H   0  0  0  0  0  0
  -20.9312  -29.8863   21.6948 H   0  0  0  0  0  0
  -26.0168  -38.2842   24.1416 H   0  0  0  0  0  0
  -28.2463  -20.5609   23.2875 H   0  0  0  0  0  0
  -27.6078  -22.5577   20.3183 H   0  0  0  0  0  0
  -31.1866  -17.6046   18.9986 H   0  0  0  0  0  0
  -30.3096  -18.7698   18.0308 H   0  0  0  0  0  0
  -29.4752  -17.3616   18.5545 H   0  0  0  0  0  0
  -31.3654  -20.5462   18.7859 H   0  0  0  0  0  0
  -30.7916  -21.9996   19.5346 H   0  0  0  0  0  0
  -29.7807  -21.1972   18.3409 H   0  0  0  0  0  0
  -28.2308  -16.1078   21.4461 H   0  0  0  0  0  0
  -29.6968  -16.1743   22.3899 H   0  0  0  0  0  0
  -29.0380  -24.7939   21.9031 H   0  0  0  0  0  0
  -27.3126  -24.7090   21.6262 H   0  0  0  0  0  0
  -27.7903  -24.9635   19.0944 H   0  0  0  0  0  0
  -29.4593  -25.0828   19.4851 H   0  0  0  0  0  0
  -30.4600  -16.2785   19.7794 H   0  0  0  0  0  0
  1 25  1  0  0  0
  1 30  2  0  0  0
  1 84  1  0  0  0
  2  3  1  0  0  0
  2 25  1  0  0  0
  2 86  1  0  0  0
  2 87  1  0  0  0
  3  4  1  0  0  0
  3 88  1  0  0  0
  3 89  1  0  0  0
  4  5  1  0  0  0
  4 90  1  0  0  0
  4 91  1  0  0  0
  5  6  1  0  0  0
  5 26  1  0  0  0
  5 92  1  0  0  0
  6 25  1  0  0  0
  6 93  1  0  0  0
  6 94  1  0  0  0
  7  8  2  0  0  0
  7 26  1  0  0  0
  7 29  1  0  0  0
  8  9  1  0  0  0
  8 22  1  0  0  0
  9 10  1  0  0  0
  9 27  2  0  0  0
 10 11  2  0  0  0
 10 15  1  0  0  0
 11 12  1  0  0  0
 11 95  1  0  0  0
 12 13  2  0  0  0
 12 96  1  0  0  0
 13 14  1  0  0  0
 13 31  1  0  0  0
 14 15  2  0  0  0
 14 97  1  0  0  0
 15 98  1  0  0  0
 16 17  2  0  0  0
 16 21  1  0  0  0
 16 31  1  0  0  0
 17 18  1  0  0  0
 17 99  1  0  0  0
 18 19  2  0  0  0
 18100  1  0  0  0
 19 20  1  0  0  0
 19 24  1  0  0  0
 20 21  2  0  0  0
 20101  1  0  0  0
 21 23  1  0  0  0
 22 28  1  0  0  0
 22 32  2  0  0  0
 26 27  1  0  0  0
 28102  1  0  0  0
 28103  1  0  0  0
 29104  1  0  0  0
 29105  1  0  0  0
 33 34  1  0  0  0
 33 66  1  0  0  0
 33 70  2  0  0  0
 34 36  1  0  0  0
 34 59  1  0  0  0
 34106  1  0  0  0
 35 44  2  0  0  0
 35 45  1  0  0  0
 35 68  1  0  0  0
 36 56  1  0  0  0
 36107  1  0  0  0
 37 39  1  0  0  0
 37 47  1  0  0  0
 37 66  1  0  0  0
 37108  1  0  0  0
 38 43  2  0  0  0
 38 46  1  0  0  0
 38 47  1  0  0  0
 39 64  1  0  0  0
 39 67  2  0  0  0
 40 52  1  0  0  0
 40 53  2  0  0  0
 40 58  1  0  0  0
 41109  1  0  0  0
 41110  1  0  0  0
 41111  1  0  0  0
 41 48  1  0  0  0
 42 43  1  0  0  0
 42 66  1  0  0  0
 42112  1  0  0  0
 42113  1  0  0  0
 43 44  1  0  0  0
 44114  1  0  0  0
 45 46  2  0  0  0
 45115  1  0  0  0
 46116  1  0  0  0
 47117  1  0  0  0
 47118  1  0  0  0
 48 56  1  0  0  0
 48 65  1  0  0  0
 48119  1  0  0  0
 49 50  1  0  0  0
 49 53  1  0  0  0
 49 64  1  0  0  0
 49120  1  0  0  0
 50 51  1  0  0  0
 50121  1  0  0  0
 50122  1  0  0  0
 51 52  1  0  0  0
 51123  1  0  0  0
 51124  1  0  0  0
 52125  1  0  0  0
 52126  1  0  0  0
 53 54  1  0  0  0
 54 55  2  0  0  0
 54127  1  0  0  0
 55 57  1  0  0  0
 55128  1  0  0  0
 56 69  2  0  0  0
 57 58  2  0  0  0
 57129  1  0  0  0
 58130  1  0  0  0
 59 60  1  0  0  0
 59 61  1  0  0  0
 59 62  1  0  0  0
 60131  1  0  0  0
 60132  1  0  0  0
 60133  1  0  0  0
 61134  1  0  0  0
 61135  1  0  0  0
 61136  1  0  0  0
 62137  1  0  0  0
 62138  1  0  0  0
 62139  1  0  0  0
 63 65  1  0  0  0
 63140  1  0  0  0
 63141  1  0  0  0
 63142  1  0  0  0
 64143  1  0  0  0
 65144  1  0  0  0
 68 82  1  0  0  0
 71 75  2  0  0  0
 71 76  1  0  0  0
 71145  1  0  0  0
 72 73  2  0  0  0
 72 74  1  0  0  0
 72 78  1  0  0  0
 73 75  1  0  0  0
 73 79  1  0  0  0
 74 76  2  0  0  0
 74 80  1  0  0  0
 75 83  1  0  0  0
 76 85  1  0  0  0
 77 81  1  0  0  0
 77 83  2  0  0  0
 77146  1  0  0  0
 78147  1  0  0  0
 78148  1  0  0  0
 78149  1  0  0  0
 79150  1  0  0  0
 79151  1  0  0  0
 79152  1  0  0  0
 80 84  1  0  0  0
 80153  1  0  0  0
 80154  1  0  0  0
 81 82  1  0  0  0
 81155  1  0  0  0
 81156  1  0  0  0
 82157  1  0  0  0
 82158  1  0  0  0
 84159  1  0  0  0
M  ISO  4   1 100  68 101  82 101  84 100
M  END
> <chiral flag>
0

> <version>
0

> <s_m_source_file>
/data/baiqing/PycharmProjects/Reinvent-master-3.2/result/LINK_invent/BTK/process_docking_weight1_custom_product_contain_oxygen_bond_distance_aromatic_linkinvent_7_9_3/rearranged_h_0123.sdf

> <i_m_source_file_index>
12

> <r_mmod_Potential_Energy-OPLS-2005>
16.9730319976807

> <r_mmod_Stretch_Energy-OPLS-2005>
44.5123443603516

> <r_mmod_Bend_Energy-OPLS-2005>
132.149993896484

> <r_mmod_Torsional_Energy-OPLS-2005>
270.033966064453

> <r_mmod_Improper_Torsional_Energy-OPLS-2005>
24.4141120910645

> <r_mmod_Van_der_Waal_Energy-OPLS-2005>
159.093551635742

> <r_mmod_Electrostatic_Energy-OPLS-2005>
-436.729888916016

> <r_mmod_Solvation_Energy-OPLS-2005>
-199.131729125977

> <b_mmod_Minimization_Converged-OPLS-2005>
0

> <r_mmod_RMS_Derivative-OPLS-2005>
3.31007266044617

$$$$
12
                    3D
 Structure written by MMmdl.
161169  0  0  1  0            999 V2000
  -30.6774  -14.5239   20.5242 C   0  0  0  0  0  0
  -30.4206  -12.3286   19.4244 C   0  0  0  0  0  0
  -29.4925  -12.5076   18.2054 C   0  0  0  0  0  0
  -28.0149  -12.3603   18.6201 C   0  0  0  0  0  0
  -27.6571  -13.2106   19.8692 C   0  0  2  0  0  0
  -28.7015  -13.0196   20.9919 C   0  0  0  0  0  0
  -25.2594  -13.8166   20.5715 C   0  0  0  0  0  0
  -24.1855  -13.0439   20.9200 C   0  0  0  0  0  0
  -24.6410  -11.6904   20.8746 C   0  0  0  0  0  0
  -23.9080  -10.4291   21.0404 C   0  0  0  0  0  0
  -24.3637   -9.4209   21.9176 C   0  0  0  0  0  0
  -23.6311   -8.2250   22.0750 C   0  0  0  0  0  0
  -22.4280   -8.0291   21.3551 C   0  0  0  0  0  0
  -21.9922   -9.0261   20.4647 C   0  0  0  0  0  0
  -22.7252  -10.2135   20.3055 C   0  0  0  0  0  0
  -21.6858   -6.0751   22.5290 C   0  0  0  0  0  0
  -21.4013   -6.5650   23.8227 C   0  0  0  0  0  0
  -21.3660   -5.6798   24.9181 C   0  0  0  0  0  0
  -21.6045   -4.3063   24.7225 C   0  0  0  0  0  0
  -21.8821   -3.8160   23.4342 C   0  0  0  0  0  0
  -21.9201   -4.6983   22.3408 C   0  0  0  0  0  0
  -22.7875  -13.5232   21.1859 C   0  0  0  0  0  0
  -22.1668   -4.2180   21.0980 F   0  0  0  0  0  0
  -21.5625   -3.4539   25.7730 F   0  0  0  0  0  0
  -30.0269  -13.3285   20.4328 N   0  0  0  0  0  0
  -26.3019  -12.9340   20.3362 N   0  0  0  0  0  0
  -25.9337  -11.6495   20.5777 N   0  0  0  0  0  0
  -22.0527  -12.8210   22.0396 N   0  0  0  0  0  0
  -25.4312  -15.1897   20.4144 N   0  0  0  0  0  0
  -31.8257  -14.6758   20.0988 O   0  0  0  0  0  0
  -21.6647   -6.8890   21.4246 O   0  0  0  0  0  0
  -22.3560  -14.5546   20.6712 O   0  0  0  0  0  0
  -24.6192  -31.8661   23.2077 C   0  0  0  0  0  0
  -25.9080  -32.4808   23.8375 C   0  0  1  0  0  0
  -27.2283  -27.3996   20.1138 C   0  0  0  0  0  0
  -25.5928  -33.8606   24.2309 N   0  0  0  0  0  0
  -23.4077  -30.4885   21.5508 C   0  0  2  0  0  0
  -24.8549  -28.9512   20.1146 C   0  0  0  0  0  0
  -22.7437  -29.4650   22.5003 C   0  0  0  0  0  0
  -18.0279  -28.1362   22.8512 C   0  0  0  0  0  0
  -24.1490  -36.7306   23.2633 C   0  0  0  0  0  0
  -25.9411  -30.8192   21.3709 C   0  0  0  0  0  0
  -26.0172  -29.4533   20.7147 C   0  0  0  0  0  0
  -27.2106  -28.6886   20.7035 C   0  0  0  0  0  0
  -26.0516  -26.9227   19.4993 C   0  0  0  0  0  0
  -24.8696  -27.6882   19.4973 C   0  0  0  0  0  0
  -23.6171  -29.8198   20.1657 C   0  0  0  0  0  0
  -25.4114  -36.3105   24.0334 C   0  0  1  0  0  0
  -20.5872  -28.3664   23.1328 C   0  0  2  0  0  0
  -20.6777  -26.9403   22.5423 C   0  0  0  0  0  0
  -19.5750  -26.6384   21.5222 C   0  0  0  0  0  0
  -18.1926  -26.7918   22.1630 C   0  0  0  0  0  0
  -19.1524  -28.8829   23.2917 C   0  0  0  0  0  0
  -18.9448  -30.1437   23.8924 C   0  0  0  0  0  0
  -17.6447  -30.6574   24.0563 C   0  0  0  0  0  0
  -25.9048  -34.9472   23.5120 C   0  0  0  0  0  0
  -16.5342  -29.9070   23.6323 C   0  0  0  0  0  0
  -16.7266  -28.6476   23.0374 C   0  0  0  0  0  0
  -26.4498  -31.6599   25.0722 C   0  0  0  0  0  0
  -25.3732  -31.3712   26.1448 C   0  0  0  0  0  0
  -27.0354  -30.3035   24.6147 C   0  0  0  0  0  0
  -27.6078  -32.4333   25.7470 C   0  0  0  0  0  0
  -27.5597  -37.1795   24.8453 C   0  0  0  0  0  0
  -21.4163  -29.3023   22.3730 N   0  0  0  0  0  0
  -26.4296  -37.3796   23.9412 N   0  0  0  0  0  0
  -24.6735  -31.0725   22.1004 N   0  0  0  0  0  0
  -23.4193  -28.8200   23.3064 O   0  0  0  0  0  0
  -28.3723  -26.6208   20.1067 O   0  0  0  0  0  0
  -26.5620  -34.8928   22.4684 O   0  0  0  0  0  0
  -23.5379  -32.1447   23.7454 O   0  0  0  0  0  0
  -31.1974  -18.9442   19.7741 C   0  0  0  0  0  0
  -30.9322  -17.5559   19.8066 C   0  0  0  0  0  0
  -29.6510  -17.8667   21.8347 C   0  0  0  0  0  0
  -30.7353  -19.8178   20.7849 C   0  0  0  0  0  0
  -29.9360  -19.2603   21.8193 C   0  0  0  0  0  0
  -30.1904  -16.9827   20.8676 C   0  0  0  0  0  0
  -31.8186  -24.6435   21.7056 C   0  0  0  0  0  0
  -31.3359  -21.1822   20.8245 C   0  0  0  0  0  0
  -31.9430  -23.4563   21.0897 C   0  0  0  0  0  0
  -30.8820  -22.4626   20.9434 C   0  0  0  0  0  0
  -29.4637  -20.1143   22.9828 C   0  0  0  0  0  0
  -29.4098  -22.9223   20.9326 C   0  0  0  0  0  0
  -29.1067  -24.1975   20.0528 C   0  0  0  0  0  0
  -28.2671  -25.3200   20.7418 C   0  0  0  0  0  0
  -29.9393  -15.5661   20.9827 N   0  0  0  0  0  0
  -31.4639  -12.4259   19.1206 H   0  0  0  0  0  0
  -30.3215  -11.3220   19.8319 H   0  0  0  0  0  0
  -29.7376  -11.7769   17.4340 H   0  0  0  0  0  0
  -29.6553  -13.4884   17.7550 H   0  0  0  0  0  0
  -27.8310  -11.3046   18.8241 H   0  0  0  0  0  0
  -27.3623  -12.6212   17.7859 H   0  0  0  0  0  0
  -27.6897  -14.2548   19.5583 H   0  0  0  0  0  0
  -28.6872  -11.9914   21.3564 H   0  0  0  0  0  0
  -28.4610  -13.6397   21.8559 H   0  0  0  0  0  0
  -25.2784   -9.5694   22.4745 H   0  0  0  0  0  0
  -24.0045   -7.4636   22.7451 H   0  0  0  0  0  0
  -21.0867   -8.8763   19.8938 H   0  0  0  0  0  0
  -22.3715  -10.9671   19.6168 H   0  0  0  0  0  0
  -21.1992   -7.6158   23.9735 H   0  0  0  0  0  0
  -21.1476   -6.0524   25.9089 H   0  0  0  0  0  0
  -22.0599   -2.7626   23.2833 H   0  0  0  0  0  0
  -22.4154  -11.9883   22.4800 H   0  0  0  0  0  0
  -21.1148  -13.1221   22.2609 H   0  0  0  0  0  0
  -24.6629  -15.8432   20.5209 H   0  0  0  0  0  0
  -26.2847  -15.6318   20.0960 H   0  0  0  0  0  0
  -26.7141  -32.5517   23.1124 H   0  0  0  0  0  0
  -25.0080  -33.9749   25.0458 H   0  0  0  0  0  0
  -22.6974  -31.3058   21.4106 H   0  0  0  0  0  0
  -23.3763  -35.9627   23.3277 H   0  0  0  0  0  0
  -24.3564  -36.8946   22.2047 H   0  0  0  0  0  0
  -23.7224  -37.6492   23.6668 H   0  0  0  0  0  0
  -26.0678  -31.5858   20.6057 H   0  0  0  0  0  0
  -26.8221  -30.8633   21.9993 H   0  0  0  0  0  0
  -28.1094  -29.0737   21.1650 H   0  0  0  0  0  0
  -26.0487  -25.9554   19.0179 H   0  0  0  0  0  0
  -23.9804  -27.2996   19.0194 H   0  0  0  0  0  0
  -23.7255  -30.5950   19.4061 H   0  0  0  0  0  0
  -22.7404  -29.2389   19.8727 H   0  0  0  0  0  0
  -25.1293  -36.1954   25.0829 H   0  0  0  0  0  0
  -20.9957  -28.3215   24.1453 H   0  0  0  0  0  0
  -20.5693  -26.2269   23.3607 H   0  0  0  0  0  0
  -21.6646  -26.7467   22.1197 H   0  0  0  0  0  0
  -19.6917  -25.6296   21.1244 H   0  0  0  0  0  0
  -19.6675  -27.3212   20.6762 H   0  0  0  0  0  0
  -17.4214  -26.6715   21.4008 H   0  0  0  0  0  0
  -18.0298  -26.0026   22.8984 H   0  0  0  0  0  0
  -19.7915  -30.7254   24.2311 H   0  0  0  0  0  0
  -17.4989  -31.6253   24.5163 H   0  0  0  0  0  0
  -15.5340  -30.2979   23.7603 H   0  0  0  0  0  0
  -15.8679  -28.0772   22.7114 H   0  0  0  0  0  0
  -24.5879  -30.7119   25.7728 H   0  0  0  0  0  0
  -24.8957  -32.2881   26.4919 H   0  0  0  0  0  0
  -25.8036  -30.8807   27.0189 H   0  0  0  0  0  0
  -26.2921  -29.6748   24.1239 H   0  0  0  0  0  0
  -27.4144  -29.7321   25.4627 H   0  0  0  0  0  0
  -27.8743  -30.4323   23.9306 H   0  0  0  0  0  0
  -27.2708  -33.3625   26.2075 H   0  0  0  0  0  0
  -28.3865  -32.6916   25.0280 H   0  0  0  0  0  0
  -28.0796  -31.8453   26.5352 H   0  0  0  0  0  0
  -28.2599  -38.0114   24.7573 H   0  0  0  0  0  0
  -28.1124  -36.2658   24.6206 H   0  0  0  0  0  0
  -27.2324  -37.1352   25.8854 H   0  0  0  0  0  0
  -20.9347  -29.8679   21.6885 H   0  0  0  0  0  0
  -26.0191  -38.2878   24.1409 H   0  0  0  0  0  0
  -31.8286  -19.3296   18.9849 H   0  0  0  0  0  0
  -31.3374  -16.9393   19.0170 H   0  0  0  0  0  0
  -29.0576  -17.4614   22.6430 H   0  0  0  0  0  0
  -32.6538  -25.3277   21.7537 H   0  0  0  0  0  0
  -30.8976  -24.9547   22.1739 H   0  0  0  0  0  0
  -32.4141  -21.0898   20.8248 H   0  0  0  0  0  0
  -32.9098  -23.2372   20.6573 H   0  0  0  0  0  0
  -29.1193  -19.4980   23.8142 H   0  0  0  0  0  0
  -28.6387  -20.7559   22.6759 H   0  0  0  0  0  0
  -30.2734  -20.7423   23.3573 H   0  0  0  0  0  0
  -29.1275  -23.1120   21.9685 H   0  0  0  0  0  0
  -28.7819  -22.0940   20.5999 H   0  0  0  0  0  0
  -28.6002  -23.8871   19.1379 H   0  0  0  0  0  0
  -30.0317  -24.6497   19.7002 H   0  0  0  0  0  0
  -28.6144  -25.4558   21.7661 H   0  0  0  0  0  0
  -27.2355  -24.9785   20.8337 H   0  0  0  0  0  0
  -29.0722  -15.3042   21.4245 H   0  0  0  0  0  0
  1 25  1  0  0  0
  1 30  2  0  0  0
  1 85  1  0  0  0
  2  3  1  0  0  0
  2 25  1  0  0  0
  2 86  1  0  0  0
  2 87  1  0  0  0
  3  4  1  0  0  0
  3 88  1  0  0  0
  3 89  1  0  0  0
  4  5  1  0  0  0
  4 90  1  0  0  0
  4 91  1  0  0  0
  5  6  1  0  0  0
  5 26  1  0  0  0
  5 92  1  0  0  0
  6 25  1  0  0  0
  6 93  1  0  0  0
  6 94  1  0  0  0
  7  8  2  0  0  0
  7 26  1  0  0  0
  7 29  1  0  0  0
  8  9  1  0  0  0
  8 22  1  0  0  0
  9 10  1  0  0  0
  9 27  2  0  0  0
 10 11  2  0  0  0
 10 15  1  0  0  0
 11 12  1  0  0  0
 11 95  1  0  0  0
 12 13  2  0  0  0
 12 96  1  0  0  0
 13 14  1  0  0  0
 13 31  1  0  0  0
 14 15  2  0  0  0
 14 97  1  0  0  0
 15 98  1  0  0  0
 16 17  2  0  0  0
 16 21  1  0  0  0
 16 31  1  0  0  0
 17 18  1  0  0  0
 17 99  1  0  0  0
 18 19  2  0  0  0
 18100  1  0  0  0
 19 20  1  0  0  0
 19 24  1  0  0  0
 20 21  2  0  0  0
 20101  1  0  0  0
 21 23  1  0  0  0
 22 28  1  0  0  0
 22 32  2  0  0  0
 26 27  1  0  0  0
 28102  1  0  0  0
 28103  1  0  0  0
 29104  1  0  0  0
 29105  1  0  0  0
 33 34  1  0  0  0
 33 66  1  0  0  0
 33 70  2  0  0  0
 34 36  1  0  0  0
 34 59  1  0  0  0
 34106  1  0  0  0
 35 44  2  0  0  0
 35 45  1  0  0  0
 35 68  1  0  0  0
 36 56  1  0  0  0
 36107  1  0  0  0
 37 39  1  0  0  0
 37 47  1  0  0  0
 37 66  1  0  0  0
 37108  1  0  0  0
 38 43  2  0  0  0
 38 46  1  0  0  0
 38 47  1  0  0  0
 39 64  1  0  0  0
 39 67  2  0  0  0
 40 52  1  0  0  0
 40 53  2  0  0  0
 40 58  1  0  0  0
 41109  1  0  0  0
 41110  1  0  0  0
 41111  1  0  0  0
 41 48  1  0  0  0
 42 43  1  0  0  0
 42 66  1  0  0  0
 42112  1  0  0  0
 42113  1  0  0  0
 43 44  1  0  0  0
 44114  1  0  0  0
 45 46  2  0  0  0
 45115  1  0  0  0
 46116  1  0  0  0
 47117  1  0  0  0
 47118  1  0  0  0
 48 56  1  0  0  0
 48 65  1  0  0  0
 48119  1  0  0  0
 49 50  1  0  0  0
 49 53  1  0  0  0
 49 64  1  0  0  0
 49120  1  0  0  0
 50 51  1  0  0  0
 50121  1  0  0  0
 50122  1  0  0  0
 51 52  1  0  0  0
 51123  1  0  0  0
 51124  1  0  0  0
 52125  1  0  0  0
 52126  1  0  0  0
 53 54  1  0  0  0
 54 55  2  0  0  0
 54127  1  0  0  0
 55 57  1  0  0  0
 55128  1  0  0  0
 56 69  2  0  0  0
 57 58  2  0  0  0
 57129  1  0  0  0
 58130  1  0  0  0
 59 60  1  0  0  0
 59 61  1  0  0  0
 59 62  1  0  0  0
 60131  1  0  0  0
 60132  1  0  0  0
 60133  1  0  0  0
 61134  1  0  0  0
 61135  1  0  0  0
 61136  1  0  0  0
 62137  1  0  0  0
 62138  1  0  0  0
 62139  1  0  0  0
 63 65  1  0  0  0
 63140  1  0  0  0
 63141  1  0  0  0
 63142  1  0  0  0
 64143  1  0  0  0
 65144  1  0  0  0
 68 84  1  0  0  0
 71 72  2  0  0  0
 71 74  1  0  0  0
 71145  1  0  0  0
 72 76  1  0  0  0
 72146  1  0  0  0
 73 75  1  0  0  0
 73 76  2  0  0  0
 73147  1  0  0  0
 74 75  2  0  0  0
 74 78  1  0  0  0
 75 81  1  0  0  0
 76 85  1  0  0  0
 77 79  2  0  0  0
 77148  1  0  0  0
 77149  1  0  0  0
 78 80  2  0  0  0
 78150  1  0  0  0
 79 80  1  0  0  0
 79151  1  0  0  0
 80 82  1  0  0  0
 81152  1  0  0  0
 81153  1  0  0  0
 81154  1  0  0  0
 82 83  1  0  0  0
 82155  1  0  0  0
 82156  1  0  0  0
 83 84  1  0  0  0
 83157  1  0  0  0
 83158  1  0  0  0
 84159  1  0  0  0
 84160  1  0  0  0
 85161  1  0  0  0
M  ISO  4   1 100  68 101  84 101  85 100
M  END
> <chiral flag>
0

> <version>
0

> <s_m_source_file>
/data/baiqing/PycharmProjects/Reinvent-master-3.2/result/LINK_invent/BTK/process_docking_weight1_custom_product_contain_oxygen_bond_distance_aromatic_linkinvent_7_9_3/rearranged_h_0123.sdf

> <i_m_source_file_index>
13

> <r_mmod_Potential_Energy-OPLS-2005>
59.8966255187988

> <r_mmod_Stretch_Energy-OPLS-2005>
48.7912063598633

> <r_mmod_Bend_Energy-OPLS-2005>
128.409469604492

> <r_mmod_Torsional_Energy-OPLS-2005>
284.9580078125

> <r_mmod_Improper_Torsional_Energy-OPLS-2005>
5.68495893478394

> <r_mmod_Van_der_Waal_Energy-OPLS-2005>
154.355758666992

> <r_mmod_Electrostatic_Energy-OPLS-2005>
-384.779235839844

> <r_mmod_Solvation_Energy-OPLS-2005>
-197.227691650391

> <b_mmod_Minimization_Converged-OPLS-2005>
0

> <r_mmod_RMS_Derivative-OPLS-2005>
2.05378127098083

$$$$
13
                    3D
 Structure written by MMmdl.
156164  0  0  1  0            999 V2000
  -30.7142  -14.4407   20.5732 C   0  0  0  0  0  0
  -30.4200  -12.2859   19.4182 C   0  0  0  0  0  0
  -29.4928  -12.5032   18.2046 C   0  0  0  0  0  0
  -28.0129  -12.3713   18.6158 C   0  0  0  0  0  0
  -27.6647  -13.2052   19.8782 C   0  0  2  0  0  0
  -28.7060  -12.9700   20.9968 C   0  0  0  0  0  0
  -25.2603  -13.8156   20.5686 C   0  0  0  0  0  0
  -24.1844  -13.0434   20.9171 C   0  0  0  0  0  0
  -24.6389  -11.6898   20.8716 C   0  0  0  0  0  0
  -23.9051  -10.4288   21.0386 C   0  0  0  0  0  0
  -24.3605   -9.4208   21.9171 C   0  0  0  0  0  0
  -23.6286   -8.2241   22.0741 C   0  0  0  0  0  0
  -22.4271   -8.0271   21.3539 C   0  0  0  0  0  0
  -21.9904   -9.0243   20.4638 C   0  0  0  0  0  0
  -22.7222  -10.2127   20.3039 C   0  0  0  0  0  0
  -21.6856   -6.0727   22.5276 C   0  0  0  0  0  0
  -21.4007   -6.5623   23.8208 C   0  0  0  0  0  0
  -21.3654   -5.6777   24.9171 C   0  0  0  0  0  0
  -21.6042   -4.3042   24.7220 C   0  0  0  0  0  0
  -21.8823   -3.8137   23.4340 C   0  0  0  0  0  0
  -21.9195   -4.6958   22.3397 C   0  0  0  0  0  0
  -22.7870  -13.5241   21.1839 C   0  0  0  0  0  0
  -22.1671   -4.2142   21.0975 F   0  0  0  0  0  0
  -21.5627   -3.4519   25.7731 F   0  0  0  0  0  0
  -30.0426  -13.2644   20.4497 N   0  0  0  0  0  0
  -26.3043  -12.9325   20.3381 N   0  0  0  0  0  0
  -25.9321  -11.6485   20.5765 N   0  0  0  0  0  0
  -22.0508  -12.8229   22.0391 N   0  0  0  0  0  0
  -25.4322  -15.1873   20.4112 N   0  0  0  0  0  0
  -31.8335  -14.6219   20.0858 O   0  0  0  0  0  0
  -21.6635   -6.8868   21.4240 O   0  0  0  0  0  0
  -22.3560  -14.5554   20.6688 O   0  0  0  0  0  0
  -24.6119  -31.8686   23.2116 C   0  0  0  0  0  0
  -25.9018  -32.4825   23.8408 C   0  0  1  0  0  0
  -27.2371  -27.4571   20.0927 C   0  0  0  0  0  0
  -25.5892  -33.8621   24.2338 N   0  0  0  0  0  0
  -23.4005  -30.4911   21.5501 C   0  0  2  0  0  0
  -24.8495  -28.9566   20.1169 C   0  0  0  0  0  0
  -22.7403  -29.4653   22.4993 C   0  0  0  0  0  0
  -18.0268  -28.1384   22.8487 C   0  0  0  0  0  0
  -24.1475  -36.7299   23.2640 C   0  0  0  0  0  0
  -25.9267  -30.8405   21.3624 C   0  0  0  0  0  0
  -26.0069  -29.4751   20.7123 C   0  0  0  0  0  0
  -27.2074  -28.7315   20.6987 C   0  0  0  0  0  0
  -26.0682  -26.9430   19.4981 C   0  0  0  0  0  0
  -24.8733  -27.6882   19.5081 C   0  0  0  0  0  0
  -23.6098  -29.8207   20.1655 C   0  0  0  0  0  0
  -25.4097  -36.3113   24.0348 C   0  0  1  0  0  0
  -20.5858  -28.3655   23.1333 C   0  0  2  0  0  0
  -20.6750  -26.9392   22.5435 C   0  0  0  0  0  0
  -19.5744  -26.6389   21.5213 C   0  0  0  0  0  0
  -18.1912  -26.7940   22.1602 C   0  0  0  0  0  0
  -19.1518  -28.8835   23.2908 C   0  0  0  0  0  0
  -18.9448  -30.1444   23.8914 C   0  0  0  0  0  0
  -17.6451  -30.6588   24.0562 C   0  0  0  0  0  0
  -25.9026  -34.9479   23.5139 C   0  0  0  0  0  0
  -16.5339  -29.9092   23.6330 C   0  0  0  0  0  0
  -16.7257  -28.6512   23.0344 C   0  0  0  0  0  0
  -26.4455  -31.6601   25.0726 C   0  0  0  0  0  0
  -25.3737  -31.3729   26.1493 C   0  0  0  0  0  0
  -27.0248  -30.3034   24.6085 C   0  0  0  0  0  0
  -27.6061  -32.4298   25.7463 C   0  0  0  0  0  0
  -27.5583  -37.1791   24.8458 C   0  0  0  0  0  0
  -21.4132  -29.3021   22.3737 N   0  0  0  0  0  0
  -26.4282  -37.3801   23.9429 N   0  0  0  0  0  0
  -24.6641  -31.0805   22.1002 N   0  0  0  0  0  0
  -23.4184  -28.8194   23.3024 O   0  0  0  0  0  0
  -28.3904  -26.7162   20.0591 O   0  0  0  0  0  0
  -26.5580  -34.8934   22.4696 O   0  0  0  0  0  0
  -23.5317  -32.1424   23.7524 O   0  0  0  0  0  0
  -29.6378  -19.0644   21.9394 C   0  0  0  0  0  0
  -29.5424  -17.6592   22.0187 C   0  0  0  0  0  0
  -30.9139  -17.4632   20.0278 C   0  0  0  0  0  0
  -30.3907  -19.6921   20.9196 C   0  0  0  0  0  0
  -31.0135  -18.8711   19.9446 C   0  0  0  0  0  0
  -30.1924  -16.8386   21.0748 C   0  0  0  0  0  0
  -30.5142  -21.1695   20.8697 C   0  0  0  0  0  0
  -29.6683  -22.0687   21.4121 C   0  0  0  0  0  0
  -28.9795  -24.3796   20.5167 C   0  0  0  0  0  0
  -31.7972  -19.4749   18.7891 C   0  0  0  0  0  0
  -29.9095  -23.5745   21.4349 C   0  0  0  0  0  0
  -28.4455  -25.7088   21.0748 C   0  0  0  0  0  0
  -30.0340  -15.4229   21.1941 N   0  0  0  0  0  0
  -28.6855  -23.9845   19.3837 O   0  0  0  0  0  0
  -31.4658  -12.3737   19.1165 H   0  0  0  0  0  0
  -30.3085  -11.2728   19.8067 H   0  0  0  0  0  0
  -29.7257  -11.7843   17.4179 H   0  0  0  0  0  0
  -29.6695  -13.4920   17.7771 H   0  0  0  0  0  0
  -27.8142  -11.3157   18.8055 H   0  0  0  0  0  0
  -27.3646  -12.6566   17.7862 H   0  0  0  0  0  0
  -27.7152  -14.2553   19.5898 H   0  0  0  0  0  0
  -28.6733  -11.9321   21.3309 H   0  0  0  0  0  0
  -28.4695  -13.5631   21.8813 H   0  0  0  0  0  0
  -25.2750   -9.5685   22.4743 H   0  0  0  0  0  0
  -23.9994   -7.4631   22.7459 H   0  0  0  0  0  0
  -21.0833   -8.8749   19.8953 H   0  0  0  0  0  0
  -22.3667  -10.9653   19.6137 H   0  0  0  0  0  0
  -21.1990   -7.6132   23.9705 H   0  0  0  0  0  0
  -21.1471   -6.0506   25.9076 H   0  0  0  0  0  0
  -22.0605   -2.7600   23.2831 H   0  0  0  0  0  0
  -22.4112  -11.9879   22.4765 H   0  0  0  0  0  0
  -21.1126  -13.1269   22.2598 H   0  0  0  0  0  0
  -24.6666  -15.8429   20.5232 H   0  0  0  0  0  0
  -26.2908  -15.6288   20.1057 H   0  0  0  0  0  0
  -26.7092  -32.5554   23.1180 H   0  0  0  0  0  0
  -25.0072  -33.9787   25.0504 H   0  0  0  0  0  0
  -22.6878  -31.3066   21.4103 H   0  0  0  0  0  0
  -23.3767  -35.9601   23.3281 H   0  0  0  0  0  0
  -24.3579  -36.8927   22.2062 H   0  0  0  0  0  0
  -23.7190  -37.6484   23.6656 H   0  0  0  0  0  0
  -26.0375  -31.6066   20.5940 H   0  0  0  0  0  0
  -26.8161  -30.8947   21.9789 H   0  0  0  0  0  0
  -28.1043  -29.1301   21.1520 H   0  0  0  0  0  0
  -26.0874  -25.9702   19.0264 H   0  0  0  0  0  0
  -23.9832  -27.2834   19.0458 H   0  0  0  0  0  0
  -23.7155  -30.5935   19.4027 H   0  0  0  0  0  0
  -22.7362  -29.2355   19.8729 H   0  0  0  0  0  0
  -25.1272  -36.1975   25.0837 H   0  0  0  0  0  0
  -20.9951  -28.3218   24.1455 H   0  0  0  0  0  0
  -20.5640  -26.2263   23.3621 H   0  0  0  0  0  0
  -21.6620  -26.7429   22.1238 H   0  0  0  0  0  0
  -19.6899  -25.6305   21.1236 H   0  0  0  0  0  0
  -19.6712  -27.3202   20.6751 H   0  0  0  0  0  0
  -17.4206  -26.6732   21.3972 H   0  0  0  0  0  0
  -18.0269  -26.0070   22.8978 H   0  0  0  0  0  0
  -19.7921  -30.7248   24.2295 H   0  0  0  0  0  0
  -17.5012  -31.6269   24.5164 H   0  0  0  0  0  0
  -15.5341  -30.2993   23.7656 H   0  0  0  0  0  0
  -15.8658  -28.0842   22.7044 H   0  0  0  0  0  0
  -24.5910  -30.7053   25.7869 H   0  0  0  0  0  0
  -24.8915  -32.2888   26.4921 H   0  0  0  0  0  0
  -25.8109  -30.8940   27.0262 H   0  0  0  0  0  0
  -26.2759  -29.6823   24.1153 H   0  0  0  0  0  0
  -27.4023  -29.7250   25.4527 H   0  0  0  0  0  0
  -27.8605  -30.4338   23.9207 H   0  0  0  0  0  0
  -27.2723  -33.3618   26.2038 H   0  0  0  0  0  0
  -28.3862  -32.6817   25.0266 H   0  0  0  0  0  0
  -28.0727  -31.8409   26.5370 H   0  0  0  0  0  0
  -28.2597  -38.0095   24.7530 H   0  0  0  0  0  0
  -28.1076  -36.2628   24.6225 H   0  0  0  0  0  0
  -27.2320  -37.1386   25.8867 H   0  0  0  0  0  0
  -20.9292  -29.8742   21.6958 H   0  0  0  0  0  0
  -26.0171  -38.2875   24.1468 H   0  0  0  0  0  0
  -29.1455  -19.6561   22.6969 H   0  0  0  0  0  0
  -28.9687  -17.2178   22.8215 H   0  0  0  0  0  0
  -31.3954  -16.8730   19.2622 H   0  0  0  0  0  0
  -31.4023  -21.5527   20.3864 H   0  0  0  0  0  0
  -28.7553  -21.7383   21.8860 H   0  0  0  0  0  0
  -32.0233  -18.7281   18.0273 H   0  0  0  0  0  0
  -32.7425  -19.8872   19.1420 H   0  0  0  0  0  0
  -31.2316  -20.2716   18.3050 H   0  0  0  0  0  0
  -30.9364  -23.7832   21.1371 H   0  0  0  0  0  0
  -29.8006  -23.9276   22.4600 H   0  0  0  0  0  0
  -29.0925  -26.0542   21.8811 H   0  0  0  0  0  0
  -27.4607  -25.5255   21.5077 H   0  0  0  0  0  0
  -29.2175  -15.1124   21.6973 H   0  0  0  0  0  0
  1 25  1  0  0  0
  1 30  2  0  0  0
  1 83  1  0  0  0
  2  3  1  0  0  0
  2 25  1  0  0  0
  2 85  1  0  0  0
  2 86  1  0  0  0
  3  4  1  0  0  0
  3 87  1  0  0  0
  3 88  1  0  0  0
  4  5  1  0  0  0
  4 89  1  0  0  0
  4 90  1  0  0  0
  5  6  1  0  0  0
  5 26  1  0  0  0
  5 91  1  0  0  0
  6 25  1  0  0  0
  6 92  1  0  0  0
  6 93  1  0  0  0
  7  8  2  0  0  0
  7 26  1  0  0  0
  7 29  1  0  0  0
  8  9  1  0  0  0
  8 22  1  0  0  0
  9 10  1  0  0  0
  9 27  2  0  0  0
 10 11  2  0  0  0
 10 15  1  0  0  0
 11 12  1  0  0  0
 11 94  1  0  0  0
 12 13  2  0  0  0
 12 95  1  0  0  0
 13 14  1  0  0  0
 13 31  1  0  0  0
 14 15  2  0  0  0
 14 96  1  0  0  0
 15 97  1  0  0  0
 16 17  2  0  0  0
 16 21  1  0  0  0
 16 31  1  0  0  0
 17 18  1  0  0  0
 17 98  1  0  0  0
 18 19  2  0  0  0
 18 99  1  0  0  0
 19 20  1  0  0  0
 19 24  1  0  0  0
 20 21  2  0  0  0
 20100  1  0  0  0
 21 23  1  0  0  0
 22 28  1  0  0  0
 22 32  2  0  0  0
 26 27  1  0  0  0
 28101  1  0  0  0
 28102  1  0  0  0
 29103  1  0  0  0
 29104  1  0  0  0
 33 34  1  0  0  0
 33 66  1  0  0  0
 33 70  2  0  0  0
 34 36  1  0  0  0
 34 59  1  0  0  0
 34105  1  0  0  0
 35 44  2  0  0  0
 35 45  1  0  0  0
 35 68  1  0  0  0
 36 56  1  0  0  0
 36106  1  0  0  0
 37 39  1  0  0  0
 37 47  1  0  0  0
 37 66  1  0  0  0
 37107  1  0  0  0
 38 43  2  0  0  0
 38 46  1  0  0  0
 38 47  1  0  0  0
 39 64  1  0  0  0
 39 67  2  0  0  0
 40 52  1  0  0  0
 40 53  2  0  0  0
 40 58  1  0  0  0
 41108  1  0  0  0
 41109  1  0  0  0
 41110  1  0  0  0
 41 48  1  0  0  0
 42 43  1  0  0  0
 42 66  1  0  0  0
 42111  1  0  0  0
 42112  1  0  0  0
 43 44  1  0  0  0
 44113  1  0  0  0
 45 46  2  0  0  0
 45114  1  0  0  0
 46115  1  0  0  0
 47116  1  0  0  0
 47117  1  0  0  0
 48 56  1  0  0  0
 48 65  1  0  0  0
 48118  1  0  0  0
 49 50  1  0  0  0
 49 53  1  0  0  0
 49 64  1  0  0  0
 49119  1  0  0  0
 50 51  1  0  0  0
 50120  1  0  0  0
 50121  1  0  0  0
 51 52  1  0  0  0
 51122  1  0  0  0
 51123  1  0  0  0
 52124  1  0  0  0
 52125  1  0  0  0
 53 54  1  0  0  0
 54 55  2  0  0  0
 54126  1  0  0  0
 55 57  1  0  0  0
 55127  1  0  0  0
 56 69  2  0  0  0
 57 58  2  0  0  0
 57128  1  0  0  0
 58129  1  0  0  0
 59 60  1  0  0  0
 59 61  1  0  0  0
 59 62  1  0  0  0
 60130  1  0  0  0
 60131  1  0  0  0
 60132  1  0  0  0
 61133  1  0  0  0
 61134  1  0  0  0
 61135  1  0  0  0
 62136  1  0  0  0
 62137  1  0  0  0
 62138  1  0  0  0
 63 65  1  0  0  0
 63139  1  0  0  0
 63140  1  0  0  0
 63141  1  0  0  0
 64142  1  0  0  0
 65143  1  0  0  0
 68 82  1  0  0  0
 71 72  2  0  0  0
 71 74  1  0  0  0
 71144  1  0  0  0
 72 76  1  0  0  0
 72145  1  0  0  0
 73 75  1  0  0  0
 73 76  2  0  0  0
 73146  1  0  0  0
 74 75  2  0  0  0
 74 77  1  0  0  0
 75 80  1  0  0  0
 76 83  1  0  0  0
 77 78  2  0  0  0
 77147  1  0  0  0
 78 81  1  0  0  0
 78148  1  0  0  0
 79 81  1  0  0  0
 79 82  1  0  0  0
 79 84  2  0  0  0
 80149  1  0  0  0
 80150  1  0  0  0
 80151  1  0  0  0
 81152  1  0  0  0
 81153  1  0  0  0
 82154  1  0  0  0
 82155  1  0  0  0
 83156  1  0  0  0
M  ISO  4   1 100  68 101  82 101  83 100
M  END
> <chiral flag>
0

> <version>
0

> <s_m_source_file>
/data/baiqing/PycharmProjects/Reinvent-master-3.2/result/LINK_invent/BTK/process_docking_weight1_custom_product_contain_oxygen_bond_distance_aromatic_linkinvent_7_9_3/rearranged_h_0123.sdf

> <i_m_source_file_index>
14

> <r_mmod_Potential_Energy-OPLS-2005>
-36.4604911804199

> <r_mmod_Stretch_Energy-OPLS-2005>
35.0620384216309

> <r_mmod_Bend_Energy-OPLS-2005>
91.1471252441406

> <r_mmod_Torsional_Energy-OPLS-2005>
243.594009399414

> <r_mmod_Improper_Torsional_Energy-OPLS-2005>
3.08827567100525

> <r_mmod_Van_der_Waal_Energy-OPLS-2005>
154.925064086914

> <r_mmod_Electrostatic_Energy-OPLS-2005>
-351.747985839844

> <r_mmod_Solvation_Energy-OPLS-2005>
-222.149353027344

> <b_mmod_Minimization_Converged-OPLS-2005>
0

> <r_mmod_RMS_Derivative-OPLS-2005>
1.26484453678131

$$$$
14
                    3D
 Structure written by MMmdl.
156164  0  0  1  0            999 V2000
  -30.6200  -14.5347   20.6016 C   0  0  0  0  0  0
  -30.4652  -12.3651   19.3896 C   0  0  0  0  0  0
  -29.5092  -12.5340   18.1884 C   0  0  0  0  0  0
  -28.0232  -12.3886   18.5998 C   0  0  0  0  0  0
  -27.6720  -13.1893   19.8809 C   0  0  2  0  0  0
  -28.7189  -12.8724   20.9640 C   0  0  0  0  0  0
  -25.2649  -13.8119   20.5605 C   0  0  0  0  0  0
  -24.1873  -13.0401   20.9098 C   0  0  0  0  0  0
  -24.6407  -11.6869   20.8689 C   0  0  0  0  0  0
  -23.9076  -10.4245   21.0343 C   0  0  0  0  0  0
  -24.3611   -9.4162   21.9144 C   0  0  0  0  0  0
  -23.6265   -8.2217   22.0756 C   0  0  0  0  0  0
  -22.4254   -8.0261   21.3531 C   0  0  0  0  0  0
  -21.9880   -9.0251   20.4642 C   0  0  0  0  0  0
  -22.7235  -10.2111   20.3011 C   0  0  0  0  0  0
  -21.6852   -6.0704   22.5250 C   0  0  0  0  0  0
  -21.4017   -6.5602   23.8178 C   0  0  0  0  0  0
  -21.3667   -5.6768   24.9155 C   0  0  0  0  0  0
  -21.6046   -4.3037   24.7224 C   0  0  0  0  0  0
  -21.8830   -3.8110   23.4346 C   0  0  0  0  0  0
  -21.9189   -4.6917   22.3390 C   0  0  0  0  0  0
  -22.7902  -13.5218   21.1807 C   0  0  0  0  0  0
  -22.1652   -4.2081   21.0976 F   0  0  0  0  0  0
  -21.5629   -3.4552   25.7764 F   0  0  0  0  0  0
  -30.0368  -13.3021   20.4444 N   0  0  0  0  0  0
  -26.3081  -12.9233   20.3328 N   0  0  0  0  0  0
  -25.9319  -11.6416   20.5715 N   0  0  0  0  0  0
  -22.0538  -12.8205   22.0380 N   0  0  0  0  0  0
  -25.4428  -15.1846   20.4044 N   0  0  0  0  0  0
  -31.7204  -14.7949   20.0995 O   0  0  0  0  0  0
  -21.6621   -6.8862   21.4226 O   0  0  0  0  0  0
  -22.3586  -14.5535   20.6695 O   0  0  0  0  0  0
  -24.6155  -31.8610   23.2058 C   0  0  0  0  0  0
  -25.9041  -32.4764   23.8380 C   0  0  1  0  0  0
  -27.2602  -27.4078   20.1004 C   0  0  0  0  0  0
  -25.5868  -33.8571   24.2272 N   0  0  0  0  0  0
  -23.4055  -30.4818   21.5484 C   0  0  2  0  0  0
  -24.8583  -28.9319   20.1248 C   0  0  0  0  0  0
  -22.7395  -29.4628   22.5001 C   0  0  0  0  0  0
  -18.0249  -28.1371   22.8469 C   0  0  0  0  0  0
  -24.1488  -36.7324   23.2647 C   0  0  0  0  0  0
  -25.9380  -30.8210   21.3602 C   0  0  0  0  0  0
  -26.0195  -29.4513   20.7117 C   0  0  0  0  0  0
  -27.2218  -28.7008   20.6835 C   0  0  0  0  0  0
  -26.0699  -26.8976   19.5346 C   0  0  0  0  0  0
  -24.8798  -27.6570   19.5347 C   0  0  0  0  0  0
  -23.6183  -29.7978   20.1687 C   0  0  0  0  0  0
  -25.4094  -36.3064   24.0332 C   0  0  1  0  0  0
  -20.5835  -28.3664   23.1296 C   0  0  2  0  0  0
  -20.6728  -26.9396   22.5426 C   0  0  0  0  0  0
  -19.5729  -26.6382   21.5203 C   0  0  0  0  0  0
  -18.1901  -26.7914   22.1612 C   0  0  0  0  0  0
  -19.1499  -28.8831   23.2877 C   0  0  0  0  0  0
  -18.9437  -30.1424   23.8915 C   0  0  0  0  0  0
  -17.6444  -30.6586   24.0554 C   0  0  0  0  0  0
  -25.9016  -34.9438   23.5108 C   0  0  0  0  0  0
  -16.5328  -29.9091   23.6326 C   0  0  0  0  0  0
  -16.7237  -28.6505   23.0354 C   0  0  0  0  0  0
  -26.4471  -31.6552   25.0706 C   0  0  0  0  0  0
  -25.3750  -31.3669   26.1474 C   0  0  0  0  0  0
  -27.0326  -30.2995   24.6078 C   0  0  0  0  0  0
  -27.6037  -32.4275   25.7451 C   0  0  0  0  0  0
  -27.5554  -37.1816   24.8445 C   0  0  0  0  0  0
  -21.4126  -29.3042   22.3741 N   0  0  0  0  0  0
  -26.4270  -37.3756   23.9394 N   0  0  0  0  0  0
  -24.6726  -31.0676   22.0979 N   0  0  0  0  0  0
  -23.4141  -28.8179   23.3060 O   0  0  0  0  0  0
  -28.4571  -26.7038   20.0470 O   0  0  0  0  0  0
  -26.5627  -34.8910   22.4687 O   0  0  0  0  0  0
  -23.5348  -32.1391   23.7448 O   0  0  0  0  0  0
  -32.1544  -19.6728   20.7229 C   0  0  0  0  0  0
  -31.6344  -18.4316   21.1439 C   0  0  0  0  0  0
  -31.4393  -20.4877   19.8204 C   0  0  0  0  0  0
  -29.6861  -18.7975   19.7341 C   0  0  0  0  0  0
  -30.3905  -17.9760   20.6606 C   0  0  0  0  0  0
  -30.1937  -20.0576   19.3070 C   0  0  0  0  0  0
  -29.7111  -16.8510   21.3494 C   0  0  0  0  0  0
  -29.7981  -15.4910   21.3677 C   0  0  0  0  0  0
  -29.0184  -23.0172   19.2902 C   0  0  0  0  0  0
  -29.1780  -21.9850   18.2179 C   0  0  0  0  0  0
  -28.7500  -24.3485   19.1116 C   0  0  0  0  0  0
  -28.7142  -25.0570   17.7588 C   0  0  0  0  0  0
  -28.4697  -25.2798   20.3146 C   0  0  0  0  0  0
  -29.5604  -20.7538   18.2580 N   0  0  0  0  0  0
  -31.4971  -12.5382   19.0737 H   0  0  0  0  0  0
  -30.4420  -11.3352   19.7496 H   0  0  0  0  0  0
  -29.6678  -13.5173   17.7433 H   0  0  0  0  0  0
  -29.7563  -11.8069   17.4158 H   0  0  0  0  0  0
  -27.8231  -11.3310   18.7707 H   0  0  0  0  0  0
  -27.3688  -12.6861   17.7813 H   0  0  0  0  0  0
  -27.7402  -14.2496   19.6401 H   0  0  0  0  0  0
  -28.7351  -11.7957   21.1408 H   0  0  0  0  0  0
  -28.4388  -13.2662   21.9366 H   0  0  0  0  0  0
  -25.2751   -9.5633   22.4728 H   0  0  0  0  0  0
  -23.9948   -7.4617   22.7507 H   0  0  0  0  0  0
  -21.0793   -8.8792   19.8980 H   0  0  0  0  0  0
  -22.3685  -10.9659   19.6130 H   0  0  0  0  0  0
  -21.2009   -7.6108   23.9668 H   0  0  0  0  0  0
  -21.1487   -6.0501   25.9054 H   0  0  0  0  0  0
  -22.0609   -2.7570   23.2891 H   0  0  0  0  0  0
  -22.4134  -11.9866   22.4783 H   0  0  0  0  0  0
  -21.1191  -13.1281   22.2626 H   0  0  0  0  0  0
  -24.6974  -15.8645   20.5144 H   0  0  0  0  0  0
  -26.3214  -15.6076   20.1298 H   0  0  0  0  0  0
  -26.7105  -32.5481   23.1160 H   0  0  0  0  0  0
  -24.9937  -33.9723   25.0355 H   0  0  0  0  0  0
  -22.6962  -31.2986   21.3962 H   0  0  0  0  0  0
  -23.3695  -35.9707   23.3310 H   0  0  0  0  0  0
  -24.3598  -36.8953   22.2061 H   0  0  0  0  0  0
  -23.7327  -37.6559   23.6675 H   0  0  0  0  0  0
  -26.0444  -31.5861   20.5878 H   0  0  0  0  0  0
  -26.8272  -30.8822   21.9772 H   0  0  0  0  0  0
  -28.1247  -29.1085   21.1223 H   0  0  0  0  0  0
  -26.0588  -25.9160   19.0836 H   0  0  0  0  0  0
  -23.9882  -27.2433   19.0864 H   0  0  0  0  0  0
  -23.7230  -30.5658   19.4016 H   0  0  0  0  0  0
  -22.7435  -29.2072   19.8820 H   0  0  0  0  0  0
  -25.1285  -36.1908   25.0817 H   0  0  0  0  0  0
  -20.9893  -28.3256   24.1417 H   0  0  0  0  0  0
  -20.5553  -26.2310   23.3636 H   0  0  0  0  0  0
  -21.6612  -26.7406   22.1265 H   0  0  0  0  0  0
  -19.6912  -25.6294   21.1229 H   0  0  0  0  0  0
  -19.6661  -27.3192   20.6724 H   0  0  0  0  0  0
  -17.4155  -26.6625   21.4023 H   0  0  0  0  0  0
  -18.0324  -26.0046   22.9008 H   0  0  0  0  0  0
  -19.7922  -30.7210   24.2309 H   0  0  0  0  0  0
  -17.5020  -31.6266   24.5152 H   0  0  0  0  0  0
  -15.5339  -30.3015   23.7635 H   0  0  0  0  0  0
  -15.8635  -28.0829   22.7089 H   0  0  0  0  0  0
  -24.5847  -30.7118   25.7792 H   0  0  0  0  0  0
  -24.9068  -32.2854   26.5009 H   0  0  0  0  0  0
  -25.8111  -30.8743   27.0182 H   0  0  0  0  0  0
  -26.2913  -29.6736   24.1101 H   0  0  0  0  0  0
  -27.4103  -29.7230   25.4537 H   0  0  0  0  0  0
  -27.8719  -30.4316   23.9256 H   0  0  0  0  0  0
  -27.2616  -33.3510   26.2137 H   0  0  0  0  0  0
  -28.3771  -32.6946   25.0230 H   0  0  0  0  0  0
  -28.0801  -31.8368   26.5290 H   0  0  0  0  0  0
  -28.2548  -38.0129   24.7436 H   0  0  0  0  0  0
  -28.1083  -36.2656   24.6306 H   0  0  0  0  0  0
  -27.2294  -37.1488   25.8861 H   0  0  0  0  0  0
  -20.9311  -29.8779   21.6968 H   0  0  0  0  0  0
  -26.0141  -38.2815   24.1415 H   0  0  0  0  0  0
  -33.1078  -20.0066   21.1103 H   0  0  0  0  0  0
  -32.1729  -17.8582   21.8849 H   0  0  0  0  0  0
  -31.8719  -21.4247   19.4966 H   0  0  0  0  0  0
  -28.7329  -18.4560   19.3559 H   0  0  0  0  0  0
  -28.9761  -17.2166   22.0553 H   0  0  0  0  0  0
  -29.1273  -15.0891   22.1000 H   0  0  0  0  0  0
  -29.0883  -22.6188   20.2904 H   0  0  0  0  0  0
  -28.8452  -22.3452   17.2449 H   0  0  0  0  0  0
  -29.5627  -25.7381   17.6887 H   0  0  0  0  0  0
  -27.8131  -25.6589   17.6650 H   0  0  0  0  0  0
  -28.7491  -24.4064   16.8883 H   0  0  0  0  0  0
  -27.5498  -24.9659   20.8062 H   0  0  0  0  0  0
  -29.2611  -25.1166   21.0475 H   0  0  0  0  0  0
  1 25  1  0  0  0
  1 30  2  0  0  0
  1 78  1  0  0  0
  2  3  1  0  0  0
  2 25  1  0  0  0
  2 85  1  0  0  0
  2 86  1  0  0  0
  3  4  1  0  0  0
  3 87  1  0  0  0
  3 88  1  0  0  0
  4  5  1  0  0  0
  4 89  1  0  0  0
  4 90  1  0  0  0
  5  6  1  0  0  0
  5 26  1  0  0  0
  5 91  1  0  0  0
  6 25  1  0  0  0
  6 92  1  0  0  0
  6 93  1  0  0  0
  7  8  2  0  0  0
  7 26  1  0  0  0
  7 29  1  0  0  0
  8  9  1  0  0  0
  8 22  1  0  0  0
  9 10  1  0  0  0
  9 27  2  0  0  0
 10 11  2  0  0  0
 10 15  1  0  0  0
 11 12  1  0  0  0
 11 94  1  0  0  0
 12 13  2  0  0  0
 12 95  1  0  0  0
 13 14  1  0  0  0
 13 31  1  0  0  0
 14 15  2  0  0  0
 14 96  1  0  0  0
 15 97  1  0  0  0
 16 17  2  0  0  0
 16 21  1  0  0  0
 16 31  1  0  0  0
 17 18  1  0  0  0
 17 98  1  0  0  0
 18 19  2  0  0  0
 18 99  1  0  0  0
 19 20  1  0  0  0
 19 24  1  0  0  0
 20 21  2  0  0  0
 20100  1  0  0  0
 21 23  1  0  0  0
 22 28  1  0  0  0
 22 32  2  0  0  0
 26 27  1  0  0  0
 28101  1  0  0  0
 28102  1  0  0  0
 29103  1  0  0  0
 29104  1  0  0  0
 33 34  1  0  0  0
 33 66  1  0  0  0
 33 70  2  0  0  0
 34 36  1  0  0  0
 34 59  1  0  0  0
 34105  1  0  0  0
 35 44  2  0  0  0
 35 45  1  0  0  0
 35 68  1  0  0  0
 36 56  1  0  0  0
 36106  1  0  0  0
 37 39  1  0  0  0
 37 47  1  0  0  0
 37 66  1  0  0  0
 37107  1  0  0  0
 38 43  2  0  0  0
 38 46  1  0  0  0
 38 47  1  0  0  0
 39 64  1  0  0  0
 39 67  2  0  0  0
 40 52  1  0  0  0
 40 53  2  0  0  0
 40 58  1  0  0  0
 41108  1  0  0  0
 41109  1  0  0  0
 41110  1  0  0  0
 41 48  1  0  0  0
 42 43  1  0  0  0
 42 66  1  0  0  0
 42111  1  0  0  0
 42112  1  0  0  0
 43 44  1  0  0  0
 44113  1  0  0  0
 45 46  2  0  0  0
 45114  1  0  0  0
 46115  1  0  0  0
 47116  1  0  0  0
 47117  1  0  0  0
 48 56  1  0  0  0
 48 65  1  0  0  0
 48118  1  0  0  0
 49 50  1  0  0  0
 49 53  1  0  0  0
 49 64  1  0  0  0
 49119  1  0  0  0
 50 51  1  0  0  0
 50120  1  0  0  0
 50121  1  0  0  0
 51 52  1  0  0  0
 51122  1  0  0  0
 51123  1  0  0  0
 52124  1  0  0  0
 52125  1  0  0  0
 53 54  1  0  0  0
 54 55  2  0  0  0
 54126  1  0  0  0
 55 57  1  0  0  0
 55127  1  0  0  0
 56 69  2  0  0  0
 57 58  2  0  0  0
 57128  1  0  0  0
 58129  1  0  0  0
 59 60  1  0  0  0
 59 61  1  0  0  0
 59 62  1  0  0  0
 60130  1  0  0  0
 60131  1  0  0  0
 60132  1  0  0  0
 61133  1  0  0  0
 61134  1  0  0  0
 61135  1  0  0  0
 62136  1  0  0  0
 62137  1  0  0  0
 62138  1  0  0  0
 63 65  1  0  0  0
 63139  1  0  0  0
 63140  1  0  0  0
 63141  1  0  0  0
 64142  1  0  0  0
 65143  1  0  0  0
 68 83  1  0  0  0
 71 72  2  0  0  0
 71 73  1  0  0  0
 71144  1  0  0  0
 72 75  1  0  0  0
 72145  1  0  0  0
 73 76  2  0  0  0
 73146  1  0  0  0
 74 75  2  0  0  0
 74 76  1  0  0  0
 74147  1  0  0  0
 75 77  1  0  0  0
 76 84  1  0  0  0
 77 78  2  0  0  0
 77148  1  0  0  0
 78149  1  0  0  0
 79 80  1  0  0  0
 79 81  2  0  0  0
 79150  1  0  0  0
 80 84  2  0  0  0
 80151  1  0  0  0
 81 82  1  0  0  0
 81 83  1  0  0  0
 82152  1  0  0  0
 82153  1  0  0  0
 82154  1  0  0  0
 83155  1  0  0  0
 83156  1  0  0  0
M  ISO  4   1 100  68 101  78 100  83 101
M  END
> <chiral flag>
0

> <version>
0

> <s_m_source_file>
/data/baiqing/PycharmProjects/Reinvent-master-3.2/result/LINK_invent/BTK/process_docking_weight1_custom_product_contain_oxygen_bond_distance_aromatic_linkinvent_7_9_3/rearranged_h_0123.sdf

> <i_m_source_file_index>
15

> <r_mmod_Potential_Energy-OPLS-2005>
115.903480529785

> <r_mmod_Stretch_Energy-OPLS-2005>
51.9608764648438

> <r_mmod_Bend_Energy-OPLS-2005>
175.165313720703

> <r_mmod_Torsional_Energy-OPLS-2005>
240.195388793945

> <r_mmod_Improper_Torsional_Energy-OPLS-2005>
6.04935741424561

> <r_mmod_Van_der_Waal_Energy-OPLS-2005>
153.405624389648

> <r_mmod_Electrostatic_Energy-OPLS-2005>
-330.105133056641

> <r_mmod_Solvation_Energy-OPLS-2005>
-201.329696655273

> <b_mmod_Minimization_Converged-OPLS-2005>
0

> <r_mmod_RMS_Derivative-OPLS-2005>
4.44372844696045

$$$$
15
                    3D
 Structure written by MMmdl.
150158  0  0  1  0            999 V2000
  -30.5940  -14.7627   20.5191 C   0  0  0  0  0  0
  -30.4295  -12.4776   19.4945 C   0  0  0  0  0  0
  -29.5176  -12.5392   18.2487 C   0  0  0  0  0  0
  -28.0424  -12.3486   18.6484 C   0  0  0  0  0  0
  -27.6433  -13.2309   19.8606 C   0  0  2  0  0  0
  -28.6741  -13.1439   21.0042 C   0  0  0  0  0  0
  -25.2530  -13.8185   20.5720 C   0  0  0  0  0  0
  -24.1813  -13.0446   20.9200 C   0  0  0  0  0  0
  -24.6385  -11.6902   20.8702 C   0  0  0  0  0  0
  -23.9050  -10.4295   21.0360 C   0  0  0  0  0  0
  -24.3610   -9.4228   21.9155 C   0  0  0  0  0  0
  -23.6318   -8.2255   22.0755 C   0  0  0  0  0  0
  -22.4296   -8.0278   21.3551 C   0  0  0  0  0  0
  -21.9913   -9.0230   20.4640 C   0  0  0  0  0  0
  -22.7216  -10.2120   20.3037 C   0  0  0  0  0  0
  -21.6860   -6.0748   22.5285 C   0  0  0  0  0  0
  -21.4009   -6.5660   23.8215 C   0  0  0  0  0  0
  -21.3661   -5.6815   24.9180 C   0  0  0  0  0  0
  -21.6047   -4.3081   24.7232 C   0  0  0  0  0  0
  -21.8829   -3.8166   23.4350 C   0  0  0  0  0  0
  -21.9199   -4.6974   22.3403 C   0  0  0  0  0  0
  -22.7824  -13.5186   21.1900 C   0  0  0  0  0  0
  -22.1672   -4.2147   21.0985 F   0  0  0  0  0  0
  -21.5631   -3.4571   25.7750 F   0  0  0  0  0  0
  -29.9820  -13.5238   20.4524 N   0  0  0  0  0  0
  -26.2935  -12.9383   20.3285 N   0  0  0  0  0  0
  -25.9308  -11.6510   20.5714 N   0  0  0  0  0  0
  -22.0480  -12.8155   22.0436 N   0  0  0  0  0  0
  -25.4324  -15.1925   20.4189 N   0  0  0  0  0  0
  -31.7463  -14.8623   20.0809 O   0  0  0  0  0  0
  -21.6673   -6.8874   21.4239 O   0  0  0  0  0  0
  -22.3485  -14.5499   20.6780 O   0  0  0  0  0  0
  -24.6350  -31.8531   23.2001 C   0  0  0  0  0  0
  -25.9180  -32.4737   23.8332 C   0  0  1  0  0  0
  -27.2052  -27.2223   20.1476 C   0  0  0  0  0  0
  -25.5997  -33.8539   24.2289 N   0  0  0  0  0  0
  -23.4316  -30.4779   21.5430 C   0  0  2  0  0  0
  -24.8809  -28.9329   20.1049 C   0  0  0  0  0  0
  -22.7492  -29.4607   22.4917 C   0  0  0  0  0  0
  -18.0261  -28.1396   22.8472 C   0  0  0  0  0  0
  -24.1480  -36.7251   23.2633 C   0  0  0  0  0  0
  -25.9807  -30.7573   21.3860 C   0  0  0  0  0  0
  -26.0515  -29.3781   20.7288 C   0  0  0  0  0  0
  -27.2130  -28.5344   20.7453 C   0  0  0  0  0  0
  -26.0241  -26.8866   19.4405 C   0  0  0  0  0  0
  -24.8768  -27.6992   19.4430 C   0  0  0  0  0  0
  -23.6501  -29.8170   20.1584 C   0  0  0  0  0  0
  -25.4114  -36.3059   24.0333 C   0  0  1  0  0  0
  -20.5873  -28.3707   23.1262 C   0  0  2  0  0  0
  -20.6772  -26.9432   22.5400 C   0  0  0  0  0  0
  -19.5764  -26.6400   21.5186 C   0  0  0  0  0  0
  -18.1935  -26.7943   22.1588 C   0  0  0  0  0  0
  -19.1514  -28.8867   23.2866 C   0  0  0  0  0  0
  -18.9444  -30.1463   23.8882 C   0  0  0  0  0  0
  -17.6453  -30.6601   24.0557 C   0  0  0  0  0  0
  -25.9065  -34.9424   23.5099 C   0  0  0  0  0  0
  -16.5339  -29.9095   23.6351 C   0  0  0  0  0  0
  -16.7251  -28.6513   23.0373 C   0  0  0  0  0  0
  -26.4557  -31.6544   25.0703 C   0  0  0  0  0  0
  -25.3809  -31.3668   26.1446 C   0  0  0  0  0  0
  -27.0405  -30.2954   24.6195 C   0  0  0  0  0  0
  -27.6177  -32.4234   25.7437 C   0  0  0  0  0  0
  -27.5585  -37.1761   24.8473 C   0  0  0  0  0  0
  -21.4197  -29.3051   22.3648 N   0  0  0  0  0  0
  -26.4277  -37.3776   23.9437 N   0  0  0  0  0  0
  -24.7020  -31.0454   22.1003 N   0  0  0  0  0  0
  -23.4170  -28.8171   23.3053 O   0  0  0  0  0  0
  -28.2660  -26.2752   20.2853 O   0  0  0  0  0  0
  -26.5618  -34.8902   22.4651 O   0  0  0  0  0  0
  -23.5496  -32.1390   23.7282 O   0  0  0  0  0  0
  -28.9063  -19.0244   22.2596 C   0  0  0  0  0  0
  -28.6533  -20.4444   22.2306 C   0  0  0  0  0  0
  -29.4601  -18.6164   21.0737 C   0  0  0  0  0  0
  -28.9557  -20.9042   20.9689 C   0  0  0  0  0  0
  -29.9839  -17.2851   20.6077 C   0  0  0  0  0  0
  -28.7854  -22.2532   20.3157 C   0  0  0  0  0  0
  -29.8357  -15.9686   21.0476 C   0  0  0  0  0  0
  -28.5089  -23.5554   20.7463 C   0  0  0  0  0  0
  -28.1085  -21.2634   23.3754 C   0  0  0  0  0  0
  -28.1056  -24.8221   19.8557 C   0  0  0  0  0  0
  -29.4644  -19.7793   20.2627 O   0  0  0  0  0  0
  -31.4692  -12.6034   19.1927 H   0  0  0  0  0  0
  -30.3740  -11.4917   19.9570 H   0  0  0  0  0  0
  -29.8092  -11.7772   17.5243 H   0  0  0  0  0  0
  -29.6444  -13.4984   17.7479 H   0  0  0  0  0  0
  -27.8993  -11.2961   18.8927 H   0  0  0  0  0  0
  -27.3913  -12.5551   17.7977 H   0  0  0  0  0  0
  -27.6496  -14.2608   19.5028 H   0  0  0  0  0  0
  -28.7140  -12.1372   21.4222 H   0  0  0  0  0  0
  -28.3756  -13.7888   21.8293 H   0  0  0  0  0  0
  -25.2750   -9.5736   22.4715 H   0  0  0  0  0  0
  -24.0064   -7.4640   22.7460 H   0  0  0  0  0  0
  -21.0867   -8.8700   19.8912 H   0  0  0  0  0  0
  -22.3645  -10.9649   19.6158 H   0  0  0  0  0  0
  -21.1991   -7.6171   23.9699 H   0  0  0  0  0  0
  -21.1477   -6.0567   25.9078 H   0  0  0  0  0  0
  -22.0597   -2.7622   23.2874 H   0  0  0  0  0  0
  -22.4175  -11.9838   22.4812 H   0  0  0  0  0  0
  -21.1058  -13.1097   22.2583 H   0  0  0  0  0  0
  -24.6828  -15.8642   20.5388 H   0  0  0  0  0  0
  -26.3082  -15.6186   20.1416 H   0  0  0  0  0  0
  -26.7245  -32.5404   23.1070 H   0  0  0  0  0  0
  -25.0220  -33.9678   25.0483 H   0  0  0  0  0  0
  -22.7341  -31.3052   21.3977 H   0  0  0  0  0  0
  -23.3797  -35.9516   23.3203 H   0  0  0  0  0  0
  -24.3598  -36.8967   22.2071 H   0  0  0  0  0  0
  -23.7135  -37.6373   23.6718 H   0  0  0  0  0  0
  -26.1191  -31.5160   20.6148 H   0  0  0  0  0  0
  -26.8607  -30.8116   22.0153 H   0  0  0  0  0  0
  -28.0991  -28.8647   21.2699 H   0  0  0  0  0  0
  -25.9310  -25.9761   18.8743 H   0  0  0  0  0  0
  -23.9887  -27.3693   18.9197 H   0  0  0  0  0  0
  -23.7703  -30.5938   19.4036 H   0  0  0  0  0  0
  -22.7713  -29.2438   19.8552 H   0  0  0  0  0  0
  -25.1269  -36.1894   25.0824 H   0  0  0  0  0  0
  -20.9926  -28.3263   24.1395 H   0  0  0  0  0  0
  -20.5652  -26.2296   23.3583 H   0  0  0  0  0  0
  -21.6641  -26.7473   22.1211 H   0  0  0  0  0  0
  -19.6952  -25.6305   21.1238 H   0  0  0  0  0  0
  -19.6731  -27.3181   20.6696 H   0  0  0  0  0  0
  -17.4205  -26.6656   21.3999 H   0  0  0  0  0  0
  -18.0370  -26.0075   22.8979 H   0  0  0  0  0  0
  -19.7915  -30.7281   24.2252 H   0  0  0  0  0  0
  -17.5006  -31.6284   24.5172 H   0  0  0  0  0  0
  -15.5341  -30.3012   23.7699 H   0  0  0  0  0  0
  -15.8634  -28.0845   22.7119 H   0  0  0  0  0  0
  -24.5991  -30.7010   25.7761 H   0  0  0  0  0  0
  -24.8997  -32.2815   26.4909 H   0  0  0  0  0  0
  -25.8164  -30.8816   27.0193 H   0  0  0  0  0  0
  -26.2956  -29.6635   24.1334 H   0  0  0  0  0  0
  -27.4207  -29.7289   25.4712 H   0  0  0  0  0  0
  -27.8808  -30.4211   23.9360 H   0  0  0  0  0  0
  -27.2936  -33.3668   26.1833 H   0  0  0  0  0  0
  -28.4071  -32.6517   25.0262 H   0  0  0  0  0  0
  -28.0715  -31.8402   26.5460 H   0  0  0  0  0  0
  -28.2566  -38.0103   24.7606 H   0  0  0  0  0  0
  -28.1130  -36.2635   24.6202 H   0  0  0  0  0  0
  -27.2328  -37.1292   25.8883 H   0  0  0  0  0  0
  -20.9376  -29.8746   21.6839 H   0  0  0  0  0  0
  -26.0157  -38.2825   24.1506 H   0  0  0  0  0  0
  -28.7358  -18.3627   23.0989 H   0  0  0  0  0  0
  -30.6667  -17.3923   19.7763 H   0  0  0  0  0  0
  -28.8145  -22.1617   19.2397 H   0  0  0  0  0  0
  -29.1516  -15.8061   21.8655 H   0  0  0  0  0  0
  -28.4661  -23.7451   21.8090 H   0  0  0  0  0  0
  -28.2093  -20.7309   24.3225 H   0  0  0  0  0  0
  -27.0545  -21.4951   23.2199 H   0  0  0  0  0  0
  -28.6526  -22.2034   23.4683 H   0  0  0  0  0  0
  -27.0542  -24.5893   19.7321 H   0  0  0  0  0  0
  -28.5496  -24.7075   18.8688 H   0  0  0  0  0  0
  1 25  1  0  0  0
  1 30  2  0  0  0
  1 77  1  0  0  0
  2  3  1  0  0  0
  2 25  1  0  0  0
  2 82  1  0  0  0
  2 83  1  0  0  0
  3  4  1  0  0  0
  3 84  1  0  0  0
  3 85  1  0  0  0
  4  5  1  0  0  0
  4 86  1  0  0  0
  4 87  1  0  0  0
  5  6  1  0  0  0
  5 26  1  0  0  0
  5 88  1  0  0  0
  6 25  1  0  0  0
  6 89  1  0  0  0
  6 90  1  0  0  0
  7  8  2  0  0  0
  7 26  1  0  0  0
  7 29  1  0  0  0
  8  9  1  0  0  0
  8 22  1  0  0  0
  9 10  1  0  0  0
  9 27  2  0  0  0
 10 11  2  0  0  0
 10 15  1  0  0  0
 11 12  1  0  0  0
 11 91  1  0  0  0
 12 13  2  0  0  0
 12 92  1  0  0  0
 13 14  1  0  0  0
 13 31  1  0  0  0
 14 15  2  0  0  0
 14 93  1  0  0  0
 15 94  1  0  0  0
 16 17  2  0  0  0
 16 21  1  0  0  0
 16 31  1  0  0  0
 17 18  1  0  0  0
 17 95  1  0  0  0
 18 19  2  0  0  0
 18 96  1  0  0  0
 19 20  1  0  0  0
 19 24  1  0  0  0
 20 21  2  0  0  0
 20 97  1  0  0  0
 21 23  1  0  0  0
 22 28  1  0  0  0
 22 32  2  0  0  0
 26 27  1  0  0  0
 28 98  1  0  0  0
 28 99  1  0  0  0
 29100  1  0  0  0
 29101  1  0  0  0
 33 34  1  0  0  0
 33 66  1  0  0  0
 33 70  2  0  0  0
 34 36  1  0  0  0
 34 59  1  0  0  0
 34102  1  0  0  0
 35 44  2  0  0  0
 35 45  1  0  0  0
 35 68  1  0  0  0
 36 56  1  0  0  0
 36103  1  0  0  0
 37 39  1  0  0  0
 37 47  1  0  0  0
 37 66  1  0  0  0
 37104  1  0  0  0
 38 43  2  0  0  0
 38 46  1  0  0  0
 38 47  1  0  0  0
 39 64  1  0  0  0
 39 67  2  0  0  0
 40 52  1  0  0  0
 40 53  2  0  0  0
 40 58  1  0  0  0
 41105  1  0  0  0
 41106  1  0  0  0
 41107  1  0  0  0
 41 48  1  0  0  0
 42 43  1  0  0  0
 42 66  1  0  0  0
 42108  1  0  0  0
 42109  1  0  0  0
 43 44  1  0  0  0
 44110  1  0  0  0
 45 46  2  0  0  0
 45111  1  0  0  0
 46112  1  0  0  0
 47113  1  0  0  0
 47114  1  0  0  0
 48 56  1  0  0  0
 48 65  1  0  0  0
 48115  1  0  0  0
 49 50  1  0  0  0
 49 53  1  0  0  0
 49 64  1  0  0  0
 49116  1  0  0  0
 50 51  1  0  0  0
 50117  1  0  0  0
 50118  1  0  0  0
 51 52  1  0  0  0
 51119  1  0  0  0
 51120  1  0  0  0
 52121  1  0  0  0
 52122  1  0  0  0
 53 54  1  0  0  0
 54 55  2  0  0  0
 54123  1  0  0  0
 55 57  1  0  0  0
 55124  1  0  0  0
 56 69  2  0  0  0
 57 58  2  0  0  0
 57125  1  0  0  0
 58126  1  0  0  0
 59 60  1  0  0  0
 59 61  1  0  0  0
 59 62  1  0  0  0
 60127  1  0  0  0
 60128  1  0  0  0
 60129  1  0  0  0
 61130  1  0  0  0
 61131  1  0  0  0
 61132  1  0  0  0
 62133  1  0  0  0
 62134  1  0  0  0
 62135  1  0  0  0
 63 65  1  0  0  0
 63136  1  0  0  0
 63137  1  0  0  0
 63138  1  0  0  0
 64139  1  0  0  0
 65140  1  0  0  0
 68 80  1  0  0  0
 71 72  1  0  0  0
 71 73  2  0  0  0
 71141  1  0  0  0
 72 74  2  0  0  0
 72 79  1  0  0  0
 73 75  1  0  0  0
 73 81  1  0  0  0
 74 76  1  0  0  0
 74 81  1  0  0  0
 75 77  2  0  0  0
 75142  1  0  0  0
 76 78  2  0  0  0
 76143  1  0  0  0
 77144  1  0  0  0
 78 80  1  0  0  0
 78145  1  0  0  0
 79146  1  0  0  0
 79147  1  0  0  0
 79148  1  0  0  0
 80149  1  0  0  0
 80150  1  0  0  0
M  ISO  4   1 100  68 101  77 100  80 101
M  END
> <chiral flag>
0

> <version>
0

> <s_m_source_file>
/data/baiqing/PycharmProjects/Reinvent-master-3.2/result/LINK_invent/BTK/process_docking_weight1_custom_product_contain_oxygen_bond_distance_aromatic_linkinvent_7_9_3/rearranged_h_0123.sdf

> <i_m_source_file_index>
16

> <r_mmod_Potential_Energy-OPLS-2005>
188.875106811523

> <r_mmod_Stretch_Energy-OPLS-2005>
135.687393188477

> <r_mmod_Bend_Energy-OPLS-2005>
174.925155639648

> <r_mmod_Torsional_Energy-OPLS-2005>
191.977066040039

> <r_mmod_Improper_Torsional_Energy-OPLS-2005>
4.57435035705566

> <r_mmod_Van_der_Waal_Energy-OPLS-2005>
125.170120239258

> <r_mmod_Electrostatic_Energy-OPLS-2005>
-349.857604980469

> <r_mmod_Solvation_Energy-OPLS-2005>
-198.116317749023

> <b_mmod_Minimization_Converged-OPLS-2005>
0

> <r_mmod_RMS_Derivative-OPLS-2005>
3.63547039031982

$$$$
16
                    3D
 Structure written by MMmdl.
159168  0  0  1  0            999 V2000
  -30.6455  -14.5293   20.6589 C   0  0  0  0  0  0
  -30.4407  -12.3564   19.4324 C   0  0  0  0  0  0
  -29.5063  -12.5120   18.2134 C   0  0  0  0  0  0
  -28.0242  -12.3484   18.6062 C   0  0  0  0  0  0
  -27.6581  -13.1891   19.8573 C   0  0  2  0  0  0
  -28.6846  -12.9383   20.9782 C   0  0  0  0  0  0
  -25.2608  -13.8120   20.5553 C   0  0  0  0  0  0
  -24.1855  -13.0436   20.9112 C   0  0  0  0  0  0
  -24.6387  -11.6898   20.8720 C   0  0  0  0  0  0
  -23.9050  -10.4301   21.0404 C   0  0  0  0  0  0
  -24.3624   -9.4211   21.9189 C   0  0  0  0  0  0
  -23.6305   -8.2239   22.0754 C   0  0  0  0  0  0
  -22.4285   -8.0287   21.3545 C   0  0  0  0  0  0
  -21.9912   -9.0241   20.4637 C   0  0  0  0  0  0
  -22.7215  -10.2133   20.3034 C   0  0  0  0  0  0
  -21.6850   -6.0751   22.5289 C   0  0  0  0  0  0
  -21.4002   -6.5646   23.8229 C   0  0  0  0  0  0
  -21.3656   -5.6787   24.9188 C   0  0  0  0  0  0
  -21.6041   -4.3053   24.7223 C   0  0  0  0  0  0
  -21.8814   -3.8157   23.4347 C   0  0  0  0  0  0
  -21.9184   -4.6979   22.3408 C   0  0  0  0  0  0
  -22.7879  -13.5247   21.1782 C   0  0  0  0  0  0
  -22.1653   -4.2180   21.0988 F   0  0  0  0  0  0
  -21.5635   -3.4528   25.7729 F   0  0  0  0  0  0
  -30.0165  -13.3231   20.4686 N   0  0  0  0  0  0
  -26.2977  -12.9240   20.3168 N   0  0  0  0  0  0
  -25.9274  -11.6435   20.5662 N   0  0  0  0  0  0
  -22.0518  -12.8298   22.0367 N   0  0  0  0  0  0
  -25.4440  -15.1834   20.3893 N   0  0  0  0  0  0
  -31.7184  -14.7818   20.0995 O   0  0  0  0  0  0
  -21.6644   -6.8897   21.4255 O   0  0  0  0  0  0
  -22.3561  -14.5547   20.6590 O   0  0  0  0  0  0
  -24.6190  -31.8626   23.2098 C   0  0  0  0  0  0
  -25.9051  -32.4798   23.8401 C   0  0  1  0  0  0
  -27.2281  -27.3564   20.1123 C   0  0  0  0  0  0
  -25.5888  -33.8602   24.2330 N   0  0  0  0  0  0
  -23.4148  -30.4867   21.5461 C   0  0  2  0  0  0
  -24.8687  -28.9510   20.1053 C   0  0  0  0  0  0
  -22.7451  -29.4631   22.4925 C   0  0  0  0  0  0
  -18.0265  -28.1396   22.8486 C   0  0  0  0  0  0
  -24.1485  -36.7290   23.2651 C   0  0  0  0  0  0
  -25.9533  -30.7993   21.3848 C   0  0  0  0  0  0
  -26.0356  -29.4334   20.7160 C   0  0  0  0  0  0
  -27.2205  -28.6425   20.7232 C   0  0  0  0  0  0
  -26.0495  -26.9229   19.4701 C   0  0  0  0  0  0
  -24.8723  -27.6925   19.4808 C   0  0  0  0  0  0
  -23.6367  -29.8307   20.1566 C   0  0  0  0  0  0
  -25.4110  -36.3097   24.0345 C   0  0  1  0  0  0
  -20.5867  -28.3676   23.1277 C   0  0  2  0  0  0
  -20.6757  -26.9394   22.5410 C   0  0  0  0  0  0
  -19.5733  -26.6375   21.5217 C   0  0  0  0  0  0
  -18.1910  -26.7930   22.1632 C   0  0  0  0  0  0
  -19.1522  -28.8854   23.2873 C   0  0  0  0  0  0
  -18.9470  -30.1465   23.8872 C   0  0  0  0  0  0
  -17.6473  -30.6597   24.0566 C   0  0  0  0  0  0
  -25.9035  -34.9464   23.5138 C   0  0  0  0  0  0
  -16.5349  -29.9094   23.6351 C   0  0  0  0  0  0
  -16.7256  -28.6518   23.0346 C   0  0  0  0  0  0
  -26.4489  -31.6581   25.0733 C   0  0  0  0  0  0
  -25.3781  -31.3701   26.1506 C   0  0  0  0  0  0
  -27.0334  -30.3000   24.6194 C   0  0  0  0  0  0
  -27.6100  -32.4277   25.7464 C   0  0  0  0  0  0
  -27.5575  -37.1803   24.8471 C   0  0  0  0  0  0
  -21.4162  -29.3037   22.3689 N   0  0  0  0  0  0
  -26.4297  -37.3776   23.9411 N   0  0  0  0  0  0
  -24.6795  -31.0642   22.1048 N   0  0  0  0  0  0
  -23.4179  -28.8195   23.3016 O   0  0  0  0  0  0
  -28.2635  -26.4300   20.2291 O   0  0  0  0  0  0
  -26.5604  -34.8921   22.4704 O   0  0  0  0  0  0
  -23.5359  -32.1445   23.7411 O   0  0  0  0  0  0
  -30.9581  -18.0483   19.7626 C   0  0  0  0  0  0
  -29.3842  -19.2438   21.1662 C   0  0  0  0  0  0
  -30.6121  -20.4707   19.4783 C   0  0  0  0  0  0
  -30.0435  -18.0150   20.8331 C   0  0  0  0  0  0
  -31.2462  -19.2649   19.1037 C   0  0  0  0  0  0
  -29.6494  -20.4938   20.5095 C   0  0  0  0  0  0
  -28.2694  -24.0258   21.1103 C   0  0  0  0  0  0
  -29.7516  -16.7852   21.6514 C   0  0  0  0  0  0
  -27.9074  -25.3473   21.0447 C   0  0  0  0  0  0
  -29.9776  -15.4325   21.6231 C   0  0  0  0  0  0
  -27.5822  -23.1290   22.1198 C   0  0  0  0  0  0
  -29.2339  -23.0972   20.3301 C   0  0  0  0  0  0
  -27.7472  -21.7066   21.6011 C   0  0  0  0  0  0
  -32.2596  -19.2870   17.9829 C   0  0  0  0  0  0
  -28.9939  -21.7198   20.8557 N   0  0  0  0  0  0
  -31.4799  -12.5012   19.1311 H   0  0  0  0  0  0
  -30.3959  -11.3342   19.8152 H   0  0  0  0  0  0
  -29.7712  -11.7885   17.4402 H   0  0  0  0  0  0
  -29.6553  -13.5017   17.7778 H   0  0  0  0  0  0
  -27.8402  -11.2918   18.8036 H   0  0  0  0  0  0
  -27.3811  -12.6111   17.7644 H   0  0  0  0  0  0
  -27.7123  -14.2383   19.5658 H   0  0  0  0  0  0
  -28.6814  -11.8757   21.2279 H   0  0  0  0  0  0
  -28.3673  -13.4284   21.8971 H   0  0  0  0  0  0
  -25.2762   -9.5709   22.4775 H   0  0  0  0  0  0
  -24.0005   -7.4642   22.7470 H   0  0  0  0  0  0
  -21.0838   -8.8732   19.8975 H   0  0  0  0  0  0
  -22.3636  -10.9665   19.6159 H   0  0  0  0  0  0
  -21.1990   -7.6154   23.9745 H   0  0  0  0  0  0
  -21.1480   -6.0524   25.9093 H   0  0  0  0  0  0
  -22.0606   -2.7630   23.2836 H   0  0  0  0  0  0
  -22.4035  -11.9923   22.4771 H   0  0  0  0  0  0
  -21.1160  -13.1405   22.2532 H   0  0  0  0  0  0
  -24.6999  -15.8636   20.4909 H   0  0  0  0  0  0
  -26.3114  -15.5943   20.0681 H   0  0  0  0  0  0
  -26.7104  -32.5491   23.1145 H   0  0  0  0  0  0
  -25.0006  -33.9787   25.0449 H   0  0  0  0  0  0
  -22.7050  -31.3046   21.4032 H   0  0  0  0  0  0
  -23.3765  -35.9600   23.3307 H   0  0  0  0  0  0
  -24.3583  -36.8914   22.2067 H   0  0  0  0  0  0
  -23.7210  -37.6484   23.6662 H   0  0  0  0  0  0
  -26.0866  -31.5729   20.6282 H   0  0  0  0  0  0
  -26.8303  -30.8400   22.0180 H   0  0  0  0  0  0
  -28.1074  -28.9807   21.2411 H   0  0  0  0  0  0
  -26.0367  -25.9492   19.0018 H   0  0  0  0  0  0
  -23.9768  -27.3030   19.0155 H   0  0  0  0  0  0
  -23.7651  -30.6177   19.4114 H   0  0  0  0  0  0
  -22.7587  -29.2682   19.8373 H   0  0  0  0  0  0
  -25.1294  -36.1964   25.0838 H   0  0  0  0  0  0
  -20.9935  -28.3232   24.1408 H   0  0  0  0  0  0
  -20.5647  -26.2281   23.3612 H   0  0  0  0  0  0
  -21.6623  -26.7440   22.1196 H   0  0  0  0  0  0
  -19.6882  -25.6281   21.1260 H   0  0  0  0  0  0
  -19.6682  -27.3180   20.6749 H   0  0  0  0  0  0
  -17.4180  -26.6667   21.4040 H   0  0  0  0  0  0
  -18.0308  -26.0076   22.9027 H   0  0  0  0  0  0
  -19.7955  -30.7291   24.2198 H   0  0  0  0  0  0
  -17.5041  -31.6284   24.5147 H   0  0  0  0  0  0
  -15.5356  -30.3001   23.7716 H   0  0  0  0  0  0
  -15.8640  -28.0865   22.7054 H   0  0  0  0  0  0
  -24.5789  -30.7286   25.7780 H   0  0  0  0  0  0
  -24.9230  -32.2895   26.5195 H   0  0  0  0  0  0
  -25.8119  -30.8587   27.0109 H   0  0  0  0  0  0
  -26.2891  -29.6692   24.1325 H   0  0  0  0  0  0
  -27.4133  -29.7314   25.4690 H   0  0  0  0  0  0
  -27.8726  -30.4281   23.9359 H   0  0  0  0  0  0
  -27.2776  -33.3593   26.2054 H   0  0  0  0  0  0
  -28.3898  -32.6784   25.0256 H   0  0  0  0  0  0
  -28.0761  -31.8367   26.5362 H   0  0  0  0  0  0
  -28.2604  -38.0090   24.7495 H   0  0  0  0  0  0
  -28.1064  -36.2620   24.6318 H   0  0  0  0  0  0
  -27.2301  -37.1467   25.8880 H   0  0  0  0  0  0
  -20.9295  -29.8810   21.6972 H   0  0  0  0  0  0
  -26.0189  -38.2855   24.1414 H   0  0  0  0  0  0
  -31.4672  -17.1511   19.4476 H   0  0  0  0  0  0
  -28.6597  -19.2007   21.9667 H   0  0  0  0  0  0
  -30.8640  -21.3797   18.9507 H   0  0  0  0  0  0
  -29.2174  -17.0610   22.5517 H   0  0  0  0  0  0
  -27.1437  -25.6671   21.7462 H   0  0  0  0  0  0
  -29.6026  -14.9468   22.5112 H   0  0  0  0  0  0
  -26.5326  -23.3843   22.2641 H   0  0  0  0  0  0
  -28.0908  -23.2319   23.0812 H   0  0  0  0  0  0
  -30.2724  -23.3970   20.4871 H   0  0  0  0  0  0
  -29.0253  -23.1374   19.2610 H   0  0  0  0  0  0
  -26.9394  -21.4627   20.9076 H   0  0  0  0  0  0
  -27.7204  -20.9951   22.4255 H   0  0  0  0  0  0
  -32.4332  -18.2859   17.5865 H   0  0  0  0  0  0
  -33.2069  -19.6823   18.3468 H   0  0  0  0  0  0
  -31.9092  -19.9275   17.1738 H   0  0  0  0  0  0
  1 25  1  0  0  0
  1 30  2  0  0  0
  1 80  1  0  0  0
  2  3  1  0  0  0
  2 25  1  0  0  0
  2 86  1  0  0  0
  2 87  1  0  0  0
  3  4  1  0  0  0
  3 88  1  0  0  0
  3 89  1  0  0  0
  4  5  1  0  0  0
  4 90  1  0  0  0
  4 91  1  0  0  0
  5  6  1  0  0  0
  5 26  1  0  0  0
  5 92  1  0  0  0
  6 25  1  0  0  0
  6 93  1  0  0  0
  6 94  1  0  0  0
  7  8  2  0  0  0
  7 26  1  0  0  0
  7 29  1  0  0  0
  8  9  1  0  0  0
  8 22  1  0  0  0
  9 10  1  0  0  0
  9 27  2  0  0  0
 10 11  2  0  0  0
 10 15  1  0  0  0
 11 12  1  0  0  0
 11 95  1  0  0  0
 12 13  2  0  0  0
 12 96  1  0  0  0
 13 14  1  0  0  0
 13 31  1  0  0  0
 14 15  2  0  0  0
 14 97  1  0  0  0
 15 98  1  0  0  0
 16 17  2  0  0  0
 16 21  1  0  0  0
 16 31  1  0  0  0
 17 18  1  0  0  0
 17 99  1  0  0  0
 18 19  2  0  0  0
 18100  1  0  0  0
 19 20  1  0  0  0
 19 24  1  0  0  0
 20 21  2  0  0  0
 20101  1  0  0  0
 21 23  1  0  0  0
 22 28  1  0  0  0
 22 32  2  0  0  0
 26 27  1  0  0  0
 28102  1  0  0  0
 28103  1  0  0  0
 29104  1  0  0  0
 29105  1  0  0  0
 33 34  1  0  0  0
 33 66  1  0  0  0
 33 70  2  0  0  0
 34 36  1  0  0  0
 34 59  1  0  0  0
 34106  1  0  0  0
 35 44  2  0  0  0
 35 45  1  0  0  0
 35 68  1  0  0  0
 36 56  1  0  0  0
 36107  1  0  0  0
 37 39  1  0  0  0
 37 47  1  0  0  0
 37 66  1  0  0  0
 37108  1  0  0  0
 38 43  2  0  0  0
 38 46  1  0  0  0
 38 47  1  0  0  0
 39 64  1  0  0  0
 39 67  2  0  0  0
 40 52  1  0  0  0
 40 53  2  0  0  0
 40 58  1  0  0  0
 41109  1  0  0  0
 41110  1  0  0  0
 41111  1  0  0  0
 41 48  1  0  0  0
 42 43  1  0  0  0
 42 66  1  0  0  0
 42112  1  0  0  0
 42113  1  0  0  0
 43 44  1  0  0  0
 44114  1  0  0  0
 45 46  2  0  0  0
 45115  1  0  0  0
 46116  1  0  0  0
 47117  1  0  0  0
 47118  1  0  0  0
 48 56  1  0  0  0
 48 65  1  0  0  0
 48119  1  0  0  0
 49 50  1  0  0  0
 49 53  1  0  0  0
 49 64  1  0  0  0
 49120  1  0  0  0
 50 51  1  0  0  0
 50121  1  0  0  0
 50122  1  0  0  0
 51 52  1  0  0  0
 51123  1  0  0  0
 51124  1  0  0  0
 52125  1  0  0  0
 52126  1  0  0  0
 53 54  1  0  0  0
 54 55  2  0  0  0
 54127  1  0  0  0
 55 57  1  0  0  0
 55128  1  0  0  0
 56 69  2  0  0  0
 57 58  2  0  0  0
 57129  1  0  0  0
 58130  1  0  0  0
 59 60  1  0  0  0
 59 61  1  0  0  0
 59 62  1  0  0  0
 60131  1  0  0  0
 60132  1  0  0  0
 60133  1  0  0  0
 61134  1  0  0  0
 61135  1  0  0  0
 61136  1  0  0  0
 62137  1  0  0  0
 62138  1  0  0  0
 62139  1  0  0  0
 63 65  1  0  0  0
 63140  1  0  0  0
 63141  1  0  0  0
 63142  1  0  0  0
 64143  1  0  0  0
 65144  1  0  0  0
 68 79  1  0  0  0
 71 74  2  0  0  0
 71 75  1  0  0  0
 71145  1  0  0  0
 72 74  1  0  0  0
 72 76  2  0  0  0
 72146  1  0  0  0
 73 75  2  0  0  0
 73 76  1  0  0  0
 73147  1  0  0  0
 74 78  1  0  0  0
 75 84  1  0  0  0
 76 85  1  0  0  0
 77 79  2  0  0  0
 77 81  1  0  0  0
 77 82  1  0  0  0
 78 80  2  0  0  0
 78148  1  0  0  0
 79149  1  0  0  0
 80150  1  0  0  0
 81 83  1  0  0  0
 81151  1  0  0  0
 81152  1  0  0  0
 82 85  1  0  0  0
 82153  1  0  0  0
 82154  1  0  0  0
 83 85  1  0  0  0
 83155  1  0  0  0
 83156  1  0  0  0
 84157  1  0  0  0
 84158  1  0  0  0
 84159  1  0  0  0
M  ISO  4   1 100  68 101  79 101  80 100
M  END
> <chiral flag>
0

> <version>
0

> <s_m_source_file>
/data/baiqing/PycharmProjects/Reinvent-master-3.2/result/LINK_invent/BTK/process_docking_weight1_custom_product_contain_oxygen_bond_distance_aromatic_linkinvent_7_9_3/rearranged_h_0123.sdf

> <i_m_source_file_index>
17

> <r_mmod_Potential_Energy-OPLS-2005>
165.878784179688

> <r_mmod_Stretch_Energy-OPLS-2005>
63.1576614379883

> <r_mmod_Bend_Energy-OPLS-2005>
239.638885498047

> <r_mmod_Torsional_Energy-OPLS-2005>
199.200973510742

> <r_mmod_Improper_Torsional_Energy-OPLS-2005>
3.50122094154358

> <r_mmod_Van_der_Waal_Energy-OPLS-2005>
150.953994750977

> <r_mmod_Electrostatic_Energy-OPLS-2005>
-319.644989013672

> <r_mmod_Solvation_Energy-OPLS-2005>
-208.918960571289

> <b_mmod_Minimization_Converged-OPLS-2005>
0

> <r_mmod_RMS_Derivative-OPLS-2005>
5.08614683151245

$$$$
17
                    3D
 Structure written by MMmdl.
163172  0  0  1  0            999 V2000
  -30.7134  -14.4842   20.5674 C   0  0  0  0  0  0
  -30.4172  -12.3153   19.4239 C   0  0  0  0  0  0
  -29.4913  -12.5033   18.2050 C   0  0  0  0  0  0
  -28.0126  -12.3645   18.6178 C   0  0  0  0  0  0
  -27.6571  -13.2117   19.8697 C   0  0  2  0  0  0
  -28.7010  -13.0130   20.9918 C   0  0  0  0  0  0
  -25.2566  -13.8176   20.5678 C   0  0  0  0  0  0
  -24.1823  -13.0445   20.9179 C   0  0  0  0  0  0
  -24.6387  -11.6912   20.8734 C   0  0  0  0  0  0
  -23.9062  -10.4293   21.0408 C   0  0  0  0  0  0
  -24.3614   -9.4211   21.9187 C   0  0  0  0  0  0
  -23.6290   -8.2248   22.0754 C   0  0  0  0  0  0
  -22.4274   -8.0282   21.3544 C   0  0  0  0  0  0
  -21.9911   -9.0256   20.4646 C   0  0  0  0  0  0
  -22.7238  -10.2136   20.3057 C   0  0  0  0  0  0
  -21.6848   -6.0738   22.5281 C   0  0  0  0  0  0
  -21.4015   -6.5642   23.8215 C   0  0  0  0  0  0
  -21.3659   -5.6790   24.9173 C   0  0  0  0  0  0
  -21.6046   -4.3056   24.7222 C   0  0  0  0  0  0
  -21.8818   -3.8149   23.4343 C   0  0  0  0  0  0
  -21.9192   -4.6966   22.3401 C   0  0  0  0  0  0
  -22.7847  -13.5242   21.1845 C   0  0  0  0  0  0
  -22.1658   -4.2158   21.0976 F   0  0  0  0  0  0
  -21.5628   -3.4539   25.7733 F   0  0  0  0  0  0
  -30.0277  -13.3151   20.4313 N   0  0  0  0  0  0
  -26.3002  -12.9354   20.3352 N   0  0  0  0  0  0
  -25.9317  -11.6511   20.5767 N   0  0  0  0  0  0
  -22.0481  -12.8228   22.0393 N   0  0  0  0  0  0
  -25.4287  -15.1893   20.4070 N   0  0  0  0  0  0
  -31.8503  -14.6345   20.1111 O   0  0  0  0  0  0
  -21.6638   -6.8882   21.4243 O   0  0  0  0  0  0
  -22.3539  -14.5545   20.6686 O   0  0  0  0  0  0
  -24.6186  -31.8666   23.2114 C   0  0  0  0  0  0
  -25.9068  -32.4816   23.8406 C   0  0  1  0  0  0
  -27.2185  -27.3993   20.1040 C   0  0  0  0  0  0
  -25.5925  -33.8615   24.2335 N   0  0  0  0  0  0
  -23.4082  -30.4935   21.5519 C   0  0  2  0  0  0
  -24.8550  -28.9710   20.1045 C   0  0  0  0  0  0
  -22.7431  -29.4653   22.4967 C   0  0  0  0  0  0
  -18.0273  -28.1391   22.8483 C   0  0  0  0  0  0
  -24.1491  -36.7303   23.2639 C   0  0  0  0  0  0
  -25.9433  -30.8220   21.3742 C   0  0  0  0  0  0
  -26.0187  -29.4589   20.7131 C   0  0  0  0  0  0
  -27.2059  -28.6809   20.7130 C   0  0  0  0  0  0
  -26.0459  -26.9660   19.4420 C   0  0  0  0  0  0
  -24.8673  -27.7270   19.4585 C   0  0  0  0  0  0
  -23.6172  -29.8365   20.1630 C   0  0  0  0  0  0
  -25.4113  -36.3107   24.0339 C   0  0  1  0  0  0
  -20.5867  -28.3674   23.1304 C   0  0  2  0  0  0
  -20.6767  -26.9409   22.5408 C   0  0  0  0  0  0
  -19.5745  -26.6381   21.5213 C   0  0  0  0  0  0
  -18.1917  -26.7932   22.1620 C   0  0  0  0  0  0
  -19.1528  -28.8847   23.2888 C   0  0  0  0  0  0
  -18.9457  -30.1447   23.8904 C   0  0  0  0  0  0
  -17.6461  -30.6595   24.0559 C   0  0  0  0  0  0
  -25.9043  -34.9473   23.5129 C   0  0  0  0  0  0
  -16.5346  -29.9091   23.6340 C   0  0  0  0  0  0
  -16.7260  -28.6513   23.0354 C   0  0  0  0  0  0
  -26.4481  -31.6598   25.0743 C   0  0  0  0  0  0
  -25.3738  -31.3716   26.1483 C   0  0  0  0  0  0
  -27.0331  -30.3040   24.6147 C   0  0  0  0  0  0
  -27.6055  -32.4318   25.7505 C   0  0  0  0  0  0
  -27.5581  -37.1807   24.8467 C   0  0  0  0  0  0
  -21.4156  -29.3044   22.3715 N   0  0  0  0  0  0
  -26.4297  -37.3791   23.9409 N   0  0  0  0  0  0
  -24.6754  -31.0750   22.1031 N   0  0  0  0  0  0
  -23.4194  -28.8184   23.3010 O   0  0  0  0  0  0
  -28.3077  -26.5428   20.1960 O   0  0  0  0  0  0
  -26.5590  -34.8917   22.4683 O   0  0  0  0  0  0
  -23.5370  -32.1430   23.7487 O   0  0  0  0  0  0
  -29.2708  -20.4313   21.1048 C   0  0  0  0  0  0
  -31.7673  -20.8144   22.2874 C   0  0  0  0  0  0
  -29.6609  -17.9852   21.0557 C   0  0  0  0  0  0
  -31.7658  -17.0841   21.8775 C   0  0  0  0  0  0
  -30.0983  -19.3052   21.3551 C   0  0  0  0  0  0
  -31.3727  -19.5025   21.9380 C   0  0  0  0  0  0
  -29.6454  -21.7557   21.4777 C   0  0  0  0  0  0
  -30.9158  -21.9250   22.0933 C   0  0  0  0  0  0
  -32.2121  -18.3861   22.1872 C   0  0  0  0  0  0
  -30.4896  -16.8608   21.3127 C   0  0  0  0  0  0
  -28.9536  -24.1346   20.8614 C   0  0  0  0  0  0
  -28.6633  -22.8804   21.3183 C   0  0  0  0  0  0
  -31.3800  -23.2672   22.6392 C   0  0  0  0  0  0
  -33.5919  -18.5512   22.8061 C   0  0  0  0  0  0
  -27.2563  -22.5119   21.7874 C   0  0  0  0  0  0
  -27.9158  -25.2600   20.7610 C   0  0  0  0  0  0
  -30.0132  -15.5293   21.0654 N   0  0  0  0  0  0
  -31.4631  -12.4052   19.1238 H   0  0  0  0  0  0
  -30.3136  -11.3094   19.8338 H   0  0  0  0  0  0
  -29.7332  -11.7724   17.4320 H   0  0  0  0  0  0
  -29.6590  -13.4866   17.7614 H   0  0  0  0  0  0
  -27.8231  -11.3089   18.8167 H   0  0  0  0  0  0
  -27.3637  -12.6363   17.7845 H   0  0  0  0  0  0
  -27.6941  -14.2570   19.5618 H   0  0  0  0  0  0
  -28.6803  -11.9824   21.3493 H   0  0  0  0  0  0
  -28.4652  -13.6291   21.8606 H   0  0  0  0  0  0
  -25.2762   -9.5684   22.4757 H   0  0  0  0  0  0
  -24.0000   -7.4639   22.7470 H   0  0  0  0  0  0
  -21.0849   -8.8778   19.8945 H   0  0  0  0  0  0
  -22.3709  -10.9672   19.6159 H   0  0  0  0  0  0
  -21.2007   -7.6148   23.9722 H   0  0  0  0  0  0
  -21.1482   -6.0519   25.9076 H   0  0  0  0  0  0
  -22.0598   -2.7614   23.2839 H   0  0  0  0  0  0
  -22.4087  -11.9890   22.4788 H   0  0  0  0  0  0
  -21.1096  -13.1260   22.2588 H   0  0  0  0  0  0
  -24.6619  -15.8450   20.5097 H   0  0  0  0  0  0
  -26.2781  -15.6264   20.0725 H   0  0  0  0  0  0
  -26.7137  -32.5514   23.1165 H   0  0  0  0  0  0
  -25.0121  -33.9779   25.0509 H   0  0  0  0  0  0
  -22.6977  -31.3119   21.4160 H   0  0  0  0  0  0
  -23.3755  -35.9635   23.3317 H   0  0  0  0  0  0
  -24.3590  -36.8913   22.2054 H   0  0  0  0  0  0
  -23.7244  -37.6512   23.6636 H   0  0  0  0  0  0
  -26.0673  -31.5919   20.6119 H   0  0  0  0  0  0
  -26.8257  -30.8663   22.0009 H   0  0  0  0  0  0
  -28.0934  -29.0382   21.2157 H   0  0  0  0  0  0
  -26.0181  -26.0241   18.9149 H   0  0  0  0  0  0
  -23.9791  -27.3541   18.9686 H   0  0  0  0  0  0
  -23.7200  -30.6154   19.4061 H   0  0  0  0  0  0
  -22.7414  -29.2551   19.8695 H   0  0  0  0  0  0
  -25.1292  -36.1980   25.0833 H   0  0  0  0  0  0
  -20.9938  -28.3233   24.1434 H   0  0  0  0  0  0
  -20.5689  -26.2282   23.3597 H   0  0  0  0  0  0
  -21.6632  -26.7462   22.1188 H   0  0  0  0  0  0
  -19.6916  -25.6292   21.1242 H   0  0  0  0  0  0
  -19.6697  -27.3187   20.6743 H   0  0  0  0  0  0
  -17.4191  -26.6684   21.4013 H   0  0  0  0  0  0
  -18.0311  -26.0071   22.9017 H   0  0  0  0  0  0
  -19.7936  -30.7258   24.2269 H   0  0  0  0  0  0
  -17.5023  -31.6281   24.5153 H   0  0  0  0  0  0
  -15.5349  -30.3003   23.7670 H   0  0  0  0  0  0
  -15.8654  -28.0836   22.7077 H   0  0  0  0  0  0
  -24.5904  -30.7078   25.7803 H   0  0  0  0  0  0
  -24.8938  -32.2884   26.4917 H   0  0  0  0  0  0
  -25.8073  -30.8878   27.0247 H   0  0  0  0  0  0
  -26.2897  -29.6795   24.1178 H   0  0  0  0  0  0
  -27.4084  -29.7283   25.4620 H   0  0  0  0  0  0
  -27.8735  -30.4366   23.9330 H   0  0  0  0  0  0
  -27.2674  -33.3613   26.2090 H   0  0  0  0  0  0
  -28.3852  -32.6889   25.0323 H   0  0  0  0  0  0
  -28.0726  -31.8447   26.5423 H   0  0  0  0  0  0
  -28.2593  -38.0103   24.7504 H   0  0  0  0  0  0
  -28.1081  -36.2638   24.6298 H   0  0  0  0  0  0
  -27.2294  -37.1460   25.8867 H   0  0  0  0  0  0
  -20.9311  -29.8807   21.6975 H   0  0  0  0  0  0
  -26.0197  -38.2877   24.1395 H   0  0  0  0  0  0
  -28.3066  -20.2611   20.6492 H   0  0  0  0  0  0
  -32.7245  -20.9821   22.7583 H   0  0  0  0  0  0
  -28.6785  -17.8362   20.6303 H   0  0  0  0  0  0
  -32.4108  -16.2446   22.0976 H   0  0  0  0  0  0
  -29.9555  -24.3824   20.5429 H   0  0  0  0  0  0
  -32.1485  -23.1373   23.4018 H   0  0  0  0  0  0
  -30.5590  -23.8048   23.1138 H   0  0  0  0  0  0
  -31.7993  -23.8864   21.8470 H   0  0  0  0  0  0
  -34.1258  -17.6024   22.8600 H   0  0  0  0  0  0
  -33.5121  -18.9447   23.8197 H   0  0  0  0  0  0
  -34.2014  -19.2347   22.2146 H   0  0  0  0  0  0
  -26.7985  -21.7870   21.1159 H   0  0  0  0  0  0
  -26.5700  -23.3529   21.8527 H   0  0  0  0  0  0
  -27.3001  -22.0691   22.7830 H   0  0  0  0  0  0
  -27.5268  -25.4430   21.7644 H   0  0  0  0  0  0
  -27.1084  -24.8056   20.1918 H   0  0  0  0  0  0
  -29.0346  -15.3569   21.2342 H   0  0  0  0  0  0
  1 25  1  0  0  0
  1 30  2  0  0  0
  1 87  1  0  0  0
  2  3  1  0  0  0
  2 25  1  0  0  0
  2 88  1  0  0  0
  2 89  1  0  0  0
  3  4  1  0  0  0
  3 90  1  0  0  0
  3 91  1  0  0  0
  4  5  1  0  0  0
  4 92  1  0  0  0
  4 93  1  0  0  0
  5  6  1  0  0  0
  5 26  1  0  0  0
  5 94  1  0  0  0
  6 25  1  0  0  0
  6 95  1  0  0  0
  6 96  1  0  0  0
  7  8  2  0  0  0
  7 26  1  0  0  0
  7 29  1  0  0  0
  8  9  1  0  0  0
  8 22  1  0  0  0
  9 10  1  0  0  0
  9 27  2  0  0  0
 10 11  2  0  0  0
 10 15  1  0  0  0
 11 12  1  0  0  0
 11 97  1  0  0  0
 12 13  2  0  0  0
 12 98  1  0  0  0
 13 14  1  0  0  0
 13 31  1  0  0  0
 14 15  2  0  0  0
 14 99  1  0  0  0
 15100  1  0  0  0
 16 17  2  0  0  0
 16 21  1  0  0  0
 16 31  1  0  0  0
 17 18  1  0  0  0
 17101  1  0  0  0
 18 19  2  0  0  0
 18102  1  0  0  0
 19 20  1  0  0  0
 19 24  1  0  0  0
 20 21  2  0  0  0
 20103  1  0  0  0
 21 23  1  0  0  0
 22 28  1  0  0  0
 22 32  2  0  0  0
 26 27  1  0  0  0
 28104  1  0  0  0
 28105  1  0  0  0
 29106  1  0  0  0
 29107  1  0  0  0
 33 34  1  0  0  0
 33 66  1  0  0  0
 33 70  2  0  0  0
 34 36  1  0  0  0
 34 59  1  0  0  0
 34108  1  0  0  0
 35 44  2  0  0  0
 35 45  1  0  0  0
 35 68  1  0  0  0
 36 56  1  0  0  0
 36109  1  0  0  0
 37 39  1  0  0  0
 37 47  1  0  0  0
 37 66  1  0  0  0
 37110  1  0  0  0
 38 43  2  0  0  0
 38 46  1  0  0  0
 38 47  1  0  0  0
 39 64  1  0  0  0
 39 67  2  0  0  0
 40 52  1  0  0  0
 40 53  2  0  0  0
 40 58  1  0  0  0
 41111  1  0  0  0
 41112  1  0  0  0
 41113  1  0  0  0
 41 48  1  0  0  0
 42 43  1  0  0  0
 42 66  1  0  0  0
 42114  1  0  0  0
 42115  1  0  0  0
 43 44  1  0  0  0
 44116  1  0  0  0
 45 46  2  0  0  0
 45117  1  0  0  0
 46118  1  0  0  0
 47119  1  0  0  0
 47120  1  0  0  0
 48 56  1  0  0  0
 48 65  1  0  0  0
 48121  1  0  0  0
 49 50  1  0  0  0
 49 53  1  0  0  0
 49 64  1  0  0  0
 49122  1  0  0  0
 50 51  1  0  0  0
 50123  1  0  0  0
 50124  1  0  0  0
 51 52  1  0  0  0
 51125  1  0  0  0
 51126  1  0  0  0
 52127  1  0  0  0
 52128  1  0  0  0
 53 54  1  0  0  0
 54 55  2  0  0  0
 54129  1  0  0  0
 55 57  1  0  0  0
 55130  1  0  0  0
 56 69  2  0  0  0
 57 58  2  0  0  0
 57131  1  0  0  0
 58132  1  0  0  0
 59 60  1  0  0  0
 59 61  1  0  0  0
 59 62  1  0  0  0
 60133  1  0  0  0
 60134  1  0  0  0
 60135  1  0  0  0
 61136  1  0  0  0
 61137  1  0  0  0
 61138  1  0  0  0
 62139  1  0  0  0
 62140  1  0  0  0
 62141  1  0  0  0
 63 65  1  0  0  0
 63142  1  0  0  0
 63143  1  0  0  0
 63144  1  0  0  0
 64145  1  0  0  0
 65146  1  0  0  0
 68 86  1  0  0  0
 71 75  2  0  0  0
 71 77  1  0  0  0
 71147  1  0  0  0
 72 76  2  0  0  0
 72 78  1  0  0  0
 72148  1  0  0  0
 73 75  1  0  0  0
 73 80  2  0  0  0
 73149  1  0  0  0
 74 79  2  0  0  0
 74 80  1  0  0  0
 74150  1  0  0  0
 75 76  1  0  0  0
 76 79  1  0  0  0
 77 78  2  0  0  0
 77 82  1  0  0  0
 78 83  1  0  0  0
 79 84  1  0  0  0
 80 87  1  0  0  0
 81 82  2  0  0  0
 81 86  1  0  0  0
 81151  1  0  0  0
 82 85  1  0  0  0
 83152  1  0  0  0
 83153  1  0  0  0
 83154  1  0  0  0
 84155  1  0  0  0
 84156  1  0  0  0
 84157  1  0  0  0
 85158  1  0  0  0
 85159  1  0  0  0
 85160  1  0  0  0
 86161  1  0  0  0
 86162  1  0  0  0
 87163  1  0  0  0
M  ISO  4   1 100  68 101  86 101  87 100
M  END
> <chiral flag>
0

> <version>
0

> <s_m_source_file>
/data/baiqing/PycharmProjects/Reinvent-master-3.2/result/LINK_invent/BTK/process_docking_weight1_custom_product_contain_oxygen_bond_distance_aromatic_linkinvent_7_9_3/rearranged_h_0123.sdf

> <i_m_source_file_index>
18

> <r_mmod_Potential_Energy-OPLS-2005>
34.9679489135742

> <r_mmod_Stretch_Energy-OPLS-2005>
48.6862640380859

> <r_mmod_Bend_Energy-OPLS-2005>
102.49543762207

> <r_mmod_Torsional_Energy-OPLS-2005>
248.318603515625

> <r_mmod_Improper_Torsional_Energy-OPLS-2005>
4.78347730636597

> <r_mmod_Van_der_Waal_Energy-OPLS-2005>
190.214553833008

> <r_mmod_Electrostatic_Energy-OPLS-2005>
-379.495941162109

> <r_mmod_Solvation_Energy-OPLS-2005>
-203.633636474609

> <b_mmod_Minimization_Converged-OPLS-2005>
0

> <r_mmod_RMS_Derivative-OPLS-2005>
1.56571078300476

$$$$
18
                    3D
 Structure written by MMmdl.
158166  0  0  1  0            999 V2000
  -30.6857  -14.6018   20.4649 C   0  0  0  0  0  0
  -30.4108  -12.3591   19.4771 C   0  0  0  0  0  0
  -29.5045  -12.4935   18.2345 C   0  0  0  0  0  0
  -28.0242  -12.3489   18.6351 C   0  0  0  0  0  0
  -27.6459  -13.2327   19.8545 C   0  0  2  0  0  0
  -28.6834  -13.1271   20.9911 C   0  0  0  0  0  0
  -25.2530  -13.8217   20.5697 C   0  0  0  0  0  0
  -24.1807  -13.0463   20.9182 C   0  0  0  0  0  0
  -24.6394  -11.6936   20.8729 C   0  0  0  0  0  0
  -23.9075  -10.4305   21.0397 C   0  0  0  0  0  0
  -24.3627   -9.4218   21.9175 C   0  0  0  0  0  0
  -23.6301   -8.2254   22.0746 C   0  0  0  0  0  0
  -22.4281   -8.0287   21.3539 C   0  0  0  0  0  0
  -21.9913   -9.0259   20.4644 C   0  0  0  0  0  0
  -22.7241  -10.2142   20.3050 C   0  0  0  0  0  0
  -21.6860   -6.0736   22.5275 C   0  0  0  0  0  0
  -21.4017   -6.5638   23.8205 C   0  0  0  0  0  0
  -21.3661   -5.6794   24.9168 C   0  0  0  0  0  0
  -21.6048   -4.3055   24.7220 C   0  0  0  0  0  0
  -21.8820   -3.8143   23.4342 C   0  0  0  0  0  0
  -21.9194   -4.6964   22.3400 C   0  0  0  0  0  0
  -22.7828  -13.5241   21.1857 C   0  0  0  0  0  0
  -22.1661   -4.2151   21.0978 F   0  0  0  0  0  0
  -21.5632   -3.4541   25.7734 F   0  0  0  0  0  0
  -30.0075  -13.4128   20.4323 N   0  0  0  0  0  0
  -26.2956  -12.9429   20.3292 N   0  0  0  0  0  0
  -25.9330  -11.6565   20.5742 N   0  0  0  0  0  0
  -22.0490  -12.8219   22.0421 N   0  0  0  0  0  0
  -25.4262  -15.1935   20.4160 N   0  0  0  0  0  0
  -31.8724  -14.6483   20.1333 O   0  0  0  0  0  0
  -21.6648   -6.8879   21.4237 O   0  0  0  0  0  0
  -22.3500  -14.5544   20.6713 O   0  0  0  0  0  0
  -24.6229  -31.8613   23.2051 C   0  0  0  0  0  0
  -25.9089  -32.4786   23.8370 C   0  0  1  0  0  0
  -27.2169  -27.3477   20.1239 C   0  0  0  0  0  0
  -25.5926  -33.8588   24.2300 N   0  0  0  0  0  0
  -23.4153  -30.4846   21.5466 C   0  0  2  0  0  0
  -24.8612  -28.9423   20.1113 C   0  0  0  0  0  0
  -22.7455  -29.4629   22.4954 C   0  0  0  0  0  0
  -18.0280  -28.1382   22.8487 C   0  0  0  0  0  0
  -24.1486  -36.7292   23.2631 C   0  0  0  0  0  0
  -25.9527  -30.8026   21.3703 C   0  0  0  0  0  0
  -26.0280  -29.4320   20.7135 C   0  0  0  0  0  0
  -27.2145  -28.6464   20.7077 C   0  0  0  0  0  0
  -26.0351  -26.8984   19.5003 C   0  0  0  0  0  0
  -24.8649  -27.6801   19.4951 C   0  0  0  0  0  0
  -23.6277  -29.8186   20.1611 C   0  0  0  0  0  0
  -25.4105  -36.3087   24.0334 C   0  0  1  0  0  0
  -20.5880  -28.3678   23.1301 C   0  0  2  0  0  0
  -20.6770  -26.9402   22.5425 C   0  0  0  0  0  0
  -19.5753  -26.6382   21.5218 C   0  0  0  0  0  0
  -18.1925  -26.7933   22.1611 C   0  0  0  0  0  0
  -19.1531  -28.8847   23.2891 C   0  0  0  0  0  0
  -18.9451  -30.1450   23.8906 C   0  0  0  0  0  0
  -17.6451  -30.6585   24.0563 C   0  0  0  0  0  0
  -25.9047  -34.9458   23.5115 C   0  0  0  0  0  0
  -16.5343  -29.9082   23.6332 C   0  0  0  0  0  0
  -16.7266  -28.6500   23.0352 C   0  0  0  0  0  0
  -26.4488  -31.6587   25.0728 C   0  0  0  0  0  0
  -25.3738  -31.3731   26.1476 C   0  0  0  0  0  0
  -27.0303  -30.3005   24.6167 C   0  0  0  0  0  0
  -27.6074  -32.4308   25.7472 C   0  0  0  0  0  0
  -27.5603  -37.1768   24.8437 C   0  0  0  0  0  0
  -21.4173  -29.3033   22.3695 N   0  0  0  0  0  0
  -26.4269  -37.3795   23.9448 N   0  0  0  0  0  0
  -24.6821  -31.0655   22.0980 N   0  0  0  0  0  0
  -23.4189  -28.8172   23.3028 O   0  0  0  0  0  0
  -28.3231  -26.5022   20.1495 O   0  0  0  0  0  0
  -26.5610  -34.8922   22.4679 O   0  0  0  0  0  0
  -23.5403  -32.1396   23.7401 O   0  0  0  0  0  0
  -29.4482  -16.4107   21.8716 C   0  0  0  0  0  0
  -29.6258  -18.2749   19.7791 C   0  0  0  0  0  0
  -29.9947  -15.9646   20.6432 C   0  0  0  0  0  0
  -29.0167  -17.7597   22.0559 C   0  0  0  0  0  0
  -29.1151  -18.7337   21.0175 C   0  0  0  0  0  0
  -30.0547  -16.9305   19.5979 C   0  0  0  0  0  0
  -26.9522  -17.9005   23.5132 C   0  0  0  0  0  0
  -28.4605  -18.1559   23.4144 C   0  0  0  0  0  0
  -28.6170  -23.8753   20.0874 C   0  0  0  0  0  0
  -28.4459  -22.5416   20.9307 C   0  0  0  0  0  0
  -28.1228  -25.1985   20.8023 C   0  0  0  0  0  0
  -28.9237  -21.1526   20.3370 C   0  0  0  0  0  0
  -28.7080  -20.0559   21.2723 O   0  0  0  0  0  0
  -30.5510  -16.5818   18.3846 F   0  0  0  0  0  0
  -31.4602  -12.4290   19.1853 H   0  0  0  0  0  0
  -30.2977  -11.3739   19.9323 H   0  0  0  0  0  0
  -29.7659  -11.7374   17.4931 H   0  0  0  0  0  0
  -29.6661  -13.4614   17.7573 H   0  0  0  0  0  0
  -27.8499  -11.2981   18.8699 H   0  0  0  0  0  0
  -27.3780  -12.5809   17.7880 H   0  0  0  0  0  0
  -27.6581  -14.2642   19.5014 H   0  0  0  0  0  0
  -28.6741  -12.1292   21.4319 H   0  0  0  0  0  0
  -28.4355  -13.8151   21.7986 H   0  0  0  0  0  0
  -25.2779   -9.5702   22.4745 H   0  0  0  0  0  0
  -24.0015   -7.4651   22.7462 H   0  0  0  0  0  0
  -21.0843   -8.8777   19.8955 H   0  0  0  0  0  0
  -22.3690  -10.9680   19.6162 H   0  0  0  0  0  0
  -21.2005   -7.6147   23.9711 H   0  0  0  0  0  0
  -21.1484   -6.0521   25.9074 H   0  0  0  0  0  0
  -22.0598   -2.7608   23.2840 H   0  0  0  0  0  0
  -22.4123  -11.9882   22.4794 H   0  0  0  0  0  0
  -21.1112  -13.1230   22.2650 H   0  0  0  0  0  0
  -24.6702  -15.8564   20.5470 H   0  0  0  0  0  0
  -26.2969  -15.6339   20.1473 H   0  0  0  0  0  0
  -26.7161  -32.5464   23.1125 H   0  0  0  0  0  0
  -25.0096  -33.9740   25.0464 H   0  0  0  0  0  0
  -22.7077  -31.3040   21.4048 H   0  0  0  0  0  0
  -23.3784  -35.9583   23.3203 H   0  0  0  0  0  0
  -24.3612  -36.9004   22.2068 H   0  0  0  0  0  0
  -23.7175  -37.6441   23.6707 H   0  0  0  0  0  0
  -26.0793  -31.5680   20.6037 H   0  0  0  0  0  0
  -26.8349  -30.8514   21.9969 H   0  0  0  0  0  0
  -28.1124  -29.0153   21.1832 H   0  0  0  0  0  0
  -26.0120  -25.9253   19.0310 H   0  0  0  0  0  0
  -23.9703  -27.2993   19.0215 H   0  0  0  0  0  0
  -23.7427  -30.5950   19.4039 H   0  0  0  0  0  0
  -22.7494  -29.2443   19.8608 H   0  0  0  0  0  0
  -25.1270  -36.1925   25.0822 H   0  0  0  0  0  0
  -20.9958  -28.3242   24.1428 H   0  0  0  0  0  0
  -20.5664  -26.2281   23.3616 H   0  0  0  0  0  0
  -21.6641  -26.7433   22.1221 H   0  0  0  0  0  0
  -19.6911  -25.6293   21.1247 H   0  0  0  0  0  0
  -19.6708  -27.3196   20.6754 H   0  0  0  0  0  0
  -17.4204  -26.6700   21.3998 H   0  0  0  0  0  0
  -18.0301  -26.0067   22.8991 H   0  0  0  0  0  0
  -19.7923  -30.7269   24.2275 H   0  0  0  0  0  0
  -17.5001  -31.6271   24.5155 H   0  0  0  0  0  0
  -15.5343  -30.2982   23.7662 H   0  0  0  0  0  0
  -15.8661  -28.0821   22.7069 H   0  0  0  0  0  0
  -24.5928  -30.7048   25.7830 H   0  0  0  0  0  0
  -24.8913  -32.2895   26.4886 H   0  0  0  0  0  0
  -25.8088  -30.8941   27.0256 H   0  0  0  0  0  0
  -26.2854  -29.6769   24.1209 H   0  0  0  0  0  0
  -27.4008  -29.7253   25.4663 H   0  0  0  0  0  0
  -27.8729  -30.4275   23.9366 H   0  0  0  0  0  0
  -27.2718  -33.3620   26.2044 H   0  0  0  0  0  0
  -28.3878  -32.6840   25.0281 H   0  0  0  0  0  0
  -28.0746  -31.8428   26.5382 H   0  0  0  0  0  0
  -28.2519  -38.0167   24.7647 H   0  0  0  0  0  0
  -28.1202  -36.2718   24.6036 H   0  0  0  0  0  0
  -27.2365  -37.1133   25.8840 H   0  0  0  0  0  0
  -20.9339  -29.8743   21.6904 H   0  0  0  0  0  0
  -26.0145  -38.2842   24.1566 H   0  0  0  0  0  0
  -29.4077  -15.7248   22.7062 H   0  0  0  0  0  0
  -29.7133  -18.9533   18.9440 H   0  0  0  0  0  0
  -26.5706  -18.1961   24.4910 H   0  0  0  0  0  0
  -26.7211  -16.8442   23.3715 H   0  0  0  0  0  0
  -26.4077  -18.4672   22.7573 H   0  0  0  0  0  0
  -28.6753  -19.2058   23.6162 H   0  0  0  0  0  0
  -28.9789  -17.5957   24.1939 H   0  0  0  0  0  0
  -28.0828  -23.7668   19.1429 H   0  0  0  0  0  0
  -29.6685  -23.9910   19.8247 H   0  0  0  0  0  0
  -27.3915  -22.4421   21.1886 H   0  0  0  0  0  0
  -28.9589  -22.6838   21.8824 H   0  0  0  0  0  0
  -28.6445  -25.2692   21.7573 H   0  0  0  0  0  0
  -27.0762  -25.0576   21.0768 H   0  0  0  0  0  0
  -29.9849  -21.2070   20.0902 H   0  0  0  0  0  0
  -28.3878  -20.9455   19.4100 H   0  0  0  0  0  0
  1 25  1  0  0  0
  1 30  2  0  0  0
  1 73  1  0  0  0
  2  3  1  0  0  0
  2 25  1  0  0  0
  2 85  1  0  0  0
  2 86  1  0  0  0
  3  4  1  0  0  0
  3 87  1  0  0  0
  3 88  1  0  0  0
  4  5  1  0  0  0
  4 89  1  0  0  0
  4 90  1  0  0  0
  5  6  1  0  0  0
  5 26  1  0  0  0
  5 91  1  0  0  0
  6 25  1  0  0  0
  6 92  1  0  0  0
  6 93  1  0  0  0
  7  8  2  0  0  0
  7 26  1  0  0  0
  7 29  1  0  0  0
  8  9  1  0  0  0
  8 22  1  0  0  0
  9 10  1  0  0  0
  9 27  2  0  0  0
 10 11  2  0  0  0
 10 15  1  0  0  0
 11 12  1  0  0  0
 11 94  1  0  0  0
 12 13  2  0  0  0
 12 95  1  0  0  0
 13 14  1  0  0  0
 13 31  1  0  0  0
 14 15  2  0  0  0
 14 96  1  0  0  0
 15 97  1  0  0  0
 16 17  2  0  0  0
 16 21  1  0  0  0
 16 31  1  0  0  0
 17 18  1  0  0  0
 17 98  1  0  0  0
 18 19  2  0  0  0
 18 99  1  0  0  0
 19 20  1  0  0  0
 19 24  1  0  0  0
 20 21  2  0  0  0
 20100  1  0  0  0
 21 23  1  0  0  0
 22 28  1  0  0  0
 22 32  2  0  0  0
 26 27  1  0  0  0
 28101  1  0  0  0
 28102  1  0  0  0
 29103  1  0  0  0
 29104  1  0  0  0
 33 34  1  0  0  0
 33 66  1  0  0  0
 33 70  2  0  0  0
 34 36  1  0  0  0
 34 59  1  0  0  0
 34105  1  0  0  0
 35 44  2  0  0  0
 35 45  1  0  0  0
 35 68  1  0  0  0
 36 56  1  0  0  0
 36106  1  0  0  0
 37 39  1  0  0  0
 37 47  1  0  0  0
 37 66  1  0  0  0
 37107  1  0  0  0
 38 43  2  0  0  0
 38 46  1  0  0  0
 38 47  1  0  0  0
 39 64  1  0  0  0
 39 67  2  0  0  0
 40 52  1  0  0  0
 40 53  2  0  0  0
 40 58  1  0  0  0
 41108  1  0  0  0
 41109  1  0  0  0
 41110  1  0  0  0
 41 48  1  0  0  0
 42 43  1  0  0  0
 42 66  1  0  0  0
 42111  1  0  0  0
 42112  1  0  0  0
 43 44  1  0  0  0
 44113  1  0  0  0
 45 46  2  0  0  0
 45114  1  0  0  0
 46115  1  0  0  0
 47116  1  0  0  0
 47117  1  0  0  0
 48 56  1  0  0  0
 48 65  1  0  0  0
 48118  1  0  0  0
 49 50  1  0  0  0
 49 53  1  0  0  0
 49 64  1  0  0  0
 49119  1  0  0  0
 50 51  1  0  0  0
 50120  1  0  0  0
 50121  1  0  0  0
 51 52  1  0  0  0
 51122  1  0  0  0
 51123  1  0  0  0
 52124  1  0  0  0
 52125  1  0  0  0
 53 54  1  0  0  0
 54 55  2  0  0  0
 54126  1  0  0  0
 55 57  1  0  0  0
 55127  1  0  0  0
 56 69  2  0  0  0
 57 58  2  0  0  0
 57128  1  0  0  0
 58129  1  0  0  0
 59 60  1  0  0  0
 59 61  1  0  0  0
 59 62  1  0  0  0
 60130  1  0  0  0
 60131  1  0  0  0
 60132  1  0  0  0
 61133  1  0  0  0
 61134  1  0  0  0
 61135  1  0  0  0
 62136  1  0  0  0
 62137  1  0  0  0
 62138  1  0  0  0
 63 65  1  0  0  0
 63139  1  0  0  0
 63140  1  0  0  0
 63141  1  0  0  0
 64142  1  0  0  0
 65143  1  0  0  0
 68 81  1  0  0  0
 71 73  2  0  0  0
 71 74  1  0  0  0
 71144  1  0  0  0
 72 75  1  0  0  0
 72 76  2  0  0  0
 72145  1  0  0  0
 73 76  1  0  0  0
 74 75  2  0  0  0
 74 78  1  0  0  0
 75 83  1  0  0  0
 76 84  1  0  0  0
 77 78  1  0  0  0
 77146  1  0  0  0
 77147  1  0  0  0
 77148  1  0  0  0
 78149  1  0  0  0
 78150  1  0  0  0
 79 80  1  0  0  0
 79 81  1  0  0  0
 79151  1  0  0  0
 79152  1  0  0  0
 80 82  1  0  0  0
 80153  1  0  0  0
 80154  1  0  0  0
 81155  1  0  0  0
 81156  1  0  0  0
 82 83  1  0  0  0
 82157  1  0  0  0
 82158  1  0  0  0
M  ISO  4   1 100  68 101  73 100  81 101
M  END
> <chiral flag>
0

> <version>
0

> <s_m_source_file>
/data/baiqing/PycharmProjects/Reinvent-master-3.2/result/LINK_invent/BTK/process_docking_weight1_custom_product_contain_oxygen_bond_distance_aromatic_linkinvent_7_9_3/rearranged_h_0123.sdf

> <i_m_source_file_index>
19

> <r_mmod_Potential_Energy-OPLS-2005>
117.022903442383

> <r_mmod_Stretch_Energy-OPLS-2005>
66.3367767333984

> <r_mmod_Bend_Energy-OPLS-2005>
131.515609741211

> <r_mmod_Torsional_Energy-OPLS-2005>
224.591217041016

> <r_mmod_Improper_Torsional_Energy-OPLS-2005>
6.05477809906006

> <r_mmod_Van_der_Waal_Energy-OPLS-2005>
133.105194091797

> <r_mmod_Electrostatic_Energy-OPLS-2005>
-302.032073974609

> <r_mmod_Solvation_Energy-OPLS-2005>
-185.393646240234

> <b_mmod_Minimization_Converged-OPLS-2005>
0

> <r_mmod_RMS_Derivative-OPLS-2005>
0.906897366046906

$$$$
19
                    3D
 Structure written by MMmdl.
153161  0  0  1  0            999 V2000
  -30.5870  -14.7616   20.5281 C   0  0  0  0  0  0
  -30.4495  -12.4768   19.4828 C   0  0  0  0  0  0
  -29.5208  -12.5369   18.2471 C   0  0  0  0  0  0
  -28.0472  -12.3482   18.6538 C   0  0  0  0  0  0
  -27.6534  -13.2281   19.8689 C   0  0  2  0  0  0
  -28.6957  -13.1205   21.0071 C   0  0  0  0  0  0
  -25.2471  -13.8085   20.5514 C   0  0  0  0  0  0
  -24.1801  -13.0373   20.9175 C   0  0  0  0  0  0
  -24.6421  -11.6868   20.8769 C   0  0  0  0  0  0
  -23.9086  -10.4258   21.0420 C   0  0  0  0  0  0
  -24.3626   -9.4176   21.9198 C   0  0  0  0  0  0
  -23.6288   -8.2220   22.0762 C   0  0  0  0  0  0
  -22.4272   -8.0267   21.3548 C   0  0  0  0  0  0
  -21.9915   -9.0245   20.4654 C   0  0  0  0  0  0
  -22.7255  -10.2117   20.3068 C   0  0  0  0  0  0
  -21.6846   -6.0729   22.5279 C   0  0  0  0  0  0
  -21.4005   -6.5637   23.8210 C   0  0  0  0  0  0
  -21.3658   -5.6793   24.9175 C   0  0  0  0  0  0
  -21.6044   -4.3054   24.7226 C   0  0  0  0  0  0
  -21.8820   -3.8145   23.4345 C   0  0  0  0  0  0
  -21.9191   -4.6959   22.3402 C   0  0  0  0  0  0
  -22.7828  -13.5177   21.1844 C   0  0  0  0  0  0
  -22.1663   -4.2145   21.0979 F   0  0  0  0  0  0
  -21.5629   -3.4539   25.7739 F   0  0  0  0  0  0
  -30.0077  -13.5070   20.4574 N   0  0  0  0  0  0
  -26.2992  -12.9351   20.3323 N   0  0  0  0  0  0
  -25.9375  -11.6499   20.5830 N   0  0  0  0  0  0
  -22.0482  -12.8183   22.0422 N   0  0  0  0  0  0
  -25.3962  -15.1736   20.3558 N   0  0  0  0  0  0
  -31.6888  -14.9607   20.0064 O   0  0  0  0  0  0
  -21.6633   -6.8869   21.4239 O   0  0  0  0  0  0
  -22.3514  -14.5493   20.6702 O   0  0  0  0  0  0
  -24.6341  -31.8537   23.1972 C   0  0  0  0  0  0
  -25.9156  -32.4744   23.8324 C   0  0  1  0  0  0
  -27.2253  -27.2404   20.1298 C   0  0  0  0  0  0
  -25.5941  -33.8548   24.2245 N   0  0  0  0  0  0
  -23.4327  -30.4764   21.5413 C   0  0  2  0  0  0
  -24.8818  -28.9234   20.1114 C   0  0  0  0  0  0
  -22.7521  -29.4593   22.4903 C   0  0  0  0  0  0
  -18.0298  -28.1383   22.8478 C   0  0  0  0  0  0
  -24.1491  -36.7277   23.2641 C   0  0  0  0  0  0
  -25.9820  -30.7599   21.3820 C   0  0  0  0  0  0
  -26.0565  -29.3818   20.7215 C   0  0  0  0  0  0
  -27.2309  -28.5554   20.7173 C   0  0  0  0  0  0
  -26.0229  -26.8618   19.4861 C   0  0  0  0  0  0
  -24.8724  -27.6723   19.4809 C   0  0  0  0  0  0
  -23.6531  -29.8117   20.1583 C   0  0  0  0  0  0
  -25.4119  -36.3061   24.0322 C   0  0  1  0  0  0
  -20.5905  -28.3702   23.1257 C   0  0  2  0  0  0
  -20.6787  -26.9418   22.5402 C   0  0  0  0  0  0
  -19.5762  -26.6378   21.5208 C   0  0  0  0  0  0
  -18.1943  -26.7925   22.1620 C   0  0  0  0  0  0
  -19.1553  -28.8860   23.2860 C   0  0  0  0  0  0
  -18.9471  -30.1459   23.8881 C   0  0  0  0  0  0
  -17.6470  -30.6584   24.0558 C   0  0  0  0  0  0
  -25.9061  -34.9432   23.5087 C   0  0  0  0  0  0
  -16.5361  -29.9079   23.6327 C   0  0  0  0  0  0
  -16.7284  -28.6495   23.0352 C   0  0  0  0  0  0
  -26.4511  -31.6576   25.0725 C   0  0  0  0  0  0
  -25.3719  -31.3741   26.1435 C   0  0  0  0  0  0
  -27.0366  -30.2986   24.6241 C   0  0  0  0  0  0
  -27.6053  -32.4328   25.7506 C   0  0  0  0  0  0
  -27.5576  -37.1796   24.8467 C   0  0  0  0  0  0
  -21.4225  -29.3049   22.3644 N   0  0  0  0  0  0
  -26.4291  -37.3762   23.9405 N   0  0  0  0  0  0
  -24.7020  -31.0481   22.0960 N   0  0  0  0  0  0
  -23.4211  -28.8135   23.3013 O   0  0  0  0  0  0
  -28.3045  -26.3134   20.1934 O   0  0  0  0  0  0
  -26.5639  -34.8912   22.4660 O   0  0  0  0  0  0
  -23.5482  -32.1371   23.7246 O   0  0  0  0  0  0
  -27.9332  -17.0595   21.3058 C   0  0  0  0  0  0
  -27.6758  -19.4646   20.9619 C   0  0  0  0  0  0
  -29.8588  -18.4059   20.6804 C   0  0  0  0  0  0
  -27.1309  -18.2144   21.2923 C   0  0  0  0  0  0
  -29.3059  -17.0789   20.9849 C   0  0  0  0  0  0
  -29.0500  -19.6413   20.6735 C   0  0  0  0  0  0
  -29.0491  -23.6759   20.3247 C   0  0  0  0  0  0
  -25.6656  -18.1320   21.6760 C   0  0  0  0  0  0
  -27.9612  -24.8401   20.0776 C   0  0  0  0  0  0
  -28.5483  -22.1483   20.4659 C   0  0  0  0  0  0
  -29.9236  -15.7418   21.2482 N   0  0  0  0  0  0
  -30.2521  -23.9496   20.4014 O   0  0  0  0  0  0
  -29.5185  -20.9843   20.4427 O   0  0  0  0  0  0
  -31.4882  -12.6208   19.1793 H   0  0  0  0  0  0
  -30.4123  -11.4864   19.9396 H   0  0  0  0  0  0
  -29.8080  -11.7748   17.5211 H   0  0  0  0  0  0
  -29.6408  -13.4986   17.7456 H   0  0  0  0  0  0
  -27.9044  -11.2950   18.8991 H   0  0  0  0  0  0
  -27.3906  -12.5545   17.8076 H   0  0  0  0  0  0
  -27.6594  -14.2598   19.5163 H   0  0  0  0  0  0
  -28.7349  -12.1018   21.3955 H   0  0  0  0  0  0
  -28.4057  -13.7441   21.8531 H   0  0  0  0  0  0
  -25.2769   -9.5643   22.4776 H   0  0  0  0  0  0
  -23.9988   -7.4606   22.7479 H   0  0  0  0  0  0
  -21.0847   -8.8768   19.8955 H   0  0  0  0  0  0
  -22.3717  -10.9659   19.6178 H   0  0  0  0  0  0
  -21.1992   -7.6146   23.9712 H   0  0  0  0  0  0
  -21.1480   -6.0525   25.9078 H   0  0  0  0  0  0
  -22.0600   -2.7606   23.2850 H   0  0  0  0  0  0
  -22.4095  -11.9836   22.4801 H   0  0  0  0  0  0
  -21.1111  -13.1220   22.2650 H   0  0  0  0  0  0
  -24.6057  -15.8031   20.4268 H   0  0  0  0  0  0
  -26.2211  -15.6129   19.9689 H   0  0  0  0  0  0
  -26.7225  -32.5390   23.1067 H   0  0  0  0  0  0
  -25.0074  -33.9683   25.0382 H   0  0  0  0  0  0
  -22.7307  -31.2995   21.3940 H   0  0  0  0  0  0
  -23.3751  -35.9611   23.3304 H   0  0  0  0  0  0
  -24.3580  -36.8902   22.2056 H   0  0  0  0  0  0
  -23.7247  -37.6477   23.6670 H   0  0  0  0  0  0
  -26.1267  -31.5209   20.6140 H   0  0  0  0  0  0
  -26.8574  -30.8069   22.0181 H   0  0  0  0  0  0
  -28.1273  -28.9018   21.2128 H   0  0  0  0  0  0
  -25.9296  -25.9109   18.9855 H   0  0  0  0  0  0
  -23.9753  -27.3162   18.9933 H   0  0  0  0  0  0
  -23.7781  -30.5881   19.4028 H   0  0  0  0  0  0
  -22.7713  -29.2456   19.8521 H   0  0  0  0  0  0
  -25.1302  -36.1904   25.0814 H   0  0  0  0  0  0
  -20.9994  -28.3282   24.1379 H   0  0  0  0  0  0
  -20.5683  -26.2316   23.3613 H   0  0  0  0  0  0
  -21.6655  -26.7435   22.1202 H   0  0  0  0  0  0
  -19.6927  -25.6286   21.1247 H   0  0  0  0  0  0
  -19.6698  -27.3180   20.6732 H   0  0  0  0  0  0
  -17.4216  -26.6666   21.4020 H   0  0  0  0  0  0
  -18.0349  -26.0068   22.9017 H   0  0  0  0  0  0
  -19.7946  -30.7278   24.2246 H   0  0  0  0  0  0
  -17.5021  -31.6260   24.5162 H   0  0  0  0  0  0
  -15.5361  -30.2974   23.7657 H   0  0  0  0  0  0
  -15.8685  -28.0805   22.7081 H   0  0  0  0  0  0
  -24.5901  -30.7085   25.7762 H   0  0  0  0  0  0
  -24.8902  -32.2915   26.4828 H   0  0  0  0  0  0
  -25.8019  -30.8939   27.0234 H   0  0  0  0  0  0
  -26.2966  -29.6726   24.1244 H   0  0  0  0  0  0
  -27.4012  -29.7260   25.4780 H   0  0  0  0  0  0
  -27.8858  -30.4251   23.9522 H   0  0  0  0  0  0
  -27.2653  -33.3637   26.2059 H   0  0  0  0  0  0
  -28.3878  -32.6877   25.0346 H   0  0  0  0  0  0
  -28.0708  -31.8471   26.5445 H   0  0  0  0  0  0
  -28.2595  -38.0090   24.7501 H   0  0  0  0  0  0
  -28.1069  -36.2619   24.6307 H   0  0  0  0  0  0
  -27.2294  -37.1462   25.8871 H   0  0  0  0  0  0
  -20.9418  -29.8767   21.6839 H   0  0  0  0  0  0
  -26.0165  -38.2835   24.1398 H   0  0  0  0  0  0
  -27.4767  -16.1299   21.6142 H   0  0  0  0  0  0
  -26.9889  -20.2966   20.9760 H   0  0  0  0  0  0
  -30.9203  -18.4902   20.4967 H   0  0  0  0  0  0
  -25.4536  -17.2293   22.2495 H   0  0  0  0  0  0
  -25.0375  -18.1307   20.7846 H   0  0  0  0  0  0
  -25.3787  -18.9839   22.2932 H   0  0  0  0  0  0
  -27.1287  -24.6368   20.7519 H   0  0  0  0  0  0
  -27.5906  -24.6621   19.0691 H   0  0  0  0  0  0
  -27.8076  -21.9857   19.6827 H   0  0  0  0  0  0
  -28.0104  -22.1136   21.4137 H   0  0  0  0  0  0
  -29.3192  -15.2275   21.8707 H   0  0  0  0  0  0
  1 25  1  0  0  0
  1 30  2  0  0  0
  1 81  1  0  0  0
  2  3  1  0  0  0
  2 25  1  0  0  0
  2 84  1  0  0  0
  2 85  1  0  0  0
  3  4  1  0  0  0
  3 86  1  0  0  0
  3 87  1  0  0  0
  4  5  1  0  0  0
  4 88  1  0  0  0
  4 89  1  0  0  0
  5  6  1  0  0  0
  5 26  1  0  0  0
  5 90  1  0  0  0
  6 25  1  0  0  0
  6 91  1  0  0  0
  6 92  1  0  0  0
  7  8  2  0  0  0
  7 26  1  0  0  0
  7 29  1  0  0  0
  8  9  1  0  0  0
  8 22  1  0  0  0
  9 10  1  0  0  0
  9 27  2  0  0  0
 10 11  2  0  0  0
 10 15  1  0  0  0
 11 12  1  0  0  0
 11 93  1  0  0  0
 12 13  2  0  0  0
 12 94  1  0  0  0
 13 14  1  0  0  0
 13 31  1  0  0  0
 14 15  2  0  0  0
 14 95  1  0  0  0
 15 96  1  0  0  0
 16 17  2  0  0  0
 16 21  1  0  0  0
 16 31  1  0  0  0
 17 18  1  0  0  0
 17 97  1  0  0  0
 18 19  2  0  0  0
 18 98  1  0  0  0
 19 20  1  0  0  0
 19 24  1  0  0  0
 20 21  2  0  0  0
 20 99  1  0  0  0
 21 23  1  0  0  0
 22 28  1  0  0  0
 22 32  2  0  0  0
 26 27  1  0  0  0
 28100  1  0  0  0
 28101  1  0  0  0
 29102  1  0  0  0
 29103  1  0  0  0
 33 34  1  0  0  0
 33 66  1  0  0  0
 33 70  2  0  0  0
 34 36  1  0  0  0
 34 59  1  0  0  0
 34104  1  0  0  0
 35 44  2  0  0  0
 35 45  1  0  0  0
 35 68  1  0  0  0
 36 56  1  0  0  0
 36105  1  0  0  0
 37 39  1  0  0  0
 37 47  1  0  0  0
 37 66  1  0  0  0
 37106  1  0  0  0
 38 43  2  0  0  0
 38 46  1  0  0  0
 38 47  1  0  0  0
 39 64  1  0  0  0
 39 67  2  0  0  0
 40 52  1  0  0  0
 40 53  2  0  0  0
 40 58  1  0  0  0
 41107  1  0  0  0
 41108  1  0  0  0
 41109  1  0  0  0
 41 48  1  0  0  0
 42 43  1  0  0  0
 42 66  1  0  0  0
 42110  1  0  0  0
 42111  1  0  0  0
 43 44  1  0  0  0
 44112  1  0  0  0
 45 46  2  0  0  0
 45113  1  0  0  0
 46114  1  0  0  0
 47115  1  0  0  0
 47116  1  0  0  0
 48 56  1  0  0  0
 48 65  1  0  0  0
 48117  1  0  0  0
 49 50  1  0  0  0
 49 53  1  0  0  0
 49 64  1  0  0  0
 49118  1  0  0  0
 50 51  1  0  0  0
 50119  1  0  0  0
 50120  1  0  0  0
 51 52  1  0  0  0
 51121  1  0  0  0
 51122  1  0  0  0
 52123  1  0  0  0
 52124  1  0  0  0
 53 54  1  0  0  0
 54 55  2  0  0  0
 54125  1  0  0  0
 55 57  1  0  0  0
 55126  1  0  0  0
 56 69  2  0  0  0
 57 58  2  0  0  0
 57127  1  0  0  0
 58128  1  0  0  0
 59 60  1  0  0  0
 59 61  1  0  0  0
 59 62  1  0  0  0
 60129  1  0  0  0
 60130  1  0  0  0
 60131  1  0  0  0
 61132  1  0  0  0
 61133  1  0  0  0
 61134  1  0  0  0
 62135  1  0  0  0
 62136  1  0  0  0
 62137  1  0  0  0
 63 65  1  0  0  0
 63138  1  0  0  0
 63139  1  0  0  0
 63140  1  0  0  0
 64141  1  0  0  0
 65142  1  0  0  0
 68 79  1  0  0  0
 71 74  2  0  0  0
 71 75  1  0  0  0
 71143  1  0  0  0
 72 74  1  0  0  0
 72 76  2  0  0  0
 72144  1  0  0  0
 73 75  2  0  0  0
 73 76  1  0  0  0
 73145  1  0  0  0
 74 78  1  0  0  0
 75 81  1  0  0  0
 76 83  1  0  0  0
 77 79  1  0  0  0
 77 80  1  0  0  0
 77 82  2  0  0  0
 78146  1  0  0  0
 78147  1  0  0  0
 78148  1  0  0  0
 79149  1  0  0  0
 79150  1  0  0  0
 80 83  1  0  0  0
 80151  1  0  0  0
 80152  1  0  0  0
 81153  1  0  0  0
M  ISO  4   1 100  68 101  79 101  81 100
M  END
> <chiral flag>
0

> <version>
0

> <s_m_source_file>
/data/baiqing/PycharmProjects/Reinvent-master-3.2/result/LINK_invent/BTK/process_docking_weight1_custom_product_contain_oxygen_bond_distance_aromatic_linkinvent_7_9_3/rearranged_h_0123.sdf

> <i_m_source_file_index>
20

> <r_mmod_Potential_Energy-OPLS-2005>
298.680053710938

> <r_mmod_Stretch_Energy-OPLS-2005>
151.623306274414

> <r_mmod_Bend_Energy-OPLS-2005>
218.123992919922

> <r_mmod_Torsional_Energy-OPLS-2005>
236.440399169922

> <r_mmod_Improper_Torsional_Energy-OPLS-2005>
7.60069036483765

> <r_mmod_Van_der_Waal_Energy-OPLS-2005>
140.979263305664

> <r_mmod_Electrostatic_Energy-OPLS-2005>
-306.058471679688

> <r_mmod_Solvation_Energy-OPLS-2005>
-247.290313720703

> <b_mmod_Minimization_Converged-OPLS-2005>
0

> <r_mmod_RMS_Derivative-OPLS-2005>
0.824434101581573

$$$$
20
                    3D
 Structure written by MMmdl.
166175  0  0  1  0            999 V2000
  -30.7189  -14.4549   20.5672 C   0  0  0  0  0  0
  -30.4113  -12.2958   19.4206 C   0  0  0  0  0  0
  -29.4889  -12.4966   18.2019 C   0  0  0  0  0  0
  -28.0100  -12.3653   18.6145 C   0  0  0  0  0  0
  -27.6568  -13.2086   19.8693 C   0  0  2  0  0  0
  -28.6986  -13.0037   20.9922 C   0  0  0  0  0  0
  -25.2574  -13.8177   20.5685 C   0  0  0  0  0  0
  -24.1828  -13.0457   20.9183 C   0  0  0  0  0  0
  -24.6374  -11.6919   20.8733 C   0  0  0  0  0  0
  -23.9043  -10.4301   21.0406 C   0  0  0  0  0  0
  -24.3597   -9.4219   21.9185 C   0  0  0  0  0  0
  -23.6279   -8.2253   22.0754 C   0  0  0  0  0  0
  -22.4260   -8.0287   21.3549 C   0  0  0  0  0  0
  -21.9891   -9.0257   20.4655 C   0  0  0  0  0  0
  -22.7215  -10.2136   20.3061 C   0  0  0  0  0  0
  -21.6853   -6.0733   22.5278 C   0  0  0  0  0  0
  -21.4021   -6.5636   23.8212 C   0  0  0  0  0  0
  -21.3653   -5.6787   24.9173 C   0  0  0  0  0  0
  -21.6035   -4.3049   24.7226 C   0  0  0  0  0  0
  -21.8819   -3.8145   23.4350 C   0  0  0  0  0  0
  -21.9193   -4.6962   22.3405 C   0  0  0  0  0  0
  -22.7859  -13.5273   21.1842 C   0  0  0  0  0  0
  -22.1666   -4.2149   21.0981 F   0  0  0  0  0  0
  -21.5617   -3.4530   25.7739 F   0  0  0  0  0  0
  -30.0281  -13.2921   20.4327 N   0  0  0  0  0  0
  -26.2994  -12.9343   20.3342 N   0  0  0  0  0  0
  -25.9297  -11.6504   20.5744 N   0  0  0  0  0  0
  -22.0473  -12.8280   22.0387 N   0  0  0  0  0  0
  -25.4320  -15.1898   20.4110 N   0  0  0  0  0  0
  -31.8583  -14.6033   20.1141 O   0  0  0  0  0  0
  -21.6640   -6.8876   21.4240 O   0  0  0  0  0  0
  -22.3564  -14.5581   20.6686 O   0  0  0  0  0  0
  -24.6128  -31.8684   23.2098 C   0  0  0  0  0  0
  -25.9030  -32.4824   23.8387 C   0  0  1  0  0  0
  -27.2345  -27.4502   20.0996 C   0  0  0  0  0  0
  -25.5894  -33.8619   24.2323 N   0  0  0  0  0  0
  -23.4007  -30.4912   21.5494 C   0  0  2  0  0  0
  -24.8490  -28.9572   20.1149 C   0  0  0  0  0  0
  -22.7398  -29.4657   22.4983 C   0  0  0  0  0  0
  -18.0274  -28.1366   22.8490 C   0  0  0  0  0  0
  -24.1486  -36.7319   23.2626 C   0  0  0  0  0  0
  -25.9272  -30.8402   21.3593 C   0  0  0  0  0  0
  -26.0078  -29.4747   20.7093 C   0  0  0  0  0  0
  -27.2072  -28.7284   20.6983 C   0  0  0  0  0  0
  -26.0647  -26.9418   19.4995 C   0  0  0  0  0  0
  -24.8712  -27.6889   19.5072 C   0  0  0  0  0  0
  -23.6091  -29.8215   20.1643 C   0  0  0  0  0  0
  -25.4099  -36.3108   24.0335 C   0  0  1  0  0  0
  -20.5862  -28.3653   23.1316 C   0  0  2  0  0  0
  -20.6765  -26.9389   22.5411 C   0  0  0  0  0  0
  -19.5746  -26.6375   21.5207 C   0  0  0  0  0  0
  -18.1926  -26.7911   22.1624 C   0  0  0  0  0  0
  -19.1521  -28.8825   23.2904 C   0  0  0  0  0  0
  -18.9451  -30.1431   23.8915 C   0  0  0  0  0  0
  -17.6454  -30.6576   24.0560 C   0  0  0  0  0  0
  -25.9033  -34.9476   23.5127 C   0  0  0  0  0  0
  -16.5345  -29.9080   23.6316 C   0  0  0  0  0  0
  -16.7263  -28.6493   23.0344 C   0  0  0  0  0  0
  -26.4470  -31.6593   25.0703 C   0  0  0  0  0  0
  -25.3756  -31.3702   26.1466 C   0  0  0  0  0  0
  -27.0284  -30.3037   24.6050 C   0  0  0  0  0  0
  -27.6044  -32.4309   25.7471 C   0  0  0  0  0  0
  -27.5595  -37.1781   24.8438 C   0  0  0  0  0  0
  -21.4126  -29.3032   22.3726 N   0  0  0  0  0  0
  -26.4274  -37.3805   23.9435 N   0  0  0  0  0  0
  -24.6650  -31.0805   22.0987 N   0  0  0  0  0  0
  -23.4175  -28.8197   23.3014 O   0  0  0  0  0  0
  -28.3809  -26.6941   20.0931 O   0  0  0  0  0  0
  -26.5599  -34.8928   22.4691 O   0  0  0  0  0  0
  -23.5328  -32.1422   23.7508 O   0  0  0  0  0  0
  -32.2595  -18.3760   21.9311 C   0  0  0  0  0  0
  -31.7433  -19.3806   21.0921 C   0  0  0  0  0  0
  -31.6671  -17.1027   21.9527 C   0  0  0  0  0  0
  -29.9703  -17.8730   20.3715 C   0  0  0  0  0  0
  -30.5880  -19.1558   20.3058 C   0  0  0  0  0  0
  -30.5440  -16.8292   21.1432 C   0  0  0  0  0  0
  -29.1634  -23.2435   21.5925 C   0  0  0  0  0  0
  -28.4403  -23.7437   19.2877 C   0  0  0  0  0  0
  -29.9145  -21.9854   21.0914 C   0  0  0  0  0  0
  -29.1892  -22.4865   18.7909 C   0  0  0  0  0  0
  -29.0992  -24.3550   20.5297 C   0  0  1  0  0  0
  -29.5074  -19.5978   18.0373 C   0  0  0  0  0  0
  -28.3652  -25.6201   21.0444 C   0  0  0  0  0  0
  -30.1585  -20.2418   19.2859 C   0  0  1  0  0  0
  -30.0346  -15.4999   21.0742 N   0  0  0  0  0  0
  -29.3657  -21.4115   19.8236 N   0  3  1  0  0  0
  -30.3509  -24.7087   20.2299 F   0  0  0  0  0  0
  -31.4570  -12.3778   19.1192 H   0  0  0  0  0  0
  -30.2981  -11.2896   19.8263 H   0  0  0  0  0  0
  -29.7230  -11.7667   17.4261 H   0  0  0  0  0  0
  -29.6638  -13.4785   17.7593 H   0  0  0  0  0  0
  -27.8161  -11.3100   18.8110 H   0  0  0  0  0  0
  -27.3633  -12.6415   17.7806 H   0  0  0  0  0  0
  -27.6963  -14.2542   19.5652 H   0  0  0  0  0  0
  -28.6695  -11.9751   21.3544 H   0  0  0  0  0  0
  -28.4669  -13.6246   21.8582 H   0  0  0  0  0  0
  -25.2731   -9.5701   22.4768 H   0  0  0  0  0  0
  -23.9988   -7.4645   22.7469 H   0  0  0  0  0  0
  -21.0822   -8.8775   19.8962 H   0  0  0  0  0  0
  -22.3667  -10.9677   19.6179 H   0  0  0  0  0  0
  -21.2018   -7.6145   23.9719 H   0  0  0  0  0  0
  -21.1472   -6.0516   25.9072 H   0  0  0  0  0  0
  -22.0600   -2.7610   23.2853 H   0  0  0  0  0  0
  -22.4068  -11.9949   22.4800 H   0  0  0  0  0  0
  -21.1096  -13.1342   22.2561 H   0  0  0  0  0  0
  -24.6700  -15.8498   20.5227 H   0  0  0  0  0  0
  -26.2838  -15.6219   20.0761 H   0  0  0  0  0  0
  -26.7101  -32.5549   23.1154 H   0  0  0  0  0  0
  -25.0054  -33.9783   25.0477 H   0  0  0  0  0  0
  -22.6890  -31.3076   21.4095 H   0  0  0  0  0  0
  -23.3749  -35.9647   23.3258 H   0  0  0  0  0  0
  -24.3595  -36.8964   22.2048 H   0  0  0  0  0  0
  -23.7227  -37.6511   23.6659 H   0  0  0  0  0  0
  -26.0349  -31.6053   20.5891 H   0  0  0  0  0  0
  -26.8168  -30.8967   21.9747 H   0  0  0  0  0  0
  -28.1035  -29.1222   21.1573 H   0  0  0  0  0  0
  -26.0779  -25.9678   19.0311 H   0  0  0  0  0  0
  -23.9801  -27.2834   19.0475 H   0  0  0  0  0  0
  -23.7145  -30.5953   19.4027 H   0  0  0  0  0  0
  -22.7341  -29.2387   19.8703 H   0  0  0  0  0  0
  -25.1261  -36.1962   25.0822 H   0  0  0  0  0  0
  -20.9960  -28.3218   24.1434 H   0  0  0  0  0  0
  -20.5667  -26.2257   23.3596 H   0  0  0  0  0  0
  -21.6639  -26.7432   22.1209 H   0  0  0  0  0  0
  -19.6911  -25.6290   21.1226 H   0  0  0  0  0  0
  -19.6686  -27.3192   20.6745 H   0  0  0  0  0  0
  -17.4191  -26.6645   21.4033 H   0  0  0  0  0  0
  -18.0339  -26.0051   22.9020 H   0  0  0  0  0  0
  -19.7928  -30.7238   24.2296 H   0  0  0  0  0  0
  -17.5013  -31.6262   24.5149 H   0  0  0  0  0  0
  -15.5349  -30.2994   23.7624 H   0  0  0  0  0  0
  -15.8661  -28.0819   22.7055 H   0  0  0  0  0  0
  -24.5904  -30.7073   25.7816 H   0  0  0  0  0  0
  -24.8986  -32.2866   26.4952 H   0  0  0  0  0  0
  -25.8127  -30.8842   27.0197 H   0  0  0  0  0  0
  -26.2809  -29.6815   24.1111 H   0  0  0  0  0  0
  -27.4070  -29.7250   25.4485 H   0  0  0  0  0  0
  -27.8639  -30.4357   23.9173 H   0  0  0  0  0  0
  -27.2648  -33.3578   26.2103 H   0  0  0  0  0  0
  -28.3833  -32.6917   25.0295 H   0  0  0  0  0  0
  -28.0735  -31.8402   26.5350 H   0  0  0  0  0  0
  -28.2523  -38.0169   24.7624 H   0  0  0  0  0  0
  -28.1181  -36.2711   24.6075 H   0  0  0  0  0  0
  -27.2340  -37.1197   25.8839 H   0  0  0  0  0  0
  -20.9273  -29.8765   21.6970 H   0  0  0  0  0  0
  -26.0156  -38.2859   24.1525 H   0  0  0  0  0  0
  -33.1423  -18.5668   22.5259 H   0  0  0  0  0  0
  -32.2687  -20.3236   21.0402 H   0  0  0  0  0  0
  -32.1064  -16.3245   22.5619 H   0  0  0  0  0  0
  -29.1103  -17.6465   19.7578 H   0  0  0  0  0  0
  -29.6576  -23.6212   22.4888 H   0  0  0  0  0  0
  -28.1537  -22.9684   21.9019 H   0  0  0  0  0  0
  -27.4013  -23.4929   19.5042 H   0  0  0  0  0  0
  -28.4079  -24.4853   18.4885 H   0  0  0  0  0  0
  -29.8789  -21.2348   21.8812 H   0  0  0  0  0  0
  -30.9648  -22.2405   20.9442 H   0  0  0  0  0  0
  -30.1693  -22.7858   18.4152 H   0  0  0  0  0  0
  -28.6322  -22.1098   17.9345 H   0  0  0  0  0  0
  -30.0997  -18.7504   17.6905 H   0  0  0  0  0  0
  -29.4570  -20.2782   17.1894 H   0  0  0  0  0  0
  -28.4978  -19.2397   18.2399 H   0  0  0  0  0  0
  -28.8498  -25.9814   21.9519 H   0  0  0  0  0  0
  -27.3480  -25.3495   21.3363 H   0  0  0  0  0  0
  -31.1015  -20.6645   18.9331 H   0  0  0  0  0  0
  -29.0580  -15.3532   21.2805 H   0  0  0  0  0  0
  -28.4489  -21.0529   20.0470 H   0  0  0  0  0  0
  1 25  1  0  0  0
  1 30  2  0  0  0
  1 85  1  0  0  0
  2  3  1  0  0  0
  2 25  1  0  0  0
  2 88  1  0  0  0
  2 89  1  0  0  0
  3  4  1  0  0  0
  3 90  1  0  0  0
  3 91  1  0  0  0
  4  5  1  0  0  0
  4 92  1  0  0  0
  4 93  1  0  0  0
  5  6  1  0  0  0
  5 26  1  0  0  0
  5 94  1  0  0  0
  6 25  1  0  0  0
  6 95  1  0  0  0
  6 96  1  0  0  0
  7  8  2  0  0  0
  7 26  1  0  0  0
  7 29  1  0  0  0
  8  9  1  0  0  0
  8 22  1  0  0  0
  9 10  1  0  0  0
  9 27  2  0  0  0
 10 11  2  0  0  0
 10 15  1  0  0  0
 11 12  1  0  0  0
 11 97  1  0  0  0
 12 13  2  0  0  0
 12 98  1  0  0  0
 13 14  1  0  0  0
 13 31  1  0  0  0
 14 15  2  0  0  0
 14 99  1  0  0  0
 15100  1  0  0  0
 16 17  2  0  0  0
 16 21  1  0  0  0
 16 31  1  0  0  0
 17 18  1  0  0  0
 17101  1  0  0  0
 18 19  2  0  0  0
 18102  1  0  0  0
 19 20  1  0  0  0
 19 24  1  0  0  0
 20 21  2  0  0  0
 20103  1  0  0  0
 21 23  1  0  0  0
 22 28  1  0  0  0
 22 32  2  0  0  0
 26 27  1  0  0  0
 28104  1  0  0  0
 28105  1  0  0  0
 29106  1  0  0  0
 29107  1  0  0  0
 33 34  1  0  0  0
 33 66  1  0  0  0
 33 70  2  0  0  0
 34 36  1  0  0  0
 34 59  1  0  0  0
 34108  1  0  0  0
 35 44  2  0  0  0
 35 45  1  0  0  0
 35 68  1  0  0  0
 36 56  1  0  0  0
 36109  1  0  0  0
 37 39  1  0  0  0
 37 47  1  0  0  0
 37 66  1  0  0  0
 37110  1  0  0  0
 38 43  2  0  0  0
 38 46  1  0  0  0
 38 47  1  0  0  0
 39 64  1  0  0  0
 39 67  2  0  0  0
 40 52  1  0  0  0
 40 53  2  0  0  0
 40 58  1  0  0  0
 41111  1  0  0  0
 41112  1  0  0  0
 41113  1  0  0  0
 41 48  1  0  0  0
 42 43  1  0  0  0
 42 66  1  0  0  0
 42114  1  0  0  0
 42115  1  0  0  0
 43 44  1  0  0  0
 44116  1  0  0  0
 45 46  2  0  0  0
 45117  1  0  0  0
 46118  1  0  0  0
 47119  1  0  0  0
 47120  1  0  0  0
 48 56  1  0  0  0
 48 65  1  0  0  0
 48121  1  0  0  0
 49 50  1  0  0  0
 49 53  1  0  0  0
 49 64  1  0  0  0
 49122  1  0  0  0
 50 51  1  0  0  0
 50123  1  0  0  0
 50124  1  0  0  0
 51 52  1  0  0  0
 51125  1  0  0  0
 51126  1  0  0  0
 52127  1  0  0  0
 52128  1  0  0  0
 53 54  1  0  0  0
 54 55  2  0  0  0
 54129  1  0  0  0
 55 57  1  0  0  0
 55130  1  0  0  0
 56 69  2  0  0  0
 57 58  2  0  0  0
 57131  1  0  0  0
 58132  1  0  0  0
 59 60  1  0  0  0
 59 61  1  0  0  0
 59 62  1  0  0  0
 60133  1  0  0  0
 60134  1  0  0  0
 60135  1  0  0  0
 61136  1  0  0  0
 61137  1  0  0  0
 61138  1  0  0  0
 62139  1  0  0  0
 62140  1  0  0  0
 62141  1  0  0  0
 63 65  1  0  0  0
 63142  1  0  0  0
 63143  1  0  0  0
 63144  1  0  0  0
 64145  1  0  0  0
 65146  1  0  0  0
 68 83  1  0  0  0
 71 72  2  0  0  0
 71 73  1  0  0  0
 71147  1  0  0  0
 72 75  1  0  0  0
 72148  1  0  0  0
 73 76  2  0  0  0
 73149  1  0  0  0
 74 75  2  0  0  0
 74 76  1  0  0  0
 74150  1  0  0  0
 75 84  1  0  0  0
 76 85  1  0  0  0
 77 79  1  0  0  0
 77 81  1  0  0  0
 77151  1  0  0  0
 77152  1  0  0  0
 78 80  1  0  0  0
 78 81  1  0  0  0
 78153  1  0  0  0
 78154  1  0  0  0
 79155  1  0  0  0
 79156  1  0  0  0
 79 86  1  0  0  0
 80 86  1  0  0  0
 80157  1  0  0  0
 80158  1  0  0  0
 81 83  1  0  0  0
 81 87  1  0  0  0
 82159  1  0  0  0
 82160  1  0  0  0
 82161  1  0  0  0
 82 84  1  0  0  0
 83162  1  0  0  0
 83163  1  0  0  0
 84 86  1  0  0  0
 84164  1  0  0  0
 85165  1  0  0  0
 86166  1  0  0  0
M  CHG  1  86   1
M  ISO  4   1 100  68 101  83 101  85 100
M  END
> <chiral flag>
0

> <version>
0

> <s_m_source_file>
/data/baiqing/PycharmProjects/Reinvent-master-3.2/result/LINK_invent/BTK/process_docking_weight1_custom_product_contain_oxygen_bond_distance_aromatic_linkinvent_7_9_3/rearranged_h_0123.sdf

> <i_m_source_file_index>
21

> <r_mmod_Potential_Energy-OPLS-2005>
-125.537117004395

> <r_mmod_Stretch_Energy-OPLS-2005>
42.1937065124512

> <r_mmod_Bend_Energy-OPLS-2005>
99.1912612915039

> <r_mmod_Torsional_Energy-OPLS-2005>
286.860046386719

> <r_mmod_Improper_Torsional_Energy-OPLS-2005>
4.57673215866089

> <r_mmod_Van_der_Waal_Energy-OPLS-2005>
163.656433105469

> <r_mmod_Electrostatic_Energy-OPLS-2005>
-294.663757324219

> <r_mmod_Solvation_Energy-OPLS-2005>
-439.639587402344

> <b_mmod_Minimization_Converged-OPLS-2005>
0

> <r_mmod_RMS_Derivative-OPLS-2005>
1.3681333065033

$$$$
21
                    3D
 Structure written by MMmdl.
160169  0  0  1  0            999 V2000
  -30.5718  -14.7328   20.4826 C   0  0  0  0  0  0
  -30.4505  -12.4488   19.4644 C   0  0  0  0  0  0
  -29.5163  -12.5121   18.2332 C   0  0  0  0  0  0
  -28.0407  -12.3319   18.6456 C   0  0  0  0  0  0
  -27.6493  -13.2176   19.8573 C   0  0  2  0  0  0
  -28.6948  -13.1070   20.9900 C   0  0  0  0  0  0
  -25.2547  -13.8161   20.5665 C   0  0  0  0  0  0
  -24.1828  -13.0430   20.9206 C   0  0  0  0  0  0
  -24.6397  -11.6901   20.8750 C   0  0  0  0  0  0
  -23.9065  -10.4288   21.0411 C   0  0  0  0  0  0
  -24.3616   -9.4201   21.9188 C   0  0  0  0  0  0
  -23.6287   -8.2239   22.0754 C   0  0  0  0  0  0
  -22.4270   -8.0279   21.3542 C   0  0  0  0  0  0
  -21.9906   -9.0255   20.4647 C   0  0  0  0  0  0
  -22.7236  -10.2135   20.3059 C   0  0  0  0  0  0
  -21.6854   -6.0732   22.5276 C   0  0  0  0  0  0
  -21.4015   -6.5638   23.8209 C   0  0  0  0  0  0
  -21.3658   -5.6790   24.9170 C   0  0  0  0  0  0
  -21.6045   -4.3053   24.7221 C   0  0  0  0  0  0
  -21.8821   -3.8144   23.4344 C   0  0  0  0  0  0
  -21.9192   -4.6960   22.3400 C   0  0  0  0  0  0
  -22.7851  -13.5226   21.1863 C   0  0  0  0  0  0
  -22.1662   -4.2146   21.0977 F   0  0  0  0  0  0
  -21.5626   -3.4537   25.7735 F   0  0  0  0  0  0
  -30.0003  -13.4815   20.4230 N   0  0  0  0  0  0
  -26.2969  -12.9340   20.3282 N   0  0  0  0  0  0
  -25.9324  -11.6498   20.5755 N   0  0  0  0  0  0
  -22.0488  -12.8223   22.0419 N   0  0  0  0  0  0
  -25.4240  -15.1877   20.4016 N   0  0  0  0  0  0
  -31.7458  -14.9046   20.1376 O   0  0  0  0  0  0
  -21.6638   -6.8876   21.4237 O   0  0  0  0  0  0
  -22.3541  -14.5529   20.6702 O   0  0  0  0  0  0
  -24.6295  -31.8559   23.1991 C   0  0  0  0  0  0
  -25.9123  -32.4761   23.8340 C   0  0  1  0  0  0
  -27.2284  -27.2817   20.1333 C   0  0  0  0  0  0
  -25.5923  -33.8562   24.2264 N   0  0  0  0  0  0
  -23.4277  -30.4767   21.5411 C   0  0  2  0  0  0
  -24.8800  -28.9224   20.1149 C   0  0  0  0  0  0
  -22.7500  -29.4600   22.4911 C   0  0  0  0  0  0
  -18.0291  -28.1386   22.8481 C   0  0  0  0  0  0
  -24.1490  -36.7289   23.2643 C   0  0  0  0  0  0
  -25.9721  -30.7743   21.3783 C   0  0  0  0  0  0
  -26.0498  -29.3956   20.7262 C   0  0  0  0  0  0
  -27.2310  -28.5861   20.7285 C   0  0  0  0  0  0
  -26.0403  -26.8665   19.5017 C   0  0  0  0  0  0
  -24.8780  -27.6631   19.4934 C   0  0  0  0  0  0
  -23.6486  -29.8075   20.1588 C   0  0  0  0  0  0
  -25.4117  -36.3075   24.0328 C   0  0  1  0  0  0
  -20.5894  -28.3696   23.1266 C   0  0  2  0  0  0
  -20.6776  -26.9412   22.5407 C   0  0  0  0  0  0
  -19.5754  -26.6380   21.5208 C   0  0  0  0  0  0
  -18.1935  -26.7926   22.1624 C   0  0  0  0  0  0
  -19.1545  -28.8858   23.2869 C   0  0  0  0  0  0
  -18.9466  -30.1457   23.8890 C   0  0  0  0  0  0
  -17.6465  -30.6586   24.0562 C   0  0  0  0  0  0
  -25.9051  -34.9441   23.5100 C   0  0  0  0  0  0
  -16.5356  -29.9084   23.6331 C   0  0  0  0  0  0
  -16.7278  -28.6502   23.0352 C   0  0  0  0  0  0
  -26.4497  -31.6582   25.0722 C   0  0  0  0  0  0
  -25.3721  -31.3735   26.1446 C   0  0  0  0  0  0
  -27.0345  -30.2998   24.6205 C   0  0  0  0  0  0
  -27.6050  -32.4324   25.7493 C   0  0  0  0  0  0
  -27.5572  -37.1812   24.8474 C   0  0  0  0  0  0
  -21.4206  -29.3043   22.3655 N   0  0  0  0  0  0
  -26.4300  -37.3763   23.9393 N   0  0  0  0  0  0
  -24.6951  -31.0533   22.0962 N   0  0  0  0  0  0
  -23.4198  -28.8146   23.3017 O   0  0  0  0  0  0
  -28.2946  -26.3633   20.1185 O   0  0  0  0  0  0
  -26.5626  -34.8913   22.4670 O   0  0  0  0  0  0
  -23.5446  -32.1373   23.7287 O   0  0  0  0  0  0
  -28.3557  -19.3733   20.7705 C   0  0  0  0  0  0
  -28.4696  -17.9467   20.7423 C   0  0  0  0  0  0
  -30.8478  -18.1118   20.6057 C   0  0  0  0  0  0
  -30.7399  -19.5517   20.6540 C   0  0  0  0  0  0
  -29.4836  -20.2381   20.7600 C   0  0  0  0  0  0
  -29.7128  -17.2540   20.6807 C   0  0  0  0  0  0
  -28.5973  -24.0293   21.2251 C   0  0  0  0  0  0
  -28.3416  -25.3977   21.1444 C   0  0  0  0  0  0
  -28.6517  -23.3940   22.5991 C   0  0  0  0  0  0
  -28.8626  -21.8824   22.4178 C   0  0  0  0  0  0
  -28.9080  -22.8303   20.2529 C   0  0  1  0  0  0
  -32.0221  -20.3658   20.6518 C   0  0  0  0  0  0
  -29.8827  -23.1969   19.1312 C   0  0  0  0  0  0
  -29.3862  -21.6573   21.0749 N   0  0  0  0  0  0
  -29.7001  -15.7716   20.7593 N   0  0  0  0  0  0
  -31.4868  -12.6024   19.1586 H   0  0  0  0  0  0
  -30.4165  -11.4611   19.9272 H   0  0  0  0  0  0
  -29.7962  -11.7461   17.5083 H   0  0  0  0  0  0
  -29.6401  -13.4711   17.7276 H   0  0  0  0  0  0
  -27.8954  -11.2808   18.8969 H   0  0  0  0  0  0
  -27.3834  -12.5355   17.7994 H   0  0  0  0  0  0
  -27.6542  -14.2450   19.4939 H   0  0  0  0  0  0
  -28.7303  -12.0905   21.3847 H   0  0  0  0  0  0
  -28.4260  -13.7446   21.8337 H   0  0  0  0  0  0
  -25.2763   -9.5675   22.4758 H   0  0  0  0  0  0
  -23.9994   -7.4632   22.7478 H   0  0  0  0  0  0
  -21.0833   -8.8780   19.8956 H   0  0  0  0  0  0
  -22.3698  -10.9675   19.6169 H   0  0  0  0  0  0
  -21.2013   -7.6148   23.9712 H   0  0  0  0  0  0
  -21.1476   -6.0520   25.9073 H   0  0  0  0  0  0
  -22.0601   -2.7605   23.2846 H   0  0  0  0  0  0
  -22.4102  -11.9889   22.4817 H   0  0  0  0  0  0
  -21.1110  -13.1261   22.2623 H   0  0  0  0  0  0
  -24.6442  -15.8311   20.4848 H   0  0  0  0  0  0
  -26.2408  -15.6109   19.9815 H   0  0  0  0  0  0
  -26.7192  -32.5427   23.1088 H   0  0  0  0  0  0
  -25.0060  -33.9701   25.0403 H   0  0  0  0  0  0
  -22.7236  -31.2981   21.3928 H   0  0  0  0  0  0
  -23.3734  -35.9644   23.3347 H   0  0  0  0  0  0
  -24.3565  -36.8865   22.2048 H   0  0  0  0  0  0
  -23.7272  -37.6516   23.6639 H   0  0  0  0  0  0
  -26.1075  -31.5335   20.6067 H   0  0  0  0  0  0
  -26.8503  -30.8271   22.0099 H   0  0  0  0  0  0
  -28.1299  -28.9428   21.2110 H   0  0  0  0  0  0
  -26.0097  -25.8941   19.0305 H   0  0  0  0  0  0
  -23.9827  -27.2934   19.0127 H   0  0  0  0  0  0
  -23.7724  -30.5823   19.4015 H   0  0  0  0  0  0
  -22.7684  -29.2387   19.8538 H   0  0  0  0  0  0
  -25.1304  -36.1932   25.0823 H   0  0  0  0  0  0
  -20.9987  -28.3277   24.1387 H   0  0  0  0  0  0
  -20.5667  -26.2309   23.3613 H   0  0  0  0  0  0
  -21.6646  -26.7429   22.1208 H   0  0  0  0  0  0
  -19.6915  -25.6289   21.1243 H   0  0  0  0  0  0
  -19.6690  -27.3187   20.6735 H   0  0  0  0  0  0
  -17.4201  -26.6665   21.4033 H   0  0  0  0  0  0
  -18.0343  -26.0071   22.9025 H   0  0  0  0  0  0
  -19.7942  -30.7273   24.2258 H   0  0  0  0  0  0
  -17.5020  -31.6265   24.5166 H   0  0  0  0  0  0
  -15.5356  -30.2985   23.7657 H   0  0  0  0  0  0
  -15.8678  -28.0819   22.7073 H   0  0  0  0  0  0
  -24.5894  -30.7086   25.7776 H   0  0  0  0  0  0
  -24.8918  -32.2908   26.4862 H   0  0  0  0  0  0
  -25.8039  -30.8917   27.0228 H   0  0  0  0  0  0
  -26.2932  -29.6742   24.1220 H   0  0  0  0  0  0
  -27.4017  -29.7263   25.4727 H   0  0  0  0  0  0
  -27.8813  -30.4271   23.9457 H   0  0  0  0  0  0
  -27.2658  -33.3628   26.2060 H   0  0  0  0  0  0
  -28.3866  -32.6878   25.0325 H   0  0  0  0  0  0
  -28.0713  -31.8457   26.5419 H   0  0  0  0  0  0
  -28.2633  -38.0064   24.7451 H   0  0  0  0  0  0
  -28.1023  -36.2592   24.6392 H   0  0  0  0  0  0
  -27.2276  -37.1572   25.8876 H   0  0  0  0  0  0
  -20.9392  -29.8764   21.6858 H   0  0  0  0  0  0
  -26.0184  -38.2848   24.1351 H   0  0  0  0  0  0
  -27.3680  -19.8004   20.8685 H   0  0  0  0  0  0
  -27.5546  -17.3755   20.8039 H   0  0  0  0  0  0
  -31.8297  -17.6624   20.5578 H   0  0  0  0  0  0
  -28.1674  -25.9103   22.0812 H   0  0  0  0  0  0
  -27.7512  -23.6073   23.1767 H   0  0  0  0  0  0
  -29.4975  -23.8223   23.1389 H   0  0  0  0  0  0
  -27.9078  -21.3684   22.5395 H   0  0  0  0  0  0
  -29.5412  -21.4876   23.1758 H   0  0  0  0  0  0
  -27.9583  -22.5370   19.8021 H   0  0  0  0  0  0
  -32.8952  -19.7452   20.4503 H   0  0  0  0  0  0
  -32.1642  -20.8489   21.6187 H   0  0  0  0  0  0
  -31.9796  -21.1413   19.8869 H   0  0  0  0  0  0
  -30.8489  -23.5057   19.5307 H   0  0  0  0  0  0
  -29.4930  -24.0216   18.5336 H   0  0  0  0  0  0
  -30.0489  -22.3536   18.4600 H   0  0  0  0  0  0
  -28.7915  -15.4008   20.9904 H   0  0  0  0  0  0
  1 25  1  0  0  0
  1 30  2  0  0  0
  1 85  1  0  0  0
  2  3  1  0  0  0
  2 25  1  0  0  0
  2 86  1  0  0  0
  2 87  1  0  0  0
  3  4  1  0  0  0
  3 88  1  0  0  0
  3 89  1  0  0  0
  4  5  1  0  0  0
  4 90  1  0  0  0
  4 91  1  0  0  0
  5  6  1  0  0  0
  5 26  1  0  0  0
  5 92  1  0  0  0
  6 25  1  0  0  0
  6 93  1  0  0  0
  6 94  1  0  0  0
  7  8  2  0  0  0
  7 26  1  0  0  0
  7 29  1  0  0  0
  8  9  1  0  0  0
  8 22  1  0  0  0
  9 10  1  0  0  0
  9 27  2  0  0  0
 10 11  2  0  0  0
 10 15  1  0  0  0
 11 12  1  0  0  0
 11 95  1  0  0  0
 12 13  2  0  0  0
 12 96  1  0  0  0
 13 14  1  0  0  0
 13 31  1  0  0  0
 14 15  2  0  0  0
 14 97  1  0  0  0
 15 98  1  0  0  0
 16 17  2  0  0  0
 16 21  1  0  0  0
 16 31  1  0  0  0
 17 18  1  0  0  0
 17 99  1  0  0  0
 18 19  2  0  0  0
 18100  1  0  0  0
 19 20  1  0  0  0
 19 24  1  0  0  0
 20 21  2  0  0  0
 20101  1  0  0  0
 21 23  1  0  0  0
 22 28  1  0  0  0
 22 32  2  0  0  0
 26 27  1  0  0  0
 28102  1  0  0  0
 28103  1  0  0  0
 29104  1  0  0  0
 29105  1  0  0  0
 33 34  1  0  0  0
 33 66  1  0  0  0
 33 70  2  0  0  0
 34 36  1  0  0  0
 34 59  1  0  0  0
 34106  1  0  0  0
 35 44  2  0  0  0
 35 45  1  0  0  0
 35 68  1  0  0  0
 36 56  1  0  0  0
 36107  1  0  0  0
 37 39  1  0  0  0
 37 47  1  0  0  0
 37 66  1  0  0  0
 37108  1  0  0  0
 38 43  2  0  0  0
 38 46  1  0  0  0
 38 47  1  0  0  0
 39 64  1  0  0  0
 39 67  2  0  0  0
 40 52  1  0  0  0
 40 53  2  0  0  0
 40 58  1  0  0  0
 41109  1  0  0  0
 41110  1  0  0  0
 41111  1  0  0  0
 41 48  1  0  0  0
 42 43  1  0  0  0
 42 66  1  0  0  0
 42112  1  0  0  0
 42113  1  0  0  0
 43 44  1  0  0  0
 44114  1  0  0  0
 45 46  2  0  0  0
 45115  1  0  0  0
 46116  1  0  0  0
 47117  1  0  0  0
 47118  1  0  0  0
 48 56  1  0  0  0
 48 65  1  0  0  0
 48119  1  0  0  0
 49 50  1  0  0  0
 49 53  1  0  0  0
 49 64  1  0  0  0
 49120  1  0  0  0
 50 51  1  0  0  0
 50121  1  0  0  0
 50122  1  0  0  0
 51 52  1  0  0  0
 51123  1  0  0  0
 51124  1  0  0  0
 52125  1  0  0  0
 52126  1  0  0  0
 53 54  1  0  0  0
 54 55  2  0  0  0
 54127  1  0  0  0
 55 57  1  0  0  0
 55128  1  0  0  0
 56 69  2  0  0  0
 57 58  2  0  0  0
 57129  1  0  0  0
 58130  1  0  0  0
 59 60  1  0  0  0
 59 61  1  0  0  0
 59 62  1  0  0  0
 60131  1  0  0  0
 60132  1  0  0  0
 60133  1  0  0  0
 61134  1  0  0  0
 61135  1  0  0  0
 61136  1  0  0  0
 62137  1  0  0  0
 62138  1  0  0  0
 62139  1  0  0  0
 63 65  1  0  0  0
 63140  1  0  0  0
 63141  1  0  0  0
 63142  1  0  0  0
 64143  1  0  0  0
 65144  1  0  0  0
 68 78  1  0  0  0
 71 72  2  0  0  0
 71 75  1  0  0  0
 71145  1  0  0  0
 72 76  1  0  0  0
 72146  1  0  0  0
 73 74  1  0  0  0
 73 76  2  0  0  0
 73147  1  0  0  0
 74 75  2  0  0  0
 74 82  1  0  0  0
 75 84  1  0  0  0
 76 85  1  0  0  0
 77 78  2  0  0  0
 77 79  1  0  0  0
 77 81  1  0  0  0
 78148  1  0  0  0
 79 80  1  0  0  0
 79149  1  0  0  0
 79150  1  0  0  0
 80 84  1  0  0  0
 80151  1  0  0  0
 80152  1  0  0  0
 81 83  1  0  0  0
 81 84  1  0  0  0
 81153  1  0  0  0
 82154  1  0  0  0
 82155  1  0  0  0
 82156  1  0  0  0
 83157  1  0  0  0
 83158  1  0  0  0
 83159  1  0  0  0
 85160  1  0  0  0
M  ISO  4   1 100  68 101  78 101  85 100
M  END
> <chiral flag>
0

> <version>
0

> <s_m_source_file>
/data/baiqing/PycharmProjects/Reinvent-master-3.2/result/LINK_invent/BTK/process_docking_weight1_custom_product_contain_oxygen_bond_distance_aromatic_linkinvent_7_9_3/rearranged_h_0123.sdf

> <i_m_source_file_index>
22

> <r_mmod_Potential_Energy-OPLS-2005>
203.650115966797

> <r_mmod_Stretch_Energy-OPLS-2005>
98.746467590332

> <r_mmod_Bend_Energy-OPLS-2005>
235.303405761719

> <r_mmod_Torsional_Energy-OPLS-2005>
280.302825927734

> <r_mmod_Improper_Torsional_Energy-OPLS-2005>
10.2570962905884

> <r_mmod_Van_der_Waal_Energy-OPLS-2005>
125.084266662598

> <r_mmod_Electrostatic_Energy-OPLS-2005>
-419.735931396484

> <r_mmod_Solvation_Energy-OPLS-2005>
-205.400833129883

> <b_mmod_Minimization_Converged-OPLS-2005>
0

> <r_mmod_RMS_Derivative-OPLS-2005>
0.533229351043701

$$$$
22
                    3D
 Structure written by MMmdl.
158166  0  0  1  0            999 V2000
  -30.5999  -14.7434   20.4761 C   0  0  0  0  0  0
  -30.4376  -12.4650   19.4706 C   0  0  0  0  0  0
  -29.5052  -12.5292   18.2403 C   0  0  0  0  0  0
  -28.0334  -12.3455   18.6555 C   0  0  0  0  0  0
  -27.6470  -13.2289   19.8684 C   0  0  2  0  0  0
  -28.6922  -13.1423   21.0042 C   0  0  0  0  0  0
  -25.2531  -13.8183   20.5697 C   0  0  0  0  0  0
  -24.1818  -13.0430   20.9170 C   0  0  0  0  0  0
  -24.6409  -11.6897   20.8733 C   0  0  0  0  0  0
  -23.9085  -10.4277   21.0384 C   0  0  0  0  0  0
  -24.3626   -9.4207   21.9182 C   0  0  0  0  0  0
  -23.6288   -8.2258   22.0766 C   0  0  0  0  0  0
  -22.4283   -8.0293   21.3547 C   0  0  0  0  0  0
  -21.9909   -9.0280   20.4662 C   0  0  0  0  0  0
  -22.7238  -10.2148   20.3054 C   0  0  0  0  0  0
  -21.6859   -6.0723   22.5275 C   0  0  0  0  0  0
  -21.4011   -6.5625   23.8201 C   0  0  0  0  0  0
  -21.3660   -5.6791   24.9177 C   0  0  0  0  0  0
  -21.6052   -4.3052   24.7237 C   0  0  0  0  0  0
  -21.8821   -3.8131   23.4357 C   0  0  0  0  0  0
  -21.9198   -4.6946   22.3407 C   0  0  0  0  0  0
  -22.7833  -13.5220   21.1816 C   0  0  0  0  0  0
  -22.1674   -4.2122   21.0990 F   0  0  0  0  0  0
  -21.5627   -3.4539   25.7748 F   0  0  0  0  0  0
  -29.9982  -13.5036   20.4352 N   0  0  0  0  0  0
  -26.2978  -12.9384   20.3373 N   0  0  0  0  0  0
  -25.9359  -11.6525   20.5824 N   0  0  0  0  0  0
  -22.0485  -12.8223   22.0379 N   0  0  0  0  0  0
  -25.4262  -15.1904   20.4065 N   0  0  0  0  0  0
  -31.7532  -14.8796   20.0549 O   0  0  0  0  0  0
  -21.6654   -6.8885   21.4241 O   0  0  0  0  0  0
  -22.3541  -14.5546   20.6666 O   0  0  0  0  0  0
  -24.6318  -31.8554   23.2014 C   0  0  0  0  0  0
  -25.9154  -32.4755   23.8361 C   0  0  1  0  0  0
  -27.2083  -27.2697   20.1235 C   0  0  0  0  0  0
  -25.5952  -33.8563   24.2277 N   0  0  0  0  0  0
  -23.4248  -30.4828   21.5456 C   0  0  2  0  0  0
  -24.8673  -28.9390   20.1058 C   0  0  0  0  0  0
  -22.7486  -29.4614   22.4916 C   0  0  0  0  0  0
  -18.0312  -28.1385   22.8467 C   0  0  0  0  0  0
  -24.1495  -36.7278   23.2652 C   0  0  0  0  0  0
  -25.9706  -30.7731   21.3789 C   0  0  0  0  0  0
  -26.0366  -29.3983   20.7201 C   0  0  0  0  0  0
  -27.2061  -28.5751   20.7209 C   0  0  0  0  0  0
  -26.0100  -26.8806   19.4769 C   0  0  0  0  0  0
  -24.8595  -27.6903   19.4729 C   0  0  0  0  0  0
  -23.6392  -29.8254   20.1573 C   0  0  0  0  0  0
  -25.4119  -36.3066   24.0347 C   0  0  1  0  0  0
  -20.5910  -28.3715   23.1292 C   0  0  2  0  0  0
  -20.6808  -26.9413   22.5499 C   0  0  0  0  0  0
  -19.5820  -26.6319   21.5277 C   0  0  0  0  0  0
  -18.1976  -26.7908   22.1648 C   0  0  0  0  0  0
  -19.1555  -28.8865   23.2862 C   0  0  0  0  0  0
  -18.9447  -30.1465   23.8878 C   0  0  0  0  0  0
  -17.6448  -30.6589   24.0535 C   0  0  0  0  0  0
  -25.9063  -34.9438   23.5112 C   0  0  0  0  0  0
  -16.5356  -29.9058   23.6304 C   0  0  0  0  0  0
  -16.7295  -28.6473   23.0336 C   0  0  0  0  0  0
  -26.4530  -31.6571   25.0749 C   0  0  0  0  0  0
  -25.3760  -31.3708   26.1466 C   0  0  0  0  0  0
  -27.0380  -30.2997   24.6223 C   0  0  0  0  0  0
  -27.6092  -32.4304   25.7497 C   0  0  0  0  0  0
  -27.5577  -37.1793   24.8474 C   0  0  0  0  0  0
  -21.4207  -29.3051   22.3650 N   0  0  0  0  0  0
  -26.4283  -37.3766   23.9430 N   0  0  0  0  0  0
  -24.6954  -31.0551   22.0981 N   0  0  0  0  0  0
  -23.4197  -28.8155   23.3021 O   0  0  0  0  0  0
  -28.3269  -26.4079   20.2083 O   0  0  0  0  0  0
  -26.5618  -34.8907   22.4673 O   0  0  0  0  0  0
  -23.5467  -32.1377   23.7304 O   0  0  0  0  0  0
  -28.8776  -16.9288   18.9485 C   0  0  0  0  0  0
  -28.2738  -18.0165   18.2923 C   0  0  0  0  0  0
  -29.5282  -18.4432   20.7329 C   0  0  0  0  0  0
  -28.9534  -19.6062   20.0572 C   0  0  0  0  0  0
  -29.4990  -17.0837   20.2023 C   0  0  0  0  0  0
  -28.2901  -19.3276   18.8264 C   0  0  0  0  0  0
  -29.0020  -21.0558   20.6201 C   0  0  0  0  0  0
  -28.6673  -22.2814   20.0549 C   0  0  0  0  0  0
  -25.5428  -21.2112   18.8441 C   0  0  0  0  0  0
  -28.6760  -23.7394   20.6811 C   0  0  0  0  0  0
  -26.2537  -20.1869   17.9506 C   0  0  0  0  0  0
  -28.3371  -24.9886   19.7183 C   0  0  0  0  0  0
  -29.8687  -15.8373   20.9162 N   0  0  0  0  0  0
  -27.6649  -20.3234   18.1144 O   0  0  0  0  0  0
  -31.4731  -12.6043   19.1532 H   0  0  0  0  0  0
  -30.4053  -11.4792   19.9354 H   0  0  0  0  0  0
  -29.7858  -11.7677   17.5107 H   0  0  0  0  0  0
  -29.6173  -13.4922   17.7388 H   0  0  0  0  0  0
  -27.8881  -11.2938   18.9062 H   0  0  0  0  0  0
  -27.3729  -12.5549   17.8122 H   0  0  0  0  0  0
  -27.6463  -14.2556   19.5074 H   0  0  0  0  0  0
  -28.7252  -12.1344   21.4179 H   0  0  0  0  0  0
  -28.4207  -13.8039   21.8279 H   0  0  0  0  0  0
  -25.2779   -9.5676   22.4747 H   0  0  0  0  0  0
  -23.9987   -7.4653   22.7487 H   0  0  0  0  0  0
  -21.0835   -8.8819   19.8973 H   0  0  0  0  0  0
  -22.3711  -10.9706   19.6171 H   0  0  0  0  0  0
  -21.2004   -7.6138   23.9685 H   0  0  0  0  0  0
  -21.1473   -6.0537   25.9075 H   0  0  0  0  0  0
  -22.0594   -2.7585   23.2881 H   0  0  0  0  0  0
  -22.4108  -11.9904   22.4801 H   0  0  0  0  0  0
  -21.1112  -13.1249   22.2603 H   0  0  0  0  0  0
  -24.6555  -15.8399   20.5062 H   0  0  0  0  0  0
  -26.2783  -15.6302   20.0812 H   0  0  0  0  0  0
  -26.7224  -32.5413   23.1096 H   0  0  0  0  0  0
  -25.0139  -33.9700   25.0446 H   0  0  0  0  0  0
  -22.7205  -31.3058   21.4053 H   0  0  0  0  0  0
  -23.3756  -35.9609   23.3312 H   0  0  0  0  0  0
  -24.3598  -36.8889   22.2066 H   0  0  0  0  0  0
  -23.7240  -37.6489   23.6652 H   0  0  0  0  0  0
  -26.1172  -31.5334   20.6100 H   0  0  0  0  0  0
  -26.8467  -30.8109   22.0140 H   0  0  0  0  0  0
  -28.0975  -28.9218   21.2206 H   0  0  0  0  0  0
  -25.8932  -25.9376   18.9730 H   0  0  0  0  0  0
  -23.9646  -27.3363   18.9831 H   0  0  0  0  0  0
  -23.7633  -30.6047   19.4043 H   0  0  0  0  0  0
  -22.7561  -29.2603   19.8522 H   0  0  0  0  0  0
  -25.1287  -36.1927   25.0837 H   0  0  0  0  0  0
  -20.9992  -28.3351   24.1419 H   0  0  0  0  0  0
  -20.5638  -26.2334   23.3725 H   0  0  0  0  0  0
  -21.6718  -26.7422   22.1385 H   0  0  0  0  0  0
  -19.7005  -25.6194   21.1378 H   0  0  0  0  0  0
  -19.6749  -27.3049   20.6745 H   0  0  0  0  0  0
  -17.4265  -26.6608   21.4064 H   0  0  0  0  0  0
  -18.0335  -26.0086   22.9064 H   0  0  0  0  0  0
  -19.7895  -30.7286   24.2265 H   0  0  0  0  0  0
  -17.4994  -31.6277   24.5109 H   0  0  0  0  0  0
  -15.5350  -30.2948   23.7602 H   0  0  0  0  0  0
  -15.8705  -28.0755   22.7082 H   0  0  0  0  0  0
  -24.5948  -30.7033   25.7797 H   0  0  0  0  0  0
  -24.8936  -32.2867   26.4885 H   0  0  0  0  0  0
  -25.8091  -30.8907   27.0245 H   0  0  0  0  0  0
  -26.2959  -29.6719   24.1272 H   0  0  0  0  0  0
  -27.4108  -29.7287   25.4736 H   0  0  0  0  0  0
  -27.8823  -30.4305   23.9453 H   0  0  0  0  0  0
  -27.2734  -33.3619   26.2066 H   0  0  0  0  0  0
  -28.3897  -32.6829   25.0301 H   0  0  0  0  0  0
  -28.0770  -31.8441   26.5404 H   0  0  0  0  0  0
  -28.2597  -38.0079   24.7502 H   0  0  0  0  0  0
  -28.1058  -36.2613   24.6304 H   0  0  0  0  0  0
  -27.2316  -37.1473   25.8881 H   0  0  0  0  0  0
  -20.9396  -29.8745   21.6823 H   0  0  0  0  0  0
  -26.0167  -38.2858   24.1368 H   0  0  0  0  0  0
  -28.8073  -15.9518   18.4928 H   0  0  0  0  0  0
  -27.7672  -17.8309   17.3558 H   0  0  0  0  0  0
  -29.9874  -18.6059   21.6974 H   0  0  0  0  0  0
  -29.3352  -21.1005   21.6474 H   0  0  0  0  0  0
  -28.3295  -22.3015   19.0326 H   0  0  0  0  0  0
  -24.4586  -21.1165   18.7694 H   0  0  0  0  0  0
  -25.8041  -22.2325   18.5674 H   0  0  0  0  0  0
  -25.8168  -21.0703   19.8881 H   0  0  0  0  0  0
  -29.6513  -23.9015   21.1438 H   0  0  0  0  0  0
  -27.9572  -23.7384   21.5019 H   0  0  0  0  0  0
  -25.9972  -20.3704   16.9054 H   0  0  0  0  0  0
  -25.8889  -19.1869   18.1920 H   0  0  0  0  0  0
  -27.4329  -24.7163   19.1876 H   0  0  0  0  0  0
  -29.0942  -24.9881   18.9345 H   0  0  0  0  0  0
  -29.1542  -15.5547   21.5721 H   0  0  0  0  0  0
  1 25  1  0  0  0
  1 30  2  0  0  0
  1 83  1  0  0  0
  2  3  1  0  0  0
  2 25  1  0  0  0
  2 85  1  0  0  0
  2 86  1  0  0  0
  3  4  1  0  0  0
  3 87  1  0  0  0
  3 88  1  0  0  0
  4  5  1  0  0  0
  4 89  1  0  0  0
  4 90  1  0  0  0
  5  6  1  0  0  0
  5 26  1  0  0  0
  5 91  1  0  0  0
  6 25  1  0  0  0
  6 92  1  0  0  0
  6 93  1  0  0  0
  7  8  2  0  0  0
  7 26  1  0  0  0
  7 29  1  0  0  0
  8  9  1  0  0  0
  8 22  1  0  0  0
  9 10  1  0  0  0
  9 27  2  0  0  0
 10 11  2  0  0  0
 10 15  1  0  0  0
 11 12  1  0  0  0
 11 94  1  0  0  0
 12 13  2  0  0  0
 12 95  1  0  0  0
 13 14  1  0  0  0
 13 31  1  0  0  0
 14 15  2  0  0  0
 14 96  1  0  0  0
 15 97  1  0  0  0
 16 17  2  0  0  0
 16 21  1  0  0  0
 16 31  1  0  0  0
 17 18  1  0  0  0
 17 98  1  0  0  0
 18 19  2  0  0  0
 18 99  1  0  0  0
 19 20  1  0  0  0
 19 24  1  0  0  0
 20 21  2  0  0  0
 20100  1  0  0  0
 21 23  1  0  0  0
 22 28  1  0  0  0
 22 32  2  0  0  0
 26 27  1  0  0  0
 28101  1  0  0  0
 28102  1  0  0  0
 29103  1  0  0  0
 29104  1  0  0  0
 33 34  1  0  0  0
 33 66  1  0  0  0
 33 70  2  0  0  0
 34 36  1  0  0  0
 34 59  1  0  0  0
 34105  1  0  0  0
 35 44  2  0  0  0
 35 45  1  0  0  0
 35 68  1  0  0  0
 36 56  1  0  0  0
 36106  1  0  0  0
 37 39  1  0  0  0
 37 47  1  0  0  0
 37 66  1  0  0  0
 37107  1  0  0  0
 38 43  2  0  0  0
 38 46  1  0  0  0
 38 47  1  0  0  0
 39 64  1  0  0  0
 39 67  2  0  0  0
 40 52  1  0  0  0
 40 53  2  0  0  0
 40 58  1  0  0  0
 41108  1  0  0  0
 41109  1  0  0  0
 41110  1  0  0  0
 41 48  1  0  0  0
 42 43  1  0  0  0
 42 66  1  0  0  0
 42111  1  0  0  0
 42112  1  0  0  0
 43 44  1  0  0  0
 44113  1  0  0  0
 45 46  2  0  0  0
 45114  1  0  0  0
 46115  1  0  0  0
 47116  1  0  0  0
 47117  1  0  0  0
 48 56  1  0  0  0
 48 65  1  0  0  0
 48118  1  0  0  0
 49 50  1  0  0  0
 49 53  1  0  0  0
 49 64  1  0  0  0
 49119  1  0  0  0
 50 51  1  0  0  0
 50120  1  0  0  0
 50121  1  0  0  0
 51 52  1  0  0  0
 51122  1  0  0  0
 51123  1  0  0  0
 52124  1  0  0  0
 52125  1  0  0  0
 53 54  1  0  0  0
 54 55  2  0  0  0
 54126  1  0  0  0
 55 57  1  0  0  0
 55127  1  0  0  0
 56 69  2  0  0  0
 57 58  2  0  0  0
 57128  1  0  0  0
 58129  1  0  0  0
 59 60  1  0  0  0
 59 61  1  0  0  0
 59 62  1  0  0  0
 60130  1  0  0  0
 60131  1  0  0  0
 60132  1  0  0  0
 61133  1  0  0  0
 61134  1  0  0  0
 61135  1  0  0  0
 62136  1  0  0  0
 62137  1  0  0  0
 62138  1  0  0  0
 63 65  1  0  0  0
 63139  1  0  0  0
 63140  1  0  0  0
 63141  1  0  0  0
 64142  1  0  0  0
 65143  1  0  0  0
 68 82  1  0  0  0
 71 72  2  0  0  0
 71 75  1  0  0  0
 71144  1  0  0  0
 72 76  1  0  0  0
 72145  1  0  0  0
 73 74  1  0  0  0
 73 75  2  0  0  0
 73146  1  0  0  0
 74 76  2  0  0  0
 74 77  1  0  0  0
 75 83  1  0  0  0
 76 84  1  0  0  0
 77 78  2  0  0  0
 77147  1  0  0  0
 78 80  1  0  0  0
 78148  1  0  0  0
 79 81  1  0  0  0
 79149  1  0  0  0
 79150  1  0  0  0
 79151  1  0  0  0
 80 82  1  0  0  0
 80152  1  0  0  0
 80153  1  0  0  0
 81 84  1  0  0  0
 81154  1  0  0  0
 81155  1  0  0  0
 82156  1  0  0  0
 82157  1  0  0  0
 83158  1  0  0  0
M  ISO  4   1 100  68 101  82 101  83 100
M  END
> <chiral flag>
0

> <version>
0

> <s_m_source_file>
/data/baiqing/PycharmProjects/Reinvent-master-3.2/result/LINK_invent/BTK/process_docking_weight1_custom_product_contain_oxygen_bond_distance_aromatic_linkinvent_7_9_3/rearranged_h_0123.sdf

> <i_m_source_file_index>
23

> <r_mmod_Potential_Energy-OPLS-2005>
212.007614135742

> <r_mmod_Stretch_Energy-OPLS-2005>
120.13134765625

> <r_mmod_Bend_Energy-OPLS-2005>
165.947616577148

> <r_mmod_Torsional_Energy-OPLS-2005>
282.019927978516

> <r_mmod_Improper_Torsional_Energy-OPLS-2005>
6.03616762161255

> <r_mmod_Van_der_Waal_Energy-OPLS-2005>
139.375869750977

> <r_mmod_Electrostatic_Energy-OPLS-2005>
-369.428131103516

> <r_mmod_Solvation_Energy-OPLS-2005>
-212.497634887695

> <b_mmod_Minimization_Converged-OPLS-2005>
0

> <r_mmod_RMS_Derivative-OPLS-2005>
3.75546979904175

$$$$
23
                    3D
 Structure written by MMmdl.
153161  0  0  1  0            999 V2000
  -30.6345  -14.6581   20.5042 C   0  0  0  0  0  0
  -30.4400  -12.4062   19.4598 C   0  0  0  0  0  0
  -29.5118  -12.5097   18.2298 C   0  0  0  0  0  0
  -28.0351  -12.3415   18.6410 C   0  0  0  0  0  0
  -27.6523  -13.2190   19.8625 C   0  0  2  0  0  0
  -28.6979  -13.0924   20.9942 C   0  0  0  0  0  0
  -25.2499  -13.8106   20.5596 C   0  0  0  0  0  0
  -24.1805  -13.0391   20.9203 C   0  0  0  0  0  0
  -24.6399  -11.6877   20.8769 C   0  0  0  0  0  0
  -23.9071  -10.4268   21.0424 C   0  0  0  0  0  0
  -24.3620   -9.4179   21.9194 C   0  0  0  0  0  0
  -23.6285   -8.2225   22.0759 C   0  0  0  0  0  0
  -22.4267   -8.0275   21.3548 C   0  0  0  0  0  0
  -21.9907   -9.0254   20.4655 C   0  0  0  0  0  0
  -22.7245  -10.2125   20.3067 C   0  0  0  0  0  0
  -21.6847   -6.0729   22.5275 C   0  0  0  0  0  0
  -21.4016   -6.5635   23.8211 C   0  0  0  0  0  0
  -21.3660   -5.6788   24.9174 C   0  0  0  0  0  0
  -21.6042   -4.3051   24.7225 C   0  0  0  0  0  0
  -21.8818   -3.8142   23.4346 C   0  0  0  0  0  0
  -21.9191   -4.6957   22.3400 C   0  0  0  0  0  0
  -22.7831  -13.5202   21.1859 C   0  0  0  0  0  0
  -22.1658   -4.2143   21.0976 F   0  0  0  0  0  0
  -21.5625   -3.4535   25.7739 F   0  0  0  0  0  0
  -30.0135  -13.4358   20.4302 N   0  0  0  0  0  0
  -26.2972  -12.9333   20.3303 N   0  0  0  0  0  0
  -25.9335  -11.6490   20.5794 N   0  0  0  0  0  0
  -22.0467  -12.8221   22.0428 N   0  0  0  0  0  0
  -25.4087  -15.1780   20.3768 N   0  0  0  0  0  0
  -31.7991  -14.7986   20.1222 O   0  0  0  0  0  0
  -21.6631   -6.8872   21.4239 O   0  0  0  0  0  0
  -22.3523  -14.5507   20.6695 O   0  0  0  0  0  0
  -24.6264  -31.8605   23.2044 C   0  0  0  0  0  0
  -25.9112  -32.4781   23.8373 C   0  0  1  0  0  0
  -27.2279  -27.3203   20.1111 C   0  0  0  0  0  0
  -25.5924  -33.8581   24.2299 N   0  0  0  0  0  0
  -23.4206  -30.4857   21.5464 C   0  0  2  0  0  0
  -24.8679  -28.9453   20.1113 C   0  0  0  0  0  0
  -22.7483  -29.4625   22.4928 C   0  0  0  0  0  0
  -18.0293  -28.1389   22.8488 C   0  0  0  0  0  0
  -24.1486  -36.7297   23.2635 C   0  0  0  0  0  0
  -25.9628  -30.7914   21.3770 C   0  0  0  0  0  0
  -26.0381  -29.4200   20.7169 C   0  0  0  0  0  0
  -27.2200  -28.6196   20.7080 C   0  0  0  0  0  0
  -26.0290  -26.9027   19.4825 C   0  0  0  0  0  0
  -24.8656  -27.6911   19.4865 C   0  0  0  0  0  0
  -23.6367  -29.8252   20.1609 C   0  0  0  0  0  0
  -25.4105  -36.3085   24.0334 C   0  0  1  0  0  0
  -20.5894  -28.3689   23.1281 C   0  0  2  0  0  0
  -20.6780  -26.9412   22.5405 C   0  0  0  0  0  0
  -19.5754  -26.6384   21.5210 C   0  0  0  0  0  0
  -18.1936  -26.7934   22.1622 C   0  0  0  0  0  0
  -19.1546  -28.8857   23.2879 C   0  0  0  0  0  0
  -18.9465  -30.1461   23.8897 C   0  0  0  0  0  0
  -17.6463  -30.6587   24.0569 C   0  0  0  0  0  0
  -25.9046  -34.9454   23.5117 C   0  0  0  0  0  0
  -16.5356  -29.9086   23.6331 C   0  0  0  0  0  0
  -16.7280  -28.6503   23.0352 C   0  0  0  0  0  0
  -26.4491  -31.6589   25.0743 C   0  0  0  0  0  0
  -25.3727  -31.3736   26.1481 C   0  0  0  0  0  0
  -27.0333  -30.3011   24.6202 C   0  0  0  0  0  0
  -27.6065  -32.4312   25.7497 C   0  0  0  0  0  0
  -27.5582  -37.1795   24.8457 C   0  0  0  0  0  0
  -21.4194  -29.3044   22.3672 N   0  0  0  0  0  0
  -26.4279  -37.3785   23.9425 N   0  0  0  0  0  0
  -24.6887  -31.0624   22.0995 N   0  0  0  0  0  0
  -23.4207  -28.8161   23.3003 O   0  0  0  0  0  0
  -28.3458  -26.4657   20.1613 O   0  0  0  0  0  0
  -26.5611  -34.8917   22.4682 O   0  0  0  0  0  0
  -23.5424  -32.1396   23.7367 O   0  0  0  0  0  0
  -28.9630  -19.4725   20.8738 C   0  0  0  0  0  0
  -31.1953  -17.8535   20.4140 C   0  0  0  0  0  0
  -30.1719  -20.1417   20.5518 C   0  0  0  0  0  0
  -28.8720  -18.0490   20.9876 C   0  0  0  0  0  0
  -29.9882  -17.1856   20.7478 C   0  0  0  0  0  0
  -31.2874  -19.2753   20.3212 C   0  0  0  0  0  0
  -29.1361  -22.6374   20.3153 C   0  0  0  0  0  0
  -29.2639  -24.0024   20.1524 C   0  0  0  0  0  0
  -30.3112  -21.6852   20.4693 C   0  0  0  0  0  0
  -27.5172  -17.4831   21.3681 C   0  0  0  0  0  0
  -28.1128  -25.0256   19.9051 C   0  0  0  0  0  0
  -29.8397  -15.7229   20.8573 N   0  0  0  0  0  0
  -31.4386  -22.1870   20.5234 O   0  0  0  0  0  0
  -32.4978  -19.7900   19.9923 F   0  0  0  0  0  0
  -31.4816  -12.5285   19.1578 H   0  0  0  0  0  0
  -30.3766  -11.4151   19.9107 H   0  0  0  0  0  0
  -29.7815  -11.7561   17.4884 H   0  0  0  0  0  0
  -29.6505  -13.4776   17.7458 H   0  0  0  0  0  0
  -27.8784  -11.2889   18.8806 H   0  0  0  0  0  0
  -27.3815  -12.5618   17.7967 H   0  0  0  0  0  0
  -27.6654  -14.2513   19.5126 H   0  0  0  0  0  0
  -28.7144  -12.0750   21.3886 H   0  0  0  0  0  0
  -28.4400  -13.7343   21.8377 H   0  0  0  0  0  0
  -25.2763   -9.5650   22.4766 H   0  0  0  0  0  0
  -23.9989   -7.4611   22.7475 H   0  0  0  0  0  0
  -21.0836   -8.8785   19.8959 H   0  0  0  0  0  0
  -22.3711  -10.9672   19.6183 H   0  0  0  0  0  0
  -21.2012   -7.6142   23.9716 H   0  0  0  0  0  0
  -21.1482   -6.0515   25.9078 H   0  0  0  0  0  0
  -22.0597   -2.7603   23.2849 H   0  0  0  0  0  0
  -22.4075  -11.9891   22.4833 H   0  0  0  0  0  0
  -21.1093  -13.1271   22.2639 H   0  0  0  0  0  0
  -24.6171  -15.8092   20.4305 H   0  0  0  0  0  0
  -26.2078  -15.5847   19.9095 H   0  0  0  0  0  0
  -26.7183  -32.5457   23.1123 H   0  0  0  0  0  0
  -25.0075  -33.9727   25.0443 H   0  0  0  0  0  0
  -22.7138  -31.3058   21.4047 H   0  0  0  0  0  0
  -23.3748  -35.9627   23.3277 H   0  0  0  0  0  0
  -24.3589  -36.8935   22.2054 H   0  0  0  0  0  0
  -23.7229  -37.6492   23.6666 H   0  0  0  0  0  0
  -26.0961  -31.5560   20.6106 H   0  0  0  0  0  0
  -26.8427  -30.8388   22.0069 H   0  0  0  0  0  0
  -28.1160  -28.9805   21.1936 H   0  0  0  0  0  0
  -25.9499  -25.9478   18.9864 H   0  0  0  0  0  0
  -23.9694  -27.3206   19.0083 H   0  0  0  0  0  0
  -23.7586  -30.6044   19.4074 H   0  0  0  0  0  0
  -22.7566  -29.2567   19.8545 H   0  0  0  0  0  0
  -25.1272  -36.1937   25.0823 H   0  0  0  0  0  0
  -20.9986  -28.3266   24.1403 H   0  0  0  0  0  0
  -20.5679  -26.2300   23.3602 H   0  0  0  0  0  0
  -21.6650  -26.7442   22.1200 H   0  0  0  0  0  0
  -19.6911  -25.6294   21.1243 H   0  0  0  0  0  0
  -19.6693  -27.3191   20.6739 H   0  0  0  0  0  0
  -17.4202  -26.6684   21.4028 H   0  0  0  0  0  0
  -18.0337  -26.0077   22.9016 H   0  0  0  0  0  0
  -19.7942  -30.7284   24.2259 H   0  0  0  0  0  0
  -17.5017  -31.6267   24.5169 H   0  0  0  0  0  0
  -15.5356  -30.2979   23.7665 H   0  0  0  0  0  0
  -15.8681  -28.0822   22.7063 H   0  0  0  0  0  0
  -24.5892  -30.7089   25.7825 H   0  0  0  0  0  0
  -24.8927  -32.2905   26.4911 H   0  0  0  0  0  0
  -25.8055  -30.8916   27.0256 H   0  0  0  0  0  0
  -26.2912  -29.6757   24.1226 H   0  0  0  0  0  0
  -27.4030  -29.7277   25.4713 H   0  0  0  0  0  0
  -27.8782  -30.4300   23.9434 H   0  0  0  0  0  0
  -27.2700  -33.3620   26.2076 H   0  0  0  0  0  0
  -28.3867  -32.6853   25.0310 H   0  0  0  0  0  0
  -28.0738  -31.8430   26.5404 H   0  0  0  0  0  0
  -28.2574  -38.0116   24.7543 H   0  0  0  0  0  0
  -28.1103  -36.2653   24.6221 H   0  0  0  0  0  0
  -27.2321  -37.1377   25.8864 H   0  0  0  0  0  0
  -20.9368  -29.8774   21.6891 H   0  0  0  0  0  0
  -26.0158  -38.2853   24.1455 H   0  0  0  0  0  0
  -28.0790  -20.0633   21.0675 H   0  0  0  0  0  0
  -32.0920  -17.2832   20.2245 H   0  0  0  0  0  0
  -28.1487  -22.2020   20.3125 H   0  0  0  0  0  0
  -30.2543  -24.4357   20.1474 H   0  0  0  0  0  0
  -27.0126  -18.1342   22.0829 H   0  0  0  0  0  0
  -27.5794  -16.4977   21.8270 H   0  0  0  0  0  0
  -26.8925  -17.4206   20.4782 H   0  0  0  0  0  0
  -27.2490  -24.6819   20.4767 H   0  0  0  0  0  0
  -27.8632  -24.9176   18.8490 H   0  0  0  0  0  0
  -28.9223  -15.4254   21.1488 H   0  0  0  0  0  0
  1 25  1  0  0  0
  1 30  2  0  0  0
  1 82  1  0  0  0
  2  3  1  0  0  0
  2 25  1  0  0  0
  2 85  1  0  0  0
  2 86  1  0  0  0
  3  4  1  0  0  0
  3 87  1  0  0  0
  3 88  1  0  0  0
  4  5  1  0  0  0
  4 89  1  0  0  0
  4 90  1  0  0  0
  5  6  1  0  0  0
  5 26  1  0  0  0
  5 91  1  0  0  0
  6 25  1  0  0  0
  6 92  1  0  0  0
  6 93  1  0  0  0
  7  8  2  0  0  0
  7 26  1  0  0  0
  7 29  1  0  0  0
  8  9  1  0  0  0
  8 22  1  0  0  0
  9 10  1  0  0  0
  9 27  2  0  0  0
 10 11  2  0  0  0
 10 15  1  0  0  0
 11 12  1  0  0  0
 11 94  1  0  0  0
 12 13  2  0  0  0
 12 95  1  0  0  0
 13 14  1  0  0  0
 13 31  1  0  0  0
 14 15  2  0  0  0
 14 96  1  0  0  0
 15 97  1  0  0  0
 16 17  2  0  0  0
 16 21  1  0  0  0
 16 31  1  0  0  0
 17 18  1  0  0  0
 17 98  1  0  0  0
 18 19  2  0  0  0
 18 99  1  0  0  0
 19 20  1  0  0  0
 19 24  1  0  0  0
 20 21  2  0  0  0
 20100  1  0  0  0
 21 23  1  0  0  0
 22 28  1  0  0  0
 22 32  2  0  0  0
 26 27  1  0  0  0
 28101  1  0  0  0
 28102  1  0  0  0
 29103  1  0  0  0
 29104  1  0  0  0
 33 34  1  0  0  0
 33 66  1  0  0  0
 33 70  2  0  0  0
 34 36  1  0  0  0
 34 59  1  0  0  0
 34105  1  0  0  0
 35 44  2  0  0  0
 35 45  1  0  0  0
 35 68  1  0  0  0
 36 56  1  0  0  0
 36106  1  0  0  0
 37 39  1  0  0  0
 37 47  1  0  0  0
 37 66  1  0  0  0
 37107  1  0  0  0
 38 43  2  0  0  0
 38 46  1  0  0  0
 38 47  1  0  0  0
 39 64  1  0  0  0
 39 67  2  0  0  0
 40 52  1  0  0  0
 40 53  2  0  0  0
 40 58  1  0  0  0
 41108  1  0  0  0
 41109  1  0  0  0
 41110  1  0  0  0
 41 48  1  0  0  0
 42 43  1  0  0  0
 42 66  1  0  0  0
 42111  1  0  0  0
 42112  1  0  0  0
 43 44  1  0  0  0
 44113  1  0  0  0
 45 46  2  0  0  0
 45114  1  0  0  0
 46115  1  0  0  0
 47116  1  0  0  0
 47117  1  0  0  0
 48 56  1  0  0  0
 48 65  1  0  0  0
 48118  1  0  0  0
 49 50  1  0  0  0
 49 53  1  0  0  0
 49 64  1  0  0  0
 49119  1  0  0  0
 50 51  1  0  0  0
 50120  1  0  0  0
 50121  1  0  0  0
 51 52  1  0  0  0
 51122  1  0  0  0
 51123  1  0  0  0
 52124  1  0  0  0
 52125  1  0  0  0
 53 54  1  0  0  0
 54 55  2  0  0  0
 54126  1  0  0  0
 55 57  1  0  0  0
 55127  1  0  0  0
 56 69  2  0  0  0
 57 58  2  0  0  0
 57128  1  0  0  0
 58129  1  0  0  0
 59 60  1  0  0  0
 59 61  1  0  0  0
 59 62  1  0  0  0
 60130  1  0  0  0
 60131  1  0  0  0
 60132  1  0  0  0
 61133  1  0  0  0
 61134  1  0  0  0
 61135  1  0  0  0
 62136  1  0  0  0
 62137  1  0  0  0
 62138  1  0  0  0
 63 65  1  0  0  0
 63139  1  0  0  0
 63140  1  0  0  0
 63141  1  0  0  0
 64142  1  0  0  0
 65143  1  0  0  0
 68 81  1  0  0  0
 71 73  2  0  0  0
 71 74  1  0  0  0
 71144  1  0  0  0
 72 75  1  0  0  0
 72 76  2  0  0  0
 72145  1  0  0  0
 73 76  1  0  0  0
 73 79  1  0  0  0
 74 75  2  0  0  0
 74 80  1  0  0  0
 75 82  1  0  0  0
 76 84  1  0  0  0
 77 78  2  0  0  0
 77 79  1  0  0  0
 77146  1  0  0  0
 78 81  1  0  0  0
 78147  1  0  0  0
 79 83  2  0  0  0
 80148  1  0  0  0
 80149  1  0  0  0
 80150  1  0  0  0
 81151  1  0  0  0
 81152  1  0  0  0
 82153  1  0  0  0
M  ISO  4   1 100  68 101  81 101  82 100
M  END
> <chiral flag>
0

> <version>
0

> <s_m_source_file>
/data/baiqing/PycharmProjects/Reinvent-master-3.2/result/LINK_invent/BTK/process_docking_weight1_custom_product_contain_oxygen_bond_distance_aromatic_linkinvent_7_9_3/rearranged_h_0123.sdf

> <i_m_source_file_index>
24

> <r_mmod_Potential_Energy-OPLS-2005>
58.7254829406738

> <r_mmod_Stretch_Energy-OPLS-2005>
85.2035827636719

> <r_mmod_Bend_Energy-OPLS-2005>
137.491195678711

> <r_mmod_Torsional_Energy-OPLS-2005>
205.458709716797

> <r_mmod_Improper_Torsional_Energy-OPLS-2005>
5.17744731903076

> <r_mmod_Van_der_Waal_Energy-OPLS-2005>
154.506317138672

> <r_mmod_Electrostatic_Energy-OPLS-2005>
-357.960815429688

> <r_mmod_Solvation_Energy-OPLS-2005>
-222.805603027344

> <b_mmod_Minimization_Converged-OPLS-2005>
0

> <r_mmod_RMS_Derivative-OPLS-2005>
1.14549899101257

$$$$
24
                    3D
 Structure written by MMmdl.
161169  0  0  1  0            999 V2000
  -30.5464  -14.7246   20.5047 C   0  0  0  0  0  0
  -30.4470  -12.4453   19.4623 C   0  0  0  0  0  0
  -29.5103  -12.4974   18.2335 C   0  0  0  0  0  0
  -28.0316  -12.3353   18.6404 C   0  0  0  0  0  0
  -27.6431  -13.2140   19.8565 C   0  0  2  0  0  0
  -28.6848  -13.0835   20.9892 C   0  0  0  0  0  0
  -25.2397  -13.8030   20.5409 C   0  0  0  0  0  0
  -24.1767  -13.0359   20.9250 C   0  0  0  0  0  0
  -24.6391  -11.6859   20.8861 C   0  0  0  0  0  0
  -23.9069  -10.4270   21.0503 C   0  0  0  0  0  0
  -24.3622   -9.4179   21.9264 C   0  0  0  0  0  0
  -23.6304   -8.2205   22.0765 C   0  0  0  0  0  0
  -22.4282   -8.0282   21.3548 C   0  0  0  0  0  0
  -21.9956   -9.0255   20.4639 C   0  0  0  0  0  0
  -22.7278  -10.2131   20.3107 C   0  0  0  0  0  0
  -21.6838   -6.0759   22.5301 C   0  0  0  0  0  0
  -21.3993   -6.5662   23.8234 C   0  0  0  0  0  0
  -21.3651   -5.6811   24.9198 C   0  0  0  0  0  0
  -21.6044   -4.3073   24.7239 C   0  0  0  0  0  0
  -21.8815   -3.8174   23.4355 C   0  0  0  0  0  0
  -21.9183   -4.6994   22.3419 C   0  0  0  0  0  0
  -22.7805  -13.5190   21.1905 C   0  0  0  0  0  0
  -22.1655   -4.2191   21.0984 F   0  0  0  0  0  0
  -21.5632   -3.4544   25.7739 F   0  0  0  0  0  0
  -29.9908  -13.4687   20.4283 N   0  0  0  0  0  0
  -26.2921  -12.9287   20.3245 N   0  0  0  0  0  0
  -25.9332  -11.6468   20.5865 N   0  0  0  0  0  0
  -22.0430  -12.8193   22.0436 N   0  0  0  0  0  0
  -25.3845  -15.1657   20.3161 N   0  0  0  0  0  0
  -31.7169  -14.9171   20.1544 O   0  0  0  0  0  0
  -21.6619   -6.8896   21.4253 O   0  0  0  0  0  0
  -22.3528  -14.5543   20.6793 O   0  0  0  0  0  0
  -24.6236  -31.8596   23.1943 C   0  0  0  0  0  0
  -25.9080  -32.4755   23.8339 C   0  0  1  0  0  0
  -27.2245  -27.2709   20.1976 C   0  0  0  0  0  0
  -25.5933  -33.8544   24.2259 N   0  0  0  0  0  0
  -23.4248  -30.4762   21.5331 C   0  0  2  0  0  0
  -24.8826  -28.9130   20.1259 C   0  0  0  0  0  0
  -22.7494  -29.4597   22.4855 C   0  0  0  0  0  0
  -18.0307  -28.1385   22.8426 C   0  0  0  0  0  0
  -24.1499  -36.7266   23.2655 C   0  0  0  0  0  0
  -25.9661  -30.7803   21.3707 C   0  0  0  0  0  0
  -26.0465  -29.3922   20.7429 C   0  0  0  0  0  0
  -27.2233  -28.5807   20.7739 C   0  0  0  0  0  0
  -26.0492  -26.8502   19.5451 C   0  0  0  0  0  0
  -24.8870  -27.6465   19.5197 C   0  0  0  0  0  0
  -23.6524  -29.7998   20.1551 C   0  0  0  0  0  0
  -25.4100  -36.3032   24.0370 C   0  0  1  0  0  0
  -20.5930  -28.3707   23.1251 C   0  0  2  0  0  0
  -20.6807  -26.9455   22.5366 C   0  0  0  0  0  0
  -19.5790  -26.6429   21.5169 C   0  0  0  0  0  0
  -18.1962  -26.7929   22.1590 C   0  0  0  0  0  0
  -19.1560  -28.8861   23.2833 C   0  0  0  0  0  0
  -18.9516  -30.1457   23.8874 C   0  0  0  0  0  0
  -17.6525  -30.6581   24.0577 C   0  0  0  0  0  0
  -25.9064  -34.9436   23.5109 C   0  0  0  0  0  0
  -16.5404  -29.9099   23.6329 C   0  0  0  0  0  0
  -16.7315  -28.6529   23.0308 C   0  0  0  0  0  0
  -26.4462  -31.6544   25.0673 C   0  0  0  0  0  0
  -25.3699  -31.3715   26.1415 C   0  0  0  0  0  0
  -27.0329  -30.2999   24.6067 C   0  0  0  0  0  0
  -27.6027  -32.4269   25.7459 C   0  0  0  0  0  0
  -27.5552  -37.1747   24.8472 C   0  0  0  0  0  0
  -21.4193  -29.3063   22.3649 N   0  0  0  0  0  0
  -26.4236  -37.3742   23.9470 N   0  0  0  0  0  0
  -24.6889  -31.0591   22.0924 N   0  0  0  0  0  0
  -23.4219  -28.8124   23.2915 O   0  0  0  0  0  0
  -28.3324  -26.4143   20.1043 O   0  0  0  0  0  0
  -26.5627  -34.8908   22.4658 O   0  0  0  0  0  0
  -23.5388  -32.1447   23.7215 O   0  0  0  0  0  0
  -30.5701  -19.5194   20.4979 C   0  0  0  0  0  0
  -30.6844  -18.0869   20.4256 C   0  0  0  0  0  0
  -28.3352  -19.3127   21.3010 C   0  0  0  0  0  0
  -29.3899  -20.1832   20.9450 C   0  0  0  0  0  0
  -28.4476  -17.8922   21.2761 C   0  0  0  0  0  0
  -29.6296  -17.2151   20.8282 C   0  0  0  0  0  0
  -27.7041  -21.8046   24.5595 C   0  0  0  0  0  0
  -29.2683  -21.6622   21.3131 C   0  0  0  0  0  0
  -27.2612  -22.6578   23.6186 C   0  0  0  0  0  0
  -28.4491  -22.6587   20.8280 C   0  0  0  0  0  0
  -27.2497  -17.1502   21.8361 C   0  0  0  0  0  0
  -28.0534  -23.8465   23.0762 C   0  0  0  0  0  0
  -28.7243  -25.4551   21.1654 C   0  0  0  0  0  0
  -28.0404  -24.0303   21.5198 C   0  0  1  0  0  0
  -29.6584  -15.7326   20.8269 N   0  0  0  0  0  0
  -31.4824  -12.6093   19.1589 H   0  0  0  0  0  0
  -30.4243  -11.4564   19.9228 H   0  0  0  0  0  0
  -29.7824  -11.7139   17.5267 H   0  0  0  0  0  0
  -29.6422  -13.4444   17.7089 H   0  0  0  0  0  0
  -27.8701  -11.2837   18.8781 H   0  0  0  0  0  0
  -27.3807  -12.5562   17.7939 H   0  0  0  0  0  0
  -27.6512  -14.2458   19.5050 H   0  0  0  0  0  0
  -28.7197  -12.0585   21.3601 H   0  0  0  0  0  0
  -28.4131  -13.6986   21.8490 H   0  0  0  0  0  0
  -25.2738   -9.5647   22.4898 H   0  0  0  0  0  0
  -24.0012   -7.4560   22.7461 H   0  0  0  0  0  0
  -21.0918   -8.8799   19.8886 H   0  0  0  0  0  0
  -22.3778  -10.9717   19.6241 H   0  0  0  0  0  0
  -21.1967   -7.6161   23.9772 H   0  0  0  0  0  0
  -21.1478   -6.0517   25.9105 H   0  0  0  0  0  0
  -22.0595   -2.7638   23.2838 H   0  0  0  0  0  0
  -22.3993  -11.9794   22.4763 H   0  0  0  0  0  0
  -21.1057  -13.1237   22.2660 H   0  0  0  0  0  0
  -24.5939  -15.7981   20.3766 H   0  0  0  0  0  0
  -26.1701  -15.5589   19.8171 H   0  0  0  0  0  0
  -26.7170  -32.5440   23.1126 H   0  0  0  0  0  0
  -25.0071  -33.9749   25.0410 H   0  0  0  0  0  0
  -22.7172  -31.2887   21.3696 H   0  0  0  0  0  0
  -23.3742  -35.9612   23.3297 H   0  0  0  0  0  0
  -24.3655  -36.8895   22.2073 H   0  0  0  0  0  0
  -23.7312  -37.6494   23.6701 H   0  0  0  0  0  0
  -26.0803  -31.5246   20.5819 H   0  0  0  0  0  0
  -26.8547  -30.8601   21.9842 H   0  0  0  0  0  0
  -28.1173  -28.9515   21.2582 H   0  0  0  0  0  0
  -26.0366  -25.8844   19.0631 H   0  0  0  0  0  0
  -24.0022  -27.2664   19.0299 H   0  0  0  0  0  0
  -23.7857  -30.5763   19.3992 H   0  0  0  0  0  0
  -22.7717  -29.2298   19.8450 H   0  0  0  0  0  0
  -25.1259  -36.1859   25.0867 H   0  0  0  0  0  0
  -20.9983  -28.3305   24.1396 H   0  0  0  0  0  0
  -20.5805  -26.2320   23.3562 H   0  0  0  0  0  0
  -21.6671  -26.7553   22.1118 H   0  0  0  0  0  0
  -19.7063  -25.6358   21.1197 H   0  0  0  0  0  0
  -19.6765  -27.3232   20.6688 H   0  0  0  0  0  0
  -17.4236  -26.6676   21.3988 H   0  0  0  0  0  0
  -18.0390  -26.0078   22.8995 H   0  0  0  0  0  0
  -19.8029  -30.7213   24.2250 H   0  0  0  0  0  0
  -17.5132  -31.6290   24.5165 H   0  0  0  0  0  0
  -15.5404  -30.3019   23.7698 H   0  0  0  0  0  0
  -15.8687  -28.0887   22.6984 H   0  0  0  0  0  0
  -24.5913  -30.7031   25.7741 H   0  0  0  0  0  0
  -24.8833  -32.2880   26.4744 H   0  0  0  0  0  0
  -25.8022  -30.8969   27.0238 H   0  0  0  0  0  0
  -26.2889  -29.6740   24.1104 H   0  0  0  0  0  0
  -27.4133  -29.7242   25.4506 H   0  0  0  0  0  0
  -27.8713  -30.4364   23.9250 H   0  0  0  0  0  0
  -27.2708  -33.3629   26.1969 H   0  0  0  0  0  0
  -28.3889  -32.6724   25.0310 H   0  0  0  0  0  0
  -28.0657  -31.8429   26.5434 H   0  0  0  0  0  0
  -28.2443  -38.0115   24.7453 H   0  0  0  0  0  0
  -28.1149  -36.2625   24.6311 H   0  0  0  0  0  0
  -27.2302  -37.1355   25.8874 H   0  0  0  0  0  0
  -20.9371  -29.8727   21.6791 H   0  0  0  0  0  0
  -26.0111  -38.2824   24.1442 H   0  0  0  0  0  0
  -31.4318  -20.1165   20.2388 H   0  0  0  0  0  0
  -31.6205  -17.6675   20.0898 H   0  0  0  0  0  0
  -27.4256  -19.7504   21.6891 H   0  0  0  0  0  0
  -27.0767  -20.9964   24.9093 H   0  0  0  0  0  0
  -28.6905  -21.8852   25.0032 H   0  0  0  0  0  0
  -29.8505  -21.9140   22.1873 H   0  0  0  0  0  0
  -26.2671  -22.5129   23.2160 H   0  0  0  0  0  0
  -27.8987  -22.4461   19.9215 H   0  0  0  0  0  0
  -27.1736  -17.3154   22.9124 H   0  0  0  0  0  0
  -27.3010  -16.0759   21.6782 H   0  0  0  0  0  0
  -26.3329  -17.5336   21.3828 H   0  0  0  0  0  0
  -29.0774  -23.7944   23.4545 H   0  0  0  0  0  0
  -27.6073  -24.7242   23.5470 H   0  0  0  0  0  0
  -29.7880  -25.2591   21.0093 H   0  0  0  0  0  0
  -28.7170  -26.0563   22.0740 H   0  0  0  0  0  0
  -26.9847  -24.1524   21.2693 H   0  0  0  0  0  0
  -28.7605  -15.3351   21.0535 H   0  0  0  0  0  0
  1 25  1  0  0  0
  1 30  2  0  0  0
  1 85  1  0  0  0
  2  3  1  0  0  0
  2 25  1  0  0  0
  2 86  1  0  0  0
  2 87  1  0  0  0
  3  4  1  0  0  0
  3 88  1  0  0  0
  3 89  1  0  0  0
  4  5  1  0  0  0
  4 90  1  0  0  0
  4 91  1  0  0  0
  5  6  1  0  0  0
  5 26  1  0  0  0
  5 92  1  0  0  0
  6 25  1  0  0  0
  6 93  1  0  0  0
  6 94  1  0  0  0
  7  8  2  0  0  0
  7 26  1  0  0  0
  7 29  1  0  0  0
  8  9  1  0  0  0
  8 22  1  0  0  0
  9 10  1  0  0  0
  9 27  2  0  0  0
 10 11  2  0  0  0
 10 15  1  0  0  0
 11 12  1  0  0  0
 11 95  1  0  0  0
 12 13  2  0  0  0
 12 96  1  0  0  0
 13 14  1  0  0  0
 13 31  1  0  0  0
 14 15  2  0  0  0
 14 97  1  0  0  0
 15 98  1  0  0  0
 16 17  2  0  0  0
 16 21  1  0  0  0
 16 31  1  0  0  0
 17 18  1  0  0  0
 17 99  1  0  0  0
 18 19  2  0  0  0
 18100  1  0  0  0
 19 20  1  0  0  0
 19 24  1  0  0  0
 20 21  2  0  0  0
 20101  1  0  0  0
 21 23  1  0  0  0
 22 28  1  0  0  0
 22 32  2  0  0  0
 26 27  1  0  0  0
 28102  1  0  0  0
 28103  1  0  0  0
 29104  1  0  0  0
 29105  1  0  0  0
 33 34  1  0  0  0
 33 66  1  0  0  0
 33 70  2  0  0  0
 34 36  1  0  0  0
 34 59  1  0  0  0
 34106  1  0  0  0
 35 44  2  0  0  0
 35 45  1  0  0  0
 35 68  1  0  0  0
 36 56  1  0  0  0
 36107  1  0  0  0
 37 39  1  0  0  0
 37 47  1  0  0  0
 37 66  1  0  0  0
 37108  1  0  0  0
 38 43  2  0  0  0
 38 46  1  0  0  0
 38 47  1  0  0  0
 39 64  1  0  0  0
 39 67  2  0  0  0
 40 52  1  0  0  0
 40 53  2  0  0  0
 40 58  1  0  0  0
 41109  1  0  0  0
 41110  1  0  0  0
 41111  1  0  0  0
 41 48  1  0  0  0
 42 43  1  0  0  0
 42 66  1  0  0  0
 42112  1  0  0  0
 42113  1  0  0  0
 43 44  1  0  0  0
 44114  1  0  0  0
 45 46  2  0  0  0
 45115  1  0  0  0
 46116  1  0  0  0
 47117  1  0  0  0
 47118  1  0  0  0
 48 56  1  0  0  0
 48 65  1  0  0  0
 48119  1  0  0  0
 49 50  1  0  0  0
 49 53  1  0  0  0
 49 64  1  0  0  0
 49120  1  0  0  0
 50 51  1  0  0  0
 50121  1  0  0  0
 50122  1  0  0  0
 51 52  1  0  0  0
 51123  1  0  0  0
 51124  1  0  0  0
 52125  1  0  0  0
 52126  1  0  0  0
 53 54  1  0  0  0
 54 55  2  0  0  0
 54127  1  0  0  0
 55 57  1  0  0  0
 55128  1  0  0  0
 56 69  2  0  0  0
 57 58  2  0  0  0
 57129  1  0  0  0
 58130  1  0  0  0
 59 60  1  0  0  0
 59 61  1  0  0  0
 59 62  1  0  0  0
 60131  1  0  0  0
 60132  1  0  0  0
 60133  1  0  0  0
 61134  1  0  0  0
 61135  1  0  0  0
 61136  1  0  0  0
 62137  1  0  0  0
 62138  1  0  0  0
 62139  1  0  0  0
 63 65  1  0  0  0
 63140  1  0  0  0
 63141  1  0  0  0
 63142  1  0  0  0
 64143  1  0  0  0
 65144  1  0  0  0
 68 83  1  0  0  0
 71 72  2  0  0  0
 71 74  1  0  0  0
 71145  1  0  0  0
 72 76  1  0  0  0
 72146  1  0  0  0
 73 74  2  0  0  0
 73 75  1  0  0  0
 73147  1  0  0  0
 74 78  1  0  0  0
 75 76  2  0  0  0
 75 81  1  0  0  0
 76 85  1  0  0  0
 77 79  2  0  0  0
 77148  1  0  0  0
 77149  1  0  0  0
 78 80  2  0  0  0
 78150  1  0  0  0
 79 82  1  0  0  0
 79151  1  0  0  0
 80 84  1  0  0  0
 80152  1  0  0  0
 81153  1  0  0  0
 81154  1  0  0  0
 81155  1  0  0  0
 82156  1  0  0  0
 82157  1  0  0  0
 82 84  1  0  0  0
 83 84  1  0  0  0
 83158  1  0  0  0
 83159  1  0  0  0
 84160  1  0  0  0
 85161  1  0  0  0
M  ISO  4   1 100  68 101  83 101  85 100
M  END
> <chiral flag>
0

> <version>
0

> <s_m_source_file>
/data/baiqing/PycharmProjects/Reinvent-master-3.2/result/LINK_invent/BTK/process_docking_weight1_custom_product_contain_oxygen_bond_distance_aromatic_linkinvent_7_9_3/rearranged_h_0123.sdf

> <i_m_source_file_index>
25

> <r_mmod_Potential_Energy-OPLS-2005>
228.964553833008

> <r_mmod_Stretch_Energy-OPLS-2005>
98.8961486816406

> <r_mmod_Bend_Energy-OPLS-2005>
202.391311645508

> <r_mmod_Torsional_Energy-OPLS-2005>
281.250274658203

> <r_mmod_Improper_Torsional_Energy-OPLS-2005>
11.4232406616211

> <r_mmod_Van_der_Waal_Energy-OPLS-2005>
135.162796020508

> <r_mmod_Electrostatic_Energy-OPLS-2005>
-384.019134521484

> <r_mmod_Solvation_Energy-OPLS-2005>
-193.311706542969

> <b_mmod_Minimization_Converged-OPLS-2005>
0

> <r_mmod_RMS_Derivative-OPLS-2005>
6.31391429901123

$$$$
25
                    3D
 Structure written by MMmdl.
154162  0  0  1  0            999 V2000
  -30.6084  -14.8034   20.3895 C   0  0  0  0  0  0
  -30.4353  -12.4827   19.4760 C   0  0  0  0  0  0
  -29.5144  -12.4865   18.2344 C   0  0  0  0  0  0
  -28.0546  -12.2284   18.6568 C   0  0  0  0  0  0
  -27.6206  -13.1668   19.8046 C   0  0  2  0  0  0
  -28.6671  -13.2239   20.9417 C   0  0  0  0  0  0
  -25.2568  -13.8017   20.5631 C   0  0  0  0  0  0
  -24.1798  -13.0396   20.9209 C   0  0  0  0  0  0
  -24.6308  -11.6843   20.8781 C   0  0  0  0  0  0
  -23.8967  -10.4277   21.0440 C   0  0  0  0  0  0
  -24.3552   -9.4201   21.9187 C   0  0  0  0  0  0
  -23.6240   -8.2238   22.0761 C   0  0  0  0  0  0
  -22.4221   -8.0282   21.3547 C   0  0  0  0  0  0
  -21.9853   -9.0250   20.4655 C   0  0  0  0  0  0
  -22.7169  -10.2126   20.3061 C   0  0  0  0  0  0
  -21.6834   -6.0745   22.5300 C   0  0  0  0  0  0
  -21.4015   -6.5632   23.8237 C   0  0  0  0  0  0
  -21.3648   -5.6773   24.9189 C   0  0  0  0  0  0
  -21.6026   -4.3035   24.7225 C   0  0  0  0  0  0
  -21.8805   -3.8144   23.4340 C   0  0  0  0  0  0
  -21.9178   -4.6978   22.3409 C   0  0  0  0  0  0
  -22.7824  -13.5259   21.1843 C   0  0  0  0  0  0
  -22.1638   -4.2172   21.0971 F   0  0  0  0  0  0
  -21.5614   -3.4502   25.7730 F   0  0  0  0  0  0
  -29.9762  -13.5718   20.3658 N   0  0  0  0  0  0
  -26.2835  -12.9048   20.3078 N   0  0  0  0  0  0
  -25.9184  -11.6288   20.5694 N   0  0  0  0  0  0
  -22.0393  -12.8341   22.0388 N   0  0  0  0  0  0
  -25.4440  -15.1721   20.4082 N   0  0  0  0  0  0
  -31.8248  -14.8639   20.1858 O   0  0  0  0  0  0
  -21.6587   -6.8878   21.4252 O   0  0  0  0  0  0
  -22.3565  -14.5558   20.6620 O   0  0  0  0  0  0
  -24.6283  -31.8569   23.2084 C   0  0  0  0  0  0
  -25.9150  -32.4772   23.8374 C   0  0  1  0  0  0
  -27.2329  -27.2948   20.1030 C   0  0  0  0  0  0
  -25.5973  -33.8580   24.2302 N   0  0  0  0  0  0
  -23.4264  -30.4823   21.5490 C   0  0  2  0  0  0
  -24.8749  -28.9389   20.1141 C   0  0  0  0  0  0
  -22.7497  -29.4609   22.4947 C   0  0  0  0  0  0
  -18.0294  -28.1416   22.8476 C   0  0  0  0  0  0
  -24.1498  -36.7266   23.2633 C   0  0  0  0  0  0
  -25.9731  -30.7691   21.3973 C   0  0  0  0  0  0
  -26.0430  -29.3970   20.7353 C   0  0  0  0  0  0
  -27.2167  -28.5800   20.7393 C   0  0  0  0  0  0
  -26.0468  -26.9219   19.4222 C   0  0  0  0  0  0
  -24.8810  -27.7050   19.4530 C   0  0  0  0  0  0
  -23.6456  -29.8229   20.1637 C   0  0  0  0  0  0
  -25.4137  -36.3078   24.0322 C   0  0  1  0  0  0
  -20.5895  -28.3706   23.1284 C   0  0  2  0  0  0
  -20.6808  -26.9433   22.5412 C   0  0  0  0  0  0
  -19.5792  -26.6401   21.5215 C   0  0  0  0  0  0
  -18.1958  -26.7962   22.1608 C   0  0  0  0  0  0
  -19.1542  -28.8882   23.2864 C   0  0  0  0  0  0
  -18.9460  -30.1484   23.8891 C   0  0  0  0  0  0
  -17.6462  -30.6611   24.0573 C   0  0  0  0  0  0
  -25.9060  -34.9447   23.5093 C   0  0  0  0  0  0
  -16.5357  -29.9107   23.6359 C   0  0  0  0  0  0
  -16.7277  -28.6528   23.0368 C   0  0  0  0  0  0
  -26.4536  -31.6609   25.0762 C   0  0  0  0  0  0
  -25.3734  -31.3757   26.1468 C   0  0  0  0  0  0
  -27.0398  -30.3022   24.6256 C   0  0  0  0  0  0
  -27.6085  -32.4346   25.7517 C   0  0  0  0  0  0
  -27.5602  -37.1776   24.8465 C   0  0  0  0  0  0
  -21.4206  -29.3035   22.3662 N   0  0  0  0  0  0
  -26.4322  -37.3775   23.9400 N   0  0  0  0  0  0
  -24.6936  -31.0569   22.1048 N   0  0  0  0  0  0
  -23.4195  -28.8147   23.3039 O   0  0  0  0  0  0
  -28.3392  -26.4156   20.1763 O   0  0  0  0  0  0
  -26.5608  -34.8896   22.4642 O   0  0  0  0  0  0
  -23.5443  -32.1407   23.7401 O   0  0  0  0  0  0
  -30.5517  -20.3847   21.4420 C   0  0  0  0  0  0
  -31.0664  -19.3138   22.2104 C   0  0  0  0  0  0
  -29.7242  -18.7378   19.8806 C   0  0  0  0  0  0
  -29.8816  -20.1307   20.2343 C   0  0  0  0  0  0
  -30.1902  -17.6021   20.6561 C   0  0  0  0  0  0
  -30.8965  -17.9504   21.8423 C   0  0  0  0  0  0
  -29.3398  -21.2246   19.3210 C   0  0  0  0  0  0
  -29.0326  -22.5765   19.2605 C   0  0  0  0  0  0
  -29.7168  -16.1564   20.3023 C   0  0  0  0  0  0
  -29.0361  -23.8161   20.1463 C   0  0  0  0  0  0
  -31.4390  -16.8878   22.7868 C   0  0  0  0  0  0
  -28.2255  -25.0607   19.5625 C   0  0  0  0  0  0
  -28.5378  -16.1361   19.8478 N   0  0  0  0  0  0
  -29.5906  -23.8827   21.2462 O   0  0  0  0  0  0
  -31.4748  -12.6115   19.1735 H   0  0  0  0  0  0
  -30.3836  -11.5276   19.9999 H   0  0  0  0  0  0
  -29.8465  -11.7374   17.5121 H   0  0  0  0  0  0
  -29.5880  -13.4518   17.7275 H   0  0  0  0  0  0
  -27.9794  -11.1902   18.9806 H   0  0  0  0  0  0
  -27.3861  -12.3340   17.8030 H   0  0  0  0  0  0
  -27.5336  -14.1066   19.2825 H   0  0  0  0  0  0
  -28.7261  -12.2626   21.4508 H   0  0  0  0  0  0
  -28.3706  -13.9583   21.6921 H   0  0  0  0  0  0
  -25.2700   -9.5671   22.4762 H   0  0  0  0  0  0
  -23.9944   -7.4607   22.7477 H   0  0  0  0  0  0
  -21.0784   -8.8775   19.8963 H   0  0  0  0  0  0
  -22.3627  -10.9668   19.6170 H   0  0  0  0  0  0
  -21.2014   -7.6142   23.9755 H   0  0  0  0  0  0
  -21.1467   -6.0498   25.9100 H   0  0  0  0  0  0
  -22.0587   -2.7615   23.2821 H   0  0  0  0  0  0
  -22.3933  -12.0049   22.4923 H   0  0  0  0  0  0
  -21.1020  -13.1441   22.2520 H   0  0  0  0  0  0
  -24.7078  -15.8541   20.5574 H   0  0  0  0  0  0
  -26.3313  -15.5773   20.1225 H   0  0  0  0  0  0
  -26.7197  -32.5414   23.1104 H   0  0  0  0  0  0
  -25.0214  -33.9724   25.0501 H   0  0  0  0  0  0
  -22.7216  -31.3032   21.4066 H   0  0  0  0  0  0
  -23.3770  -35.9583   23.3304 H   0  0  0  0  0  0
  -24.3593  -36.8882   22.2047 H   0  0  0  0  0  0
  -23.7232  -37.6455   23.6652 H   0  0  0  0  0  0
  -26.1302  -31.5323   20.6356 H   0  0  0  0  0  0
  -26.8414  -30.8047   22.0427 H   0  0  0  0  0  0
  -28.1023  -28.9142   21.2617 H   0  0  0  0  0  0
  -25.9694  -26.0192   18.8363 H   0  0  0  0  0  0
  -23.9995  -27.3573   18.9356 H   0  0  0  0  0  0
  -23.7796  -30.5997   19.4092 H   0  0  0  0  0  0
  -22.7648  -29.2613   19.8509 H   0  0  0  0  0  0
  -25.1324  -36.1924   25.0817 H   0  0  0  0  0  0
  -20.9974  -28.3288   24.1413 H   0  0  0  0  0  0
  -20.5775  -26.2295   23.3586 H   0  0  0  0  0  0
  -21.6667  -26.7528   22.1162 H   0  0  0  0  0  0
  -19.6958  -25.6301   21.1268 H   0  0  0  0  0  0
  -19.6763  -27.3182   20.6710 H   0  0  0  0  0  0
  -17.4236  -26.6690   21.3996 H   0  0  0  0  0  0
  -18.0367  -26.0111   22.9007 H   0  0  0  0  0  0
  -19.7936  -30.7295   24.2258 H   0  0  0  0  0  0
  -17.5030  -31.6300   24.5153 H   0  0  0  0  0  0
  -15.5366  -30.3008   23.7721 H   0  0  0  0  0  0
  -15.8669  -28.0859   22.7108 H   0  0  0  0  0  0
  -24.5888  -30.7152   25.7771 H   0  0  0  0  0  0
  -24.8962  -32.2935   26.4913 H   0  0  0  0  0  0
  -25.8029  -30.8895   27.0229 H   0  0  0  0  0  0
  -26.2992  -29.6743   24.1300 H   0  0  0  0  0  0
  -27.4100  -29.7343   25.4793 H   0  0  0  0  0  0
  -27.8873  -30.4328   23.9530 H   0  0  0  0  0  0
  -27.2702  -33.3640   26.2095 H   0  0  0  0  0  0
  -28.3887  -32.6903   25.0347 H   0  0  0  0  0  0
  -28.0737  -31.8460   26.5426 H   0  0  0  0  0  0
  -28.2610  -38.0081   24.7543 H   0  0  0  0  0  0
  -28.1101  -36.2611   24.6272 H   0  0  0  0  0  0
  -27.2310  -37.1424   25.8863 H   0  0  0  0  0  0
  -20.9415  -29.8708   21.6804 H   0  0  0  0  0  0
  -26.0193  -38.2831   24.1424 H   0  0  0  0  0  0
  -30.6855  -21.4033   21.7752 H   0  0  0  0  0  0
  -31.5849  -19.5554   23.1269 H   0  0  0  0  0  0
  -29.1872  -18.5317   18.9648 H   0  0  0  0  0  0
  -29.1441  -20.7841   18.3524 H   0  0  0  0  0  0
  -28.6642  -22.8401   18.2788 H   0  0  0  0  0  0
  -31.8031  -17.3228   23.7183 H   0  0  0  0  0  0
  -32.2731  -16.3628   22.3228 H   0  0  0  0  0  0
  -30.6750  -16.1539   23.0499 H   0  0  0  0  0  0
  -27.2019  -24.6999   19.6050 H   0  0  0  0  0  0
  -28.4701  -25.1595   18.5058 H   0  0  0  0  0  0
  -28.1629  -17.0779   19.8252 H   0  0  0  0  0  0
  1 25  1  0  0  0
  1 30  2  0  0  0
  1 79  1  0  0  0
  2  3  1  0  0  0
  2 25  1  0  0  0
  2 85  1  0  0  0
  2 86  1  0  0  0
  3  4  1  0  0  0
  3 87  1  0  0  0
  3 88  1  0  0  0
  4  5  1  0  0  0
  4 89  1  0  0  0
  4 90  1  0  0  0
  5  6  1  0  0  0
  5 26  1  0  0  0
  5 91  1  0  0  0
  6 25  1  0  0  0
  6 92  1  0  0  0
  6 93  1  0  0  0
  7  8  2  0  0  0
  7 26  1  0  0  0
  7 29  1  0  0  0
  8  9  1  0  0  0
  8 22  1  0  0  0
  9 10  1  0  0  0
  9 27  2  0  0  0
 10 11  2  0  0  0
 10 15  1  0  0  0
 11 12  1  0  0  0
 11 94  1  0  0  0
 12 13  2  0  0  0
 12 95  1  0  0  0
 13 14  1  0  0  0
 13 31  1  0  0  0
 14 15  2  0  0  0
 14 96  1  0  0  0
 15 97  1  0  0  0
 16 17  2  0  0  0
 16 21  1  0  0  0
 16 31  1  0  0  0
 17 18  1  0  0  0
 17 98  1  0  0  0
 18 19  2  0  0  0
 18 99  1  0  0  0
 19 20  1  0  0  0
 19 24  1  0  0  0
 20 21  2  0  0  0
 20100  1  0  0  0
 21 23  1  0  0  0
 22 28  1  0  0  0
 22 32  2  0  0  0
 26 27  1  0  0  0
 28101  1  0  0  0
 28102  1  0  0  0
 29103  1  0  0  0
 29104  1  0  0  0
 33 34  1  0  0  0
 33 66  1  0  0  0
 33 70  2  0  0  0
 34 36  1  0  0  0
 34 59  1  0  0  0
 34105  1  0  0  0
 35 44  2  0  0  0
 35 45  1  0  0  0
 35 68  1  0  0  0
 36 56  1  0  0  0
 36106  1  0  0  0
 37 39  1  0  0  0
 37 47  1  0  0  0
 37 66  1  0  0  0
 37107  1  0  0  0
 38 43  2  0  0  0
 38 46  1  0  0  0
 38 47  1  0  0  0
 39 64  1  0  0  0
 39 67  2  0  0  0
 40 52  1  0  0  0
 40 53  2  0  0  0
 40 58  1  0  0  0
 41108  1  0  0  0
 41109  1  0  0  0
 41110  1  0  0  0
 41 48  1  0  0  0
 42 43  1  0  0  0
 42 66  1  0  0  0
 42111  1  0  0  0
 42112  1  0  0  0
 43 44  1  0  0  0
 44113  1  0  0  0
 45 46  2  0  0  0
 45114  1  0  0  0
 46115  1  0  0  0
 47116  1  0  0  0
 47117  1  0  0  0
 48 56  1  0  0  0
 48 65  1  0  0  0
 48118  1  0  0  0
 49 50  1  0  0  0
 49 53  1  0  0  0
 49 64  1  0  0  0
 49119  1  0  0  0
 50 51  1  0  0  0
 50120  1  0  0  0
 50121  1  0  0  0
 51 52  1  0  0  0
 51122  1  0  0  0
 51123  1  0  0  0
 52124  1  0  0  0
 52125  1  0  0  0
 53 54  1  0  0  0
 54 55  2  0  0  0
 54126  1  0  0  0
 55 57  1  0  0  0
 55127  1  0  0  0
 56 69  2  0  0  0
 57 58  2  0  0  0
 57128  1  0  0  0
 58129  1  0  0  0
 59 60  1  0  0  0
 59 61  1  0  0  0
 59 62  1  0  0  0
 60130  1  0  0  0
 60131  1  0  0  0
 60132  1  0  0  0
 61133  1  0  0  0
 61134  1  0  0  0
 61135  1  0  0  0
 62136  1  0  0  0
 62137  1  0  0  0
 62138  1  0  0  0
 63 65  1  0  0  0
 63139  1  0  0  0
 63140  1  0  0  0
 63141  1  0  0  0
 64142  1  0  0  0
 65143  1  0  0  0
 68 82  1  0  0  0
 71 72  2  0  0  0
 71 74  1  0  0  0
 71144  1  0  0  0
 72 76  1  0  0  0
 72145  1  0  0  0
 73 74  2  0  0  0
 73 75  1  0  0  0
 73146  1  0  0  0
 74 77  1  0  0  0
 75 76  2  0  0  0
 75 79  1  0  0  0
 76 81  1  0  0  0
 77 78  2  0  0  0
 77147  1  0  0  0
 78 80  1  0  0  0
 78148  1  0  0  0
 79 83  2  0  0  0
 80 82  1  0  0  0
 80 84  2  0  0  0
 81149  1  0  0  0
 81150  1  0  0  0
 81151  1  0  0  0
 82152  1  0  0  0
 82153  1  0  0  0
 83154  1  0  0  0
M  ISO  4   1 100  68 101  79 100  82 101
M  END
> <chiral flag>
0

> <version>
0

> <s_m_source_file>
/data/baiqing/PycharmProjects/Reinvent-master-3.2/result/LINK_invent/BTK/process_docking_weight1_custom_product_contain_oxygen_bond_distance_aromatic_linkinvent_7_9_3/rearranged_h_0123.sdf

> <i_m_source_file_index>
26

> <r_mmod_Potential_Energy-OPLS-2005>
425.108032226562

> <r_mmod_Stretch_Energy-OPLS-2005>
119.911880493164

> <r_mmod_Bend_Energy-OPLS-2005>
247.524597167969

> <r_mmod_Torsional_Energy-OPLS-2005>
208.772308349609

> <r_mmod_Improper_Torsional_Energy-OPLS-2005>
9.78150653839111

> <r_mmod_Van_der_Waal_Energy-OPLS-2005>
160.870025634766

> <r_mmod_Electrostatic_Energy-OPLS-2005>
-208.936508178711

> <r_mmod_Solvation_Energy-OPLS-2005>
-215.3681640625

> <b_mmod_Minimization_Converged-OPLS-2005>
0

> <r_mmod_RMS_Derivative-OPLS-2005>
4.38808631896973

$$$$
26
                    3D
 Structure written by MMmdl.
156164  0  0  1  0            999 V2000
  -30.6843  -14.5347   20.4830 C   0  0  0  0  0  0
  -30.4305  -12.3421   19.4065 C   0  0  0  0  0  0
  -29.4954  -12.5443   18.1946 C   0  0  0  0  0  0
  -28.0210  -12.3752   18.6165 C   0  0  0  0  0  0
  -27.6657  -13.2148   19.8719 C   0  0  2  0  0  0
  -28.7176  -13.0278   20.9891 C   0  0  0  0  0  0
  -25.2618  -13.8186   20.5710 C   0  0  0  0  0  0
  -24.1846  -13.0468   20.9173 C   0  0  0  0  0  0
  -24.6400  -11.6927   20.8713 C   0  0  0  0  0  0
  -23.9083  -10.4302   21.0390 C   0  0  0  0  0  0
  -24.3634   -9.4222   21.9177 C   0  0  0  0  0  0
  -23.6310   -8.2257   22.0744 C   0  0  0  0  0  0
  -22.4288   -8.0273   21.3533 C   0  0  0  0  0  0
  -21.9912   -9.0272   20.4675 C   0  0  0  0  0  0
  -22.7226  -10.2145   20.3072 C   0  0  0  0  0  0
  -21.6848   -6.0739   22.5275 C   0  0  0  0  0  0
  -21.3990   -6.5632   23.8206 C   0  0  0  0  0  0
  -21.3665   -5.6784   24.9173 C   0  0  0  0  0  0
  -21.6072   -4.3058   24.7221 C   0  0  0  0  0  0
  -21.8813   -3.8157   23.4339 C   0  0  0  0  0  0
  -21.9161   -4.6974   22.3400 C   0  0  0  0  0  0
  -22.7846  -13.5295   21.1788 C   0  0  0  0  0  0
  -22.1658   -4.2155   21.0987 F   0  0  0  0  0  0
  -21.5650   -3.4530   25.7733 F   0  0  0  0  0  0
  -30.0421  -13.3350   20.4235 N   0  0  0  0  0  0
  -26.3065  -12.9370   20.3388 N   0  0  0  0  0  0
  -25.9326  -11.6536   20.5709 N   0  0  0  0  0  0
  -22.0433  -12.8346   22.0334 N   0  0  0  0  0  0
  -25.4390  -15.1887   20.4084 N   0  0  0  0  0  0
  -31.8512  -14.6737   20.1002 O   0  0  0  0  0  0
  -21.6653   -6.8882   21.4224 O   0  0  0  0  0  0
  -22.3565  -14.5591   20.6589 O   0  0  0  0  0  0
  -24.6185  -31.8709   23.2103 C   0  0  0  0  0  0
  -25.9084  -32.4822   23.8388 C   0  0  1  0  0  0
  -27.2073  -27.3772   20.0934 C   0  0  0  0  0  0
  -25.5961  -33.8628   24.2294 N   0  0  0  0  0  0
  -23.4070  -30.4962   21.5516 C   0  0  2  0  0  0
  -24.8454  -28.9606   20.1138 C   0  0  0  0  0  0
  -22.7463  -29.4675   22.4978 C   0  0  0  0  0  0
  -18.0300  -28.1370   22.8437 C   0  0  0  0  0  0
  -24.1519  -36.7295   23.2624 C   0  0  0  0  0  0
  -25.9487  -30.8039   21.3921 C   0  0  0  0  0  0
  -26.0120  -29.4444   20.7178 C   0  0  0  0  0  0
  -27.1938  -28.6620   20.6969 C   0  0  0  0  0  0
  -26.0150  -26.9292   19.4753 C   0  0  0  0  0  0
  -24.8457  -27.7056   19.4904 C   0  0  0  0  0  0
  -23.6173  -29.8368   20.1662 C   0  0  0  0  0  0
  -25.4146  -36.3110   24.0314 C   0  0  1  0  0  0
  -20.5889  -28.3680   23.1298 C   0  0  2  0  0  0
  -20.6800  -26.9407   22.5445 C   0  0  0  0  0  0
  -19.5802  -26.6365   21.5210 C   0  0  0  0  0  0
  -18.1952  -26.7937   22.1544 C   0  0  0  0  0  0
  -19.1546  -28.8830   23.2862 C   0  0  0  0  0  0
  -18.9467  -30.1435   23.8875 C   0  0  0  0  0  0
  -17.6472  -30.6578   24.0537 C   0  0  0  0  0  0
  -25.9073  -34.9483   23.5099 C   0  0  0  0  0  0
  -16.5364  -29.9065   23.6317 C   0  0  0  0  0  0
  -16.7289  -28.6483   23.0329 C   0  0  0  0  0  0
  -26.4448  -31.6637   25.0768 C   0  0  0  0  0  0
  -25.3624  -31.3881   26.1472 C   0  0  0  0  0  0
  -27.0273  -30.3009   24.6331 C   0  0  0  0  0  0
  -27.6052  -32.4370   25.7504 C   0  0  0  0  0  0
  -27.5632  -37.1799   24.8427 C   0  0  0  0  0  0
  -21.4198  -29.3036   22.3699 N   0  0  0  0  0  0
  -26.4324  -37.3798   23.9402 N   0  0  0  0  0  0
  -24.6737  -31.0770   22.1039 N   0  0  0  0  0  0
  -23.4225  -28.8215   23.3027 O   0  0  0  0  0  0
  -28.3758  -26.6259   20.1095 O   0  0  0  0  0  0
  -26.5608  -34.8940   22.4644 O   0  0  0  0  0  0
  -23.5370  -32.1517   23.7444 O   0  0  0  0  0  0
  -29.9003  -19.4844   18.9668 C   0  0  0  0  0  0
  -29.4159  -18.0522   20.8746 C   0  0  0  0  0  0
  -30.5117  -17.1246   18.9039 C   0  0  0  0  0  0
  -29.3604  -19.3408   20.2618 C   0  0  0  0  0  0
  -30.4598  -18.3884   18.2820 C   0  0  0  0  0  0
  -29.9817  -16.9264   20.2076 C   0  0  0  0  0  0
  -28.7408  -20.5192   20.9355 C   0  0  0  0  0  0
  -28.9326  -21.8307   20.6158 C   0  0  0  0  0  0
  -28.1816  -22.9338   21.2673 C   0  0  0  0  0  0
  -30.9800  -18.5748   16.8644 C   0  0  0  0  0  0
  -28.7003  -24.3937   21.1975 C   0  0  0  0  0  0
  -28.3498  -25.1822   19.9093 C   0  0  0  0  0  0
  -29.9292  -15.6109   20.8097 N   0  0  0  0  0  0
  -27.1342  -22.7259   21.8861 O   0  0  0  0  0  0
  -31.4713  -12.4522   19.0976 H   0  0  0  0  0  0
  -30.3385  -11.3266   19.7988 H   0  0  0  0  0  0
  -29.7472  -11.8490   17.3915 H   0  0  0  0  0  0
  -29.6377  -13.5449   17.7779 H   0  0  0  0  0  0
  -27.8511  -11.3156   18.8206 H   0  0  0  0  0  0
  -27.3609  -12.6388   17.7891 H   0  0  0  0  0  0
  -27.7009  -14.2602   19.5635 H   0  0  0  0  0  0
  -28.7052  -12.0030   21.3646 H   0  0  0  0  0  0
  -28.4927  -13.6584   21.8467 H   0  0  0  0  0  0
  -25.2788   -9.5740   22.4729 H   0  0  0  0  0  0
  -24.0050   -7.4661   22.7453 H   0  0  0  0  0  0
  -21.0833   -8.8790   19.9004 H   0  0  0  0  0  0
  -22.3669  -10.9685   19.6210 H   0  0  0  0  0  0
  -21.1975   -7.6144   23.9728 H   0  0  0  0  0  0
  -21.1510   -6.0510   25.9082 H   0  0  0  0  0  0
  -22.0578   -2.7621   23.2821 H   0  0  0  0  0  0
  -22.4039  -12.0121   22.4952 H   0  0  0  0  0  0
  -21.1025  -13.1427   22.2395 H   0  0  0  0  0  0
  -24.6798  -15.8511   20.5197 H   0  0  0  0  0  0
  -26.3075  -15.6237   20.1208 H   0  0  0  0  0  0
  -26.7154  -32.5444   23.1143 H   0  0  0  0  0  0
  -25.0187  -33.9791   25.0487 H   0  0  0  0  0  0
  -22.6943  -31.3138   21.4144 H   0  0  0  0  0  0
  -23.3817  -35.9595   23.3295 H   0  0  0  0  0  0
  -24.3611  -36.8909   22.2040 H   0  0  0  0  0  0
  -23.7257  -37.6484   23.6645 H   0  0  0  0  0  0
  -26.1219  -31.5839   20.6508 H   0  0  0  0  0  0
  -26.8141  -30.8083   22.0455 H   0  0  0  0  0  0
  -28.0965  -29.0312   21.1612 H   0  0  0  0  0  0
  -25.9388  -25.9901   18.9541 H   0  0  0  0  0  0
  -23.9488  -27.3309   19.0182 H   0  0  0  0  0  0
  -23.7414  -30.6138   19.4102 H   0  0  0  0  0  0
  -22.7365  -29.2676   19.8630 H   0  0  0  0  0  0
  -25.1346  -36.1958   25.0804 H   0  0  0  0  0  0
  -20.9938  -28.3272   24.1430 H   0  0  0  0  0  0
  -20.5666  -26.2312   23.3652 H   0  0  0  0  0  0
  -21.6693  -26.7450   22.1292 H   0  0  0  0  0  0
  -19.6993  -25.6262   21.1292 H   0  0  0  0  0  0
  -19.6806  -27.3144   20.6716 H   0  0  0  0  0  0
  -17.4294  -26.6758   21.3870 H   0  0  0  0  0  0
  -18.0265  -26.0058   22.8886 H   0  0  0  0  0  0
  -19.7944  -30.7238   24.2277 H   0  0  0  0  0  0
  -17.5034  -31.6251   24.5162 H   0  0  0  0  0  0
  -15.5363  -30.2943   23.7671 H   0  0  0  0  0  0
  -15.8696  -28.0794   22.7051 H   0  0  0  0  0  0
  -24.5913  -30.7056   25.7883 H   0  0  0  0  0  0
  -24.8615  -32.3048   26.4600 H   0  0  0  0  0  0
  -25.7885  -30.9355   27.0426 H   0  0  0  0  0  0
  -26.2873  -29.6815   24.1233 H   0  0  0  0  0  0
  -27.3744  -29.7266   25.4939 H   0  0  0  0  0  0
  -27.8876  -30.4246   23.9743 H   0  0  0  0  0  0
  -27.2692  -33.3657   26.2153 H   0  0  0  0  0  0
  -28.3795  -32.6969   25.0265 H   0  0  0  0  0  0
  -28.0819  -31.8449   26.5337 H   0  0  0  0  0  0
  -28.2656  -38.0093   24.7501 H   0  0  0  0  0  0
  -28.1126  -36.2633   24.6213 H   0  0  0  0  0  0
  -27.2364  -37.1427   25.8828 H   0  0  0  0  0  0
  -20.9394  -29.8695   21.6847 H   0  0  0  0  0  0
  -26.0227  -38.2889   24.1359 H   0  0  0  0  0  0
  -29.8503  -20.4349   18.4585 H   0  0  0  0  0  0
  -29.0051  -17.9295   21.8686 H   0  0  0  0  0  0
  -30.9385  -16.3050   18.3370 H   0  0  0  0  0  0
  -28.0419  -20.2807   21.7275 H   0  0  0  0  0  0
  -29.6364  -22.1215   19.8534 H   0  0  0  0  0  0
  -30.8764  -19.6094   16.5348 H   0  0  0  0  0  0
  -30.4320  -17.9488   16.1582 H   0  0  0  0  0  0
  -32.0372  -18.3169   16.8023 H   0  0  0  0  0  0
  -29.7778  -24.3923   21.3537 H   0  0  0  0  0  0
  -28.2788  -24.9248   22.0504 H   0  0  0  0  0  0
  -27.4267  -24.7766   19.4999 H   0  0  0  0  0  0
  -29.1127  -24.9590   19.1602 H   0  0  0  0  0  0
  -29.0929  -15.4046   21.3382 H   0  0  0  0  0  0
  1 25  1  0  0  0
  1 30  2  0  0  0
  1 83  1  0  0  0
  2  3  1  0  0  0
  2 25  1  0  0  0
  2 85  1  0  0  0
  2 86  1  0  0  0
  3  4  1  0  0  0
  3 87  1  0  0  0
  3 88  1  0  0  0
  4  5  1  0  0  0
  4 89  1  0  0  0
  4 90  1  0  0  0
  5  6  1  0  0  0
  5 26  1  0  0  0
  5 91  1  0  0  0
  6 25  1  0  0  0
  6 92  1  0  0  0
  6 93  1  0  0  0
  7  8  2  0  0  0
  7 26  1  0  0  0
  7 29  1  0  0  0
  8  9  1  0  0  0
  8 22  1  0  0  0
  9 10  1  0  0  0
  9 27  2  0  0  0
 10 11  2  0  0  0
 10 15  1  0  0  0
 11 12  1  0  0  0
 11 94  1  0  0  0
 12 13  2  0  0  0
 12 95  1  0  0  0
 13 14  1  0  0  0
 13 31  1  0  0  0
 14 15  2  0  0  0
 14 96  1  0  0  0
 15 97  1  0  0  0
 16 17  2  0  0  0
 16 21  1  0  0  0
 16 31  1  0  0  0
 17 18  1  0  0  0
 17 98  1  0  0  0
 18 19  2  0  0  0
 18 99  1  0  0  0
 19 20  1  0  0  0
 19 24  1  0  0  0
 20 21  2  0  0  0
 20100  1  0  0  0
 21 23  1  0  0  0
 22 28  1  0  0  0
 22 32  2  0  0  0
 26 27  1  0  0  0
 28101  1  0  0  0
 28102  1  0  0  0
 29103  1  0  0  0
 29104  1  0  0  0
 33 34  1  0  0  0
 33 66  1  0  0  0
 33 70  2  0  0  0
 34 36  1  0  0  0
 34 59  1  0  0  0
 34105  1  0  0  0
 35 44  2  0  0  0
 35 45  1  0  0  0
 35 68  1  0  0  0
 36 56  1  0  0  0
 36106  1  0  0  0
 37 39  1  0  0  0
 37 47  1  0  0  0
 37 66  1  0  0  0
 37107  1  0  0  0
 38 43  2  0  0  0
 38 46  1  0  0  0
 38 47  1  0  0  0
 39 64  1  0  0  0
 39 67  2  0  0  0
 40 52  1  0  0  0
 40 53  2  0  0  0
 40 58  1  0  0  0
 41108  1  0  0  0
 41109  1  0  0  0
 41110  1  0  0  0
 41 48  1  0  0  0
 42 43  1  0  0  0
 42 66  1  0  0  0
 42111  1  0  0  0
 42112  1  0  0  0
 43 44  1  0  0  0
 44113  1  0  0  0
 45 46  2  0  0  0
 45114  1  0  0  0
 46115  1  0  0  0
 47116  1  0  0  0
 47117  1  0  0  0
 48 56  1  0  0  0
 48 65  1  0  0  0
 48118  1  0  0  0
 49 50  1  0  0  0
 49 53  1  0  0  0
 49 64  1  0  0  0
 49119  1  0  0  0
 50 51  1  0  0  0
 50120  1  0  0  0
 50121  1  0  0  0
 51 52  1  0  0  0
 51122  1  0  0  0
 51123  1  0  0  0
 52124  1  0  0  0
 52125  1  0  0  0
 53 54  1  0  0  0
 54 55  2  0  0  0
 54126  1  0  0  0
 55 57  1  0  0  0
 55127  1  0  0  0
 56 69  2  0  0  0
 57 58  2  0  0  0
 57128  1  0  0  0
 58129  1  0  0  0
 59 60  1  0  0  0
 59 61  1  0  0  0
 59 62  1  0  0  0
 60130  1  0  0  0
 60131  1  0  0  0
 60132  1  0  0  0
 61133  1  0  0  0
 61134  1  0  0  0
 61135  1  0  0  0
 62136  1  0  0  0
 62137  1  0  0  0
 62138  1  0  0  0
 63 65  1  0  0  0
 63139  1  0  0  0
 63140  1  0  0  0
 63141  1  0  0  0
 64142  1  0  0  0
 65143  1  0  0  0
 68 82  1  0  0  0
 71 74  2  0  0  0
 71 75  1  0  0  0
 71144  1  0  0  0
 72 74  1  0  0  0
 72 76  2  0  0  0
 72145  1  0  0  0
 73 75  2  0  0  0
 73 76  1  0  0  0
 73146  1  0  0  0
 74 77  1  0  0  0
 75 80  1  0  0  0
 76 83  1  0  0  0
 77 78  2  0  0  0
 77147  1  0  0  0
 78 79  1  0  0  0
 78148  1  0  0  0
 79 81  1  0  0  0
 79 84  2  0  0  0
 80149  1  0  0  0
 80150  1  0  0  0
 80151  1  0  0  0
 81 82  1  0  0  0
 81152  1  0  0  0
 81153  1  0  0  0
 82154  1  0  0  0
 82155  1  0  0  0
 83156  1  0  0  0
M  ISO  4   1 100  68 101  82 101  83 100
M  END
> <chiral flag>
0

> <version>
0

> <s_m_source_file>
/data/baiqing/PycharmProjects/Reinvent-master-3.2/result/LINK_invent/BTK/process_docking_weight1_custom_product_contain_oxygen_bond_distance_aromatic_linkinvent_7_9_3/rearranged_h_0123.sdf

> <i_m_source_file_index>
27

> <r_mmod_Potential_Energy-OPLS-2005>
-22.4521751403809

> <r_mmod_Stretch_Energy-OPLS-2005>
47.8288040161133

> <r_mmod_Bend_Energy-OPLS-2005>
107.97486114502

> <r_mmod_Torsional_Energy-OPLS-2005>
240.246322631836

> <r_mmod_Improper_Torsional_Energy-OPLS-2005>
5.39098596572876

> <r_mmod_Van_der_Waal_Energy-OPLS-2005>
154.742279052734

> <r_mmod_Electrostatic_Energy-OPLS-2005>
-380.931304931641

> <r_mmod_Solvation_Energy-OPLS-2005>
-223.013244628906

> <b_mmod_Minimization_Converged-OPLS-2005>
0

> <r_mmod_RMS_Derivative-OPLS-2005>
5.52892541885376

$$$$
27
                    3D
 Structure written by MMmdl.
157165  0  0  1  0            999 V2000
  -30.7170  -14.4199   20.6619 C   0  0  0  0  0  0
  -30.4233  -12.3129   19.3999 C   0  0  0  0  0  0
  -29.4849  -12.5193   18.1947 C   0  0  0  0  0  0
  -28.0101  -12.3668   18.6160 C   0  0  0  0  0  0
  -27.6605  -13.1996   19.8782 C   0  0  2  0  0  0
  -28.6981  -12.9420   20.9903 C   0  0  0  0  0  0
  -25.2591  -13.8152   20.5674 C   0  0  0  0  0  0
  -24.1832  -13.0421   20.9173 C   0  0  0  0  0  0
  -24.6371  -11.6888   20.8732 C   0  0  0  0  0  0
  -23.9034  -10.4270   21.0415 C   0  0  0  0  0  0
  -24.3597   -9.4188   21.9191 C   0  0  0  0  0  0
  -23.6266   -8.2226   22.0765 C   0  0  0  0  0  0
  -22.4244   -8.0277   21.3557 C   0  0  0  0  0  0
  -21.9876   -9.0257   20.4669 C   0  0  0  0  0  0
  -22.7209  -10.2127   20.3071 C   0  0  0  0  0  0
  -21.6846   -6.0734   22.5277 C   0  0  0  0  0  0
  -21.4015   -6.5641   23.8214 C   0  0  0  0  0  0
  -21.3650   -5.6796   24.9177 C   0  0  0  0  0  0
  -21.6035   -4.3058   24.7224 C   0  0  0  0  0  0
  -21.8815   -3.8149   23.4344 C   0  0  0  0  0  0
  -21.9179   -4.6960   22.3400 C   0  0  0  0  0  0
  -22.7853  -13.5242   21.1843 C   0  0  0  0  0  0
  -22.1655   -4.2149   21.0976 F   0  0  0  0  0  0
  -21.5614   -3.4537   25.7737 F   0  0  0  0  0  0
  -30.0300  -13.2672   20.4473 N   0  0  0  0  0  0
  -26.3002  -12.9299   20.3371 N   0  0  0  0  0  0
  -25.9288  -11.6457   20.5774 N   0  0  0  0  0  0
  -22.0483  -12.8256   22.0418 N   0  0  0  0  0  0
  -25.4312  -15.1866   20.4096 N   0  0  0  0  0  0
  -31.8015  -14.6665   20.1233 O   0  0  0  0  0  0
  -21.6618   -6.8869   21.4246 O   0  0  0  0  0  0
  -22.3536  -14.5541   20.6691 O   0  0  0  0  0  0
  -24.6145  -31.8672   23.2118 C   0  0  0  0  0  0
  -25.9036  -32.4830   23.8376 C   0  0  1  0  0  0
  -27.2575  -27.4497   20.0978 C   0  0  0  0  0  0
  -25.5877  -33.8625   24.2294 N   0  0  0  0  0  0
  -23.4046  -30.4877   21.5514 C   0  0  2  0  0  0
  -24.8583  -28.9504   20.1239 C   0  0  0  0  0  0
  -22.7409  -29.4648   22.5019 C   0  0  0  0  0  0
  -18.0251  -28.1374   22.8474 C   0  0  0  0  0  0
  -24.1507  -36.7333   23.2642 C   0  0  0  0  0  0
  -25.9277  -30.8375   21.3634 C   0  0  0  0  0  0
  -26.0152  -29.4657   20.7255 C   0  0  0  0  0  0
  -27.2185  -28.7196   20.7248 C   0  0  0  0  0  0
  -26.0865  -26.9510   19.4952 C   0  0  0  0  0  0
  -24.8859  -27.6853   19.5134 C   0  0  0  0  0  0
  -23.6164  -29.8123   20.1691 C   0  0  0  0  0  0
  -25.4131  -36.3115   24.0317 C   0  0  1  0  0  0
  -20.5841  -28.3650   23.1320 C   0  0  2  0  0  0
  -20.6747  -26.9386   22.5422 C   0  0  0  0  0  0
  -19.5725  -26.6376   21.5220 C   0  0  0  0  0  0
  -18.1897  -26.7914   22.1622 C   0  0  0  0  0  0
  -19.1499  -28.8828   23.2876 C   0  0  0  0  0  0
  -18.9452  -30.1441   23.8876 C   0  0  0  0  0  0
  -17.6456  -30.6571   24.0569 C   0  0  0  0  0  0
  -25.9060  -34.9482   23.5115 C   0  0  0  0  0  0
  -16.5343  -29.9080   23.6336 C   0  0  0  0  0  0
  -16.7241  -28.6511   23.0322 C   0  0  0  0  0  0
  -26.4527  -31.6614   25.0683 C   0  0  0  0  0  0
  -25.3827  -31.3613   26.1447 C   0  0  0  0  0  0
  -27.0425  -30.3111   24.6009 C   0  0  0  0  0  0
  -27.6093  -32.4375   25.7420 C   0  0  0  0  0  0
  -27.5578  -37.1827   24.8464 C   0  0  0  0  0  0
  -21.4139  -29.3010   22.3739 N   0  0  0  0  0  0
  -26.4314  -37.3800   23.9380 N   0  0  0  0  0  0
  -24.6665  -31.0769   22.1029 N   0  0  0  0  0  0
  -23.4172  -28.8197   23.3070 O   0  0  0  0  0  0
  -28.3708  -26.6458   19.9900 O   0  0  0  0  0  0
  -26.5651  -34.8935   22.4695 O   0  0  0  0  0  0
  -23.5346  -32.1423   23.7525 O   0  0  0  0  0  0
  -30.3206  -19.9660   20.7445 C   0  0  0  0  0  0
  -28.6395  -19.5881   22.4482 C   0  0  0  0  0  0
  -30.7866  -18.6412   20.9196 C   0  0  0  0  0  0
  -29.1057  -18.2691   22.6308 C   0  0  0  0  0  0
  -29.2418  -20.4716   21.5129 C   0  0  0  0  0  0
  -30.1963  -17.7894   21.8793 C   0  0  0  0  0  0
  -29.5110  -22.9999   20.7669 C   0  0  0  0  0  0
  -29.6274  -24.2063   21.3717 C   0  0  0  0  0  0
  -28.7484  -21.8868   21.3931 C   0  0  0  0  0  0
  -30.7829  -16.4091   22.1776 C   0  0  0  0  0  0
  -30.2972  -25.4574   20.8124 C   0  0  0  0  0  0
  -29.4119  -26.7240   20.9541 C   0  0  0  0  0  0
  -27.5974  -22.1912   21.8298 N   0  0  0  0  0  0
  -30.1333  -15.2807   21.5111 N   0  0  0  0  0  0
  -31.4652  -12.4286   19.0954 H   0  0  0  0  0  0
  -30.3422  -11.2937   19.7786 H   0  0  0  0  0  0
  -29.7239  -11.8087   17.4019 H   0  0  0  0  0  0
  -29.6469  -13.5108   17.7711 H   0  0  0  0  0  0
  -27.8283  -11.3101   18.8137 H   0  0  0  0  0  0
  -27.3503  -12.6371   17.7918 H   0  0  0  0  0  0
  -27.7178  -14.2523   19.6040 H   0  0  0  0  0  0
  -28.6751  -11.8906   21.2817 H   0  0  0  0  0  0
  -28.4449  -13.4918   21.8979 H   0  0  0  0  0  0
  -25.2747   -9.5647   22.4768 H   0  0  0  0  0  0
  -23.9968   -7.4611   22.7480 H   0  0  0  0  0  0
  -21.0794   -8.8767   19.8991 H   0  0  0  0  0  0
  -22.3661  -10.9662   19.6186 H   0  0  0  0  0  0
  -21.2032   -7.6151   23.9717 H   0  0  0  0  0  0
  -21.1478   -6.0530   25.9079 H   0  0  0  0  0  0
  -22.0603   -2.7606   23.2844 H   0  0  0  0  0  0
  -22.4080  -11.9920   22.4818 H   0  0  0  0  0  0
  -21.1139  -13.1361   22.2669 H   0  0  0  0  0  0
  -24.6689  -15.8464   20.5297 H   0  0  0  0  0  0
  -26.2915  -15.6265   20.1057 H   0  0  0  0  0  0
  -26.7100  -32.5575   23.1138 H   0  0  0  0  0  0
  -24.9924  -33.9783   25.0369 H   0  0  0  0  0  0
  -22.6904  -31.3019   21.4091 H   0  0  0  0  0  0
  -23.3744  -35.9691   23.3359 H   0  0  0  0  0  0
  -24.3611  -36.8925   22.2053 H   0  0  0  0  0  0
  -23.7323  -37.6568   23.6657 H   0  0  0  0  0  0
  -26.0279  -31.5971   20.5856 H   0  0  0  0  0  0
  -26.8213  -30.9057   21.9714 H   0  0  0  0  0  0
  -28.1066  -29.1292   21.1861 H   0  0  0  0  0  0
  -26.1095  -25.9836   19.0124 H   0  0  0  0  0  0
  -23.9986  -27.2732   19.0513 H   0  0  0  0  0  0
  -23.7215  -30.5827   19.4048 H   0  0  0  0  0  0
  -22.7428  -29.2268   19.8749 H   0  0  0  0  0  0
  -25.1353  -36.1972   25.0818 H   0  0  0  0  0  0
  -20.9892  -28.3226   24.1456 H   0  0  0  0  0  0
  -20.5663  -26.2259   23.3610 H   0  0  0  0  0  0
  -21.6621  -26.7442   22.1210 H   0  0  0  0  0  0
  -19.6905  -25.6304   21.1203 H   0  0  0  0  0  0
  -19.6666  -27.3224   20.6778 H   0  0  0  0  0  0
  -17.4174  -26.6628   21.4012 H   0  0  0  0  0  0
  -18.0297  -26.0069   22.9028 H   0  0  0  0  0  0
  -19.7940  -30.7236   24.2218 H   0  0  0  0  0  0
  -17.5033  -31.6243   24.5181 H   0  0  0  0  0  0
  -15.5344  -30.2976   23.7696 H   0  0  0  0  0  0
  -15.8638  -28.0849   22.7015 H   0  0  0  0  0  0
  -24.6176  -30.6746   25.7809 H   0  0  0  0  0  0
  -24.8814  -32.2685   26.4829 H   0  0  0  0  0  0
  -25.8276  -30.8913   27.0232 H   0  0  0  0  0  0
  -26.2947  -29.6783   24.1221 H   0  0  0  0  0  0
  -27.4460  -29.7470   25.4440 H   0  0  0  0  0  0
  -27.8651  -30.4490   23.8987 H   0  0  0  0  0  0
  -27.2713  -33.3652   26.2071 H   0  0  0  0  0  0
  -28.3834  -32.6963   25.0196 H   0  0  0  0  0  0
  -28.0846  -31.8470   26.5250 H   0  0  0  0  0  0
  -28.2632  -38.0092   24.7499 H   0  0  0  0  0  0
  -28.1038  -36.2625   24.6337 H   0  0  0  0  0  0
  -27.2260  -37.1551   25.8854 H   0  0  0  0  0  0
  -20.9324  -29.8721   21.6939 H   0  0  0  0  0  0
  -26.0204  -38.2884   24.1354 H   0  0  0  0  0  0
  -30.8073  -20.5940   20.0122 H   0  0  0  0  0  0
  -27.8233  -19.9275   23.0725 H   0  0  0  0  0  0
  -31.6230  -18.2876   20.3314 H   0  0  0  0  0  0
  -28.6434  -17.6432   23.3824 H   0  0  0  0  0  0
  -29.9470  -22.7991   19.7991 H   0  0  0  0  0  0
  -29.2008  -24.3323   22.3571 H   0  0  0  0  0  0
  -30.6876  -16.2278   23.2492 H   0  0  0  0  0  0
  -31.8586  -16.4210   21.9873 H   0  0  0  0  0  0
  -30.5784  -25.3057   19.7689 H   0  0  0  0  0  0
  -31.2312  -25.6100   21.3580 H   0  0  0  0  0  0
  -30.0102  -27.6192   20.7752 H   0  0  0  0  0  0
  -29.0061  -26.7910   21.9653 H   0  0  0  0  0  0
  -27.1257  -21.3849   22.2216 H   0  0  0  0  0  0
  -29.2210  -15.0184   21.8493 H   0  0  0  0  0  0
  1 25  1  0  0  0
  1 30  2  0  0  0
  1 84  1  0  0  0
  2  3  1  0  0  0
  2 25  1  0  0  0
  2 85  1  0  0  0
  2 86  1  0  0  0
  3  4  1  0  0  0
  3 87  1  0  0  0
  3 88  1  0  0  0
  4  5  1  0  0  0
  4 89  1  0  0  0
  4 90  1  0  0  0
  5  6  1  0  0  0
  5 26  1  0  0  0
  5 91  1  0  0  0
  6 25  1  0  0  0
  6 92  1  0  0  0
  6 93  1  0  0  0
  7  8  2  0  0  0
  7 26  1  0  0  0
  7 29  1  0  0  0
  8  9  1  0  0  0
  8 22  1  0  0  0
  9 10  1  0  0  0
  9 27  2  0  0  0
 10 11  2  0  0  0
 10 15  1  0  0  0
 11 12  1  0  0  0
 11 94  1  0  0  0
 12 13  2  0  0  0
 12 95  1  0  0  0
 13 14  1  0  0  0
 13 31  1  0  0  0
 14 15  2  0  0  0
 14 96  1  0  0  0
 15 97  1  0  0  0
 16 17  2  0  0  0
 16 21  1  0  0  0
 16 31  1  0  0  0
 17 18  1  0  0  0
 17 98  1  0  0  0
 18 19  2  0  0  0
 18 99  1  0  0  0
 19 20  1  0  0  0
 19 24  1  0  0  0
 20 21  2  0  0  0
 20100  1  0  0  0
 21 23  1  0  0  0
 22 28  1  0  0  0
 22 32  2  0  0  0
 26 27  1  0  0  0
 28101  1  0  0  0
 28102  1  0  0  0
 29103  1  0  0  0
 29104  1  0  0  0
 33 34  1  0  0  0
 33 66  1  0  0  0
 33 70  2  0  0  0
 34 36  1  0  0  0
 34 59  1  0  0  0
 34105  1  0  0  0
 35 44  2  0  0  0
 35 45  1  0  0  0
 35 68  1  0  0  0
 36 56  1  0  0  0
 36106  1  0  0  0
 37 39  1  0  0  0
 37 47  1  0  0  0
 37 66  1  0  0  0
 37107  1  0  0  0
 38 43  2  0  0  0
 38 46  1  0  0  0
 38 47  1  0  0  0
 39 64  1  0  0  0
 39 67  2  0  0  0
 40 52  1  0  0  0
 40 53  2  0  0  0
 40 58  1  0  0  0
 41108  1  0  0  0
 41109  1  0  0  0
 41110  1  0  0  0
 41 48  1  0  0  0
 42 43  1  0  0  0
 42 66  1  0  0  0
 42111  1  0  0  0
 42112  1  0  0  0
 43 44  1  0  0  0
 44113  1  0  0  0
 45 46  2  0  0  0
 45114  1  0  0  0
 46115  1  0  0  0
 47116  1  0  0  0
 47117  1  0  0  0
 48 56  1  0  0  0
 48 65  1  0  0  0
 48118  1  0  0  0
 49 50  1  0  0  0
 49 53  1  0  0  0
 49 64  1  0  0  0
 49119  1  0  0  0
 50 51  1  0  0  0
 50120  1  0  0  0
 50121  1  0  0  0
 51 52  1  0  0  0
 51122  1  0  0  0
 51123  1  0  0  0
 52124  1  0  0  0
 52125  1  0  0  0
 53 54  1  0  0  0
 54 55  2  0  0  0
 54126  1  0  0  0
 55 57  1  0  0  0
 55127  1  0  0  0
 56 69  2  0  0  0
 57 58  2  0  0  0
 57128  1  0  0  0
 58129  1  0  0  0
 59 60  1  0  0  0
 59 61  1  0  0  0
 59 62  1  0  0  0
 60130  1  0  0  0
 60131  1  0  0  0
 60132  1  0  0  0
 61133  1  0  0  0
 61134  1  0  0  0
 61135  1  0  0  0
 62136  1  0  0  0
 62137  1  0  0  0
 62138  1  0  0  0
 63 65  1  0  0  0
 63139  1  0  0  0
 63140  1  0  0  0
 63141  1  0  0  0
 64142  1  0  0  0
 65143  1  0  0  0
 68 82  1  0  0  0
 71 73  2  0  0  0
 71 75  1  0  0  0
 71144  1  0  0  0
 72 74  1  0  0  0
 72 75  2  0  0  0
 72145  1  0  0  0
 73 76  1  0  0  0
 73146  1  0  0  0
 74 76  2  0  0  0
 74147  1  0  0  0
 75 79  1  0  0  0
 76 80  1  0  0  0
 77 78  2  0  0  0
 77 79  1  0  0  0
 77148  1  0  0  0
 78 81  1  0  0  0
 78149  1  0  0  0
 79 83  2  0  0  0
 80 84  1  0  0  0
 80150  1  0  0  0
 80151  1  0  0  0
 81 82  1  0  0  0
 81152  1  0  0  0
 81153  1  0  0  0
 82154  1  0  0  0
 82155  1  0  0  0
 83156  1  0  0  0
 84157  1  0  0  0
M  ISO  4   1 100  68 101  82 101  84 100
M  END
> <chiral flag>
0

> <version>
0

> <s_m_source_file>
/data/baiqing/PycharmProjects/Reinvent-master-3.2/result/LINK_invent/BTK/process_docking_weight1_custom_product_contain_oxygen_bond_distance_aromatic_linkinvent_7_9_3/rearranged_h_0123.sdf

> <i_m_source_file_index>
28

> <r_mmod_Potential_Energy-OPLS-2005>
-97.1621017456055

> <r_mmod_Stretch_Energy-OPLS-2005>
36.5624198913574

> <r_mmod_Bend_Energy-OPLS-2005>
103.711082458496

> <r_mmod_Torsional_Energy-OPLS-2005>
217.814529418945

> <r_mmod_Improper_Torsional_Energy-OPLS-2005>
2.37030410766602

> <r_mmod_Van_der_Waal_Energy-OPLS-2005>
154.834686279297

> <r_mmod_Electrostatic_Energy-OPLS-2005>
-402.317993164062

> <r_mmod_Solvation_Energy-OPLS-2005>
-218.962051391602

> <b_mmod_Minimization_Converged-OPLS-2005>
0

> <r_mmod_RMS_Derivative-OPLS-2005>
3.52514457702637

$$$$
28
                    3D
 Structure written by MMmdl.
153161  0  0  1  0            999 V2000
  -30.7209  -14.5940   20.4407 C   0  0  0  0  0  0
  -30.4342  -12.3545   19.4724 C   0  0  0  0  0  0
  -29.5141  -12.4513   18.2365 C   0  0  0  0  0  0
  -28.0366  -12.3106   18.6503 C   0  0  0  0  0  0
  -27.6533  -13.2244   19.8460 C   0  0  2  0  0  0
  -28.6998  -13.1603   20.9842 C   0  0  0  0  0  0
  -25.2545  -13.8212   20.5646 C   0  0  0  0  0  0
  -24.1824  -13.0502   20.9206 C   0  0  0  0  0  0
  -24.6385  -11.6941   20.8712 C   0  0  0  0  0  0
  -23.9051  -10.4325   21.0372 C   0  0  0  0  0  0
  -24.3610   -9.4248   21.9147 C   0  0  0  0  0  0
  -23.6320   -8.2264   22.0708 C   0  0  0  0  0  0
  -22.4302   -8.0264   21.3493 C   0  0  0  0  0  0
  -21.9918   -9.0261   20.4628 C   0  0  0  0  0  0
  -22.7212  -10.2152   20.3047 C   0  0  0  0  0  0
  -21.6884   -6.0722   22.5255 C   0  0  0  0  0  0
  -21.4035   -6.5633   23.8185 C   0  0  0  0  0  0
  -21.3667   -5.6793   24.9139 C   0  0  0  0  0  0
  -21.6060   -4.3061   24.7200 C   0  0  0  0  0  0
  -21.8834   -3.8138   23.4322 C   0  0  0  0  0  0
  -21.9207   -4.6943   22.3377 C   0  0  0  0  0  0
  -22.7838  -13.5245   21.1903 C   0  0  0  0  0  0
  -22.1662   -4.2113   21.0949 F   0  0  0  0  0  0
  -21.5644   -3.4537   25.7726 F   0  0  0  0  0  0
  -30.0288  -13.4166   20.4084 N   0  0  0  0  0  0
  -26.2993  -12.9422   20.3232 N   0  0  0  0  0  0
  -25.9325  -11.6559   20.5738 N   0  0  0  0  0  0
  -22.0480  -12.8216   22.0418 N   0  0  0  0  0  0
  -25.4350  -15.1938   20.4039 N   0  0  0  0  0  0
  -31.9107  -14.6395   20.1227 O   0  0  0  0  0  0
  -21.6666   -6.8859   21.4208 O   0  0  0  0  0  0
  -22.3492  -14.5541   20.6735 O   0  0  0  0  0  0
  -24.6148  -31.8717   23.2107 C   0  0  0  0  0  0
  -25.9058  -32.4834   23.8430 C   0  0  1  0  0  0
  -27.2149  -27.4153   20.0853 C   0  0  0  0  0  0
  -25.5924  -33.8643   24.2337 N   0  0  0  0  0  0
  -23.4015  -30.4989   21.5531 C   0  0  2  0  0  0
  -24.8380  -28.9647   20.1170 C   0  0  0  0  0  0
  -22.7424  -29.4666   22.4977 C   0  0  0  0  0  0
  -18.0297  -28.1381   22.8461 C   0  0  0  0  0  0
  -24.1493  -36.7299   23.2638 C   0  0  0  0  0  0
  -25.9356  -30.8239   21.3774 C   0  0  0  0  0  0
  -26.0020  -29.4627   20.7115 C   0  0  0  0  0  0
  -27.1912  -28.6972   20.6892 C   0  0  0  0  0  0
  -26.0107  -26.9227   19.5250 C   0  0  0  0  0  0
  -24.8357  -27.6940   19.5246 C   0  0  0  0  0  0
  -23.6091  -29.8383   20.1651 C   0  0  0  0  0  0
  -25.4123  -36.3115   24.0339 C   0  0  1  0  0  0
  -20.5880  -28.3678   23.1298 C   0  0  2  0  0  0
  -20.6783  -26.9408   22.5451 C   0  0  0  0  0  0
  -19.5807  -26.6345   21.5215 C   0  0  0  0  0  0
  -18.1956  -26.7932   22.1560 C   0  0  0  0  0  0
  -19.1540  -28.8836   23.2859 C   0  0  0  0  0  0
  -18.9466  -30.1436   23.8873 C   0  0  0  0  0  0
  -17.6472  -30.6573   24.0544 C   0  0  0  0  0  0
  -25.9047  -34.9486   23.5106 C   0  0  0  0  0  0
  -16.5361  -29.9071   23.6307 C   0  0  0  0  0  0
  -16.7288  -28.6485   23.0328 C   0  0  0  0  0  0
  -26.4439  -31.6646   25.0791 C   0  0  0  0  0  0
  -25.3669  -31.3832   26.1531 C   0  0  0  0  0  0
  -27.0298  -30.3077   24.6263 C   0  0  0  0  0  0
  -27.6022  -32.4372   25.7533 C   0  0  0  0  0  0
  -27.5608  -37.1815   24.8442 C   0  0  0  0  0  0
  -21.4169  -29.3018   22.3693 N   0  0  0  0  0  0
  -26.4303  -37.3814   23.9392 N   0  0  0  0  0  0
  -24.6674  -31.0843   22.1009 N   0  0  0  0  0  0
  -23.4205  -28.8225   23.3022 O   0  0  0  0  0  0
  -28.4082  -26.7129   20.0569 O   0  0  0  0  0  0
  -26.5591  -34.8924   22.4656 O   0  0  0  0  0  0
  -23.5326  -32.1500   23.7478 O   0  0  0  0  0  0
  -31.4626  -18.6440   18.6456 C   0  0  0  0  0  0
  -30.6136  -19.6933   19.0288 C   0  0  0  0  0  0
  -31.2815  -17.3523   19.1734 C   0  0  0  0  0  0
  -29.3551  -18.1442   20.4298 C   0  0  0  0  0  0
  -29.5388  -19.4619   19.9124 C   0  0  0  0  0  0
  -30.2304  -17.0659   20.0892 C   0  0  0  0  0  0
  -28.6305  -20.5824   20.2807 C   0  0  0  0  0  0
  -28.8497  -21.9057   20.0539 C   0  0  0  0  0  0
  -27.8288  -22.9307   20.3673 C   0  0  0  0  0  0
  -28.2765  -24.3491   20.7609 C   0  0  0  0  0  0
  -28.4443  -25.3462   19.5913 C   0  0  0  0  0  0
  -30.0014  -15.7341   20.6364 N   0  0  0  0  0  0
  -26.6189  -22.6841   20.3292 O   0  0  0  0  0  0
  -31.4756  -12.4447   19.1537 H   0  0  0  0  0  0
  -30.3561  -11.3836   19.9632 H   0  0  0  0  0  0
  -29.7816  -11.6646   17.5280 H   0  0  0  0  0  0
  -29.6631  -13.4020   17.7200 H   0  0  0  0  0  0
  -27.8758  -11.2676   18.9245 H   0  0  0  0  0  0
  -27.3876  -12.5017   17.7940 H   0  0  0  0  0  0
  -27.6577  -14.2440   19.4597 H   0  0  0  0  0  0
  -28.6861  -12.1913   21.4816 H   0  0  0  0  0  0
  -28.4594  -13.8946   21.7522 H   0  0  0  0  0  0
  -25.2770   -9.5791   22.4701 H   0  0  0  0  0  0
  -24.0090   -7.4680   22.7434 H   0  0  0  0  0  0
  -21.0844   -8.8785   19.8958 H   0  0  0  0  0  0
  -22.3652  -10.9689   19.6172 H   0  0  0  0  0  0
  -21.2006   -7.6141   23.9679 H   0  0  0  0  0  0
  -21.1490   -6.0489   25.9033 H   0  0  0  0  0  0
  -22.0607   -2.7597   23.2810 H   0  0  0  0  0  0
  -22.4097  -11.9936   22.4921 H   0  0  0  0  0  0
  -21.1055  -13.1186   22.2544 H   0  0  0  0  0  0
  -24.7003  -15.8720   20.5716 H   0  0  0  0  0  0
  -26.2953  -15.6205   20.0843 H   0  0  0  0  0  0
  -26.7139  -32.5511   23.1203 H   0  0  0  0  0  0
  -25.0182  -33.9836   25.0544 H   0  0  0  0  0  0
  -22.6912  -31.3161   21.4176 H   0  0  0  0  0  0
  -23.3782  -35.9600   23.3284 H   0  0  0  0  0  0
  -24.3595  -36.8926   22.2052 H   0  0  0  0  0  0
  -23.7209  -37.6481   23.6670 H   0  0  0  0  0  0
  -26.0873  -31.6013   20.6269 H   0  0  0  0  0  0
  -26.8082  -30.8479   22.0189 H   0  0  0  0  0  0
  -28.0962  -29.0843   21.1389 H   0  0  0  0  0  0
  -25.9302  -25.9437   19.0824 H   0  0  0  0  0  0
  -23.9358  -27.3007   19.0731 H   0  0  0  0  0  0
  -23.7263  -30.6147   19.4075 H   0  0  0  0  0  0
  -22.7299  -29.2684   19.8655 H   0  0  0  0  0  0
  -25.1301  -36.1973   25.0845 H   0  0  0  0  0  0
  -20.9978  -28.3264   24.1408 H   0  0  0  0  0  0
  -20.5630  -26.2318   23.3668 H   0  0  0  0  0  0
  -21.6679  -26.7437   22.1298 H   0  0  0  0  0  0
  -19.6983  -25.6224   21.1301 H   0  0  0  0  0  0
  -19.6780  -27.3093   20.6699 H   0  0  0  0  0  0
  -17.4283  -26.6733   21.3894 H   0  0  0  0  0  0
  -18.0283  -26.0048   22.8920 H   0  0  0  0  0  0
  -19.7944  -30.7235   24.2253 H   0  0  0  0  0  0
  -17.5038  -31.6254   24.5163 H   0  0  0  0  0  0
  -15.5363  -30.2960   23.7651 H   0  0  0  0  0  0
  -15.8695  -28.0798   22.7046 H   0  0  0  0  0  0
  -24.5819  -30.7197   25.7881 H   0  0  0  0  0  0
  -24.8869  -32.3027   26.4909 H   0  0  0  0  0  0
  -25.7968  -30.9055   27.0346 H   0  0  0  0  0  0
  -26.2928  -29.6859   24.1184 H   0  0  0  0  0  0
  -27.3883  -29.7304   25.4791 H   0  0  0  0  0  0
  -27.8827  -30.4360   23.9596 H   0  0  0  0  0  0
  -27.2674  -33.3674   26.2135 H   0  0  0  0  0  0
  -28.3823  -32.6949   25.0357 H   0  0  0  0  0  0
  -28.0736  -31.8511   26.5428 H   0  0  0  0  0  0
  -28.2611  -38.0131   24.7522 H   0  0  0  0  0  0
  -28.1123  -36.2667   24.6204 H   0  0  0  0  0  0
  -27.2359  -37.1400   25.8858 H   0  0  0  0  0  0
  -20.9357  -29.8728   21.6890 H   0  0  0  0  0  0
  -26.0186  -38.2891   24.1390 H   0  0  0  0  0  0
  -32.2472  -18.8320   17.9244 H   0  0  0  0  0  0
  -30.7908  -20.6733   18.6084 H   0  0  0  0  0  0
  -31.9774  -16.6086   18.8226 H   0  0  0  0  0  0
  -28.5306  -17.9727   21.1072 H   0  0  0  0  0  0
  -27.6993  -20.2872   20.7575 H   0  0  0  0  0  0
  -29.7748  -22.2688   19.6223 H   0  0  0  0  0  0
  -29.2110  -24.2825   21.3183 H   0  0  0  0  0  0
  -27.5325  -24.7388   21.4520 H   0  0  0  0  0  0
  -27.7730  -25.1388   18.7598 H   0  0  0  0  0  0
  -29.4336  -25.1924   19.1631 H   0  0  0  0  0  0
  -29.1142  -15.5991   21.0948 H   0  0  0  0  0  0
  1 25  1  0  0  0
  1 30  2  0  0  0
  1 82  1  0  0  0
  2  3  1  0  0  0
  2 25  1  0  0  0
  2 84  1  0  0  0
  2 85  1  0  0  0
  3  4  1  0  0  0
  3 86  1  0  0  0
  3 87  1  0  0  0
  4  5  1  0  0  0
  4 88  1  0  0  0
  4 89  1  0  0  0
  5  6  1  0  0  0
  5 26  1  0  0  0
  5 90  1  0  0  0
  6 25  1  0  0  0
  6 91  1  0  0  0
  6 92  1  0  0  0
  7  8  2  0  0  0
  7 26  1  0  0  0
  7 29  1  0  0  0
  8  9  1  0  0  0
  8 22  1  0  0  0
  9 10  1  0  0  0
  9 27  2  0  0  0
 10 11  2  0  0  0
 10 15  1  0  0  0
 11 12  1  0  0  0
 11 93  1  0  0  0
 12 13  2  0  0  0
 12 94  1  0  0  0
 13 14  1  0  0  0
 13 31  1  0  0  0
 14 15  2  0  0  0
 14 95  1  0  0  0
 15 96  1  0  0  0
 16 17  2  0  0  0
 16 21  1  0  0  0
 16 31  1  0  0  0
 17 18  1  0  0  0
 17 97  1  0  0  0
 18 19  2  0  0  0
 18 98  1  0  0  0
 19 20  1  0  0  0
 19 24  1  0  0  0
 20 21  2  0  0  0
 20 99  1  0  0  0
 21 23  1  0  0  0
 22 28  1  0  0  0
 22 32  2  0  0  0
 26 27  1  0  0  0
 28100  1  0  0  0
 28101  1  0  0  0
 29102  1  0  0  0
 29103  1  0  0  0
 33 34  1  0  0  0
 33 66  1  0  0  0
 33 70  2  0  0  0
 34 36  1  0  0  0
 34 59  1  0  0  0
 34104  1  0  0  0
 35 44  2  0  0  0
 35 45  1  0  0  0
 35 68  1  0  0  0
 36 56  1  0  0  0
 36105  1  0  0  0
 37 39  1  0  0  0
 37 47  1  0  0  0
 37 66  1  0  0  0
 37106  1  0  0  0
 38 43  2  0  0  0
 38 46  1  0  0  0
 38 47  1  0  0  0
 39 64  1  0  0  0
 39 67  2  0  0  0
 40 52  1  0  0  0
 40 53  2  0  0  0
 40 58  1  0  0  0
 41107  1  0  0  0
 41108  1  0  0  0
 41109  1  0  0  0
 41 48  1  0  0  0
 42 43  1  0  0  0
 42 66  1  0  0  0
 42110  1  0  0  0
 42111  1  0  0  0
 43 44  1  0  0  0
 44112  1  0  0  0
 45 46  2  0  0  0
 45113  1  0  0  0
 46114  1  0  0  0
 47115  1  0  0  0
 47116  1  0  0  0
 48 56  1  0  0  0
 48 65  1  0  0  0
 48117  1  0  0  0
 49 50  1  0  0  0
 49 53  1  0  0  0
 49 64  1  0  0  0
 49118  1  0  0  0
 50 51  1  0  0  0
 50119  1  0  0  0
 50120  1  0  0  0
 51 52  1  0  0  0
 51121  1  0  0  0
 51122  1  0  0  0
 52123  1  0  0  0
 52124  1  0  0  0
 53 54  1  0  0  0
 54 55  2  0  0  0
 54125  1  0  0  0
 55 57  1  0  0  0
 55126  1  0  0  0
 56 69  2  0  0  0
 57 58  2  0  0  0
 57127  1  0  0  0
 58128  1  0  0  0
 59 60  1  0  0  0
 59 61  1  0  0  0
 59 62  1  0  0  0
 60129  1  0  0  0
 60130  1  0  0  0
 60131  1  0  0  0
 61132  1  0  0  0
 61133  1  0  0  0
 61134  1  0  0  0
 62135  1  0  0  0
 62136  1  0  0  0
 62137  1  0  0  0
 63 65  1  0  0  0
 63138  1  0  0  0
 63139  1  0  0  0
 63140  1  0  0  0
 64141  1  0  0  0
 65142  1  0  0  0
 68 81  1  0  0  0
 71 72  2  0  0  0
 71 73  1  0  0  0
 71143  1  0  0  0
 72 75  1  0  0  0
 72144  1  0  0  0
 73 76  2  0  0  0
 73145  1  0  0  0
 74 75  2  0  0  0
 74 76  1  0  0  0
 74146  1  0  0  0
 75 77  1  0  0  0
 76 82  1  0  0  0
 77 78  2  0  0  0
 77147  1  0  0  0
 78 79  1  0  0  0
 78148  1  0  0  0
 79 80  1  0  0  0
 79 83  2  0  0  0
 80 81  1  0  0  0
 80149  1  0  0  0
 80150  1  0  0  0
 81151  1  0  0  0
 81152  1  0  0  0
 82153  1  0  0  0
M  ISO  4   1 100  68 101  81 101  82 100
M  END
> <chiral flag>
0

> <version>
0

> <s_m_source_file>
/data/baiqing/PycharmProjects/Reinvent-master-3.2/result/LINK_invent/BTK/process_docking_weight1_custom_product_contain_oxygen_bond_distance_aromatic_linkinvent_7_9_3/rearranged_h_0123.sdf

> <i_m_source_file_index>
29

> <r_mmod_Potential_Energy-OPLS-2005>
-25.4280204772949

> <r_mmod_Stretch_Energy-OPLS-2005>
46.7592086791992

> <r_mmod_Bend_Energy-OPLS-2005>
108.422752380371

> <r_mmod_Torsional_Energy-OPLS-2005>
227.830764770508

> <r_mmod_Improper_Torsional_Energy-OPLS-2005>
4.64580202102661

> <r_mmod_Van_der_Waal_Energy-OPLS-2005>
158.105178833008

> <r_mmod_Electrostatic_Energy-OPLS-2005>
-384.945831298828

> <r_mmod_Solvation_Energy-OPLS-2005>
-222.162933349609

> <b_mmod_Minimization_Converged-OPLS-2005>
0

> <r_mmod_RMS_Derivative-OPLS-2005>
6.58076858520508

$$$$
29
                    3D
 Structure written by MMmdl.
162171  0  0  1  0            999 V2000
  -30.7230  -14.5129   20.5259 C   0  0  0  0  0  0
  -30.4087  -12.3178   19.4529 C   0  0  0  0  0  0
  -29.4989  -12.5026   18.2214 C   0  0  0  0  0  0
  -28.0189  -12.3648   18.6246 C   0  0  0  0  0  0
  -27.6553  -13.2206   19.8687 C   0  0  2  0  0  0
  -28.6957  -13.0443   20.9976 C   0  0  0  0  0  0
  -25.2555  -13.8190   20.5682 C   0  0  0  0  0  0
  -24.1819  -13.0448   20.9173 C   0  0  0  0  0  0
  -24.6388  -11.6918   20.8716 C   0  0  0  0  0  0
  -23.9057  -10.4297   21.0396 C   0  0  0  0  0  0
  -24.3610   -9.4215   21.9175 C   0  0  0  0  0  0
  -23.6291   -8.2244   22.0745 C   0  0  0  0  0  0
  -22.4270   -8.0278   21.3544 C   0  0  0  0  0  0
  -21.9901   -9.0252   20.4648 C   0  0  0  0  0  0
  -22.7227  -10.2133   20.3052 C   0  0  0  0  0  0
  -21.6856   -6.0728   22.5283 C   0  0  0  0  0  0
  -21.4018   -6.5630   23.8214 C   0  0  0  0  0  0
  -21.3661   -5.6781   24.9175 C   0  0  0  0  0  0
  -21.6048   -4.3045   24.7227 C   0  0  0  0  0  0
  -21.8817   -3.8141   23.4345 C   0  0  0  0  0  0
  -21.9196   -4.6958   22.3405 C   0  0  0  0  0  0
  -22.7842  -13.5243   21.1842 C   0  0  0  0  0  0
  -22.1663   -4.2145   21.0978 F   0  0  0  0  0  0
  -21.5629   -3.4527   25.7739 F   0  0  0  0  0  0
  -30.0250  -13.3405   20.4449 N   0  0  0  0  0  0
  -26.2994  -12.9386   20.3333 N   0  0  0  0  0  0
  -25.9320  -11.6531   20.5740 N   0  0  0  0  0  0
  -22.0489  -12.8238   22.0400 N   0  0  0  0  0  0
  -25.4264  -15.1910   20.4121 N   0  0  0  0  0  0
  -31.8722  -14.5841   20.0807 O   0  0  0  0  0  0
  -21.6639   -6.8873   21.4243 O   0  0  0  0  0  0
  -22.3529  -14.5551   20.6690 O   0  0  0  0  0  0
  -24.6148  -31.8666   23.2099 C   0  0  0  0  0  0
  -25.9036  -32.4817   23.8397 C   0  0  1  0  0  0
  -27.2324  -27.4259   20.1023 C   0  0  0  0  0  0
  -25.5888  -33.8615   24.2324 N   0  0  0  0  0  0
  -23.4049  -30.4900   21.5488 C   0  0  2  0  0  0
  -24.8542  -28.9564   20.1116 C   0  0  0  0  0  0
  -22.7415  -29.4647   22.4972 C   0  0  0  0  0  0
  -18.0271  -28.1380   22.8485 C   0  0  0  0  0  0
  -24.1484  -36.7314   23.2640 C   0  0  0  0  0  0
  -25.9341  -30.8308   21.3653 C   0  0  0  0  0  0
  -26.0135  -29.4647   20.7126 C   0  0  0  0  0  0
  -27.2079  -28.7065   20.7085 C   0  0  0  0  0  0
  -26.0639  -26.9386   19.4872 C   0  0  0  0  0  0
  -24.8744  -27.6926   19.4949 C   0  0  0  0  0  0
  -23.6154  -29.8229   20.1629 C   0  0  0  0  0  0
  -25.4103  -36.3106   24.0339 C   0  0  1  0  0  0
  -20.5861  -28.3665   23.1315 C   0  0  2  0  0  0
  -20.6756  -26.9397   22.5426 C   0  0  0  0  0  0
  -19.5745  -26.6384   21.5210 C   0  0  0  0  0  0
  -18.1919  -26.7927   22.1612 C   0  0  0  0  0  0
  -19.1520  -28.8838   23.2900 C   0  0  0  0  0  0
  -18.9448  -30.1439   23.8917 C   0  0  0  0  0  0
  -17.6453  -30.6584   24.0568 C   0  0  0  0  0  0
  -25.9030  -34.9471   23.5131 C   0  0  0  0  0  0
  -16.5343  -29.9091   23.6326 C   0  0  0  0  0  0
  -16.7261  -28.6508   23.0346 C   0  0  0  0  0  0
  -26.4466  -31.6603   25.0728 C   0  0  0  0  0  0
  -25.3737  -31.3719   26.1488 C   0  0  0  0  0  0
  -27.0300  -30.3044   24.6111 C   0  0  0  0  0  0
  -27.6055  -32.4320   25.7471 C   0  0  0  0  0  0
  -27.5583  -37.1802   24.8455 C   0  0  0  0  0  0
  -21.4139  -29.3033   22.3716 N   0  0  0  0  0  0
  -26.4286  -37.3792   23.9412 N   0  0  0  0  0  0
  -24.6693  -31.0763   22.0999 N   0  0  0  0  0  0
  -23.4176  -28.8188   23.3022 O   0  0  0  0  0  0
  -28.3389  -26.6052   20.1173 O   0  0  0  0  0  0
  -26.5602  -34.8925   22.4699 O   0  0  0  0  0  0
  -23.5337  -32.1419   23.7488 O   0  0  0  0  0  0
  -29.1900  -19.0473   20.2717 C   0  0  0  0  0  0
  -28.9783  -20.4324   20.5002 C   0  0  0  0  0  0
  -30.5865  -20.3636   22.3008 C   0  0  0  0  0  0
  -30.1048  -18.3027   21.0531 C   0  0  0  0  0  0
  -30.8082  -18.9850   22.0746 C   0  0  0  0  0  0
  -29.6867  -21.1244   21.5115 C   0  0  0  0  0  0
  -28.9061  -24.8244   21.7057 C   0  0  0  0  0  0
  -30.5284  -16.9362   20.6560 C   0  0  0  0  0  0
  -28.6817  -26.1163   21.3556 C   0  0  0  0  0  0
  -30.0354  -15.7203   21.0190 C   0  0  0  0  0  0
  -29.2703  -24.4549   23.1211 C   0  0  0  0  0  0
  -29.9562  -23.0966   23.0200 C   0  0  0  0  0  0
  -28.9075  -23.5322   20.8765 C   0  0  1  0  0  0
  -31.8519  -18.2584   22.9096 C   0  0  0  0  0  0
  -29.6419  -23.6897   19.5363 C   0  0  0  0  0  0
  -29.5349  -22.5203   21.7478 N   0  0  0  0  0  0
  -31.4578  -12.3761   19.1583 H   0  0  0  0  0  0
  -30.2817  -11.3192   19.8735 H   0  0  0  0  0  0
  -29.7482  -11.7689   17.4544 H   0  0  0  0  0  0
  -29.6719  -13.4834   17.7756 H   0  0  0  0  0  0
  -27.8308  -11.3109   18.8319 H   0  0  0  0  0  0
  -27.3735  -12.6290   17.7854 H   0  0  0  0  0  0
  -27.6878  -14.2629   19.5522 H   0  0  0  0  0  0
  -28.6762  -12.0201   21.3715 H   0  0  0  0  0  0
  -28.4519  -13.6661   21.8583 H   0  0  0  0  0  0
  -25.2763   -9.5695   22.4739 H   0  0  0  0  0  0
  -24.0017   -7.4633   22.7446 H   0  0  0  0  0  0
  -21.0839   -8.8771   19.8951 H   0  0  0  0  0  0
  -22.3693  -10.9667   19.6150 H   0  0  0  0  0  0
  -21.2007   -7.6141   23.9715 H   0  0  0  0  0  0
  -21.1485   -6.0511   25.9077 H   0  0  0  0  0  0
  -22.0594   -2.7605   23.2843 H   0  0  0  0  0  0
  -22.4108  -11.9921   22.4828 H   0  0  0  0  0  0
  -21.1097  -13.1260   22.2571 H   0  0  0  0  0  0
  -24.6617  -15.8478   20.5254 H   0  0  0  0  0  0
  -26.2881  -15.6345   20.1192 H   0  0  0  0  0  0
  -26.7109  -32.5528   23.1164 H   0  0  0  0  0  0
  -25.0023  -33.9776   25.0456 H   0  0  0  0  0  0
  -22.6940  -31.3072   21.4098 H   0  0  0  0  0  0
  -23.3743  -35.9651   23.3303 H   0  0  0  0  0  0
  -24.3581  -36.8931   22.2055 H   0  0  0  0  0  0
  -23.7242  -37.6522   23.6655 H   0  0  0  0  0  0
  -26.0477  -31.5970   20.5971 H   0  0  0  0  0  0
  -26.8205  -30.8838   21.9852 H   0  0  0  0  0  0
  -28.1010  -29.0920   21.1799 H   0  0  0  0  0  0
  -26.0734  -25.9623   19.0230 H   0  0  0  0  0  0
  -23.9833  -27.2949   19.0293 H   0  0  0  0  0  0
  -23.7232  -30.5993   19.4043 H   0  0  0  0  0  0
  -22.7395  -29.2426   19.8670 H   0  0  0  0  0  0
  -25.1279  -36.1968   25.0831 H   0  0  0  0  0  0
  -20.9957  -28.3239   24.1434 H   0  0  0  0  0  0
  -20.5640  -26.2277   23.3619 H   0  0  0  0  0  0
  -21.6630  -26.7428   22.1237 H   0  0  0  0  0  0
  -19.6908  -25.6297   21.1239 H   0  0  0  0  0  0
  -19.6697  -27.3197   20.6744 H   0  0  0  0  0  0
  -17.4197  -26.6687   21.4005 H   0  0  0  0  0  0
  -18.0309  -26.0061   22.8999 H   0  0  0  0  0  0
  -19.7926  -30.7243   24.2301 H   0  0  0  0  0  0
  -17.5015  -31.6267   24.5167 H   0  0  0  0  0  0
  -15.5346  -30.3004   23.7638 H   0  0  0  0  0  0
  -15.8660  -28.0838   22.7049 H   0  0  0  0  0  0
  -24.5889  -30.7085   25.7833 H   0  0  0  0  0  0
  -24.8948  -32.2880   26.4959 H   0  0  0  0  0  0
  -25.8092  -30.8871   27.0235 H   0  0  0  0  0  0
  -26.2846  -29.6802   24.1166 H   0  0  0  0  0  0
  -27.4073  -29.7285   25.4572 H   0  0  0  0  0  0
  -27.8681  -30.4368   23.9263 H   0  0  0  0  0  0
  -27.2685  -33.3604   26.2095 H   0  0  0  0  0  0
  -28.3825  -32.6908   25.0265 H   0  0  0  0  0  0
  -28.0771  -31.8420   26.5340 H   0  0  0  0  0  0
  -28.2597  -38.0104   24.7514 H   0  0  0  0  0  0
  -28.1080  -36.2638   24.6248 H   0  0  0  0  0  0
  -27.2313  -37.1429   25.8861 H   0  0  0  0  0  0
  -20.9294  -29.8763   21.6950 H   0  0  0  0  0  0
  -26.0176  -38.2867   24.1428 H   0  0  0  0  0  0
  -28.6701  -18.5640   19.4564 H   0  0  0  0  0  0
  -28.2775  -20.9606   19.8703 H   0  0  0  0  0  0
  -31.1664  -20.8429   23.0756 H   0  0  0  0  0  0
  -31.3794  -16.9585   19.9875 H   0  0  0  0  0  0
  -28.7422  -26.9085   22.0884 H   0  0  0  0  0  0
  -29.1762  -15.6668   21.6694 H   0  0  0  0  0  0
  -28.3496  -24.3649   23.6993 H   0  0  0  0  0  0
  -29.8991  -25.2058   23.6022 H   0  0  0  0  0  0
  -29.6886  -22.4649   23.8690 H   0  0  0  0  0  0
  -31.0407  -23.2201   23.0164 H   0  0  0  0  0  0
  -27.8701  -23.2432   20.7002 H   0  0  0  0  0  0
  -32.2844  -18.9062   23.6726 H   0  0  0  0  0  0
  -32.6658  -17.9003   22.2780 H   0  0  0  0  0  0
  -31.4075  -17.3998   23.4138 H   0  0  0  0  0  0
  -30.6650  -24.0377   19.6820 H   0  0  0  0  0  0
  -29.1351  -24.4115   18.8950 H   0  0  0  0  0  0
  -29.6854  -22.7500   18.9853 H   0  0  0  0  0  0
  1 25  1  0  0  0
  1 30  2  0  0  0
  1 80  1  0  0  0
  2  3  1  0  0  0
  2 25  1  0  0  0
  2 87  1  0  0  0
  2 88  1  0  0  0
  3  4  1  0  0  0
  3 89  1  0  0  0
  3 90  1  0  0  0
  4  5  1  0  0  0
  4 91  1  0  0  0
  4 92  1  0  0  0
  5  6  1  0  0  0
  5 26  1  0  0  0
  5 93  1  0  0  0
  6 25  1  0  0  0
  6 94  1  0  0  0
  6 95  1  0  0  0
  7  8  2  0  0  0
  7 26  1  0  0  0
  7 29  1  0  0  0
  8  9  1  0  0  0
  8 22  1  0  0  0
  9 10  1  0  0  0
  9 27  2  0  0  0
 10 11  2  0  0  0
 10 15  1  0  0  0
 11 12  1  0  0  0
 11 96  1  0  0  0
 12 13  2  0  0  0
 12 97  1  0  0  0
 13 14  1  0  0  0
 13 31  1  0  0  0
 14 15  2  0  0  0
 14 98  1  0  0  0
 15 99  1  0  0  0
 16 17  2  0  0  0
 16 21  1  0  0  0
 16 31  1  0  0  0
 17 18  1  0  0  0
 17100  1  0  0  0
 18 19  2  0  0  0
 18101  1  0  0  0
 19 20  1  0  0  0
 19 24  1  0  0  0
 20 21  2  0  0  0
 20102  1  0  0  0
 21 23  1  0  0  0
 22 28  1  0  0  0
 22 32  2  0  0  0
 26 27  1  0  0  0
 28103  1  0  0  0
 28104  1  0  0  0
 29105  1  0  0  0
 29106  1  0  0  0
 33 34  1  0  0  0
 33 66  1  0  0  0
 33 70  2  0  0  0
 34 36  1  0  0  0
 34 59  1  0  0  0
 34107  1  0  0  0
 35 44  2  0  0  0
 35 45  1  0  0  0
 35 68  1  0  0  0
 36 56  1  0  0  0
 36108  1  0  0  0
 37 39  1  0  0  0
 37 47  1  0  0  0
 37 66  1  0  0  0
 37109  1  0  0  0
 38 43  2  0  0  0
 38 46  1  0  0  0
 38 47  1  0  0  0
 39 64  1  0  0  0
 39 67  2  0  0  0
 40 52  1  0  0  0
 40 53  2  0  0  0
 40 58  1  0  0  0
 41110  1  0  0  0
 41111  1  0  0  0
 41112  1  0  0  0
 41 48  1  0  0  0
 42 43  1  0  0  0
 42 66  1  0  0  0
 42113  1  0  0  0
 42114  1  0  0  0
 43 44  1  0  0  0
 44115  1  0  0  0
 45 46  2  0  0  0
 45116  1  0  0  0
 46117  1  0  0  0
 47118  1  0  0  0
 47119  1  0  0  0
 48 56  1  0  0  0
 48 65  1  0  0  0
 48120  1  0  0  0
 49 50  1  0  0  0
 49 53  1  0  0  0
 49 64  1  0  0  0
 49121  1  0  0  0
 50 51  1  0  0  0
 50122  1  0  0  0
 50123  1  0  0  0
 51 52  1  0  0  0
 51124  1  0  0  0
 51125  1  0  0  0
 52126  1  0  0  0
 52127  1  0  0  0
 53 54  1  0  0  0
 54 55  2  0  0  0
 54128  1  0  0  0
 55 57  1  0  0  0
 55129  1  0  0  0
 56 69  2  0  0  0
 57 58  2  0  0  0
 57130  1  0  0  0
 58131  1  0  0  0
 59 60  1  0  0  0
 59 61  1  0  0  0
 59 62  1  0  0  0
 60132  1  0  0  0
 60133  1  0  0  0
 60134  1  0  0  0
 61135  1  0  0  0
 61136  1  0  0  0
 61137  1  0  0  0
 62138  1  0  0  0
 62139  1  0  0  0
 62140  1  0  0  0
 63 65  1  0  0  0
 63141  1  0  0  0
 63142  1  0  0  0
 63143  1  0  0  0
 64144  1  0  0  0
 65145  1  0  0  0
 68 79  1  0  0  0
 71 72  2  0  0  0
 71 74  1  0  0  0
 71146  1  0  0  0
 72 76  1  0  0  0
 72147  1  0  0  0
 73 75  1  0  0  0
 73 76  2  0  0  0
 73148  1  0  0  0
 74 75  2  0  0  0
 74 78  1  0  0  0
 75 84  1  0  0  0
 76 86  1  0  0  0
 77 79  2  0  0  0
 77 81  1  0  0  0
 77 83  1  0  0  0
 78 80  2  0  0  0
 78149  1  0  0  0
 79150  1  0  0  0
 80151  1  0  0  0
 81 82  1  0  0  0
 81152  1  0  0  0
 81153  1  0  0  0
 82 86  1  0  0  0
 82154  1  0  0  0
 82155  1  0  0  0
 83 85  1  0  0  0
 83 86  1  0  0  0
 83156  1  0  0  0
 84157  1  0  0  0
 84158  1  0  0  0
 84159  1  0  0  0
 85160  1  0  0  0
 85161  1  0  0  0
 85162  1  0  0  0
M  ISO  4   1 100  68 101  79 101  80 100
M  END
> <chiral flag>
0

> <version>
0

> <s_m_source_file>
/data/baiqing/PycharmProjects/Reinvent-master-3.2/result/LINK_invent/BTK/process_docking_weight1_custom_product_contain_oxygen_bond_distance_aromatic_linkinvent_7_9_3/rearranged_h_0123.sdf

> <i_m_source_file_index>
30

> <r_mmod_Potential_Energy-OPLS-2005>
51.0589332580566

> <r_mmod_Stretch_Energy-OPLS-2005>
42.6711921691895

> <r_mmod_Bend_Energy-OPLS-2005>
159.868743896484

> <r_mmod_Torsional_Energy-OPLS-2005>
241.080505371094

> <r_mmod_Improper_Torsional_Energy-OPLS-2005>
4.80382537841797

> <r_mmod_Van_der_Waal_Energy-OPLS-2005>
150.633056640625

> <r_mmod_Electrostatic_Energy-OPLS-2005>
-368.299072265625

> <r_mmod_Solvation_Energy-OPLS-2005>
-200.169784545898

> <b_mmod_Minimization_Converged-OPLS-2005>
0

> <r_mmod_RMS_Derivative-OPLS-2005>
1.29208636283875

$$$$
30
                    3D
 Structure written by MMmdl.
156165  0  0  1  0            999 V2000
  -30.7261  -14.4336   20.5714 C   0  0  0  0  0  0
  -30.4157  -12.2794   19.4293 C   0  0  0  0  0  0
  -29.4943  -12.4991   18.2110 C   0  0  0  0  0  0
  -28.0121  -12.3704   18.6146 C   0  0  0  0  0  0
  -27.6617  -13.2014   19.8770 C   0  0  2  0  0  0
  -28.6993  -12.9568   20.9950 C   0  0  0  0  0  0
  -25.2607  -13.8169   20.5687 C   0  0  0  0  0  0
  -24.1847  -13.0452   20.9171 C   0  0  0  0  0  0
  -24.6384  -11.6911   20.8729 C   0  0  0  0  0  0
  -23.9055  -10.4297   21.0402 C   0  0  0  0  0  0
  -24.3610   -9.4214   21.9180 C   0  0  0  0  0  0
  -23.6286   -8.2249   22.0760 C   0  0  0  0  0  0
  -22.4268   -8.0283   21.3550 C   0  0  0  0  0  0
  -21.9897   -9.0259   20.4657 C   0  0  0  0  0  0
  -22.7227  -10.2138   20.3059 C   0  0  0  0  0  0
  -21.6849   -6.0733   22.5280 C   0  0  0  0  0  0
  -21.4013   -6.5644   23.8212 C   0  0  0  0  0  0
  -21.3656   -5.6802   24.9179 C   0  0  0  0  0  0
  -21.6039   -4.3062   24.7235 C   0  0  0  0  0  0
  -21.8818   -3.8151   23.4356 C   0  0  0  0  0  0
  -21.9190   -4.6962   22.3408 C   0  0  0  0  0  0
  -22.7874  -13.5251   21.1840 C   0  0  0  0  0  0
  -22.1658   -4.2149   21.0984 F   0  0  0  0  0  0
  -21.5625   -3.4544   25.7745 F   0  0  0  0  0  0
  -30.0356  -13.2622   20.4569 N   0  0  0  0  0  0
  -26.3024  -12.9320   20.3365 N   0  0  0  0  0  0
  -25.9304  -11.6487   20.5756 N   0  0  0  0  0  0
  -22.0518  -12.8239   22.0400 N   0  0  0  0  0  0
  -25.4372  -15.1889   20.4123 N   0  0  0  0  0  0
  -31.8648  -14.5709   20.1122 O   0  0  0  0  0  0
  -21.6641   -6.8872   21.4239 O   0  0  0  0  0  0
  -22.3553  -14.5551   20.6689 O   0  0  0  0  0  0
  -24.6116  -31.8694   23.2118 C   0  0  0  0  0  0
  -25.9022  -32.4831   23.8407 C   0  0  1  0  0  0
  -27.2371  -27.4668   20.0941 C   0  0  0  0  0  0
  -25.5883  -33.8629   24.2333 N   0  0  0  0  0  0
  -23.3980  -30.4946   21.5505 C   0  0  2  0  0  0
  -24.8447  -28.9639   20.1176 C   0  0  0  0  0  0
  -22.7393  -29.4676   22.4989 C   0  0  0  0  0  0
  -18.0285  -28.1359   22.8493 C   0  0  0  0  0  0
  -24.1489  -36.7328   23.2640 C   0  0  0  0  0  0
  -25.9235  -30.8485   21.3575 C   0  0  0  0  0  0
  -26.0032  -29.4852   20.7065 C   0  0  0  0  0  0
  -27.2041  -28.7455   20.6877 C   0  0  0  0  0  0
  -26.0613  -26.9498   19.5071 C   0  0  0  0  0  0
  -24.8677  -27.6941   19.5154 C   0  0  0  0  0  0
  -23.6041  -29.8256   20.1655 C   0  0  0  0  0  0
  -25.4107  -36.3116   24.0342 C   0  0  1  0  0  0
  -20.5868  -28.3658   23.1326 C   0  0  2  0  0  0
  -20.6784  -26.9396   22.5422 C   0  0  0  0  0  0
  -19.5779  -26.6391   21.5194 C   0  0  0  0  0  0
  -18.1951  -26.7911   22.1606 C   0  0  0  0  0  0
  -19.1526  -28.8820   23.2911 C   0  0  0  0  0  0
  -18.9444  -30.1425   23.8921 C   0  0  0  0  0  0
  -17.6446  -30.6567   24.0558 C   0  0  0  0  0  0
  -25.9030  -34.9481   23.5137 C   0  0  0  0  0  0
  -16.5341  -29.9063   23.6314 C   0  0  0  0  0  0
  -16.7273  -28.6479   23.0346 C   0  0  0  0  0  0
  -26.4464  -31.6600   25.0723 C   0  0  0  0  0  0
  -25.3742  -31.3691   26.1477 C   0  0  0  0  0  0
  -27.0288  -30.3054   24.6066 C   0  0  0  0  0  0
  -27.6049  -32.4301   25.7482 C   0  0  0  0  0  0
  -27.5578  -37.1819   24.8465 C   0  0  0  0  0  0
  -21.4121  -29.3043   22.3738 N   0  0  0  0  0  0
  -26.4297  -37.3799   23.9407 N   0  0  0  0  0  0
  -24.6628  -31.0842   22.0987 N   0  0  0  0  0  0
  -23.4182  -28.8205   23.3010 O   0  0  0  0  0  0
  -28.4131  -26.7554   20.0830 O   0  0  0  0  0  0
  -26.5590  -34.8927   22.4694 O   0  0  0  0  0  0
  -23.5320  -32.1417   23.7540 O   0  0  0  0  0  0
  -28.3684  -18.1878   22.7291 C   0  0  0  0  0  0
  -27.9241  -19.4492   22.2562 C   0  0  0  0  0  0
  -28.8047  -18.9623   20.0197 C   0  0  0  0  0  0
  -29.0186  -17.3362   21.8171 C   0  0  0  0  0  0
  -29.2289  -17.7210   20.5124 C   0  0  0  0  0  0
  -28.1404  -19.8451   20.9006 C   0  0  0  0  0  0
  -29.5633  -15.9661   22.0276 C   0  0  0  0  0  0
  -27.5397  -22.1087   21.0079 C   0  0  0  0  0  0
  -29.9272  -16.6070   19.7945 C   0  0  0  0  0  0
  -26.9950  -23.3673   20.3636 C   0  0  0  0  0  0
  -28.0919  -24.3244   19.8468 C   0  0  0  0  0  0
  -28.3745  -25.5126   20.7865 C   0  0  0  0  0  0
  -27.6799  -21.0389   20.3359 N   0  0  0  0  0  0
  -29.9922  -15.5359   20.8130 N   0  0  0  0  0  0
  -29.6065  -15.3931   23.1216 O   0  0  0  0  0  0
  -31.4625  -12.3570   19.1292 H   0  0  0  0  0  0
  -30.2989  -11.2668   19.8186 H   0  0  0  0  0  0
  -29.7311  -11.7784   17.4271 H   0  0  0  0  0  0
  -29.6736  -13.4862   17.7825 H   0  0  0  0  0  0
  -27.8102  -11.3146   18.7986 H   0  0  0  0  0  0
  -27.3693  -12.6594   17.7825 H   0  0  0  0  0  0
  -27.7126  -14.2520   19.5917 H   0  0  0  0  0  0
  -28.6685  -11.9142   21.3141 H   0  0  0  0  0  0
  -28.4470  -13.5247   21.8869 H   0  0  0  0  0  0
  -25.2757   -9.5692   22.4755 H   0  0  0  0  0  0
  -24.0002   -7.4638   22.7477 H   0  0  0  0  0  0
  -21.0832   -8.8773   19.8959 H   0  0  0  0  0  0
  -22.3683  -10.9677   19.6169 H   0  0  0  0  0  0
  -21.2004   -7.6153   23.9714 H   0  0  0  0  0  0
  -21.1478   -6.0535   25.9080 H   0  0  0  0  0  0
  -22.0597   -2.7615   23.2860 H   0  0  0  0  0  0
  -22.4125  -11.9893   22.4786 H   0  0  0  0  0  0
  -21.1142  -13.1275   22.2624 H   0  0  0  0  0  0
  -24.6772  -15.8489   20.5353 H   0  0  0  0  0  0
  -26.2944  -15.6295   20.1041 H   0  0  0  0  0  0
  -26.7095  -32.5565   23.1179 H   0  0  0  0  0  0
  -25.0032  -33.9804   25.0475 H   0  0  0  0  0  0
  -22.6855  -31.3098   21.4117 H   0  0  0  0  0  0
  -23.3736  -35.9679   23.3318 H   0  0  0  0  0  0
  -24.3581  -36.8922   22.2051 H   0  0  0  0  0  0
  -23.7257  -37.6550   23.6635 H   0  0  0  0  0  0
  -26.0288  -31.6152   20.5887 H   0  0  0  0  0  0
  -26.8146  -30.9041   21.9710 H   0  0  0  0  0  0
  -28.1013  -29.1475   21.1370 H   0  0  0  0  0  0
  -26.0544  -25.9814   19.0327 H   0  0  0  0  0  0
  -23.9781  -27.2874   19.0553 H   0  0  0  0  0  0
  -23.7062  -30.5982   19.4028 H   0  0  0  0  0  0
  -22.7305  -29.2395   19.8744 H   0  0  0  0  0  0
  -25.1280  -36.1988   25.0838 H   0  0  0  0  0  0
  -20.9970  -28.3229   24.1444 H   0  0  0  0  0  0
  -20.5657  -26.2265   23.3602 H   0  0  0  0  0  0
  -21.6673  -26.7432   22.1246 H   0  0  0  0  0  0
  -19.6962  -25.6316   21.1198 H   0  0  0  0  0  0
  -19.6715  -27.3213   20.6736 H   0  0  0  0  0  0
  -17.4233  -26.6668   21.3992 H   0  0  0  0  0  0
  -18.0359  -26.0025   22.8977 H   0  0  0  0  0  0
  -19.7916  -30.7240   24.2297 H   0  0  0  0  0  0
  -17.4985  -31.6255   24.5138 H   0  0  0  0  0  0
  -15.5337  -30.2967   23.7608 H   0  0  0  0  0  0
  -15.8677  -28.0804   22.7035 H   0  0  0  0  0  0
  -24.5913  -30.7040   25.7814 H   0  0  0  0  0  0
  -24.8944  -32.2847   26.4950 H   0  0  0  0  0  0
  -25.8114  -30.8844   27.0217 H   0  0  0  0  0  0
  -26.2827  -29.6821   24.1127 H   0  0  0  0  0  0
  -27.4083  -29.7277   25.4502 H   0  0  0  0  0  0
  -27.8644  -30.4388   23.9191 H   0  0  0  0  0  0
  -27.2676  -33.3575   26.2123 H   0  0  0  0  0  0
  -28.3836  -32.6896   25.0297 H   0  0  0  0  0  0
  -28.0745  -31.8381   26.5351 H   0  0  0  0  0  0
  -28.2608  -38.0102   24.7492 H   0  0  0  0  0  0
  -28.1057  -36.2633   24.6305 H   0  0  0  0  0  0
  -27.2299  -37.1489   25.8870 H   0  0  0  0  0  0
  -20.9263  -29.8753   21.6966 H   0  0  0  0  0  0
  -26.0183  -38.2886   24.1380 H   0  0  0  0  0  0
  -28.1999  -17.8812   23.7519 H   0  0  0  0  0  0
  -27.3955  -20.0922   22.9462 H   0  0  0  0  0  0
  -28.9732  -19.2254   18.9841 H   0  0  0  0  0  0
  -27.7953  -22.1989   22.0678 H   0  0  0  0  0  0
  -30.9176  -16.9320   19.4690 H   0  0  0  0  0  0
  -29.3549  -16.2879   18.9219 H   0  0  0  0  0  0
  -26.3215  -23.8638   21.0614 H   0  0  0  0  0  0
  -26.3658  -23.0691   19.5241 H   0  0  0  0  0  0
  -27.7880  -24.7014   18.8713 H   0  0  0  0  0  0
  -29.0186  -23.7863   19.6397 H   0  0  0  0  0  0
  -29.3435  -25.3660   21.2645 H   0  0  0  0  0  0
  -27.6566  -25.5649   21.6074 H   0  0  0  0  0  0
  1 25  1  0  0  0
  1 30  2  0  0  0
  1 84  1  0  0  0
  2  3  1  0  0  0
  2 25  1  0  0  0
  2 86  1  0  0  0
  2 87  1  0  0  0
  3  4  1  0  0  0
  3 88  1  0  0  0
  3 89  1  0  0  0
  4  5  1  0  0  0
  4 90  1  0  0  0
  4 91  1  0  0  0
  5  6  1  0  0  0
  5 26  1  0  0  0
  5 92  1  0  0  0
  6 25  1  0  0  0
  6 93  1  0  0  0
  6 94  1  0  0  0
  7  8  2  0  0  0
  7 26  1  0  0  0
  7 29  1  0  0  0
  8  9  1  0  0  0
  8 22  1  0  0  0
  9 10  1  0  0  0
  9 27  2  0  0  0
 10 11  2  0  0  0
 10 15  1  0  0  0
 11 12  1  0  0  0
 11 95  1  0  0  0
 12 13  2  0  0  0
 12 96  1  0  0  0
 13 14  1  0  0  0
 13 31  1  0  0  0
 14 15  2  0  0  0
 14 97  1  0  0  0
 15 98  1  0  0  0
 16 17  2  0  0  0
 16 21  1  0  0  0
 16 31  1  0  0  0
 17 18  1  0  0  0
 17 99  1  0  0  0
 18 19  2  0  0  0
 18100  1  0  0  0
 19 20  1  0  0  0
 19 24  1  0  0  0
 20 21  2  0  0  0
 20101  1  0  0  0
 21 23  1  0  0  0
 22 28  1  0  0  0
 22 32  2  0  0  0
 26 27  1  0  0  0
 28102  1  0  0  0
 28103  1  0  0  0
 29104  1  0  0  0
 29105  1  0  0  0
 33 34  1  0  0  0
 33 66  1  0  0  0
 33 70  2  0  0  0
 34 36  1  0  0  0
 34 59  1  0  0  0
 34106  1  0  0  0
 35 44  2  0  0  0
 35 45  1  0  0  0
 35 68  1  0  0  0
 36 56  1  0  0  0
 36107  1  0  0  0
 37 39  1  0  0  0
 37 47  1  0  0  0
 37 66  1  0  0  0
 37108  1  0  0  0
 38 43  2  0  0  0
 38 46  1  0  0  0
 38 47  1  0  0  0
 39 64  1  0  0  0
 39 67  2  0  0  0
 40 52  1  0  0  0
 40 53  2  0  0  0
 40 58  1  0  0  0
 41109  1  0  0  0
 41110  1  0  0  0
 41111  1  0  0  0
 41 48  1  0  0  0
 42 43  1  0  0  0
 42 66  1  0  0  0
 42112  1  0  0  0
 42113  1  0  0  0
 43 44  1  0  0  0
 44114  1  0  0  0
 45 46  2  0  0  0
 45115  1  0  0  0
 46116  1  0  0  0
 47117  1  0  0  0
 47118  1  0  0  0
 48 56  1  0  0  0
 48 65  1  0  0  0
 48119  1  0  0  0
 49 50  1  0  0  0
 49 53  1  0  0  0
 49 64  1  0  0  0
 49120  1  0  0  0
 50 51  1  0  0  0
 50121  1  0  0  0
 50122  1  0  0  0
 51 52  1  0  0  0
 51123  1  0  0  0
 51124  1  0  0  0
 52125  1  0  0  0
 52126  1  0  0  0
 53 54  1  0  0  0
 54 55  2  0  0  0
 54127  1  0  0  0
 55 57  1  0  0  0
 55128  1  0  0  0
 56 69  2  0  0  0
 57 58  2  0  0  0
 57129  1  0  0  0
 58130  1  0  0  0
 59 60  1  0  0  0
 59 61  1  0  0  0
 59 62  1  0  0  0
 60131  1  0  0  0
 60132  1  0  0  0
 60133  1  0  0  0
 61134  1  0  0  0
 61135  1  0  0  0
 61136  1  0  0  0
 62137  1  0  0  0
 62138  1  0  0  0
 62139  1  0  0  0
 63 65  1  0  0  0
 63140  1  0  0  0
 63141  1  0  0  0
 63142  1  0  0  0
 64143  1  0  0  0
 65144  1  0  0  0
 68 82  1  0  0  0
 71 72  2  0  0  0
 71 74  1  0  0  0
 71145  1  0  0  0
 72 76  1  0  0  0
 72146  1  0  0  0
 73 75  1  0  0  0
 73 76  2  0  0  0
 73147  1  0  0  0
 74 75  2  0  0  0
 74 77  1  0  0  0
 75 79  1  0  0  0
 76 83  1  0  0  0
 77 84  1  0  0  0
 77 85  2  0  0  0
 78 80  1  0  0  0
 78 83  2  0  0  0
 78148  1  0  0  0
 79 84  1  0  0  0
 79149  1  0  0  0
 79150  1  0  0  0
 80 81  1  0  0  0
 80151  1  0  0  0
 80152  1  0  0  0
 81 82  1  0  0  0
 81153  1  0  0  0
 81154  1  0  0  0
 82155  1  0  0  0
 82156  1  0  0  0
M  ISO  4   1 100  68 101  82 101  84 100
M  END
> <chiral flag>
0

> <version>
0

> <s_m_source_file>
/data/baiqing/PycharmProjects/Reinvent-master-3.2/result/LINK_invent/BTK/process_docking_weight1_custom_product_contain_oxygen_bond_distance_aromatic_linkinvent_7_9_3/rearranged_h_0123.sdf

> <i_m_source_file_index>
31

> <r_mmod_Potential_Energy-OPLS-2005>
122.426170349121

> <r_mmod_Stretch_Energy-OPLS-2005>
37.3323287963867

> <r_mmod_Bend_Energy-OPLS-2005>
167.405319213867

> <r_mmod_Torsional_Energy-OPLS-2005>
320.693817138672

> <r_mmod_Improper_Torsional_Energy-OPLS-2005>
12.8142223358154

> <r_mmod_Van_der_Waal_Energy-OPLS-2005>
152.153106689453

> <r_mmod_Electrostatic_Energy-OPLS-2005>
-383.353576660156

> <r_mmod_Solvation_Energy-OPLS-2005>
-195.473770141602

> <b_mmod_Minimization_Converged-OPLS-2005>
0

> <r_mmod_RMS_Derivative-OPLS-2005>
1.42974174022675

$$$$
31
                    3D
 Structure written by MMmdl.
161169  0  0  1  0            999 V2000
  -30.7057  -14.4432   20.5541 C   0  0  0  0  0  0
  -30.4250  -12.2802   19.4200 C   0  0  0  0  0  0
  -29.4936  -12.4832   18.2071 C   0  0  0  0  0  0
  -28.0117  -12.3612   18.6174 C   0  0  0  0  0  0
  -27.6644  -13.1998   19.8753 C   0  0  2  0  0  0
  -28.7057  -12.9650   20.9929 C   0  0  0  0  0  0
  -25.2591  -13.8134   20.5657 C   0  0  0  0  0  0
  -24.1847  -13.0439   20.9180 C   0  0  0  0  0  0
  -24.6382  -11.6886   20.8754 C   0  0  0  0  0  0
  -23.9043  -10.4289   21.0408 C   0  0  0  0  0  0
  -24.3583   -9.4202   21.9196 C   0  0  0  0  0  0
  -23.6267   -8.2229   22.0763 C   0  0  0  0  0  0
  -22.4262   -8.0266   21.3529 C   0  0  0  0  0  0
  -21.9903   -9.0229   20.4626 C   0  0  0  0  0  0
  -22.7222  -10.2118   20.3046 C   0  0  0  0  0  0
  -21.6843   -6.0735   22.5278 C   0  0  0  0  0  0
  -21.3992   -6.5638   23.8219 C   0  0  0  0  0  0
  -21.3666   -5.6796   24.9170 C   0  0  0  0  0  0
  -21.6045   -4.3048   24.7224 C   0  0  0  0  0  0
  -21.8823   -3.8140   23.4340 C   0  0  0  0  0  0
  -21.9187   -4.6955   22.3413 C   0  0  0  0  0  0
  -22.7854  -13.5228   21.1821 C   0  0  0  0  0  0
  -22.1659   -4.2134   21.0981 F   0  0  0  0  0  0
  -21.5635   -3.4530   25.7741 F   0  0  0  0  0  0
  -30.0432  -13.2620   20.4453 N   0  0  0  0  0  0
  -26.3039  -12.9298   20.3370 N   0  0  0  0  0  0
  -25.9311  -11.6466   20.5791 N   0  0  0  0  0  0
  -22.0455  -12.8216   22.0331 N   0  0  0  0  0  0
  -25.4336  -15.1848   20.4000 N   0  0  0  0  0  0
  -31.8353  -14.6188   20.0882 O   0  0  0  0  0  0
  -21.6617   -6.8861   21.4238 O   0  0  0  0  0  0
  -22.3572  -14.5559   20.6687 O   0  0  0  0  0  0
  -24.6106  -31.8705   23.2095 C   0  0  0  0  0  0
  -25.9021  -32.4835   23.8399 C   0  0  1  0  0  0
  -27.2571  -27.4659   20.1049 C   0  0  0  0  0  0
  -25.5886  -33.8627   24.2338 N   0  0  0  0  0  0
  -23.3966  -30.4908   21.5467 C   0  0  2  0  0  0
  -24.8501  -28.9532   20.1122 C   0  0  0  0  0  0
  -22.7378  -29.4690   22.5004 C   0  0  0  0  0  0
  -18.0249  -28.1390   22.8505 C   0  0  0  0  0  0
  -24.1476  -36.7295   23.2642 C   0  0  0  0  0  0
  -25.9208  -30.8446   21.3566 C   0  0  0  0  0  0
  -25.9994  -29.4765   20.7149 C   0  0  0  0  0  0
  -27.1950  -28.7324   20.7215 C   0  0  0  0  0  0
  -26.0941  -26.9467   19.4887 C   0  0  0  0  0  0
  -24.8910  -27.6859   19.4978 C   0  0  0  0  0  0
  -23.6047  -29.8116   20.1632 C   0  0  0  0  0  0
  -25.4087  -36.3104   24.0345 C   0  0  1  0  0  0
  -20.5836  -28.3651   23.1364 C   0  0  2  0  0  0
  -20.6722  -26.9400   22.5436 C   0  0  0  0  0  0
  -19.5723  -26.6410   21.5217 C   0  0  0  0  0  0
  -18.1887  -26.7963   22.1593 C   0  0  0  0  0  0
  -19.1495  -28.8829   23.2936 C   0  0  0  0  0  0
  -18.9426  -30.1425   23.8955 C   0  0  0  0  0  0
  -17.6436  -30.6610   24.0547 C   0  0  0  0  0  0
  -25.9024  -34.9483   23.5136 C   0  0  0  0  0  0
  -16.5321  -29.9110   23.6347 C   0  0  0  0  0  0
  -16.7233  -28.6518   23.0384 C   0  0  0  0  0  0
  -26.4463  -31.6598   25.0711 C   0  0  0  0  0  0
  -25.3748  -31.3670   26.1460 C   0  0  0  0  0  0
  -27.0286  -30.3053   24.6039 C   0  0  0  0  0  0
  -27.6042  -32.4308   25.7490 C   0  0  0  0  0  0
  -27.5576  -37.1805   24.8455 C   0  0  0  0  0  0
  -21.4104  -29.3032   22.3776 N   0  0  0  0  0  0
  -26.4262  -37.3797   23.9432 N   0  0  0  0  0  0
  -24.6604  -31.0841   22.0964 N   0  0  0  0  0  0
  -23.4182  -28.8265   23.3039 O   0  0  0  0  0  0
  -28.4567  -26.7929   20.1793 O   0  0  0  0  0  0
  -26.5590  -34.8954   22.4699 O   0  0  0  0  0  0
  -23.5307  -32.1435   23.7517 O   0  0  0  0  0  0
  -28.9022  -17.5964   21.1591 C   0  0  0  0  0  0
  -31.1978  -17.5238   20.4160 C   0  0  0  0  0  0
  -30.0556  -19.7072   20.6046 C   0  0  0  0  0  0
  -28.8842  -19.0037   21.0293 C   0  0  0  0  0  0
  -31.1944  -18.9245   20.2509 C   0  0  0  0  0  0
  -30.0552  -16.8407   20.8832 C   0  0  0  0  0  0
  -30.1936  -21.1909   20.4838 C   0  0  0  0  0  0
  -29.2888  -22.1516   20.1962 C   0  0  0  0  0  0
  -28.6556  -24.4042   19.5833 C   0  0  0  0  0  0
  -29.6112  -23.5779   20.0725 C   0  0  0  0  0  0
  -27.5742  -19.6666   21.4229 C   0  0  0  0  0  0
  -32.4610  -19.5530   19.6788 C   0  0  0  0  0  0
  -30.9919  -24.1198   20.4563 C   0  0  0  0  0  0
  -28.8319  -25.8624   19.1733 C   0  0  0  0  0  0
  -29.9830  -15.4324   21.1076 N   0  0  0  0  0  0
  -31.4684  -12.3764   19.1149 H   0  0  0  0  0  0
  -30.3291  -11.2692   19.8177 H   0  0  0  0  0  0
  -29.7222  -11.7498   17.4326 H   0  0  0  0  0  0
  -29.6746  -13.4628   17.7624 H   0  0  0  0  0  0
  -27.8072  -11.3084   18.8083 H   0  0  0  0  0  0
  -27.3672  -12.6475   17.7858 H   0  0  0  0  0  0
  -27.7146  -14.2498   19.5821 H   0  0  0  0  0  0
  -28.6765  -11.9252   21.3220 H   0  0  0  0  0  0
  -28.4714  -13.5558   21.8798 H   0  0  0  0  0  0
  -25.2712   -9.5680   22.4800 H   0  0  0  0  0  0
  -23.9965   -7.4616   22.7491 H   0  0  0  0  0  0
  -21.0841   -8.8723   19.8928 H   0  0  0  0  0  0
  -22.3675  -10.9633   19.6142 H   0  0  0  0  0  0
  -21.1984   -7.6160   23.9717 H   0  0  0  0  0  0
  -21.1485   -6.0519   25.9080 H   0  0  0  0  0  0
  -22.0603   -2.7606   23.2840 H   0  0  0  0  0  0
  -22.3987  -11.9806   22.4641 H   0  0  0  0  0  0
  -21.1080  -13.1272   22.2526 H   0  0  0  0  0  0
  -24.6567  -15.8330   20.4803 H   0  0  0  0  0  0
  -26.2693  -15.6104   20.0210 H   0  0  0  0  0  0
  -26.7108  -32.5576   23.1190 H   0  0  0  0  0  0
  -25.0045  -33.9790   25.0485 H   0  0  0  0  0  0
  -22.6842  -31.3056   21.4041 H   0  0  0  0  0  0
  -23.3769  -35.9603   23.3275 H   0  0  0  0  0  0
  -24.3584  -36.8895   22.2064 H   0  0  0  0  0  0
  -23.7189  -37.6476   23.6660 H   0  0  0  0  0  0
  -26.0266  -31.6077   20.5841 H   0  0  0  0  0  0
  -26.8137  -30.9055   21.9677 H   0  0  0  0  0  0
  -28.0793  -29.1292   21.2003 H   0  0  0  0  0  0
  -26.1033  -25.9730   19.0197 H   0  0  0  0  0  0
  -24.0043  -27.2796   19.0310 H   0  0  0  0  0  0
  -23.7034  -30.5803   19.3961 H   0  0  0  0  0  0
  -22.7328  -29.2197   19.8775 H   0  0  0  0  0  0
  -25.1268  -36.1956   25.0840 H   0  0  0  0  0  0
  -20.9926  -28.3187   24.1484 H   0  0  0  0  0  0
  -20.5612  -26.2252   23.3589 H   0  0  0  0  0  0
  -21.6596  -26.7467   22.1222 H   0  0  0  0  0  0
  -19.6865  -25.6334   21.1206 H   0  0  0  0  0  0
  -19.6695  -27.3249   20.6769 H   0  0  0  0  0  0
  -17.4179  -26.6776   21.3955 H   0  0  0  0  0  0
  -18.0230  -26.0084   22.8960 H   0  0  0  0  0  0
  -19.7897  -30.7196   24.2390 H   0  0  0  0  0  0
  -17.5004  -31.6321   24.5092 H   0  0  0  0  0  0
  -15.5316  -30.3004   23.7688 H   0  0  0  0  0  0
  -15.8623  -28.0837   22.7110 H   0  0  0  0  0  0
  -24.5931  -30.7005   25.7807 H   0  0  0  0  0  0
  -24.8943  -32.2801   26.4972 H   0  0  0  0  0  0
  -25.8122  -30.8818   27.0186 H   0  0  0  0  0  0
  -26.2805  -29.6817   24.1126 H   0  0  0  0  0  0
  -27.4101  -29.7275   25.4471 H   0  0  0  0  0  0
  -27.8630  -30.4404   23.9150 H   0  0  0  0  0  0
  -27.2694  -33.3664   26.1991 H   0  0  0  0  0  0
  -28.3908  -32.6731   25.0339 H   0  0  0  0  0  0
  -28.0631  -31.8443   26.5456 H   0  0  0  0  0  0
  -28.2551  -38.0148   24.7525 H   0  0  0  0  0  0
  -28.1088  -36.2655   24.6214 H   0  0  0  0  0  0
  -27.2314  -37.1359   25.8862 H   0  0  0  0  0  0
  -20.9239  -29.8757   21.7021 H   0  0  0  0  0  0
  -26.0141  -38.2868   24.1424 H   0  0  0  0  0  0
  -28.0116  -17.0873   21.5003 H   0  0  0  0  0  0
  -32.1056  -16.9900   20.1826 H   0  0  0  0  0  0
  -31.1988  -21.5342   20.6641 H   0  0  0  0  0  0
  -28.2677  -21.8535   20.0104 H   0  0  0  0  0  0
  -27.6626  -24.0162   19.4031 H   0  0  0  0  0  0
  -27.1492  -19.1397   22.2780 H   0  0  0  0  0  0
  -26.8560  -19.5933   20.6049 H   0  0  0  0  0  0
  -27.6739  -20.7037   21.7273 H   0  0  0  0  0  0
  -33.1055  -18.7970   19.2273 H   0  0  0  0  0  0
  -33.0355  -20.0534   20.4580 H   0  0  0  0  0  0
  -32.2331  -20.2792   18.8973 H   0  0  0  0  0  0
  -31.3773  -23.6314   21.3523 H   0  0  0  0  0  0
  -30.9727  -25.1825   20.7046 H   0  0  0  0  0  0
  -31.7125  -23.9808   19.6481 H   0  0  0  0  0  0
  -28.3264  -26.0480   18.2261 H   0  0  0  0  0  0
  -29.8856  -26.0439   18.9632 H   0  0  0  0  0  0
  -29.1209  -15.1081   21.5198 H   0  0  0  0  0  0
  1 25  1  0  0  0
  1 30  2  0  0  0
  1 85  1  0  0  0
  2  3  1  0  0  0
  2 25  1  0  0  0
  2 86  1  0  0  0
  2 87  1  0  0  0
  3  4  1  0  0  0
  3 88  1  0  0  0
  3 89  1  0  0  0
  4  5  1  0  0  0
  4 90  1  0  0  0
  4 91  1  0  0  0
  5  6  1  0  0  0
  5 26  1  0  0  0
  5 92  1  0  0  0
  6 25  1  0  0  0
  6 93  1  0  0  0
  6 94  1  0  0  0
  7  8  2  0  0  0
  7 26  1  0  0  0
  7 29  1  0  0  0
  8  9  1  0  0  0
  8 22  1  0  0  0
  9 10  1  0  0  0
  9 27  2  0  0  0
 10 11  2  0  0  0
 10 15  1  0  0  0
 11 12  1  0  0  0
 11 95  1  0  0  0
 12 13  2  0  0  0
 12 96  1  0  0  0
 13 14  1  0  0  0
 13 31  1  0  0  0
 14 15  2  0  0  0
 14 97  1  0  0  0
 15 98  1  0  0  0
 16 17  2  0  0  0
 16 21  1  0  0  0
 16 31  1  0  0  0
 17 18  1  0  0  0
 17 99  1  0  0  0
 18 19  2  0  0  0
 18100  1  0  0  0
 19 20  1  0  0  0
 19 24  1  0  0  0
 20 21  2  0  0  0
 20101  1  0  0  0
 21 23  1  0  0  0
 22 28  1  0  0  0
 22 32  2  0  0  0
 26 27  1  0  0  0
 28102  1  0  0  0
 28103  1  0  0  0
 29104  1  0  0  0
 29105  1  0  0  0
 33 34  1  0  0  0
 33 66  1  0  0  0
 33 70  2  0  0  0
 34 36  1  0  0  0
 34 59  1  0  0  0
 34106  1  0  0  0
 35 44  2  0  0  0
 35 45  1  0  0  0
 35 68  1  0  0  0
 36 56  1  0  0  0
 36107  1  0  0  0
 37 39  1  0  0  0
 37 47  1  0  0  0
 37 66  1  0  0  0
 37108  1  0  0  0
 38 43  2  0  0  0
 38 46  1  0  0  0
 38 47  1  0  0  0
 39 64  1  0  0  0
 39 67  2  0  0  0
 40 52  1  0  0  0
 40 53  2  0  0  0
 40 58  1  0  0  0
 41109  1  0  0  0
 41110  1  0  0  0
 41111  1  0  0  0
 41 48  1  0  0  0
 42 43  1  0  0  0
 42 66  1  0  0  0
 42112  1  0  0  0
 42113  1  0  0  0
 43 44  1  0  0  0
 44114  1  0  0  0
 45 46  2  0  0  0
 45115  1  0  0  0
 46116  1  0  0  0
 47117  1  0  0  0
 47118  1  0  0  0
 48 56  1  0  0  0
 48 65  1  0  0  0
 48119  1  0  0  0
 49 50  1  0  0  0
 49 53  1  0  0  0
 49 64  1  0  0  0
 49120  1  0  0  0
 50 51  1  0  0  0
 50121  1  0  0  0
 50122  1  0  0  0
 51 52  1  0  0  0
 51123  1  0  0  0
 51124  1  0  0  0
 52125  1  0  0  0
 52126  1  0  0  0
 53 54  1  0  0  0
 54 55  2  0  0  0
 54127  1  0  0  0
 55 57  1  0  0  0
 55128  1  0  0  0
 56 69  2  0  0  0
 57 58  2  0  0  0
 57129  1  0  0  0
 58130  1  0  0  0
 59 60  1  0  0  0
 59 61  1  0  0  0
 59 62  1  0  0  0
 60131  1  0  0  0
 60132  1  0  0  0
 60133  1  0  0  0
 61134  1  0  0  0
 61135  1  0  0  0
 61136  1  0  0  0
 62137  1  0  0  0
 62138  1  0  0  0
 62139  1  0  0  0
 63 65  1  0  0  0
 63140  1  0  0  0
 63141  1  0  0  0
 63142  1  0  0  0
 64143  1  0  0  0
 65144  1  0  0  0
 68 84  1  0  0  0
 71 74  2  0  0  0
 71 76  1  0  0  0
 71145  1  0  0  0
 72 75  1  0  0  0
 72 76  2  0  0  0
 72146  1  0  0  0
 73 74  1  0  0  0
 73 75  2  0  0  0
 73 77  1  0  0  0
 74 81  1  0  0  0
 75 82  1  0  0  0
 76 85  1  0  0  0
 77 78  2  0  0  0
 77147  1  0  0  0
 78 80  1  0  0  0
 78148  1  0  0  0
 79 80  2  0  0  0
 79 84  1  0  0  0
 79149  1  0  0  0
 80 83  1  0  0  0
 81150  1  0  0  0
 81151  1  0  0  0
 81152  1  0  0  0
 82153  1  0  0  0
 82154  1  0  0  0
 82155  1  0  0  0
 83156  1  0  0  0
 83157  1  0  0  0
 83158  1  0  0  0
 84159  1  0  0  0
 84160  1  0  0  0
 85161  1  0  0  0
M  ISO  4   1 100  68 101  84 101  85 100
M  END
> <chiral flag>
0

> <version>
0

> <s_m_source_file>
/data/baiqing/PycharmProjects/Reinvent-master-3.2/result/LINK_invent/BTK/process_docking_weight1_custom_product_contain_oxygen_bond_distance_aromatic_linkinvent_7_9_3/rearranged_h_0123.sdf

> <i_m_source_file_index>
32

> <r_mmod_Potential_Energy-OPLS-2005>
-9.23195171356201

> <r_mmod_Stretch_Energy-OPLS-2005>
39.7127494812012

> <r_mmod_Bend_Energy-OPLS-2005>
124.985290527344

> <r_mmod_Torsional_Energy-OPLS-2005>
222.472091674805

> <r_mmod_Improper_Torsional_Energy-OPLS-2005>
4.74129056930542

> <r_mmod_Van_der_Waal_Energy-OPLS-2005>
169.180206298828

> <r_mmod_Electrostatic_Energy-OPLS-2005>
-386.346710205078

> <r_mmod_Solvation_Energy-OPLS-2005>
-197.027893066406

> <b_mmod_Minimization_Converged-OPLS-2005>
0

> <r_mmod_RMS_Derivative-OPLS-2005>
4.49844694137573

$$$$
32
                    3D
 Structure written by MMmdl.
153161  0  0  1  0            999 V2000
  -30.6289  -14.7353   20.4821 C   0  0  0  0  0  0
  -30.4229  -12.4563   19.4709 C   0  0  0  0  0  0
  -29.4988  -12.5018   18.2326 C   0  0  0  0  0  0
  -28.0248  -12.3330   18.6468 C   0  0  0  0  0  0
  -27.6318  -13.2350   19.8467 C   0  0  2  0  0  0
  -28.6760  -13.1830   20.9832 C   0  0  0  0  0  0
  -25.2436  -13.8205   20.5682 C   0  0  0  0  0  0
  -24.1739  -13.0434   20.9201 C   0  0  0  0  0  0
  -24.6351  -11.6924   20.8751 C   0  0  0  0  0  0
  -23.9040  -10.4298   21.0415 C   0  0  0  0  0  0
  -24.3598   -9.4227   21.9197 C   0  0  0  0  0  0
  -23.6289   -8.2251   22.0758 C   0  0  0  0  0  0
  -22.4279   -8.0274   21.3536 C   0  0  0  0  0  0
  -21.9911   -9.0251   20.4637 C   0  0  0  0  0  0
  -22.7222  -10.2138   20.3065 C   0  0  0  0  0  0
  -21.6848   -6.0728   22.5263 C   0  0  0  0  0  0
  -21.4020   -6.5646   23.8192 C   0  0  0  0  0  0
  -21.3664   -5.6804   24.9156 C   0  0  0  0  0  0
  -21.6025   -4.3065   24.7211 C   0  0  0  0  0  0
  -21.8825   -3.8149   23.4349 C   0  0  0  0  0  0
  -21.9194   -4.6955   22.3399 C   0  0  0  0  0  0
  -22.7773  -13.5210   21.1893 C   0  0  0  0  0  0
  -22.1656   -4.2168   21.0967 F   0  0  0  0  0  0
  -21.5638   -3.4543   25.7714 F   0  0  0  0  0  0
  -29.9755  -13.5263   20.3936 N   0  0  0  0  0  0
  -26.2866  -12.9435   20.3296 N   0  0  0  0  0  0
  -25.9284  -11.6583   20.5767 N   0  0  0  0  0  0
  -22.0437  -12.8171   22.0449 N   0  0  0  0  0  0
  -25.4149  -15.1917   20.4028 N   0  0  0  0  0  0
  -31.8228  -14.8020   20.1747 O   0  0  0  0  0  0
  -21.6631   -6.8878   21.4235 O   0  0  0  0  0  0
  -22.3450  -14.5523   20.6749 O   0  0  0  0  0  0
  -24.6322  -31.8521   23.1980 C   0  0  0  0  0  0
  -25.9136  -32.4731   23.8342 C   0  0  1  0  0  0
  -27.2160  -27.2444   20.1414 C   0  0  0  0  0  0
  -25.5894  -33.8557   24.2204 N   0  0  0  0  0  0
  -23.4324  -30.4764   21.5365 C   0  0  2  0  0  0
  -24.8836  -28.9269   20.1046 C   0  0  0  0  0  0
  -22.7524  -29.4579   22.4894 C   0  0  0  0  0  0
  -18.0259  -28.1394   22.8440 C   0  0  0  0  0  0
  -24.1500  -36.7264   23.2645 C   0  0  0  0  0  0
  -25.9835  -30.7588   21.3853 C   0  0  0  0  0  0
  -26.0581  -29.3867   20.7194 C   0  0  0  0  0  0
  -27.2259  -28.5570   20.7252 C   0  0  0  0  0  0
  -26.0188  -26.8628   19.4897 C   0  0  0  0  0  0
  -24.8697  -27.6732   19.4791 C   0  0  0  0  0  0
  -23.6549  -29.8094   20.1525 C   0  0  0  0  0  0
  -25.4138  -36.3071   24.0327 C   0  0  1  0  0  0
  -20.5885  -28.3696   23.1251 C   0  0  2  0  0  0
  -20.6783  -26.9402   22.5400 C   0  0  0  0  0  0
  -19.5765  -26.6363   21.5214 C   0  0  0  0  0  0
  -18.1909  -26.7912   22.1601 C   0  0  0  0  0  0
  -19.1545  -28.8867   23.2793 C   0  0  0  0  0  0
  -18.9495  -30.1439   23.8819 C   0  0  0  0  0  0
  -17.6522  -30.6568   24.0592 C   0  0  0  0  0  0
  -25.9088  -34.9447   23.5091 C   0  0  0  0  0  0
  -16.5387  -29.9090   23.6360 C   0  0  0  0  0  0
  -16.7276  -28.6533   23.0344 C   0  0  0  0  0  0
  -26.4513  -31.6603   25.0763 C   0  0  0  0  0  0
  -25.3722  -31.3796   26.1467 C   0  0  0  0  0  0
  -27.0408  -30.3026   24.6313 C   0  0  0  0  0  0
  -27.6037  -32.4388   25.7516 C   0  0  0  0  0  0
  -27.5571  -37.1792   24.8455 C   0  0  0  0  0  0
  -21.4229  -29.3009   22.3630 N   0  0  0  0  0  0
  -26.4325  -37.3766   23.9407 N   0  0  0  0  0  0
  -24.6997  -31.0521   22.0914 N   0  0  0  0  0  0
  -23.4189  -28.8097   23.2986 O   0  0  0  0  0  0
  -28.2878  -26.3235   20.2128 O   0  0  0  0  0  0
  -26.5669  -34.8908   22.4644 O   0  0  0  0  0  0
  -23.5480  -32.1346   23.7271 O   0  0  0  0  0  0
  -31.3703  -19.8112   21.8251 C   0  0  0  0  0  0
  -29.7215  -18.5473   20.5747 C   0  0  0  0  0  0
  -31.4595  -17.3739   21.8348 C   0  0  0  0  0  0
  -30.2327  -19.8532   20.9870 C   0  0  0  0  0  0
  -31.9788  -18.6115   22.2419 C   0  0  0  0  0  0
  -30.3387  -17.2795   20.9836 C   0  0  0  0  0  0
  -29.9516  -21.3065   20.5107 C   0  0  0  0  0  0
  -28.9759  -22.2738   20.7534 C   0  0  0  0  0  0
  -29.1347  -23.7629   20.3281 C   0  0  0  0  0  0
  -33.2360  -18.6572   23.0945 C   0  0  0  0  0  0
  -27.9479  -24.8437   20.3049 C   0  0  0  0  0  0
  -29.8812  -15.8995   20.6510 N   0  0  0  0  0  0
  -30.2495  -24.1770   19.9896 O   0  0  0  0  0  0
  -31.4648  -12.5755   19.1695 H   0  0  0  0  0  0
  -30.3598  -11.4833   19.9682 H   0  0  0  0  0  0
  -29.7809  -11.7225   17.5239 H   0  0  0  0  0  0
  -29.6274  -13.4559   17.7144 H   0  0  0  0  0  0
  -27.8732  -11.2829   18.9081 H   0  0  0  0  0  0
  -27.3698  -12.5331   17.7978 H   0  0  0  0  0  0
  -27.6222  -14.2543   19.4599 H   0  0  0  0  0  0
  -28.7113  -12.1898   21.4379 H   0  0  0  0  0  0
  -28.4126  -13.8798   21.7789 H   0  0  0  0  0  0
  -25.2749   -9.5701   22.4776 H   0  0  0  0  0  0
  -23.9993   -7.4646   22.7479 H   0  0  0  0  0  0
  -21.0859   -8.8755   19.8940 H   0  0  0  0  0  0
  -22.3679  -10.9673   19.6169 H   0  0  0  0  0  0
  -21.2014   -7.6147   23.9702 H   0  0  0  0  0  0
  -21.1479   -6.0525   25.9056 H   0  0  0  0  0  0
  -22.0601   -2.7624   23.2815 H   0  0  0  0  0  0
  -22.4059  -11.9792   22.4740 H   0  0  0  0  0  0
  -21.1077  -13.1214   22.2744 H   0  0  0  0  0  0
  -24.6458  -15.8488   20.4904 H   0  0  0  0  0  0
  -26.2569  -15.6235   20.0468 H   0  0  0  0  0  0
  -26.7181  -32.5361   23.1060 H   0  0  0  0  0  0
  -25.0076  -33.9677   25.0390 H   0  0  0  0  0  0
  -22.7283  -31.3008   21.3886 H   0  0  0  0  0  0
  -23.3780  -35.9585   23.3337 H   0  0  0  0  0  0
  -24.3573  -36.8894   22.2050 H   0  0  0  0  0  0
  -23.7257  -37.6460   23.6685 H   0  0  0  0  0  0
  -26.1397  -31.5254   20.6249 H   0  0  0  0  0  0
  -26.8525  -30.7950   22.0289 H   0  0  0  0  0  0
  -28.1175  -28.9009   21.2343 H   0  0  0  0  0  0
  -25.9324  -25.9115   18.9899 H   0  0  0  0  0  0
  -23.9765  -27.3202   18.9797 H   0  0  0  0  0  0
  -23.7766  -30.5882   19.3976 H   0  0  0  0  0  0
  -22.7722  -29.2420   19.8472 H   0  0  0  0  0  0
  -25.1319  -36.1908   25.0840 H   0  0  0  0  0  0
  -20.9961  -28.3310   24.1400 H   0  0  0  0  0  0
  -20.5759  -26.2302   23.3615 H   0  0  0  0  0  0
  -21.6664  -26.7471   22.1168 H   0  0  0  0  0  0
  -19.6988  -25.6263   21.1233 H   0  0  0  0  0  0
  -19.6771  -27.3199   20.6758 H   0  0  0  0  0  0
  -17.4229  -26.6668   21.3940 H   0  0  0  0  0  0
  -18.0294  -26.0084   22.9012 H   0  0  0  0  0  0
  -19.8002  -30.7215   24.2232 H   0  0  0  0  0  0
  -17.5098  -31.6281   24.5114 H   0  0  0  0  0  0
  -15.5373  -30.2989   23.7736 H   0  0  0  0  0  0
  -15.8666  -28.0826   22.7113 H   0  0  0  0  0  0
  -24.5878  -30.7172   25.7826 H   0  0  0  0  0  0
  -24.8910  -32.2964   26.4857 H   0  0  0  0  0  0
  -25.7978  -30.9001   27.0275 H   0  0  0  0  0  0
  -26.3025  -29.6685   24.1359 H   0  0  0  0  0  0
  -27.4102  -29.7369   25.4865 H   0  0  0  0  0  0
  -27.8889  -30.4302   23.9592 H   0  0  0  0  0  0
  -27.2660  -33.3746   26.1965 H   0  0  0  0  0  0
  -28.3889  -32.6845   25.0380 H   0  0  0  0  0  0
  -28.0644  -31.8599   26.5529 H   0  0  0  0  0  0
  -28.2588  -38.0079   24.7509 H   0  0  0  0  0  0
  -28.1069  -36.2606   24.6302 H   0  0  0  0  0  0
  -27.2270  -37.1451   25.8853 H   0  0  0  0  0  0
  -20.9439  -29.8783   21.6855 H   0  0  0  0  0  0
  -26.0176  -38.2844   24.1425 H   0  0  0  0  0  0
  -31.8231  -20.7426   22.1319 H   0  0  0  0  0  0
  -28.8781  -18.5173   19.8983 H   0  0  0  0  0  0
  -31.9626  -16.4796   22.1766 H   0  0  0  0  0  0
  -30.7905  -21.6600   19.9002 H   0  0  0  0  0  0
  -28.0750  -22.0173   21.3225 H   0  0  0  0  0  0
  -33.2158  -19.5011   23.7843 H   0  0  0  0  0  0
  -34.1121  -18.7568   22.4547 H   0  0  0  0  0  0
  -33.3559  -17.7459   23.6819 H   0  0  0  0  0  0
  -27.3077  -24.6848   21.1701 H   0  0  0  0  0  0
  -27.3622  -24.5629   19.4324 H   0  0  0  0  0  0
  -28.8813  -15.7710   20.6008 H   0  0  0  0  0  0
  1 25  1  0  0  0
  1 30  2  0  0  0
  1 82  1  0  0  0
  2  3  1  0  0  0
  2 25  1  0  0  0
  2 84  1  0  0  0
  2 85  1  0  0  0
  3  4  1  0  0  0
  3 86  1  0  0  0
  3 87  1  0  0  0
  4  5  1  0  0  0
  4 88  1  0  0  0
  4 89  1  0  0  0
  5  6  1  0  0  0
  5 26  1  0  0  0
  5 90  1  0  0  0
  6 25  1  0  0  0
  6 91  1  0  0  0
  6 92  1  0  0  0
  7  8  2  0  0  0
  7 26  1  0  0  0
  7 29  1  0  0  0
  8  9  1  0  0  0
  8 22  1  0  0  0
  9 10  1  0  0  0
  9 27  2  0  0  0
 10 11  2  0  0  0
 10 15  1  0  0  0
 11 12  1  0  0  0
 11 93  1  0  0  0
 12 13  2  0  0  0
 12 94  1  0  0  0
 13 14  1  0  0  0
 13 31  1  0  0  0
 14 15  2  0  0  0
 14 95  1  0  0  0
 15 96  1  0  0  0
 16 17  2  0  0  0
 16 21  1  0  0  0
 16 31  1  0  0  0
 17 18  1  0  0  0
 17 97  1  0  0  0
 18 19  2  0  0  0
 18 98  1  0  0  0
 19 20  1  0  0  0
 19 24  1  0  0  0
 20 21  2  0  0  0
 20 99  1  0  0  0
 21 23  1  0  0  0
 22 28  1  0  0  0
 22 32  2  0  0  0
 26 27  1  0  0  0
 28100  1  0  0  0
 28101  1  0  0  0
 29102  1  0  0  0
 29103  1  0  0  0
 33 34  1  0  0  0
 33 66  1  0  0  0
 33 70  2  0  0  0
 34 36  1  0  0  0
 34 59  1  0  0  0
 34104  1  0  0  0
 35 44  2  0  0  0
 35 45  1  0  0  0
 35 68  1  0  0  0
 36 56  1  0  0  0
 36105  1  0  0  0
 37 39  1  0  0  0
 37 47  1  0  0  0
 37 66  1  0  0  0
 37106  1  0  0  0
 38 43  2  0  0  0
 38 46  1  0  0  0
 38 47  1  0  0  0
 39 64  1  0  0  0
 39 67  2  0  0  0
 40 52  1  0  0  0
 40 53  2  0  0  0
 40 58  1  0  0  0
 41107  1  0  0  0
 41108  1  0  0  0
 41109  1  0  0  0
 41 48  1  0  0  0
 42 43  1  0  0  0
 42 66  1  0  0  0
 42110  1  0  0  0
 42111  1  0  0  0
 43 44  1  0  0  0
 44112  1  0  0  0
 45 46  2  0  0  0
 45113  1  0  0  0
 46114  1  0  0  0
 47115  1  0  0  0
 47116  1  0  0  0
 48 56  1  0  0  0
 48 65  1  0  0  0
 48117  1  0  0  0
 49 50  1  0  0  0
 49 53  1  0  0  0
 49 64  1  0  0  0
 49118  1  0  0  0
 50 51  1  0  0  0
 50119  1  0  0  0
 50120  1  0  0  0
 51 52  1  0  0  0
 51121  1  0  0  0
 51122  1  0  0  0
 52123  1  0  0  0
 52124  1  0  0  0
 53 54  1  0  0  0
 54 55  2  0  0  0
 54125  1  0  0  0
 55 57  1  0  0  0
 55126  1  0  0  0
 56 69  2  0  0  0
 57 58  2  0  0  0
 57127  1  0  0  0
 58128  1  0  0  0
 59 60  1  0  0  0
 59 61  1  0  0  0
 59 62  1  0  0  0
 60129  1  0  0  0
 60130  1  0  0  0
 60131  1  0  0  0
 61132  1  0  0  0
 61133  1  0  0  0
 61134  1  0  0  0
 62135  1  0  0  0
 62136  1  0  0  0
 62137  1  0  0  0
 63 65  1  0  0  0
 63138  1  0  0  0
 63139  1  0  0  0
 63140  1  0  0  0
 64141  1  0  0  0
 65142  1  0  0  0
 68 81  1  0  0  0
 71 74  2  0  0  0
 71 75  1  0  0  0
 71143  1  0  0  0
 72 74  1  0  0  0
 72 76  2  0  0  0
 72144  1  0  0  0
 73 75  2  0  0  0
 73 76  1  0  0  0
 73145  1  0  0  0
 74 77  1  0  0  0
 75 80  1  0  0  0
 76 82  1  0  0  0
 77 78  2  0  0  0
 77146  1  0  0  0
 78 79  1  0  0  0
 78147  1  0  0  0
 79 81  1  0  0  0
 79 83  2  0  0  0
 80148  1  0  0  0
 80149  1  0  0  0
 80150  1  0  0  0
 81151  1  0  0  0
 81152  1  0  0  0
 82153  1  0  0  0
M  ISO  4   1 100  68 101  81 101  82 100
M  END
> <chiral flag>
0

> <version>
0

> <s_m_source_file>
/data/baiqing/PycharmProjects/Reinvent-master-3.2/result/LINK_invent/BTK/process_docking_weight1_custom_product_contain_oxygen_bond_distance_aromatic_linkinvent_7_9_3/rearranged_h_0123.sdf

> <i_m_source_file_index>
33

> <r_mmod_Potential_Energy-OPLS-2005>
250.367172241211

> <r_mmod_Stretch_Energy-OPLS-2005>
137.221298217773

> <r_mmod_Bend_Energy-OPLS-2005>
173.36979675293

> <r_mmod_Torsional_Energy-OPLS-2005>
263.615051269531

> <r_mmod_Improper_Torsional_Energy-OPLS-2005>
9.32117462158203

> <r_mmod_Van_der_Waal_Energy-OPLS-2005>
143.236557006836

> <r_mmod_Electrostatic_Energy-OPLS-2005>
-337.172485351562

> <r_mmod_Solvation_Energy-OPLS-2005>
-231.553894042969

> <b_mmod_Minimization_Converged-OPLS-2005>
0

> <r_mmod_RMS_Derivative-OPLS-2005>
8.95625877380371

$$$$
33
                    3D
 Structure written by MMmdl.
155163  0  0  1  0            999 V2000
  -30.6160  -14.6154   20.5407 C   0  0  0  0  0  0
  -30.4452  -12.3905   19.4483 C   0  0  0  0  0  0
  -29.5134  -12.5225   18.2219 C   0  0  0  0  0  0
  -28.0359  -12.3512   18.6279 C   0  0  0  0  0  0
  -27.6559  -13.2097   19.8664 C   0  0  2  0  0  0
  -28.6965  -13.0372   20.9943 C   0  0  0  0  0  0
  -25.2562  -13.8127   20.5699 C   0  0  0  0  0  0
  -24.1816  -13.0421   20.9178 C   0  0  0  0  0  0
  -24.6373  -11.6886   20.8728 C   0  0  0  0  0  0
  -23.9066  -10.4285   21.0425 C   0  0  0  0  0  0
  -24.3620   -9.4200   21.9200 C   0  0  0  0  0  0
  -23.6285   -8.2236   22.0753 C   0  0  0  0  0  0
  -22.4267   -8.0286   21.3541 C   0  0  0  0  0  0
  -21.9913   -9.0272   20.4644 C   0  0  0  0  0  0
  -22.7243  -10.2146   20.3065 C   0  0  0  0  0  0
  -21.6839   -6.0742   22.5282 C   0  0  0  0  0  0
  -21.4005   -6.5644   23.8217 C   0  0  0  0  0  0
  -21.3662   -5.6792   24.9173 C   0  0  0  0  0  0
  -21.6057   -4.3053   24.7223 C   0  0  0  0  0  0
  -21.8824   -3.8150   23.4341 C   0  0  0  0  0  0
  -21.9190   -4.6976   22.3398 C   0  0  0  0  0  0
  -22.7840  -13.5233   21.1858 C   0  0  0  0  0  0
  -22.1662   -4.2167   21.0973 F   0  0  0  0  0  0
  -21.5638   -3.4532   25.7733 F   0  0  0  0  0  0
  -30.0162  -13.3900   20.4426 N   0  0  0  0  0  0
  -26.2988  -12.9305   20.3297 N   0  0  0  0  0  0
  -25.9287  -11.6476   20.5715 N   0  0  0  0  0  0
  -22.0464  -12.8240   22.0406 N   0  0  0  0  0  0
  -25.4276  -15.1858   20.4229 N   0  0  0  0  0  0
  -31.7713  -14.8081   20.1459 O   0  0  0  0  0  0
  -21.6618   -6.8889   21.4244 O   0  0  0  0  0  0
  -22.3541  -14.5558   20.6728 O   0  0  0  0  0  0
  -24.6247  -31.8626   23.2045 C   0  0  0  0  0  0
  -25.9115  -32.4791   23.8362 C   0  0  1  0  0  0
  -27.2251  -27.3397   20.1056 C   0  0  0  0  0  0
  -25.5922  -33.8591   24.2296 N   0  0  0  0  0  0
  -23.4154  -30.4874   21.5480 C   0  0  2  0  0  0
  -24.8635  -28.9496   20.1075 C   0  0  0  0  0  0
  -22.7472  -29.4625   22.4941 C   0  0  0  0  0  0
  -18.0284  -28.1361   22.8501 C   0  0  0  0  0  0
  -24.1487  -36.7296   23.2635 C   0  0  0  0  0  0
  -25.9559  -30.7978   21.3747 C   0  0  0  0  0  0
  -26.0304  -29.4277   20.7159 C   0  0  0  0  0  0
  -27.2139  -28.6335   20.7064 C   0  0  0  0  0  0
  -26.0353  -26.9163   19.4648 C   0  0  0  0  0  0
  -24.8686  -27.6999   19.4714 C   0  0  0  0  0  0
  -23.6292  -29.8243   20.1619 C   0  0  0  0  0  0
  -25.4111  -36.3089   24.0335 C   0  0  1  0  0  0
  -20.5885  -28.3665   23.1295 C   0  0  2  0  0  0
  -20.6780  -26.9393   22.5416 C   0  0  0  0  0  0
  -19.5744  -26.6358   21.5225 C   0  0  0  0  0  0
  -18.1923  -26.7909   22.1636 C   0  0  0  0  0  0
  -19.1537  -28.8837   23.2885 C   0  0  0  0  0  0
  -18.9444  -30.1443   23.8901 C   0  0  0  0  0  0
  -17.6439  -30.6575   24.0558 C   0  0  0  0  0  0
  -25.9051  -34.9456   23.5114 C   0  0  0  0  0  0
  -16.5339  -29.9063   23.6317 C   0  0  0  0  0  0
  -16.7275  -28.6481   23.0359 C   0  0  0  0  0  0
  -26.4494  -31.6583   25.0718 C   0  0  0  0  0  0
  -25.3728  -31.3725   26.1435 C   0  0  0  0  0  0
  -27.0320  -30.3015   24.6145 C   0  0  0  0  0  0
  -27.6059  -32.4306   25.7483 C   0  0  0  0  0  0
  -27.5577  -37.1801   24.8467 C   0  0  0  0  0  0
  -21.4195  -29.3022   22.3709 N   0  0  0  0  0  0
  -26.4294  -37.3784   23.9405 N   0  0  0  0  0  0
  -24.6835  -31.0656   22.0991 N   0  0  0  0  0  0
  -23.4225  -28.8161   23.3004 O   0  0  0  0  0  0
  -28.3452  -26.4990   20.1668 O   0  0  0  0  0  0
  -26.5615  -34.8927   22.4680 O   0  0  0  0  0  0
  -23.5415  -32.1397   23.7389 O   0  0  0  0  0  0
  -30.5351  -19.2154   21.9443 C   0  0  0  0  0  0
  -30.5699  -17.7937   21.9004 C   0  0  0  0  0  0
  -29.2004  -19.2747   19.9419 C   0  0  0  0  0  0
  -29.8638  -19.9949   20.9661 C   0  0  0  0  0  0
  -29.2164  -17.8443   19.8976 C   0  0  0  0  0  0
  -29.9199  -17.0731   20.8710 C   0  0  0  0  0  0
  -29.1791  -24.0619   20.4641 C   0  0  0  0  0  0
  -28.4465  -17.1447   18.7925 C   0  0  0  0  0  0
  -29.9386  -21.5598   21.0664 C   0  0  0  0  0  0
  -28.9905  -22.5122   20.2315 C   0  0  0  0  0  0
  -28.1281  -25.0669   19.8751 C   0  0  0  0  0  0
  -29.7895  -15.6270   20.9409 N   0  0  0  0  0  0
  -30.1476  -24.4827   21.1056 O   0  0  0  0  0  0
  -31.4860  -12.5290   19.1494 H   0  0  0  0  0  0
  -30.3876  -11.3897   19.8788 H   0  0  0  0  0  0
  -29.7812  -11.7895   17.4600 H   0  0  0  0  0  0
  -29.6546  -13.5047   17.7645 H   0  0  0  0  0  0
  -27.8722  -11.2950   18.8465 H   0  0  0  0  0  0
  -27.3861  -12.5919   17.7849 H   0  0  0  0  0  0
  -27.6793  -14.2494   19.5436 H   0  0  0  0  0  0
  -28.7016  -12.0088   21.3569 H   0  0  0  0  0  0
  -28.4351  -13.6471   21.8589 H   0  0  0  0  0  0
  -25.2788   -9.5662   22.4742 H   0  0  0  0  0  0
  -24.0009   -7.4625   22.7458 H   0  0  0  0  0  0
  -21.0843   -8.8808   19.8932 H   0  0  0  0  0  0
  -22.3737  -10.9693   19.6157 H   0  0  0  0  0  0
  -21.1981   -7.6146   23.9733 H   0  0  0  0  0  0
  -21.1474   -6.0503   25.9082 H   0  0  0  0  0  0
  -22.0592   -2.7610   23.2826 H   0  0  0  0  0  0
  -22.4082  -11.9904   22.4805 H   0  0  0  0  0  0
  -21.1082  -13.1276   22.2615 H   0  0  0  0  0  0
  -24.6668  -15.8416   20.5622 H   0  0  0  0  0  0
  -26.2866  -15.6310   20.1329 H   0  0  0  0  0  0
  -26.7183  -32.5465   23.1103 H   0  0  0  0  0  0
  -25.0062  -33.9741   25.0439 H   0  0  0  0  0  0
  -22.7064  -31.3058   21.4088 H   0  0  0  0  0  0
  -23.3744  -35.9636   23.3316 H   0  0  0  0  0  0
  -24.3563  -36.8905   22.2042 H   0  0  0  0  0  0
  -23.7251  -37.6513   23.6644 H   0  0  0  0  0  0
  -26.0842  -31.5630   20.6077 H   0  0  0  0  0  0
  -26.8369  -30.8470   22.0030 H   0  0  0  0  0  0
  -28.1068  -28.9964   21.1943 H   0  0  0  0  0  0
  -25.9751  -25.9701   18.9491 H   0  0  0  0  0  0
  -23.9784  -27.3372   18.9768 H   0  0  0  0  0  0
  -23.7453  -30.5986   19.4043 H   0  0  0  0  0  0
  -22.7495  -29.2519   19.8596 H   0  0  0  0  0  0
  -25.1284  -36.1941   25.0830 H   0  0  0  0  0  0
  -20.9964  -28.3215   24.1420 H   0  0  0  0  0  0
  -20.5681  -26.2264   23.3603 H   0  0  0  0  0  0
  -21.6647  -26.7435   22.1194 H   0  0  0  0  0  0
  -19.6898  -25.6263   21.1245 H   0  0  0  0  0  0
  -19.6659  -27.3179   20.6753 H   0  0  0  0  0  0
  -17.4200  -26.6692   21.4026 H   0  0  0  0  0  0
  -18.0300  -26.0043   22.9012 H   0  0  0  0  0  0
  -19.7928  -30.7268   24.2272 H   0  0  0  0  0  0
  -17.4992  -31.6261   24.5149 H   0  0  0  0  0  0
  -15.5343  -30.2965   23.7635 H   0  0  0  0  0  0
  -15.8679  -28.0801   22.7076 H   0  0  0  0  0  0
  -24.5906  -30.7074   25.7762 H   0  0  0  0  0  0
  -24.8899  -32.2888   26.4840 H   0  0  0  0  0  0
  -25.8036  -30.8912   27.0223 H   0  0  0  0  0  0
  -26.2886  -29.6788   24.1153 H   0  0  0  0  0  0
  -27.4017  -29.7245   25.4630 H   0  0  0  0  0  0
  -27.8763  -30.4312   23.9372 H   0  0  0  0  0  0
  -27.2681  -33.3613   26.2061 H   0  0  0  0  0  0
  -28.3864  -32.6856   25.0299 H   0  0  0  0  0  0
  -28.0731  -31.8422   26.5395 H   0  0  0  0  0  0
  -28.2598  -38.0087   24.7482 H   0  0  0  0  0  0
  -28.1062  -36.2613   24.6320 H   0  0  0  0  0  0
  -27.2287  -37.1489   25.8870 H   0  0  0  0  0  0
  -20.9378  -29.8759   21.6933 H   0  0  0  0  0  0
  -26.0178  -38.2872   24.1382 H   0  0  0  0  0  0
  -31.0360  -19.7151   22.7610 H   0  0  0  0  0  0
  -31.0725  -17.2626   22.6972 H   0  0  0  0  0  0
  -28.6580  -19.8215   19.1809 H   0  0  0  0  0  0
  -27.5128  -16.7440   19.1824 H   0  0  0  0  0  0
  -29.0264  -16.3213   18.3723 H   0  0  0  0  0  0
  -28.2029  -17.8288   17.9795 H   0  0  0  0  0  0
  -30.9697  -21.8230   20.8276 H   0  0  0  0  0  0
  -29.8171  -21.8180   22.1207 H   0  0  0  0  0  0
  -29.1379  -22.3202   19.1681 H   0  0  0  0  0  0
  -27.9500  -22.2688   20.4465 H   0  0  0  0  0  0
  -27.1666  -24.7544   20.2783 H   0  0  0  0  0  0
  -28.0837  -24.9315   18.7942 H   0  0  0  0  0  0
  -28.8644  -15.3027   21.1769 H   0  0  0  0  0  0
  1 25  1  0  0  0
  1 30  2  0  0  0
  1 82  1  0  0  0
  2  3  1  0  0  0
  2 25  1  0  0  0
  2 84  1  0  0  0
  2 85  1  0  0  0
  3  4  1  0  0  0
  3 86  1  0  0  0
  3 87  1  0  0  0
  4  5  1  0  0  0
  4 88  1  0  0  0
  4 89  1  0  0  0
  5  6  1  0  0  0
  5 26  1  0  0  0
  5 90  1  0  0  0
  6 25  1  0  0  0
  6 91  1  0  0  0
  6 92  1  0  0  0
  7  8  2  0  0  0
  7 26  1  0  0  0
  7 29  1  0  0  0
  8  9  1  0  0  0
  8 22  1  0  0  0
  9 10  1  0  0  0
  9 27  2  0  0  0
 10 11  2  0  0  0
 10 15  1  0  0  0
 11 12  1  0  0  0
 11 93  1  0  0  0
 12 13  2  0  0  0
 12 94  1  0  0  0
 13 14  1  0  0  0
 13 31  1  0  0  0
 14 15  2  0  0  0
 14 95  1  0  0  0
 15 96  1  0  0  0
 16 17  2  0  0  0
 16 21  1  0  0  0
 16 31  1  0  0  0
 17 18  1  0  0  0
 17 97  1  0  0  0
 18 19  2  0  0  0
 18 98  1  0  0  0
 19 20  1  0  0  0
 19 24  1  0  0  0
 20 21  2  0  0  0
 20 99  1  0  0  0
 21 23  1  0  0  0
 22 28  1  0  0  0
 22 32  2  0  0  0
 26 27  1  0  0  0
 28100  1  0  0  0
 28101  1  0  0  0
 29102  1  0  0  0
 29103  1  0  0  0
 33 34  1  0  0  0
 33 66  1  0  0  0
 33 70  2  0  0  0
 34 36  1  0  0  0
 34 59  1  0  0  0
 34104  1  0  0  0
 35 44  2  0  0  0
 35 45  1  0  0  0
 35 68  1  0  0  0
 36 56  1  0  0  0
 36105  1  0  0  0
 37 39  1  0  0  0
 37 47  1  0  0  0
 37 66  1  0  0  0
 37106  1  0  0  0
 38 43  2  0  0  0
 38 46  1  0  0  0
 38 47  1  0  0  0
 39 64  1  0  0  0
 39 67  2  0  0  0
 40 52  1  0  0  0
 40 53  2  0  0  0
 40 58  1  0  0  0
 41107  1  0  0  0
 41108  1  0  0  0
 41109  1  0  0  0
 41 48  1  0  0  0
 42 43  1  0  0  0
 42 66  1  0  0  0
 42110  1  0  0  0
 42111  1  0  0  0
 43 44  1  0  0  0
 44112  1  0  0  0
 45 46  2  0  0  0
 45113  1  0  0  0
 46114  1  0  0  0
 47115  1  0  0  0
 47116  1  0  0  0
 48 56  1  0  0  0
 48 65  1  0  0  0
 48117  1  0  0  0
 49 50  1  0  0  0
 49 53  1  0  0  0
 49 64  1  0  0  0
 49118  1  0  0  0
 50 51  1  0  0  0
 50119  1  0  0  0
 50120  1  0  0  0
 51 52  1  0  0  0
 51121  1  0  0  0
 51122  1  0  0  0
 52123  1  0  0  0
 52124  1  0  0  0
 53 54  1  0  0  0
 54 55  2  0  0  0
 54125  1  0  0  0
 55 57  1  0  0  0
 55126  1  0  0  0
 56 69  2  0  0  0
 57 58  2  0  0  0
 57127  1  0  0  0
 58128  1  0  0  0
 59 60  1  0  0  0
 59 61  1  0  0  0
 59 62  1  0  0  0
 60129  1  0  0  0
 60130  1  0  0  0
 60131  1  0  0  0
 61132  1  0  0  0
 61133  1  0  0  0
 61134  1  0  0  0
 62135  1  0  0  0
 62136  1  0  0  0
 62137  1  0  0  0
 63 65  1  0  0  0
 63138  1  0  0  0
 63139  1  0  0  0
 63140  1  0  0  0
 64141  1  0  0  0
 65142  1  0  0  0
 68 81  1  0  0  0
 71 72  2  0  0  0
 71 74  1  0  0  0
 71143  1  0  0  0
 72 76  1  0  0  0
 72144  1  0  0  0
 73 74  2  0  0  0
 73 75  1  0  0  0
 73145  1  0  0  0
 74 79  1  0  0  0
 75 76  2  0  0  0
 75 78  1  0  0  0
 76 82  1  0  0  0
 77 80  1  0  0  0
 77 81  1  0  0  0
 77 83  2  0  0  0
 78146  1  0  0  0
 78147  1  0  0  0
 78148  1  0  0  0
 79 80  1  0  0  0
 79149  1  0  0  0
 79150  1  0  0  0
 80151  1  0  0  0
 80152  1  0  0  0
 81153  1  0  0  0
 81154  1  0  0  0
 82155  1  0  0  0
M  ISO  4   1 100  68 101  81 101  82 100
M  END
> <chiral flag>
0

> <version>
0

> <s_m_source_file>
/data/baiqing/PycharmProjects/Reinvent-master-3.2/result/LINK_invent/BTK/process_docking_weight1_custom_product_contain_oxygen_bond_distance_aromatic_linkinvent_7_9_3/rearranged_h_0123.sdf

> <i_m_source_file_index>
34

> <r_mmod_Potential_Energy-OPLS-2005>
5.09258222579956

> <r_mmod_Stretch_Energy-OPLS-2005>
69.1561126708984

> <r_mmod_Bend_Energy-OPLS-2005>
123.811363220215

> <r_mmod_Torsional_Energy-OPLS-2005>
231.819473266602

> <r_mmod_Improper_Torsional_Energy-OPLS-2005>
5.21960735321045

> <r_mmod_Van_der_Waal_Energy-OPLS-2005>
141.070083618164

> <r_mmod_Electrostatic_Energy-OPLS-2005>
-375.772277832031

> <r_mmod_Solvation_Energy-OPLS-2005>
-232.144317626953

> <b_mmod_Minimization_Converged-OPLS-2005>
0

> <r_mmod_RMS_Derivative-OPLS-2005>
3.12793660163879

$$$$
34
                    3D
 Structure written by MMmdl.
157165  0  0  1  0            999 V2000
  -30.6925  -14.4449   20.5764 C   0  0  0  0  0  0
  -30.4304  -12.2892   19.4188 C   0  0  0  0  0  0
  -29.5000  -12.5070   18.2073 C   0  0  0  0  0  0
  -28.0184  -12.3714   18.6151 C   0  0  0  0  0  0
  -27.6657  -13.1958   19.8820 C   0  0  2  0  0  0
  -28.7060  -12.9546   20.9998 C   0  0  0  0  0  0
  -25.2605  -13.8122   20.5682 C   0  0  0  0  0  0
  -24.1838  -13.0422   20.9171 C   0  0  0  0  0  0
  -24.6370  -11.6888   20.8703 C   0  0  0  0  0  0
  -23.9024  -10.4288   21.0388 C   0  0  0  0  0  0
  -24.3581   -9.4218   21.9178 C   0  0  0  0  0  0
  -23.6270   -8.2244   22.0755 C   0  0  0  0  0  0
  -22.4255   -8.0264   21.3541 C   0  0  0  0  0  0
  -21.9878   -9.0234   20.4645 C   0  0  0  0  0  0
  -22.7191  -10.2123   20.3054 C   0  0  0  0  0  0
  -21.6856   -6.0718   22.5276 C   0  0  0  0  0  0
  -21.4013   -6.5628   23.8204 C   0  0  0  0  0  0
  -21.3658   -5.6787   24.9172 C   0  0  0  0  0  0
  -21.6051   -4.3049   24.7234 C   0  0  0  0  0  0
  -21.8816   -3.8134   23.4355 C   0  0  0  0  0  0
  -21.9190   -4.6944   22.3407 C   0  0  0  0  0  0
  -22.7866  -13.5241   21.1834 C   0  0  0  0  0  0
  -22.1664   -4.2126   21.0985 F   0  0  0  0  0  0
  -21.5630   -3.4538   25.7748 F   0  0  0  0  0  0
  -30.0433  -13.2563   20.4564 N   0  0  0  0  0  0
  -26.3035  -12.9277   20.3376 N   0  0  0  0  0  0
  -25.9300  -11.6448   20.5750 N   0  0  0  0  0  0
  -22.0494  -12.8248   22.0391 N   0  0  0  0  0  0
  -25.4337  -15.1841   20.4117 N   0  0  0  0  0  0
  -31.8069  -14.6660   20.0921 O   0  0  0  0  0  0
  -21.6634   -6.8857   21.4237 O   0  0  0  0  0  0
  -22.3567  -14.5555   20.6689 O   0  0  0  0  0  0
  -24.6101  -31.8702   23.2142 C   0  0  0  0  0  0
  -25.9016  -32.4830   23.8410 C   0  0  1  0  0  0
  -27.2328  -27.4683   20.0940 C   0  0  0  0  0  0
  -25.5896  -33.8636   24.2334 N   0  0  0  0  0  0
  -23.3962  -30.4926   21.5527 C   0  0  2  0  0  0
  -24.8450  -28.9628   20.1142 C   0  0  0  0  0  0
  -22.7394  -29.4659   22.5022 C   0  0  0  0  0  0
  -18.0266  -28.1382   22.8487 C   0  0  0  0  0  0
  -24.1482  -36.7324   23.2635 C   0  0  0  0  0  0
  -25.9209  -30.8452   21.3624 C   0  0  0  0  0  0
  -26.0008  -29.4803   20.7133 C   0  0  0  0  0  0
  -27.1991  -28.7361   20.7079 C   0  0  0  0  0  0
  -26.0672  -26.9493   19.4984 C   0  0  0  0  0  0
  -24.8701  -27.6932   19.5059 C   0  0  0  0  0  0
  -23.6030  -29.8241   20.1661 C   0  0  0  0  0  0
  -25.4101  -36.3117   24.0334 C   0  0  1  0  0  0
  -20.5853  -28.3654   23.1340 C   0  0  2  0  0  0
  -20.6767  -26.9404   22.5421 C   0  0  0  0  0  0
  -19.5739  -26.6397   21.5214 C   0  0  0  0  0  0
  -18.1912  -26.7931   22.1622 C   0  0  0  0  0  0
  -19.1519  -28.8836   23.2906 C   0  0  0  0  0  0
  -18.9446  -30.1445   23.8915 C   0  0  0  0  0  0
  -17.6454  -30.6592   24.0570 C   0  0  0  0  0  0
  -25.9035  -34.9478   23.5130 C   0  0  0  0  0  0
  -16.5341  -29.9098   23.6328 C   0  0  0  0  0  0
  -16.7259  -28.6511   23.0344 C   0  0  0  0  0  0
  -26.4466  -31.6609   25.0723 C   0  0  0  0  0  0
  -25.3736  -31.3717   26.1474 C   0  0  0  0  0  0
  -27.0307  -30.3056   24.6088 C   0  0  0  0  0  0
  -27.6049  -32.4320   25.7482 C   0  0  0  0  0  0
  -27.5574  -37.1810   24.8462 C   0  0  0  0  0  0
  -21.4126  -29.3029   22.3753 N   0  0  0  0  0  0
  -26.4285  -37.3799   23.9411 N   0  0  0  0  0  0
  -24.6604  -31.0811   22.1026 N   0  0  0  0  0  0
  -23.4175  -28.8203   23.3056 O   0  0  0  0  0  0
  -28.3873  -26.7305   20.0600 O   0  0  0  0  0  0
  -26.5591  -34.8919   22.4684 O   0  0  0  0  0  0
  -23.5299  -32.1450   23.7551 O   0  0  0  0  0  0
  -30.6485  -17.7792   21.3253 C   0  0  0  0  0  0
  -29.6918  -19.4195   19.8031 C   0  0  0  0  0  0
  -29.0682  -17.0706   19.6113 C   0  0  0  0  0  0
  -30.5366  -19.1299   20.9002 C   0  0  0  0  0  0
  -29.9217  -16.7504   20.6889 C   0  0  0  0  0  0
  -28.9655  -18.3998   19.1645 C   0  0  0  0  0  0
  -30.8321  -21.6060   21.7957 C   0  0  0  0  0  0
  -29.5984  -22.1067   21.5818 C   0  0  0  0  0  0
  -31.2934  -20.2042   21.6075 C   0  0  0  0  0  0
  -29.2062  -23.5342   21.9270 C   0  0  0  0  0  0
  -28.9247  -24.4480   20.7219 C   0  0  0  0  0  0
  -28.5432  -25.8664   21.1812 C   0  0  0  0  0  0
  -32.4290  -19.9378   22.0966 N   0  0  0  0  0  0
  -29.9788  -15.4145   21.1691 N   0  0  0  0  0  0
  -28.1573  -18.6990   18.1197 F   0  0  0  0  0  0
  -31.4738  -12.3946   19.1158 H   0  0  0  0  0  0
  -30.3345  -11.2714   19.8007 H   0  0  0  0  0  0
  -29.7364  -11.7901   17.4204 H   0  0  0  0  0  0
  -29.6754  -13.4970   17.7822 H   0  0  0  0  0  0
  -27.8232  -11.3146   18.7989 H   0  0  0  0  0  0
  -27.3710  -12.6627   17.7877 H   0  0  0  0  0  0
  -27.7145  -14.2455   19.6008 H   0  0  0  0  0  0
  -28.6738  -11.9144   21.3258 H   0  0  0  0  0  0
  -28.4668  -13.5391   21.8887 H   0  0  0  0  0  0
  -25.2730   -9.5706   22.4759 H   0  0  0  0  0  0
  -23.9979   -7.4647   22.7485 H   0  0  0  0  0  0
  -21.0805   -8.8738   19.8968 H   0  0  0  0  0  0
  -22.3624  -10.9655   19.6164 H   0  0  0  0  0  0
  -21.2001   -7.6136   23.9698 H   0  0  0  0  0  0
  -21.1490   -6.0524   25.9069 H   0  0  0  0  0  0
  -22.0595   -2.7598   23.2866 H   0  0  0  0  0  0
  -22.4077  -11.9889   22.4786 H   0  0  0  0  0  0
  -21.1121  -13.1308   22.2598 H   0  0  0  0  0  0
  -24.6682  -15.8394   20.5267 H   0  0  0  0  0  0
  -26.2880  -15.6290   20.1056 H   0  0  0  0  0  0
  -26.7085  -32.5567   23.1179 H   0  0  0  0  0  0
  -25.0053  -33.9819   25.0482 H   0  0  0  0  0  0
  -22.6818  -31.3060   21.4163 H   0  0  0  0  0  0
  -23.3738  -35.9669   23.3306 H   0  0  0  0  0  0
  -24.3560  -36.8933   22.2046 H   0  0  0  0  0  0
  -23.7248  -37.6535   23.6649 H   0  0  0  0  0  0
  -26.0239  -31.6116   20.5935 H   0  0  0  0  0  0
  -26.8128  -30.9052   21.9736 H   0  0  0  0  0  0
  -28.0938  -29.1301   21.1697 H   0  0  0  0  0  0
  -26.0879  -25.9741   19.0333 H   0  0  0  0  0  0
  -23.9806  -27.2879   19.0449 H   0  0  0  0  0  0
  -23.7047  -30.6016   19.4080 H   0  0  0  0  0  0
  -22.7287  -29.2385   19.8744 H   0  0  0  0  0  0
  -25.1279  -36.1976   25.0829 H   0  0  0  0  0  0
  -20.9926  -28.3217   24.1468 H   0  0  0  0  0  0
  -20.5695  -26.2258   23.3592 H   0  0  0  0  0  0
  -21.6634  -26.7481   22.1194 H   0  0  0  0  0  0
  -19.6908  -25.6312   21.1222 H   0  0  0  0  0  0
  -19.6686  -27.3230   20.6750 H   0  0  0  0  0  0
  -17.4192  -26.6673   21.4020 H   0  0  0  0  0  0
  -18.0319  -26.0082   22.9021 H   0  0  0  0  0  0
  -19.7927  -30.7248   24.2295 H   0  0  0  0  0  0
  -17.5014  -31.6275   24.5166 H   0  0  0  0  0  0
  -15.5344  -30.3006   23.7651 H   0  0  0  0  0  0
  -15.8649  -28.0841   22.7053 H   0  0  0  0  0  0
  -24.5892  -30.7092   25.7787 H   0  0  0  0  0  0
  -24.8952  -32.2892   26.4925 H   0  0  0  0  0  0
  -25.8076  -30.8858   27.0228 H   0  0  0  0  0  0
  -26.2865  -29.6799   24.1146 H   0  0  0  0  0  0
  -27.4105  -29.7294   25.4540 H   0  0  0  0  0  0
  -27.8681  -30.4378   23.9225 H   0  0  0  0  0  0
  -27.2683  -33.3603   26.2111 H   0  0  0  0  0  0
  -28.3842  -32.6909   25.0299 H   0  0  0  0  0  0
  -28.0754  -31.8417   26.5357 H   0  0  0  0  0  0
  -28.2603  -38.0094   24.7506 H   0  0  0  0  0  0
  -28.1059  -36.2630   24.6297 H   0  0  0  0  0  0
  -27.2294  -37.1479   25.8864 H   0  0  0  0  0  0
  -20.9271  -29.8730   21.6971 H   0  0  0  0  0  0
  -26.0172  -38.2878   24.1416 H   0  0  0  0  0  0
  -31.2758  -17.5269   22.1696 H   0  0  0  0  0  0
  -29.6046  -20.4259   19.4220 H   0  0  0  0  0  0
  -28.4903  -16.3070   19.1129 H   0  0  0  0  0  0
  -31.5928  -22.2696   22.1853 H   0  0  0  0  0  0
  -28.8053  -21.4926   21.1855 H   0  0  0  0  0  0
  -29.9952  -23.9798   22.5364 H   0  0  0  0  0  0
  -28.3215  -23.4878   22.5639 H   0  0  0  0  0  0
  -28.1231  -24.0313   20.1097 H   0  0  0  0  0  0
  -29.8107  -24.5011   20.0868 H   0  0  0  0  0  0
  -27.6409  -25.8229   21.7971 H   0  0  0  0  0  0
  -29.3294  -26.2800   21.8167 H   0  0  0  0  0  0
  -32.6878  -18.9727   21.9224 H   0  0  0  0  0  0
  -29.1292  -15.0712   21.5922 H   0  0  0  0  0  0
  1 25  1  0  0  0
  1 30  2  0  0  0
  1 84  1  0  0  0
  2  3  1  0  0  0
  2 25  1  0  0  0
  2 86  1  0  0  0
  2 87  1  0  0  0
  3  4  1  0  0  0
  3 88  1  0  0  0
  3 89  1  0  0  0
  4  5  1  0  0  0
  4 90  1  0  0  0
  4 91  1  0  0  0
  5  6  1  0  0  0
  5 26  1  0  0  0
  5 92  1  0  0  0
  6 25  1  0  0  0
  6 93  1  0  0  0
  6 94  1  0  0  0
  7  8  2  0  0  0
  7 26  1  0  0  0
  7 29  1  0  0  0
  8  9  1  0  0  0
  8 22  1  0  0  0
  9 10  1  0  0  0
  9 27  2  0  0  0
 10 11  2  0  0  0
 10 15  1  0  0  0
 11 12  1  0  0  0
 11 95  1  0  0  0
 12 13  2  0  0  0
 12 96  1  0  0  0
 13 14  1  0  0  0
 13 31  1  0  0  0
 14 15  2  0  0  0
 14 97  1  0  0  0
 15 98  1  0  0  0
 16 17  2  0  0  0
 16 21  1  0  0  0
 16 31  1  0  0  0
 17 18  1  0  0  0
 17 99  1  0  0  0
 18 19  2  0  0  0
 18100  1  0  0  0
 19 20  1  0  0  0
 19 24  1  0  0  0
 20 21  2  0  0  0
 20101  1  0  0  0
 21 23  1  0  0  0
 22 28  1  0  0  0
 22 32  2  0  0  0
 26 27  1  0  0  0
 28102  1  0  0  0
 28103  1  0  0  0
 29104  1  0  0  0
 29105  1  0  0  0
 33 34  1  0  0  0
 33 66  1  0  0  0
 33 70  2  0  0  0
 34 36  1  0  0  0
 34 59  1  0  0  0
 34106  1  0  0  0
 35 44  2  0  0  0
 35 45  1  0  0  0
 35 68  1  0  0  0
 36 56  1  0  0  0
 36107  1  0  0  0
 37 39  1  0  0  0
 37 47  1  0  0  0
 37 66  1  0  0  0
 37108  1  0  0  0
 38 43  2  0  0  0
 38 46  1  0  0  0
 38 47  1  0  0  0
 39 64  1  0  0  0
 39 67  2  0  0  0
 40 52  1  0  0  0
 40 53  2  0  0  0
 40 58  1  0  0  0
 41109  1  0  0  0
 41110  1  0  0  0
 41111  1  0  0  0
 41 48  1  0  0  0
 42 43  1  0  0  0
 42 66  1  0  0  0
 42112  1  0  0  0
 42113  1  0  0  0
 43 44  1  0  0  0
 44114  1  0  0  0
 45 46  2  0  0  0
 45115  1  0  0  0
 46116  1  0  0  0
 47117  1  0  0  0
 47118  1  0  0  0
 48 56  1  0  0  0
 48 65  1  0  0  0
 48119  1  0  0  0
 49 50  1  0  0  0
 49 53  1  0  0  0
 49 64  1  0  0  0
 49120  1  0  0  0
 50 51  1  0  0  0
 50121  1  0  0  0
 50122  1  0  0  0
 51 52  1  0  0  0
 51123  1  0  0  0
 51124  1  0  0  0
 52125  1  0  0  0
 52126  1  0  0  0
 53 54  1  0  0  0
 54 55  2  0  0  0
 54127  1  0  0  0
 55 57  1  0  0  0
 55128  1  0  0  0
 56 69  2  0  0  0
 57 58  2  0  0  0
 57129  1  0  0  0
 58130  1  0  0  0
 59 60  1  0  0  0
 59 61  1  0  0  0
 59 62  1  0  0  0
 60131  1  0  0  0
 60132  1  0  0  0
 60133  1  0  0  0
 61134  1  0  0  0
 61135  1  0  0  0
 61136  1  0  0  0
 62137  1  0  0  0
 62138  1  0  0  0
 62139  1  0  0  0
 63 65  1  0  0  0
 63140  1  0  0  0
 63141  1  0  0  0
 63142  1  0  0  0
 64143  1  0  0  0
 65144  1  0  0  0
 68 82  1  0  0  0
 71 74  2  0  0  0
 71 75  1  0  0  0
 71145  1  0  0  0
 72 74  1  0  0  0
 72 76  2  0  0  0
 72146  1  0  0  0
 73 75  2  0  0  0
 73 76  1  0  0  0
 73147  1  0  0  0
 74 79  1  0  0  0
 75 84  1  0  0  0
 76 85  1  0  0  0
 77 78  2  0  0  0
 77 79  1  0  0  0
 77148  1  0  0  0
 78 80  1  0  0  0
 78149  1  0  0  0
 79 83  2  0  0  0
 80 81  1  0  0  0
 80150  1  0  0  0
 80151  1  0  0  0
 81 82  1  0  0  0
 81152  1  0  0  0
 81153  1  0  0  0
 82154  1  0  0  0
 82155  1  0  0  0
 83156  1  0  0  0
 84157  1  0  0  0
M  ISO  4   1 100  68 101  82 101  84 100
M  END
> <chiral flag>
0

> <version>
0

> <s_m_source_file>
/data/baiqing/PycharmProjects/Reinvent-master-3.2/result/LINK_invent/BTK/process_docking_weight1_custom_product_contain_oxygen_bond_distance_aromatic_linkinvent_7_9_3/rearranged_h_0123.sdf

> <i_m_source_file_index>
35

> <r_mmod_Potential_Energy-OPLS-2005>
-30.8051357269287

> <r_mmod_Stretch_Energy-OPLS-2005>
33.4576721191406

> <r_mmod_Bend_Energy-OPLS-2005>
93.6234817504883

> <r_mmod_Torsional_Energy-OPLS-2005>
275.873199462891

> <r_mmod_Improper_Torsional_Energy-OPLS-2005>
5.96163463592529

> <r_mmod_Van_der_Waal_Energy-OPLS-2005>
150.667984008789

> <r_mmod_Electrostatic_Energy-OPLS-2005>
-384.186431884766

> <r_mmod_Solvation_Energy-OPLS-2005>
-215.266372680664

> <b_mmod_Minimization_Converged-OPLS-2005>
0

> <r_mmod_RMS_Derivative-OPLS-2005>
2.82669639587402

$$$$
35
                    3D
 Structure written by MMmdl.
165173  0  0  1  0            999 V2000
  -30.6727  -14.4500   20.6909 C   0  0  0  0  0  0
  -30.4288  -12.3219   19.4313 C   0  0  0  0  0  0
  -29.5058  -12.5532   18.2167 C   0  0  0  0  0  0
  -28.0256  -12.3618   18.6085 C   0  0  0  0  0  0
  -27.6495  -13.1934   19.8681 C   0  0  2  0  0  0
  -28.6694  -12.9027   20.9894 C   0  0  0  0  0  0
  -25.2432  -13.8131   20.5654 C   0  0  0  0  0  0
  -24.1706  -13.0425   20.9133 C   0  0  0  0  0  0
  -24.6216  -11.6870   20.8575 C   0  0  0  0  0  0
  -23.8908  -10.4280   21.0281 C   0  0  0  0  0  0
  -24.3505   -9.4217   21.9080 C   0  0  0  0  0  0
  -23.6215   -8.2225   22.0705 C   0  0  0  0  0  0
  -22.4206   -8.0219   21.3514 C   0  0  0  0  0  0
  -21.9788   -9.0149   20.4597 C   0  0  0  0  0  0
  -22.7063  -10.2049   20.2967 C   0  0  0  0  0  0
  -21.6841   -6.0657   22.5283 C   0  0  0  0  0  0
  -21.4004   -6.5583   23.8211 C   0  0  0  0  0  0
  -21.3696   -5.6756   24.9197 C   0  0  0  0  0  0
  -21.6075   -4.3020   24.7267 C   0  0  0  0  0  0
  -21.8804   -3.8082   23.4396 C   0  0  0  0  0  0
  -21.9179   -4.6881   22.3433 C   0  0  0  0  0  0
  -22.7753  -13.5223   21.1925 C   0  0  0  0  0  0
  -22.1630   -4.2061   21.1010 F   0  0  0  0  0  0
  -21.5661   -3.4518   25.7786 F   0  0  0  0  0  0
  -30.0213  -13.2582   20.4937 N   0  0  0  0  0  0
  -26.2861  -12.9273   20.3226 N   0  0  0  0  0  0
  -25.9129  -11.6443   20.5556 N   0  0  0  0  0  0
  -22.0419  -12.8175   22.0472 N   0  0  0  0  0  0
  -25.4171  -15.1876   20.4179 N   0  0  0  0  0  0
  -31.7301  -14.7222   20.1097 O   0  0  0  0  0  0
  -21.6626   -6.8784   21.4235 O   0  0  0  0  0  0
  -22.3414  -14.5587   20.6883 O   0  0  0  0  0  0
  -24.6145  -31.8666   23.2084 C   0  0  0  0  0  0
  -25.9025  -32.4803   23.8392 C   0  0  1  0  0  0
  -27.2379  -27.4295   20.0741 C   0  0  0  0  0  0
  -25.5880  -33.8608   24.2321 N   0  0  0  0  0  0
  -23.4059  -30.4894   21.5466 C   0  0  2  0  0  0
  -24.8540  -28.9604   20.1106 C   0  0  0  0  0  0
  -22.7421  -29.4631   22.4947 C   0  0  0  0  0  0
  -18.0266  -28.1360   22.8480 C   0  0  0  0  0  0
  -24.1492  -36.7321   23.2640 C   0  0  0  0  0  0
  -25.9361  -30.8257   21.3669 C   0  0  0  0  0  0
  -26.0114  -29.4578   20.7206 C   0  0  0  0  0  0
  -27.2009  -28.6907   20.7159 C   0  0  0  0  0  0
  -26.0568  -26.9510   19.4662 C   0  0  0  0  0  0
  -24.8711  -27.7044   19.4859 C   0  0  0  0  0  0
  -23.6184  -29.8272   20.1582 C   0  0  0  0  0  0
  -25.4101  -36.3105   24.0340 C   0  0  1  0  0  0
  -20.5864  -28.3646   23.1325 C   0  0  2  0  0  0
  -20.6754  -26.9380   22.5421 C   0  0  0  0  0  0
  -19.5734  -26.6383   21.5206 C   0  0  0  0  0  0
  -18.1920  -26.7906   22.1623 C   0  0  0  0  0  0
  -19.1524  -28.8820   23.2904 C   0  0  0  0  0  0
  -18.9442  -30.1425   23.8921 C   0  0  0  0  0  0
  -17.6451  -30.6567   24.0568 C   0  0  0  0  0  0
  -25.9033  -34.9465   23.5135 C   0  0  0  0  0  0
  -16.5340  -29.9081   23.6314 C   0  0  0  0  0  0
  -16.7260  -28.6500   23.0328 C   0  0  0  0  0  0
  -26.4460  -31.6578   25.0713 C   0  0  0  0  0  0
  -25.3731  -31.3682   26.1469 C   0  0  0  0  0  0
  -27.0278  -30.3020   24.6073 C   0  0  0  0  0  0
  -27.6055  -32.4277   25.7463 C   0  0  0  0  0  0
  -27.5577  -37.1809   24.8463 C   0  0  0  0  0  0
  -21.4148  -29.3024   22.3722 N   0  0  0  0  0  0
  -26.4289  -37.3782   23.9413 N   0  0  0  0  0  0
  -24.6698  -31.0765   22.0993 N   0  0  0  0  0  0
  -23.4192  -28.8169   23.2985 O   0  0  0  0  0  0
  -28.4022  -26.6849   20.0976 O   0  0  0  0  0  0
  -26.5607  -34.8917   22.4703 O   0  0  0  0  0  0
  -23.5329  -32.1430   23.7452 O   0  0  0  0  0  0
  -31.9701  -17.9835   21.0627 C   0  0  0  0  0  0
  -31.7800  -20.2645   20.2075 C   0  0  0  0  0  0
  -30.5783  -17.8150   20.9325 C   0  0  0  0  0  0
  -32.5692  -19.1982   20.6770 C   0  0  0  0  0  0
  -29.7908  -18.8633   20.3695 C   0  0  0  0  0  0
  -30.3755  -20.1348   20.0919 C   0  0  0  0  0  0
  -29.9347  -16.7038   21.6580 C   0  0  0  0  0  0
  -29.9860  -15.3524   21.6240 C   0  0  0  0  0  0
  -29.7544  -22.5800   19.8101 C   0  0  0  0  0  0
  -34.0616  -19.3966   20.8173 C   0  0  0  0  0  0
  -27.3225  -19.0786   21.0801 C   0  0  0  0  0  0
  -28.3236  -18.5992   20.0256 C   0  0  0  0  0  0
  -28.5278  -23.5071   19.9389 C   0  0  0  0  0  0
  -28.3034  -24.4861   18.7580 C   0  0  0  0  0  0
  -28.7997  -25.9486   18.9267 C   0  0  0  0  0  0
  -29.5229  -21.2455   19.7532 N   0  0  0  0  0  0
  -30.8725  -23.0931   19.7375 O   0  0  0  0  0  0
  -31.4683  -12.4514   19.1261 H   0  0  0  0  0  0
  -30.3654  -11.2886   19.7864 H   0  0  0  0  0  0
  -29.7759  -11.8679   17.4159 H   0  0  0  0  0  0
  -29.6670  -13.5620   17.8264 H   0  0  0  0  0  0
  -27.8490  -11.3001   18.8079 H   0  0  0  0  0  0
  -27.3982  -12.6367   17.7600 H   0  0  0  0  0  0
  -27.7101  -14.2491   19.5958 H   0  0  0  0  0  0
  -28.6341  -11.8426   21.2432 H   0  0  0  0  0  0
  -28.3527  -13.3813   21.9102 H   0  0  0  0  0  0
  -25.2644   -9.5780   22.4627 H   0  0  0  0  0  0
  -23.9961   -7.4658   22.7452 H   0  0  0  0  0  0
  -21.0697   -8.8613   19.8915 H   0  0  0  0  0  0
  -22.3448  -10.9547   19.6076 H   0  0  0  0  0  0
  -21.1964   -7.6083   23.9702 H   0  0  0  0  0  0
  -21.1555   -6.0488   25.9107 H   0  0  0  0  0  0
  -22.0545   -2.7529   23.2944 H   0  0  0  0  0  0
  -22.4046  -11.9837   22.4866 H   0  0  0  0  0  0
  -21.1037  -13.1165   22.2752 H   0  0  0  0  0  0
  -24.6623  -15.8535   20.5576 H   0  0  0  0  0  0
  -26.2934  -15.6229   20.1706 H   0  0  0  0  0  0
  -26.7090  -32.5524   23.1155 H   0  0  0  0  0  0
  -24.9980  -33.9766   25.0437 H   0  0  0  0  0  0
  -22.6943  -31.3057   21.4033 H   0  0  0  0  0  0
  -23.3729  -35.9680   23.3300 H   0  0  0  0  0  0
  -24.3603  -36.8936   22.2058 H   0  0  0  0  0  0
  -23.7275  -37.6540   23.6652 H   0  0  0  0  0  0
  -26.0471  -31.5848   20.5913 H   0  0  0  0  0  0
  -26.8266  -30.8872   21.9817 H   0  0  0  0  0  0
  -28.0913  -29.0687   21.2003 H   0  0  0  0  0  0
  -26.0189  -25.9916   18.9843 H   0  0  0  0  0  0
  -23.9828  -27.3137   19.0094 H   0  0  0  0  0  0
  -23.7349  -30.6040   19.4021 H   0  0  0  0  0  0
  -22.7438  -29.2482   19.8547 H   0  0  0  0  0  0
  -25.1276  -36.1971   25.0832 H   0  0  0  0  0  0
  -20.9951  -28.3194   24.1449 H   0  0  0  0  0  0
  -20.5649  -26.2242   23.3590 H   0  0  0  0  0  0
  -21.6630  -26.7416   22.1225 H   0  0  0  0  0  0
  -19.6908  -25.6312   21.1194 H   0  0  0  0  0  0
  -19.6678  -27.3226   20.6760 H   0  0  0  0  0  0
  -17.4185  -26.6625   21.4034 H   0  0  0  0  0  0
  -18.0340  -26.0054   22.9033 H   0  0  0  0  0  0
  -19.7927  -30.7223   24.2312 H   0  0  0  0  0  0
  -17.5008  -31.6251   24.5163 H   0  0  0  0  0  0
  -15.5344  -30.2993   23.7624 H   0  0  0  0  0  0
  -15.8650  -28.0838   22.7014 H   0  0  0  0  0  0
  -24.5906  -30.7016   25.7823 H   0  0  0  0  0  0
  -24.8910  -32.2832   26.4924 H   0  0  0  0  0  0
  -25.8100  -30.8859   27.0225 H   0  0  0  0  0  0
  -26.2816  -29.6777   24.1138 H   0  0  0  0  0  0
  -27.4078  -29.7251   25.4519 H   0  0  0  0  0  0
  -27.8643  -30.4340   23.9199 H   0  0  0  0  0  0
  -27.2699  -33.3573   26.2070 H   0  0  0  0  0  0
  -28.3846  -32.6827   25.0267 H   0  0  0  0  0  0
  -28.0729  -31.8362   26.5346 H   0  0  0  0  0  0
  -28.2596  -38.0104   24.7495 H   0  0  0  0  0  0
  -28.1064  -36.2633   24.6288 H   0  0  0  0  0  0
  -27.2299  -37.1474   25.8868 H   0  0  0  0  0  0
  -20.9277  -29.8789   21.6996 H   0  0  0  0  0  0
  -26.0166  -38.2864   24.1394 H   0  0  0  0  0  0
  -32.5623  -17.1968   21.5117 H   0  0  0  0  0  0
  -32.2827  -21.1869   19.9572 H   0  0  0  0  0  0
  -29.2976  -17.0688   22.4507 H   0  0  0  0  0  0
  -29.4240  -14.9405   22.4441 H   0  0  0  0  0  0
  -34.5881  -18.4670   21.0335 H   0  0  0  0  0  0
  -34.2542  -20.0952   21.6320 H   0  0  0  0  0  0
  -34.4748  -19.8180   19.8985 H   0  0  0  0  0  0
  -26.3095  -18.8254   20.7655 H   0  0  0  0  0  0
  -27.3648  -20.1557   21.2441 H   0  0  0  0  0  0
  -27.5045  -18.5768   22.0298 H   0  0  0  0  0  0
  -28.1536  -17.5350   19.8564 H   0  0  0  0  0  0
  -28.1250  -19.0563   19.0547 H   0  0  0  0  0  0
  -28.5975  -24.0635   20.8780 H   0  0  0  0  0  0
  -27.6388  -22.8829   20.0474 H   0  0  0  0  0  0
  -27.2543  -24.4590   18.4824 H   0  0  0  0  0  0
  -28.8010  -24.0929   17.8709 H   0  0  0  0  0  0
  -28.5310  -26.5216   18.0361 H   0  0  0  0  0  0
  -29.8901  -25.9199   18.9383 H   0  0  0  0  0  0
  -28.5482  -21.0015   19.6387 H   0  0  0  0  0  0
  1 25  1  0  0  0
  1 30  2  0  0  0
  1 78  1  0  0  0
  2  3  1  0  0  0
  2 25  1  0  0  0
  2 88  1  0  0  0
  2 89  1  0  0  0
  3  4  1  0  0  0
  3 90  1  0  0  0
  3 91  1  0  0  0
  4  5  1  0  0  0
  4 92  1  0  0  0
  4 93  1  0  0  0
  5  6  1  0  0  0
  5 26  1  0  0  0
  5 94  1  0  0  0
  6 25  1  0  0  0
  6 95  1  0  0  0
  6 96  1  0  0  0
  7  8  2  0  0  0
  7 26  1  0  0  0
  7 29  1  0  0  0
  8  9  1  0  0  0
  8 22  1  0  0  0
  9 10  1  0  0  0
  9 27  2  0  0  0
 10 11  2  0  0  0
 10 15  1  0  0  0
 11 12  1  0  0  0
 11 97  1  0  0  0
 12 13  2  0  0  0
 12 98  1  0  0  0
 13 14  1  0  0  0
 13 31  1  0  0  0
 14 15  2  0  0  0
 14 99  1  0  0  0
 15100  1  0  0  0
 16 17  2  0  0  0
 16 21  1  0  0  0
 16 31  1  0  0  0
 17 18  1  0  0  0
 17101  1  0  0  0
 18 19  2  0  0  0
 18102  1  0  0  0
 19 20  1  0  0  0
 19 24  1  0  0  0
 20 21  2  0  0  0
 20103  1  0  0  0
 21 23  1  0  0  0
 22 28  1  0  0  0
 22 32  2  0  0  0
 26 27  1  0  0  0
 28104  1  0  0  0
 28105  1  0  0  0
 29106  1  0  0  0
 29107  1  0  0  0
 33 34  1  0  0  0
 33 66  1  0  0  0
 33 70  2  0  0  0
 34 36  1  0  0  0
 34 59  1  0  0  0
 34108  1  0  0  0
 35 44  2  0  0  0
 35 45  1  0  0  0
 35 68  1  0  0  0
 36 56  1  0  0  0
 36109  1  0  0  0
 37 39  1  0  0  0
 37 47  1  0  0  0
 37 66  1  0  0  0
 37110  1  0  0  0
 38 43  2  0  0  0
 38 46  1  0  0  0
 38 47  1  0  0  0
 39 64  1  0  0  0
 39 67  2  0  0  0
 40 52  1  0  0  0
 40 53  2  0  0  0
 40 58  1  0  0  0
 41111  1  0  0  0
 41112  1  0  0  0
 41113  1  0  0  0
 41 48  1  0  0  0
 42 43  1  0  0  0
 42 66  1  0  0  0
 42114  1  0  0  0
 42115  1  0  0  0
 43 44  1  0  0  0
 44116  1  0  0  0
 45 46  2  0  0  0
 45117  1  0  0  0
 46118  1  0  0  0
 47119  1  0  0  0
 47120  1  0  0  0
 48 56  1  0  0  0
 48 65  1  0  0  0
 48121  1  0  0  0
 49 50  1  0  0  0
 49 53  1  0  0  0
 49 64  1  0  0  0
 49122  1  0  0  0
 50 51  1  0  0  0
 50123  1  0  0  0
 50124  1  0  0  0
 51 52  1  0  0  0
 51125  1  0  0  0
 51126  1  0  0  0
 52127  1  0  0  0
 52128  1  0  0  0
 53 54  1  0  0  0
 54 55  2  0  0  0
 54129  1  0  0  0
 55 57  1  0  0  0
 55130  1  0  0  0
 56 69  2  0  0  0
 57 58  2  0  0  0
 57131  1  0  0  0
 58132  1  0  0  0
 59 60  1  0  0  0
 59 61  1  0  0  0
 59 62  1  0  0  0
 60133  1  0  0  0
 60134  1  0  0  0
 60135  1  0  0  0
 61136  1  0  0  0
 61137  1  0  0  0
 61138  1  0  0  0
 62139  1  0  0  0
 62140  1  0  0  0
 62141  1  0  0  0
 63 65  1  0  0  0
 63142  1  0  0  0
 63143  1  0  0  0
 63144  1  0  0  0
 64145  1  0  0  0
 65146  1  0  0  0
 68 85  1  0  0  0
 71 73  2  0  0  0
 71 74  1  0  0  0
 71147  1  0  0  0
 72 74  2  0  0  0
 72 76  1  0  0  0
 72148  1  0  0  0
 73 75  1  0  0  0
 73 77  1  0  0  0
 74 80  1  0  0  0
 75 76  2  0  0  0
 75 82  1  0  0  0
 76 86  1  0  0  0
 77 78  2  0  0  0
 77149  1  0  0  0
 78150  1  0  0  0
 79 83  1  0  0  0
 79 86  1  0  0  0
 79 87  2  0  0  0
 80151  1  0  0  0
 80152  1  0  0  0
 80153  1  0  0  0
 81 82  1  0  0  0
 81154  1  0  0  0
 81155  1  0  0  0
 81156  1  0  0  0
 82157  1  0  0  0
 82158  1  0  0  0
 83 84  1  0  0  0
 83159  1  0  0  0
 83160  1  0  0  0
 84 85  1  0  0  0
 84161  1  0  0  0
 84162  1  0  0  0
 85163  1  0  0  0
 85164  1  0  0  0
 86165  1  0  0  0
M  ISO  4   1 100  68 101  78 100  85 101
M  END
> <chiral flag>
0

> <version>
0

> <s_m_source_file>
/data/baiqing/PycharmProjects/Reinvent-master-3.2/result/LINK_invent/BTK/process_docking_weight1_custom_product_contain_oxygen_bond_distance_aromatic_linkinvent_7_9_3/rearranged_h_0123.sdf

> <i_m_source_file_index>
36

> <r_mmod_Potential_Energy-OPLS-2005>
4.9322681427002

> <r_mmod_Stretch_Energy-OPLS-2005>
44.8993530273438

> <r_mmod_Bend_Energy-OPLS-2005>
148.998275756836

> <r_mmod_Torsional_Energy-OPLS-2005>
245.880859375

> <r_mmod_Improper_Torsional_Energy-OPLS-2005>
4.99608898162842

> <r_mmod_Van_der_Waal_Energy-OPLS-2005>
155.209808349609

> <r_mmod_Electrostatic_Energy-OPLS-2005>
-391.190460205078

> <r_mmod_Solvation_Energy-OPLS-2005>
-218.068023681641

> <b_mmod_Minimization_Converged-OPLS-2005>
0

> <r_mmod_RMS_Derivative-OPLS-2005>
6.9912428855896

$$$$
36
                    3D
 Structure written by MMmdl.
160168  0  0  1  0            999 V2000
  -30.6533  -14.5097   20.5190 C   0  0  0  0  0  0
  -30.4405  -12.3040   19.4323 C   0  0  0  0  0  0
  -29.5062  -12.4570   18.2136 C   0  0  0  0  0  0
  -28.0224  -12.3267   18.6217 C   0  0  0  0  0  0
  -27.6619  -13.1714   19.8711 C   0  0  2  0  0  0
  -28.7075  -12.9787   20.9923 C   0  0  0  0  0  0
  -25.2602  -13.8040   20.5699 C   0  0  0  0  0  0
  -24.1829  -13.0364   20.9184 C   0  0  0  0  0  0
  -24.6358  -11.6833   20.8746 C   0  0  0  0  0  0
  -23.9022  -10.4248   21.0417 C   0  0  0  0  0  0
  -24.3590   -9.4172   21.9192 C   0  0  0  0  0  0
  -23.6272   -8.2210   22.0757 C   0  0  0  0  0  0
  -22.4254   -8.0256   21.3545 C   0  0  0  0  0  0
  -21.9881   -9.0227   20.4649 C   0  0  0  0  0  0
  -22.7198  -10.2107   20.3063 C   0  0  0  0  0  0
  -21.6839   -6.0724   22.5286 C   0  0  0  0  0  0
  -21.4002   -6.5631   23.8217 C   0  0  0  0  0  0
  -21.3654   -5.6789   24.9182 C   0  0  0  0  0  0
  -21.6046   -4.3052   24.7233 C   0  0  0  0  0  0
  -21.8821   -3.8141   23.4356 C   0  0  0  0  0  0
  -21.9188   -4.6954   22.3410 C   0  0  0  0  0  0
  -22.7865  -13.5209   21.1842 C   0  0  0  0  0  0
  -22.1659   -4.2140   21.0988 F   0  0  0  0  0  0
  -21.5630   -3.4538   25.7747 F   0  0  0  0  0  0
  -30.0326  -13.3008   20.4323 N   0  0  0  0  0  0
  -26.3014  -12.9160   20.3351 N   0  0  0  0  0  0
  -25.9271  -11.6360   20.5777 N   0  0  0  0  0  0
  -22.0487  -12.8233   22.0407 N   0  0  0  0  0  0
  -25.4271  -15.1757   20.4189 N   0  0  0  0  0  0
  -31.8089  -14.7046   20.1293 O   0  0  0  0  0  0
  -21.6621   -6.8857   21.4243 O   0  0  0  0  0  0
  -22.3571  -14.5522   20.6682 O   0  0  0  0  0  0
  -24.6117  -31.8692   23.2109 C   0  0  0  0  0  0
  -25.9017  -32.4831   23.8403 C   0  0  1  0  0  0
  -27.2501  -27.4587   20.0814 C   0  0  0  0  0  0
  -25.5882  -33.8631   24.2334 N   0  0  0  0  0  0
  -23.3998  -30.4909   21.5506 C   0  0  2  0  0  0
  -24.8483  -28.9558   20.1161 C   0  0  0  0  0  0
  -22.7394  -29.4662   22.5001 C   0  0  0  0  0  0
  -18.0269  -28.1375   22.8492 C   0  0  0  0  0  0
  -24.1484  -36.7325   23.2635 C   0  0  0  0  0  0
  -25.9256  -30.8382   21.3628 C   0  0  0  0  0  0
  -26.0040  -29.4720   20.7142 C   0  0  0  0  0  0
  -27.2011  -28.7242   20.7059 C   0  0  0  0  0  0
  -26.0702  -26.9419   19.4981 C   0  0  0  0  0  0
  -24.8736  -27.6857   19.5123 C   0  0  0  0  0  0
  -23.6083  -29.8202   20.1656 C   0  0  0  0  0  0
  -25.4105  -36.3123   24.0337 C   0  0  1  0  0  0
  -20.5857  -28.3655   23.1329 C   0  0  2  0  0  0
  -20.6760  -26.9395   22.5423 C   0  0  0  0  0  0
  -19.5744  -26.6389   21.5212 C   0  0  0  0  0  0
  -18.1922  -26.7922   22.1624 C   0  0  0  0  0  0
  -19.1517  -28.8831   23.2909 C   0  0  0  0  0  0
  -18.9445  -30.1438   23.8918 C   0  0  0  0  0  0
  -17.6450  -30.6582   24.0569 C   0  0  0  0  0  0
  -25.9028  -34.9484   23.5135 C   0  0  0  0  0  0
  -16.5341  -29.9086   23.6324 C   0  0  0  0  0  0
  -16.7260  -28.6503   23.0341 C   0  0  0  0  0  0
  -26.4455  -31.6607   25.0723 C   0  0  0  0  0  0
  -25.3730  -31.3718   26.1485 C   0  0  0  0  0  0
  -27.0275  -30.3051   24.6087 C   0  0  0  0  0  0
  -27.6053  -32.4312   25.7467 C   0  0  0  0  0  0
  -27.5583  -37.1811   24.8462 C   0  0  0  0  0  0
  -21.4125  -29.3025   22.3736 N   0  0  0  0  0  0
  -26.4297  -37.3800   23.9405 N   0  0  0  0  0  0
  -24.6636  -31.0804   22.1004 N   0  0  0  0  0  0
  -23.4172  -28.8216   23.3050 O   0  0  0  0  0  0
  -28.4386  -26.7594   20.1042 O   0  0  0  0  0  0
  -26.5594  -34.8930   22.4700 O   0  0  0  0  0  0
  -23.5312  -32.1435   23.7514 O   0  0  0  0  0  0
  -29.4893  -23.4409   19.4502 C   0  0  0  0  0  0
  -29.1836  -24.6187   19.3155 C   0  0  0  0  0  0
  -30.8129  -19.1101   21.4321 C   0  0  0  0  0  0
  -30.8169  -17.6953   21.5108 C   0  0  0  0  0  0
  -29.1984  -19.0011   19.6380 C   0  0  0  0  0  0
  -29.9846  -19.7820   20.5047 C   0  0  0  0  0  0
  -29.1834  -17.5953   19.7072 C   0  0  0  0  0  0
  -29.9877  -16.9196   20.6660 C   0  0  0  0  0  0
  -28.3199  -15.5611   16.6055 C   0  0  0  0  0  0
  -29.8849  -21.2619   20.4560 C   0  0  0  0  0  0
  -28.9462  -16.0924   17.6663 C   0  0  0  0  0  0
  -29.7597  -22.0368   19.3505 C   0  0  0  0  0  0
  -29.8682  -21.5249   17.9212 C   0  0  0  0  0  0
  -28.8135  -26.0021   18.9525 C   0  0  0  0  0  0
  -28.2467  -16.8809   18.7518 C   0  0  0  0  0  0
  -29.8367  -15.5160   20.8929 N   0  0  0  0  0  0
  -31.4822  -12.4249   19.1292 H   0  0  0  0  0  0
  -30.3652  -11.2996   19.8511 H   0  0  0  0  0  0
  -29.7494  -11.7075   17.4591 H   0  0  0  0  0  0
  -29.6823  -13.4217   17.7426 H   0  0  0  0  0  0
  -27.8270  -11.2727   18.8218 H   0  0  0  0  0  0
  -27.3785  -12.5994   17.7848 H   0  0  0  0  0  0
  -27.7003  -14.2010   19.5476 H   0  0  0  0  0  0
  -28.6986  -11.9464   21.3456 H   0  0  0  0  0  0
  -28.4657  -13.5857   21.8661 H   0  0  0  0  0  0
  -25.2737   -9.5648   22.4764 H   0  0  0  0  0  0
  -23.9980   -7.4598   22.7471 H   0  0  0  0  0  0
  -21.0813   -8.8743   19.8956 H   0  0  0  0  0  0
  -22.3658  -10.9655   19.6182 H   0  0  0  0  0  0
  -21.1991   -7.6141   23.9715 H   0  0  0  0  0  0
  -21.1474   -6.0522   25.9085 H   0  0  0  0  0  0
  -22.0605   -2.7604   23.2859 H   0  0  0  0  0  0
  -22.4084  -11.9898   22.4821 H   0  0  0  0  0  0
  -21.1114  -13.1291   22.2602 H   0  0  0  0  0  0
  -24.6561  -15.8237   20.5362 H   0  0  0  0  0  0
  -26.2773  -15.6248   20.1115 H   0  0  0  0  0  0
  -26.7093  -32.5550   23.1177 H   0  0  0  0  0  0
  -25.0035  -33.9799   25.0480 H   0  0  0  0  0  0
  -22.6882  -31.3073   21.4109 H   0  0  0  0  0  0
  -23.3740  -35.9664   23.3317 H   0  0  0  0  0  0
  -24.3570  -36.8916   22.2044 H   0  0  0  0  0  0
  -23.7244  -37.6542   23.6630 H   0  0  0  0  0  0
  -26.0329  -31.6024   20.5917 H   0  0  0  0  0  0
  -26.8154  -30.8959   21.9780 H   0  0  0  0  0  0
  -28.0942  -29.1211   21.1683 H   0  0  0  0  0  0
  -26.0589  -25.9596   19.0480 H   0  0  0  0  0  0
  -23.9803  -27.2744   19.0623 H   0  0  0  0  0  0
  -23.7148  -30.5944   19.4047 H   0  0  0  0  0  0
  -22.7331  -29.2375   19.8717 H   0  0  0  0  0  0
  -25.1283  -36.1996   25.0831 H   0  0  0  0  0  0
  -20.9948  -28.3214   24.1450 H   0  0  0  0  0  0
  -20.5663  -26.2259   23.3605 H   0  0  0  0  0  0
  -21.6631  -26.7440   22.1215 H   0  0  0  0  0  0
  -19.6908  -25.6308   21.1226 H   0  0  0  0  0  0
  -19.6691  -27.3211   20.6753 H   0  0  0  0  0  0
  -17.4192  -26.6666   21.4026 H   0  0  0  0  0  0
  -18.0330  -26.0060   22.9017 H   0  0  0  0  0  0
  -19.7921  -30.7245   24.2300 H   0  0  0  0  0  0
  -17.5006  -31.6263   24.5169 H   0  0  0  0  0  0
  -15.5344  -30.2994   23.7640 H   0  0  0  0  0  0
  -15.8657  -28.0837   22.7037 H   0  0  0  0  0  0
  -24.5886  -30.7081   25.7827 H   0  0  0  0  0  0
  -24.8936  -32.2874   26.4953 H   0  0  0  0  0  0
  -25.8087  -30.8872   27.0231 H   0  0  0  0  0  0
  -26.2810  -29.6823   24.1142 H   0  0  0  0  0  0
  -27.4053  -29.7278   25.4535 H   0  0  0  0  0  0
  -27.8642  -30.4371   23.9221 H   0  0  0  0  0  0
  -27.2698  -33.3602   26.2085 H   0  0  0  0  0  0
  -28.3830  -32.6883   25.0263 H   0  0  0  0  0  0
  -28.0756  -31.8406   26.5338 H   0  0  0  0  0  0
  -28.2615  -38.0094   24.7500 H   0  0  0  0  0  0
  -28.1065  -36.2627   24.6299 H   0  0  0  0  0  0
  -27.2304  -37.1482   25.8867 H   0  0  0  0  0  0
  -20.9282  -29.8734   21.6949 H   0  0  0  0  0  0
  -26.0196  -38.2885   24.1399 H   0  0  0  0  0  0
  -31.4276  -19.6799   22.1152 H   0  0  0  0  0  0
  -31.4257  -17.2122   22.2624 H   0  0  0  0  0  0
  -28.5409  -19.4917   18.9363 H   0  0  0  0  0  0
  -28.8661  -15.0012   15.8596 H   0  0  0  0  0  0
  -27.2543  -15.6736   16.4641 H   0  0  0  0  0  0
  -29.8421  -21.7420   21.4249 H   0  0  0  0  0  0
  -30.0129  -15.9534   17.7772 H   0  0  0  0  0  0
  -30.2879  -22.2841   17.2589 H   0  0  0  0  0  0
  -28.8860  -21.2547   17.5324 H   0  0  0  0  0  0
  -30.5224  -20.6552   17.8578 H   0  0  0  0  0  0
  -28.0655  -25.9673   18.1609 H   0  0  0  0  0  0
  -29.6964  -26.4673   18.5139 H   0  0  0  0  0  0
  -27.5783  -17.5948   18.2681 H   0  0  0  0  0  0
  -27.5934  -16.2479   19.3350 H   0  0  0  0  0  0
  -28.9019  -15.2100   21.1134 H   0  0  0  0  0  0
  1 25  1  0  0  0
  1 30  2  0  0  0
  1 86  1  0  0  0
  2  3  1  0  0  0
  2 25  1  0  0  0
  2 87  1  0  0  0
  2 88  1  0  0  0
  3  4  1  0  0  0
  3 89  1  0  0  0
  3 90  1  0  0  0
  4  5  1  0  0  0
  4 91  1  0  0  0
  4 92  1  0  0  0
  5  6  1  0  0  0
  5 26  1  0  0  0
  5 93  1  0  0  0
  6 25  1  0  0  0
  6 94  1  0  0  0
  6 95  1  0  0  0
  7  8  2  0  0  0
  7 26  1  0  0  0
  7 29  1  0  0  0
  8  9  1  0  0  0
  8 22  1  0  0  0
  9 10  1  0  0  0
  9 27  2  0  0  0
 10 11  2  0  0  0
 10 15  1  0  0  0
 11 12  1  0  0  0
 11 96  1  0  0  0
 12 13  2  0  0  0
 12 97  1  0  0  0
 13 14  1  0  0  0
 13 31  1  0  0  0
 14 15  2  0  0  0
 14 98  1  0  0  0
 15 99  1  0  0  0
 16 17  2  0  0  0
 16 21  1  0  0  0
 16 31  1  0  0  0
 17 18  1  0  0  0
 17100  1  0  0  0
 18 19  2  0  0  0
 18101  1  0  0  0
 19 20  1  0  0  0
 19 24  1  0  0  0
 20 21  2  0  0  0
 20102  1  0  0  0
 21 23  1  0  0  0
 22 28  1  0  0  0
 22 32  2  0  0  0
 26 27  1  0  0  0
 28103  1  0  0  0
 28104  1  0  0  0
 29105  1  0  0  0
 29106  1  0  0  0
 33 34  1  0  0  0
 33 66  1  0  0  0
 33 70  2  0  0  0
 34 36  1  0  0  0
 34 59  1  0  0  0
 34107  1  0  0  0
 35 44  2  0  0  0
 35 45  1  0  0  0
 35 68  1  0  0  0
 36 56  1  0  0  0
 36108  1  0  0  0
 37 39  1  0  0  0
 37 47  1  0  0  0
 37 66  1  0  0  0
 37109  1  0  0  0
 38 43  2  0  0  0
 38 46  1  0  0  0
 38 47  1  0  0  0
 39 64  1  0  0  0
 39 67  2  0  0  0
 40 52  1  0  0  0
 40 53  2  0  0  0
 40 58  1  0  0  0
 41110  1  0  0  0
 41111  1  0  0  0
 41112  1  0  0  0
 41 48  1  0  0  0
 42 43  1  0  0  0
 42 66  1  0  0  0
 42113  1  0  0  0
 42114  1  0  0  0
 43 44  1  0  0  0
 44115  1  0  0  0
 45 46  2  0  0  0
 45116  1  0  0  0
 46117  1  0  0  0
 47118  1  0  0  0
 47119  1  0  0  0
 48 56  1  0  0  0
 48 65  1  0  0  0
 48120  1  0  0  0
 49 50  1  0  0  0
 49 53  1  0  0  0
 49 64  1  0  0  0
 49121  1  0  0  0
 50 51  1  0  0  0
 50122  1  0  0  0
 50123  1  0  0  0
 51 52  1  0  0  0
 51124  1  0  0  0
 51125  1  0  0  0
 52126  1  0  0  0
 52127  1  0  0  0
 53 54  1  0  0  0
 54 55  2  0  0  0
 54128  1  0  0  0
 55 57  1  0  0  0
 55129  1  0  0  0
 56 69  2  0  0  0
 57 58  2  0  0  0
 57130  1  0  0  0
 58131  1  0  0  0
 59 60  1  0  0  0
 59 61  1  0  0  0
 59 62  1  0  0  0
 60132  1  0  0  0
 60133  1  0  0  0
 60134  1  0  0  0
 61135  1  0  0  0
 61136  1  0  0  0
 61137  1  0  0  0
 62138  1  0  0  0
 62139  1  0  0  0
 62140  1  0  0  0
 63 65  1  0  0  0
 63141  1  0  0  0
 63142  1  0  0  0
 63143  1  0  0  0
 64144  1  0  0  0
 65145  1  0  0  0
 68 84  1  0  0  0
 71 72  3  0  0  0
 71 82  1  0  0  0
 72 84  1  0  0  0
 73 74  2  0  0  0
 73 76  1  0  0  0
 73146  1  0  0  0
 74 78  1  0  0  0
 74147  1  0  0  0
 75 76  2  0  0  0
 75 77  1  0  0  0
 75148  1  0  0  0
 76 80  1  0  0  0
 77 78  2  0  0  0
 77 85  1  0  0  0
 78 86  1  0  0  0
 79 81  2  0  0  0
 79149  1  0  0  0
 79150  1  0  0  0
 80 82  2  0  0  0
 80151  1  0  0  0
 81 85  1  0  0  0
 81152  1  0  0  0
 82 83  1  0  0  0
 83153  1  0  0  0
 83154  1  0  0  0
 83155  1  0  0  0
 84156  1  0  0  0
 84157  1  0  0  0
 85158  1  0  0  0
 85159  1  0  0  0
 86160  1  0  0  0
M  ISO  4   1 100  68 101  84 101  86 100
M  END
> <chiral flag>
0

> <version>
0

> <s_m_source_file>
/data/baiqing/PycharmProjects/Reinvent-master-3.2/result/LINK_invent/BTK/process_docking_weight1_custom_product_contain_oxygen_bond_distance_aromatic_linkinvent_7_9_3/rearranged_h_0123.sdf

> <i_m_source_file_index>
37

> <r_mmod_Potential_Energy-OPLS-2005>
9.38823986053467

> <r_mmod_Stretch_Energy-OPLS-2005>
35.7481803894043

> <r_mmod_Bend_Energy-OPLS-2005>
104.799011230469

> <r_mmod_Torsional_Energy-OPLS-2005>
267.399719238281

> <r_mmod_Improper_Torsional_Energy-OPLS-2005>
6.47302627563477

> <r_mmod_Van_der_Waal_Energy-OPLS-2005>
145.73860168457

> <r_mmod_Electrostatic_Energy-OPLS-2005>
-370.506195068359

> <r_mmod_Solvation_Energy-OPLS-2005>
-197.062210083008

> <b_mmod_Minimization_Converged-OPLS-2005>
0

> <r_mmod_RMS_Derivative-OPLS-2005>
0.693122982978821

$$$$
37
                    3D
 Structure written by MMmdl.
154162  0  0  1  0            999 V2000
  -30.8056  -14.3895   20.4826 C   0  0  0  0  0  0
  -30.3767  -12.2254   19.4497 C   0  0  0  0  0  0
  -29.4876  -12.4471   18.2138 C   0  0  0  0  0  0
  -28.0093  -12.3425   18.6209 C   0  0  0  0  0  0
  -27.6553  -13.2184   19.8533 C   0  0  2  0  0  0
  -28.6939  -13.0681   20.9867 C   0  0  0  0  0  0
  -25.2593  -13.8197   20.5685 C   0  0  0  0  0  0
  -24.1851  -13.0463   20.9179 C   0  0  0  0  0  0
  -24.6404  -11.6934   20.8703 C   0  0  0  0  0  0
  -23.9083  -10.4304   21.0385 C   0  0  0  0  0  0
  -24.3628   -9.4213   21.9161 C   0  0  0  0  0  0
  -23.6303   -8.2254   22.0747 C   0  0  0  0  0  0
  -22.4289   -8.0287   21.3540 C   0  0  0  0  0  0
  -21.9933   -9.0266   20.4627 C   0  0  0  0  0  0
  -22.7257  -10.2149   20.3033 C   0  0  0  0  0  0
  -21.6868   -6.0724   22.5275 C   0  0  0  0  0  0
  -21.4008   -6.5630   23.8200 C   0  0  0  0  0  0
  -21.3667   -5.6799   24.9172 C   0  0  0  0  0  0
  -21.6049   -4.3059   24.7232 C   0  0  0  0  0  0
  -21.8815   -3.8139   23.4357 C   0  0  0  0  0  0
  -21.9210   -4.6955   22.3410 C   0  0  0  0  0  0
  -22.7876  -13.5255   21.1872 C   0  0  0  0  0  0
  -22.1684   -4.2126   21.0992 F   0  0  0  0  0  0
  -21.5637   -3.4556   25.7756 F   0  0  0  0  0  0
  -30.0323  -13.2739   20.4231 N   0  0  0  0  0  0
  -26.3014  -12.9385   20.3274 N   0  0  0  0  0  0
  -25.9331  -11.6533   20.5723 N   0  0  0  0  0  0
  -22.0536  -12.8219   22.0399 N   0  0  0  0  0  0
  -25.4436  -15.1906   20.4123 N   0  0  0  0  0  0
  -31.9824  -14.3426   20.1213 O   0  0  0  0  0  0
  -21.6653   -6.8884   21.4235 O   0  0  0  0  0  0
  -22.3550  -14.5565   20.6736 O   0  0  0  0  0  0
  -24.6080  -31.8720   23.2139 C   0  0  0  0  0  0
  -25.8996  -32.4841   23.8406 C   0  0  1  0  0  0
  -27.2286  -27.4850   20.0893 C   0  0  0  0  0  0
  -25.5861  -33.8644   24.2334 N   0  0  0  0  0  0
  -23.3930  -30.4918   21.5570 C   0  0  2  0  0  0
  -24.8369  -28.9637   20.1198 C   0  0  0  0  0  0
  -22.7378  -29.4636   22.5062 C   0  0  0  0  0  0
  -18.0246  -28.1379   22.8510 C   0  0  0  0  0  0
  -24.1478  -36.7327   23.2632 C   0  0  0  0  0  0
  -25.9133  -30.8530   21.3569 C   0  0  0  0  0  0
  -25.9928  -29.4881   20.7130 C   0  0  0  0  0  0
  -27.1930  -28.7520   20.6999 C   0  0  0  0  0  0
  -26.0618  -26.9603   19.4930 C   0  0  0  0  0  0
  -24.8636  -27.6974   19.5074 C   0  0  0  0  0  0
  -23.5960  -29.8223   20.1715 C   0  0  0  0  0  0
  -25.4098  -36.3126   24.0330 C   0  0  1  0  0  0
  -20.5843  -28.3636   23.1377 C   0  0  2  0  0  0
  -20.6743  -26.9374   22.5461 C   0  0  0  0  0  0
  -19.5725  -26.6383   21.5247 C   0  0  0  0  0  0
  -18.1890  -26.7931   22.1637 C   0  0  0  0  0  0
  -19.1497  -28.8823   23.2934 C   0  0  0  0  0  0
  -18.9432  -30.1449   23.8918 C   0  0  0  0  0  0
  -17.6430  -30.6590   24.0583 C   0  0  0  0  0  0
  -25.9039  -34.9484   23.5145 C   0  0  0  0  0  0
  -16.5321  -29.9098   23.6324 C   0  0  0  0  0  0
  -16.7245  -28.6519   23.0342 C   0  0  0  0  0  0
  -26.4453  -31.6597   25.0703 C   0  0  0  0  0  0
  -25.3732  -31.3668   26.1455 C   0  0  0  0  0  0
  -27.0276  -30.3063   24.6018 C   0  0  0  0  0  0
  -27.6038  -32.4311   25.7448 C   0  0  0  0  0  0
  -27.5601  -37.1783   24.8441 C   0  0  0  0  0  0
  -21.4114  -29.3009   22.3809 N   0  0  0  0  0  0
  -26.4283  -37.3817   23.9438 N   0  0  0  0  0  0
  -24.6569  -31.0846   22.1031 N   0  0  0  0  0  0
  -23.4180  -28.8181   23.3082 O   0  0  0  0  0  0
  -28.4140  -26.8070   20.0494 O   0  0  0  0  0  0
  -26.5626  -34.8932   22.4731 O   0  0  0  0  0  0
  -23.5288  -32.1445   23.7578 O   0  0  0  0  0  0
  -29.2913  -20.1754   20.6804 C   0  0  0  0  0  0
  -31.6553  -20.3915   20.1203 C   0  0  0  0  0  0
  -29.4463  -18.7776   20.8098 C   0  0  0  0  0  0
  -31.8113  -19.0108   20.2591 C   0  0  0  0  0  0
  -30.3931  -20.9796   20.2985 C   0  0  0  0  0  0
  -30.7094  -18.1917   20.5812 C   0  0  0  0  0  0
  -30.3200  -22.4143   20.0483 C   0  0  0  0  0  0
  -30.9758  -16.7576   20.5661 C   0  0  0  0  0  0
  -29.3140  -23.2584   20.3220 C   0  0  0  0  0  0
  -30.1676  -15.6817   20.7242 C   0  0  0  0  0  0
  -28.4005  -25.4799   20.3591 C   0  0  0  0  0  0
  -29.3810  -24.6610   19.9546 C   0  0  0  0  0  0
  -30.5301  -25.1931   19.1066 C   0  0  0  0  0  0
  -31.4263  -12.2149   19.1582 H   0  0  0  0  0  0
  -30.1867  -11.2397   19.8797 H   0  0  0  0  0  0
  -29.7067  -11.7002   17.4493 H   0  0  0  0  0  0
  -29.6960  -13.4200   17.7651 H   0  0  0  0  0  0
  -27.8186  -11.2937   18.8516 H   0  0  0  0  0  0
  -27.3643  -12.5911   17.7777 H   0  0  0  0  0  0
  -27.6880  -14.2534   19.5157 H   0  0  0  0  0  0
  -28.6346  -12.0724   21.4309 H   0  0  0  0  0  0
  -28.4882  -13.7678   21.7974 H   0  0  0  0  0  0
  -25.2772   -9.5701   22.4741 H   0  0  0  0  0  0
  -24.0003   -7.4670   22.7494 H   0  0  0  0  0  0
  -21.0846   -8.8811   19.8957 H   0  0  0  0  0  0
  -22.3708  -10.9703   19.6164 H   0  0  0  0  0  0
  -21.1981   -7.6147   23.9691 H   0  0  0  0  0  0
  -21.1490   -6.0537   25.9072 H   0  0  0  0  0  0
  -22.0579   -2.7592   23.2897 H   0  0  0  0  0  0
  -22.4184  -11.9857   22.4726 H   0  0  0  0  0  0
  -21.1176  -13.1255   22.2671 H   0  0  0  0  0  0
  -24.7005  -15.8711   20.5208 H   0  0  0  0  0  0
  -26.3142  -15.6029   20.0990 H   0  0  0  0  0  0
  -26.7062  -32.5583   23.1181 H   0  0  0  0  0  0
  -24.9940  -33.9814   25.0424 H   0  0  0  0  0  0
  -22.6772  -31.3054   21.4204 H   0  0  0  0  0  0
  -23.3770  -35.9629   23.3234 H   0  0  0  0  0  0
  -24.3581  -36.9030   22.2065 H   0  0  0  0  0  0
  -23.7187  -37.6483   23.6706 H   0  0  0  0  0  0
  -26.0060  -31.6136   20.5799 H   0  0  0  0  0  0
  -26.8102  -30.9189   21.9612 H   0  0  0  0  0  0
  -28.0919  -29.1538   21.1475 H   0  0  0  0  0  0
  -26.0824  -25.9942   19.0088 H   0  0  0  0  0  0
  -23.9749  -27.2913   19.0424 H   0  0  0  0  0  0
  -23.6930  -30.5939   19.4075 H   0  0  0  0  0  0
  -22.7228  -29.2328   19.8854 H   0  0  0  0  0  0
  -25.1265  -36.1981   25.0818 H   0  0  0  0  0  0
  -20.9907  -28.3190   24.1505 H   0  0  0  0  0  0
  -20.5662  -26.2222   23.3640 H   0  0  0  0  0  0
  -21.6608  -26.7434   22.1247 H   0  0  0  0  0  0
  -19.6886  -25.6313   21.1239 H   0  0  0  0  0  0
  -19.6682  -27.3234   20.6815 H   0  0  0  0  0  0
  -17.4184  -26.6732   21.4007 H   0  0  0  0  0  0
  -18.0236  -26.0049   22.8995 H   0  0  0  0  0  0
  -19.7903  -30.7278   24.2275 H   0  0  0  0  0  0
  -17.4981  -31.6254   24.5215 H   0  0  0  0  0  0
  -15.5329  -30.3019   23.7622 H   0  0  0  0  0  0
  -15.8640  -28.0864   22.7021 H   0  0  0  0  0  0
  -24.5941  -30.6969   25.7790 H   0  0  0  0  0  0
  -24.8859  -32.2800   26.4892 H   0  0  0  0  0  0
  -25.8103  -30.8856   27.0219 H   0  0  0  0  0  0
  -26.2791  -29.6822   24.1132 H   0  0  0  0  0  0
  -27.4146  -29.7296   25.4423 H   0  0  0  0  0  0
  -27.8566  -30.4418   23.9075 H   0  0  0  0  0  0
  -27.2669  -33.3603   26.2074 H   0  0  0  0  0  0
  -28.3804  -32.6912   25.0235 H   0  0  0  0  0  0
  -28.0757  -31.8411   26.5316 H   0  0  0  0  0  0
  -28.2530  -38.0167   24.7637 H   0  0  0  0  0  0
  -28.1184  -36.2715   24.6075 H   0  0  0  0  0  0
  -27.2338  -37.1203   25.8836 H   0  0  0  0  0  0
  -20.9272  -29.8746   21.7047 H   0  0  0  0  0  0
  -26.0165  -38.2870   24.1561 H   0  0  0  0  0  0
  -28.3127  -20.6107   20.8331 H   0  0  0  0  0  0
  -32.5144  -20.9890   19.8424 H   0  0  0  0  0  0
  -28.5901  -18.1632   21.0499 H   0  0  0  0  0  0
  -32.7903  -18.5865   20.0708 H   0  0  0  0  0  0
  -31.1998  -22.8092   19.5620 H   0  0  0  0  0  0
  -32.0231  -16.5851   20.3532 H   0  0  0  0  0  0
  -28.4280  -22.8879   20.8221 H   0  0  0  0  0  0
  -29.1193  -15.7860   20.9603 H   0  0  0  0  0  0
  -27.5457  -25.1779   20.9516 H   0  0  0  0  0  0
  -31.4614  -25.1829   19.6760 H   0  0  0  0  0  0
  -30.3645  -26.2095   18.7513 H   0  0  0  0  0  0
  -30.6612  -24.5651   18.2231 H   0  0  0  0  0  0
  1 25  1  0  0  0
  1 30  2  0  0  0
  1 80  1  0  0  0
  2  3  1  0  0  0
  2 25  1  0  0  0
  2 84  1  0  0  0
  2 85  1  0  0  0
  3  4  1  0  0  0
  3 86  1  0  0  0
  3 87  1  0  0  0
  4  5  1  0  0  0
  4 88  1  0  0  0
  4 89  1  0  0  0
  5  6  1  0  0  0
  5 26  1  0  0  0
  5 90  1  0  0  0
  6 25  1  0  0  0
  6 91  1  0  0  0
  6 92  1  0  0  0
  7  8  2  0  0  0
  7 26  1  0  0  0
  7 29  1  0  0  0
  8  9  1  0  0  0
  8 22  1  0  0  0
  9 10  1  0  0  0
  9 27  2  0  0  0
 10 11  2  0  0  0
 10 15  1  0  0  0
 11 12  1  0  0  0
 11 93  1  0  0  0
 12 13  2  0  0  0
 12 94  1  0  0  0
 13 14  1  0  0  0
 13 31  1  0  0  0
 14 15  2  0  0  0
 14 95  1  0  0  0
 15 96  1  0  0  0
 16 17  2  0  0  0
 16 21  1  0  0  0
 16 31  1  0  0  0
 17 18  1  0  0  0
 17 97  1  0  0  0
 18 19  2  0  0  0
 18 98  1  0  0  0
 19 20  1  0  0  0
 19 24  1  0  0  0
 20 21  2  0  0  0
 20 99  1  0  0  0
 21 23  1  0  0  0
 22 28  1  0  0  0
 22 32  2  0  0  0
 26 27  1  0  0  0
 28100  1  0  0  0
 28101  1  0  0  0
 29102  1  0  0  0
 29103  1  0  0  0
 33 34  1  0  0  0
 33 66  1  0  0  0
 33 70  2  0  0  0
 34 36  1  0  0  0
 34 59  1  0  0  0
 34104  1  0  0  0
 35 44  2  0  0  0
 35 45  1  0  0  0
 35 68  1  0  0  0
 36 56  1  0  0  0
 36105  1  0  0  0
 37 39  1  0  0  0
 37 47  1  0  0  0
 37 66  1  0  0  0
 37106  1  0  0  0
 38 43  2  0  0  0
 38 46  1  0  0  0
 38 47  1  0  0  0
 39 64  1  0  0  0
 39 67  2  0  0  0
 40 52  1  0  0  0
 40 53  2  0  0  0
 40 58  1  0  0  0
 41107  1  0  0  0
 41108  1  0  0  0
 41109  1  0  0  0
 41 48  1  0  0  0
 42 43  1  0  0  0
 42 66  1  0  0  0
 42110  1  0  0  0
 42111  1  0  0  0
 43 44  1  0  0  0
 44112  1  0  0  0
 45 46  2  0  0  0
 45113  1  0  0  0
 46114  1  0  0  0
 47115  1  0  0  0
 47116  1  0  0  0
 48 56  1  0  0  0
 48 65  1  0  0  0
 48117  1  0  0  0
 49 50  1  0  0  0
 49 53  1  0  0  0
 49 64  1  0  0  0
 49118  1  0  0  0
 50 51  1  0  0  0
 50119  1  0  0  0
 50120  1  0  0  0
 51 52  1  0  0  0
 51121  1  0  0  0
 51122  1  0  0  0
 52123  1  0  0  0
 52124  1  0  0  0
 53 54  1  0  0  0
 54 55  2  0  0  0
 54125  1  0  0  0
 55 57  1  0  0  0
 55126  1  0  0  0
 56 69  2  0  0  0
 57 58  2  0  0  0
 57127  1  0  0  0
 58128  1  0  0  0
 59 60  1  0  0  0
 59 61  1  0  0  0
 59 62  1  0  0  0
 60129  1  0  0  0
 60130  1  0  0  0
 60131  1  0  0  0
 61132  1  0  0  0
 61133  1  0  0  0
 61134  1  0  0  0
 62135  1  0  0  0
 62136  1  0  0  0
 62137  1  0  0  0
 63 65  1  0  0  0
 63138  1  0  0  0
 63139  1  0  0  0
 63140  1  0  0  0
 64141  1  0  0  0
 65142  1  0  0  0
 68 81  1  0  0  0
 71 73  2  0  0  0
 71 75  1  0  0  0
 71143  1  0  0  0
 72 74  1  0  0  0
 72 75  2  0  0  0
 72144  1  0  0  0
 73 76  1  0  0  0
 73145  1  0  0  0
 74 76  2  0  0  0
 74146  1  0  0  0
 75 77  1  0  0  0
 76 78  1  0  0  0
 77 79  2  0  0  0
 77147  1  0  0  0
 78 80  2  0  0  0
 78148  1  0  0  0
 79 82  1  0  0  0
 79149  1  0  0  0
 80150  1  0  0  0
 81 82  2  0  0  0
 81151  1  0  0  0
 82 83  1  0  0  0
 83152  1  0  0  0
 83153  1  0  0  0
 83154  1  0  0  0
M  ISO  4   1 100  68 101  80 100  81 101
M  END
> <chiral flag>
0

> <version>
0

> <s_m_source_file>
/data/baiqing/PycharmProjects/Reinvent-master-3.2/result/LINK_invent/BTK/process_docking_weight1_custom_product_contain_oxygen_bond_distance_aromatic_linkinvent_7_9_3/rearranged_h_0123.sdf

> <i_m_source_file_index>
38

> <r_mmod_Potential_Energy-OPLS-2005>
18.3981170654297

> <r_mmod_Stretch_Energy-OPLS-2005>
30.1154232025146

> <r_mmod_Bend_Energy-OPLS-2005>
116.717803955078

> <r_mmod_Torsional_Energy-OPLS-2005>
181.06689453125

> <r_mmod_Improper_Torsional_Energy-OPLS-2005>
6.37815189361572

> <r_mmod_Van_der_Waal_Energy-OPLS-2005>
182.460083007812

> <r_mmod_Electrostatic_Energy-OPLS-2005>
-342.581176757812

> <r_mmod_Solvation_Energy-OPLS-2005>
-184.725601196289

> <b_mmod_Minimization_Converged-OPLS-2005>
0

> <r_mmod_RMS_Derivative-OPLS-2005>
2.7902512550354

$$$$
38
                    3D
 Structure written by MMmdl.
158167  0  0  1  0            999 V2000
  -30.6558  -14.6032   20.5266 C   0  0  0  0  0  0
  -30.4300  -12.3698   19.4590 C   0  0  0  0  0  0
  -29.5083  -12.5086   18.2296 C   0  0  0  0  0  0
  -28.0320  -12.3443   18.6403 C   0  0  0  0  0  0
  -27.6555  -13.2178   19.8668 C   0  0  2  0  0  0
  -28.6957  -13.0697   20.9967 C   0  0  0  0  0  0
  -25.2574  -13.8176   20.5702 C   0  0  0  0  0  0
  -24.1830  -13.0439   20.9177 C   0  0  0  0  0  0
  -24.6401  -11.6912   20.8735 C   0  0  0  0  0  0
  -23.9070  -10.4295   21.0408 C   0  0  0  0  0  0
  -24.3618   -9.4205   21.9188 C   0  0  0  0  0  0
  -23.6291   -8.2243   22.0758 C   0  0  0  0  0  0
  -22.4271   -8.0290   21.3548 C   0  0  0  0  0  0
  -21.9910   -9.0262   20.4645 C   0  0  0  0  0  0
  -22.7243  -10.2138   20.3053 C   0  0  0  0  0  0
  -21.6852   -6.0737   22.5280 C   0  0  0  0  0  0
  -21.4012   -6.5640   23.8212 C   0  0  0  0  0  0
  -21.3661   -5.6793   24.9174 C   0  0  0  0  0  0
  -21.6048   -4.3056   24.7224 C   0  0  0  0  0  0
  -21.8823   -3.8147   23.4345 C   0  0  0  0  0  0
  -21.9192   -4.6964   22.3400 C   0  0  0  0  0  0
  -22.7855  -13.5236   21.1847 C   0  0  0  0  0  0
  -22.1665   -4.2151   21.0975 F   0  0  0  0  0  0
  -21.5628   -3.4538   25.7734 F   0  0  0  0  0  0
  -30.0177  -13.3936   20.4396 N   0  0  0  0  0  0
  -26.3004  -12.9361   20.3337 N   0  0  0  0  0  0
  -25.9329  -11.6508   20.5754 N   0  0  0  0  0  0
  -22.0502  -12.8221   22.0395 N   0  0  0  0  0  0
  -25.4312  -15.1901   20.4175 N   0  0  0  0  0  0
  -31.7982  -14.7221   20.0765 O   0  0  0  0  0  0
  -21.6636   -6.8886   21.4245 O   0  0  0  0  0  0
  -22.3534  -14.5548   20.6712 O   0  0  0  0  0  0
  -24.6216  -31.8617   23.2041 C   0  0  0  0  0  0
  -25.9073  -32.4784   23.8365 C   0  0  1  0  0  0
  -27.2329  -27.3601   20.1034 C   0  0  0  0  0  0
  -25.5895  -33.8585   24.2297 N   0  0  0  0  0  0
  -23.4145  -30.4859   21.5440 C   0  0  2  0  0  0
  -24.8638  -28.9447   20.1050 C   0  0  0  0  0  0
  -22.7453  -29.4642   22.4933 C   0  0  0  0  0  0
  -18.0281  -28.1372   22.8487 C   0  0  0  0  0  0
  -24.1486  -36.7315   23.2644 C   0  0  0  0  0  0
  -25.9518  -30.8051   21.3686 C   0  0  0  0  0  0
  -26.0276  -29.4349   20.7110 C   0  0  0  0  0  0
  -27.2127  -28.6492   20.7094 C   0  0  0  0  0  0
  -26.0468  -26.9051   19.4854 C   0  0  0  0  0  0
  -24.8732  -27.6839   19.4849 C   0  0  0  0  0  0
  -23.6279  -29.8187   20.1582 C   0  0  0  0  0  0
  -25.4108  -36.3097   24.0336 C   0  0  1  0  0  0
  -20.5873  -28.3691   23.1288 C   0  0  2  0  0  0
  -20.6773  -26.9417   22.5413 C   0  0  0  0  0  0
  -19.5753  -26.6399   21.5209 C   0  0  0  0  0  0
  -18.1930  -26.7920   22.1611 C   0  0  0  0  0  0
  -19.1526  -28.8841   23.2899 C   0  0  0  0  0  0
  -18.9451  -30.1438   23.8914 C   0  0  0  0  0  0
  -17.6453  -30.6573   24.0559 C   0  0  0  0  0  0
  -25.9042  -34.9459   23.5121 C   0  0  0  0  0  0
  -16.5346  -29.9076   23.6316 C   0  0  0  0  0  0
  -16.7267  -28.6492   23.0337 C   0  0  0  0  0  0
  -26.4478  -31.6582   25.0721 C   0  0  0  0  0  0
  -25.3736  -31.3696   26.1465 C   0  0  0  0  0  0
  -27.0317  -30.3017   24.6137 C   0  0  0  0  0  0
  -27.6034  -32.4323   25.7487 C   0  0  0  0  0  0
  -27.5583  -37.1808   24.8465 C   0  0  0  0  0  0
  -21.4168  -29.3052   22.3682 N   0  0  0  0  0  0
  -26.4298  -37.3779   23.9402 N   0  0  0  0  0  0
  -24.6810  -31.0675   22.0956 N   0  0  0  0  0  0
  -23.4195  -28.8193   23.3007 O   0  0  0  0  0  0
  -28.3406  -26.5186   20.2041 O   0  0  0  0  0  0
  -26.5621  -34.8918   22.4697 O   0  0  0  0  0  0
  -23.5395  -32.1386   23.7403 O   0  0  0  0  0  0
  -28.5836  -18.1851   22.0744 C   0  0  0  0  0  0
  -29.6021  -19.4285   20.2547 C   0  0  0  0  0  0
  -28.2508  -20.6088   21.8926 C   0  0  0  0  0  0
  -29.4073  -18.1727   20.9275 C   0  0  0  0  0  0
  -28.0148  -19.3838   22.5550 C   0  0  0  0  0  0
  -29.0323  -20.6673   20.7175 C   0  0  0  0  0  0
  -28.8236  -24.2253   19.3310 C   0  0  0  0  0  0
  -30.0550  -16.8660   20.4857 C   0  0  0  0  0  0
  -28.5964  -25.5727   19.2189 C   0  0  0  0  0  0
  -29.2024  -23.3874   18.1283 C   0  0  0  0  0  0
  -28.7886  -23.2599   20.5303 C   0  0  0  0  0  0
  -29.2355  -21.9198   18.5855 C   0  0  0  0  0  0
  -27.1424  -19.3453   23.7952 C   0  0  0  0  0  0
  -29.8817  -15.6848   21.0078 N   0  0  0  0  0  0
  -29.2220  -21.9202   20.0425 N   0  0  0  0  0  0
  -31.4741  -12.4704   19.1590 H   0  0  0  0  0  0
  -30.3433  -11.3730   19.8938 H   0  0  0  0  0  0
  -29.7711  -11.7652   17.4760 H   0  0  0  0  0  0
  -29.6563  -13.4847   17.7650 H   0  0  0  0  0  0
  -27.8765  -11.2920   18.8810 H   0  0  0  0  0  0
  -27.3739  -12.5649   17.7994 H   0  0  0  0  0  0
  -27.6807  -14.2550   19.5330 H   0  0  0  0  0  0
  -28.6931  -12.0514   21.3886 H   0  0  0  0  0  0
  -28.4448  -13.7131   21.8409 H   0  0  0  0  0  0
  -25.2768   -9.5678   22.4755 H   0  0  0  0  0  0
  -24.0002   -7.4634   22.7479 H   0  0  0  0  0  0
  -21.0846   -8.8790   19.8945 H   0  0  0  0  0  0
  -22.3722  -10.9681   19.6153 H   0  0  0  0  0  0
  -21.2006   -7.6147   23.9720 H   0  0  0  0  0  0
  -21.1477   -6.0516   25.9078 H   0  0  0  0  0  0
  -22.0600   -2.7611   23.2841 H   0  0  0  0  0  0
  -22.4119  -11.9868   22.4758 H   0  0  0  0  0  0
  -21.1124  -13.1247   22.2618 H   0  0  0  0  0  0
  -24.6800  -15.8558   20.5600 H   0  0  0  0  0  0
  -26.3102  -15.6274   20.1698 H   0  0  0  0  0  0
  -26.7148  -32.5474   23.1125 H   0  0  0  0  0  0
  -25.0001  -33.9732   25.0412 H   0  0  0  0  0  0
  -22.7076  -31.3061   21.4024 H   0  0  0  0  0  0
  -23.3735  -35.9661   23.3309 H   0  0  0  0  0  0
  -24.3588  -36.8936   22.2061 H   0  0  0  0  0  0
  -23.7252  -37.6525   23.6665 H   0  0  0  0  0  0
  -26.0800  -31.5708   20.6017 H   0  0  0  0  0  0
  -26.8334  -30.8546   21.9962 H   0  0  0  0  0  0
  -28.1042  -29.0139   21.2001 H   0  0  0  0  0  0
  -26.0086  -25.9258   19.0298 H   0  0  0  0  0  0
  -23.9769  -27.2980   19.0186 H   0  0  0  0  0  0
  -23.7428  -30.5934   19.3995 H   0  0  0  0  0  0
  -22.7483  -29.2459   19.8591 H   0  0  0  0  0  0
  -25.1288  -36.1958   25.0831 H   0  0  0  0  0  0
  -20.9973  -28.3255   24.1401 H   0  0  0  0  0  0
  -20.5686  -26.2299   23.3608 H   0  0  0  0  0  0
  -21.6639  -26.7452   22.1198 H   0  0  0  0  0  0
  -19.6938  -25.6326   21.1197 H   0  0  0  0  0  0
  -19.6701  -27.3254   20.6774 H   0  0  0  0  0  0
  -17.4212  -26.6708   21.3989 H   0  0  0  0  0  0
  -18.0319  -26.0046   22.8991 H   0  0  0  0  0  0
  -19.7921  -30.7253   24.2295 H   0  0  0  0  0  0
  -17.4988  -31.6256   24.5152 H   0  0  0  0  0  0
  -15.5340  -30.2982   23.7606 H   0  0  0  0  0  0
  -15.8671  -28.0817   22.7029 H   0  0  0  0  0  0
  -24.5895  -30.7060   25.7803 H   0  0  0  0  0  0
  -24.8943  -32.2855   26.4938 H   0  0  0  0  0  0
  -25.8083  -30.8842   27.0213 H   0  0  0  0  0  0
  -26.2874  -29.6768   24.1186 H   0  0  0  0  0  0
  -27.4070  -29.7266   25.4614 H   0  0  0  0  0  0
  -27.8719  -30.4325   23.9311 H   0  0  0  0  0  0
  -27.2621  -33.3604   26.2089 H   0  0  0  0  0  0
  -28.3817  -32.6922   25.0299 H   0  0  0  0  0  0
  -28.0730  -31.8442   26.5386 H   0  0  0  0  0  0
  -28.2598  -38.0105   24.7500 H   0  0  0  0  0  0
  -28.1076  -36.2636   24.6293 H   0  0  0  0  0  0
  -27.2307  -37.1469   25.8870 H   0  0  0  0  0  0
  -20.9354  -29.8741   21.6860 H   0  0  0  0  0  0
  -26.0187  -38.2864   24.1371 H   0  0  0  0  0  0
  -28.3956  -17.2613   22.6064 H   0  0  0  0  0  0
  -30.2239  -19.4365   19.3718 H   0  0  0  0  0  0
  -27.8009  -21.5055   22.2946 H   0  0  0  0  0  0
  -30.7350  -16.9899   19.6358 H   0  0  0  0  0  0
  -28.6721  -26.0588   18.2558 H   0  0  0  0  0  0
  -30.1940  -23.6942   17.7921 H   0  0  0  0  0  0
  -28.5105  -23.5402   17.2989 H   0  0  0  0  0  0
  -27.7682  -23.2270   20.9163 H   0  0  0  0  0  0
  -29.4419  -23.6206   21.3263 H   0  0  0  0  0  0
  -30.1142  -21.4091   18.1885 H   0  0  0  0  0  0
  -28.3510  -21.3961   18.2186 H   0  0  0  0  0  0
  -27.6534  -18.8227   24.6051 H   0  0  0  0  0  0
  -26.2115  -18.8163   23.5865 H   0  0  0  0  0  0
  -26.8920  -20.3473   24.1449 H   0  0  0  0  0  0
  1 25  1  0  0  0
  1 30  2  0  0  0
  1 84  1  0  0  0
  2  3  1  0  0  0
  2 25  1  0  0  0
  2 86  1  0  0  0
  2 87  1  0  0  0
  3  4  1  0  0  0
  3 88  1  0  0  0
  3 89  1  0  0  0
  4  5  1  0  0  0
  4 90  1  0  0  0
  4 91  1  0  0  0
  5  6  1  0  0  0
  5 26  1  0  0  0
  5 92  1  0  0  0
  6 25  1  0  0  0
  6 93  1  0  0  0
  6 94  1  0  0  0
  7  8  2  0  0  0
  7 26  1  0  0  0
  7 29  1  0  0  0
  8  9  1  0  0  0
  8 22  1  0  0  0
  9 10  1  0  0  0
  9 27  2  0  0  0
 10 11  2  0  0  0
 10 15  1  0  0  0
 11 12  1  0  0  0
 11 95  1  0  0  0
 12 13  2  0  0  0
 12 96  1  0  0  0
 13 14  1  0  0  0
 13 31  1  0  0  0
 14 15  2  0  0  0
 14 97  1  0  0  0
 15 98  1  0  0  0
 16 17  2  0  0  0
 16 21  1  0  0  0
 16 31  1  0  0  0
 17 18  1  0  0  0
 17 99  1  0  0  0
 18 19  2  0  0  0
 18100  1  0  0  0
 19 20  1  0  0  0
 19 24  1  0  0  0
 20 21  2  0  0  0
 20101  1  0  0  0
 21 23  1  0  0  0
 22 28  1  0  0  0
 22 32  2  0  0  0
 26 27  1  0  0  0
 28102  1  0  0  0
 28103  1  0  0  0
 29104  1  0  0  0
 29105  1  0  0  0
 33 34  1  0  0  0
 33 66  1  0  0  0
 33 70  2  0  0  0
 34 36  1  0  0  0
 34 59  1  0  0  0
 34106  1  0  0  0
 35 44  2  0  0  0
 35 45  1  0  0  0
 35 68  1  0  0  0
 36 56  1  0  0  0
 36107  1  0  0  0
 37 39  1  0  0  0
 37 47  1  0  0  0
 37 66  1  0  0  0
 37108  1  0  0  0
 38 43  2  0  0  0
 38 46  1  0  0  0
 38 47  1  0  0  0
 39 64  1  0  0  0
 39 67  2  0  0  0
 40 52  1  0  0  0
 40 53  2  0  0  0
 40 58  1  0  0  0
 41109  1  0  0  0
 41110  1  0  0  0
 41111  1  0  0  0
 41 48  1  0  0  0
 42 43  1  0  0  0
 42 66  1  0  0  0
 42112  1  0  0  0
 42113  1  0  0  0
 43 44  1  0  0  0
 44114  1  0  0  0
 45 46  2  0  0  0
 45115  1  0  0  0
 46116  1  0  0  0
 47117  1  0  0  0
 47118  1  0  0  0
 48 56  1  0  0  0
 48 65  1  0  0  0
 48119  1  0  0  0
 49 50  1  0  0  0
 49 53  1  0  0  0
 49 64  1  0  0  0
 49120  1  0  0  0
 50 51  1  0  0  0
 50121  1  0  0  0
 50122  1  0  0  0
 51 52  1  0  0  0
 51123  1  0  0  0
 51124  1  0  0  0
 52125  1  0  0  0
 52126  1  0  0  0
 53 54  1  0  0  0
 54 55  2  0  0  0
 54127  1  0  0  0
 55 57  1  0  0  0
 55128  1  0  0  0
 56 69  2  0  0  0
 57 58  2  0  0  0
 57129  1  0  0  0
 58130  1  0  0  0
 59 60  1  0  0  0
 59 61  1  0  0  0
 59 62  1  0  0  0
 60131  1  0  0  0
 60132  1  0  0  0
 60133  1  0  0  0
 61134  1  0  0  0
 61135  1  0  0  0
 61136  1  0  0  0
 62137  1  0  0  0
 62138  1  0  0  0
 62139  1  0  0  0
 63 65  1  0  0  0
 63140  1  0  0  0
 63141  1  0  0  0
 63142  1  0  0  0
 64143  1  0  0  0
 65144  1  0  0  0
 68 79  1  0  0  0
 71 74  2  0  0  0
 71 75  1  0  0  0
 71145  1  0  0  0
 72 74  1  0  0  0
 72 76  2  0  0  0
 72146  1  0  0  0
 73 75  2  0  0  0
 73 76  1  0  0  0
 73147  1  0  0  0
 74 78  1  0  0  0
 75 83  1  0  0  0
 76 85  1  0  0  0
 77 79  2  0  0  0
 77 80  1  0  0  0
 77 81  1  0  0  0
 78 84  2  0  0  0
 78148  1  0  0  0
 79149  1  0  0  0
 80 82  1  0  0  0
 80150  1  0  0  0
 80151  1  0  0  0
 81 85  1  0  0  0
 81152  1  0  0  0
 81153  1  0  0  0
 82 85  1  0  0  0
 82154  1  0  0  0
 82155  1  0  0  0
 83156  1  0  0  0
 83157  1  0  0  0
 83158  1  0  0  0
M  ISO  4   1 100  68 101  79 101  84 100
M  END
> <chiral flag>
0

> <version>
0

> <s_m_source_file>
/data/baiqing/PycharmProjects/Reinvent-master-3.2/result/LINK_invent/BTK/process_docking_weight1_custom_product_contain_oxygen_bond_distance_aromatic_linkinvent_7_9_3/rearranged_h_0123.sdf

> <i_m_source_file_index>
39

> <r_mmod_Potential_Energy-OPLS-2005>
56.362190246582

> <r_mmod_Stretch_Energy-OPLS-2005>
65.3296661376953

> <r_mmod_Bend_Energy-OPLS-2005>
155.784423828125

> <r_mmod_Torsional_Energy-OPLS-2005>
190.673187255859

> <r_mmod_Improper_Torsional_Energy-OPLS-2005>
5.68754148483276

> <r_mmod_Van_der_Waal_Energy-OPLS-2005>
150.863388061523

> <r_mmod_Electrostatic_Energy-OPLS-2005>
-348.8759765625

> <r_mmod_Solvation_Energy-OPLS-2005>
-200.497039794922

> <b_mmod_Minimization_Converged-OPLS-2005>
0

> <r_mmod_RMS_Derivative-OPLS-2005>
1.64444053173065

$$$$
39
                    3D
 Structure written by MMmdl.
166174  0  0  1  0            999 V2000
  -30.7571  -14.3464   20.7040 C   0  0  0  0  0  0
  -30.4237  -12.2890   19.3780 C   0  0  0  0  0  0
  -29.4812  -12.5300   18.1840 C   0  0  0  0  0  0
  -28.0065  -12.3761   18.6027 C   0  0  0  0  0  0
  -27.6672  -13.1892   19.8775 C   0  0  2  0  0  0
  -28.7042  -12.9091   20.9856 C   0  0  0  0  0  0
  -25.2616  -13.8104   20.5654 C   0  0  0  0  0  0
  -24.1852  -13.0409   20.9156 C   0  0  0  0  0  0
  -24.6385  -11.6871   20.8721 C   0  0  0  0  0  0
  -23.9047  -10.4268   21.0402 C   0  0  0  0  0  0
  -24.3598   -9.4189   21.9188 C   0  0  0  0  0  0
  -23.6274   -8.2225   22.0756 C   0  0  0  0  0  0
  -22.4262   -8.0259   21.3541 C   0  0  0  0  0  0
  -21.9894   -9.0236   20.4650 C   0  0  0  0  0  0
  -22.7220  -10.2117   20.3055 C   0  0  0  0  0  0
  -21.6845   -6.0718   22.5277 C   0  0  0  0  0  0
  -21.4006   -6.5625   23.8209 C   0  0  0  0  0  0
  -21.3660   -5.6784   24.9176 C   0  0  0  0  0  0
  -21.6045   -4.3045   24.7233 C   0  0  0  0  0  0
  -21.8822   -3.8133   23.4355 C   0  0  0  0  0  0
  -21.9193   -4.6946   22.3407 C   0  0  0  0  0  0
  -22.7882  -13.5233   21.1819 C   0  0  0  0  0  0
  -22.1659   -4.2124   21.0988 F   0  0  0  0  0  0
  -21.5641   -3.4537   25.7752 F   0  0  0  0  0  0
  -30.0513  -13.2127   20.4574 N   0  0  0  0  0  0
  -26.3042  -12.9253   20.3348 N   0  0  0  0  0  0
  -25.9300  -11.6423   20.5735 N   0  0  0  0  0  0
  -22.0514  -12.8229   22.0372 N   0  0  0  0  0  0
  -25.4326  -15.1814   20.4072 N   0  0  0  0  0  0
  -31.7641  -14.6791   20.0701 O   0  0  0  0  0  0
  -21.6628   -6.8857   21.4237 O   0  0  0  0  0  0
  -22.3577  -14.5543   20.6674 O   0  0  0  0  0  0
  -24.6095  -31.8719   23.2131 C   0  0  0  0  0  0
  -25.9009  -32.4843   23.8403 C   0  0  1  0  0  0
  -27.2432  -27.4806   20.0987 C   0  0  0  0  0  0
  -25.5863  -33.8634   24.2333 N   0  0  0  0  0  0
  -23.3962  -30.4950   21.5516 C   0  0  2  0  0  0
  -24.8466  -28.9640   20.1201 C   0  0  0  0  0  0
  -22.7387  -29.4690   22.5017 C   0  0  0  0  0  0
  -18.0270  -28.1380   22.8510 C   0  0  0  0  0  0
  -24.1483  -36.7319   23.2643 C   0  0  0  0  0  0
  -25.9185  -30.8510   21.3611 C   0  0  0  0  0  0
  -26.0004  -29.4840   20.7225 C   0  0  0  0  0  0
  -27.2019  -28.7454   20.7230 C   0  0  0  0  0  0
  -26.0785  -26.9686   19.4920 C   0  0  0  0  0  0
  -24.8764  -27.6997   19.5065 C   0  0  0  0  0  0
  -23.6045  -29.8234   20.1669 C   0  0  0  0  0  0
  -25.4100  -36.3125   24.0352 C   0  0  1  0  0  0
  -20.5853  -28.3645   23.1336 C   0  0  2  0  0  0
  -20.6763  -26.9394   22.5418 C   0  0  0  0  0  0
  -19.5744  -26.6393   21.5214 C   0  0  0  0  0  0
  -18.1924  -26.7935   22.1628 C   0  0  0  0  0  0
  -19.1524  -28.8831   23.2921 C   0  0  0  0  0  0
  -18.9467  -30.1445   23.8913 C   0  0  0  0  0  0
  -17.6478  -30.6587   24.0584 C   0  0  0  0  0  0
  -25.9016  -34.9488   23.5141 C   0  0  0  0  0  0
  -16.5358  -29.9110   23.6335 C   0  0  0  0  0  0
  -16.7267  -28.6528   23.0350 C   0  0  0  0  0  0
  -26.4441  -31.6614   25.0711 C   0  0  0  0  0  0
  -25.3712  -31.3741   26.1466 C   0  0  0  0  0  0
  -27.0271  -30.3072   24.6043 C   0  0  0  0  0  0
  -27.6008  -32.4331   25.7471 C   0  0  0  0  0  0
  -27.5581  -37.1815   24.8475 C   0  0  0  0  0  0
  -21.4122  -29.3026   22.3749 N   0  0  0  0  0  0
  -26.4296  -37.3801   23.9415 N   0  0  0  0  0  0
  -24.6588  -31.0867   22.1006 N   0  0  0  0  0  0
  -23.4193  -28.8246   23.3038 O   0  0  0  0  0  0
  -28.3765  -26.7167   19.9982 O   0  0  0  0  0  0
  -26.5598  -34.8943   22.4712 O   0  0  0  0  0  0
  -23.5294  -32.1442   23.7565 O   0  0  0  0  0  0
  -29.9745  -18.7323   22.1553 C   0  0  0  0  0  0
  -32.0324  -17.9989   23.2274 C   0  0  0  0  0  0
  -29.7051  -17.4194   21.7279 C   0  0  0  0  0  0
  -31.1359  -19.0352   22.9012 C   0  0  0  0  0  0
  -30.6118  -16.3824   22.0637 C   0  0  0  0  0  0
  -31.7748  -16.6753   22.8172 C   0  0  0  0  0  0
  -31.3389  -22.6676   22.7743 C   0  0  0  0  0  0
  -31.4476  -23.5878   21.8033 C   0  0  0  0  0  0
  -31.4850  -21.2380   22.4806 C   0  0  0  0  0  0
  -27.4827  -17.2785   18.5161 C   0  0  0  0  0  0
  -28.4503  -17.1791   20.8965 C   0  0  0  0  0  0
  -31.1086  -25.0555   21.9543 C   0  0  0  0  0  0
  -28.6476  -17.6436   19.4437 C   0  0  0  0  0  0
  -29.9659  -25.3632   20.9768 C   0  0  0  0  0  0
  -29.3312  -26.7565   21.0489 C   0  0  0  0  0  0
  -31.3512  -20.3349   23.3627 N   0  0  0  0  0  0
  -30.2926  -15.0453   21.7441 N   0  0  0  0  0  0
  -32.8733  -15.4250   23.2937 Cl  0  0  0  0  0  0
  -31.4630  -12.4099   19.0682 H   0  0  0  0  0  0
  -30.3385  -11.2598   19.7288 H   0  0  0  0  0  0
  -29.7124  -11.8344   17.3761 H   0  0  0  0  0  0
  -29.6446  -13.5317   17.7821 H   0  0  0  0  0  0
  -27.8158  -11.3164   18.7771 H   0  0  0  0  0  0
  -27.3496  -12.6700   17.7829 H   0  0  0  0  0  0
  -27.7327  -14.2428   19.6131 H   0  0  0  0  0  0
  -28.6666  -11.8576   21.2735 H   0  0  0  0  0  0
  -28.4368  -13.4559   21.8900 H   0  0  0  0  0  0
  -25.2744   -9.5659   22.4760 H   0  0  0  0  0  0
  -23.9981   -7.4612   22.7470 H   0  0  0  0  0  0
  -21.0827   -8.8752   19.8950 H   0  0  0  0  0  0
  -22.3680  -10.9654   19.6159 H   0  0  0  0  0  0
  -21.1981   -7.6130   23.9703 H   0  0  0  0  0  0
  -21.1484   -6.0517   25.9079 H   0  0  0  0  0  0
  -22.0601   -2.7590   23.2869 H   0  0  0  0  0  0
  -22.4118  -11.9873   22.4733 H   0  0  0  0  0  0
  -21.1135  -13.1263   22.2576 H   0  0  0  0  0  0
  -24.6615  -15.8316   20.5084 H   0  0  0  0  0  0
  -26.2764  -15.6164   20.0608 H   0  0  0  0  0  0
  -26.7090  -32.5586   23.1185 H   0  0  0  0  0  0
  -24.9999  -33.9794   25.0467 H   0  0  0  0  0  0
  -22.6820  -31.3089   21.4118 H   0  0  0  0  0  0
  -23.3736  -35.9659   23.3328 H   0  0  0  0  0  0
  -24.3568  -36.8900   22.2049 H   0  0  0  0  0  0
  -23.7253  -37.6541   23.6628 H   0  0  0  0  0  0
  -26.0140  -31.6126   20.5857 H   0  0  0  0  0  0
  -26.8117  -30.9154   21.9699 H   0  0  0  0  0  0
  -28.0908  -29.1598   21.1784 H   0  0  0  0  0  0
  -26.1090  -26.0008   19.0109 H   0  0  0  0  0  0
  -23.9903  -27.2909   19.0382 H   0  0  0  0  0  0
  -23.7030  -30.5932   19.4014 H   0  0  0  0  0  0
  -22.7327  -29.2341   19.8768 H   0  0  0  0  0  0
  -25.1279  -36.1981   25.0846 H   0  0  0  0  0  0
  -20.9928  -28.3191   24.1460 H   0  0  0  0  0  0
  -20.5660  -26.2254   23.3595 H   0  0  0  0  0  0
  -21.6640  -26.7450   22.1207 H   0  0  0  0  0  0
  -19.6909  -25.6314   21.1220 H   0  0  0  0  0  0
  -19.6683  -27.3228   20.6764 H   0  0  0  0  0  0
  -17.4196  -26.6689   21.4029 H   0  0  0  0  0  0
  -18.0325  -26.0061   22.9001 H   0  0  0  0  0  0
  -19.7947  -30.7258   24.2264 H   0  0  0  0  0  0
  -17.5046  -31.6263   24.5193 H   0  0  0  0  0  0
  -15.5369  -30.3035   23.7641 H   0  0  0  0  0  0
  -15.8662  -28.0865   22.7041 H   0  0  0  0  0  0
  -24.5836  -30.7144   25.7816 H   0  0  0  0  0  0
  -24.8961  -32.2924   26.4927 H   0  0  0  0  0  0
  -25.8044  -30.8888   27.0223 H   0  0  0  0  0  0
  -26.2817  -29.6842   24.1091 H   0  0  0  0  0  0
  -27.4080  -29.7277   25.4463 H   0  0  0  0  0  0
  -27.8618  -30.4420   23.9161 H   0  0  0  0  0  0
  -27.2598  -33.3605   26.2084 H   0  0  0  0  0  0
  -28.3789  -32.6936   25.0288 H   0  0  0  0  0  0
  -28.0702  -31.8448   26.5367 H   0  0  0  0  0  0
  -28.2613  -38.0099   24.7496 H   0  0  0  0  0  0
  -28.1063  -36.2627   24.6318 H   0  0  0  0  0  0
  -27.2304  -37.1491   25.8883 H   0  0  0  0  0  0
  -20.9272  -29.8741   21.6974 H   0  0  0  0  0  0
  -26.0191  -38.2885   24.1395 H   0  0  0  0  0  0
  -29.2687  -19.5155   21.9131 H   0  0  0  0  0  0
  -32.9153  -18.2083   23.8130 H   0  0  0  0  0  0
  -31.0810  -22.9245   23.7918 H   0  0  0  0  0  0
  -31.7445  -23.2804   20.8089 H   0  0  0  0  0  0
  -31.6393  -20.9979   21.4226 H   0  0  0  0  0  0
  -27.6517  -17.6691   17.5119 H   0  0  0  0  0  0
  -26.5387  -17.6898   18.8760 H   0  0  0  0  0  0
  -27.3711  -16.1992   18.4236 H   0  0  0  0  0  0
  -27.6175  -17.7186   21.3504 H   0  0  0  0  0  0
  -28.1602  -16.1316   20.9234 H   0  0  0  0  0  0
  -31.9884  -25.6636   21.7359 H   0  0  0  0  0  0
  -30.8091  -25.2713   22.9815 H   0  0  0  0  0  0
  -28.7992  -18.7244   19.4234 H   0  0  0  0  0  0
  -29.5614  -17.2018   19.0444 H   0  0  0  0  0  0
  -29.1705  -24.6313   21.1312 H   0  0  0  0  0  0
  -30.3242  -25.1969   19.9590 H   0  0  0  0  0  0
  -30.0607  -27.5472   20.8701 H   0  0  0  0  0  0
  -28.8668  -26.9204   22.0240 H   0  0  0  0  0  0
  -29.4720  -14.6619   22.1858 H   0  0  0  0  0  0
  1 25  1  0  0  0
  1 30  2  0  0  0
  1 87  1  0  0  0
  2  3  1  0  0  0
  2 25  1  0  0  0
  2 89  1  0  0  0
  2 90  1  0  0  0
  3  4  1  0  0  0
  3 91  1  0  0  0
  3 92  1  0  0  0
  4  5  1  0  0  0
  4 93  1  0  0  0
  4 94  1  0  0  0
  5  6  1  0  0  0
  5 26  1  0  0  0
  5 95  1  0  0  0
  6 25  1  0  0  0
  6 96  1  0  0  0
  6 97  1  0  0  0
  7  8  2  0  0  0
  7 26  1  0  0  0
  7 29  1  0  0  0
  8  9  1  0  0  0
  8 22  1  0  0  0
  9 10  1  0  0  0
  9 27  2  0  0  0
 10 11  2  0  0  0
 10 15  1  0  0  0
 11 12  1  0  0  0
 11 98  1  0  0  0
 12 13  2  0  0  0
 12 99  1  0  0  0
 13 14  1  0  0  0
 13 31  1  0  0  0
 14 15  2  0  0  0
 14100  1  0  0  0
 15101  1  0  0  0
 16 17  2  0  0  0
 16 21  1  0  0  0
 16 31  1  0  0  0
 17 18  1  0  0  0
 17102  1  0  0  0
 18 19  2  0  0  0
 18103  1  0  0  0
 19 20  1  0  0  0
 19 24  1  0  0  0
 20 21  2  0  0  0
 20104  1  0  0  0
 21 23  1  0  0  0
 22 28  1  0  0  0
 22 32  2  0  0  0
 26 27  1  0  0  0
 28105  1  0  0  0
 28106  1  0  0  0
 29107  1  0  0  0
 29108  1  0  0  0
 33 34  1  0  0  0
 33 66  1  0  0  0
 33 70  2  0  0  0
 34 36  1  0  0  0
 34 59  1  0  0  0
 34109  1  0  0  0
 35 44  2  0  0  0
 35 45  1  0  0  0
 35 68  1  0  0  0
 36 56  1  0  0  0
 36110  1  0  0  0
 37 39  1  0  0  0
 37 47  1  0  0  0
 37 66  1  0  0  0
 37111  1  0  0  0
 38 43  2  0  0  0
 38 46  1  0  0  0
 38 47  1  0  0  0
 39 64  1  0  0  0
 39 67  2  0  0  0
 40 52  1  0  0  0
 40 53  2  0  0  0
 40 58  1  0  0  0
 41112  1  0  0  0
 41113  1  0  0  0
 41114  1  0  0  0
 41 48  1  0  0  0
 42 43  1  0  0  0
 42 66  1  0  0  0
 42115  1  0  0  0
 42116  1  0  0  0
 43 44  1  0  0  0
 44117  1  0  0  0
 45 46  2  0  0  0
 45118  1  0  0  0
 46119  1  0  0  0
 47120  1  0  0  0
 47121  1  0  0  0
 48 56  1  0  0  0
 48 65  1  0  0  0
 48122  1  0  0  0
 49 50  1  0  0  0
 49 53  1  0  0  0
 49 64  1  0  0  0
 49123  1  0  0  0
 50 51  1  0  0  0
 50124  1  0  0  0
 50125  1  0  0  0
 51 52  1  0  0  0
 51126  1  0  0  0
 51127  1  0  0  0
 52128  1  0  0  0
 52129  1  0  0  0
 53 54  1  0  0  0
 54 55  2  0  0  0
 54130  1  0  0  0
 55 57  1  0  0  0
 55131  1  0  0  0
 56 69  2  0  0  0
 57 58  2  0  0  0
 57132  1  0  0  0
 58133  1  0  0  0
 59 60  1  0  0  0
 59 61  1  0  0  0
 59 62  1  0  0  0
 60134  1  0  0  0
 60135  1  0  0  0
 60136  1  0  0  0
 61137  1  0  0  0
 61138  1  0  0  0
 61139  1  0  0  0
 62140  1  0  0  0
 62141  1  0  0  0
 62142  1  0  0  0
 63 65  1  0  0  0
 63143  1  0  0  0
 63144  1  0  0  0
 63145  1  0  0  0
 64146  1  0  0  0
 65147  1  0  0  0
 68 85  1  0  0  0
 71 73  2  0  0  0
 71 74  1  0  0  0
 71148  1  0  0  0
 72 74  2  0  0  0
 72 76  1  0  0  0
 72149  1  0  0  0
 73 75  1  0  0  0
 73 81  1  0  0  0
 74 86  1  0  0  0
 75 76  2  0  0  0
 75 87  1  0  0  0
 76 88  1  0  0  0
 77 78  2  0  0  0
 77 79  1  0  0  0
 77150  1  0  0  0
 78 82  1  0  0  0
 78151  1  0  0  0
 79 86  2  0  0  0
 79152  1  0  0  0
 80 83  1  0  0  0
 80153  1  0  0  0
 80154  1  0  0  0
 80155  1  0  0  0
 81 83  1  0  0  0
 81156  1  0  0  0
 81157  1  0  0  0
 82 84  1  0  0  0
 82158  1  0  0  0
 82159  1  0  0  0
 83160  1  0  0  0
 83161  1  0  0  0
 84 85  1  0  0  0
 84162  1  0  0  0
 84163  1  0  0  0
 85164  1  0  0  0
 85165  1  0  0  0
 87166  1  0  0  0
M  ISO  4   1 100  68 101  85 101  87 100
M  END
> <chiral flag>
0

> <version>
0

> <s_m_source_file>
/data/baiqing/PycharmProjects/Reinvent-master-3.2/result/LINK_invent/BTK/process_docking_weight1_custom_product_contain_oxygen_bond_distance_aromatic_linkinvent_7_9_3/rearranged_h_0123.sdf

> <i_m_source_file_index>
40

> <r_mmod_Potential_Energy-OPLS-2005>
-55.6264572143555

> <r_mmod_Stretch_Energy-OPLS-2005>
30.7426300048828

> <r_mmod_Bend_Energy-OPLS-2005>
98.4535064697266

> <r_mmod_Torsional_Energy-OPLS-2005>
254.382781982422

> <r_mmod_Improper_Torsional_Energy-OPLS-2005>
4.79239273071289

> <r_mmod_Van_der_Waal_Energy-OPLS-2005>
147.718505859375

> <r_mmod_Electrostatic_Energy-OPLS-2005>
-394.657348632812

> <r_mmod_Solvation_Energy-OPLS-2005>
-203.258026123047

> <b_mmod_Minimization_Converged-OPLS-2005>
0

> <r_mmod_RMS_Derivative-OPLS-2005>
1.89130556583405

$$$$
40
                    3D
 Structure written by MMmdl.
159167  0  0  1  0            999 V2000
  -30.6981  -14.4169   20.6634 C   0  0  0  0  0  0
  -30.4372  -12.3155   19.3827 C   0  0  0  0  0  0
  -29.4888  -12.5356   18.1852 C   0  0  0  0  0  0
  -28.0101  -12.3922   18.5991 C   0  0  0  0  0  0
  -27.6673  -13.1974   19.8804 C   0  0  2  0  0  0
  -28.7075  -12.9063   20.9825 C   0  0  0  0  0  0
  -25.2625  -13.8116   20.5703 C   0  0  0  0  0  0
  -24.1848  -13.0413   20.9138 C   0  0  0  0  0  0
  -24.6386  -11.6886   20.8682 C   0  0  0  0  0  0
  -23.9037  -10.4287   21.0355 C   0  0  0  0  0  0
  -24.3603   -9.4218   21.9146 C   0  0  0  0  0  0
  -23.6303   -8.2240   22.0726 C   0  0  0  0  0  0
  -22.4290   -8.0254   21.3516 C   0  0  0  0  0  0
  -21.9893   -9.0220   20.4622 C   0  0  0  0  0  0
  -22.7191  -10.2119   20.3023 C   0  0  0  0  0  0
  -21.6850   -6.0729   22.5281 C   0  0  0  0  0  0
  -21.4002   -6.5636   23.8221 C   0  0  0  0  0  0
  -21.3662   -5.6792   24.9179 C   0  0  0  0  0  0
  -21.6046   -4.3050   24.7231 C   0  0  0  0  0  0
  -21.8822   -3.8149   23.4343 C   0  0  0  0  0  0
  -21.9199   -4.6961   22.3408 C   0  0  0  0  0  0
  -22.7872  -13.5216   21.1832 C   0  0  0  0  0  0
  -22.1670   -4.2163   21.0979 F   0  0  0  0  0  0
  -21.5642   -3.4522   25.7732 F   0  0  0  0  0  0
  -30.0519  -13.2373   20.4604 N   0  0  0  0  0  0
  -26.3054  -12.9272   20.3373 N   0  0  0  0  0  0
  -25.9305  -11.6437   20.5711 N   0  0  0  0  0  0
  -22.0535  -12.8225   22.0412 N   0  0  0  0  0  0
  -25.4384  -15.1829   20.4255 N   0  0  0  0  0  0
  -31.7025  -14.7657   20.0350 O   0  0  0  0  0  0
  -21.6637   -6.8857   21.4239 O   0  0  0  0  0  0
  -22.3540  -14.5503   20.6661 O   0  0  0  0  0  0
  -24.6121  -31.8675   23.2098 C   0  0  0  0  0  0
  -25.9026  -32.4816   23.8382 C   0  0  1  0  0  0
  -27.2505  -27.4594   20.0804 C   0  0  0  0  0  0
  -25.5877  -33.8615   24.2328 N   0  0  0  0  0  0
  -23.4003  -30.4892   21.5476 C   0  0  2  0  0  0
  -24.8505  -28.9566   20.1111 C   0  0  0  0  0  0
  -22.7395  -29.4653   22.4974 C   0  0  0  0  0  0
  -18.0269  -28.1373   22.8483 C   0  0  0  0  0  0
  -24.1478  -36.7319   23.2642 C   0  0  0  0  0  0
  -25.9261  -30.8362   21.3621 C   0  0  0  0  0  0
  -26.0050  -29.4701   20.7145 C   0  0  0  0  0  0
  -27.2024  -28.7221   20.7100 C   0  0  0  0  0  0
  -26.0736  -26.9450   19.4915 C   0  0  0  0  0  0
  -24.8780  -27.6892   19.5016 C   0  0  0  0  0  0
  -23.6079  -29.8174   20.1621 C   0  0  0  0  0  0
  -25.4096  -36.3121   24.0345 C   0  0  1  0  0  0
  -20.5854  -28.3657   23.1311 C   0  0  2  0  0  0
  -20.6750  -26.9386   22.5424 C   0  0  0  0  0  0
  -19.5736  -26.6374   21.5212 C   0  0  0  0  0  0
  -18.1913  -26.7917   22.1622 C   0  0  0  0  0  0
  -19.1518  -28.8829   23.2892 C   0  0  0  0  0  0
  -18.9451  -30.1431   23.8905 C   0  0  0  0  0  0
  -17.6457  -30.6573   24.0568 C   0  0  0  0  0  0
  -25.9020  -34.9475   23.5139 C   0  0  0  0  0  0
  -16.5344  -29.9080   23.6327 C   0  0  0  0  0  0
  -16.7261  -28.6501   23.0337 C   0  0  0  0  0  0
  -26.4481  -31.6596   25.0702 C   0  0  0  0  0  0
  -25.3763  -31.3695   26.1462 C   0  0  0  0  0  0
  -27.0322  -30.3039   24.6083 C   0  0  0  0  0  0
  -27.6059  -32.4323   25.7463 C   0  0  0  0  0  0
  -27.5583  -37.1804   24.8466 C   0  0  0  0  0  0
  -21.4124  -29.3025   22.3720 N   0  0  0  0  0  0
  -26.4290  -37.3799   23.9416 N   0  0  0  0  0  0
  -24.6637  -31.0789   22.0986 N   0  0  0  0  0  0
  -23.4174  -28.8198   23.3016 O   0  0  0  0  0  0
  -28.4278  -26.7421   20.1105 O   0  0  0  0  0  0
  -26.5593  -34.8938   22.4708 O   0  0  0  0  0  0
  -23.5319  -32.1423   23.7503 O   0  0  0  0  0  0
  -28.0460  -18.7746   21.6523 C   0  0  0  0  0  0
  -30.0296  -17.5345   20.9623 C   0  0  0  0  0  0
  -28.2856  -16.4376   22.2724 C   0  0  0  0  0  0
  -29.3009  -18.7538   20.9982 C   0  0  0  0  0  0
  -27.5400  -17.6271   22.2889 C   0  0  0  0  0  0
  -29.5240  -16.3723   21.6016 C   0  0  0  0  0  0
  -29.8666  -19.9916   20.4043 C   0  0  0  0  0  0
  -29.2643  -21.2047   20.3711 C   0  0  0  0  0  0
  -29.9115  -22.4120   19.8217 C   0  0  0  0  0  0
  -26.2103  -17.6755   23.0190 C   0  0  0  0  0  0
  -29.0810  -23.7092   19.8123 C   0  0  0  0  0  0
  -29.7937  -24.9333   19.1891 C   0  0  0  0  0  0
  -28.8644  -26.1259   18.8982 C   0  0  0  0  0  0
  -30.2043  -15.1270   21.6858 N   0  0  0  0  0  0
  -31.0714  -22.4162   19.3941 O   0  0  0  0  0  0
  -31.4749  -12.4589   19.0716 H   0  0  0  0  0  0
  -30.3708  -11.2861   19.7372 H   0  0  0  0  0  0
  -29.7233  -11.8245   17.3920 H   0  0  0  0  0  0
  -29.6576  -13.5263   17.7601 H   0  0  0  0  0  0
  -27.8079  -11.3340   18.7619 H   0  0  0  0  0  0
  -27.3630  -12.7001   17.7763 H   0  0  0  0  0  0
  -27.7263  -14.2573   19.6293 H   0  0  0  0  0  0
  -28.6857  -11.8481   21.2450 H   0  0  0  0  0  0
  -28.4395  -13.4247   21.9027 H   0  0  0  0  0  0
  -25.2743   -9.5734   22.4722 H   0  0  0  0  0  0
  -24.0028   -7.4638   22.7439 H   0  0  0  0  0  0
  -21.0822   -8.8716   19.8942 H   0  0  0  0  0  0
  -22.3609  -10.9654   19.6151 H   0  0  0  0  0  0
  -21.1976   -7.6151   23.9719 H   0  0  0  0  0  0
  -21.1487   -6.0520   25.9083 H   0  0  0  0  0  0
  -22.0604   -2.7608   23.2833 H   0  0  0  0  0  0
  -22.4131  -11.9915   22.4873 H   0  0  0  0  0  0
  -21.1112  -13.1213   22.2511 H   0  0  0  0  0  0
  -24.6872  -15.8424   20.5918 H   0  0  0  0  0  0
  -26.3235  -15.6319   20.2251 H   0  0  0  0  0  0
  -26.7093  -32.5544   23.1142 H   0  0  0  0  0  0
  -25.0020  -33.9768   25.0469 H   0  0  0  0  0  0
  -22.6888  -31.3052   21.4058 H   0  0  0  0  0  0
  -23.3739  -35.9651   23.3312 H   0  0  0  0  0  0
  -24.3584  -36.8925   22.2057 H   0  0  0  0  0  0
  -23.7228  -37.6524   23.6649 H   0  0  0  0  0  0
  -26.0351  -31.5995   20.5908 H   0  0  0  0  0  0
  -26.8139  -30.8930   21.9789 H   0  0  0  0  0  0
  -28.0913  -29.1138   21.1835 H   0  0  0  0  0  0
  -26.0635  -25.9620   19.0418 H   0  0  0  0  0  0
  -23.9889  -27.2806   19.0412 H   0  0  0  0  0  0
  -23.7070  -30.5880   19.3968 H   0  0  0  0  0  0
  -22.7353  -29.2284   19.8731 H   0  0  0  0  0  0
  -25.1274  -36.1990   25.0837 H   0  0  0  0  0  0
  -20.9952  -28.3224   24.1429 H   0  0  0  0  0  0
  -20.5638  -26.2265   23.3608 H   0  0  0  0  0  0
  -21.6623  -26.7411   22.1230 H   0  0  0  0  0  0
  -19.6894  -25.6290   21.1228 H   0  0  0  0  0  0
  -19.6681  -27.3197   20.6748 H   0  0  0  0  0  0
  -17.4185  -26.6663   21.4022 H   0  0  0  0  0  0
  -18.0310  -26.0051   22.9013 H   0  0  0  0  0  0
  -19.7922  -30.7238   24.2282 H   0  0  0  0  0  0
  -17.5012  -31.6263   24.5158 H   0  0  0  0  0  0
  -15.5345  -30.2994   23.7632 H   0  0  0  0  0  0
  -15.8657  -28.0832   22.7039 H   0  0  0  0  0  0
  -24.5893  -30.7102   25.7801 H   0  0  0  0  0  0
  -24.9012  -32.2850   26.4990 H   0  0  0  0  0  0
  -25.8116  -30.8792   27.0176 H   0  0  0  0  0  0
  -26.2860  -29.6765   24.1194 H   0  0  0  0  0  0
  -27.4158  -29.7320   25.4548 H   0  0  0  0  0  0
  -27.8671  -30.4367   23.9193 H   0  0  0  0  0  0
  -27.2659  -33.3583   26.2111 H   0  0  0  0  0  0
  -28.3818  -32.6944   25.0261 H   0  0  0  0  0  0
  -28.0779  -31.8408   26.5313 H   0  0  0  0  0  0
  -28.2601  -38.0105   24.7529 H   0  0  0  0  0  0
  -28.1076  -36.2639   24.6263 H   0  0  0  0  0  0
  -27.2308  -37.1430   25.8870 H   0  0  0  0  0  0
  -20.9275  -29.8756   21.6956 H   0  0  0  0  0  0
  -26.0185  -38.2876   24.1429 H   0  0  0  0  0  0
  -27.4574  -19.6779   21.7029 H   0  0  0  0  0  0
  -30.9902  -17.5024   20.4677 H   0  0  0  0  0  0
  -27.8974  -15.5696   22.7844 H   0  0  0  0  0  0
  -30.8582  -19.8968   19.9809 H   0  0  0  0  0  0
  -28.2701  -21.3495   20.7612 H   0  0  0  0  0  0
  -26.3530  -18.0088   24.0473 H   0  0  0  0  0  0
  -25.7467  -16.6894   23.0471 H   0  0  0  0  0  0
  -25.5146  -18.3590   22.5323 H   0  0  0  0  0  0
  -28.7823  -23.9419   20.8351 H   0  0  0  0  0  0
  -28.1627  -23.5030   19.2618 H   0  0  0  0  0  0
  -30.2513  -24.6368   18.2443 H   0  0  0  0  0  0
  -30.6139  -25.2505   19.8343 H   0  0  0  0  0  0
  -28.0571  -25.8035   18.2439 H   0  0  0  0  0  0
  -29.4225  -26.8799   18.3397 H   0  0  0  0  0  0
  -29.7230  -14.4946   22.3066 H   0  0  0  0  0  0
  1 25  1  0  0  0
  1 30  2  0  0  0
  1 84  1  0  0  0
  2  3  1  0  0  0
  2 25  1  0  0  0
  2 86  1  0  0  0
  2 87  1  0  0  0
  3  4  1  0  0  0
  3 88  1  0  0  0
  3 89  1  0  0  0
  4  5  1  0  0  0
  4 90  1  0  0  0
  4 91  1  0  0  0
  5  6  1  0  0  0
  5 26  1  0  0  0
  5 92  1  0  0  0
  6 25  1  0  0  0
  6 93  1  0  0  0
  6 94  1  0  0  0
  7  8  2  0  0  0
  7 26  1  0  0  0
  7 29  1  0  0  0
  8  9  1  0  0  0
  8 22  1  0  0  0
  9 10  1  0  0  0
  9 27  2  0  0  0
 10 11  2  0  0  0
 10 15  1  0  0  0
 11 12  1  0  0  0
 11 95  1  0  0  0
 12 13  2  0  0  0
 12 96  1  0  0  0
 13 14  1  0  0  0
 13 31  1  0  0  0
 14 15  2  0  0  0
 14 97  1  0  0  0
 15 98  1  0  0  0
 16 17  2  0  0  0
 16 21  1  0  0  0
 16 31  1  0  0  0
 17 18  1  0  0  0
 17 99  1  0  0  0
 18 19  2  0  0  0
 18100  1  0  0  0
 19 20  1  0  0  0
 19 24  1  0  0  0
 20 21  2  0  0  0
 20101  1  0  0  0
 21 23  1  0  0  0
 22 28  1  0  0  0
 22 32  2  0  0  0
 26 27  1  0  0  0
 28102  1  0  0  0
 28103  1  0  0  0
 29104  1  0  0  0
 29105  1  0  0  0
 33 34  1  0  0  0
 33 66  1  0  0  0
 33 70  2  0  0  0
 34 36  1  0  0  0
 34 59  1  0  0  0
 34106  1  0  0  0
 35 44  2  0  0  0
 35 45  1  0  0  0
 35 68  1  0  0  0
 36 56  1  0  0  0
 36107  1  0  0  0
 37 39  1  0  0  0
 37 47  1  0  0  0
 37 66  1  0  0  0
 37108  1  0  0  0
 38 43  2  0  0  0
 38 46  1  0  0  0
 38 47  1  0  0  0
 39 64  1  0  0  0
 39 67  2  0  0  0
 40 52  1  0  0  0
 40 53  2  0  0  0
 40 58  1  0  0  0
 41109  1  0  0  0
 41110  1  0  0  0
 41111  1  0  0  0
 41 48  1  0  0  0
 42 43  1  0  0  0
 42 66  1  0  0  0
 42112  1  0  0  0
 42113  1  0  0  0
 43 44  1  0  0  0
 44114  1  0  0  0
 45 46  2  0  0  0
 45115  1  0  0  0
 46116  1  0  0  0
 47117  1  0  0  0
 47118  1  0  0  0
 48 56  1  0  0  0
 48 65  1  0  0  0
 48119  1  0  0  0
 49 50  1  0  0  0
 49 53  1  0  0  0
 49 64  1  0  0  0
 49120  1  0  0  0
 50 51  1  0  0  0
 50121  1  0  0  0
 50122  1  0  0  0
 51 52  1  0  0  0
 51123  1  0  0  0
 51124  1  0  0  0
 52125  1  0  0  0
 52126  1  0  0  0
 53 54  1  0  0  0
 54 55  2  0  0  0
 54127  1  0  0  0
 55 57  1  0  0  0
 55128  1  0  0  0
 56 69  2  0  0  0
 57 58  2  0  0  0
 57129  1  0  0  0
 58130  1  0  0  0
 59 60  1  0  0  0
 59 61  1  0  0  0
 59 62  1  0  0  0
 60131  1  0  0  0
 60132  1  0  0  0
 60133  1  0  0  0
 61134  1  0  0  0
 61135  1  0  0  0
 61136  1  0  0  0
 62137  1  0  0  0
 62138  1  0  0  0
 62139  1  0  0  0
 63 65  1  0  0  0
 63140  1  0  0  0
 63141  1  0  0  0
 63142  1  0  0  0
 64143  1  0  0  0
 65144  1  0  0  0
 68 83  1  0  0  0
 71 74  2  0  0  0
 71 75  1  0  0  0
 71145  1  0  0  0
 72 74  1  0  0  0
 72 76  2  0  0  0
 72146  1  0  0  0
 73 75  2  0  0  0
 73 76  1  0  0  0
 73147  1  0  0  0
 74 77  1  0  0  0
 75 80  1  0  0  0
 76 84  1  0  0  0
 77 78  2  0  0  0
 77148  1  0  0  0
 78 79  1  0  0  0
 78149  1  0  0  0
 79 81  1  0  0  0
 79 85  2  0  0  0
 80150  1  0  0  0
 80151  1  0  0  0
 80152  1  0  0  0
 81 82  1  0  0  0
 81153  1  0  0  0
 81154  1  0  0  0
 82 83  1  0  0  0
 82155  1  0  0  0
 82156  1  0  0  0
 83157  1  0  0  0
 83158  1  0  0  0
 84159  1  0  0  0
M  ISO  4   1 100  68 101  83 101  84 100
M  END
> <chiral flag>
0

> <version>
0

> <s_m_source_file>
/data/baiqing/PycharmProjects/Reinvent-master-3.2/result/LINK_invent/BTK/process_docking_weight1_custom_product_contain_oxygen_bond_distance_aromatic_linkinvent_7_9_3/rearranged_h_0123.sdf

> <i_m_source_file_index>
41

> <r_mmod_Potential_Energy-OPLS-2005>
-68.5340881347656

> <r_mmod_Stretch_Energy-OPLS-2005>
35.8864936828613

> <r_mmod_Bend_Energy-OPLS-2005>
102.796684265137

> <r_mmod_Torsional_Energy-OPLS-2005>
245.377655029297

> <r_mmod_Improper_Torsional_Energy-OPLS-2005>
6.99706125259399

> <r_mmod_Van_der_Waal_Energy-OPLS-2005>
147.965347290039

> <r_mmod_Electrostatic_Energy-OPLS-2005>
-401.240203857422

> <r_mmod_Solvation_Energy-OPLS-2005>
-216.997817993164

> <b_mmod_Minimization_Converged-OPLS-2005>
0

> <r_mmod_RMS_Derivative-OPLS-2005>
2.76971888542175

$$$$
41
                    3D
 Structure written by MMmdl.
154162  0  0  1  0            999 V2000
  -30.7196  -14.4584   20.5825 C   0  0  0  0  0  0
  -30.4173  -12.3041   19.4188 C   0  0  0  0  0  0
  -29.4896  -12.5015   18.2034 C   0  0  0  0  0  0
  -28.0121  -12.3619   18.6190 C   0  0  0  0  0  0
  -27.6593  -13.2073   19.8722 C   0  0  2  0  0  0
  -28.7017  -12.9972   20.9937 C   0  0  0  0  0  0
  -25.2578  -13.8165   20.5679 C   0  0  0  0  0  0
  -24.1833  -13.0440   20.9182 C   0  0  0  0  0  0
  -24.6388  -11.6907   20.8737 C   0  0  0  0  0  0
  -23.9056  -10.4292   21.0406 C   0  0  0  0  0  0
  -24.3610   -9.4209   21.9184 C   0  0  0  0  0  0
  -23.6288   -8.2243   22.0753 C   0  0  0  0  0  0
  -22.4270   -8.0279   21.3543 C   0  0  0  0  0  0
  -21.9904   -9.0253   20.4645 C   0  0  0  0  0  0
  -22.7229  -10.2134   20.3055 C   0  0  0  0  0  0
  -21.6852   -6.0733   22.5278 C   0  0  0  0  0  0
  -21.4013   -6.5639   23.8212 C   0  0  0  0  0  0
  -21.3660   -5.6791   24.9176 C   0  0  0  0  0  0
  -21.6044   -4.3054   24.7226 C   0  0  0  0  0  0
  -21.8820   -3.8146   23.4348 C   0  0  0  0  0  0
  -21.9192   -4.6960   22.3403 C   0  0  0  0  0  0
  -22.7857  -13.5239   21.1847 C   0  0  0  0  0  0
  -22.1661   -4.2145   21.0980 F   0  0  0  0  0  0
  -21.5630   -3.4539   25.7740 F   0  0  0  0  0  0
  -30.0315  -13.2942   20.4361 N   0  0  0  0  0  0
  -26.3011  -12.9335   20.3358 N   0  0  0  0  0  0
  -25.9313  -11.6495   20.5767 N   0  0  0  0  0  0
  -22.0499  -12.8229   22.0403 N   0  0  0  0  0  0
  -25.4301  -15.1882   20.4078 N   0  0  0  0  0  0
  -31.8481  -14.6245   20.1100 O   0  0  0  0  0  0
  -21.6637   -6.8875   21.4240 O   0  0  0  0  0  0
  -22.3543  -14.5547   20.6700 O   0  0  0  0  0  0
  -24.6156  -31.8680   23.2099 C   0  0  0  0  0  0
  -25.9051  -32.4820   23.8393 C   0  0  1  0  0  0
  -27.2303  -27.4312   20.0899 C   0  0  0  0  0  0
  -25.5904  -33.8618   24.2324 N   0  0  0  0  0  0
  -23.4023  -30.4929   21.5513 C   0  0  2  0  0  0
  -24.8466  -28.9613   20.1122 C   0  0  0  0  0  0
  -22.7414  -29.4661   22.4991 C   0  0  0  0  0  0
  -18.0271  -28.1369   22.8490 C   0  0  0  0  0  0
  -24.1490  -36.7315   23.2637 C   0  0  0  0  0  0
  -25.9320  -30.8335   21.3625 C   0  0  0  0  0  0
  -26.0086  -29.4688   20.7067 C   0  0  0  0  0  0
  -27.2035  -28.7118   20.6908 C   0  0  0  0  0  0
  -26.0465  -26.9412   19.4888 C   0  0  0  0  0  0
  -24.8607  -27.6974   19.5003 C   0  0  0  0  0  0
  -23.6089  -29.8278   20.1650 C   0  0  0  0  0  0
  -25.4109  -36.3110   24.0336 C   0  0  1  0  0  0
  -20.5864  -28.3662   23.1314 C   0  0  2  0  0  0
  -20.6765  -26.9399   22.5413 C   0  0  0  0  0  0
  -19.5744  -26.6383   21.5208 C   0  0  0  0  0  0
  -18.1921  -26.7918   22.1618 C   0  0  0  0  0  0
  -19.1521  -28.8831   23.2900 C   0  0  0  0  0  0
  -18.9450  -30.1436   23.8912 C   0  0  0  0  0  0
  -17.6455  -30.6581   24.0560 C   0  0  0  0  0  0
  -25.9036  -34.9475   23.5126 C   0  0  0  0  0  0
  -16.5346  -29.9082   23.6322 C   0  0  0  0  0  0
  -16.7262  -28.6496   23.0347 C   0  0  0  0  0  0
  -26.4477  -31.6597   25.0720 C   0  0  0  0  0  0
  -25.3743  -31.3697   26.1470 C   0  0  0  0  0  0
  -27.0308  -30.3043   24.6088 C   0  0  0  0  0  0
  -27.6054  -32.4316   25.7480 C   0  0  0  0  0  0
  -27.5584  -37.1810   24.8464 C   0  0  0  0  0  0
  -21.4142  -29.3031   22.3726 N   0  0  0  0  0  0
  -26.4296  -37.3794   23.9408 N   0  0  0  0  0  0
  -24.6683  -31.0786   22.0999 N   0  0  0  0  0  0
  -23.4188  -28.8208   23.3035 O   0  0  0  0  0  0
  -28.3964  -26.6822   20.1235 O   0  0  0  0  0  0
  -26.5598  -34.8927   22.4688 O   0  0  0  0  0  0
  -23.5349  -32.1434   23.7496 O   0  0  0  0  0  0
  -29.6843  -17.9261   21.0247 C   0  0  0  0  0  0
  -31.4186  -19.4607   21.7746 C   0  0  0  0  0  0
  -31.7856  -17.0529   21.9007 C   0  0  0  0  0  0
  -30.1335  -19.2602   21.2196 C   0  0  0  0  0  0
  -30.5089  -16.8150   21.3419 C   0  0  0  0  0  0
  -32.2358  -18.3676   22.1142 C   0  0  0  0  0  0
  -29.2563  -20.4059   20.8650 C   0  0  0  0  0  0
  -29.4900  -21.7153   21.1130 C   0  0  0  0  0  0
  -28.5464  -22.8587   20.7501 C   0  0  0  0  0  0
  -29.2566  -24.1197   20.1906 C   0  0  0  0  0  0
  -28.2667  -25.2753   19.8540 C   0  0  0  0  0  0
  -30.0338  -15.4805   21.1356 N   0  0  0  0  0  0
  -33.4617  -18.5826   22.6493 F   0  0  0  0  0  0
  -31.4618  -12.3960   19.1153 H   0  0  0  0  0  0
  -30.3141  -11.2953   19.8213 H   0  0  0  0  0  0
  -29.7284  -11.7752   17.4252 H   0  0  0  0  0  0
  -29.6578  -13.4865   17.7653 H   0  0  0  0  0  0
  -27.8247  -11.3064   18.8205 H   0  0  0  0  0  0
  -27.3599  -12.6313   17.7874 H   0  0  0  0  0  0
  -27.7012  -14.2533   19.5681 H   0  0  0  0  0  0
  -28.6768  -11.9652   21.3470 H   0  0  0  0  0  0
  -28.4655  -13.6084   21.8658 H   0  0  0  0  0  0
  -25.2756   -9.5685   22.4756 H   0  0  0  0  0  0
  -23.9998   -7.4634   22.7471 H   0  0  0  0  0  0
  -21.0836   -8.8772   19.8949 H   0  0  0  0  0  0
  -22.3689  -10.9673   19.6162 H   0  0  0  0  0  0
  -21.2006   -7.6147   23.9714 H   0  0  0  0  0  0
  -21.1482   -6.0522   25.9077 H   0  0  0  0  0  0
  -22.0599   -2.7607   23.2850 H   0  0  0  0  0  0
  -22.4111  -11.9884   22.4782 H   0  0  0  0  0  0
  -21.1119  -13.1255   22.2616 H   0  0  0  0  0  0
  -24.6628  -15.8433   20.5121 H   0  0  0  0  0  0
  -26.2793  -15.6255   20.0730 H   0  0  0  0  0  0
  -26.7123  -32.5527   23.1157 H   0  0  0  0  0  0
  -25.0070  -33.9777   25.0480 H   0  0  0  0  0  0
  -22.6904  -31.3096   21.4139 H   0  0  0  0  0  0
  -23.3747  -35.9654   23.3306 H   0  0  0  0  0  0
  -24.3588  -36.8923   22.2053 H   0  0  0  0  0  0
  -23.7248  -37.6523   23.6649 H   0  0  0  0  0  0
  -26.0457  -31.6016   20.5961 H   0  0  0  0  0  0
  -26.8195  -30.8842   21.9814 H   0  0  0  0  0  0
  -28.1004  -29.0995   21.1533 H   0  0  0  0  0  0
  -26.0176  -25.9745   19.0068 H   0  0  0  0  0  0
  -23.9671  -27.3011   19.0379 H   0  0  0  0  0  0
  -23.7159  -30.6035   19.4060 H   0  0  0  0  0  0
  -22.7323  -29.2482   19.8696 H   0  0  0  0  0  0
  -25.1285  -36.1974   25.0828 H   0  0  0  0  0  0
  -20.9952  -28.3227   24.1436 H   0  0  0  0  0  0
  -20.5671  -26.2269   23.3599 H   0  0  0  0  0  0
  -21.6636  -26.7447   22.1202 H   0  0  0  0  0  0
  -19.6909  -25.6300   21.1222 H   0  0  0  0  0  0
  -19.6680  -27.3205   20.6748 H   0  0  0  0  0  0
  -17.4192  -26.6664   21.4019 H   0  0  0  0  0  0
  -18.0323  -26.0052   22.9007 H   0  0  0  0  0  0
  -19.7931  -30.7241   24.2291 H   0  0  0  0  0  0
  -17.5014  -31.6263   24.5161 H   0  0  0  0  0  0
  -15.5347  -30.2991   23.7640 H   0  0  0  0  0  0
  -15.8658  -28.0822   22.7055 H   0  0  0  0  0  0
  -24.5914  -30.7046   25.7804 H   0  0  0  0  0  0
  -24.8939  -32.2851   26.4933 H   0  0  0  0  0  0
  -25.8101  -30.8855   27.0218 H   0  0  0  0  0  0
  -26.2846  -29.6800   24.1156 H   0  0  0  0  0  0
  -27.4102  -29.7279   25.4534 H   0  0  0  0  0  0
  -27.8670  -30.4363   23.9217 H   0  0  0  0  0  0
  -27.2673  -33.3605   26.2085 H   0  0  0  0  0  0
  -28.3850  -32.6892   25.0298 H   0  0  0  0  0  0
  -28.0739  -31.8423   26.5374 H   0  0  0  0  0  0
  -28.2599  -38.0110   24.7518 H   0  0  0  0  0  0
  -28.1079  -36.2641   24.6279 H   0  0  0  0  0  0
  -27.2302  -37.1449   25.8867 H   0  0  0  0  0  0
  -20.9303  -29.8762   21.6956 H   0  0  0  0  0  0
  -26.0183  -38.2871   24.1407 H   0  0  0  0  0  0
  -28.7004  -17.7559   20.6095 H   0  0  0  0  0  0
  -31.8056  -20.4527   21.9485 H   0  0  0  0  0  0
  -32.4324  -16.2317   22.1737 H   0  0  0  0  0  0
  -28.3377  -20.1471   20.3560 H   0  0  0  0  0  0
  -30.3896  -22.0197   21.6271 H   0  0  0  0  0  0
  -27.9985  -23.1246   21.6550 H   0  0  0  0  0  0
  -27.8032  -22.5026   20.0352 H   0  0  0  0  0  0
  -29.8125  -23.8201   19.2985 H   0  0  0  0  0  0
  -30.0076  -24.4667   20.9038 H   0  0  0  0  0  0
  -29.0264  -25.6688   19.1757 H   0  0  0  0  0  0
  -28.0704  -25.3447   20.9267 H   0  0  0  0  0  0
  -29.0604  -15.3010   21.3309 H   0  0  0  0  0  0
  1 25  1  0  0  0
  1 30  2  0  0  0
  1 82  1  0  0  0
  2  3  1  0  0  0
  2 25  1  0  0  0
  2 84  1  0  0  0
  2 85  1  0  0  0
  3  4  1  0  0  0
  3 86  1  0  0  0
  3 87  1  0  0  0
  4  5  1  0  0  0
  4 88  1  0  0  0
  4 89  1  0  0  0
  5  6  1  0  0  0
  5 26  1  0  0  0
  5 90  1  0  0  0
  6 25  1  0  0  0
  6 91  1  0  0  0
  6 92  1  0  0  0
  7  8  2  0  0  0
  7 26  1  0  0  0
  7 29  1  0  0  0
  8  9  1  0  0  0
  8 22  1  0  0  0
  9 10  1  0  0  0
  9 27  2  0  0  0
 10 11  2  0  0  0
 10 15  1  0  0  0
 11 12  1  0  0  0
 11 93  1  0  0  0
 12 13  2  0  0  0
 12 94  1  0  0  0
 13 14  1  0  0  0
 13 31  1  0  0  0
 14 15  2  0  0  0
 14 95  1  0  0  0
 15 96  1  0  0  0
 16 17  2  0  0  0
 16 21  1  0  0  0
 16 31  1  0  0  0
 17 18  1  0  0  0
 17 97  1  0  0  0
 18 19  2  0  0  0
 18 98  1  0  0  0
 19 20  1  0  0  0
 19 24  1  0  0  0
 20 21  2  0  0  0
 20 99  1  0  0  0
 21 23  1  0  0  0
 22 28  1  0  0  0
 22 32  2  0  0  0
 26 27  1  0  0  0
 28100  1  0  0  0
 28101  1  0  0  0
 29102  1  0  0  0
 29103  1  0  0  0
 33 34  1  0  0  0
 33 66  1  0  0  0
 33 70  2  0  0  0
 34 36  1  0  0  0
 34 59  1  0  0  0
 34104  1  0  0  0
 35 44  2  0  0  0
 35 45  1  0  0  0
 35 68  1  0  0  0
 36 56  1  0  0  0
 36105  1  0  0  0
 37 39  1  0  0  0
 37 47  1  0  0  0
 37 66  1  0  0  0
 37106  1  0  0  0
 38 43  2  0  0  0
 38 46  1  0  0  0
 38 47  1  0  0  0
 39 64  1  0  0  0
 39 67  2  0  0  0
 40 52  1  0  0  0
 40 53  2  0  0  0
 40 58  1  0  0  0
 41107  1  0  0  0
 41108  1  0  0  0
 41109  1  0  0  0
 41 48  1  0  0  0
 42 43  1  0  0  0
 42 66  1  0  0  0
 42110  1  0  0  0
 42111  1  0  0  0
 43 44  1  0  0  0
 44112  1  0  0  0
 45 46  2  0  0  0
 45113  1  0  0  0
 46114  1  0  0  0
 47115  1  0  0  0
 47116  1  0  0  0
 48 56  1  0  0  0
 48 65  1  0  0  0
 48117  1  0  0  0
 49 50  1  0  0  0
 49 53  1  0  0  0
 49 64  1  0  0  0
 49118  1  0  0  0
 50 51  1  0  0  0
 50119  1  0  0  0
 50120  1  0  0  0
 51 52  1  0  0  0
 51121  1  0  0  0
 51122  1  0  0  0
 52123  1  0  0  0
 52124  1  0  0  0
 53 54  1  0  0  0
 54 55  2  0  0  0
 54125  1  0  0  0
 55 57  1  0  0  0
 55126  1  0  0  0
 56 69  2  0  0  0
 57 58  2  0  0  0
 57127  1  0  0  0
 58128  1  0  0  0
 59 60  1  0  0  0
 59 61  1  0  0  0
 59 62  1  0  0  0
 60129  1  0  0  0
 60130  1  0  0  0
 60131  1  0  0  0
 61132  1  0  0  0
 61133  1  0  0  0
 61134  1  0  0  0
 62135  1  0  0  0
 62136  1  0  0  0
 62137  1  0  0  0
 63 65  1  0  0  0
 63138  1  0  0  0
 63139  1  0  0  0
 63140  1  0  0  0
 64141  1  0  0  0
 65142  1  0  0  0
 68 81  1  0  0  0
 71 74  2  0  0  0
 71 75  1  0  0  0
 71143  1  0  0  0
 72 74  1  0  0  0
 72 76  2  0  0  0
 72144  1  0  0  0
 73 75  2  0  0  0
 73 76  1  0  0  0
 73145  1  0  0  0
 74 77  1  0  0  0
 75 82  1  0  0  0
 76 83  1  0  0  0
 77 78  2  0  0  0
 77146  1  0  0  0
 78 79  1  0  0  0
 78147  1  0  0  0
 79 80  1  0  0  0
 79148  1  0  0  0
 79149  1  0  0  0
 80 81  1  0  0  0
 80150  1  0  0  0
 80151  1  0  0  0
 81152  1  0  0  0
 81153  1  0  0  0
 82154  1  0  0  0
M  ISO  4   1 100  68 101  81 101  82 100
M  END
> <chiral flag>
0

> <version>
0

> <s_m_source_file>
/data/baiqing/PycharmProjects/Reinvent-master-3.2/result/LINK_invent/BTK/process_docking_weight1_custom_product_contain_oxygen_bond_distance_aromatic_linkinvent_7_9_3/rearranged_h_0123.sdf

> <i_m_source_file_index>
42

> <r_mmod_Potential_Energy-OPLS-2005>
203.79443359375

> <r_mmod_Stretch_Energy-OPLS-2005>
38.5171432495117

> <r_mmod_Bend_Energy-OPLS-2005>
304.013336181641

> <r_mmod_Torsional_Energy-OPLS-2005>
217.274307250977

> <r_mmod_Improper_Torsional_Energy-OPLS-2005>
3.59608459472656

> <r_mmod_Van_der_Waal_Energy-OPLS-2005>
165.812454223633

> <r_mmod_Electrostatic_Energy-OPLS-2005>
-336.089202880859

> <r_mmod_Solvation_Energy-OPLS-2005>
-202.63200378418

> <b_mmod_Minimization_Converged-OPLS-2005>
0

> <r_mmod_RMS_Derivative-OPLS-2005>
0.420649230480194

$$$$
42
                    3D
 Structure written by MMmdl.
161170  0  0  1  0            999 V2000
  -30.6783  -14.4696   20.6167 C   0  0  0  0  0  0
  -30.4346  -12.3196   19.4135 C   0  0  0  0  0  0
  -29.4969  -12.5223   18.2044 C   0  0  0  0  0  0
  -28.0188  -12.3721   18.6182 C   0  0  0  0  0  0
  -27.6671  -13.1988   19.8834 C   0  0  2  0  0  0
  -28.7060  -12.9432   20.9976 C   0  0  0  0  0  0
  -25.2619  -13.8142   20.5686 C   0  0  0  0  0  0
  -24.1848  -13.0433   20.9157 C   0  0  0  0  0  0
  -24.6386  -11.6897   20.8719 C   0  0  0  0  0  0
  -23.9044  -10.4293   21.0399 C   0  0  0  0  0  0
  -24.3603   -9.4215   21.9179 C   0  0  0  0  0  0
  -23.6283   -8.2249   22.0754 C   0  0  0  0  0  0
  -22.4267   -8.0278   21.3545 C   0  0  0  0  0  0
  -21.9897   -9.0247   20.4646 C   0  0  0  0  0  0
  -22.7217  -10.2131   20.3049 C   0  0  0  0  0  0
  -21.6854   -6.0726   22.5275 C   0  0  0  0  0  0
  -21.4011   -6.5635   23.8206 C   0  0  0  0  0  0
  -21.3661   -5.6795   24.9174 C   0  0  0  0  0  0
  -21.6046   -4.3056   24.7230 C   0  0  0  0  0  0
  -21.8820   -3.8140   23.4353 C   0  0  0  0  0  0
  -21.9196   -4.6952   22.3406 C   0  0  0  0  0  0
  -22.7877  -13.5243   21.1828 C   0  0  0  0  0  0
  -22.1664   -4.2137   21.0984 F   0  0  0  0  0  0
  -21.5634   -3.4541   25.7745 F   0  0  0  0  0  0
  -30.0405  -13.2758   20.4601 N   0  0  0  0  0  0
  -26.3048  -12.9292   20.3392 N   0  0  0  0  0  0
  -25.9311  -11.6458   20.5757 N   0  0  0  0  0  0
  -22.0520  -12.8232   22.0386 N   0  0  0  0  0  0
  -25.4377  -15.1858   20.4126 N   0  0  0  0  0  0
  -31.7585  -14.7309   20.0760 O   0  0  0  0  0  0
  -21.6644   -6.8867   21.4235 O   0  0  0  0  0  0
  -22.3567  -14.5558   20.6694 O   0  0  0  0  0  0
  -24.6157  -31.8666   23.2093 C   0  0  0  0  0  0
  -25.9048  -32.4812   23.8387 C   0  0  1  0  0  0
  -27.2397  -27.4227   20.0828 C   0  0  0  0  0  0
  -25.5899  -33.8611   24.2318 N   0  0  0  0  0  0
  -23.4037  -30.4903   21.5499 C   0  0  2  0  0  0
  -24.8488  -28.9519   20.1157 C   0  0  0  0  0  0
  -22.7409  -29.4656   22.4986 C   0  0  0  0  0  0
  -18.0270  -28.1377   22.8493 C   0  0  0  0  0  0
  -24.1485  -36.7309   23.2641 C   0  0  0  0  0  0
  -25.9338  -30.8254   21.3653 C   0  0  0  0  0  0
  -26.0089  -29.4578   20.7136 C   0  0  0  0  0  0
  -27.2014  -28.6967   20.7012 C   0  0  0  0  0  0
  -26.0498  -26.9242   19.5025 C   0  0  0  0  0  0
  -24.8636  -27.6829   19.5127 C   0  0  0  0  0  0
  -23.6126  -29.8218   20.1646 C   0  0  0  0  0  0
  -25.4108  -36.3106   24.0337 C   0  0  1  0  0  0
  -20.5860  -28.3665   23.1317 C   0  0  2  0  0  0
  -20.6757  -26.9400   22.5420 C   0  0  0  0  0  0
  -19.5740  -26.6384   21.5213 C   0  0  0  0  0  0
  -18.1917  -26.7925   22.1620 C   0  0  0  0  0  0
  -19.1520  -28.8836   23.2901 C   0  0  0  0  0  0
  -18.9450  -30.1442   23.8911 C   0  0  0  0  0  0
  -17.6456  -30.6587   24.0569 C   0  0  0  0  0  0
  -25.9036  -34.9471   23.5126 C   0  0  0  0  0  0
  -16.5345  -29.9094   23.6327 C   0  0  0  0  0  0
  -16.7260  -28.6508   23.0348 C   0  0  0  0  0  0
  -26.4476  -31.6594   25.0718 C   0  0  0  0  0  0
  -25.3743  -31.3692   26.1465 C   0  0  0  0  0  0
  -27.0317  -30.3040   24.6096 C   0  0  0  0  0  0
  -27.6049  -32.4317   25.7480 C   0  0  0  0  0  0
  -27.5580  -37.1807   24.8466 C   0  0  0  0  0  0
  -21.4136  -29.3033   22.3723 N   0  0  0  0  0  0
  -26.4291  -37.3792   23.9413 N   0  0  0  0  0  0
  -24.6692  -31.0758   22.0998 N   0  0  0  0  0  0
  -23.4175  -28.8199   23.3035 O   0  0  0  0  0  0
  -28.4279  -26.7103   20.0945 O   0  0  0  0  0  0
  -26.5603  -34.8927   22.4690 O   0  0  0  0  0  0
  -23.5349  -32.1426   23.7482 O   0  0  0  0  0  0
  -30.4812  -19.5430   22.0277 C   0  0  0  0  0  0
  -30.1786  -18.6736   23.0922 C   0  0  0  0  0  0
  -30.4710  -17.6495   20.4973 C   0  0  0  0  0  0
  -30.5884  -19.0532   20.7070 C   0  0  0  0  0  0
  -30.0255  -17.2896   22.8694 C   0  0  0  0  0  0
  -30.2042  -16.7584   21.5694 C   0  0  0  0  0  0
  -29.5880  -23.2949   19.4228 C   0  0  0  0  0  0
  -29.5434  -21.9227   19.9277 C   0  0  0  0  0  0
  -28.6717  -24.2514   19.7208 C   0  0  0  0  0  0
  -31.0094  -19.9511   19.5569 C   0  0  0  0  0  0
  -30.7450  -23.4736   18.4883 C   0  0  0  0  0  0
  -31.3305  -22.0716   18.4113 C   0  0  0  0  0  0
  -29.6902  -16.3845   24.0437 C   0  0  0  0  0  0
  -28.6603  -25.6673   19.1307 C   0  0  0  0  0  0
  -30.5951  -21.2466   19.3858 N   0  0  0  0  0  0
  -30.0093  -15.3555   21.3809 N   0  0  0  0  0  0
  -28.6771  -21.4643   20.6782 O   0  0  0  0  0  0
  -31.8059  -19.4495   18.7520 O   0  0  0  0  0  0
  -31.4757  -12.4439   19.1104 H   0  0  0  0  0  0
  -30.3554  -11.2995   19.7925 H   0  0  0  0  0  0
  -29.7385  -11.8073   17.4168 H   0  0  0  0  0  0
  -29.6579  -13.5132   17.7769 H   0  0  0  0  0  0
  -27.8318  -11.3140   18.8057 H   0  0  0  0  0  0
  -27.3655  -12.6527   17.7912 H   0  0  0  0  0  0
  -27.7224  -14.2521   19.6074 H   0  0  0  0  0  0
  -28.6870  -11.8934   21.2949 H   0  0  0  0  0  0
  -28.4494  -13.4938   21.9032 H   0  0  0  0  0  0
  -25.2749   -9.5701   22.4750 H   0  0  0  0  0  0
  -23.9998   -7.4648   22.7478 H   0  0  0  0  0  0
  -21.0830   -8.8758   19.8954 H   0  0  0  0  0  0
  -22.3668  -10.9666   19.6160 H   0  0  0  0  0  0
  -21.1991   -7.6143   23.9698 H   0  0  0  0  0  0
  -21.1486   -6.0531   25.9076 H   0  0  0  0  0  0
  -22.0593   -2.7598   23.2862 H   0  0  0  0  0  0
  -22.4131  -11.9883   22.4761 H   0  0  0  0  0  0
  -21.1142  -13.1258   22.2604 H   0  0  0  0  0  0
  -24.6788  -15.8485   20.5295 H   0  0  0  0  0  0
  -26.3032  -15.6231   20.1213 H   0  0  0  0  0  0
  -26.7114  -32.5518   23.1145 H   0  0  0  0  0  0
  -25.0052  -33.9771   25.0465 H   0  0  0  0  0  0
  -22.6930  -31.3073   21.4097 H   0  0  0  0  0  0
  -23.3747  -35.9642   23.3310 H   0  0  0  0  0  0
  -24.3579  -36.8918   22.2053 H   0  0  0  0  0  0
  -23.7236  -37.6514   23.6654 H   0  0  0  0  0  0
  -26.0482  -31.5895   20.5952 H   0  0  0  0  0  0
  -26.8213  -30.8784   21.9844 H   0  0  0  0  0  0
  -28.0975  -29.0867   21.1634 H   0  0  0  0  0  0
  -26.0095  -25.9427   19.0542 H   0  0  0  0  0  0
  -23.9668  -27.2806   19.0619 H   0  0  0  0  0  0
  -23.7243  -30.5963   19.4049 H   0  0  0  0  0  0
  -22.7356  -29.2436   19.8677 H   0  0  0  0  0  0
  -25.1285  -36.1968   25.0829 H   0  0  0  0  0  0
  -20.9950  -28.3232   24.1438 H   0  0  0  0  0  0
  -20.5656  -26.2275   23.3609 H   0  0  0  0  0  0
  -21.6631  -26.7439   22.1220 H   0  0  0  0  0  0
  -19.6906  -25.6299   21.1233 H   0  0  0  0  0  0
  -19.6685  -27.3202   20.6751 H   0  0  0  0  0  0
  -17.4192  -26.6681   21.4016 H   0  0  0  0  0  0
  -18.0312  -26.0056   22.9005 H   0  0  0  0  0  0
  -19.7929  -30.7250   24.2285 H   0  0  0  0  0  0
  -17.5017  -31.6266   24.5172 H   0  0  0  0  0  0
  -15.5350  -30.3007   23.7639 H   0  0  0  0  0  0
  -15.8657  -28.0838   22.7054 H   0  0  0  0  0  0
  -24.5941  -30.7004   25.7812 H   0  0  0  0  0  0
  -24.8903  -32.2837   26.4900 H   0  0  0  0  0  0
  -25.8107  -30.8887   27.0229 H   0  0  0  0  0  0
  -26.2861  -29.6788   24.1169 H   0  0  0  0  0  0
  -27.4113  -29.7288   25.4551 H   0  0  0  0  0  0
  -27.8683  -30.4368   23.9231 H   0  0  0  0  0  0
  -27.2669  -33.3609   26.2078 H   0  0  0  0  0  0
  -28.3848  -32.6885   25.0299 H   0  0  0  0  0  0
  -28.0729  -31.8427   26.5376 H   0  0  0  0  0  0
  -28.2603  -38.0100   24.7516 H   0  0  0  0  0  0
  -28.1070  -36.2631   24.6287 H   0  0  0  0  0  0
  -27.2298  -37.1455   25.8869 H   0  0  0  0  0  0
  -20.9296  -29.8761   21.6951 H   0  0  0  0  0  0
  -26.0179  -38.2868   24.1421 H   0  0  0  0  0  0
  -30.6319  -20.5928   22.2376 H   0  0  0  0  0  0
  -30.0735  -19.0793   24.0894 H   0  0  0  0  0  0
  -30.5949  -17.2554   19.4976 H   0  0  0  0  0  0
  -27.8454  -24.0086   20.3741 H   0  0  0  0  0  0
  -31.4615  -24.1840   18.9035 H   0  0  0  0  0  0
  -30.4156  -23.8302   17.5116 H   0  0  0  0  0  0
  -32.3996  -22.0875   18.6334 H   0  0  0  0  0  0
  -31.2065  -21.6654   17.4050 H   0  0  0  0  0  0
  -30.4514  -15.6129   24.1638 H   0  0  0  0  0  0
  -28.7267  -15.8978   23.8904 H   0  0  0  0  0  0
  -29.6341  -16.9444   24.9775 H   0  0  0  0  0  0
  -27.9824  -25.7044   18.2791 H   0  0  0  0  0  0
  -29.6391  -25.8789   18.7012 H   0  0  0  0  0  0
  -29.2372  -14.9541   21.8891 H   0  0  0  0  0  0
  1 25  1  0  0  0
  1 30  2  0  0  0
  1 86  1  0  0  0
  2  3  1  0  0  0
  2 25  1  0  0  0
  2 89  1  0  0  0
  2 90  1  0  0  0
  3  4  1  0  0  0
  3 91  1  0  0  0
  3 92  1  0  0  0
  4  5  1  0  0  0
  4 93  1  0  0  0
  4 94  1  0  0  0
  5  6  1  0  0  0
  5 26  1  0  0  0
  5 95  1  0  0  0
  6 25  1  0  0  0
  6 96  1  0  0  0
  6 97  1  0  0  0
  7  8  2  0  0  0
  7 26  1  0  0  0
  7 29  1  0  0  0
  8  9  1  0  0  0
  8 22  1  0  0  0
  9 10  1  0  0  0
  9 27  2  0  0  0
 10 11  2  0  0  0
 10 15  1  0  0  0
 11 12  1  0  0  0
 11 98  1  0  0  0
 12 13  2  0  0  0
 12 99  1  0  0  0
 13 14  1  0  0  0
 13 31  1  0  0  0
 14 15  2  0  0  0
 14100  1  0  0  0
 15101  1  0  0  0
 16 17  2  0  0  0
 16 21  1  0  0  0
 16 31  1  0  0  0
 17 18  1  0  0  0
 17102  1  0  0  0
 18 19  2  0  0  0
 18103  1  0  0  0
 19 20  1  0  0  0
 19 24  1  0  0  0
 20 21  2  0  0  0
 20104  1  0  0  0
 21 23  1  0  0  0
 22 28  1  0  0  0
 22 32  2  0  0  0
 26 27  1  0  0  0
 28105  1  0  0  0
 28106  1  0  0  0
 29107  1  0  0  0
 29108  1  0  0  0
 33 34  1  0  0  0
 33 66  1  0  0  0
 33 70  2  0  0  0
 34 36  1  0  0  0
 34 59  1  0  0  0
 34109  1  0  0  0
 35 44  2  0  0  0
 35 45  1  0  0  0
 35 68  1  0  0  0
 36 56  1  0  0  0
 36110  1  0  0  0
 37 39  1  0  0  0
 37 47  1  0  0  0
 37 66  1  0  0  0
 37111  1  0  0  0
 38 43  2  0  0  0
 38 46  1  0  0  0
 38 47  1  0  0  0
 39 64  1  0  0  0
 39 67  2  0  0  0
 40 52  1  0  0  0
 40 53  2  0  0  0
 40 58  1  0  0  0
 41112  1  0  0  0
 41113  1  0  0  0
 41114  1  0  0  0
 41 48  1  0  0  0
 42 43  1  0  0  0
 42 66  1  0  0  0
 42115  1  0  0  0
 42116  1  0  0  0
 43 44  1  0  0  0
 44117  1  0  0  0
 45 46  2  0  0  0
 45118  1  0  0  0
 46119  1  0  0  0
 47120  1  0  0  0
 47121  1  0  0  0
 48 56  1  0  0  0
 48 65  1  0  0  0
 48122  1  0  0  0
 49 50  1  0  0  0
 49 53  1  0  0  0
 49 64  1  0  0  0
 49123  1  0  0  0
 50 51  1  0  0  0
 50124  1  0  0  0
 50125  1  0  0  0
 51 52  1  0  0  0
 51126  1  0  0  0
 51127  1  0  0  0
 52128  1  0  0  0
 52129  1  0  0  0
 53 54  1  0  0  0
 54 55  2  0  0  0
 54130  1  0  0  0
 55 57  1  0  0  0
 55131  1  0  0  0
 56 69  2  0  0  0
 57 58  2  0  0  0
 57132  1  0  0  0
 58133  1  0  0  0
 59 60  1  0  0  0
 59 61  1  0  0  0
 59 62  1  0  0  0
 60134  1  0  0  0
 60135  1  0  0  0
 60136  1  0  0  0
 61137  1  0  0  0
 61138  1  0  0  0
 61139  1  0  0  0
 62140  1  0  0  0
 62141  1  0  0  0
 62142  1  0  0  0
 63 65  1  0  0  0
 63143  1  0  0  0
 63144  1  0  0  0
 63145  1  0  0  0
 64146  1  0  0  0
 65147  1  0  0  0
 68 84  1  0  0  0
 71 72  2  0  0  0
 71 74  1  0  0  0
 71148  1  0  0  0
 72 75  1  0  0  0
 72149  1  0  0  0
 73 74  2  0  0  0
 73 76  1  0  0  0
 73150  1  0  0  0
 74 80  1  0  0  0
 75 76  2  0  0  0
 75 83  1  0  0  0
 76 86  1  0  0  0
 77 78  1  0  0  0
 77 79  2  0  0  0
 77 81  1  0  0  0
 78 85  1  0  0  0
 78 87  2  0  0  0
 79 84  1  0  0  0
 79151  1  0  0  0
 80 85  1  0  0  0
 80 88  2  0  0  0
 81 82  1  0  0  0
 81152  1  0  0  0
 81153  1  0  0  0
 82 85  1  0  0  0
 82154  1  0  0  0
 82155  1  0  0  0
 83156  1  0  0  0
 83157  1  0  0  0
 83158  1  0  0  0
 84159  1  0  0  0
 84160  1  0  0  0
 86161  1  0  0  0
M  ISO  4   1 100  68 101  84 101  86 100
M  END
> <chiral flag>
0

> <version>
0

> <s_m_source_file>
/data/baiqing/PycharmProjects/Reinvent-master-3.2/result/LINK_invent/BTK/process_docking_weight1_custom_product_contain_oxygen_bond_distance_aromatic_linkinvent_7_9_3/rearranged_h_0123.sdf

> <i_m_source_file_index>
43

> <r_mmod_Potential_Energy-OPLS-2005>
-24.7582759857178

> <r_mmod_Stretch_Energy-OPLS-2005>
45.5264930725098

> <r_mmod_Bend_Energy-OPLS-2005>
153.006439208984

> <r_mmod_Torsional_Energy-OPLS-2005>
255.985763549805

> <r_mmod_Improper_Torsional_Energy-OPLS-2005>
3.27282667160034

> <r_mmod_Van_der_Waal_Energy-OPLS-2005>
165.74821472168

> <r_mmod_Electrostatic_Energy-OPLS-2005>
-434.974822998047

> <r_mmod_Solvation_Energy-OPLS-2005>
-225.810119628906

> <b_mmod_Minimization_Converged-OPLS-2005>
0

> <r_mmod_RMS_Derivative-OPLS-2005>
0.668332934379578

$$$$
43
                    3D
 Structure written by MMmdl.
156164  0  0  1  0            999 V2000
  -30.6067  -14.7422   20.4199 C   0  0  0  0  0  0
  -30.4420  -12.4291   19.4918 C   0  0  0  0  0  0
  -29.5214  -12.4237   18.2496 C   0  0  0  0  0  0
  -28.0367  -12.3134   18.6541 C   0  0  0  0  0  0
  -27.6454  -13.2254   19.8494 C   0  0  2  0  0  0
  -28.6898  -13.1648   20.9855 C   0  0  0  0  0  0
  -25.2544  -13.8194   20.5698 C   0  0  0  0  0  0
  -24.1822  -13.0449   20.9211 C   0  0  0  0  0  0
  -24.6400  -11.6921   20.8759 C   0  0  0  0  0  0
  -23.9072  -10.4297   21.0423 C   0  0  0  0  0  0
  -24.3622   -9.4203   21.9194 C   0  0  0  0  0  0
  -23.6292   -8.2243   22.0756 C   0  0  0  0  0  0
  -22.4271   -8.0287   21.3548 C   0  0  0  0  0  0
  -21.9912   -9.0266   20.4650 C   0  0  0  0  0  0
  -22.7247  -10.2141   20.3065 C   0  0  0  0  0  0
  -21.6853   -6.0738   22.5283 C   0  0  0  0  0  0
  -21.4016   -6.5644   23.8215 C   0  0  0  0  0  0
  -21.3654   -5.6794   24.9179 C   0  0  0  0  0  0
  -21.6042   -4.3058   24.7225 C   0  0  0  0  0  0
  -21.8818   -3.8148   23.4348 C   0  0  0  0  0  0
  -21.9192   -4.6967   22.3403 C   0  0  0  0  0  0
  -22.7841  -13.5237   21.1860 C   0  0  0  0  0  0
  -22.1662   -4.2154   21.0979 F   0  0  0  0  0  0
  -21.5621   -3.4539   25.7736 F   0  0  0  0  0  0
  -29.9942  -13.5082   20.4044 N   0  0  0  0  0  0
  -26.2961  -12.9386   20.3285 N   0  0  0  0  0  0
  -25.9331  -11.6538   20.5783 N   0  0  0  0  0  0
  -22.0475  -12.8233   22.0414 N   0  0  0  0  0  0
  -25.4258  -15.1918   20.4125 N   0  0  0  0  0  0
  -31.7945  -14.8406   20.0980 O   0  0  0  0  0  0
  -21.6637   -6.8884   21.4244 O   0  0  0  0  0  0
  -22.3524  -14.5534   20.6689 O   0  0  0  0  0  0
  -24.6311  -31.8572   23.1992 C   0  0  0  0  0  0
  -25.9139  -32.4769   23.8337 C   0  0  1  0  0  0
  -27.2154  -27.2667   20.1217 C   0  0  0  0  0  0
  -25.5933  -33.8570   24.2258 N   0  0  0  0  0  0
  -23.4267  -30.4810   21.5438 C   0  0  2  0  0  0
  -24.8725  -28.9338   20.1075 C   0  0  0  0  0  0
  -22.7504  -29.4606   22.4914 C   0  0  0  0  0  0
  -18.0294  -28.1386   22.8484 C   0  0  0  0  0  0
  -24.1491  -36.7293   23.2638 C   0  0  0  0  0  0
  -25.9729  -30.7707   21.3795 C   0  0  0  0  0  0
  -26.0441  -29.3941   20.7217 C   0  0  0  0  0  0
  -27.2156  -28.5705   20.7236 C   0  0  0  0  0  0
  -26.0237  -26.8874   19.4576 C   0  0  0  0  0  0
  -24.8675  -27.6883   19.4666 C   0  0  0  0  0  0
  -23.6436  -29.8194   20.1581 C   0  0  0  0  0  0
  -25.4117  -36.3078   24.0324 C   0  0  1  0  0  0
  -20.5897  -28.3696   23.1268 C   0  0  2  0  0  0
  -20.6779  -26.9412   22.5405 C   0  0  0  0  0  0
  -19.5750  -26.6379   21.5212 C   0  0  0  0  0  0
  -18.1935  -26.7927   22.1628 C   0  0  0  0  0  0
  -19.1549  -28.8857   23.2871 C   0  0  0  0  0  0
  -18.9469  -30.1457   23.8890 C   0  0  0  0  0  0
  -17.6468  -30.6585   24.0562 C   0  0  0  0  0  0
  -25.9058  -34.9449   23.5093 C   0  0  0  0  0  0
  -16.5359  -29.9083   23.6327 C   0  0  0  0  0  0
  -16.7280  -28.6501   23.0349 C   0  0  0  0  0  0
  -26.4495  -31.6592   25.0727 C   0  0  0  0  0  0
  -25.3708  -31.3758   26.1443 C   0  0  0  0  0  0
  -27.0340  -30.3006   24.6217 C   0  0  0  0  0  0
  -27.6052  -32.4328   25.7504 C   0  0  0  0  0  0
  -27.5579  -37.1804   24.8463 C   0  0  0  0  0  0
  -21.4210  -29.3047   22.3662 N   0  0  0  0  0  0
  -26.4294  -37.3773   23.9405 N   0  0  0  0  0  0
  -24.6961  -31.0538   22.0974 N   0  0  0  0  0  0
  -23.4207  -28.8144   23.3009 O   0  0  0  0  0  0
  -28.3045  -26.3656   20.2083 O   0  0  0  0  0  0
  -26.5631  -34.8921   22.4663 O   0  0  0  0  0  0
  -23.5461  -32.1397   23.7287 O   0  0  0  0  0  0
  -29.6469  -19.7166   18.5410 C   0  0  0  0  0  0
  -29.6497  -18.4758   20.6197 C   0  0  0  0  0  0
  -29.5514  -19.7644   19.9443 C   0  0  0  0  0  0
  -29.7887  -18.5115   17.8304 C   0  0  0  0  0  0
  -29.8373  -17.2620   18.5042 C   0  0  0  0  0  0
  -29.8234  -17.1990   19.9330 C   0  0  0  0  0  0
  -29.3526  -21.1626   20.5778 C   0  0  0  0  0  0
  -29.0013  -22.3566   19.9559 C   0  0  0  0  0  0
  -28.8986  -23.7690   20.5624 C   0  0  0  0  0  0
  -29.8552  -18.6044   16.3114 C   0  0  0  0  0  0
  -29.8198  -15.9903   17.6666 C   0  0  0  0  0  0
  -28.1055  -24.9294   19.8033 C   0  0  0  0  0  0
  -29.8229  -15.8726   20.6215 N   0  0  0  0  0  0
  -29.4117  -24.0311   21.6550 O   0  0  0  0  0  0
  -31.4819  -12.5507   19.1839 H   0  0  0  0  0  0
  -30.3971  -11.4665   20.0030 H   0  0  0  0  0  0
  -29.7817  -11.5832   17.6045 H   0  0  0  0  0  0
  -29.6931  -13.3053   17.6401 H   0  0  0  0  0  0
  -27.8612  -11.2708   18.9215 H   0  0  0  0  0  0
  -27.3933  -12.5144   17.7971 H   0  0  0  0  0  0
  -27.6355  -14.2441   19.4657 H   0  0  0  0  0  0
  -28.7209  -12.1692   21.4305 H   0  0  0  0  0  0
  -28.4267  -13.8521   21.7913 H   0  0  0  0  0  0
  -25.2774   -9.5670   22.4763 H   0  0  0  0  0  0
  -23.9999   -7.4630   22.7470 H   0  0  0  0  0  0
  -21.0841   -8.8787   19.8958 H   0  0  0  0  0  0
  -22.3714  -10.9679   19.6166 H   0  0  0  0  0  0
  -21.2016   -7.6152   23.9721 H   0  0  0  0  0  0
  -21.1473   -6.0525   25.9079 H   0  0  0  0  0  0
  -22.0600   -2.7610   23.2848 H   0  0  0  0  0  0
  -22.4087  -11.9906   22.4827 H   0  0  0  0  0  0
  -21.1089  -13.1258   22.2603 H   0  0  0  0  0  0
  -24.6602  -15.8466   20.5291 H   0  0  0  0  0  0
  -26.2727  -15.6310   20.0741 H   0  0  0  0  0  0
  -26.7211  -32.5416   23.1083 H   0  0  0  0  0  0
  -25.0062  -33.9710   25.0391 H   0  0  0  0  0  0
  -22.7227  -31.3031   21.4000 H   0  0  0  0  0  0
  -23.3749  -35.9629   23.3301 H   0  0  0  0  0  0
  -24.3578  -36.8917   22.2052 H   0  0  0  0  0  0
  -23.7251  -37.6498   23.6662 H   0  0  0  0  0  0
  -26.1094  -31.5308   20.6088 H   0  0  0  0  0  0
  -26.8521  -30.8207   22.0103 H   0  0  0  0  0  0
  -28.1083  -28.9141   21.2274 H   0  0  0  0  0  0
  -25.9389  -25.9518   18.9272 H   0  0  0  0  0  0
  -23.9733  -27.3349   18.9717 H   0  0  0  0  0  0
  -23.7671  -30.5977   19.4040 H   0  0  0  0  0  0
  -22.7615  -29.2534   19.8525 H   0  0  0  0  0  0
  -25.1298  -36.1928   25.0817 H   0  0  0  0  0  0
  -20.9989  -28.3272   24.1388 H   0  0  0  0  0  0
  -20.5673  -26.2309   23.3614 H   0  0  0  0  0  0
  -21.6648  -26.7429   22.1205 H   0  0  0  0  0  0
  -19.6909  -25.6286   21.1251 H   0  0  0  0  0  0
  -19.6684  -27.3182   20.6737 H   0  0  0  0  0  0
  -17.4202  -26.6670   21.4035 H   0  0  0  0  0  0
  -18.0333  -26.0072   22.9027 H   0  0  0  0  0  0
  -19.7945  -30.7275   24.2255 H   0  0  0  0  0  0
  -17.5022  -31.6264   24.5165 H   0  0  0  0  0  0
  -15.5359  -30.2983   23.7649 H   0  0  0  0  0  0
  -15.8682  -28.0815   22.7066 H   0  0  0  0  0  0
  -24.5877  -30.7114   25.7767 H   0  0  0  0  0  0
  -24.8904  -32.2939   26.4840 H   0  0  0  0  0  0
  -25.8009  -30.8949   27.0236 H   0  0  0  0  0  0
  -26.2927  -29.6760   24.1219 H   0  0  0  0  0  0
  -27.3994  -29.7266   25.4741 H   0  0  0  0  0  0
  -27.8814  -30.4278   23.9477 H   0  0  0  0  0  0
  -27.2662  -33.3632   26.2068 H   0  0  0  0  0  0
  -28.3869  -32.6880   25.0339 H   0  0  0  0  0  0
  -28.0707  -31.8461   26.5432 H   0  0  0  0  0  0
  -28.2600  -38.0098   24.7503 H   0  0  0  0  0  0
  -28.1074  -36.2629   24.6296 H   0  0  0  0  0  0
  -27.2297  -37.1461   25.8866 H   0  0  0  0  0  0
  -20.9395  -29.8788   21.6886 H   0  0  0  0  0  0
  -26.0173  -38.2851   24.1395 H   0  0  0  0  0  0
  -29.6094  -20.6322   17.9706 H   0  0  0  0  0  0
  -29.5808  -18.4671   21.6985 H   0  0  0  0  0  0
  -29.5480  -21.2070   21.6403 H   0  0  0  0  0  0
  -28.7747  -22.3329   18.9018 H   0  0  0  0  0  0
  -29.9893  -19.6327   15.9742 H   0  0  0  0  0  0
  -28.9319  -18.2333   15.8649 H   0  0  0  0  0  0
  -30.6931  -18.0269   15.9189 H   0  0  0  0  0  0
  -29.5223  -16.1359   16.6305 H   0  0  0  0  0  0
  -29.0762  -15.3131   18.0756 H   0  0  0  0  0  0
  -30.7978  -15.5102   17.6615 H   0  0  0  0  0  0
  -27.0664  -24.6457   19.9568 H   0  0  0  0  0  0
  -28.2996  -24.8417   18.7338 H   0  0  0  0  0  0
  -28.9700  -15.6754   21.1234 H   0  0  0  0  0  0
  1 25  1  0  0  0
  1 30  2  0  0  0
  1 83  1  0  0  0
  2  3  1  0  0  0
  2 25  1  0  0  0
  2 85  1  0  0  0
  2 86  1  0  0  0
  3  4  1  0  0  0
  3 87  1  0  0  0
  3 88  1  0  0  0
  4  5  1  0  0  0
  4 89  1  0  0  0
  4 90  1  0  0  0
  5  6  1  0  0  0
  5 26  1  0  0  0
  5 91  1  0  0  0
  6 25  1  0  0  0
  6 92  1  0  0  0
  6 93  1  0  0  0
  7  8  2  0  0  0
  7 26  1  0  0  0
  7 29  1  0  0  0
  8  9  1  0  0  0
  8 22  1  0  0  0
  9 10  1  0  0  0
  9 27  2  0  0  0
 10 11  2  0  0  0
 10 15  1  0  0  0
 11 12  1  0  0  0
 11 94  1  0  0  0
 12 13  2  0  0  0
 12 95  1  0  0  0
 13 14  1  0  0  0
 13 31  1  0  0  0
 14 15  2  0  0  0
 14 96  1  0  0  0
 15 97  1  0  0  0
 16 17  2  0  0  0
 16 21  1  0  0  0
 16 31  1  0  0  0
 17 18  1  0  0  0
 17 98  1  0  0  0
 18 19  2  0  0  0
 18 99  1  0  0  0
 19 20  1  0  0  0
 19 24  1  0  0  0
 20 21  2  0  0  0
 20100  1  0  0  0
 21 23  1  0  0  0
 22 28  1  0  0  0
 22 32  2  0  0  0
 26 27  1  0  0  0
 28101  1  0  0  0
 28102  1  0  0  0
 29103  1  0  0  0
 29104  1  0  0  0
 33 34  1  0  0  0
 33 66  1  0  0  0
 33 70  2  0  0  0
 34 36  1  0  0  0
 34 59  1  0  0  0
 34105  1  0  0  0
 35 44  2  0  0  0
 35 45  1  0  0  0
 35 68  1  0  0  0
 36 56  1  0  0  0
 36106  1  0  0  0
 37 39  1  0  0  0
 37 47  1  0  0  0
 37 66  1  0  0  0
 37107  1  0  0  0
 38 43  2  0  0  0
 38 46  1  0  0  0
 38 47  1  0  0  0
 39 64  1  0  0  0
 39 67  2  0  0  0
 40 52  1  0  0  0
 40 53  2  0  0  0
 40 58  1  0  0  0
 41108  1  0  0  0
 41109  1  0  0  0
 41110  1  0  0  0
 41 48  1  0  0  0
 42 43  1  0  0  0
 42 66  1  0  0  0
 42111  1  0  0  0
 42112  1  0  0  0
 43 44  1  0  0  0
 44113  1  0  0  0
 45 46  2  0  0  0
 45114  1  0  0  0
 46115  1  0  0  0
 47116  1  0  0  0
 47117  1  0  0  0
 48 56  1  0  0  0
 48 65  1  0  0  0
 48118  1  0  0  0
 49 50  1  0  0  0
 49 53  1  0  0  0
 49 64  1  0  0  0
 49119  1  0  0  0
 50 51  1  0  0  0
 50120  1  0  0  0
 50121  1  0  0  0
 51 52  1  0  0  0
 51122  1  0  0  0
 51123  1  0  0  0
 52124  1  0  0  0
 52125  1  0  0  0
 53 54  1  0  0  0
 54 55  2  0  0  0
 54126  1  0  0  0
 55 57  1  0  0  0
 55127  1  0  0  0
 56 69  2  0  0  0
 57 58  2  0  0  0
 57128  1  0  0  0
 58129  1  0  0  0
 59 60  1  0  0  0
 59 61  1  0  0  0
 59 62  1  0  0  0
 60130  1  0  0  0
 60131  1  0  0  0
 60132  1  0  0  0
 61133  1  0  0  0
 61134  1  0  0  0
 61135  1  0  0  0
 62136  1  0  0  0
 62137  1  0  0  0
 62138  1  0  0  0
 63 65  1  0  0  0
 63139  1  0  0  0
 63140  1  0  0  0
 63141  1  0  0  0
 64142  1  0  0  0
 65143  1  0  0  0
 68 82  1  0  0  0
 71 73  2  0  0  0
 71 74  1  0  0  0
 71144  1  0  0  0
 72 73  1  0  0  0
 72 76  2  0  0  0
 72145  1  0  0  0
 73 77  1  0  0  0
 74 75  2  0  0  0
 74 80  1  0  0  0
 75 76  1  0  0  0
 75 81  1  0  0  0
 76 83  1  0  0  0
 77 78  2  0  0  0
 77146  1  0  0  0
 78 79  1  0  0  0
 78147  1  0  0  0
 79 82  1  0  0  0
 79 84  2  0  0  0
 80148  1  0  0  0
 80149  1  0  0  0
 80150  1  0  0  0
 81151  1  0  0  0
 81152  1  0  0  0
 81153  1  0  0  0
 82154  1  0  0  0
 82155  1  0  0  0
 83156  1  0  0  0
M  ISO  4   1 100  68 101  82 101  83 100
M  END
> <chiral flag>
0

> <version>
0

> <s_m_source_file>
/data/baiqing/PycharmProjects/Reinvent-master-3.2/result/LINK_invent/BTK/process_docking_weight1_custom_product_contain_oxygen_bond_distance_aromatic_linkinvent_7_9_3/rearranged_h_0123.sdf

> <i_m_source_file_index>
44

> <r_mmod_Potential_Energy-OPLS-2005>
169.550064086914

> <r_mmod_Stretch_Energy-OPLS-2005>
123.33430480957

> <r_mmod_Bend_Energy-OPLS-2005>
151.875701904297

> <r_mmod_Torsional_Energy-OPLS-2005>
247.661712646484

> <r_mmod_Improper_Torsional_Energy-OPLS-2005>
5.77250385284424

> <r_mmod_Van_der_Waal_Energy-OPLS-2005>
154.131240844727

> <r_mmod_Electrostatic_Energy-OPLS-2005>
-364.208648681641

> <r_mmod_Solvation_Energy-OPLS-2005>
-236.397003173828

> <b_mmod_Minimization_Converged-OPLS-2005>
0

> <r_mmod_RMS_Derivative-OPLS-2005>
0.987306475639343

$$$$
44
                    3D
 Structure written by MMmdl.
154162  0  0  1  0            999 V2000
  -30.6752  -14.4797   20.5533 C   0  0  0  0  0  0
  -30.4285  -12.3036   19.4266 C   0  0  0  0  0  0
  -29.4992  -12.5060   18.2104 C   0  0  0  0  0  0
  -28.0190  -12.3670   18.6192 C   0  0  0  0  0  0
  -27.6645  -13.2036   19.8776 C   0  0  2  0  0  0
  -28.7039  -12.9727   20.9984 C   0  0  0  0  0  0
  -25.2604  -13.8156   20.5676 C   0  0  0  0  0  0
  -24.1846  -13.0439   20.9165 C   0  0  0  0  0  0
  -24.6392  -11.6903   20.8725 C   0  0  0  0  0  0
  -23.9056  -10.4292   21.0400 C   0  0  0  0  0  0
  -24.3609   -9.4209   21.9180 C   0  0  0  0  0  0
  -23.6287   -8.2244   22.0753 C   0  0  0  0  0  0
  -22.4270   -8.0280   21.3543 C   0  0  0  0  0  0
  -21.9901   -9.0253   20.4647 C   0  0  0  0  0  0
  -22.7227  -10.2134   20.3053 C   0  0  0  0  0  0
  -21.6852   -6.0734   22.5278 C   0  0  0  0  0  0
  -21.4014   -6.5639   23.8211 C   0  0  0  0  0  0
  -21.3659   -5.6792   24.9174 C   0  0  0  0  0  0
  -21.6044   -4.3055   24.7225 C   0  0  0  0  0  0
  -21.8819   -3.8146   23.4347 C   0  0  0  0  0  0
  -21.9193   -4.6962   22.3402 C   0  0  0  0  0  0
  -22.7870  -13.5243   21.1835 C   0  0  0  0  0  0
  -22.1661   -4.2147   21.0980 F   0  0  0  0  0  0
  -21.5628   -3.4539   25.7739 F   0  0  0  0  0  0
  -30.0385  -13.2809   20.4546 N   0  0  0  0  0  0
  -26.3037  -12.9318   20.3365 N   0  0  0  0  0  0
  -25.9319  -11.6481   20.5758 N   0  0  0  0  0  0
  -22.0510  -12.8240   22.0396 N   0  0  0  0  0  0
  -25.4344  -15.1873   20.4100 N   0  0  0  0  0  0
  -31.8054  -14.6812   20.0978 O   0  0  0  0  0  0
  -21.6637   -6.8876   21.4239 O   0  0  0  0  0  0
  -22.3556  -14.5551   20.6688 O   0  0  0  0  0  0
  -24.6157  -31.8672   23.2093 C   0  0  0  0  0  0
  -25.9047  -32.4818   23.8389 C   0  0  1  0  0  0
  -27.2379  -27.4278   20.0844 C   0  0  0  0  0  0
  -25.5900  -33.8616   24.2322 N   0  0  0  0  0  0
  -23.4035  -30.4912   21.5503 C   0  0  2  0  0  0
  -24.8485  -28.9569   20.1132 C   0  0  0  0  0  0
  -22.7414  -29.4656   22.4985 C   0  0  0  0  0  0
  -18.0273  -28.1377   22.8492 C   0  0  0  0  0  0
  -24.1487  -36.7315   23.2638 C   0  0  0  0  0  0
  -25.9336  -30.8302   21.3628 C   0  0  0  0  0  0
  -26.0101  -29.4652   20.7066 C   0  0  0  0  0  0
  -27.2048  -28.7074   20.6897 C   0  0  0  0  0  0
  -26.0471  -26.9288   19.5040 C   0  0  0  0  0  0
  -24.8619  -27.6878   19.5109 C   0  0  0  0  0  0
  -23.6113  -29.8247   20.1644 C   0  0  0  0  0  0
  -25.4108  -36.3110   24.0337 C   0  0  1  0  0  0
  -20.5864  -28.3664   23.1316 C   0  0  2  0  0  0
  -20.6764  -26.9400   22.5417 C   0  0  0  0  0  0
  -19.5743  -26.6385   21.5212 C   0  0  0  0  0  0
  -18.1922  -26.7924   22.1624 C   0  0  0  0  0  0
  -19.1522  -28.8837   23.2902 C   0  0  0  0  0  0
  -18.9451  -30.1443   23.8912 C   0  0  0  0  0  0
  -17.6454  -30.6584   24.0566 C   0  0  0  0  0  0
  -25.9036  -34.9474   23.5127 C   0  0  0  0  0  0
  -16.5345  -29.9087   23.6325 C   0  0  0  0  0  0
  -16.7262  -28.6503   23.0346 C   0  0  0  0  0  0
  -26.4472  -31.6599   25.0721 C   0  0  0  0  0  0
  -25.3740  -31.3705   26.1471 C   0  0  0  0  0  0
  -27.0302  -30.3043   24.6096 C   0  0  0  0  0  0
  -27.6050  -32.4317   25.7481 C   0  0  0  0  0  0
  -27.5581  -37.1812   24.8465 C   0  0  0  0  0  0
  -21.4141  -29.3032   22.3724 N   0  0  0  0  0  0
  -26.4296  -37.3793   23.9407 N   0  0  0  0  0  0
  -24.6694  -31.0770   22.0993 N   0  0  0  0  0  0
  -23.4185  -28.8198   23.3029 O   0  0  0  0  0  0
  -28.4106  -26.6924   20.1255 O   0  0  0  0  0  0
  -26.5599  -34.8926   22.4690 O   0  0  0  0  0  0
  -23.5348  -32.1425   23.7486 O   0  0  0  0  0  0
  -29.4675  -17.8236   21.5920 C   0  0  0  0  0  0
  -29.7508  -18.5308   18.9058 C   0  0  0  0  0  0
  -29.2270  -19.1642   21.1928 C   0  0  0  0  0  0
  -29.3778  -19.5358   19.8261 C   0  0  0  0  0  0
  -29.8413  -16.8251   20.6626 C   0  0  0  0  0  0
  -29.9703  -17.1956   19.3014 C   0  0  0  0  0  0
  -29.2274  -24.4577   19.7902 C   0  0  0  0  0  0
  -28.5512  -25.5491   19.3698 C   0  0  0  0  0  0
  -29.6113  -21.8893   19.6929 C   0  0  0  0  0  0
  -28.7579  -20.1533   22.2489 C   0  0  0  0  0  0
  -29.4359  -23.2084   18.9352 C   0  0  0  0  0  0
  -29.0825  -20.8020   19.2795 N   0  0  0  0  0  0
  -29.9471  -15.4675   21.1096 N   0  0  0  0  0  0
  -30.2371  -16.2730   18.3452 F   0  0  0  0  0  0
  -31.4729  -12.4087   19.1272 H   0  0  0  0  0  0
  -30.3328  -11.2900   19.8190 H   0  0  0  0  0  0
  -29.7395  -11.7843   17.4287 H   0  0  0  0  0  0
  -29.6685  -13.4934   17.7773 H   0  0  0  0  0  0
  -27.8272  -11.3107   18.8120 H   0  0  0  0  0  0
  -27.3707  -12.6456   17.7876 H   0  0  0  0  0  0
  -27.7125  -14.2529   19.5851 H   0  0  0  0  0  0
  -28.6778  -11.9337   21.3298 H   0  0  0  0  0  0
  -28.4624  -13.5624   21.8836 H   0  0  0  0  0  0
  -25.2757   -9.5686   22.4751 H   0  0  0  0  0  0
  -23.9998   -7.4637   22.7473 H   0  0  0  0  0  0
  -21.0831   -8.8771   19.8956 H   0  0  0  0  0  0
  -22.3684  -10.9671   19.6161 H   0  0  0  0  0  0
  -21.2007   -7.6148   23.9714 H   0  0  0  0  0  0
  -21.1481   -6.0523   25.9077 H   0  0  0  0  0  0
  -22.0599   -2.7607   23.2848 H   0  0  0  0  0  0
  -22.4120  -11.9897   22.4781 H   0  0  0  0  0  0
  -21.1132  -13.1275   22.2609 H   0  0  0  0  0  0
  -24.6717  -15.8462   20.5221 H   0  0  0  0  0  0
  -26.2934  -15.6251   20.1015 H   0  0  0  0  0  0
  -26.7117  -32.5524   23.1152 H   0  0  0  0  0  0
  -25.0055  -33.9777   25.0470 H   0  0  0  0  0  0
  -22.6927  -31.3085   21.4119 H   0  0  0  0  0  0
  -23.3744  -35.9654   23.3313 H   0  0  0  0  0  0
  -24.3580  -36.8917   22.2050 H   0  0  0  0  0  0
  -23.7246  -37.6526   23.6645 H   0  0  0  0  0  0
  -26.0481  -31.5976   20.5960 H   0  0  0  0  0  0
  -26.8209  -30.8814   21.9822 H   0  0  0  0  0  0
  -28.1020  -29.0954   21.1512 H   0  0  0  0  0  0
  -26.0098  -25.9472   19.0550 H   0  0  0  0  0  0
  -23.9650  -27.2852   19.0605 H   0  0  0  0  0  0
  -23.7204  -30.6002   19.4055 H   0  0  0  0  0  0
  -22.7345  -29.2460   19.8680 H   0  0  0  0  0  0
  -25.1285  -36.1977   25.0830 H   0  0  0  0  0  0
  -20.9956  -28.3230   24.1436 H   0  0  0  0  0  0
  -20.5667  -26.2271   23.3603 H   0  0  0  0  0  0
  -21.6635  -26.7445   22.1209 H   0  0  0  0  0  0
  -19.6906  -25.6301   21.1230 H   0  0  0  0  0  0
  -19.6683  -27.3205   20.6750 H   0  0  0  0  0  0
  -17.4192  -26.6671   21.4026 H   0  0  0  0  0  0
  -18.0325  -26.0063   22.9017 H   0  0  0  0  0  0
  -19.7928  -30.7253   24.2290 H   0  0  0  0  0  0
  -17.5010  -31.6265   24.5165 H   0  0  0  0  0  0
  -15.5346  -30.2995   23.7640 H   0  0  0  0  0  0
  -15.8662  -28.0830   22.7051 H   0  0  0  0  0  0
  -24.5909  -30.7055   25.7808 H   0  0  0  0  0  0
  -24.8936  -32.2860   26.4932 H   0  0  0  0  0  0
  -25.8096  -30.8864   27.0221 H   0  0  0  0  0  0
  -26.2845  -29.6805   24.1152 H   0  0  0  0  0  0
  -27.4076  -29.7276   25.4551 H   0  0  0  0  0  0
  -27.8678  -30.4364   23.9243 H   0  0  0  0  0  0
  -27.2670  -33.3603   26.2094 H   0  0  0  0  0  0
  -28.3840  -32.6900   25.0296 H   0  0  0  0  0  0
  -28.0740  -31.8421   26.5368 H   0  0  0  0  0  0
  -28.2609  -38.0100   24.7504 H   0  0  0  0  0  0
  -28.1067  -36.2632   24.6301 H   0  0  0  0  0  0
  -27.2298  -37.1476   25.8869 H   0  0  0  0  0  0
  -20.9301  -29.8760   21.6951 H   0  0  0  0  0  0
  -26.0186  -38.2874   24.1400 H   0  0  0  0  0  0
  -29.3328  -17.5497   22.6290 H   0  0  0  0  0  0
  -29.8363  -18.7726   17.8564 H   0  0  0  0  0  0
  -29.6796  -24.4584   20.7723 H   0  0  0  0  0  0
  -28.0903  -25.6244   18.3939 H   0  0  0  0  0  0
  -30.2656  -21.9378   20.5679 H   0  0  0  0  0  0
  -28.3840  -19.6404   23.1355 H   0  0  0  0  0  0
  -27.9476  -20.7766   21.8698 H   0  0  0  0  0  0
  -29.5787  -20.7994   22.5602 H   0  0  0  0  0  0
  -30.3376  -23.3645   18.3429 H   0  0  0  0  0  0
  -28.6138  -23.1169   18.2239 H   0  0  0  0  0  0
  -29.1842  -15.1506   21.6873 H   0  0  0  0  0  0
  1 25  1  0  0  0
  1 30  2  0  0  0
  1 83  1  0  0  0
  2  3  1  0  0  0
  2 25  1  0  0  0
  2 85  1  0  0  0
  2 86  1  0  0  0
  3  4  1  0  0  0
  3 87  1  0  0  0
  3 88  1  0  0  0
  4  5  1  0  0  0
  4 89  1  0  0  0
  4 90  1  0  0  0
  5  6  1  0  0  0
  5 26  1  0  0  0
  5 91  1  0  0  0
  6 25  1  0  0  0
  6 92  1  0  0  0
  6 93  1  0  0  0
  7  8  2  0  0  0
  7 26  1  0  0  0
  7 29  1  0  0  0
  8  9  1  0  0  0
  8 22  1  0  0  0
  9 10  1  0  0  0
  9 27  2  0  0  0
 10 11  2  0  0  0
 10 15  1  0  0  0
 11 12  1  0  0  0
 11 94  1  0  0  0
 12 13  2  0  0  0
 12 95  1  0  0  0
 13 14  1  0  0  0
 13 31  1  0  0  0
 14 15  2  0  0  0
 14 96  1  0  0  0
 15 97  1  0  0  0
 16 17  2  0  0  0
 16 21  1  0  0  0
 16 31  1  0  0  0
 17 18  1  0  0  0
 17 98  1  0  0  0
 18 19  2  0  0  0
 18 99  1  0  0  0
 19 20  1  0  0  0
 19 24  1  0  0  0
 20 21  2  0  0  0
 20100  1  0  0  0
 21 23  1  0  0  0
 22 28  1  0  0  0
 22 32  2  0  0  0
 26 27  1  0  0  0
 28101  1  0  0  0
 28102  1  0  0  0
 29103  1  0  0  0
 29104  1  0  0  0
 33 34  1  0  0  0
 33 66  1  0  0  0
 33 70  2  0  0  0
 34 36  1  0  0  0
 34 59  1  0  0  0
 34105  1  0  0  0
 35 44  2  0  0  0
 35 45  1  0  0  0
 35 68  1  0  0  0
 36 56  1  0  0  0
 36106  1  0  0  0
 37 39  1  0  0  0
 37 47  1  0  0  0
 37 66  1  0  0  0
 37107  1  0  0  0
 38 43  2  0  0  0
 38 46  1  0  0  0
 38 47  1  0  0  0
 39 64  1  0  0  0
 39 67  2  0  0  0
 40 52  1  0  0  0
 40 53  2  0  0  0
 40 58  1  0  0  0
 41108  1  0  0  0
 41109  1  0  0  0
 41110  1  0  0  0
 41 48  1  0  0  0
 42 43  1  0  0  0
 42 66  1  0  0  0
 42111  1  0  0  0
 42112  1  0  0  0
 43 44  1  0  0  0
 44113  1  0  0  0
 45 46  2  0  0  0
 45114  1  0  0  0
 46115  1  0  0  0
 47116  1  0  0  0
 47117  1  0  0  0
 48 56  1  0  0  0
 48 65  1  0  0  0
 48118  1  0  0  0
 49 50  1  0  0  0
 49 53  1  0  0  0
 49 64  1  0  0  0
 49119  1  0  0  0
 50 51  1  0  0  0
 50120  1  0  0  0
 50121  1  0  0  0
 51 52  1  0  0  0
 51122  1  0  0  0
 51123  1  0  0  0
 52124  1  0  0  0
 52125  1  0  0  0
 53 54  1  0  0  0
 54 55  2  0  0  0
 54126  1  0  0  0
 55 57  1  0  0  0
 55127  1  0  0  0
 56 69  2  0  0  0
 57 58  2  0  0  0
 57128  1  0  0  0
 58129  1  0  0  0
 59 60  1  0  0  0
 59 61  1  0  0  0
 59 62  1  0  0  0
 60130  1  0  0  0
 60131  1  0  0  0
 60132  1  0  0  0
 61133  1  0  0  0
 61134  1  0  0  0
 61135  1  0  0  0
 62136  1  0  0  0
 62137  1  0  0  0
 62138  1  0  0  0
 63 65  1  0  0  0
 63139  1  0  0  0
 63140  1  0  0  0
 63141  1  0  0  0
 64142  1  0  0  0
 65143  1  0  0  0
 68 78  1  0  0  0
 71 73  2  0  0  0
 71 75  1  0  0  0
 71144  1  0  0  0
 72 74  2  0  0  0
 72 76  1  0  0  0
 72145  1  0  0  0
 73 74  1  0  0  0
 73 80  1  0  0  0
 74 82  1  0  0  0
 75 76  2  0  0  0
 75 83  1  0  0  0
 76 84  1  0  0  0
 77 78  2  0  0  0
 77 81  1  0  0  0
 77146  1  0  0  0
 78147  1  0  0  0
 79 81  1  0  0  0
 79 82  2  0  0  0
 79148  1  0  0  0
 80149  1  0  0  0
 80150  1  0  0  0
 80151  1  0  0  0
 81152  1  0  0  0
 81153  1  0  0  0
 83154  1  0  0  0
M  ISO  4   1 100  68 101  78 101  83 100
M  END
> <chiral flag>
0

> <version>
0

> <s_m_source_file>
/data/baiqing/PycharmProjects/Reinvent-master-3.2/result/LINK_invent/BTK/process_docking_weight1_custom_product_contain_oxygen_bond_distance_aromatic_linkinvent_7_9_3/rearranged_h_0123.sdf

> <i_m_source_file_index>
45

> <r_mmod_Potential_Energy-OPLS-2005>
-66.2815933227539

> <r_mmod_Stretch_Energy-OPLS-2005>
39.2307510375977

> <r_mmod_Bend_Energy-OPLS-2005>
108.374351501465

> <r_mmod_Torsional_Energy-OPLS-2005>
241.109817504883

> <r_mmod_Improper_Torsional_Energy-OPLS-2005>
5.2774133682251

> <r_mmod_Van_der_Waal_Energy-OPLS-2005>
158.147308349609

> <r_mmod_Electrostatic_Energy-OPLS-2005>
-422.741088867188

> <r_mmod_Solvation_Energy-OPLS-2005>
-209.722503662109

> <b_mmod_Minimization_Converged-OPLS-2005>
0

> <r_mmod_RMS_Derivative-OPLS-2005>
0.166892126202583

$$$$
45
                    3D
 Structure written by MMmdl.
161170  0  0  1  0            999 V2000
  -30.6964  -14.5518   20.4808 C   0  0  0  0  0  0
  -30.4140  -12.3259   19.4638 C   0  0  0  0  0  0
  -29.4973  -12.4669   18.2298 C   0  0  0  0  0  0
  -28.0204  -12.3218   18.6430 C   0  0  0  0  0  0
  -27.6499  -13.2139   19.8588 C   0  0  2  0  0  0
  -28.6909  -13.0920   20.9950 C   0  0  0  0  0  0
  -25.2552  -13.8186   20.5679 C   0  0  0  0  0  0
  -24.1834  -13.0450   20.9215 C   0  0  0  0  0  0
  -24.6396  -11.6920   20.8763 C   0  0  0  0  0  0
  -23.9066  -10.4305   21.0417 C   0  0  0  0  0  0
  -24.3627   -9.4221   21.9192 C   0  0  0  0  0  0
  -23.6320   -8.2241   22.0745 C   0  0  0  0  0  0
  -22.4291   -8.0281   21.3548 C   0  0  0  0  0  0
  -21.9921   -9.0256   20.4649 C   0  0  0  0  0  0
  -22.7238  -10.2141   20.3064 C   0  0  0  0  0  0
  -21.6851   -6.0757   22.5303 C   0  0  0  0  0  0
  -21.4009   -6.5655   23.8239 C   0  0  0  0  0  0
  -21.3653   -5.6802   24.9198 C   0  0  0  0  0  0
  -21.6046   -4.3071   24.7250 C   0  0  0  0  0  0
  -21.8810   -3.8163   23.4371 C   0  0  0  0  0  0
  -21.9196   -4.6988   22.3430 C   0  0  0  0  0  0
  -22.7860  -13.5243   21.1894 C   0  0  0  0  0  0
  -22.1660   -4.2172   21.1011 F   0  0  0  0  0  0
  -21.5632   -3.4547   25.7759 F   0  0  0  0  0  0
  -30.0173  -13.3694   20.4269 N   0  0  0  0  0  0
  -26.2969  -12.9368   20.3308 N   0  0  0  0  0  0
  -25.9322  -11.6529   20.5790 N   0  0  0  0  0  0
  -22.0503  -12.8221   22.0437 N   0  0  0  0  0  0
  -25.4265  -15.1900   20.4060 N   0  0  0  0  0  0
  -31.8865  -14.6155   20.1671 O   0  0  0  0  0  0
  -21.6647   -6.8885   21.4250 O   0  0  0  0  0  0
  -22.3543  -14.5545   20.6741 O   0  0  0  0  0  0
  -24.6173  -31.8659   23.2086 C   0  0  0  0  0  0
  -25.9068  -32.4805   23.8379 C   0  0  1  0  0  0
  -27.2323  -27.4072   20.1095 C   0  0  0  0  0  0
  -25.5929  -33.8601   24.2312 N   0  0  0  0  0  0
  -23.4064  -30.4894   21.5492 C   0  0  2  0  0  0
  -24.8554  -28.9516   20.1136 C   0  0  0  0  0  0
  -22.7428  -29.4653   22.4982 C   0  0  0  0  0  0
  -18.0273  -28.1377   22.8500 C   0  0  0  0  0  0
  -24.1491  -36.7293   23.2631 C   0  0  0  0  0  0
  -25.9384  -30.8225   21.3678 C   0  0  0  0  0  0
  -26.0178  -29.4550   20.7145 C   0  0  0  0  0  0
  -27.2113  -28.6902   20.7125 C   0  0  0  0  0  0
  -26.0607  -26.9308   19.4876 C   0  0  0  0  0  0
  -24.8720  -27.6879   19.4978 C   0  0  0  0  0  0
  -23.6175  -29.8211   20.1644 C   0  0  0  0  0  0
  -25.4109  -36.3092   24.0330 C   0  0  1  0  0  0
  -20.5871  -28.3667   23.1319 C   0  0  2  0  0  0
  -20.6767  -26.9402   22.5432 C   0  0  0  0  0  0
  -19.5749  -26.6381   21.5229 C   0  0  0  0  0  0
  -18.1921  -26.7926   22.1623 C   0  0  0  0  0  0
  -19.1529  -28.8836   23.2906 C   0  0  0  0  0  0
  -18.9451  -30.1440   23.8909 C   0  0  0  0  0  0
  -17.6452  -30.6582   24.0563 C   0  0  0  0  0  0
  -25.9047  -34.9462   23.5116 C   0  0  0  0  0  0
  -16.5342  -29.9083   23.6331 C   0  0  0  0  0  0
  -16.7259  -28.6505   23.0352 C   0  0  0  0  0  0
  -26.4485  -31.6586   25.0709 C   0  0  0  0  0  0
  -25.3754  -31.3734   26.1470 C   0  0  0  0  0  0
  -27.0283  -30.3008   24.6106 C   0  0  0  0  0  0
  -27.6065  -32.4307   25.7460 C   0  0  0  0  0  0
  -27.5596  -37.1773   24.8442 C   0  0  0  0  0  0
  -21.4154  -29.3029   22.3718 N   0  0  0  0  0  0
  -26.4278  -37.3799   23.9438 N   0  0  0  0  0  0
  -24.6720  -31.0747   22.0997 N   0  0  0  0  0  0
  -23.4200  -28.8205   23.3039 O   0  0  0  0  0  0
  -28.3425  -26.5829   20.1465 O   0  0  0  0  0  0
  -26.5612  -34.8925   22.4679 O   0  0  0  0  0  0
  -23.5362  -32.1424   23.7472 O   0  0  0  0  0  0
  -29.3884  -18.1334   20.5454 C   0  0  0  0  0  0
  -30.5294  -19.6064   18.9627 C   0  0  0  0  0  0
  -31.2156  -17.2788   19.1908 C   0  0  0  0  0  0
  -29.5358  -19.4300   19.9473 C   0  0  0  0  0  0
  -30.2110  -17.0241   20.1647 C   0  0  0  0  0  0
  -31.3746  -18.5471   18.6060 C   0  0  0  0  0  0
  -28.7645  -24.1324   20.7736 C   0  0  0  0  0  0
  -28.0553  -23.0122   20.5099 C   0  0  0  0  0  0
  -28.5766  -20.5444   20.1968 C   0  0  0  0  0  0
  -30.2373  -23.8360   20.8744 C   0  0  0  0  0  0
  -30.3056  -22.3161   20.6166 C   0  0  0  0  0  0
  -26.5381  -22.9481   20.3714 C   0  0  0  0  0  0
  -28.2317  -25.5390   21.1468 C   0  0  0  0  0  0
  -28.9040  -21.8773   20.3941 N   0  0  0  0  0  0
  -29.9679  -15.6843   20.6950 N   0  0  0  0  0  0
  -27.2970  -20.1801   20.1777 N   0  3  0  0  0  0
  -32.3297  -18.7416   17.6643 F   0  0  0  0  0  0
  -31.4608  -12.3990   19.1627 H   0  0  0  0  0  0
  -30.3074  -11.3373   19.9147 H   0  0  0  0  0  0
  -29.7518  -11.7112   17.4858 H   0  0  0  0  0  0
  -29.6571  -13.4359   17.7548 H   0  0  0  0  0  0
  -27.8558  -11.2743   18.8955 H   0  0  0  0  0  0
  -27.3633  -12.5300   17.7992 H   0  0  0  0  0  0
  -27.6678  -14.2441   19.5040 H   0  0  0  0  0  0
  -28.6715  -12.0909   21.4291 H   0  0  0  0  0  0
  -28.4515  -13.7777   21.8095 H   0  0  0  0  0  0
  -25.2772   -9.5717   22.4773 H   0  0  0  0  0  0
  -24.0059   -7.4622   22.7443 H   0  0  0  0  0  0
  -21.0855   -8.8755   19.8958 H   0  0  0  0  0  0
  -22.3680  -10.9684   19.6174 H   0  0  0  0  0  0
  -21.1973   -7.6160   23.9761 H   0  0  0  0  0  0
  -21.1481   -6.0525   25.9101 H   0  0  0  0  0  0
  -22.0592   -2.7628   23.2869 H   0  0  0  0  0  0
  -22.4115  -11.9870   22.4824 H   0  0  0  0  0  0
  -21.1122  -13.1241   22.2662 H   0  0  0  0  0  0
  -24.6524  -15.8387   20.5008 H   0  0  0  0  0  0
  -26.2686  -15.6246   20.0496 H   0  0  0  0  0  0
  -26.7141  -32.5505   23.1136 H   0  0  0  0  0  0
  -25.0102  -33.9763   25.0478 H   0  0  0  0  0  0
  -22.6962  -31.3069   21.4088 H   0  0  0  0  0  0
  -23.3775  -35.9599   23.3228 H   0  0  0  0  0  0
  -24.3617  -36.8976   22.2063 H   0  0  0  0  0  0
  -23.7203  -37.6455   23.6696 H   0  0  0  0  0  0
  -26.0572  -31.5870   20.5985 H   0  0  0  0  0  0
  -26.8246  -30.8738   21.9891 H   0  0  0  0  0  0
  -28.1014  -29.0662   21.1978 H   0  0  0  0  0  0
  -26.0637  -25.9603   19.0107 H   0  0  0  0  0  0
  -23.9788  -27.2906   19.0356 H   0  0  0  0  0  0
  -23.7298  -30.5953   19.4055 H   0  0  0  0  0  0
  -22.7405  -29.2444   19.8668 H   0  0  0  0  0  0
  -25.1284  -36.1923   25.0818 H   0  0  0  0  0  0
  -20.9968  -28.3234   24.1438 H   0  0  0  0  0  0
  -20.5669  -26.2280   23.3627 H   0  0  0  0  0  0
  -21.6633  -26.7434   22.1218 H   0  0  0  0  0  0
  -19.6908  -25.6297   21.1250 H   0  0  0  0  0  0
  -19.6702  -27.3201   20.6772 H   0  0  0  0  0  0
  -17.4211  -26.6701   21.4004 H   0  0  0  0  0  0
  -18.0286  -26.0049   22.8995 H   0  0  0  0  0  0
  -19.7926  -30.7258   24.2287 H   0  0  0  0  0  0
  -17.5007  -31.6265   24.5155 H   0  0  0  0  0  0
  -15.5351  -30.2991   23.7644 H   0  0  0  0  0  0
  -15.8657  -28.0826   22.7064 H   0  0  0  0  0  0
  -24.5909  -30.7092   25.7831 H   0  0  0  0  0  0
  -24.8974  -32.2909   26.4909 H   0  0  0  0  0  0
  -25.8109  -30.8915   27.0229 H   0  0  0  0  0  0
  -26.2809  -29.6786   24.1166 H   0  0  0  0  0  0
  -27.4026  -29.7240   25.4572 H   0  0  0  0  0  0
  -27.8674  -30.4290   23.9262 H   0  0  0  0  0  0
  -27.2677  -33.3589   26.2072 H   0  0  0  0  0  0
  -28.3845  -32.6892   25.0265 H   0  0  0  0  0  0
  -28.0762  -31.8410   26.5342 H   0  0  0  0  0  0
  -28.2539  -38.0144   24.7605 H   0  0  0  0  0  0
  -28.1167  -36.2688   24.6103 H   0  0  0  0  0  0
  -27.2349  -37.1202   25.8846 H   0  0  0  0  0  0
  -20.9324  -29.8744   21.6921 H   0  0  0  0  0  0
  -26.0145  -38.2848   24.1537 H   0  0  0  0  0  0
  -28.6103  -17.9802   21.2821 H   0  0  0  0  0  0
  -30.6255  -20.5372   18.4229 H   0  0  0  0  0  0
  -31.8741  -16.5109   18.8200 H   0  0  0  0  0  0
  -30.6143  -24.0834   21.8675 H   0  0  0  0  0  0
  -30.8005  -24.4056   20.1344 H   0  0  0  0  0  0
  -30.7358  -21.7976   21.4762 H   0  0  0  0  0  0
  -30.9451  -22.1243   19.7580 H   0  0  0  0  0  0
  -26.1086  -23.9444   20.2846 H   0  0  0  0  0  0
  -26.0862  -22.4761   21.2452 H   0  0  0  0  0  0
  -26.2399  -22.4192   19.4669 H   0  0  0  0  0  0
  -28.7778  -25.8719   22.0291 H   0  0  0  0  0  0
  -27.2026  -25.4311   21.4905 H   0  0  0  0  0  0
  -29.0616  -15.5317   21.1130 H   0  0  0  0  0  0
  -27.0498  -19.2279   19.9613 H   0  0  0  0  0  0
  -26.5761  -20.8785   20.2649 H   0  0  0  0  0  0
  1 25  1  0  0  0
  1 30  2  0  0  0
  1 85  1  0  0  0
  2  3  1  0  0  0
  2 25  1  0  0  0
  2 88  1  0  0  0
  2 89  1  0  0  0
  3  4  1  0  0  0
  3 90  1  0  0  0
  3 91  1  0  0  0
  4  5  1  0  0  0
  4 92  1  0  0  0
  4 93  1  0  0  0
  5  6  1  0  0  0
  5 26  1  0  0  0
  5 94  1  0  0  0
  6 25  1  0  0  0
  6 95  1  0  0  0
  6 96  1  0  0  0
  7  8  2  0  0  0
  7 26  1  0  0  0
  7 29  1  0  0  0
  8  9  1  0  0  0
  8 22  1  0  0  0
  9 10  1  0  0  0
  9 27  2  0  0  0
 10 11  2  0  0  0
 10 15  1  0  0  0
 11 12  1  0  0  0
 11 97  1  0  0  0
 12 13  2  0  0  0
 12 98  1  0  0  0
 13 14  1  0  0  0
 13 31  1  0  0  0
 14 15  2  0  0  0
 14 99  1  0  0  0
 15100  1  0  0  0
 16 17  2  0  0  0
 16 21  1  0  0  0
 16 31  1  0  0  0
 17 18  1  0  0  0
 17101  1  0  0  0
 18 19  2  0  0  0
 18102  1  0  0  0
 19 20  1  0  0  0
 19 24  1  0  0  0
 20 21  2  0  0  0
 20103  1  0  0  0
 21 23  1  0  0  0
 22 28  1  0  0  0
 22 32  2  0  0  0
 26 27  1  0  0  0
 28104  1  0  0  0
 28105  1  0  0  0
 29106  1  0  0  0
 29107  1  0  0  0
 33 34  1  0  0  0
 33 66  1  0  0  0
 33 70  2  0  0  0
 34 36  1  0  0  0
 34 59  1  0  0  0
 34108  1  0  0  0
 35 44  2  0  0  0
 35 45  1  0  0  0
 35 68  1  0  0  0
 36 56  1  0  0  0
 36109  1  0  0  0
 37 39  1  0  0  0
 37 47  1  0  0  0
 37 66  1  0  0  0
 37110  1  0  0  0
 38 43  2  0  0  0
 38 46  1  0  0  0
 38 47  1  0  0  0
 39 64  1  0  0  0
 39 67  2  0  0  0
 40 52  1  0  0  0
 40 53  2  0  0  0
 40 58  1  0  0  0
 41111  1  0  0  0
 41112  1  0  0  0
 41113  1  0  0  0
 41 48  1  0  0  0
 42 43  1  0  0  0
 42 66  1  0  0  0
 42114  1  0  0  0
 42115  1  0  0  0
 43 44  1  0  0  0
 44116  1  0  0  0
 45 46  2  0  0  0
 45117  1  0  0  0
 46118  1  0  0  0
 47119  1  0  0  0
 47120  1  0  0  0
 48 56  1  0  0  0
 48 65  1  0  0  0
 48121  1  0  0  0
 49 50  1  0  0  0
 49 53  1  0  0  0
 49 64  1  0  0  0
 49122  1  0  0  0
 50 51  1  0  0  0
 50123  1  0  0  0
 50124  1  0  0  0
 51 52  1  0  0  0
 51125  1  0  0  0
 51126  1  0  0  0
 52127  1  0  0  0
 52128  1  0  0  0
 53 54  1  0  0  0
 54 55  2  0  0  0
 54129  1  0  0  0
 55 57  1  0  0  0
 55130  1  0  0  0
 56 69  2  0  0  0
 57 58  2  0  0  0
 57131  1  0  0  0
 58132  1  0  0  0
 59 60  1  0  0  0
 59 61  1  0  0  0
 59 62  1  0  0  0
 60133  1  0  0  0
 60134  1  0  0  0
 60135  1  0  0  0
 61136  1  0  0  0
 61137  1  0  0  0
 61138  1  0  0  0
 62139  1  0  0  0
 62140  1  0  0  0
 62141  1  0  0  0
 63 65  1  0  0  0
 63142  1  0  0  0
 63143  1  0  0  0
 63144  1  0  0  0
 64145  1  0  0  0
 65146  1  0  0  0
 68 83  1  0  0  0
 71 74  2  0  0  0
 71 75  1  0  0  0
 71147  1  0  0  0
 72 74  1  0  0  0
 72 76  2  0  0  0
 72148  1  0  0  0
 73 75  2  0  0  0
 73 76  1  0  0  0
 73149  1  0  0  0
 74 79  1  0  0  0
 75 85  1  0  0  0
 76 87  1  0  0  0
 77 78  2  0  0  0
 77 80  1  0  0  0
 77 83  1  0  0  0
 78 82  1  0  0  0
 78 84  1  0  0  0
 79 84  1  0  0  0
 79 86  2  0  0  0
 80 81  1  0  0  0
 80150  1  0  0  0
 80151  1  0  0  0
 81 84  1  0  0  0
 81152  1  0  0  0
 81153  1  0  0  0
 82154  1  0  0  0
 82155  1  0  0  0
 82156  1  0  0  0
 83157  1  0  0  0
 83158  1  0  0  0
 85159  1  0  0  0
 86160  1  0  0  0
 86161  1  0  0  0
M  CHG  1  86   1
M  ISO  4   1 100  68 101  83 101  85 100
M  END
> <chiral flag>
0

> <version>
0

> <s_m_source_file>
/data/baiqing/PycharmProjects/Reinvent-master-3.2/result/LINK_invent/BTK/process_docking_weight1_custom_product_contain_oxygen_bond_distance_aromatic_linkinvent_7_9_3/rearranged_h_0123.sdf

> <i_m_source_file_index>
46

> <r_mmod_Potential_Energy-OPLS-2005>
-117.061325073242

> <r_mmod_Stretch_Energy-OPLS-2005>
58.9742088317871

> <r_mmod_Bend_Energy-OPLS-2005>
163.760848999023

> <r_mmod_Torsional_Energy-OPLS-2005>
246.40657043457

> <r_mmod_Improper_Torsional_Energy-OPLS-2005>
6.44835376739502

> <r_mmod_Van_der_Waal_Energy-OPLS-2005>
163.48713684082

> <r_mmod_Electrostatic_Energy-OPLS-2005>
-377.606109619141

> <r_mmod_Solvation_Energy-OPLS-2005>
-408.725189208984

> <b_mmod_Minimization_Converged-OPLS-2005>
0

> <r_mmod_RMS_Derivative-OPLS-2005>
2.51506567001343

$$$$
46
                    3D
 Structure written by MMmdl.
150158  0  0  1  0            999 V2000
  -30.6288  -14.6237   20.5030 C   0  0  0  0  0  0
  -30.4388  -12.3815   19.4494 C   0  0  0  0  0  0
  -29.5085  -12.5058   18.2221 C   0  0  0  0  0  0
  -28.0316  -12.3429   18.6343 C   0  0  0  0  0  0
  -27.6558  -13.2127   19.8636 C   0  0  2  0  0  0
  -28.7004  -13.0606   20.9930 C   0  0  0  0  0  0
  -25.2579  -13.8163   20.5671 C   0  0  0  0  0  0
  -24.1840  -13.0438   20.9185 C   0  0  0  0  0  0
  -24.6399  -11.6905   20.8739 C   0  0  0  0  0  0
  -23.9065  -10.4294   21.0406 C   0  0  0  0  0  0
  -24.3619   -9.4207   21.9180 C   0  0  0  0  0  0
  -23.6292   -8.2245   22.0753 C   0  0  0  0  0  0
  -22.4272   -8.0286   21.3547 C   0  0  0  0  0  0
  -21.9908   -9.0262   20.4652 C   0  0  0  0  0  0
  -22.7239  -10.2139   20.3057 C   0  0  0  0  0  0
  -21.6855   -6.0736   22.5279 C   0  0  0  0  0  0
  -21.4017   -6.5634   23.8212 C   0  0  0  0  0  0
  -21.3656   -5.6784   24.9172 C   0  0  0  0  0  0
  -21.6043   -4.3049   24.7220 C   0  0  0  0  0  0
  -21.8819   -3.8144   23.4340 C   0  0  0  0  0  0
  -21.9195   -4.6964   22.3400 C   0  0  0  0  0  0
  -22.7864  -13.5240   21.1849 C   0  0  0  0  0  0
  -22.1664   -4.2152   21.0975 F   0  0  0  0  0  0
  -21.5625   -3.4529   25.7732 F   0  0  0  0  0  0
  -30.0190  -13.3993   20.4322 N   0  0  0  0  0  0
  -26.3003  -12.9334   20.3313 N   0  0  0  0  0  0
  -25.9326  -11.6493   20.5749 N   0  0  0  0  0  0
  -22.0504  -12.8239   22.0409 N   0  0  0  0  0  0
  -25.4300  -15.1881   20.4056 N   0  0  0  0  0  0
  -31.7884  -14.7892   20.1130 O   0  0  0  0  0  0
  -21.6639   -6.8881   21.4243 O   0  0  0  0  0  0
  -22.3552  -14.5547   20.6695 O   0  0  0  0  0  0
  -24.6261  -31.8610   23.2048 C   0  0  0  0  0  0
  -25.9113  -32.4783   23.8367 C   0  0  1  0  0  0
  -27.2233  -27.3315   20.1074 C   0  0  0  0  0  0
  -25.5936  -33.8582   24.2293 N   0  0  0  0  0  0
  -23.4187  -30.4871   21.5474 C   0  0  2  0  0  0
  -24.8641  -28.9475   20.1123 C   0  0  0  0  0  0
  -22.7477  -29.4630   22.4938 C   0  0  0  0  0  0
  -18.0287  -28.1390   22.8479 C   0  0  0  0  0  0
  -24.1488  -36.7285   23.2626 C   0  0  0  0  0  0
  -25.9607  -30.7960   21.3755 C   0  0  0  0  0  0
  -26.0347  -29.4260   20.7141 C   0  0  0  0  0  0
  -27.2181  -28.6299   20.7023 C   0  0  0  0  0  0
  -26.0256  -26.9065   19.4828 C   0  0  0  0  0  0
  -24.8609  -27.6923   19.4896 C   0  0  0  0  0  0
  -23.6331  -29.8267   20.1611 C   0  0  0  0  0  0
  -25.4104  -36.3077   24.0330 C   0  0  1  0  0  0
  -20.5889  -28.3690   23.1282 C   0  0  2  0  0  0
  -20.6775  -26.9410   22.5415 C   0  0  0  0  0  0
  -19.5754  -26.6386   21.5211 C   0  0  0  0  0  0
  -18.1931  -26.7935   22.1616 C   0  0  0  0  0  0
  -19.1540  -28.8859   23.2877 C   0  0  0  0  0  0
  -18.9464  -30.1463   23.8891 C   0  0  0  0  0  0
  -17.6459  -30.6585   24.0565 C   0  0  0  0  0  0
  -25.9052  -34.9452   23.5109 C   0  0  0  0  0  0
  -16.5350  -29.9082   23.6329 C   0  0  0  0  0  0
  -16.7275  -28.6506   23.0338 C   0  0  0  0  0  0
  -26.4495  -31.6586   25.0732 C   0  0  0  0  0  0
  -25.3737  -31.3755   26.1473 C   0  0  0  0  0  0
  -27.0305  -30.2993   24.6193 C   0  0  0  0  0  0
  -27.6073  -32.4307   25.7484 C   0  0  0  0  0  0
  -27.5604  -37.1753   24.8430 C   0  0  0  0  0  0
  -21.4193  -29.3043   22.3681 N   0  0  0  0  0  0
  -26.4266  -37.3791   23.9452 N   0  0  0  0  0  0
  -24.6871  -31.0641   22.0990 N   0  0  0  0  0  0
  -23.4206  -28.8153   23.3001 O   0  0  0  0  0  0
  -28.3389  -26.4807   20.1519 O   0  0  0  0  0  0
  -26.5613  -34.8917   22.4670 O   0  0  0  0  0  0
  -23.5426  -32.1402   23.7383 O   0  0  0  0  0  0
  -31.0511  -17.8442   20.3154 C   0  0  0  0  0  0
  -28.7481  -17.9014   20.9908 C   0  0  0  0  0  0
  -29.8857  -20.0553   20.4919 C   0  0  0  0  0  0
  -29.9010  -17.1165   20.7175 C   0  0  0  0  0  0
  -31.0401  -19.2675   20.2078 C   0  0  0  0  0  0
  -28.7305  -19.3225   20.8751 C   0  0  0  0  0  0
  -29.9542  -21.5761   20.3737 C   0  0  0  0  0  0
  -28.9782  -22.5420   20.3729 C   0  0  0  0  0  0
  -29.2467  -24.0377   20.2873 C   0  0  0  0  0  0
  -28.0589  -25.0320   20.0250 C   0  0  0  0  0  0
  -29.8151  -15.6612   20.8706 N   0  0  0  0  0  0
  -30.3860  -24.5010   20.4086 O   0  0  0  0  0  0
  -32.1829  -19.8875   19.8220 F   0  0  0  0  0  0
  -27.5808  -19.9797   21.1635 F   0  0  0  0  0  0
  -31.4811  -12.5021   19.1484 H   0  0  0  0  0  0
  -30.3673  -11.3845   19.8860 H   0  0  0  0  0  0
  -29.7722  -11.7590   17.4720 H   0  0  0  0  0  0
  -29.6523  -13.4780   17.7478 H   0  0  0  0  0  0
  -27.8692  -11.2893   18.8654 H   0  0  0  0  0  0
  -27.3770  -12.5743   17.7931 H   0  0  0  0  0  0
  -27.6770  -14.2485   19.5242 H   0  0  0  0  0  0
  -28.7071  -12.0382   21.3731 H   0  0  0  0  0  0
  -28.4463  -13.6901   21.8473 H   0  0  0  0  0  0
  -25.2769   -9.5681   22.4747 H   0  0  0  0  0  0
  -24.0008   -7.4632   22.7462 H   0  0  0  0  0  0
  -21.0840   -8.8780   19.8956 H   0  0  0  0  0  0
  -22.3698  -10.9677   19.6163 H   0  0  0  0  0  0
  -21.2010   -7.6142   23.9718 H   0  0  0  0  0  0
  -21.1475   -6.0511   25.9074 H   0  0  0  0  0  0
  -22.0602   -2.7608   23.2837 H   0  0  0  0  0  0
  -22.4106  -11.9895   22.4798 H   0  0  0  0  0  0
  -21.1133  -13.1288   22.2625 H   0  0  0  0  0  0
  -24.6561  -15.8382   20.4920 H   0  0  0  0  0  0
  -26.2654  -15.6185   20.0309 H   0  0  0  0  0  0
  -26.7182  -32.5455   23.1117 H   0  0  0  0  0  0
  -25.0100  -33.9735   25.0450 H   0  0  0  0  0  0
  -22.7120  -31.3073   21.4067 H   0  0  0  0  0  0
  -23.3784  -35.9574   23.3195 H   0  0  0  0  0  0
  -24.3616  -36.9002   22.2064 H   0  0  0  0  0  0
  -23.7183  -37.6433   23.6708 H   0  0  0  0  0  0
  -26.0961  -31.5640   20.6125 H   0  0  0  0  0  0
  -26.8393  -30.8391   22.0074 H   0  0  0  0  0  0
  -28.1162  -28.9934   21.1825 H   0  0  0  0  0  0
  -25.9509  -25.9521   18.9844 H   0  0  0  0  0  0
  -23.9629  -27.3206   19.0153 H   0  0  0  0  0  0
  -23.7550  -30.6047   19.4065 H   0  0  0  0  0  0
  -22.7530  -29.2581   19.8567 H   0  0  0  0  0  0
  -25.1262  -36.1911   25.0816 H   0  0  0  0  0  0
  -20.9981  -28.3267   24.1403 H   0  0  0  0  0  0
  -20.5669  -26.2296   23.3614 H   0  0  0  0  0  0
  -21.6649  -26.7434   22.1217 H   0  0  0  0  0  0
  -19.6911  -25.6296   21.1241 H   0  0  0  0  0  0
  -19.6696  -27.3195   20.6740 H   0  0  0  0  0  0
  -17.4205  -26.6689   21.4012 H   0  0  0  0  0  0
  -18.0317  -26.0079   22.9012 H   0  0  0  0  0  0
  -19.7940  -30.7286   24.2248 H   0  0  0  0  0  0
  -17.5011  -31.6259   24.5180 H   0  0  0  0  0  0
  -15.5351  -30.2976   23.7658 H   0  0  0  0  0  0
  -15.8678  -28.0827   22.7038 H   0  0  0  0  0  0
  -24.5905  -30.7096   25.7832 H   0  0  0  0  0  0
  -24.8936  -32.2936   26.4872 H   0  0  0  0  0  0
  -25.8072  -30.8966   27.0263 H   0  0  0  0  0  0
  -26.2863  -29.6764   24.1216 H   0  0  0  0  0  0
  -27.3976  -29.7238   25.4702 H   0  0  0  0  0  0
  -27.8757  -30.4246   23.9420 H   0  0  0  0  0  0
  -27.2700  -33.3610   26.2066 H   0  0  0  0  0  0
  -28.3871  -32.6860   25.0295 H   0  0  0  0  0  0
  -28.0748  -31.8424   26.5391 H   0  0  0  0  0  0
  -28.2501  -38.0168   24.7667 H   0  0  0  0  0  0
  -28.1219  -36.2721   24.5994 H   0  0  0  0  0  0
  -27.2371  -37.1089   25.8832 H   0  0  0  0  0  0
  -20.9367  -29.8776   21.6904 H   0  0  0  0  0  0
  -26.0137  -38.2832   24.1580 H   0  0  0  0  0  0
  -31.9699  -17.3258   20.0877 H   0  0  0  0  0  0
  -27.8366  -17.4127   21.3029 H   0  0  0  0  0  0
  -30.9672  -21.9452   20.2938 H   0  0  0  0  0  0
  -27.9404  -22.2521   20.4394 H   0  0  0  0  0  0
  -27.2499  -24.7634   20.7055 H   0  0  0  0  0  0
  -27.7125  -24.8260   19.0128 H   0  0  0  0  0  0
  -28.9187  -15.3308   21.1927 H   0  0  0  0  0  0
  1 25  1  0  0  0
  1 30  2  0  0  0
  1 81  1  0  0  0
  2  3  1  0  0  0
  2 25  1  0  0  0
  2 85  1  0  0  0
  2 86  1  0  0  0
  3  4  1  0  0  0
  3 87  1  0  0  0
  3 88  1  0  0  0
  4  5  1  0  0  0
  4 89  1  0  0  0
  4 90  1  0  0  0
  5  6  1  0  0  0
  5 26  1  0  0  0
  5 91  1  0  0  0
  6 25  1  0  0  0
  6 92  1  0  0  0
  6 93  1  0  0  0
  7  8  2  0  0  0
  7 26  1  0  0  0
  7 29  1  0  0  0
  8  9  1  0  0  0
  8 22  1  0  0  0
  9 10  1  0  0  0
  9 27  2  0  0  0
 10 11  2  0  0  0
 10 15  1  0  0  0
 11 12  1  0  0  0
 11 94  1  0  0  0
 12 13  2  0  0  0
 12 95  1  0  0  0
 13 14  1  0  0  0
 13 31  1  0  0  0
 14 15  2  0  0  0
 14 96  1  0  0  0
 15 97  1  0  0  0
 16 17  2  0  0  0
 16 21  1  0  0  0
 16 31  1  0  0  0
 17 18  1  0  0  0
 17 98  1  0  0  0
 18 19  2  0  0  0
 18 99  1  0  0  0
 19 20  1  0  0  0
 19 24  1  0  0  0
 20 21  2  0  0  0
 20100  1  0  0  0
 21 23  1  0  0  0
 22 28  1  0  0  0
 22 32  2  0  0  0
 26 27  1  0  0  0
 28101  1  0  0  0
 28102  1  0  0  0
 29103  1  0  0  0
 29104  1  0  0  0
 33 34  1  0  0  0
 33 66  1  0  0  0
 33 70  2  0  0  0
 34 36  1  0  0  0
 34 59  1  0  0  0
 34105  1  0  0  0
 35 44  2  0  0  0
 35 45  1  0  0  0
 35 68  1  0  0  0
 36 56  1  0  0  0
 36106  1  0  0  0
 37 39  1  0  0  0
 37 47  1  0  0  0
 37 66  1  0  0  0
 37107  1  0  0  0
 38 43  2  0  0  0
 38 46  1  0  0  0
 38 47  1  0  0  0
 39 64  1  0  0  0
 39 67  2  0  0  0
 40 52  1  0  0  0
 40 53  2  0  0  0
 40 58  1  0  0  0
 41108  1  0  0  0
 41109  1  0  0  0
 41110  1  0  0  0
 41 48  1  0  0  0
 42 43  1  0  0  0
 42 66  1  0  0  0
 42111  1  0  0  0
 42112  1  0  0  0
 43 44  1  0  0  0
 44113  1  0  0  0
 45 46  2  0  0  0
 45114  1  0  0  0
 46115  1  0  0  0
 47116  1  0  0  0
 47117  1  0  0  0
 48 56  1  0  0  0
 48 65  1  0  0  0
 48118  1  0  0  0
 49 50  1  0  0  0
 49 53  1  0  0  0
 49 64  1  0  0  0
 49119  1  0  0  0
 50 51  1  0  0  0
 50120  1  0  0  0
 50121  1  0  0  0
 51 52  1  0  0  0
 51122  1  0  0  0
 51123  1  0  0  0
 52124  1  0  0  0
 52125  1  0  0  0
 53 54  1  0  0  0
 54 55  2  0  0  0
 54126  1  0  0  0
 55 57  1  0  0  0
 55127  1  0  0  0
 56 69  2  0  0  0
 57 58  2  0  0  0
 57128  1  0  0  0
 58129  1  0  0  0
 59 60  1  0  0  0
 59 61  1  0  0  0
 59 62  1  0  0  0
 60130  1  0  0  0
 60131  1  0  0  0
 60132  1  0  0  0
 61133  1  0  0  0
 61134  1  0  0  0
 61135  1  0  0  0
 62136  1  0  0  0
 62137  1  0  0  0
 62138  1  0  0  0
 63 65  1  0  0  0
 63139  1  0  0  0
 63140  1  0  0  0
 63141  1  0  0  0
 64142  1  0  0  0
 65143  1  0  0  0
 68 80  1  0  0  0
 71 74  2  0  0  0
 71 75  1  0  0  0
 71144  1  0  0  0
 72 74  1  0  0  0
 72 76  2  0  0  0
 72145  1  0  0  0
 73 75  2  0  0  0
 73 76  1  0  0  0
 73 77  1  0  0  0
 74 81  1  0  0  0
 75 83  1  0  0  0
 76 84  1  0  0  0
 77 78  2  0  0  0
 77146  1  0  0  0
 78 79  1  0  0  0
 78147  1  0  0  0
 79 80  1  0  0  0
 79 82  2  0  0  0
 80148  1  0  0  0
 80149  1  0  0  0
 81150  1  0  0  0
M  ISO  4   1 100  68 101  80 101  81 100
M  END
> <chiral flag>
0

> <version>
0

> <s_m_source_file>
/data/baiqing/PycharmProjects/Reinvent-master-3.2/result/LINK_invent/BTK/process_docking_weight1_custom_product_contain_oxygen_bond_distance_aromatic_linkinvent_7_9_3/rearranged_h_0123.sdf

> <i_m_source_file_index>
47

> <r_mmod_Potential_Energy-OPLS-2005>
67.8664398193359

> <r_mmod_Stretch_Energy-OPLS-2005>
74.920280456543

> <r_mmod_Bend_Energy-OPLS-2005>
129.296264648438

> <r_mmod_Torsional_Energy-OPLS-2005>
210.238204956055

> <r_mmod_Improper_Torsional_Energy-OPLS-2005>
4.31887531280518

> <r_mmod_Van_der_Waal_Energy-OPLS-2005>
149.694274902344

> <r_mmod_Electrostatic_Energy-OPLS-2005>
-314.680419921875

> <r_mmod_Solvation_Energy-OPLS-2005>
-230.087020874023

> <b_mmod_Minimization_Converged-OPLS-2005>
0

> <r_mmod_RMS_Derivative-OPLS-2005>
0.903335928916931

$$$$
47
                    3D
 Structure written by MMmdl.
160169  0  0  1  0            999 V2000
  -30.5296  -15.0022   20.4085 C   0  0  0  0  0  0
  -30.4386  -12.6231   19.5083 C   0  0  0  0  0  0
  -29.5224  -12.5385   18.2645 C   0  0  0  0  0  0
  -28.0588  -12.3118   18.6843 C   0  0  0  0  0  0
  -27.6268  -13.2537   19.8375 C   0  0  2  0  0  0
  -28.6676  -13.3094   20.9764 C   0  0  0  0  0  0
  -25.2444  -13.8228   20.5719 C   0  0  0  0  0  0
  -24.1767  -13.0439   20.9229 C   0  0  0  0  0  0
  -24.6394  -11.6928   20.8760 C   0  0  0  0  0  0
  -23.9082  -10.4293   21.0409 C   0  0  0  0  0  0
  -24.3629   -9.4205   21.9187 C   0  0  0  0  0  0
  -23.6297   -8.2245   22.0759 C   0  0  0  0  0  0
  -22.4279   -8.0286   21.3545 C   0  0  0  0  0  0
  -21.9919   -9.0260   20.4645 C   0  0  0  0  0  0
  -22.7256  -10.2135   20.3056 C   0  0  0  0  0  0
  -21.6855   -6.0738   22.5275 C   0  0  0  0  0  0
  -21.4015   -6.5640   23.8208 C   0  0  0  0  0  0
  -21.3659   -5.6793   24.9170 C   0  0  0  0  0  0
  -21.6046   -4.3056   24.7218 C   0  0  0  0  0  0
  -21.8818   -3.8147   23.4339 C   0  0  0  0  0  0
  -21.9190   -4.6966   22.3397 C   0  0  0  0  0  0
  -22.7783  -13.5203   21.1881 C   0  0  0  0  0  0
  -22.1658   -4.2149   21.0976 F   0  0  0  0  0  0
  -21.5629   -3.4540   25.7734 F   0  0  0  0  0  0
  -29.9390  -13.7333   20.3756 N   0  0  0  0  0  0
  -26.2872  -12.9470   20.3252 N   0  0  0  0  0  0
  -25.9329  -11.6594   20.5750 N   0  0  0  0  0  0
  -22.0439  -12.8184   22.0435 N   0  0  0  0  0  0
  -25.4101  -15.1958   20.4138 N   0  0  0  0  0  0
  -31.7353  -15.0413   20.1378 O   0  0  0  0  0  0
  -21.6643   -6.8880   21.4239 O   0  0  0  0  0  0
  -22.3459  -14.5507   20.6726 O   0  0  0  0  0  0
  -24.6462  -31.8407   23.1859 C   0  0  0  0  0  0
  -25.9217  -32.4683   23.8264 C   0  0  1  0  0  0
  -27.2181  -27.1032   20.1571 C   0  0  0  0  0  0
  -25.5951  -33.8493   24.2176 N   0  0  0  0  0  0
  -23.4520  -30.4585   21.5314 C   0  0  2  0  0  0
  -24.9035  -28.8808   20.1081 C   0  0  0  0  0  0
  -22.7585  -29.4524   22.4843 C   0  0  0  0  0  0
  -18.0300  -28.1403   22.8471 C   0  0  0  0  0  0
  -24.1489  -36.7243   23.2646 C   0  0  0  0  0  0
  -26.0107  -30.7032   21.3909 C   0  0  0  0  0  0
  -26.0803  -29.3117   20.7333 C   0  0  0  0  0  0
  -27.2349  -28.4375   20.7424 C   0  0  0  0  0  0
  -26.0204  -26.7883   19.4780 C   0  0  0  0  0  0
  -24.8887  -27.6344   19.4639 C   0  0  0  0  0  0
  -23.6808  -29.7862   20.1513 C   0  0  0  0  0  0
  -25.4121  -36.3025   24.0318 C   0  0  1  0  0  0
  -20.5920  -28.3728   23.1236 C   0  0  2  0  0  0
  -20.6787  -26.9426   22.5413 C   0  0  0  0  0  0
  -19.5760  -26.6381   21.5222 C   0  0  0  0  0  0
  -18.1936  -26.7943   22.1617 C   0  0  0  0  0  0
  -19.1560  -28.8880   23.2846 C   0  0  0  0  0  0
  -18.9479  -30.1476   23.8874 C   0  0  0  0  0  0
  -17.6476  -30.6598   24.0564 C   0  0  0  0  0  0
  -25.9076  -34.9404   23.5061 C   0  0  0  0  0  0
  -16.5364  -29.9089   23.6344 C   0  0  0  0  0  0
  -16.7285  -28.6511   23.0360 C   0  0  0  0  0  0
  -26.4525  -31.6567   25.0718 C   0  0  0  0  0  0
  -25.3693  -31.3764   26.1404 C   0  0  0  0  0  0
  -27.0403  -30.2963   24.6319 C   0  0  0  0  0  0
  -27.6059  -32.4338   25.7490 C   0  0  0  0  0  0
  -27.5576  -37.1770   24.8458 C   0  0  0  0  0  0
  -21.4272  -29.3047   22.3603 N   0  0  0  0  0  0
  -26.4274  -37.3748   23.9422 N   0  0  0  0  0  0
  -24.7233  -31.0228   22.0913 N   0  0  0  0  0  0
  -23.4210  -28.8077   23.3013 O   0  0  0  0  0  0
  -28.2603  -26.0986   20.2555 O   0  0  0  0  0  0
  -26.5670  -34.8907   22.4642 O   0  0  0  0  0  0
  -23.5568  -32.1298   23.7048 O   0  0  0  0  0  0
  -31.4985  -19.5484   19.5677 C   0  0  0  0  0  0
  -31.2316  -18.1794   19.8550 C   0  0  0  0  0  0
  -29.0353  -18.8535   20.5771 C   0  0  0  0  0  0
  -30.5547  -20.5915   19.7635 C   0  0  0  0  0  0
  -29.2929  -20.3017   20.3014 C   0  0  0  0  0  0
  -29.9854  -17.7217   20.3548 C   0  0  0  0  0  0
  -30.8452  -22.0299   19.3068 C   0  0  0  0  0  0
  -28.3038  -21.6054   20.4328 C   0  0  0  0  0  0
  -30.3503  -23.1721   20.2475 C   0  0  0  0  0  0
  -28.8353  -23.2018   20.6446 C   0  0  2  0  0  0
  -27.3774  -23.6840   22.7875 C   0  0  0  0  0  0
  -28.7767  -23.4688   22.1768 C   0  0  0  0  0  0
  -28.0465  -24.5645   19.9689 C   0  0  0  0  0  0
  -29.7485  -16.1992   20.5660 N   0  0  0  0  0  0
  -31.4710  -12.7831   19.1941 H   0  0  0  0  0  0
  -30.4388  -11.6789   20.0552 H   0  0  0  0  0  0
  -29.8517  -11.7355   17.6039 H   0  0  0  0  0  0
  -29.5989  -13.4618   17.6886 H   0  0  0  0  0  0
  -27.9675  -11.2736   19.0053 H   0  0  0  0  0  0
  -27.3926  -12.4246   17.8281 H   0  0  0  0  0  0
  -27.5803  -14.2495   19.3957 H   0  0  0  0  0  0
  -28.7668  -12.3413   21.4693 H   0  0  0  0  0  0
  -28.3561  -14.0177   21.7457 H   0  0  0  0  0  0
  -25.2774   -9.5683   22.4764 H   0  0  0  0  0  0
  -24.0002   -7.4638   22.7483 H   0  0  0  0  0  0
  -21.0851   -8.8779   19.8952 H   0  0  0  0  0  0
  -22.3716  -10.9673   19.6166 H   0  0  0  0  0  0
  -21.2011   -7.6149   23.9710 H   0  0  0  0  0  0
  -21.1482   -6.0524   25.9071 H   0  0  0  0  0  0
  -22.0598   -2.7611   23.2838 H   0  0  0  0  0  0
  -22.4060  -11.9844   22.4822 H   0  0  0  0  0  0
  -21.1056  -13.1202   22.2650 H   0  0  0  0  0  0
  -24.6389  -15.8460   20.5196 H   0  0  0  0  0  0
  -26.2497  -15.6366   20.0612 H   0  0  0  0  0  0
  -26.7279  -32.5283   23.0989 H   0  0  0  0  0  0
  -25.0092  -33.9610   25.0318 H   0  0  0  0  0  0
  -22.7565  -31.2850   21.3734 H   0  0  0  0  0  0
  -23.3775  -35.9551   23.3273 H   0  0  0  0  0  0
  -24.3583  -36.8906   22.2067 H   0  0  0  0  0  0
  -23.7208  -37.6413   23.6706 H   0  0  0  0  0  0
  -26.1706  -31.4546   20.6165 H   0  0  0  0  0  0
  -26.8806  -30.7559   22.0339 H   0  0  0  0  0  0
  -28.1274  -28.7587   21.2608 H   0  0  0  0  0  0
  -25.9241  -25.8417   18.9682 H   0  0  0  0  0  0
  -23.9934  -27.3031   18.9557 H   0  0  0  0  0  0
  -23.8178  -30.5605   19.3954 H   0  0  0  0  0  0
  -22.7961  -29.2273   19.8403 H   0  0  0  0  0  0
  -25.1302  -36.1853   25.0807 H   0  0  0  0  0  0
  -21.0006  -28.3323   24.1360 H   0  0  0  0  0  0
  -20.5684  -26.2339   23.3632 H   0  0  0  0  0  0
  -21.6650  -26.7433   22.1205 H   0  0  0  0  0  0
  -19.6929  -25.6288   21.1259 H   0  0  0  0  0  0
  -19.6708  -27.3187   20.6749 H   0  0  0  0  0  0
  -17.4212  -26.6705   21.4009 H   0  0  0  0  0  0
  -18.0315  -26.0087   22.9007 H   0  0  0  0  0  0
  -19.7960  -30.7300   24.2228 H   0  0  0  0  0  0
  -17.5031  -31.6275   24.5169 H   0  0  0  0  0  0
  -15.5367  -30.2987   23.7686 H   0  0  0  0  0  0
  -15.8683  -28.0826   22.7092 H   0  0  0  0  0  0
  -24.5910  -30.7061   25.7727 H   0  0  0  0  0  0
  -24.8835  -32.2941   26.4731 H   0  0  0  0  0  0
  -25.7969  -30.9016   27.0245 H   0  0  0  0  0  0
  -26.3035  -29.6669   24.1313 H   0  0  0  0  0  0
  -27.4000  -29.7271   25.4903 H   0  0  0  0  0  0
  -27.8944  -30.4199   23.9659 H   0  0  0  0  0  0
  -27.2677  -33.3693   26.1959 H   0  0  0  0  0  0
  -28.3922  -32.6804   25.0342 H   0  0  0  0  0  0
  -28.0665  -31.8523   26.5484 H   0  0  0  0  0  0
  -28.2561  -38.0102   24.7553 H   0  0  0  0  0  0
  -28.1102  -36.2632   24.6219 H   0  0  0  0  0  0
  -27.2303  -37.1334   25.8861 H   0  0  0  0  0  0
  -20.9487  -29.8759   21.6780 H   0  0  0  0  0  0
  -26.0138  -38.2807   24.1462 H   0  0  0  0  0  0
  -32.4649  -19.7962   19.1503 H   0  0  0  0  0  0
  -32.0203  -17.4712   19.6485 H   0  0  0  0  0  0
  -28.0554  -18.6028   20.9569 H   0  0  0  0  0  0
  -30.3925  -22.1602   18.3227 H   0  0  0  0  0  0
  -31.9202  -22.1409   19.1552 H   0  0  0  0  0  0
  -27.5593  -21.3572   21.1874 H   0  0  0  0  0  0
  -27.7384  -21.6067   19.5009 H   0  0  0  0  0  0
  -30.6236  -24.1326   19.8095 H   0  0  0  0  0  0
  -30.9626  -23.1010   21.1475 H   0  0  0  0  0  0
  -27.4475  -23.7745   23.8718 H   0  0  0  0  0  0
  -26.6951  -22.8619   22.5759 H   0  0  0  0  0  0
  -26.9115  -24.6034   22.4311 H   0  0  0  0  0  0
  -29.3732  -24.3529   22.4092 H   0  0  0  0  0  0
  -29.2579  -22.6435   22.7051 H   0  0  0  0  0  0
  -26.9896  -24.3698   20.1417 H   0  0  0  0  0  0
  -28.1527  -24.4692   18.8879 H   0  0  0  0  0  0
  -28.7956  -15.9804   20.8138 H   0  0  0  0  0  0
  1 25  1  0  0  0
  1 30  2  0  0  0
  1 84  1  0  0  0
  2  3  1  0  0  0
  2 25  1  0  0  0
  2 85  1  0  0  0
  2 86  1  0  0  0
  3  4  1  0  0  0
  3 87  1  0  0  0
  3 88  1  0  0  0
  4  5  1  0  0  0
  4 89  1  0  0  0
  4 90  1  0  0  0
  5  6  1  0  0  0
  5 26  1  0  0  0
  5 91  1  0  0  0
  6 25  1  0  0  0
  6 92  1  0  0  0
  6 93  1  0  0  0
  7  8  2  0  0  0
  7 26  1  0  0  0
  7 29  1  0  0  0
  8  9  1  0  0  0
  8 22  1  0  0  0
  9 10  1  0  0  0
  9 27  2  0  0  0
 10 11  2  0  0  0
 10 15  1  0  0  0
 11 12  1  0  0  0
 11 94  1  0  0  0
 12 13  2  0  0  0
 12 95  1  0  0  0
 13 14  1  0  0  0
 13 31  1  0  0  0
 14 15  2  0  0  0
 14 96  1  0  0  0
 15 97  1  0  0  0
 16 17  2  0  0  0
 16 21  1  0  0  0
 16 31  1  0  0  0
 17 18  1  0  0  0
 17 98  1  0  0  0
 18 19  2  0  0  0
 18 99  1  0  0  0
 19 20  1  0  0  0
 19 24  1  0  0  0
 20 21  2  0  0  0
 20100  1  0  0  0
 21 23  1  0  0  0
 22 28  1  0  0  0
 22 32  2  0  0  0
 26 27  1  0  0  0
 28101  1  0  0  0
 28102  1  0  0  0
 29103  1  0  0  0
 29104  1  0  0  0
 33 34  1  0  0  0
 33 66  1  0  0  0
 33 70  2  0  0  0
 34 36  1  0  0  0
 34 59  1  0  0  0
 34105  1  0  0  0
 35 44  2  0  0  0
 35 45  1  0  0  0
 35 68  1  0  0  0
 36 56  1  0  0  0
 36106  1  0  0  0
 37 39  1  0  0  0
 37 47  1  0  0  0
 37 66  1  0  0  0
 37107  1  0  0  0
 38 43  2  0  0  0
 38 46  1  0  0  0
 38 47  1  0  0  0
 39 64  1  0  0  0
 39 67  2  0  0  0
 40 52  1  0  0  0
 40 53  2  0  0  0
 40 58  1  0  0  0
 41108  1  0  0  0
 41109  1  0  0  0
 41110  1  0  0  0
 41 48  1  0  0  0
 42 43  1  0  0  0
 42 66  1  0  0  0
 42111  1  0  0  0
 42112  1  0  0  0
 43 44  1  0  0  0
 44113  1  0  0  0
 45 46  2  0  0  0
 45114  1  0  0  0
 46115  1  0  0  0
 47116  1  0  0  0
 47117  1  0  0  0
 48 56  1  0  0  0
 48 65  1  0  0  0
 48118  1  0  0  0
 49 50  1  0  0  0
 49 53  1  0  0  0
 49 64  1  0  0  0
 49119  1  0  0  0
 50 51  1  0  0  0
 50120  1  0  0  0
 50121  1  0  0  0
 51 52  1  0  0  0
 51122  1  0  0  0
 51123  1  0  0  0
 52124  1  0  0  0
 52125  1  0  0  0
 53 54  1  0  0  0
 54 55  2  0  0  0
 54126  1  0  0  0
 55 57  1  0  0  0
 55127  1  0  0  0
 56 69  2  0  0  0
 57 58  2  0  0  0
 57128  1  0  0  0
 58129  1  0  0  0
 59 60  1  0  0  0
 59 61  1  0  0  0
 59 62  1  0  0  0
 60130  1  0  0  0
 60131  1  0  0  0
 60132  1  0  0  0
 61133  1  0  0  0
 61134  1  0  0  0
 61135  1  0  0  0
 62136  1  0  0  0
 62137  1  0  0  0
 62138  1  0  0  0
 63 65  1  0  0  0
 63139  1  0  0  0
 63140  1  0  0  0
 63141  1  0  0  0
 64142  1  0  0  0
 65143  1  0  0  0
 68 83  1  0  0  0
 71 72  2  0  0  0
 71 74  1  0  0  0
 71144  1  0  0  0
 72 76  1  0  0  0
 72145  1  0  0  0
 73 75  1  0  0  0
 73 76  2  0  0  0
 73146  1  0  0  0
 74 75  2  0  0  0
 74 77  1  0  0  0
 75 78  1  0  0  0
 76 84  1  0  0  0
 77 79  1  0  0  0
 77147  1  0  0  0
 77148  1  0  0  0
 78 80  1  0  0  0
 78149  1  0  0  0
 78150  1  0  0  0
 79 80  1  0  0  0
 79151  1  0  0  0
 79152  1  0  0  0
 80 82  1  0  0  0
 80 83  1  0  0  0
 81 82  1  0  0  0
 81153  1  0  0  0
 81154  1  0  0  0
 81155  1  0  0  0
 82156  1  0  0  0
 82157  1  0  0  0
 83158  1  0  0  0
 83159  1  0  0  0
 84160  1  0  0  0
M  ISO  4   1 100  68 101  83 101  84 100
M  END
> <chiral flag>
0

> <version>
0

> <s_m_source_file>
/data/baiqing/PycharmProjects/Reinvent-master-3.2/result/LINK_invent/BTK/process_docking_weight1_custom_product_contain_oxygen_bond_distance_aromatic_linkinvent_7_9_3/rearranged_h_0123.sdf

> <i_m_source_file_index>
48

> <r_mmod_Potential_Energy-OPLS-2005>
613.308654785156

> <r_mmod_Stretch_Energy-OPLS-2005>
296.165008544922

> <r_mmod_Bend_Energy-OPLS-2005>
267.371398925781

> <r_mmod_Torsional_Energy-OPLS-2005>
240.459838867188

> <r_mmod_Improper_Torsional_Energy-OPLS-2005>
4.19193601608276

> <r_mmod_Van_der_Waal_Energy-OPLS-2005>
137.699447631836

> <r_mmod_Electrostatic_Energy-OPLS-2005>
-359.749816894531

> <r_mmod_Solvation_Energy-OPLS-2005>
-201.017105102539

> <b_mmod_Minimization_Converged-OPLS-2005>
0

> <r_mmod_RMS_Derivative-OPLS-2005>
1.09106290340424

$$$$
48
                    3D
 Structure written by MMmdl.
160168  0  0  1  0            999 V2000
  -30.5418  -14.9658   20.4425 C   0  0  0  0  0  0
  -30.4452  -12.6109   19.4781 C   0  0  0  0  0  0
  -29.5212  -12.5536   18.2400 C   0  0  0  0  0  0
  -28.0482  -12.3507   18.6490 C   0  0  0  0  0  0
  -27.6306  -13.2571   19.8375 C   0  0  2  0  0  0
  -28.6831  -13.2730   20.9664 C   0  0  0  0  0  0
  -25.2462  -13.8232   20.5709 C   0  0  0  0  0  0
  -24.1788  -13.0442   20.9228 C   0  0  0  0  0  0
  -24.6407  -11.6939   20.8761 C   0  0  0  0  0  0
  -23.9086  -10.4302   21.0382 C   0  0  0  0  0  0
  -24.3636   -9.4218   21.9161 C   0  0  0  0  0  0
  -23.6311   -8.2255   22.0736 C   0  0  0  0  0  0
  -22.4298   -8.0294   21.3528 C   0  0  0  0  0  0
  -21.9942   -9.0255   20.4626 C   0  0  0  0  0  0
  -22.7260  -10.2128   20.3031 C   0  0  0  0  0  0
  -21.6873   -6.0729   22.5258 C   0  0  0  0  0  0
  -21.4029   -6.5621   23.8188 C   0  0  0  0  0  0
  -21.3677   -5.6774   24.9151 C   0  0  0  0  0  0
  -21.6071   -4.3034   24.7209 C   0  0  0  0  0  0
  -21.8809   -3.8125   23.4322 C   0  0  0  0  0  0
  -21.9192   -4.6950   22.3386 C   0  0  0  0  0  0
  -22.7790  -13.5210   21.1852 C   0  0  0  0  0  0
  -22.1656   -4.2138   21.0956 F   0  0  0  0  0  0
  -21.5647   -3.4518   25.7715 F   0  0  0  0  0  0
  -29.9490  -13.7062   20.3603 N   0  0  0  0  0  0
  -26.2908  -12.9481   20.3259 N   0  0  0  0  0  0
  -25.9354  -11.6597   20.5747 N   0  0  0  0  0  0
  -22.0433  -12.8237   22.0426 N   0  0  0  0  0  0
  -25.4103  -15.1965   20.4083 N   0  0  0  0  0  0
  -31.7576  -15.0325   20.2345 O   0  0  0  0  0  0
  -21.6660   -6.8889   21.4229 O   0  0  0  0  0  0
  -22.3462  -14.5491   20.6636 O   0  0  0  0  0  0
  -24.6446  -31.8445   23.1887 C   0  0  0  0  0  0
  -25.9211  -32.4702   23.8286 C   0  0  1  0  0  0
  -27.2206  -27.1346   20.1700 C   0  0  0  0  0  0
  -25.5967  -33.8515   24.2208 N   0  0  0  0  0  0
  -23.4480  -30.4629   21.5331 C   0  0  2  0  0  0
  -24.9014  -28.8906   20.1098 C   0  0  0  0  0  0
  -22.7580  -29.4541   22.4847 C   0  0  0  0  0  0
  -18.0314  -28.1400   22.8475 C   0  0  0  0  0  0
  -24.1487  -36.7247   23.2639 C   0  0  0  0  0  0
  -26.0043  -30.7182   21.3895 C   0  0  0  0  0  0
  -26.0761  -29.3290   20.7335 C   0  0  0  0  0  0
  -27.2361  -28.4696   20.7431 C   0  0  0  0  0  0
  -26.0206  -26.7970   19.5050 C   0  0  0  0  0  0
  -24.8891  -27.6399   19.4750 C   0  0  0  0  0  0
  -23.6784  -29.7937   20.1511 C   0  0  0  0  0  0
  -25.4118  -36.3035   24.0325 C   0  0  1  0  0  0
  -20.5938  -28.3729   23.1240 C   0  0  2  0  0  0
  -20.6817  -26.9431   22.5405 C   0  0  0  0  0  0
  -19.5785  -26.6377   21.5225 C   0  0  0  0  0  0
  -18.1960  -26.7943   22.1615 C   0  0  0  0  0  0
  -19.1576  -28.8883   23.2852 C   0  0  0  0  0  0
  -18.9481  -30.1487   23.8866 C   0  0  0  0  0  0
  -17.6473  -30.6602   24.0557 C   0  0  0  0  0  0
  -25.9067  -34.9417   23.5071 C   0  0  0  0  0  0
  -16.5366  -29.9091   23.6340 C   0  0  0  0  0  0
  -16.7295  -28.6513   23.0356 C   0  0  0  0  0  0
  -26.4537  -31.6575   25.0723 C   0  0  0  0  0  0
  -25.3730  -31.3753   26.1408 C   0  0  0  0  0  0
  -27.0424  -30.2991   24.6286 C   0  0  0  0  0  0
  -27.6070  -32.4355   25.7512 C   0  0  0  0  0  0
  -27.5577  -37.1786   24.8463 C   0  0  0  0  0  0
  -21.4273  -29.3050   22.3596 N   0  0  0  0  0  0
  -26.4274  -37.3750   23.9419 N   0  0  0  0  0  0
  -24.7182  -31.0324   22.0905 N   0  0  0  0  0  0
  -23.4224  -28.8080   23.2992 O   0  0  0  0  0  0
  -28.2751  -26.1525   20.2483 O   0  0  0  0  0  0
  -26.5625  -34.8905   22.4627 O   0  0  0  0  0  0
  -23.5566  -32.1284   23.7125 O   0  0  0  0  0  0
  -31.9990  -20.4164   19.1288 C   0  0  0  0  0  0
  -30.3286  -18.6887   18.7726 C   0  0  0  0  0  0
  -31.2553  -20.9488   20.2051 C   0  0  0  0  0  0
  -29.7603  -19.0117   20.0218 C   0  0  0  0  0  0
  -29.9372  -20.4615   20.4262 C   0  0  0  0  0  0
  -31.4698  -19.3831   18.3369 C   0  0  0  0  0  0
  -32.5876  -24.4719   20.8527 C   0  0  0  0  0  0
  -32.3812  -23.2638   20.3023 C   0  0  0  0  0  0
  -31.8941  -22.0408   21.0620 C   0  0  0  0  0  0
  -28.8002  -21.6741   20.4806 C   0  0  0  0  0  0
  -29.9269  -17.6658   20.9605 C   0  0  0  0  0  0
  -29.0879  -23.3576   20.4627 C   0  0  0  0  0  0
  -27.9896  -24.6165   20.2201 C   0  0  0  0  0  0
  -29.7365  -16.1367   20.5569 N   0  0  0  0  0  0
  -32.1455  -18.9613   17.2393 F   0  0  0  0  0  0
  -31.4734  -12.7875   19.1603 H   0  0  0  0  0  0
  -30.4527  -11.6582   20.0081 H   0  0  0  0  0  0
  -29.8366  -11.7563   17.5655 H   0  0  0  0  0  0
  -29.6136  -13.4842   17.6776 H   0  0  0  0  0  0
  -27.9167  -11.3021   18.9164 H   0  0  0  0  0  0
  -27.3949  -12.5328   17.7925 H   0  0  0  0  0  0
  -27.5911  -14.2666   19.4270 H   0  0  0  0  0  0
  -28.7838  -12.2890   21.4268 H   0  0  0  0  0  0
  -28.3885  -13.9605   21.7599 H   0  0  0  0  0  0
  -25.2777   -9.5690   22.4740 H   0  0  0  0  0  0
  -24.0016   -7.4647   22.7460 H   0  0  0  0  0  0
  -21.0882   -8.8781   19.8927 H   0  0  0  0  0  0
  -22.3736  -10.9673   19.6138 H   0  0  0  0  0  0
  -21.2024   -7.6126   23.9698 H   0  0  0  0  0  0
  -21.1533   -6.0495   25.9062 H   0  0  0  0  0  0
  -22.0586   -2.7591   23.2809 H   0  0  0  0  0  0
  -22.4069  -11.9984   22.4937 H   0  0  0  0  0  0
  -21.1009  -13.1216   22.2498 H   0  0  0  0  0  0
  -24.6365  -15.8485   20.4961 H   0  0  0  0  0  0
  -26.2445  -15.6295   20.0316 H   0  0  0  0  0  0
  -26.7272  -32.5324   23.1012 H   0  0  0  0  0  0
  -25.0193  -33.9631   25.0405 H   0  0  0  0  0  0
  -22.7519  -31.2892   21.3787 H   0  0  0  0  0  0
  -23.3777  -35.9553   23.3280 H   0  0  0  0  0  0
  -24.3554  -36.8879   22.2051 H   0  0  0  0  0  0
  -23.7217  -37.6428   23.6679 H   0  0  0  0  0  0
  -26.1652  -31.4721   20.6169 H   0  0  0  0  0  0
  -26.8752  -30.7656   22.0325 H   0  0  0  0  0  0
  -28.1301  -28.8010   21.2543 H   0  0  0  0  0  0
  -25.9278  -25.8390   19.0179 H   0  0  0  0  0  0
  -23.9987  -27.3019   18.9639 H   0  0  0  0  0  0
  -23.8167  -30.5690   19.3984 H   0  0  0  0  0  0
  -22.7948  -29.2370   19.8360 H   0  0  0  0  0  0
  -25.1309  -36.1851   25.0820 H   0  0  0  0  0  0
  -21.0033  -28.3322   24.1356 H   0  0  0  0  0  0
  -20.5753  -26.2327   23.3613 H   0  0  0  0  0  0
  -21.6680  -26.7457   22.1167 H   0  0  0  0  0  0
  -19.6954  -25.6276   21.1277 H   0  0  0  0  0  0
  -19.6752  -27.3171   20.6746 H   0  0  0  0  0  0
  -17.4240  -26.6701   21.4006 H   0  0  0  0  0  0
  -18.0338  -26.0097   22.9014 H   0  0  0  0  0  0
  -19.7961  -30.7327   24.2216 H   0  0  0  0  0  0
  -17.5022  -31.6267   24.5172 H   0  0  0  0  0  0
  -15.5371  -30.2974   23.7699 H   0  0  0  0  0  0
  -15.8690  -28.0824   22.7092 H   0  0  0  0  0  0
  -24.5898  -30.7109   25.7719 H   0  0  0  0  0  0
  -24.8920  -32.2933   26.4820 H   0  0  0  0  0  0
  -25.7993  -30.8920   27.0205 H   0  0  0  0  0  0
  -26.3043  -29.6705   24.1275 H   0  0  0  0  0  0
  -27.4050  -29.7282   25.4850 H   0  0  0  0  0  0
  -27.8945  -30.4266   23.9599 H   0  0  0  0  0  0
  -27.2656  -33.3681   26.2025 H   0  0  0  0  0  0
  -28.3910  -32.6871   25.0357 H   0  0  0  0  0  0
  -28.0697  -31.8515   26.5471 H   0  0  0  0  0  0
  -28.2572  -38.0103   24.7529 H   0  0  0  0  0  0
  -28.1086  -36.2636   24.6266 H   0  0  0  0  0  0
  -27.2285  -37.1397   25.8855 H   0  0  0  0  0  0
  -20.9484  -29.8723   21.6741 H   0  0  0  0  0  0
  -26.0145  -38.2809   24.1438 H   0  0  0  0  0  0
  -32.9638  -20.8312   18.8725 H   0  0  0  0  0  0
  -30.1418  -17.7294   18.3128 H   0  0  0  0  0  0
  -32.9407  -25.3017   20.2551 H   0  0  0  0  0  0
  -32.4080  -24.6581   21.9018 H   0  0  0  0  0  0
  -32.5864  -23.1378   19.2474 H   0  0  0  0  0  0
  -32.7773  -21.5900   21.5206 H   0  0  0  0  0  0
  -31.2541  -22.3183   21.8982 H   0  0  0  0  0  0
  -28.1690  -21.4662   21.3434 H   0  0  0  0  0  0
  -28.1582  -21.4802   19.6190 H   0  0  0  0  0  0
  -29.2493  -17.8242   21.8004 H   0  0  0  0  0  0
  -30.9185  -17.7397   21.4062 H   0  0  0  0  0  0
  -29.8418  -23.5213   19.6960 H   0  0  0  0  0  0
  -29.5618  -23.5964   21.4144 H   0  0  0  0  0  0
  -27.1830  -24.4627   20.9374 H   0  0  0  0  0  0
  -27.5438  -24.4081   19.2474 H   0  0  0  0  0  0
  -28.7595  -15.8926   20.5550 H   0  0  0  0  0  0
  1 25  1  0  0  0
  1 30  2  0  0  0
  1 84  1  0  0  0
  2  3  1  0  0  0
  2 25  1  0  0  0
  2 86  1  0  0  0
  2 87  1  0  0  0
  3  4  1  0  0  0
  3 88  1  0  0  0
  3 89  1  0  0  0
  4  5  1  0  0  0
  4 90  1  0  0  0
  4 91  1  0  0  0
  5  6  1  0  0  0
  5 26  1  0  0  0
  5 92  1  0  0  0
  6 25  1  0  0  0
  6 93  1  0  0  0
  6 94  1  0  0  0
  7  8  2  0  0  0
  7 26  1  0  0  0
  7 29  1  0  0  0
  8  9  1  0  0  0
  8 22  1  0  0  0
  9 10  1  0  0  0
  9 27  2  0  0  0
 10 11  2  0  0  0
 10 15  1  0  0  0
 11 12  1  0  0  0
 11 95  1  0  0  0
 12 13  2  0  0  0
 12 96  1  0  0  0
 13 14  1  0  0  0
 13 31  1  0  0  0
 14 15  2  0  0  0
 14 97  1  0  0  0
 15 98  1  0  0  0
 16 17  2  0  0  0
 16 21  1  0  0  0
 16 31  1  0  0  0
 17 18  1  0  0  0
 17 99  1  0  0  0
 18 19  2  0  0  0
 18100  1  0  0  0
 19 20  1  0  0  0
 19 24  1  0  0  0
 20 21  2  0  0  0
 20101  1  0  0  0
 21 23  1  0  0  0
 22 28  1  0  0  0
 22 32  2  0  0  0
 26 27  1  0  0  0
 28102  1  0  0  0
 28103  1  0  0  0
 29104  1  0  0  0
 29105  1  0  0  0
 33 34  1  0  0  0
 33 66  1  0  0  0
 33 70  2  0  0  0
 34 36  1  0  0  0
 34 59  1  0  0  0
 34106  1  0  0  0
 35 44  2  0  0  0
 35 45  1  0  0  0
 35 68  1  0  0  0
 36 56  1  0  0  0
 36107  1  0  0  0
 37 39  1  0  0  0
 37 47  1  0  0  0
 37 66  1  0  0  0
 37108  1  0  0  0
 38 43  2  0  0  0
 38 46  1  0  0  0
 38 47  1  0  0  0
 39 64  1  0  0  0
 39 67  2  0  0  0
 40 52  1  0  0  0
 40 53  2  0  0  0
 40 58  1  0  0  0
 41109  1  0  0  0
 41110  1  0  0  0
 41111  1  0  0  0
 41 48  1  0  0  0
 42 43  1  0  0  0
 42 66  1  0  0  0
 42112  1  0  0  0
 42113  1  0  0  0
 43 44  1  0  0  0
 44114  1  0  0  0
 45 46  2  0  0  0
 45115  1  0  0  0
 46116  1  0  0  0
 47117  1  0  0  0
 47118  1  0  0  0
 48 56  1  0  0  0
 48 65  1  0  0  0
 48119  1  0  0  0
 49 50  1  0  0  0
 49 53  1  0  0  0
 49 64  1  0  0  0
 49120  1  0  0  0
 50 51  1  0  0  0
 50121  1  0  0  0
 50122  1  0  0  0
 51 52  1  0  0  0
 51123  1  0  0  0
 51124  1  0  0  0
 52125  1  0  0  0
 52126  1  0  0  0
 53 54  1  0  0  0
 54 55  2  0  0  0
 54127  1  0  0  0
 55 57  1  0  0  0
 55128  1  0  0  0
 56 69  2  0  0  0
 57 58  2  0  0  0
 57129  1  0  0  0
 58130  1  0  0  0
 59 60  1  0  0  0
 59 61  1  0  0  0
 59 62  1  0  0  0
 60131  1  0  0  0
 60132  1  0  0  0
 60133  1  0  0  0
 61134  1  0  0  0
 61135  1  0  0  0
 61136  1  0  0  0
 62137  1  0  0  0
 62138  1  0  0  0
 62139  1  0  0  0
 63 65  1  0  0  0
 63140  1  0  0  0
 63141  1  0  0  0
 63142  1  0  0  0
 64143  1  0  0  0
 65144  1  0  0  0
 68 83  1  0  0  0
 71 73  2  0  0  0
 71 76  1  0  0  0
 71145  1  0  0  0
 72 74  1  0  0  0
 72 76  2  0  0  0
 72146  1  0  0  0
 73 75  1  0  0  0
 73 79  1  0  0  0
 74 75  2  0  0  0
 74 81  1  0  0  0
 75 80  1  0  0  0
 76 85  1  0  0  0
 77 78  2  0  0  0
 77147  1  0  0  0
 77148  1  0  0  0
 78 79  1  0  0  0
 78149  1  0  0  0
 79150  1  0  0  0
 79151  1  0  0  0
 80 82  1  0  0  0
 80152  1  0  0  0
 80153  1  0  0  0
 81 84  1  0  0  0
 81154  1  0  0  0
 81155  1  0  0  0
 82 83  1  0  0  0
 82156  1  0  0  0
 82157  1  0  0  0
 83158  1  0  0  0
 83159  1  0  0  0
 84160  1  0  0  0
M  ISO  4   1 100  68 101  83 101  84 100
M  END
> <chiral flag>
0

> <version>
0

> <s_m_source_file>
/data/baiqing/PycharmProjects/Reinvent-master-3.2/result/LINK_invent/BTK/process_docking_weight1_custom_product_contain_oxygen_bond_distance_aromatic_linkinvent_7_9_3/rearranged_h_0123.sdf

> <i_m_source_file_index>
49

> <r_mmod_Potential_Energy-OPLS-2005>
745.75830078125

> <r_mmod_Stretch_Energy-OPLS-2005>
288.334930419922

> <r_mmod_Bend_Energy-OPLS-2005>
288.335174560547

> <r_mmod_Torsional_Energy-OPLS-2005>
422.737457275391

> <r_mmod_Improper_Torsional_Energy-OPLS-2005>
27.5276527404785

> <r_mmod_Van_der_Waal_Energy-OPLS-2005>
132.386108398438

> <r_mmod_Electrostatic_Energy-OPLS-2005>
-406.708312988281

> <r_mmod_Solvation_Energy-OPLS-2005>
-207.803726196289

> <b_mmod_Minimization_Converged-OPLS-2005>
0

> <r_mmod_RMS_Derivative-OPLS-2005>
3.93834924697876

$$$$
49
                    3D
 Structure written by MMmdl.
157165  0  0  1  0            999 V2000
  -30.6286  -14.7407   20.4647 C   0  0  0  0  0  0
  -30.4366  -12.4566   19.4627 C   0  0  0  0  0  0
  -29.5085  -12.5195   18.2287 C   0  0  0  0  0  0
  -28.0366  -12.3369   18.6480 C   0  0  0  0  0  0
  -27.6469  -13.2311   19.8561 C   0  0  2  0  0  0
  -28.6993  -13.1647   20.9857 C   0  0  0  0  0  0
  -25.2549  -13.8178   20.5693 C   0  0  0  0  0  0
  -24.1826  -13.0441   20.9196 C   0  0  0  0  0  0
  -24.6424  -11.6916   20.8755 C   0  0  0  0  0  0
  -23.9098  -10.4291   21.0412 C   0  0  0  0  0  0
  -24.3640   -9.4203   21.9203 C   0  0  0  0  0  0
  -23.6299   -8.2242   22.0763 C   0  0  0  0  0  0
  -22.4287   -8.0280   21.3545 C   0  0  0  0  0  0
  -21.9940   -9.0263   20.4653 C   0  0  0  0  0  0
  -22.7274  -10.2135   20.3068 C   0  0  0  0  0  0
  -21.6854   -6.0747   22.5283 C   0  0  0  0  0  0
  -21.4005   -6.5646   23.8213 C   0  0  0  0  0  0
  -21.3661   -5.6793   24.9168 C   0  0  0  0  0  0
  -21.6038   -4.3061   24.7213 C   0  0  0  0  0  0
  -21.8822   -3.8155   23.4338 C   0  0  0  0  0  0
  -21.9192   -4.6974   22.3404 C   0  0  0  0  0  0
  -22.7849  -13.5240   21.1836 C   0  0  0  0  0  0
  -22.1661   -4.2157   21.0987 F   0  0  0  0  0  0
  -21.5637   -3.4547   25.7725 F   0  0  0  0  0  0
  -29.9970  -13.5181   20.3966 N   0  0  0  0  0  0
  -26.2994  -12.9390   20.3352 N   0  0  0  0  0  0
  -25.9364  -11.6540   20.5806 N   0  0  0  0  0  0
  -22.0490  -12.8212   22.0372 N   0  0  0  0  0  0
  -25.4212  -15.1896   20.4063 N   0  0  0  0  0  0
  -31.8201  -14.8263   20.1610 O   0  0  0  0  0  0
  -21.6642   -6.8883   21.4243 O   0  0  0  0  0  0
  -22.3548  -14.5564   20.6709 O   0  0  0  0  0  0
  -24.6308  -31.8546   23.1935 C   0  0  0  0  0  0
  -25.9130  -32.4742   23.8301 C   0  0  1  0  0  0
  -27.2330  -27.2638   20.1497 C   0  0  0  0  0  0
  -25.5934  -33.8547   24.2243 N   0  0  0  0  0  0
  -23.4290  -30.4717   21.5370 C   0  0  2  0  0  0
  -24.8805  -28.9065   20.1188 C   0  0  0  0  0  0
  -22.7502  -29.4599   22.4913 C   0  0  0  0  0  0
  -18.0299  -28.1384   22.8481 C   0  0  0  0  0  0
  -24.1485  -36.7253   23.2641 C   0  0  0  0  0  0
  -25.9725  -30.7675   21.3717 C   0  0  0  0  0  0
  -26.0501  -29.3854   20.7246 C   0  0  0  0  0  0
  -27.2325  -28.5789   20.7235 C   0  0  0  0  0  0
  -26.0422  -26.8383   19.5289 C   0  0  0  0  0  0
  -24.8814  -27.6390   19.5096 C   0  0  0  0  0  0
  -23.6493  -29.7921   20.1579 C   0  0  0  0  0  0
  -25.4111  -36.3057   24.0324 C   0  0  1  0  0  0
  -20.5902  -28.3690   23.1265 C   0  0  2  0  0  0
  -20.6791  -26.9406   22.5414 C   0  0  0  0  0  0
  -19.5775  -26.6375   21.5213 C   0  0  0  0  0  0
  -18.1939  -26.7944   22.1592 C   0  0  0  0  0  0
  -19.1558  -28.8852   23.2869 C   0  0  0  0  0  0
  -18.9482  -30.1458   23.8885 C   0  0  0  0  0  0
  -17.6481  -30.6584   24.0577 C   0  0  0  0  0  0
  -25.9053  -34.9435   23.5081 C   0  0  0  0  0  0
  -16.5369  -29.9078   23.6358 C   0  0  0  0  0  0
  -16.7283  -28.6501   23.0356 C   0  0  0  0  0  0
  -26.4499  -31.6571   25.0683 C   0  0  0  0  0  0
  -25.3713  -31.3710   26.1390 C   0  0  0  0  0  0
  -27.0352  -30.3002   24.6132 C   0  0  0  0  0  0
  -27.6039  -32.4324   25.7467 C   0  0  0  0  0  0
  -27.5575  -37.1774   24.8455 C   0  0  0  0  0  0
  -21.4210  -29.3033   22.3648 N   0  0  0  0  0  0
  -26.4270  -37.3770   23.9424 N   0  0  0  0  0  0
  -24.6966  -31.0502   22.0908 N   0  0  0  0  0  0
  -23.4211  -28.8178   23.3035 O   0  0  0  0  0  0
  -28.3387  -26.3892   20.1341 O   0  0  0  0  0  0
  -26.5635  -34.8924   22.4654 O   0  0  0  0  0  0
  -23.5455  -32.1359   23.7222 O   0  0  0  0  0  0
  -30.8513  -20.1007   21.0664 C   0  0  0  0  0  0
  -31.3777  -17.7144   21.3032 C   0  0  0  0  0  0
  -29.6322  -19.8326   20.4084 C   0  0  0  0  0  0
  -29.2917  -18.4105   20.2247 C   0  0  0  0  0  0
  -31.7127  -19.0731   21.4975 C   0  0  0  0  0  0
  -30.1708  -17.3261   20.6784 C   0  0  0  0  0  0
  -27.8123  -17.0388   18.6913 C   0  0  0  0  0  0
  -28.0390  -18.0849   19.5065 C   0  0  0  0  0  0
  -28.8820  -22.4762   20.6031 C   0  0  0  0  0  0
  -28.3799  -23.6790   20.1100 C   0  0  0  0  0  0
  -28.8406  -21.0973   19.9017 C   0  0  0  0  0  0
  -33.0222  -19.4519   22.1661 C   0  0  0  0  0  0
  -28.2505  -25.0773   20.8557 C   0  0  0  0  0  0
  -29.8411  -15.8732   20.6346 N   0  0  0  0  0  0
  -28.1427  -21.0005   18.8890 O   0  0  0  0  0  0
  -31.4795  -12.5742   19.1613 H   0  0  0  0  0  0
  -30.3757  -11.4784   19.9419 H   0  0  0  0  0  0
  -29.7915  -11.7575   17.5003 H   0  0  0  0  0  0
  -29.6265  -13.4808   17.7250 H   0  0  0  0  0  0
  -27.8978  -11.2859   18.9023 H   0  0  0  0  0  0
  -27.3745  -12.5340   17.8031 H   0  0  0  0  0  0
  -27.6357  -14.2529   19.4799 H   0  0  0  0  0  0
  -28.7407  -12.1668   21.4222 H   0  0  0  0  0  0
  -28.4427  -13.8433   21.8010 H   0  0  0  0  0  0
  -25.2784   -9.5690   22.4783 H   0  0  0  0  0  0
  -24.0005   -7.4647   22.7492 H   0  0  0  0  0  0
  -21.0873   -8.8796   19.8950 H   0  0  0  0  0  0
  -22.3745  -10.9692   19.6172 H   0  0  0  0  0  0
  -21.1979   -7.6149   23.9723 H   0  0  0  0  0  0
  -21.1483   -6.0520   25.9076 H   0  0  0  0  0  0
  -22.0596   -2.7616   23.2837 H   0  0  0  0  0  0
  -22.4080  -11.9852   22.4736 H   0  0  0  0  0  0
  -21.1112  -13.1259   22.2577 H   0  0  0  0  0  0
  -24.6461  -15.8367   20.4922 H   0  0  0  0  0  0
  -26.2631  -15.6337   20.0620 H   0  0  0  0  0  0
  -26.7184  -32.5403   23.1033 H   0  0  0  0  0  0
  -25.0124  -33.9712   25.0419 H   0  0  0  0  0  0
  -22.7257  -31.2923   21.3809 H   0  0  0  0  0  0
  -23.3774  -35.9556   23.3271 H   0  0  0  0  0  0
  -24.3588  -36.8906   22.2066 H   0  0  0  0  0  0
  -23.7197  -37.6419   23.6690 H   0  0  0  0  0  0
  -26.1046  -31.5187   20.5937 H   0  0  0  0  0  0
  -26.8549  -30.8267   21.9977 H   0  0  0  0  0  0
  -28.1314  -28.9439   21.2006 H   0  0  0  0  0  0
  -26.0077  -25.8600   19.0698 H   0  0  0  0  0  0
  -23.9850  -27.2622   19.0354 H   0  0  0  0  0  0
  -23.7725  -30.5624   19.3960 H   0  0  0  0  0  0
  -22.7718  -29.2176   19.8541 H   0  0  0  0  0  0
  -25.1308  -36.1872   25.0812 H   0  0  0  0  0  0
  -21.0002  -28.3257   24.1381 H   0  0  0  0  0  0
  -20.5676  -26.2308   23.3618 H   0  0  0  0  0  0
  -21.6661  -26.7425   22.1209 H   0  0  0  0  0  0
  -19.6955  -25.6289   21.1230 H   0  0  0  0  0  0
  -19.6743  -27.3202   20.6762 H   0  0  0  0  0  0
  -17.4244  -26.6742   21.3949 H   0  0  0  0  0  0
  -18.0295  -26.0051   22.8938 H   0  0  0  0  0  0
  -19.7950  -30.7284   24.2237 H   0  0  0  0  0  0
  -17.5026  -31.6271   24.5162 H   0  0  0  0  0  0
  -15.5367  -30.2983   23.7691 H   0  0  0  0  0  0
  -15.8678  -28.0825   22.7073 H   0  0  0  0  0  0
  -24.5995  -30.6922   25.7742 H   0  0  0  0  0  0
  -24.8767  -32.2861   26.4671 H   0  0  0  0  0  0
  -25.8040  -30.9048   27.0255 H   0  0  0  0  0  0
  -26.2929  -29.6742   24.1171 H   0  0  0  0  0  0
  -27.4089  -29.7264   25.4619 H   0  0  0  0  0  0
  -27.8779  -30.4319   23.9343 H   0  0  0  0  0  0
  -27.2644  -33.3670   26.1959 H   0  0  0  0  0  0
  -28.3901  -32.6809   25.0323 H   0  0  0  0  0  0
  -28.0644  -31.8492   26.5448 H   0  0  0  0  0  0
  -28.2555  -38.0109   24.7546 H   0  0  0  0  0  0
  -28.1115  -36.2637   24.6232 H   0  0  0  0  0  0
  -27.2313  -37.1342   25.8862 H   0  0  0  0  0  0
  -20.9397  -29.8717   21.6817 H   0  0  0  0  0  0
  -26.0132  -38.2830   24.1470 H   0  0  0  0  0  0
  -31.1677  -21.1256   21.2055 H   0  0  0  0  0  0
  -32.0585  -16.9581   21.6678 H   0  0  0  0  0  0
  -26.8469  -16.9032   18.2257 H   0  0  0  0  0  0
  -28.5706  -16.3067   18.4611 H   0  0  0  0  0  0
  -27.2152  -18.7641   19.6712 H   0  0  0  0  0  0
  -29.3139  -22.4740   21.5937 H   0  0  0  0  0  0
  -27.9617  -23.6726   19.1140 H   0  0  0  0  0  0
  -32.9281  -20.4039   22.6905 H   0  0  0  0  0  0
  -33.8136  -19.5617   21.4240 H   0  0  0  0  0  0
  -33.3344  -18.7034   22.8940 H   0  0  0  0  0  0
  -29.0223  -25.0933   21.6266 H   0  0  0  0  0  0
  -27.3109  -25.0443   21.4084 H   0  0  0  0  0  0
  -28.8557  -15.6716   20.6996 H   0  0  0  0  0  0
  1 25  1  0  0  0
  1 30  2  0  0  0
  1 84  1  0  0  0
  2  3  1  0  0  0
  2 25  1  0  0  0
  2 86  1  0  0  0
  2 87  1  0  0  0
  3  4  1  0  0  0
  3 88  1  0  0  0
  3 89  1  0  0  0
  4  5  1  0  0  0
  4 90  1  0  0  0
  4 91  1  0  0  0
  5  6  1  0  0  0
  5 26  1  0  0  0
  5 92  1  0  0  0
  6 25  1  0  0  0
  6 93  1  0  0  0
  6 94  1  0  0  0
  7  8  2  0  0  0
  7 26  1  0  0  0
  7 29  1  0  0  0
  8  9  1  0  0  0
  8 22  1  0  0  0
  9 10  1  0  0  0
  9 27  2  0  0  0
 10 11  2  0  0  0
 10 15  1  0  0  0
 11 12  1  0  0  0
 11 95  1  0  0  0
 12 13  2  0  0  0
 12 96  1  0  0  0
 13 14  1  0  0  0
 13 31  1  0  0  0
 14 15  2  0  0  0
 14 97  1  0  0  0
 15 98  1  0  0  0
 16 17  2  0  0  0
 16 21  1  0  0  0
 16 31  1  0  0  0
 17 18  1  0  0  0
 17 99  1  0  0  0
 18 19  2  0  0  0
 18100  1  0  0  0
 19 20  1  0  0  0
 19 24  1  0  0  0
 20 21  2  0  0  0
 20101  1  0  0  0
 21 23  1  0  0  0
 22 28  1  0  0  0
 22 32  2  0  0  0
 26 27  1  0  0  0
 28102  1  0  0  0
 28103  1  0  0  0
 29104  1  0  0  0
 29105  1  0  0  0
 33 34  1  0  0  0
 33 66  1  0  0  0
 33 70  2  0  0  0
 34 36  1  0  0  0
 34 59  1  0  0  0
 34106  1  0  0  0
 35 44  2  0  0  0
 35 45  1  0  0  0
 35 68  1  0  0  0
 36 56  1  0  0  0
 36107  1  0  0  0
 37 39  1  0  0  0
 37 47  1  0  0  0
 37 66  1  0  0  0
 37108  1  0  0  0
 38 43  2  0  0  0
 38 46  1  0  0  0
 38 47  1  0  0  0
 39 64  1  0  0  0
 39 67  2  0  0  0
 40 52  1  0  0  0
 40 53  2  0  0  0
 40 58  1  0  0  0
 41109  1  0  0  0
 41110  1  0  0  0
 41111  1  0  0  0
 41 48  1  0  0  0
 42 43  1  0  0  0
 42 66  1  0  0  0
 42112  1  0  0  0
 42113  1  0  0  0
 43 44  1  0  0  0
 44114  1  0  0  0
 45 46  2  0  0  0
 45115  1  0  0  0
 46116  1  0  0  0
 47117  1  0  0  0
 47118  1  0  0  0
 48 56  1  0  0  0
 48 65  1  0  0  0
 48119  1  0  0  0
 49 50  1  0  0  0
 49 53  1  0  0  0
 49 64  1  0  0  0
 49120  1  0  0  0
 50 51  1  0  0  0
 50121  1  0  0  0
 50122  1  0  0  0
 51 52  1  0  0  0
 51123  1  0  0  0
 51124  1  0  0  0
 52125  1  0  0  0
 52126  1  0  0  0
 53 54  1  0  0  0
 54 55  2  0  0  0
 54127  1  0  0  0
 55 57  1  0  0  0
 55128  1  0  0  0
 56 69  2  0  0  0
 57 58  2  0  0  0
 57129  1  0  0  0
 58130  1  0  0  0
 59 60  1  0  0  0
 59 61  1  0  0  0
 59 62  1  0  0  0
 60131  1  0  0  0
 60132  1  0  0  0
 60133  1  0  0  0
 61134  1  0  0  0
 61135  1  0  0  0
 61136  1  0  0  0
 62137  1  0  0  0
 62138  1  0  0  0
 62139  1  0  0  0
 63 65  1  0  0  0
 63140  1  0  0  0
 63141  1  0  0  0
 63142  1  0  0  0
 64143  1  0  0  0
 65144  1  0  0  0
 68 83  1  0  0  0
 71 73  2  0  0  0
 71 75  1  0  0  0
 71145  1  0  0  0
 72 75  2  0  0  0
 72 76  1  0  0  0
 72146  1  0  0  0
 73 74  1  0  0  0
 73 81  1  0  0  0
 74 76  2  0  0  0
 74 78  1  0  0  0
 75 82  1  0  0  0
 76 84  1  0  0  0
 77 78  2  0  0  0
 77147  1  0  0  0
 77148  1  0  0  0
 78149  1  0  0  0
 79 80  2  0  0  0
 79 81  1  0  0  0
 79150  1  0  0  0
 80 83  1  0  0  0
 80151  1  0  0  0
 81 85  2  0  0  0
 82152  1  0  0  0
 82153  1  0  0  0
 82154  1  0  0  0
 83155  1  0  0  0
 83156  1  0  0  0
 84157  1  0  0  0
M  ISO  4   1 100  68 101  83 101  84 100
M  END
> <chiral flag>
0

> <version>
0

> <s_m_source_file>
/data/baiqing/PycharmProjects/Reinvent-master-3.2/result/LINK_invent/BTK/process_docking_weight1_custom_product_contain_oxygen_bond_distance_aromatic_linkinvent_7_9_3/rearranged_h_0123.sdf

> <i_m_source_file_index>
50

> <r_mmod_Potential_Energy-OPLS-2005>
174.718231201172

> <r_mmod_Stretch_Energy-OPLS-2005>
130.769973754883

> <r_mmod_Bend_Energy-OPLS-2005>
157.132232666016

> <r_mmod_Torsional_Energy-OPLS-2005>
255.60432434082

> <r_mmod_Improper_Torsional_Energy-OPLS-2005>
6.82315397262573

> <r_mmod_Van_der_Waal_Energy-OPLS-2005>
138.308776855469

> <r_mmod_Electrostatic_Energy-OPLS-2005>
-383.075256347656

> <r_mmod_Solvation_Energy-OPLS-2005>
-211.823654174805

> <b_mmod_Minimization_Converged-OPLS-2005>
0

> <r_mmod_RMS_Derivative-OPLS-2005>
3.11000204086304

$$$$
50
                    3D
 Structure written by MMmdl.
155163  0  0  1  0            999 V2000
  -30.7631  -14.4297   20.5155 C   0  0  0  0  0  0
  -30.3929  -12.2603   19.4459 C   0  0  0  0  0  0
  -29.4943  -12.4847   18.2145 C   0  0  0  0  0  0
  -28.0109  -12.3701   18.6141 C   0  0  0  0  0  0
  -27.6572  -13.2187   19.8666 C   0  0  2  0  0  0
  -28.6953  -13.0320   20.9956 C   0  0  0  0  0  0
  -25.2560  -13.8192   20.5673 C   0  0  0  0  0  0
  -24.1825  -13.0449   20.9168 C   0  0  0  0  0  0
  -24.6387  -11.6920   20.8718 C   0  0  0  0  0  0
  -23.9054  -10.4300   21.0394 C   0  0  0  0  0  0
  -24.3610   -9.4223   21.9171 C   0  0  0  0  0  0
  -23.6299   -8.2252   22.0748 C   0  0  0  0  0  0
  -22.4280   -8.0278   21.3548 C   0  0  0  0  0  0
  -21.9908   -9.0246   20.4647 C   0  0  0  0  0  0
  -22.7227  -10.2131   20.3049 C   0  0  0  0  0  0
  -21.6859   -6.0732   22.5283 C   0  0  0  0  0  0
  -21.4006   -6.5635   23.8214 C   0  0  0  0  0  0
  -21.3664   -5.6784   24.9174 C   0  0  0  0  0  0
  -21.6053   -4.3048   24.7229 C   0  0  0  0  0  0
  -21.8815   -3.8145   23.4345 C   0  0  0  0  0  0
  -21.9189   -4.6959   22.3399 C   0  0  0  0  0  0
  -22.7846  -13.5240   21.1843 C   0  0  0  0  0  0
  -22.1661   -4.2142   21.0980 F   0  0  0  0  0  0
  -21.5639   -3.4536   25.7740 F   0  0  0  0  0  0
  -30.0320  -13.2844   20.4413 N   0  0  0  0  0  0
  -26.3000  -12.9385   20.3317 N   0  0  0  0  0  0
  -25.9315  -11.6534   20.5726 N   0  0  0  0  0  0
  -22.0482  -12.8240   22.0400 N   0  0  0  0  0  0
  -25.4282  -15.1911   20.4126 N   0  0  0  0  0  0
  -31.9234  -14.4647   20.0981 O   0  0  0  0  0  0
  -21.6647   -6.8874   21.4247 O   0  0  0  0  0  0
  -22.3529  -14.5547   20.6695 O   0  0  0  0  0  0
  -24.6122  -31.8702   23.2125 C   0  0  0  0  0  0
  -25.9030  -32.4830   23.8409 C   0  0  1  0  0  0
  -27.2230  -27.4578   20.0918 C   0  0  0  0  0  0
  -25.5901  -33.8629   24.2345 N   0  0  0  0  0  0
  -23.3966  -30.4973   21.5520 C   0  0  2  0  0  0
  -24.8389  -28.9699   20.1112 C   0  0  0  0  0  0
  -22.7390  -29.4674   22.4981 C   0  0  0  0  0  0
  -18.0270  -28.1386   22.8477 C   0  0  0  0  0  0
  -24.1484  -36.7326   23.2632 C   0  0  0  0  0  0
  -25.9224  -30.8454   21.3588 C   0  0  0  0  0  0
  -25.9975  -29.4819   20.7073 C   0  0  0  0  0  0
  -27.1923  -28.7328   20.6946 C   0  0  0  0  0  0
  -26.0483  -26.9600   19.4795 C   0  0  0  0  0  0
  -24.8581  -27.7084   19.4936 C   0  0  0  0  0  0
  -23.6022  -29.8354   20.1635 C   0  0  0  0  0  0
  -25.4098  -36.3116   24.0340 C   0  0  1  0  0  0
  -20.5856  -28.3666   23.1323 C   0  0  2  0  0  0
  -20.6764  -26.9406   22.5419 C   0  0  0  0  0  0
  -19.5751  -26.6391   21.5207 C   0  0  0  0  0  0
  -18.1924  -26.7932   22.1612 C   0  0  0  0  0  0
  -19.1516  -28.8839   23.2902 C   0  0  0  0  0  0
  -18.9449  -30.1444   23.8914 C   0  0  0  0  0  0
  -17.6452  -30.6590   24.0567 C   0  0  0  0  0  0
  -25.9029  -34.9481   23.5133 C   0  0  0  0  0  0
  -16.5343  -29.9095   23.6321 C   0  0  0  0  0  0
  -16.7258  -28.6519   23.0326 C   0  0  0  0  0  0
  -26.4477  -31.6595   25.0720 C   0  0  0  0  0  0
  -25.3756  -31.3689   26.1477 C   0  0  0  0  0  0
  -27.0299  -30.3046   24.6056 C   0  0  0  0  0  0
  -27.6072  -32.4288   25.7482 C   0  0  0  0  0  0
  -27.5587  -37.1799   24.8451 C   0  0  0  0  0  0
  -21.4121  -29.3038   22.3731 N   0  0  0  0  0  0
  -26.4281  -37.3805   23.9426 N   0  0  0  0  0  0
  -24.6621  -31.0843   22.1004 N   0  0  0  0  0  0
  -23.4183  -28.8201   23.2996 O   0  0  0  0  0  0
  -28.4004  -26.7470   20.1218 O   0  0  0  0  0  0
  -26.5586  -34.8930   22.4690 O   0  0  0  0  0  0
  -23.5326  -32.1434   23.7548 O   0  0  0  0  0  0
  -29.1690  -18.6057   21.4783 C   0  0  0  0  0  0
  -28.8961  -19.9684   21.7277 C   0  0  0  0  0  0
  -30.7821  -20.5981   20.3410 C   0  0  0  0  0  0
  -30.2479  -18.2255   20.6500 C   0  0  0  0  0  0
  -31.0551  -19.2445   20.0742 C   0  0  0  0  0  0
  -29.6936  -20.9821   21.1565 C   0  0  0  0  0  0
  -30.5944  -16.8108   20.4113 C   0  0  0  0  0  0
  -30.0957  -15.6633   20.9346 C   0  0  0  0  0  0
  -29.5759  -23.2061   20.5437 C   0  0  0  0  0  0
  -32.2408  -18.9377   19.1668 C   0  0  0  0  0  0
  -29.4840  -24.6979   20.7711 C   0  0  0  0  0  0
  -28.3097  -25.3265   20.0152 C   0  0  0  0  0  0
  -29.4273  -22.3267   21.4564 N   0  0  0  0  0  0
  -31.4451  -12.2831   19.1589 H   0  0  0  0  0  0
  -30.2281  -11.2639   19.8584 H   0  0  0  0  0  0
  -29.7303  -11.7553   17.4382 H   0  0  0  0  0  0
  -29.6910  -13.4672   17.7825 H   0  0  0  0  0  0
  -27.8050  -11.3164   18.8089 H   0  0  0  0  0  0
  -27.3736  -12.6531   17.7763 H   0  0  0  0  0  0
  -27.6949  -14.2634   19.5566 H   0  0  0  0  0  0
  -28.6527  -12.0139   21.3850 H   0  0  0  0  0  0
  -28.4701  -13.6740   21.8459 H   0  0  0  0  0  0
  -25.2754   -9.5715   22.4737 H   0  0  0  0  0  0
  -24.0023   -7.4645   22.7461 H   0  0  0  0  0  0
  -21.0839   -8.8758   19.8956 H   0  0  0  0  0  0
  -22.3680  -10.9659   19.6155 H   0  0  0  0  0  0
  -21.1991   -7.6139   23.9712 H   0  0  0  0  0  0
  -21.1495   -6.0515   25.9075 H   0  0  0  0  0  0
  -22.0590   -2.7607   23.2840 H   0  0  0  0  0  0
  -22.4103  -11.9919   22.4818 H   0  0  0  0  0  0
  -21.1093  -13.1268   22.2583 H   0  0  0  0  0  0
  -24.6674  -15.8507   20.5334 H   0  0  0  0  0  0
  -26.2911  -15.6317   20.1169 H   0  0  0  0  0  0
  -26.7099  -32.5556   23.1179 H   0  0  0  0  0  0
  -25.0065  -33.9795   25.0499 H   0  0  0  0  0  0
  -22.6834  -31.3132   21.4180 H   0  0  0  0  0  0
  -23.3748  -35.9655   23.3267 H   0  0  0  0  0  0
  -24.3594  -36.8966   22.2054 H   0  0  0  0  0  0
  -23.7230  -37.6522   23.6660 H   0  0  0  0  0  0
  -26.0257  -31.6092   20.5871 H   0  0  0  0  0  0
  -26.8149  -30.9028   21.9697 H   0  0  0  0  0  0
  -28.0870  -29.1233   21.1591 H   0  0  0  0  0  0
  -26.0339  -26.0012   18.9818 H   0  0  0  0  0  0
  -23.9685  -27.3139   19.0220 H   0  0  0  0  0  0
  -23.7111  -30.6136   19.4070 H   0  0  0  0  0  0
  -22.7261  -29.2566   19.8654 H   0  0  0  0  0  0
  -25.1265  -36.1976   25.0830 H   0  0  0  0  0  0
  -20.9949  -28.3231   24.1442 H   0  0  0  0  0  0
  -20.5669  -26.2270   23.3598 H   0  0  0  0  0  0
  -21.6638  -26.7455   22.1212 H   0  0  0  0  0  0
  -19.6917  -25.6302   21.1234 H   0  0  0  0  0  0
  -19.6707  -27.3201   20.6736 H   0  0  0  0  0  0
  -17.4198  -26.6662   21.4013 H   0  0  0  0  0  0
  -18.0338  -26.0082   22.9019 H   0  0  0  0  0  0
  -19.7925  -30.7250   24.2295 H   0  0  0  0  0  0
  -17.5013  -31.6268   24.5170 H   0  0  0  0  0  0
  -15.5347  -30.3005   23.7646 H   0  0  0  0  0  0
  -15.8657  -28.0861   22.7011 H   0  0  0  0  0  0
  -24.5931  -30.7032   25.7818 H   0  0  0  0  0  0
  -24.8945  -32.2840   26.4940 H   0  0  0  0  0  0
  -25.8123  -30.8853   27.0224 H   0  0  0  0  0  0
  -26.2821  -29.6807   24.1142 H   0  0  0  0  0  0
  -27.4129  -29.7278   25.4487 H   0  0  0  0  0  0
  -27.8631  -30.4385   23.9151 H   0  0  0  0  0  0
  -27.2718  -33.3579   26.2102 H   0  0  0  0  0  0
  -28.3872  -32.6846   25.0298 H   0  0  0  0  0  0
  -28.0750  -31.8370   26.5363 H   0  0  0  0  0  0
  -28.2561  -38.0139   24.7560 H   0  0  0  0  0  0
  -28.1121  -36.2673   24.6178 H   0  0  0  0  0  0
  -27.2323  -37.1338   25.8856 H   0  0  0  0  0  0
  -20.9266  -29.8780   21.6982 H   0  0  0  0  0  0
  -26.0165  -38.2871   24.1470 H   0  0  0  0  0  0
  -28.5417  -17.8554   21.9374 H   0  0  0  0  0  0
  -28.0682  -20.2324   22.3712 H   0  0  0  0  0  0
  -31.4367  -21.3466   19.9160 H   0  0  0  0  0  0
  -31.3897  -16.6950   19.6929 H   0  0  0  0  0  0
  -29.2771  -15.6699   21.6357 H   0  0  0  0  0  0
  -29.8003  -22.9422   19.5060 H   0  0  0  0  0  0
  -32.7612  -19.8447   18.8575 H   0  0  0  0  0  0
  -31.9087  -18.4295   18.2603 H   0  0  0  0  0  0
  -32.9685  -18.3071   19.6782 H   0  0  0  0  0  0
  -30.4195  -25.1466   20.4370 H   0  0  0  0  0  0
  -29.3986  -24.9045   21.8381 H   0  0  0  0  0  0
  -27.3858  -24.9400   20.4512 H   0  0  0  0  0  0
  -28.3245  -25.0481   18.9599 H   0  0  0  0  0  0
  1 25  1  0  0  0
  1 30  2  0  0  0
  1 78  1  0  0  0
  2  3  1  0  0  0
  2 25  1  0  0  0
  2 84  1  0  0  0
  2 85  1  0  0  0
  3  4  1  0  0  0
  3 86  1  0  0  0
  3 87  1  0  0  0
  4  5  1  0  0  0
  4 88  1  0  0  0
  4 89  1  0  0  0
  5  6  1  0  0  0
  5 26  1  0  0  0
  5 90  1  0  0  0
  6 25  1  0  0  0
  6 91  1  0  0  0
  6 92  1  0  0  0
  7  8  2  0  0  0
  7 26  1  0  0  0
  7 29  1  0  0  0
  8  9  1  0  0  0
  8 22  1  0  0  0
  9 10  1  0  0  0
  9 27  2  0  0  0
 10 11  2  0  0  0
 10 15  1  0  0  0
 11 12  1  0  0  0
 11 93  1  0  0  0
 12 13  2  0  0  0
 12 94  1  0  0  0
 13 14  1  0  0  0
 13 31  1  0  0  0
 14 15  2  0  0  0
 14 95  1  0  0  0
 15 96  1  0  0  0
 16 17  2  0  0  0
 16 21  1  0  0  0
 16 31  1  0  0  0
 17 18  1  0  0  0
 17 97  1  0  0  0
 18 19  2  0  0  0
 18 98  1  0  0  0
 19 20  1  0  0  0
 19 24  1  0  0  0
 20 21  2  0  0  0
 20 99  1  0  0  0
 21 23  1  0  0  0
 22 28  1  0  0  0
 22 32  2  0  0  0
 26 27  1  0  0  0
 28100  1  0  0  0
 28101  1  0  0  0
 29102  1  0  0  0
 29103  1  0  0  0
 33 34  1  0  0  0
 33 66  1  0  0  0
 33 70  2  0  0  0
 34 36  1  0  0  0
 34 59  1  0  0  0
 34104  1  0  0  0
 35 44  2  0  0  0
 35 45  1  0  0  0
 35 68  1  0  0  0
 36 56  1  0  0  0
 36105  1  0  0  0
 37 39  1  0  0  0
 37 47  1  0  0  0
 37 66  1  0  0  0
 37106  1  0  0  0
 38 43  2  0  0  0
 38 46  1  0  0  0
 38 47  1  0  0  0
 39 64  1  0  0  0
 39 67  2  0  0  0
 40 52  1  0  0  0
 40 53  2  0  0  0
 40 58  1  0  0  0
 41107  1  0  0  0
 41108  1  0  0  0
 41109  1  0  0  0
 41 48  1  0  0  0
 42 43  1  0  0  0
 42 66  1  0  0  0
 42110  1  0  0  0
 42111  1  0  0  0
 43 44  1  0  0  0
 44112  1  0  0  0
 45 46  2  0  0  0
 45113  1  0  0  0
 46114  1  0  0  0
 47115  1  0  0  0
 47116  1  0  0  0
 48 56  1  0  0  0
 48 65  1  0  0  0
 48117  1  0  0  0
 49 50  1  0  0  0
 49 53  1  0  0  0
 49 64  1  0  0  0
 49118  1  0  0  0
 50 51  1  0  0  0
 50119  1  0  0  0
 50120  1  0  0  0
 51 52  1  0  0  0
 51121  1  0  0  0
 51122  1  0  0  0
 52123  1  0  0  0
 52124  1  0  0  0
 53 54  1  0  0  0
 54 55  2  0  0  0
 54125  1  0  0  0
 55 57  1  0  0  0
 55126  1  0  0  0
 56 69  2  0  0  0
 57 58  2  0  0  0
 57127  1  0  0  0
 58128  1  0  0  0
 59 60  1  0  0  0
 59 61  1  0  0  0
 59 62  1  0  0  0
 60129  1  0  0  0
 60130  1  0  0  0
 60131  1  0  0  0
 61132  1  0  0  0
 61133  1  0  0  0
 61134  1  0  0  0
 62135  1  0  0  0
 62136  1  0  0  0
 62137  1  0  0  0
 63 65  1  0  0  0
 63138  1  0  0  0
 63139  1  0  0  0
 63140  1  0  0  0
 64141  1  0  0  0
 65142  1  0  0  0
 68 82  1  0  0  0
 71 72  2  0  0  0
 71 74  1  0  0  0
 71143  1  0  0  0
 72 76  1  0  0  0
 72144  1  0  0  0
 73 75  1  0  0  0
 73 76  2  0  0  0
 73145  1  0  0  0
 74 75  2  0  0  0
 74 77  1  0  0  0
 75 80  1  0  0  0
 76 83  1  0  0  0
 77 78  2  0  0  0
 77146  1  0  0  0
 78147  1  0  0  0
 79 81  1  0  0  0
 79 83  2  0  0  0
 79148  1  0  0  0
 80149  1  0  0  0
 80150  1  0  0  0
 80151  1  0  0  0
 81 82  1  0  0  0
 81152  1  0  0  0
 81153  1  0  0  0
 82154  1  0  0  0
 82155  1  0  0  0
M  ISO  4   1 100  68 101  78 100  82 101
M  END
> <chiral flag>
0

> <version>
0

> <s_m_source_file>
/data/baiqing/PycharmProjects/Reinvent-master-3.2/result/LINK_invent/BTK/process_docking_weight1_custom_product_contain_oxygen_bond_distance_aromatic_linkinvent_7_9_3/rearranged_h_0123.sdf

> <i_m_source_file_index>
51

> <r_mmod_Potential_Energy-OPLS-2005>
-37.9115982055664

> <r_mmod_Stretch_Energy-OPLS-2005>
34.2394523620605

> <r_mmod_Bend_Energy-OPLS-2005>
105.405670166016

> <r_mmod_Torsional_Energy-OPLS-2005>
188.769165039062

> <r_mmod_Improper_Torsional_Energy-OPLS-2005>
3.79256582260132

> <r_mmod_Van_der_Waal_Energy-OPLS-2005>
183.081253051758

> <r_mmod_Electrostatic_Energy-OPLS-2005>
-371.507415771484

> <r_mmod_Solvation_Energy-OPLS-2005>
-200.793487548828

> <b_mmod_Minimization_Converged-OPLS-2005>
0

> <r_mmod_RMS_Derivative-OPLS-2005>
1.34600174427032

$$$$
51
                    3D
 Structure written by MMmdl.
156164  0  0  1  0            999 V2000
  -30.5653  -14.7553   20.4651 C   0  0  0  0  0  0
  -30.4396  -12.4562   19.4857 C   0  0  0  0  0  0
  -29.5198  -12.5224   18.2440 C   0  0  0  0  0  0
  -28.0400  -12.3498   18.6427 C   0  0  0  0  0  0
  -27.6459  -13.2325   19.8569 C   0  0  2  0  0  0
  -28.6862  -13.1321   20.9946 C   0  0  0  0  0  0
  -25.2541  -13.8213   20.5708 C   0  0  0  0  0  0
  -24.1827  -13.0458   20.9208 C   0  0  0  0  0  0
  -24.6412  -11.6929   20.8730 C   0  0  0  0  0  0
  -23.9096  -10.4302   21.0373 C   0  0  0  0  0  0
  -24.3637   -9.4228   21.9169 C   0  0  0  0  0  0
  -23.6326   -8.2246   22.0731 C   0  0  0  0  0  0
  -22.4304   -8.0277   21.3529 C   0  0  0  0  0  0
  -21.9929   -9.0246   20.4631 C   0  0  0  0  0  0
  -22.7249  -10.2139   20.3045 C   0  0  0  0  0  0
  -21.6862   -6.0740   22.5284 C   0  0  0  0  0  0
  -21.4009   -6.5634   23.8219 C   0  0  0  0  0  0
  -21.3664   -5.6791   24.9176 C   0  0  0  0  0  0
  -21.6059   -4.3054   24.7224 C   0  0  0  0  0  0
  -21.8821   -3.8149   23.4342 C   0  0  0  0  0  0
  -21.9186   -4.6962   22.3402 C   0  0  0  0  0  0
  -22.7839  -13.5207   21.1895 C   0  0  0  0  0  0
  -22.1665   -4.2157   21.0978 F   0  0  0  0  0  0
  -21.5635   -3.4530   25.7729 F   0  0  0  0  0  0
  -29.9922  -13.5035   20.4361 N   0  0  0  0  0  0
  -26.2954  -12.9400   20.3270 N   0  0  0  0  0  0
  -25.9341  -11.6549   20.5744 N   0  0  0  0  0  0
  -22.0483  -12.8187   22.0453 N   0  0  0  0  0  0
  -25.4236  -15.1940   20.4157 N   0  0  0  0  0  0
  -31.7311  -14.9016   20.0801 O   0  0  0  0  0  0
  -21.6645   -6.8880   21.4249 O   0  0  0  0  0  0
  -22.3526  -14.5502   20.6726 O   0  0  0  0  0  0
  -24.6353  -31.8537   23.1957 C   0  0  0  0  0  0
  -25.9176  -32.4739   23.8305 C   0  0  1  0  0  0
  -27.2107  -27.2339   20.1331 C   0  0  0  0  0  0
  -25.5970  -33.8545   24.2235 N   0  0  0  0  0  0
  -23.4318  -30.4784   21.5398 C   0  0  2  0  0  0
  -24.8729  -28.9142   20.1099 C   0  0  0  0  0  0
  -22.7541  -29.4617   22.4910 C   0  0  0  0  0  0
  -18.0311  -28.1376   22.8522 C   0  0  0  0  0  0
  -24.1487  -36.7271   23.2638 C   0  0  0  0  0  0
  -25.9815  -30.7545   21.3799 C   0  0  0  0  0  0
  -26.0477  -29.3768   20.7176 C   0  0  0  0  0  0
  -27.2210  -28.5518   20.7110 C   0  0  0  0  0  0
  -26.0148  -26.8428   19.4966 C   0  0  0  0  0  0
  -24.8635  -27.6563   19.4856 C   0  0  0  0  0  0
  -23.6472  -29.8099   20.1565 C   0  0  0  0  0  0
  -25.4115  -36.3060   24.0327 C   0  0  1  0  0  0
  -20.5920  -28.3699   23.1272 C   0  0  2  0  0  0
  -20.6799  -26.9417   22.5417 C   0  0  0  0  0  0
  -19.5745  -26.6371   21.5253 C   0  0  0  0  0  0
  -18.1926  -26.7927   22.1658 C   0  0  0  0  0  0
  -19.1561  -28.8855   23.2887 C   0  0  0  0  0  0
  -18.9474  -30.1462   23.8896 C   0  0  0  0  0  0
  -17.6463  -30.6577   24.0573 C   0  0  0  0  0  0
  -25.9084  -34.9436   23.5092 C   0  0  0  0  0  0
  -16.5361  -29.9076   23.6325 C   0  0  0  0  0  0
  -16.7293  -28.6486   23.0369 C   0  0  0  0  0  0
  -26.4513  -31.6576   25.0719 C   0  0  0  0  0  0
  -25.3714  -31.3774   26.1429 C   0  0  0  0  0  0
  -27.0394  -30.2981   24.6269 C   0  0  0  0  0  0
  -27.6032  -32.4363   25.7496 C   0  0  0  0  0  0
  -27.5592  -37.1784   24.8459 C   0  0  0  0  0  0
  -21.4238  -29.3044   22.3639 N   0  0  0  0  0  0
  -26.4284  -37.3776   23.9430 N   0  0  0  0  0  0
  -24.7020  -31.0496   22.0928 N   0  0  0  0  0  0
  -23.4240  -28.8154   23.3007 O   0  0  0  0  0  0
  -28.3053  -26.3312   20.1532 O   0  0  0  0  0  0
  -26.5662  -34.8924   22.4671 O   0  0  0  0  0  0
  -23.5505  -32.1360   23.7258 O   0  0  0  0  0  0
  -29.5079  -19.1895   19.0820 C   0  0  0  0  0  0
  -29.6893  -17.7392   19.1319 C   0  0  0  0  0  0
  -29.3246  -19.8403   20.2845 C   0  0  0  0  0  0
  -29.7329  -17.1917   20.4105 C   0  0  0  0  0  0
  -29.0555  -22.4130   19.5295 C   0  0  0  0  0  0
  -29.0228  -21.3245   20.6156 C   0  0  0  0  0  0
  -28.7202  -23.7751   19.4340 C   0  0  0  0  0  0
  -28.9595  -24.4346   18.0848 C   0  0  0  0  0  0
  -30.5237  -17.4979   16.7213 C   0  0  0  0  0  0
  -29.7077  -16.9022   17.8746 C   0  0  0  0  0  0
  -28.1018  -24.8490   20.4355 C   0  0  0  0  0  0
  -29.7589  -15.8372   20.8060 N   0  0  0  0  0  0
  -28.7639  -21.6343   21.7815 O   0  0  0  0  0  0
  -29.4551  -18.5690   21.5396 S   0  0  0  0  0  0
  -31.4796  -12.5931   19.1877 H   0  0  0  0  0  0
  -30.3936  -11.4691   19.9502 H   0  0  0  0  0  0
  -29.8024  -11.7573   17.5179 H   0  0  0  0  0  0
  -29.6543  -13.4842   17.7451 H   0  0  0  0  0  0
  -27.8832  -11.2983   18.8854 H   0  0  0  0  0  0
  -27.3927  -12.5655   17.7916 H   0  0  0  0  0  0
  -27.6483  -14.2618   19.4974 H   0  0  0  0  0  0
  -28.7225  -12.1185   21.3959 H   0  0  0  0  0  0
  -28.4182  -13.7778   21.8297 H   0  0  0  0  0  0
  -25.2764   -9.5706   22.4764 H   0  0  0  0  0  0
  -24.0038   -7.4621   22.7434 H   0  0  0  0  0  0
  -21.0859   -8.8774   19.8936 H   0  0  0  0  0  0
  -22.3699  -10.9679   19.6170 H   0  0  0  0  0  0
  -21.2002   -7.6140   23.9737 H   0  0  0  0  0  0
  -21.1491   -6.0504   25.9091 H   0  0  0  0  0  0
  -22.0596   -2.7610   23.2833 H   0  0  0  0  0  0
  -22.4056  -11.9841   22.4862 H   0  0  0  0  0  0
  -21.1090  -13.1217   22.2620 H   0  0  0  0  0  0
  -24.6576  -15.8476   20.5316 H   0  0  0  0  0  0
  -26.2787  -15.6355   20.1037 H   0  0  0  0  0  0
  -26.7270  -32.5355   23.1059 H   0  0  0  0  0  0
  -25.0136  -33.9678   25.0390 H   0  0  0  0  0  0
  -22.7291  -31.3017   21.3948 H   0  0  0  0  0  0
  -23.3775  -35.9581   23.3258 H   0  0  0  0  0  0
  -24.3576  -36.8941   22.2063 H   0  0  0  0  0  0
  -23.7197  -37.6443   23.6689 H   0  0  0  0  0  0
  -26.1363  -31.5172   20.6167 H   0  0  0  0  0  0
  -26.8564  -30.7935   22.0182 H   0  0  0  0  0  0
  -28.1197  -28.9053   21.1956 H   0  0  0  0  0  0
  -25.9521  -25.8788   19.0145 H   0  0  0  0  0  0
  -23.9646  -27.2934   19.0055 H   0  0  0  0  0  0
  -23.7728  -30.5846   19.3987 H   0  0  0  0  0  0
  -22.7616  -29.2479   19.8534 H   0  0  0  0  0  0
  -25.1284  -36.1919   25.0822 H   0  0  0  0  0  0
  -21.0046  -28.3297   24.1383 H   0  0  0  0  0  0
  -20.5743  -26.2331   23.3630 H   0  0  0  0  0  0
  -21.6648  -26.7451   22.1169 H   0  0  0  0  0  0
  -19.6903  -25.6284   21.1262 H   0  0  0  0  0  0
  -19.6659  -27.3190   20.6781 H   0  0  0  0  0  0
  -17.4221  -26.6734   21.4031 H   0  0  0  0  0  0
  -18.0288  -26.0043   22.9015 H   0  0  0  0  0  0
  -19.7932  -30.7308   24.2252 H   0  0  0  0  0  0
  -17.4994  -31.6258   24.5168 H   0  0  0  0  0  0
  -15.5344  -30.2973   23.7625 H   0  0  0  0  0  0
  -15.8700  -28.0792   22.7086 H   0  0  0  0  0  0
  -24.5813  -30.7236   25.7734 H   0  0  0  0  0  0
  -24.8988  -32.2980   26.4867 H   0  0  0  0  0  0
  -25.7968  -30.8881   27.0195 H   0  0  0  0  0  0
  -26.3025  -29.6697   24.1263 H   0  0  0  0  0  0
  -27.4035  -29.7278   25.4824 H   0  0  0  0  0  0
  -27.8901  -30.4231   23.9568 H   0  0  0  0  0  0
  -27.2578  -33.3636   26.2072 H   0  0  0  0  0  0
  -28.3810  -32.6994   25.0322 H   0  0  0  0  0  0
  -28.0739  -31.8520   26.5407 H   0  0  0  0  0  0
  -28.2574  -38.0117   24.7587 H   0  0  0  0  0  0
  -28.1125  -36.2666   24.6177 H   0  0  0  0  0  0
  -27.2342  -37.1306   25.8866 H   0  0  0  0  0  0
  -20.9453  -29.8745   21.6801 H   0  0  0  0  0  0
  -26.0162  -38.2855   24.1439 H   0  0  0  0  0  0
  -29.4577  -19.7088   18.1363 H   0  0  0  0  0  0
  -29.4408  -21.9945   18.6131 H   0  0  0  0  0  0
  -29.4212  -23.7660   17.3572 H   0  0  0  0  0  0
  -29.6242  -25.2894   18.2016 H   0  0  0  0  0  0
  -28.0194  -24.7905   17.6617 H   0  0  0  0  0  0
  -30.4897  -16.8372   15.8531 H   0  0  0  0  0  0
  -31.5681  -17.6203   17.0034 H   0  0  0  0  0  0
  -30.1403  -18.4643   16.4006 H   0  0  0  0  0  0
  -28.6830  -16.7415   17.5379 H   0  0  0  0  0  0
  -30.0966  -15.9069   18.0680 H   0  0  0  0  0  0
  -28.4839  -24.6391   21.4330 H   0  0  0  0  0  0
  -27.0374  -24.6299   20.4926 H   0  0  0  0  0  0
  -28.9481  -15.5532   21.3359 H   0  0  0  0  0  0
  1 25  1  0  0  0
  1 30  2  0  0  0
  1 82  1  0  0  0
  2  3  1  0  0  0
  2 25  1  0  0  0
  2 85  1  0  0  0
  2 86  1  0  0  0
  3  4  1  0  0  0
  3 87  1  0  0  0
  3 88  1  0  0  0
  4  5  1  0  0  0
  4 89  1  0  0  0
  4 90  1  0  0  0
  5  6  1  0  0  0
  5 26  1  0  0  0
  5 91  1  0  0  0
  6 25  1  0  0  0
  6 92  1  0  0  0
  6 93  1  0  0  0
  7  8  2  0  0  0
  7 26  1  0  0  0
  7 29  1  0  0  0
  8  9  1  0  0  0
  8 22  1  0  0  0
  9 10  1  0  0  0
  9 27  2  0  0  0
 10 11  2  0  0  0
 10 15  1  0  0  0
 11 12  1  0  0  0
 11 94  1  0  0  0
 12 13  2  0  0  0
 12 95  1  0  0  0
 13 14  1  0  0  0
 13 31  1  0  0  0
 14 15  2  0  0  0
 14 96  1  0  0  0
 15 97  1  0  0  0
 16 17  2  0  0  0
 16 21  1  0  0  0
 16 31  1  0  0  0
 17 18  1  0  0  0
 17 98  1  0  0  0
 18 19  2  0  0  0
 18 99  1  0  0  0
 19 20  1  0  0  0
 19 24  1  0  0  0
 20 21  2  0  0  0
 20100  1  0  0  0
 21 23  1  0  0  0
 22 28  1  0  0  0
 22 32  2  0  0  0
 26 27  1  0  0  0
 28101  1  0  0  0
 28102  1  0  0  0
 29103  1  0  0  0
 29104  1  0  0  0
 33 34  1  0  0  0
 33 66  1  0  0  0
 33 70  2  0  0  0
 34 36  1  0  0  0
 34 59  1  0  0  0
 34105  1  0  0  0
 35 44  2  0  0  0
 35 45  1  0  0  0
 35 68  1  0  0  0
 36 56  1  0  0  0
 36106  1  0  0  0
 37 39  1  0  0  0
 37 47  1  0  0  0
 37 66  1  0  0  0
 37107  1  0  0  0
 38 43  2  0  0  0
 38 46  1  0  0  0
 38 47  1  0  0  0
 39 64  1  0  0  0
 39 67  2  0  0  0
 40 52  1  0  0  0
 40 53  2  0  0  0
 40 58  1  0  0  0
 41108  1  0  0  0
 41109  1  0  0  0
 41110  1  0  0  0
 41 48  1  0  0  0
 42 43  1  0  0  0
 42 66  1  0  0  0
 42111  1  0  0  0
 42112  1  0  0  0
 43 44  1  0  0  0
 44113  1  0  0  0
 45 46  2  0  0  0
 45114  1  0  0  0
 46115  1  0  0  0
 47116  1  0  0  0
 47117  1  0  0  0
 48 56  1  0  0  0
 48 65  1  0  0  0
 48118  1  0  0  0
 49 50  1  0  0  0
 49 53  1  0  0  0
 49 64  1  0  0  0
 49119  1  0  0  0
 50 51  1  0  0  0
 50120  1  0  0  0
 50121  1  0  0  0
 51 52  1  0  0  0
 51122  1  0  0  0
 51123  1  0  0  0
 52124  1  0  0  0
 52125  1  0  0  0
 53 54  1  0  0  0
 54 55  2  0  0  0
 54126  1  0  0  0
 55 57  1  0  0  0
 55127  1  0  0  0
 56 69  2  0  0  0
 57 58  2  0  0  0
 57128  1  0  0  0
 58129  1  0  0  0
 59 60  1  0  0  0
 59 61  1  0  0  0
 59 62  1  0  0  0
 60130  1  0  0  0
 60131  1  0  0  0
 60132  1  0  0  0
 61133  1  0  0  0
 61134  1  0  0  0
 61135  1  0  0  0
 62136  1  0  0  0
 62137  1  0  0  0
 62138  1  0  0  0
 63 65  1  0  0  0
 63139  1  0  0  0
 63140  1  0  0  0
 63141  1  0  0  0
 64142  1  0  0  0
 65143  1  0  0  0
 68 81  1  0  0  0
 71 72  1  0  0  0
 71 73  2  0  0  0
 71144  1  0  0  0
 72 74  2  0  0  0
 72 80  1  0  0  0
 73 76  1  0  0  0
 73 84  1  0  0  0
 74 82  1  0  0  0
 74 84  1  0  0  0
 75 76  1  0  0  0
 75 77  2  0  0  0
 75145  1  0  0  0
 76 83  2  0  0  0
 77 78  1  0  0  0
 77 81  1  0  0  0
 78146  1  0  0  0
 78147  1  0  0  0
 78148  1  0  0  0
 79 80  1  0  0  0
 79149  1  0  0  0
 79150  1  0  0  0
 79151  1  0  0  0
 80152  1  0  0  0
 80153  1  0  0  0
 81154  1  0  0  0
 81155  1  0  0  0
 82156  1  0  0  0
M  ISO  4   1 100  68 101  81 101  82 100
M  END
> <chiral flag>
0

> <version>
0

> <s_m_source_file>
/data/baiqing/PycharmProjects/Reinvent-master-3.2/result/LINK_invent/BTK/process_docking_weight1_custom_product_contain_oxygen_bond_distance_aromatic_linkinvent_7_9_3/rearranged_h_0123.sdf

> <i_m_source_file_index>
52

> <r_mmod_Potential_Energy-OPLS-2005>
189.653823852539

> <r_mmod_Stretch_Energy-OPLS-2005>
128.745300292969

> <r_mmod_Bend_Energy-OPLS-2005>
205.113067626953

> <r_mmod_Torsional_Energy-OPLS-2005>
241.730865478516

> <r_mmod_Improper_Torsional_Energy-OPLS-2005>
4.68984317779541

> <r_mmod_Van_der_Waal_Energy-OPLS-2005>
113.123252868652

> <r_mmod_Electrostatic_Energy-OPLS-2005>
-381.807373046875

> <r_mmod_Solvation_Energy-OPLS-2005>
-215.443176269531

> <b_mmod_Minimization_Converged-OPLS-2005>
0

> <r_mmod_RMS_Derivative-OPLS-2005>
3.92183136940002

$$$$
52
                    3D
 Structure written by MMmdl.
163171  0  0  1  0            999 V2000
  -30.6660  -14.6275   20.5051 C   0  0  0  0  0  0
  -30.4347  -12.3888   19.4500 C   0  0  0  0  0  0
  -29.5057  -12.5193   18.2235 C   0  0  0  0  0  0
  -28.0300  -12.3560   18.6370 C   0  0  0  0  0  0
  -27.6550  -13.2243   19.8664 C   0  0  2  0  0  0
  -28.7047  -13.0836   20.9932 C   0  0  0  0  0  0
  -25.2567  -13.8183   20.5727 C   0  0  0  0  0  0
  -24.1831  -13.0438   20.9203 C   0  0  0  0  0  0
  -24.6393  -11.6913   20.8728 C   0  0  0  0  0  0
  -23.9055  -10.4291   21.0388 C   0  0  0  0  0  0
  -24.3614   -9.4198   21.9172 C   0  0  0  0  0  0
  -23.6292   -8.2231   22.0743 C   0  0  0  0  0  0
  -22.4274   -8.0267   21.3529 C   0  0  0  0  0  0
  -21.9898   -9.0238   20.4635 C   0  0  0  0  0  0
  -22.7228  -10.2125   20.3041 C   0  0  0  0  0  0
  -21.6846   -6.0724   22.5280 C   0  0  0  0  0  0
  -21.4010   -6.5632   23.8211 C   0  0  0  0  0  0
  -21.3663   -5.6779   24.9171 C   0  0  0  0  0  0
  -21.6055   -4.3045   24.7216 C   0  0  0  0  0  0
  -21.8817   -3.8139   23.4334 C   0  0  0  0  0  0
  -21.9191   -4.6952   22.3398 C   0  0  0  0  0  0
  -22.7845  -13.5224   21.1865 C   0  0  0  0  0  0
  -22.1662   -4.2145   21.0975 F   0  0  0  0  0  0
  -21.5638   -3.4524   25.7725 F   0  0  0  0  0  0
  -30.0245  -13.4163   20.4286 N   0  0  0  0  0  0
  -26.3003  -12.9380   20.3353 N   0  0  0  0  0  0
  -25.9335  -11.6523   20.5753 N   0  0  0  0  0  0
  -22.0477  -12.8203   22.0407 N   0  0  0  0  0  0
  -25.4259  -15.1907   20.4196 N   0  0  0  0  0  0
  -31.8269  -14.7594   20.1141 O   0  0  0  0  0  0
  -21.6637   -6.8871   21.4239 O   0  0  0  0  0  0
  -22.3530  -14.5523   20.6706 O   0  0  0  0  0  0
  -24.6227  -31.8633   23.2024 C   0  0  0  0  0  0
  -25.9078  -32.4800   23.8358 C   0  0  1  0  0  0
  -27.2434  -27.3538   20.1116 C   0  0  0  0  0  0
  -25.5902  -33.8593   24.2287 N   0  0  0  0  0  0
  -23.4158  -30.4842   21.5460 C   0  0  2  0  0  0
  -24.8657  -28.9426   20.1145 C   0  0  0  0  0  0
  -22.7466  -29.4618   22.4955 C   0  0  0  0  0  0
  -18.0283  -28.1375   22.8510 C   0  0  0  0  0  0
  -24.1487  -36.7284   23.2641 C   0  0  0  0  0  0
  -25.9555  -30.8081   21.3650 C   0  0  0  0  0  0
  -26.0346  -29.4365   20.7080 C   0  0  0  0  0  0
  -27.2246  -28.6556   20.6937 C   0  0  0  0  0  0
  -26.0456  -26.8987   19.5075 C   0  0  0  0  0  0
  -24.8714  -27.6758   19.5101 C   0  0  0  0  0  0
  -23.6275  -29.8132   20.1627 C   0  0  0  0  0  0
  -25.4116  -36.3095   24.0335 C   0  0  1  0  0  0
  -20.5890  -28.3645   23.1324 C   0  0  2  0  0  0
  -20.6765  -26.9369   22.5438 C   0  0  0  0  0  0
  -19.5749  -26.6387   21.5233 C   0  0  0  0  0  0
  -18.1929  -26.7928   22.1636 C   0  0  0  0  0  0
  -19.1542  -28.8829   23.2903 C   0  0  0  0  0  0
  -18.9452  -30.1445   23.8891 C   0  0  0  0  0  0
  -17.6458  -30.6574   24.0571 C   0  0  0  0  0  0
  -25.9049  -34.9468   23.5114 C   0  0  0  0  0  0
  -16.5352  -29.9077   23.6346 C   0  0  0  0  0  0
  -16.7273  -28.6502   23.0357 C   0  0  0  0  0  0
  -26.4485  -31.6597   25.0714 C   0  0  0  0  0  0
  -25.3718  -31.3769   26.1449 C   0  0  0  0  0  0
  -27.0255  -30.3008   24.6110 C   0  0  0  0  0  0
  -27.6095  -32.4291   25.7451 C   0  0  0  0  0  0
  -27.5594  -37.1788   24.8462 C   0  0  0  0  0  0
  -21.4177  -29.3006   22.3706 N   0  0  0  0  0  0
  -26.4296  -37.3785   23.9418 N   0  0  0  0  0  0
  -24.6837  -31.0677   22.0951 N   0  0  0  0  0  0
  -23.4209  -28.8161   23.3013 O   0  0  0  0  0  0
  -28.3912  -26.5490   20.1465 O   0  0  0  0  0  0
  -26.5594  -34.8944   22.4679 O   0  0  0  0  0  0
  -23.5396  -32.1390   23.7382 O   0  0  0  0  0  0
  -29.0627  -19.4217   20.8429 C   0  0  0  0  0  0
  -28.9613  -18.0032   20.8920 C   0  0  0  0  0  0
  -31.3380  -17.8054   20.5830 C   0  0  0  0  0  0
  -30.3053  -20.0798   20.6705 C   0  0  0  0  0  0
  -31.4547  -19.2312   20.5540 C   0  0  0  0  0  0
  -30.0903  -17.1473   20.7613 C   0  0  0  0  0  0
  -31.4803  -25.0354   21.6233 C   0  0  0  0  0  0
  -30.2087  -24.6017   21.5937 C   0  0  0  0  0  0
  -33.3497  -20.1439   19.0565 C   0  0  0  0  0  0
  -30.4325  -21.6480   20.7059 C   0  0  0  0  0  0
  -32.8676  -19.8117   20.4791 C   0  0  0  0  0  0
  -29.1984  -22.5927   20.3924 C   0  0  0  0  0  0
  -28.2293  -25.0896   20.0458 C   0  0  0  0  0  0
  -29.4842  -24.1597   20.3338 C   0  0  1  0  0  0
  -29.8933  -15.6996   20.8648 N   0  0  0  0  0  0
  -31.4783  -12.4987   19.1466 H   0  0  0  0  0  0
  -30.3565  -11.3934   19.8891 H   0  0  0  0  0  0
  -29.7685  -11.7772   17.4687 H   0  0  0  0  0  0
  -29.6468  -13.4947   17.7567 H   0  0  0  0  0  0
  -27.8673  -11.3023   18.8659 H   0  0  0  0  0  0
  -27.3713  -12.5853   17.7989 H   0  0  0  0  0  0
  -27.6711  -14.2598   19.5266 H   0  0  0  0  0  0
  -28.7124  -12.0629   21.3782 H   0  0  0  0  0  0
  -28.4528  -13.7205   21.8425 H   0  0  0  0  0  0
  -25.2755   -9.5688   22.4736 H   0  0  0  0  0  0
  -24.0011   -7.4620   22.7446 H   0  0  0  0  0  0
  -21.0825   -8.8736   19.8944 H   0  0  0  0  0  0
  -22.3663  -10.9645   19.6137 H   0  0  0  0  0  0
  -21.1991   -7.6139   23.9708 H   0  0  0  0  0  0
  -21.1504   -6.0515   25.9082 H   0  0  0  0  0  0
  -22.0592   -2.7600   23.2823 H   0  0  0  0  0  0
  -22.4099  -11.9867   22.4796 H   0  0  0  0  0  0
  -21.1088  -13.1214   22.2595 H   0  0  0  0  0  0
  -24.6581  -15.8444   20.5344 H   0  0  0  0  0  0
  -26.2782  -15.6312   20.0992 H   0  0  0  0  0  0
  -26.7165  -32.5488   23.1127 H   0  0  0  0  0  0
  -25.0055  -33.9743   25.0438 H   0  0  0  0  0  0
  -22.7062  -31.3026   21.4058 H   0  0  0  0  0  0
  -23.3786  -35.9575   23.3278 H   0  0  0  0  0  0
  -24.3600  -36.8909   22.2060 H   0  0  0  0  0  0
  -23.7192  -37.6470   23.6661 H   0  0  0  0  0  0
  -26.0812  -31.5738   20.5978 H   0  0  0  0  0  0
  -26.8376  -30.8585   21.9906 H   0  0  0  0  0  0
  -28.1265  -29.0373   21.1540 H   0  0  0  0  0  0
  -25.9884  -25.9307   19.0339 H   0  0  0  0  0  0
  -23.9733  -27.2863   19.0509 H   0  0  0  0  0  0
  -23.7328  -30.5861   19.4012 H   0  0  0  0  0  0
  -22.7502  -29.2322   19.8707 H   0  0  0  0  0  0
  -25.1308  -36.1950   25.0825 H   0  0  0  0  0  0
  -21.0002  -28.3193   24.1441 H   0  0  0  0  0  0
  -20.5700  -26.2226   23.3618 H   0  0  0  0  0  0
  -21.6626  -26.7406   22.1216 H   0  0  0  0  0  0
  -19.6894  -25.6307   21.1236 H   0  0  0  0  0  0
  -19.6716  -27.3229   20.6792 H   0  0  0  0  0  0
  -17.4219  -26.6718   21.4013 H   0  0  0  0  0  0
  -18.0289  -26.0068   22.9026 H   0  0  0  0  0  0
  -19.7918  -30.7279   24.2250 H   0  0  0  0  0  0
  -17.5005  -31.6255   24.5162 H   0  0  0  0  0  0
  -15.5347  -30.2968   23.7665 H   0  0  0  0  0  0
  -15.8683  -28.0830   22.7038 H   0  0  0  0  0  0
  -24.5851  -30.7168   25.7790 H   0  0  0  0  0  0
  -24.8961  -32.2953   26.4886 H   0  0  0  0  0  0
  -25.8026  -30.8929   27.0216 H   0  0  0  0  0  0
  -26.2760  -29.6806   24.1175 H   0  0  0  0  0  0
  -27.4005  -29.7221   25.4562 H   0  0  0  0  0  0
  -27.8639  -30.4300   23.9259 H   0  0  0  0  0  0
  -27.2813  -33.3689   26.1899 H   0  0  0  0  0  0
  -28.3962  -32.6650   25.0277 H   0  0  0  0  0  0
  -28.0678  -31.8459   26.5444 H   0  0  0  0  0  0
  -28.2599  -38.0098   24.7519 H   0  0  0  0  0  0
  -28.1094  -36.2624   24.6259 H   0  0  0  0  0  0
  -27.2320  -37.1389   25.8865 H   0  0  0  0  0  0
  -20.9340  -29.8718   21.6920 H   0  0  0  0  0  0
  -26.0185  -38.2863   24.1428 H   0  0  0  0  0  0
  -28.1637  -20.0088   20.9737 H   0  0  0  0  0  0
  -27.9823  -17.5704   21.0449 H   0  0  0  0  0  0
  -32.2445  -17.2181   20.5088 H   0  0  0  0  0  0
  -31.9509  -25.3304   22.5502 H   0  0  0  0  0  0
  -32.0769  -25.1033   20.7223 H   0  0  0  0  0  0
  -29.6474  -24.5480   22.5167 H   0  0  0  0  0  0
  -34.4212  -20.3520   19.0642 H   0  0  0  0  0  0
  -32.8563  -21.0245   18.6446 H   0  0  0  0  0  0
  -33.1813  -19.3134   18.3719 H   0  0  0  0  0  0
  -31.2404  -21.9447   20.0354 H   0  0  0  0  0  0
  -30.7907  -21.8915   21.7076 H   0  0  0  0  0  0
  -33.5603  -19.0912   20.9148 H   0  0  0  0  0  0
  -32.9504  -20.6946   21.1139 H   0  0  0  0  0  0
  -28.4280  -22.4115   21.1443 H   0  0  0  0  0  0
  -28.7638  -22.2893   19.4394 H   0  0  0  0  0  0
  -27.4178  -24.7889   20.7093 H   0  0  0  0  0  0
  -27.8959  -24.8602   19.0323 H   0  0  0  0  0  0
  -30.1772  -24.3205   19.5050 H   0  0  0  0  0  0
  -28.9669  -15.4244   21.1494 H   0  0  0  0  0  0
  1 25  1  0  0  0
  1 30  2  0  0  0
  1 85  1  0  0  0
  2  3  1  0  0  0
  2 25  1  0  0  0
  2 86  1  0  0  0
  2 87  1  0  0  0
  3  4  1  0  0  0
  3 88  1  0  0  0
  3 89  1  0  0  0
  4  5  1  0  0  0
  4 90  1  0  0  0
  4 91  1  0  0  0
  5  6  1  0  0  0
  5 26  1  0  0  0
  5 92  1  0  0  0
  6 25  1  0  0  0
  6 93  1  0  0  0
  6 94  1  0  0  0
  7  8  2  0  0  0
  7 26  1  0  0  0
  7 29  1  0  0  0
  8  9  1  0  0  0
  8 22  1  0  0  0
  9 10  1  0  0  0
  9 27  2  0  0  0
 10 11  2  0  0  0
 10 15  1  0  0  0
 11 12  1  0  0  0
 11 95  1  0  0  0
 12 13  2  0  0  0
 12 96  1  0  0  0
 13 14  1  0  0  0
 13 31  1  0  0  0
 14 15  2  0  0  0
 14 97  1  0  0  0
 15 98  1  0  0  0
 16 17  2  0  0  0
 16 21  1  0  0  0
 16 31  1  0  0  0
 17 18  1  0  0  0
 17 99  1  0  0  0
 18 19  2  0  0  0
 18100  1  0  0  0
 19 20  1  0  0  0
 19 24  1  0  0  0
 20 21  2  0  0  0
 20101  1  0  0  0
 21 23  1  0  0  0
 22 28  1  0  0  0
 22 32  2  0  0  0
 26 27  1  0  0  0
 28102  1  0  0  0
 28103  1  0  0  0
 29104  1  0  0  0
 29105  1  0  0  0
 33 34  1  0  0  0
 33 66  1  0  0  0
 33 70  2  0  0  0
 34 36  1  0  0  0
 34 59  1  0  0  0
 34106  1  0  0  0
 35 44  2  0  0  0
 35 45  1  0  0  0
 35 68  1  0  0  0
 36 56  1  0  0  0
 36107  1  0  0  0
 37 39  1  0  0  0
 37 47  1  0  0  0
 37 66  1  0  0  0
 37108  1  0  0  0
 38 43  2  0  0  0
 38 46  1  0  0  0
 38 47  1  0  0  0
 39 64  1  0  0  0
 39 67  2  0  0  0
 40 52  1  0  0  0
 40 53  2  0  0  0
 40 58  1  0  0  0
 41109  1  0  0  0
 41110  1  0  0  0
 41111  1  0  0  0
 41 48  1  0  0  0
 42 43  1  0  0  0
 42 66  1  0  0  0
 42112  1  0  0  0
 42113  1  0  0  0
 43 44  1  0  0  0
 44114  1  0  0  0
 45 46  2  0  0  0
 45115  1  0  0  0
 46116  1  0  0  0
 47117  1  0  0  0
 47118  1  0  0  0
 48 56  1  0  0  0
 48 65  1  0  0  0
 48119  1  0  0  0
 49 50  1  0  0  0
 49 53  1  0  0  0
 49 64  1  0  0  0
 49120  1  0  0  0
 50 51  1  0  0  0
 50121  1  0  0  0
 50122  1  0  0  0
 51 52  1  0  0  0
 51123  1  0  0  0
 51124  1  0  0  0
 52125  1  0  0  0
 52126  1  0  0  0
 53 54  1  0  0  0
 54 55  2  0  0  0
 54127  1  0  0  0
 55 57  1  0  0  0
 55128  1  0  0  0
 56 69  2  0  0  0
 57 58  2  0  0  0
 57129  1  0  0  0
 58130  1  0  0  0
 59 60  1  0  0  0
 59 61  1  0  0  0
 59 62  1  0  0  0
 60131  1  0  0  0
 60132  1  0  0  0
 60133  1  0  0  0
 61134  1  0  0  0
 61135  1  0  0  0
 61136  1  0  0  0
 62137  1  0  0  0
 62138  1  0  0  0
 62139  1  0  0  0
 63 65  1  0  0  0
 63140  1  0  0  0
 63141  1  0  0  0
 63142  1  0  0  0
 64143  1  0  0  0
 65144  1  0  0  0
 68 83  1  0  0  0
 71 72  2  0  0  0
 71 74  1  0  0  0
 71145  1  0  0  0
 72 76  1  0  0  0
 72146  1  0  0  0
 73 75  1  0  0  0
 73 76  2  0  0  0
 73147  1  0  0  0
 74 75  2  0  0  0
 74 80  1  0  0  0
 75 81  1  0  0  0
 76 85  1  0  0  0
 77 78  2  0  0  0
 77148  1  0  0  0
 77149  1  0  0  0
 78 84  1  0  0  0
 78150  1  0  0  0
 79 81  1  0  0  0
 79151  1  0  0  0
 79152  1  0  0  0
 79153  1  0  0  0
 80 82  1  0  0  0
 80154  1  0  0  0
 80155  1  0  0  0
 81156  1  0  0  0
 81157  1  0  0  0
 82158  1  0  0  0
 82159  1  0  0  0
 82 84  1  0  0  0
 83 84  1  0  0  0
 83160  1  0  0  0
 83161  1  0  0  0
 84162  1  0  0  0
 85163  1  0  0  0
M  ISO  4   1 100  68 101  83 101  85 100
M  END
> <chiral flag>
0

> <version>
0

> <s_m_source_file>
/data/baiqing/PycharmProjects/Reinvent-master-3.2/result/LINK_invent/BTK/process_docking_weight1_custom_product_contain_oxygen_bond_distance_aromatic_linkinvent_7_9_3/rearranged_h_0123.sdf

> <i_m_source_file_index>
53

> <r_mmod_Potential_Energy-OPLS-2005>
39.3407859802246

> <r_mmod_Stretch_Energy-OPLS-2005>
76.4430694580078

> <r_mmod_Bend_Energy-OPLS-2005>
133.689025878906

> <r_mmod_Torsional_Energy-OPLS-2005>
210.803482055664

> <r_mmod_Improper_Torsional_Energy-OPLS-2005>
4.41350793838501

> <r_mmod_Van_der_Waal_Energy-OPLS-2005>
140.946853637695

> <r_mmod_Electrostatic_Energy-OPLS-2005>
-367.104431152344

> <r_mmod_Solvation_Energy-OPLS-2005>
-198.210998535156

> <b_mmod_Minimization_Converged-OPLS-2005>
0

> <r_mmod_RMS_Derivative-OPLS-2005>
3.45084023475647

$$$$
53
                    3D
 Structure written by MMmdl.
157165  0  0  1  0            999 V2000
  -30.6439  -14.6522   20.4822 C   0  0  0  0  0  0
  -30.4434  -12.3966   19.4502 C   0  0  0  0  0  0
  -29.5131  -12.5090   18.2227 C   0  0  0  0  0  0
  -28.0335  -12.3443   18.6317 C   0  0  0  0  0  0
  -27.6535  -13.2141   19.8584 C   0  0  2  0  0  0
  -28.7063  -13.0914   20.9852 C   0  0  0  0  0  0
  -25.2514  -13.8078   20.5703 C   0  0  0  0  0  0
  -24.1806  -13.0349   20.9231 C   0  0  0  0  0  0
  -24.6403  -11.6845   20.8786 C   0  0  0  0  0  0
  -23.9056  -10.4244   21.0432 C   0  0  0  0  0  0
  -24.3597   -9.4151   21.9204 C   0  0  0  0  0  0
  -23.6270   -8.2194   22.0749 C   0  0  0  0  0  0
  -22.4253   -8.0260   21.3542 C   0  0  0  0  0  0
  -21.9903   -9.0223   20.4628 C   0  0  0  0  0  0
  -22.7243  -10.2096   20.3056 C   0  0  0  0  0  0
  -21.6819   -6.0730   22.5295 C   0  0  0  0  0  0
  -21.3990   -6.5637   23.8237 C   0  0  0  0  0  0
  -21.3668   -5.6788   24.9191 C   0  0  0  0  0  0
  -21.6040   -4.3049   24.7251 C   0  0  0  0  0  0
  -21.8823   -3.8145   23.4358 C   0  0  0  0  0  0
  -21.9183   -4.6961   22.3423 C   0  0  0  0  0  0
  -22.7825  -13.5147   21.1871 C   0  0  0  0  0  0
  -22.1660   -4.2142   21.1000 F   0  0  0  0  0  0
  -21.5625   -3.4533   25.7762 F   0  0  0  0  0  0
  -30.0230  -13.4290   20.4171 N   0  0  0  0  0  0
  -26.2989  -12.9303   20.3310 N   0  0  0  0  0  0
  -25.9344  -11.6459   20.5782 N   0  0  0  0  0  0
  -22.0428  -12.8177   22.0423 N   0  0  0  0  0  0
  -25.4047  -15.1785   20.4117 N   0  0  0  0  0  0
  -31.8175  -14.7966   20.1314 O   0  0  0  0  0  0
  -21.6602   -6.8873   21.4260 O   0  0  0  0  0  0
  -22.3543  -14.5467   20.6723 O   0  0  0  0  0  0
  -24.6274  -31.8604   23.2036 C   0  0  0  0  0  0
  -25.9125  -32.4771   23.8375 C   0  0  1  0  0  0
  -27.2349  -27.3242   20.1086 C   0  0  0  0  0  0
  -25.5974  -33.8578   24.2312 N   0  0  0  0  0  0
  -23.4212  -30.4816   21.5465 C   0  0  2  0  0  0
  -24.8703  -28.9391   20.1126 C   0  0  0  0  0  0
  -22.7485  -29.4625   22.4966 C   0  0  0  0  0  0
  -18.0272  -28.1380   22.8481 C   0  0  0  0  0  0
  -24.1491  -36.7260   23.2644 C   0  0  0  0  0  0
  -25.9639  -30.7892   21.3774 C   0  0  0  0  0  0
  -26.0391  -29.4183   20.7165 C   0  0  0  0  0  0
  -27.2234  -28.6223   20.7071 C   0  0  0  0  0  0
  -26.0377  -26.8988   19.4831 C   0  0  0  0  0  0
  -24.8717  -27.6846   19.4872 C   0  0  0  0  0  0
  -23.6356  -29.8147   20.1635 C   0  0  0  0  0  0
  -25.4123  -36.3077   24.0344 C   0  0  1  0  0  0
  -20.5874  -28.3693   23.1282 C   0  0  2  0  0  0
  -20.6766  -26.9418   22.5409 C   0  0  0  0  0  0
  -19.5746  -26.6373   21.5211 C   0  0  0  0  0  0
  -18.1914  -26.7938   22.1601 C   0  0  0  0  0  0
  -19.1521  -28.8862   23.2868 C   0  0  0  0  0  0
  -18.9444  -30.1460   23.8880 C   0  0  0  0  0  0
  -17.6444  -30.6599   24.0542 C   0  0  0  0  0  0
  -25.9073  -34.9446   23.5115 C   0  0  0  0  0  0
  -16.5331  -29.9082   23.6347 C   0  0  0  0  0  0
  -16.7256  -28.6491   23.0388 C   0  0  0  0  0  0
  -26.4521  -31.6578   25.0749 C   0  0  0  0  0  0
  -25.3752  -31.3673   26.1466 C   0  0  0  0  0  0
  -27.0372  -30.3010   24.6199 C   0  0  0  0  0  0
  -27.6099  -32.4308   25.7508 C   0  0  0  0  0  0
  -27.5586  -37.1780   24.8466 C   0  0  0  0  0  0
  -21.4203  -29.3041   22.3699 N   0  0  0  0  0  0
  -26.4289  -37.3782   23.9431 N   0  0  0  0  0  0
  -24.6888  -31.0609   22.0990 N   0  0  0  0  0  0
  -23.4215  -28.8165   23.3049 O   0  0  0  0  0  0
  -28.3581  -26.4796   20.1542 O   0  0  0  0  0  0
  -26.5613  -34.8911   22.4662 O   0  0  0  0  0  0
  -23.5439  -32.1416   23.7367 O   0  0  0  0  0  0
  -29.1029  -19.3675   19.8047 C   0  0  0  0  0  0
  -31.0341  -19.3250   21.2294 C   0  0  0  0  0  0
  -29.0569  -17.9390   19.8266 C   0  0  0  0  0  0
  -30.0771  -20.1047   20.5207 C   0  0  0  0  0  0
  -30.0015  -17.1631   20.5718 C   0  0  0  0  0  0
  -31.0031  -17.8971   21.2621 C   0  0  0  0  0  0
  -29.2731  -24.0255   20.2951 C   0  0  0  0  0  0
  -28.4374  -16.6724   17.7045 C   0  0  0  0  0  0
  -27.9496  -17.2598   19.0368 C   0  0  0  0  0  0
  -29.0286  -22.4680   20.1215 C   0  0  0  0  0  0
  -28.1340  -25.0383   19.8845 C   0  0  0  0  0  0
  -29.8227  -15.7162   20.7372 N   0  0  0  0  0  0
  -30.1246  -21.5399   20.5492 N   0  0  0  0  0  0
  -30.3488  -24.4296   20.7522 O   0  0  0  0  0  0
  -31.9125  -17.2386   22.0230 F   0  0  0  0  0  0
  -31.4838  -12.5219   19.1449 H   0  0  0  0  0  0
  -30.3787  -11.4028   19.8968 H   0  0  0  0  0  0
  -29.7819  -11.7590   17.4771 H   0  0  0  0  0  0
  -29.6536  -13.4784   17.7427 H   0  0  0  0  0  0
  -27.8654  -11.2910   18.8590 H   0  0  0  0  0  0
  -27.3807  -12.5793   17.7897 H   0  0  0  0  0  0
  -27.6615  -14.2422   19.5033 H   0  0  0  0  0  0
  -28.7222  -12.0783   21.3882 H   0  0  0  0  0  0
  -28.4552  -13.7436   21.8224 H   0  0  0  0  0  0
  -25.2728   -9.5615   22.4813 H   0  0  0  0  0  0
  -23.9951   -7.4554   22.7455 H   0  0  0  0  0  0
  -21.0840   -8.8751   19.8931 H   0  0  0  0  0  0
  -22.3704  -10.9640   19.6179 H   0  0  0  0  0  0
  -21.1973   -7.6145   23.9748 H   0  0  0  0  0  0
  -21.1492   -6.0512   25.9107 H   0  0  0  0  0  0
  -22.0601   -2.7612   23.2859 H   0  0  0  0  0  0
  -22.3981  -11.9816   22.4819 H   0  0  0  0  0  0
  -21.1073  -13.1286   22.2633 H   0  0  0  0  0  0
  -24.6162  -15.8086   20.5057 H   0  0  0  0  0  0
  -26.2126  -15.6156   19.9940 H   0  0  0  0  0  0
  -26.7198  -32.5439   23.1127 H   0  0  0  0  0  0
  -25.0210  -33.9733   25.0522 H   0  0  0  0  0  0
  -22.7149  -31.3023   21.4032 H   0  0  0  0  0  0
  -23.3788  -35.9551   23.3285 H   0  0  0  0  0  0
  -24.3593  -36.8897   22.2059 H   0  0  0  0  0  0
  -23.7189  -37.6438   23.6669 H   0  0  0  0  0  0
  -26.1039  -31.5545   20.6123 H   0  0  0  0  0  0
  -26.8408  -30.8317   22.0125 H   0  0  0  0  0  0
  -28.1185  -28.9869   21.1920 H   0  0  0  0  0  0
  -25.9673  -25.9416   18.9870 H   0  0  0  0  0  0
  -23.9776  -27.3129   19.0069 H   0  0  0  0  0  0
  -23.7459  -30.5874   19.4016 H   0  0  0  0  0  0
  -22.7591  -29.2343   19.8696 H   0  0  0  0  0  0
  -25.1301  -36.1924   25.0835 H   0  0  0  0  0  0
  -20.9940  -28.3228   24.1413 H   0  0  0  0  0  0
  -20.5675  -26.2292   23.3597 H   0  0  0  0  0  0
  -21.6626  -26.7458   22.1178 H   0  0  0  0  0  0
  -19.6896  -25.6271   21.1270 H   0  0  0  0  0  0
  -19.6697  -27.3154   20.6719 H   0  0  0  0  0  0
  -17.4204  -26.6718   21.3975 H   0  0  0  0  0  0
  -18.0271  -26.0064   22.8971 H   0  0  0  0  0  0
  -19.7925  -30.7273   24.2235 H   0  0  0  0  0  0
  -17.5011  -31.6296   24.5105 H   0  0  0  0  0  0
  -15.5331  -30.2979   23.7702 H   0  0  0  0  0  0
  -15.8650  -28.0794   22.7154 H   0  0  0  0  0  0
  -24.5960  -30.7001   25.7760 H   0  0  0  0  0  0
  -24.8898  -32.2803   26.4930 H   0  0  0  0  0  0
  -25.8090  -30.8825   27.0221 H   0  0  0  0  0  0
  -26.2931  -29.6736   24.1284 H   0  0  0  0  0  0
  -27.4127  -29.7310   25.4705 H   0  0  0  0  0  0
  -27.8785  -30.4301   23.9388 H   0  0  0  0  0  0
  -27.2753  -33.3640   26.2052 H   0  0  0  0  0  0
  -28.3930  -32.6809   25.0334 H   0  0  0  0  0  0
  -28.0749  -31.8442   26.5443 H   0  0  0  0  0  0
  -28.2572  -38.0111   24.7600 H   0  0  0  0  0  0
  -28.1117  -36.2657   24.6203 H   0  0  0  0  0  0
  -27.2317  -37.1296   25.8866 H   0  0  0  0  0  0
  -20.9390  -29.8772   21.6908 H   0  0  0  0  0  0
  -26.0170  -38.2848   24.1471 H   0  0  0  0  0  0
  -28.3607  -19.9020   19.2283 H   0  0  0  0  0  0
  -31.8058  -19.8206   21.8005 H   0  0  0  0  0  0
  -27.6253  -16.1688   17.1777 H   0  0  0  0  0  0
  -29.2324  -15.9425   17.8568 H   0  0  0  0  0  0
  -28.8231  -17.4493   17.0435 H   0  0  0  0  0  0
  -27.1344  -17.9621   18.8518 H   0  0  0  0  0  0
  -27.5219  -16.4830   19.6599 H   0  0  0  0  0  0
  -28.8038  -22.2828   19.0707 H   0  0  0  0  0  0
  -28.1264  -22.2144   20.6784 H   0  0  0  0  0  0
  -27.2348  -24.7123   20.4085 H   0  0  0  0  0  0
  -27.9495  -24.9071   18.8175 H   0  0  0  0  0  0
  -28.8729  -15.4334   20.9139 H   0  0  0  0  0  0
  -30.8764  -21.9957   21.0642 H   0  0  0  0  0  0
  1 25  1  0  0  0
  1 30  2  0  0  0
  1 82  1  0  0  0
  2  3  1  0  0  0
  2 25  1  0  0  0
  2 86  1  0  0  0
  2 87  1  0  0  0
  3  4  1  0  0  0
  3 88  1  0  0  0
  3 89  1  0  0  0
  4  5  1  0  0  0
  4 90  1  0  0  0
  4 91  1  0  0  0
  5  6  1  0  0  0
  5 26  1  0  0  0
  5 92  1  0  0  0
  6 25  1  0  0  0
  6 93  1  0  0  0
  6 94  1  0  0  0
  7  8  2  0  0  0
  7 26  1  0  0  0
  7 29  1  0  0  0
  8  9  1  0  0  0
  8 22  1  0  0  0
  9 10  1  0  0  0
  9 27  2  0  0  0
 10 11  2  0  0  0
 10 15  1  0  0  0
 11 12  1  0  0  0
 11 95  1  0  0  0
 12 13  2  0  0  0
 12 96  1  0  0  0
 13 14  1  0  0  0
 13 31  1  0  0  0
 14 15  2  0  0  0
 14 97  1  0  0  0
 15 98  1  0  0  0
 16 17  2  0  0  0
 16 21  1  0  0  0
 16 31  1  0  0  0
 17 18  1  0  0  0
 17 99  1  0  0  0
 18 19  2  0  0  0
 18100  1  0  0  0
 19 20  1  0  0  0
 19 24  1  0  0  0
 20 21  2  0  0  0
 20101  1  0  0  0
 21 23  1  0  0  0
 22 28  1  0  0  0
 22 32  2  0  0  0
 26 27  1  0  0  0
 28102  1  0  0  0
 28103  1  0  0  0
 29104  1  0  0  0
 29105  1  0  0  0
 33 34  1  0  0  0
 33 66  1  0  0  0
 33 70  2  0  0  0
 34 36  1  0  0  0
 34 59  1  0  0  0
 34106  1  0  0  0
 35 44  2  0  0  0
 35 45  1  0  0  0
 35 68  1  0  0  0
 36 56  1  0  0  0
 36107  1  0  0  0
 37 39  1  0  0  0
 37 47  1  0  0  0
 37 66  1  0  0  0
 37108  1  0  0  0
 38 43  2  0  0  0
 38 46  1  0  0  0
 38 47  1  0  0  0
 39 64  1  0  0  0
 39 67  2  0  0  0
 40 52  1  0  0  0
 40 53  2  0  0  0
 40 58  1  0  0  0
 41109  1  0  0  0
 41110  1  0  0  0
 41111  1  0  0  0
 41 48  1  0  0  0
 42 43  1  0  0  0
 42 66  1  0  0  0
 42112  1  0  0  0
 42113  1  0  0  0
 43 44  1  0  0  0
 44114  1  0  0  0
 45 46  2  0  0  0
 45115  1  0  0  0
 46116  1  0  0  0
 47117  1  0  0  0
 47118  1  0  0  0
 48 56  1  0  0  0
 48 65  1  0  0  0
 48119  1  0  0  0
 49 50  1  0  0  0
 49 53  1  0  0  0
 49 64  1  0  0  0
 49120  1  0  0  0
 50 51  1  0  0  0
 50121  1  0  0  0
 50122  1  0  0  0
 51 52  1  0  0  0
 51123  1  0  0  0
 51124  1  0  0  0
 52125  1  0  0  0
 52126  1  0  0  0
 53 54  1  0  0  0
 54 55  2  0  0  0
 54127  1  0  0  0
 55 57  1  0  0  0
 55128  1  0  0  0
 56 69  2  0  0  0
 57 58  2  0  0  0
 57129  1  0  0  0
 58130  1  0  0  0
 59 60  1  0  0  0
 59 61  1  0  0  0
 59 62  1  0  0  0
 60131  1  0  0  0
 60132  1  0  0  0
 60133  1  0  0  0
 61134  1  0  0  0
 61135  1  0  0  0
 61136  1  0  0  0
 62137  1  0  0  0
 62138  1  0  0  0
 62139  1  0  0  0
 63 65  1  0  0  0
 63140  1  0  0  0
 63141  1  0  0  0
 63142  1  0  0  0
 64143  1  0  0  0
 65144  1  0  0  0
 68 81  1  0  0  0
 71 73  2  0  0  0
 71 74  1  0  0  0
 71145  1  0  0  0
 72 74  2  0  0  0
 72 76  1  0  0  0
 72146  1  0  0  0
 73 75  1  0  0  0
 73 79  1  0  0  0
 74 83  1  0  0  0
 75 76  2  0  0  0
 75 82  1  0  0  0
 76 85  1  0  0  0
 77 80  1  0  0  0
 77 81  1  0  0  0
 77 84  2  0  0  0
 78 79  1  0  0  0
 78147  1  0  0  0
 78148  1  0  0  0
 78149  1  0  0  0
 79150  1  0  0  0
 79151  1  0  0  0
 80 83  1  0  0  0
 80152  1  0  0  0
 80153  1  0  0  0
 81154  1  0  0  0
 81155  1  0  0  0
 82156  1  0  0  0
 83157  1  0  0  0
M  ISO  4   1 100  68 101  81 101  82 100
M  END
> <chiral flag>
0

> <version>
0

> <s_m_source_file>
/data/baiqing/PycharmProjects/Reinvent-master-3.2/result/LINK_invent/BTK/process_docking_weight1_custom_product_contain_oxygen_bond_distance_aromatic_linkinvent_7_9_3/rearranged_h_0123.sdf

> <i_m_source_file_index>
54

> <r_mmod_Potential_Energy-OPLS-2005>
38.3770065307617

> <r_mmod_Stretch_Energy-OPLS-2005>
79.7979507446289

> <r_mmod_Bend_Energy-OPLS-2005>
137.070831298828

> <r_mmod_Torsional_Energy-OPLS-2005>
219.756896972656

> <r_mmod_Improper_Torsional_Energy-OPLS-2005>
7.07080364227295

> <r_mmod_Van_der_Waal_Energy-OPLS-2005>
135.553863525391

> <r_mmod_Electrostatic_Energy-OPLS-2005>
-343.574371337891

> <r_mmod_Solvation_Energy-OPLS-2005>
-247.087661743164

> <b_mmod_Minimization_Converged-OPLS-2005>
0

> <r_mmod_RMS_Derivative-OPLS-2005>
2.39901280403137

$$$$
54
                    3D
 Structure written by MMmdl.
161169  0  0  1  0            999 V2000
  -30.7407  -14.3942   20.5452 C   0  0  0  0  0  0
  -30.4087  -12.2493   19.4133 C   0  0  0  0  0  0
  -29.4914  -12.4946   18.1981 C   0  0  0  0  0  0
  -28.0075  -12.3782   18.6017 C   0  0  0  0  0  0
  -27.6588  -13.2079   19.8660 C   0  0  2  0  0  0
  -28.7007  -12.9877   20.9845 C   0  0  0  0  0  0
  -25.2579  -13.8168   20.5646 C   0  0  0  0  0  0
  -24.1826  -13.0438   20.9152 C   0  0  0  0  0  0
  -24.6377  -11.6907   20.8701 C   0  0  0  0  0  0
  -23.9038  -10.4288   21.0368 C   0  0  0  0  0  0
  -24.3591   -9.4218   21.9160 C   0  0  0  0  0  0
  -23.6273   -8.2249   22.0743 C   0  0  0  0  0  0
  -22.4262   -8.0271   21.3532 C   0  0  0  0  0  0
  -21.9886   -9.0239   20.4637 C   0  0  0  0  0  0
  -22.7205  -10.2121   20.3030 C   0  0  0  0  0  0
  -21.6855   -6.0709   22.5265 C   0  0  0  0  0  0
  -21.4012   -6.5622   23.8191 C   0  0  0  0  0  0
  -21.3661   -5.6781   24.9164 C   0  0  0  0  0  0
  -21.6050   -4.3043   24.7219 C   0  0  0  0  0  0
  -21.8825   -3.8127   23.4346 C   0  0  0  0  0  0
  -21.9197   -4.6938   22.3397 C   0  0  0  0  0  0
  -22.7856  -13.5235   21.1831 C   0  0  0  0  0  0
  -22.1668   -4.2118   21.0975 F   0  0  0  0  0  0
  -21.5634   -3.4533   25.7736 F   0  0  0  0  0  0
  -30.0433  -13.2353   20.4359 N   0  0  0  0  0  0
  -26.3008  -12.9334   20.3319 N   0  0  0  0  0  0
  -25.9304  -11.6489   20.5719 N   0  0  0  0  0  0
  -22.0506  -12.8217   22.0391 N   0  0  0  0  0  0
  -25.4317  -15.1873   20.4031 N   0  0  0  0  0  0
  -31.9110  -14.4930   20.1669 O   0  0  0  0  0  0
  -21.6647   -6.8854   21.4224 O   0  0  0  0  0  0
  -22.3533  -14.5534   20.6685 O   0  0  0  0  0  0
  -24.6092  -31.8732   23.2187 C   0  0  0  0  0  0
  -25.9014  -32.4851   23.8444 C   0  0  1  0  0  0
  -27.2288  -27.5052   20.0781 C   0  0  0  0  0  0
  -25.5907  -33.8650   24.2376 N   0  0  0  0  0  0
  -23.3904  -30.5018   21.5559 C   0  0  2  0  0  0
  -24.8349  -28.9779   20.1161 C   0  0  0  0  0  0
  -22.7351  -29.4701   22.5008 C   0  0  0  0  0  0
  -18.0263  -28.1362   22.8492 C   0  0  0  0  0  0
  -24.1486  -36.7344   23.2643 C   0  0  0  0  0  0
  -25.9131  -30.8602   21.3611 C   0  0  0  0  0  0
  -25.9914  -29.5005   20.7086 C   0  0  0  0  0  0
  -27.1941  -28.7697   20.6910 C   0  0  0  0  0  0
  -26.0603  -26.9793   19.4876 C   0  0  0  0  0  0
  -24.8599  -27.7117   19.5069 C   0  0  0  0  0  0
  -23.5946  -29.8379   20.1683 C   0  0  0  0  0  0
  -25.4104  -36.3139   24.0352 C   0  0  1  0  0  0
  -20.5849  -28.3645   23.1324 C   0  0  2  0  0  0
  -20.6755  -26.9384   22.5414 C   0  0  0  0  0  0
  -19.5736  -26.6372   21.5206 C   0  0  0  0  0  0
  -18.1913  -26.7918   22.1616 C   0  0  0  0  0  0
  -19.1512  -28.8818   23.2913 C   0  0  0  0  0  0
  -18.9446  -30.1431   23.8908 C   0  0  0  0  0  0
  -17.6454  -30.6579   24.0558 C   0  0  0  0  0  0
  -25.9022  -34.9498   23.5152 C   0  0  0  0  0  0
  -16.5341  -29.9084   23.6329 C   0  0  0  0  0  0
  -16.7257  -28.6496   23.0344 C   0  0  0  0  0  0
  -26.4475  -31.6602   25.0743 C   0  0  0  0  0  0
  -25.3773  -31.3666   26.1507 C   0  0  0  0  0  0
  -27.0309  -30.3064   24.6077 C   0  0  0  0  0  0
  -27.6057  -32.4301   25.7514 C   0  0  0  0  0  0
  -27.5581  -37.1837   24.8464 C   0  0  0  0  0  0
  -21.4088  -29.3029   22.3729 N   0  0  0  0  0  0
  -26.4294  -37.3809   23.9407 N   0  0  0  0  0  0
  -24.6555  -31.0907   22.1052 N   0  0  0  0  0  0
  -23.4152  -28.8237   23.3021 O   0  0  0  0  0  0
  -28.3963  -26.7965   20.0574 O   0  0  0  0  0  0
  -26.5560  -34.8938   22.4697 O   0  0  0  0  0  0
  -23.5312  -32.1440   23.7641 O   0  0  0  0  0  0
  -28.2431  -17.9849   20.5481 C   0  0  0  0  0  0
  -27.7755  -19.3101   20.5689 C   0  0  0  0  0  0
  -29.5794  -19.9602   19.0667 C   0  0  0  0  0  0
  -29.3719  -17.6366   19.7766 C   0  0  0  0  0  0
  -30.0467  -18.6359   19.0237 C   0  0  0  0  0  0
  -28.4381  -20.3031   19.8239 C   0  0  0  0  0  0
  -29.8693  -16.2566   19.7869 C   0  0  0  0  0  0
  -28.2272  -22.6667   19.1203 C   0  0  0  0  0  0
  -32.5625  -18.1852   19.0530 C   0  0  0  0  0  0
  -31.3011  -18.3566   18.1943 C   0  0  0  0  0  0
  -27.8374  -24.0262   19.6601 C   0  0  0  0  0  0
  -28.8953  -24.5495   20.6475 C   0  0  0  0  0  0
  -28.5417  -25.9362   21.1771 C   0  0  0  0  0  0
  -29.9722  -15.5077   20.8159 N   0  0  0  0  0  0
  -27.9741  -21.6331   19.9335 N   0  0  0  0  0  0
  -28.7078  -22.5766   17.9883 O   0  0  0  0  0  0
  -31.4566  -12.3117   19.1130 H   0  0  0  0  0  0
  -30.2723  -11.2387   19.8019 H   0  0  0  0  0  0
  -29.7170  -11.7819   17.4036 H   0  0  0  0  0  0
  -29.6837  -13.4846   17.7806 H   0  0  0  0  0  0
  -27.7914  -11.3251   18.7787 H   0  0  0  0  0  0
  -27.3708  -12.6848   17.7706 H   0  0  0  0  0  0
  -27.6994  -14.2556   19.5718 H   0  0  0  0  0  0
  -28.6471  -11.9649   21.3611 H   0  0  0  0  0  0
  -28.4894  -13.6311   21.8400 H   0  0  0  0  0  0
  -25.2731   -9.5714   22.4733 H   0  0  0  0  0  0
  -23.9983   -7.4652   22.7474 H   0  0  0  0  0  0
  -21.0812   -8.8742   19.8956 H   0  0  0  0  0  0
  -22.3643  -10.9645   19.6132 H   0  0  0  0  0  0
  -21.1999   -7.6130   23.9676 H   0  0  0  0  0  0
  -21.1482   -6.0520   25.9060 H   0  0  0  0  0  0
  -22.0606   -2.7588   23.2851 H   0  0  0  0  0  0
  -22.4124  -11.9885   22.4786 H   0  0  0  0  0  0
  -21.1130  -13.1244   22.2599 H   0  0  0  0  0  0
  -24.6700  -15.8502   20.4978 H   0  0  0  0  0  0
  -26.2928  -15.6119   20.0837 H   0  0  0  0  0  0
  -26.7076  -32.5594   23.1211 H   0  0  0  0  0  0
  -25.0094  -33.9819   25.0546 H   0  0  0  0  0  0
  -22.6765  -31.3168   21.4225 H   0  0  0  0  0  0
  -23.3736  -35.9691   23.3327 H   0  0  0  0  0  0
  -24.3569  -36.8936   22.2050 H   0  0  0  0  0  0
  -23.7263  -37.6575   23.6635 H   0  0  0  0  0  0
  -26.0132  -31.6300   20.5946 H   0  0  0  0  0  0
  -26.8054  -30.9134   21.9731 H   0  0  0  0  0  0
  -28.0920  -29.1738   21.1377 H   0  0  0  0  0  0
  -26.0607  -26.0132   19.0091 H   0  0  0  0  0  0
  -23.9700  -27.3018   19.0497 H   0  0  0  0  0  0
  -23.6974  -30.6157   19.4106 H   0  0  0  0  0  0
  -22.7182  -29.2576   19.8726 H   0  0  0  0  0  0
  -25.1281  -36.2025   25.0851 H   0  0  0  0  0  0
  -20.9948  -28.3210   24.1443 H   0  0  0  0  0  0
  -20.5649  -26.2252   23.3598 H   0  0  0  0  0  0
  -21.6625  -26.7431   22.1199 H   0  0  0  0  0  0
  -19.6903  -25.6289   21.1219 H   0  0  0  0  0  0
  -19.6691  -27.3183   20.6736 H   0  0  0  0  0  0
  -17.4192  -26.6680   21.4006 H   0  0  0  0  0  0
  -18.0304  -26.0047   22.8996 H   0  0  0  0  0  0
  -19.7933  -30.7232   24.2266 H   0  0  0  0  0  0
  -17.5025  -31.6259   24.5153 H   0  0  0  0  0  0
  -15.5344  -30.2986   23.7656 H   0  0  0  0  0  0
  -15.8659  -28.0823   22.7048 H   0  0  0  0  0  0
  -24.5948  -30.7006   25.7853 H   0  0  0  0  0  0
  -24.8960  -32.2799   26.5015 H   0  0  0  0  0  0
  -25.8160  -30.8810   27.0233 H   0  0  0  0  0  0
  -26.2827  -29.6812   24.1190 H   0  0  0  0  0  0
  -27.4147  -29.7328   25.4526 H   0  0  0  0  0  0
  -27.8637  -30.4386   23.9162 H   0  0  0  0  0  0
  -27.2666  -33.3573   26.2142 H   0  0  0  0  0  0
  -28.3866  -32.6883   25.0350 H   0  0  0  0  0  0
  -28.0727  -31.8388   26.5403 H   0  0  0  0  0  0
  -28.2602  -38.0127   24.7501 H   0  0  0  0  0  0
  -28.1066  -36.2656   24.6301 H   0  0  0  0  0  0
  -27.2295  -37.1518   25.8866 H   0  0  0  0  0  0
  -20.9223  -29.8742   21.6963 H   0  0  0  0  0  0
  -26.0202  -38.2902   24.1398 H   0  0  0  0  0  0
  -27.7291  -17.2348   21.1328 H   0  0  0  0  0  0
  -26.9106  -19.5575   21.1685 H   0  0  0  0  0  0
  -30.1346  -20.7137   18.5275 H   0  0  0  0  0  0
  -30.2141  -15.9212   18.8006 H   0  0  0  0  0  0
  -33.4411  -18.0284   18.4265 H   0  0  0  0  0  0
  -32.4882  -17.3293   19.7223 H   0  0  0  0  0  0
  -32.7462  -19.0696   19.6643 H   0  0  0  0  0  0
  -31.4632  -19.1856   17.5031 H   0  0  0  0  0  0
  -31.1529  -17.4871   17.5533 H   0  0  0  0  0  0
  -26.8505  -23.9821   20.1238 H   0  0  0  0  0  0
  -27.7617  -24.6984   18.8060 H   0  0  0  0  0  0
  -29.8724  -24.5884   20.1631 H   0  0  0  0  0  0
  -28.9945  -23.8637   21.4907 H   0  0  0  0  0  0
  -29.3373  -26.3145   21.8192 H   0  0  0  0  0  0
  -27.6387  -25.8776   21.7910 H   0  0  0  0  0  0
  -27.4377  -21.8483   20.7624 H   0  0  0  0  0  0
  1 25  1  0  0  0
  1 30  2  0  0  0
  1 84  1  0  0  0
  2  3  1  0  0  0
  2 25  1  0  0  0
  2 87  1  0  0  0
  2 88  1  0  0  0
  3  4  1  0  0  0
  3 89  1  0  0  0
  3 90  1  0  0  0
  4  5  1  0  0  0
  4 91  1  0  0  0
  4 92  1  0  0  0
  5  6  1  0  0  0
  5 26  1  0  0  0
  5 93  1  0  0  0
  6 25  1  0  0  0
  6 94  1  0  0  0
  6 95  1  0  0  0
  7  8  2  0  0  0
  7 26  1  0  0  0
  7 29  1  0  0  0
  8  9  1  0  0  0
  8 22  1  0  0  0
  9 10  1  0  0  0
  9 27  2  0  0  0
 10 11  2  0  0  0
 10 15  1  0  0  0
 11 12  1  0  0  0
 11 96  1  0  0  0
 12 13  2  0  0  0
 12 97  1  0  0  0
 13 14  1  0  0  0
 13 31  1  0  0  0
 14 15  2  0  0  0
 14 98  1  0  0  0
 15 99  1  0  0  0
 16 17  2  0  0  0
 16 21  1  0  0  0
 16 31  1  0  0  0
 17 18  1  0  0  0
 17100  1  0  0  0
 18 19  2  0  0  0
 18101  1  0  0  0
 19 20  1  0  0  0
 19 24  1  0  0  0
 20 21  2  0  0  0
 20102  1  0  0  0
 21 23  1  0  0  0
 22 28  1  0  0  0
 22 32  2  0  0  0
 26 27  1  0  0  0
 28103  1  0  0  0
 28104  1  0  0  0
 29105  1  0  0  0
 29106  1  0  0  0
 33 34  1  0  0  0
 33 66  1  0  0  0
 33 70  2  0  0  0
 34 36  1  0  0  0
 34 59  1  0  0  0
 34107  1  0  0  0
 35 44  2  0  0  0
 35 45  1  0  0  0
 35 68  1  0  0  0
 36 56  1  0  0  0
 36108  1  0  0  0
 37 39  1  0  0  0
 37 47  1  0  0  0
 37 66  1  0  0  0
 37109  1  0  0  0
 38 43  2  0  0  0
 38 46  1  0  0  0
 38 47  1  0  0  0
 39 64  1  0  0  0
 39 67  2  0  0  0
 40 52  1  0  0  0
 40 53  2  0  0  0
 40 58  1  0  0  0
 41110  1  0  0  0
 41111  1  0  0  0
 41112  1  0  0  0
 41 48  1  0  0  0
 42 43  1  0  0  0
 42 66  1  0  0  0
 42113  1  0  0  0
 42114  1  0  0  0
 43 44  1  0  0  0
 44115  1  0  0  0
 45 46  2  0  0  0
 45116  1  0  0  0
 46117  1  0  0  0
 47118  1  0  0  0
 47119  1  0  0  0
 48 56  1  0  0  0
 48 65  1  0  0  0
 48120  1  0  0  0
 49 50  1  0  0  0
 49 53  1  0  0  0
 49 64  1  0  0  0
 49121  1  0  0  0
 50 51  1  0  0  0
 50122  1  0  0  0
 50123  1  0  0  0
 51 52  1  0  0  0
 51124  1  0  0  0
 51125  1  0  0  0
 52126  1  0  0  0
 52127  1  0  0  0
 53 54  1  0  0  0
 54 55  2  0  0  0
 54128  1  0  0  0
 55 57  1  0  0  0
 55129  1  0  0  0
 56 69  2  0  0  0
 57 58  2  0  0  0
 57130  1  0  0  0
 58131  1  0  0  0
 59 60  1  0  0  0
 59 61  1  0  0  0
 59 62  1  0  0  0
 60132  1  0  0  0
 60133  1  0  0  0
 60134  1  0  0  0
 61135  1  0  0  0
 61136  1  0  0  0
 61137  1  0  0  0
 62138  1  0  0  0
 62139  1  0  0  0
 62140  1  0  0  0
 63 65  1  0  0  0
 63141  1  0  0  0
 63142  1  0  0  0
 63143  1  0  0  0
 64144  1  0  0  0
 65145  1  0  0  0
 68 83  1  0  0  0
 71 72  2  0  0  0
 71 74  1  0  0  0
 71146  1  0  0  0
 72 76  1  0  0  0
 72147  1  0  0  0
 73 75  1  0  0  0
 73 76  2  0  0  0
 73148  1  0  0  0
 74 75  2  0  0  0
 74 77  1  0  0  0
 75 80  1  0  0  0
 76 85  1  0  0  0
 77 84  2  0  0  0
 77149  1  0  0  0
 78 81  1  0  0  0
 78 85  1  0  0  0
 78 86  2  0  0  0
 79 80  1  0  0  0
 79150  1  0  0  0
 79151  1  0  0  0
 79152  1  0  0  0
 80153  1  0  0  0
 80154  1  0  0  0
 81 82  1  0  0  0
 81155  1  0  0  0
 81156  1  0  0  0
 82 83  1  0  0  0
 82157  1  0  0  0
 82158  1  0  0  0
 83159  1  0  0  0
 83160  1  0  0  0
 85161  1  0  0  0
M  ISO  4   1 100  68 101  83 101  84 100
M  END
> <chiral flag>
0

> <version>
0

> <s_m_source_file>
/data/baiqing/PycharmProjects/Reinvent-master-3.2/result/LINK_invent/BTK/process_docking_weight1_custom_product_contain_oxygen_bond_distance_aromatic_linkinvent_7_9_3/rearranged_h_0123.sdf

> <i_m_source_file_index>
55

> <r_mmod_Potential_Energy-OPLS-2005>
-49.5101203918457

> <r_mmod_Stretch_Energy-OPLS-2005>
30.5101757049561

> <r_mmod_Bend_Energy-OPLS-2005>
88.1905975341797

> <r_mmod_Torsional_Energy-OPLS-2005>
241.853790283203

> <r_mmod_Improper_Torsional_Energy-OPLS-2005>
7.85892057418823

> <r_mmod_Van_der_Waal_Energy-OPLS-2005>
173.440765380859

> <r_mmod_Electrostatic_Energy-OPLS-2005>
-402.554840087891

> <r_mmod_Solvation_Energy-OPLS-2005>
-203.456420898438

> <b_mmod_Minimization_Converged-OPLS-2005>
0

> <r_mmod_RMS_Derivative-OPLS-2005>
1.82629406452179

$$$$
55
                    3D
 Structure written by MMmdl.
162170  0  0  1  0            999 V2000
  -30.7907  -14.3530   20.6964 C   0  0  0  0  0  0
  -30.4147  -12.2976   19.3812 C   0  0  0  0  0  0
  -29.4767  -12.5313   18.1844 C   0  0  0  0  0  0
  -28.0038  -12.3851   18.6075 C   0  0  0  0  0  0
  -27.6657  -13.2061   19.8784 C   0  0  2  0  0  0
  -28.7073  -12.9524   20.9897 C   0  0  0  0  0  0
  -25.2604  -13.8165   20.5678 C   0  0  0  0  0  0
  -24.1850  -13.0443   20.9161 C   0  0  0  0  0  0
  -24.6400  -11.6906   20.8730 C   0  0  0  0  0  0
  -23.9064  -10.4295   21.0401 C   0  0  0  0  0  0
  -24.3613   -9.4211   21.9182 C   0  0  0  0  0  0
  -23.6291   -8.2249   22.0756 C   0  0  0  0  0  0
  -22.4278   -8.0286   21.3542 C   0  0  0  0  0  0
  -21.9915   -9.0255   20.4641 C   0  0  0  0  0  0
  -22.7237  -10.2136   20.3048 C   0  0  0  0  0  0
  -21.6852   -6.0737   22.5277 C   0  0  0  0  0  0
  -21.4010   -6.5638   23.8212 C   0  0  0  0  0  0
  -21.3659   -5.6794   24.9175 C   0  0  0  0  0  0
  -21.6045   -4.3059   24.7220 C   0  0  0  0  0  0
  -21.8824   -3.8149   23.4342 C   0  0  0  0  0  0
  -21.9191   -4.6967   22.3402 C   0  0  0  0  0  0
  -22.7870  -13.5237   21.1831 C   0  0  0  0  0  0
  -22.1666   -4.2150   21.0981 F   0  0  0  0  0  0
  -21.5631   -3.4543   25.7731 F   0  0  0  0  0  0
  -30.0498  -13.2415   20.4481 N   0  0  0  0  0  0
  -26.3054  -12.9338   20.3398 N   0  0  0  0  0  0
  -25.9324  -11.6492   20.5755 N   0  0  0  0  0  0
  -22.0515  -12.8217   22.0382 N   0  0  0  0  0  0
  -25.4322  -15.1883   20.4079 N   0  0  0  0  0  0
  -31.8010  -14.6548   20.0555 O   0  0  0  0  0  0
  -21.6642   -6.8883   21.4238 O   0  0  0  0  0  0
  -22.3558  -14.5549   20.6693 O   0  0  0  0  0  0
  -24.6108  -31.8685   23.2128 C   0  0  0  0  0  0
  -25.9020  -32.4822   23.8408 C   0  0  1  0  0  0
  -27.2426  -27.4576   20.0751 C   0  0  0  0  0  0
  -25.5884  -33.8623   24.2328 N   0  0  0  0  0  0
  -23.3976  -30.4918   21.5522 C   0  0  2  0  0  0
  -24.8434  -28.9573   20.1177 C   0  0  0  0  0  0
  -22.7385  -29.4655   22.5008 C   0  0  0  0  0  0
  -18.0261  -28.1381   22.8489 C   0  0  0  0  0  0
  -24.1476  -36.7311   23.2629 C   0  0  0  0  0  0
  -25.9242  -30.8357   21.3650 C   0  0  0  0  0  0
  -26.0000  -29.4705   20.7157 C   0  0  0  0  0  0
  -27.1968  -28.7221   20.7025 C   0  0  0  0  0  0
  -26.0594  -26.9436   19.4936 C   0  0  0  0  0  0
  -24.8646  -27.6890   19.5111 C   0  0  0  0  0  0
  -23.6048  -29.8225   20.1672 C   0  0  0  0  0  0
  -25.4087  -36.3109   24.0343 C   0  0  1  0  0  0
  -20.5845  -28.3650   23.1348 C   0  0  2  0  0  0
  -20.6741  -26.9385   22.5447 C   0  0  0  0  0  0
  -19.5740  -26.6388   21.5215 C   0  0  0  0  0  0
  -18.1902  -26.7940   22.1596 C   0  0  0  0  0  0
  -19.1509  -28.8834   23.2913 C   0  0  0  0  0  0
  -18.9432  -30.1435   23.8927 C   0  0  0  0  0  0
  -17.6437  -30.6588   24.0566 C   0  0  0  0  0  0
  -25.9038  -34.9481   23.5139 C   0  0  0  0  0  0
  -16.5327  -29.9090   23.6321 C   0  0  0  0  0  0
  -16.7250  -28.6505   23.0345 C   0  0  0  0  0  0
  -26.4458  -31.6597   25.0728 C   0  0  0  0  0  0
  -25.3733  -31.3690   26.1484 C   0  0  0  0  0  0
  -27.0270  -30.3034   24.6098 C   0  0  0  0  0  0
  -27.6050  -32.4309   25.7477 C   0  0  0  0  0  0
  -27.5627  -37.1726   24.8396 C   0  0  0  0  0  0
  -21.4114  -29.3019   22.3749 N   0  0  0  0  0  0
  -26.4234  -37.3837   23.9503 N   0  0  0  0  0  0
  -24.6623  -31.0799   22.1018 N   0  0  0  0  0  0
  -23.4171  -28.8204   23.3047 O   0  0  0  0  0  0
  -28.4468  -26.7848   20.0621 O   0  0  0  0  0  0
  -26.5613  -34.8941   22.4708 O   0  0  0  0  0  0
  -23.5306  -32.1437   23.7533 O   0  0  0  0  0  0
  -31.5484  -18.3864   21.3864 C   0  0  0  0  0  0
  -31.2393  -19.7313   21.1159 C   0  0  0  0  0  0
  -29.0807  -19.4260   22.1858 C   0  0  0  0  0  0
  -29.3809  -18.0729   22.4892 C   0  0  0  0  0  0
  -30.6443  -17.5472   22.0761 C   0  0  0  0  0  0
  -29.9981  -20.2641   21.5220 C   0  0  0  0  0  0
  -28.3458  -17.2742   23.2304 C   0  0  0  0  0  0
  -30.0659  -22.5261   20.4583 C   0  0  0  0  0  0
  -27.3598  -18.0422   24.1045 C   0  0  0  0  0  0
  -31.1317  -16.1379   22.4187 C   0  0  0  0  0  0
  -29.5726  -23.9655   20.6389 C   0  0  0  0  0  0
  -28.5042  -24.3696   19.5974 C   0  0  0  0  0  0
  -28.6851  -25.7991   19.0571 C   0  0  0  0  0  0
  -29.6481  -21.6345   21.3718 N   0  0  0  0  0  0
  -30.4005  -15.0628   21.7586 N   0  0  0  0  0  0
  -28.2401  -16.0466   23.1959 O   0  0  0  0  0  0
  -30.7909  -22.2494   19.4999 O   0  0  0  0  0  0
  -31.4550  -12.4026   19.0689 H   0  0  0  0  0  0
  -30.3164  -11.2750   19.7468 H   0  0  0  0  0  0
  -29.7027  -11.8273   17.3823 H   0  0  0  0  0  0
  -29.6451  -13.5282   17.7725 H   0  0  0  0  0  0
  -27.8102  -11.3267   18.7853 H   0  0  0  0  0  0
  -27.3478  -12.6808   17.7879 H   0  0  0  0  0  0
  -27.7227  -14.2599   19.6043 H   0  0  0  0  0  0
  -28.6708  -11.9115   21.3117 H   0  0  0  0  0  0
  -28.4525  -13.5362   21.8742 H   0  0  0  0  0  0
  -25.2757   -9.5694   22.4755 H   0  0  0  0  0  0
  -23.9998   -7.4650   22.7482 H   0  0  0  0  0  0
  -21.0852   -8.8776   19.8943 H   0  0  0  0  0  0
  -22.3699  -10.9678   19.6162 H   0  0  0  0  0  0
  -21.2003   -7.6152   23.9708 H   0  0  0  0  0  0
  -21.1478   -6.0529   25.9076 H   0  0  0  0  0  0
  -22.0601   -2.7607   23.2844 H   0  0  0  0  0  0
  -22.4134  -11.9864   22.4739 H   0  0  0  0  0  0
  -21.1131  -13.1229   22.2589 H   0  0  0  0  0  0
  -24.6697  -15.8475   20.5177 H   0  0  0  0  0  0
  -26.2979  -15.6255   20.1173 H   0  0  0  0  0  0
  -26.7088  -32.5558   23.1173 H   0  0  0  0  0  0
  -24.9976  -33.9790   25.0430 H   0  0  0  0  0  0
  -22.6849  -31.3072   21.4142 H   0  0  0  0  0  0
  -23.3821  -35.9541   23.3063 H   0  0  0  0  0  0
  -24.3637  -36.9176   22.2098 H   0  0  0  0  0  0
  -23.7076  -37.6375   23.6800 H   0  0  0  0  0  0
  -26.0347  -31.6009   20.5951 H   0  0  0  0  0  0
  -26.8132  -30.8903   21.9814 H   0  0  0  0  0  0
  -28.0932  -29.1195   21.1593 H   0  0  0  0  0  0
  -26.0400  -25.9697   19.0267 H   0  0  0  0  0  0
  -23.9717  -27.2837   19.0544 H   0  0  0  0  0  0
  -23.7098  -30.5966   19.4063 H   0  0  0  0  0  0
  -22.7286  -29.2400   19.8753 H   0  0  0  0  0  0
  -25.1210  -36.1938   25.0816 H   0  0  0  0  0  0
  -20.9928  -28.3221   24.1472 H   0  0  0  0  0  0
  -20.5609  -26.2259   23.3629 H   0  0  0  0  0  0
  -21.6620  -26.7412   22.1273 H   0  0  0  0  0  0
  -19.6897  -25.6303   21.1237 H   0  0  0  0  0  0
  -19.6712  -27.3198   20.6757 H   0  0  0  0  0  0
  -17.4197  -26.6736   21.3964 H   0  0  0  0  0  0
  -18.0241  -26.0059   22.8958 H   0  0  0  0  0  0
  -19.7909  -30.7229   24.2331 H   0  0  0  0  0  0
  -17.4996  -31.6273   24.5154 H   0  0  0  0  0  0
  -15.5324  -30.2997   23.7634 H   0  0  0  0  0  0
  -15.8653  -28.0832   22.7048 H   0  0  0  0  0  0
  -24.5966  -30.6953   25.7843 H   0  0  0  0  0  0
  -24.8853  -32.2833   26.4875 H   0  0  0  0  0  0
  -25.8129  -30.8942   27.0269 H   0  0  0  0  0  0
  -26.2795  -29.6802   24.1175 H   0  0  0  0  0  0
  -27.4042  -29.7270   25.4555 H   0  0  0  0  0  0
  -27.8639  -30.4329   23.9233 H   0  0  0  0  0  0
  -27.2679  -33.3610   26.2070 H   0  0  0  0  0  0
  -28.3845  -32.6860   25.0281 H   0  0  0  0  0  0
  -28.0724  -31.8412   26.5372 H   0  0  0  0  0  0
  -28.2385  -38.0272   24.7850 H   0  0  0  0  0  0
  -28.1377  -36.2859   24.5676 H   0  0  0  0  0  0
  -27.2450  -37.0712   25.8788 H   0  0  0  0  0  0
  -20.9265  -29.8757   21.6989 H   0  0  0  0  0  0
  -26.0106  -38.2838   24.1793 H   0  0  0  0  0  0
  -32.5167  -18.0094   21.0852 H   0  0  0  0  0  0
  -31.9802  -20.3452   20.6241 H   0  0  0  0  0  0
  -28.1288  -19.8497   22.4741 H   0  0  0  0  0  0
  -27.8334  -18.9206   24.5404 H   0  0  0  0  0  0
  -27.0066  -17.4109   24.9195 H   0  0  0  0  0  0
  -26.5005  -18.3561   23.5136 H   0  0  0  0  0  0
  -31.0411  -15.9952   23.4961 H   0  0  0  0  0  0
  -32.2004  -16.0464   22.2140 H   0  0  0  0  0  0
  -30.4496  -24.6083   20.5470 H   0  0  0  0  0  0
  -29.1974  -24.1264   21.6509 H   0  0  0  0  0  0
  -27.5100  -24.2505   20.0296 H   0  0  0  0  0  0
  -28.5362  -23.6882   18.7449 H   0  0  0  0  0  0
  -28.0750  -25.9565   18.1675 H   0  0  0  0  0  0
  -29.7105  -25.9252   18.7102 H   0  0  0  0  0  0
  -28.9711  -21.9882   22.0329 H   0  0  0  0  0  0
  -29.5387  -14.7857   22.2088 H   0  0  0  0  0  0
  1 25  1  0  0  0
  1 30  2  0  0  0
  1 85  1  0  0  0
  2  3  1  0  0  0
  2 25  1  0  0  0
  2 88  1  0  0  0
  2 89  1  0  0  0
  3  4  1  0  0  0
  3 90  1  0  0  0
  3 91  1  0  0  0
  4  5  1  0  0  0
  4 92  1  0  0  0
  4 93  1  0  0  0
  5  6  1  0  0  0
  5 26  1  0  0  0
  5 94  1  0  0  0
  6 25  1  0  0  0
  6 95  1  0  0  0
  6 96  1  0  0  0
  7  8  2  0  0  0
  7 26  1  0  0  0
  7 29  1  0  0  0
  8  9  1  0  0  0
  8 22  1  0  0  0
  9 10  1  0  0  0
  9 27  2  0  0  0
 10 11  2  0  0  0
 10 15  1  0  0  0
 11 12  1  0  0  0
 11 97  1  0  0  0
 12 13  2  0  0  0
 12 98  1  0  0  0
 13 14  1  0  0  0
 13 31  1  0  0  0
 14 15  2  0  0  0
 14 99  1  0  0  0
 15100  1  0  0  0
 16 17  2  0  0  0
 16 21  1  0  0  0
 16 31  1  0  0  0
 17 18  1  0  0  0
 17101  1  0  0  0
 18 19  2  0  0  0
 18102  1  0  0  0
 19 20  1  0  0  0
 19 24  1  0  0  0
 20 21  2  0  0  0
 20103  1  0  0  0
 21 23  1  0  0  0
 22 28  1  0  0  0
 22 32  2  0  0  0
 26 27  1  0  0  0
 28104  1  0  0  0
 28105  1  0  0  0
 29106  1  0  0  0
 29107  1  0  0  0
 33 34  1  0  0  0
 33 66  1  0  0  0
 33 70  2  0  0  0
 34 36  1  0  0  0
 34 59  1  0  0  0
 34108  1  0  0  0
 35 44  2  0  0  0
 35 45  1  0  0  0
 35 68  1  0  0  0
 36 56  1  0  0  0
 36109  1  0  0  0
 37 39  1  0  0  0
 37 47  1  0  0  0
 37 66  1  0  0  0
 37110  1  0  0  0
 38 43  2  0  0  0
 38 46  1  0  0  0
 38 47  1  0  0  0
 39 64  1  0  0  0
 39 67  2  0  0  0
 40 52  1  0  0  0
 40 53  2  0  0  0
 40 58  1  0  0  0
 41111  1  0  0  0
 41112  1  0  0  0
 41113  1  0  0  0
 41 48  1  0  0  0
 42 43  1  0  0  0
 42 66  1  0  0  0
 42114  1  0  0  0
 42115  1  0  0  0
 43 44  1  0  0  0
 44116  1  0  0  0
 45 46  2  0  0  0
 45117  1  0  0  0
 46118  1  0  0  0
 47119  1  0  0  0
 47120  1  0  0  0
 48 56  1  0  0  0
 48 65  1  0  0  0
 48121  1  0  0  0
 49 50  1  0  0  0
 49 53  1  0  0  0
 49 64  1  0  0  0
 49122  1  0  0  0
 50 51  1  0  0  0
 50123  1  0  0  0
 50124  1  0  0  0
 51 52  1  0  0  0
 51125  1  0  0  0
 51126  1  0  0  0
 52127  1  0  0  0
 52128  1  0  0  0
 53 54  1  0  0  0
 54 55  2  0  0  0
 54129  1  0  0  0
 55 57  1  0  0  0
 55130  1  0  0  0
 56 69  2  0  0  0
 57 58  2  0  0  0
 57131  1  0  0  0
 58132  1  0  0  0
 59 60  1  0  0  0
 59 61  1  0  0  0
 59 62  1  0  0  0
 60133  1  0  0  0
 60134  1  0  0  0
 60135  1  0  0  0
 61136  1  0  0  0
 61137  1  0  0  0
 61138  1  0  0  0
 62139  1  0  0  0
 62140  1  0  0  0
 62141  1  0  0  0
 63 65  1  0  0  0
 63142  1  0  0  0
 63143  1  0  0  0
 63144  1  0  0  0
 64145  1  0  0  0
 65146  1  0  0  0
 68 83  1  0  0  0
 71 72  2  0  0  0
 71 75  1  0  0  0
 71147  1  0  0  0
 72 76  1  0  0  0
 72148  1  0  0  0
 73 74  1  0  0  0
 73 76  2  0  0  0
 73149  1  0  0  0
 74 75  2  0  0  0
 74 77  1  0  0  0
 75 80  1  0  0  0
 76 84  1  0  0  0
 77 79  1  0  0  0
 77 86  2  0  0  0
 78 81  1  0  0  0
 78 84  1  0  0  0
 78 87  2  0  0  0
 79150  1  0  0  0
 79151  1  0  0  0
 79152  1  0  0  0
 80 85  1  0  0  0
 80153  1  0  0  0
 80154  1  0  0  0
 81 82  1  0  0  0
 81155  1  0  0  0
 81156  1  0  0  0
 82 83  1  0  0  0
 82157  1  0  0  0
 82158  1  0  0  0
 83159  1  0  0  0
 83160  1  0  0  0
 84161  1  0  0  0
 85162  1  0  0  0
M  ISO  4   1 100  68 101  83 101  85 100
M  END
> <chiral flag>
0

> <version>
0

> <s_m_source_file>
/data/baiqing/PycharmProjects/Reinvent-master-3.2/result/LINK_invent/BTK/process_docking_weight1_custom_product_contain_oxygen_bond_distance_aromatic_linkinvent_7_9_3/rearranged_h_0123.sdf

> <i_m_source_file_index>
56

> <r_mmod_Potential_Energy-OPLS-2005>
-189.739593505859

> <r_mmod_Stretch_Energy-OPLS-2005>
36.0830917358398

> <r_mmod_Bend_Energy-OPLS-2005>
105.286819458008

> <r_mmod_Torsional_Energy-OPLS-2005>
241.702056884766

> <r_mmod_Improper_Torsional_Energy-OPLS-2005>
2.49370145797729

> <r_mmod_Van_der_Waal_Energy-OPLS-2005>
165.652542114258

> <r_mmod_Electrostatic_Energy-OPLS-2005>
-517.086975097656

> <r_mmod_Solvation_Energy-OPLS-2005>
-231.865676879883

> <b_mmod_Minimization_Converged-OPLS-2005>
0

> <r_mmod_RMS_Derivative-OPLS-2005>
1.53214716911316

$$$$
56
                    3D
 Structure written by MMmdl.
155163  0  0  1  0            999 V2000
  -29.7202  -14.4621   19.6647 C   0  0  0  0  0  0
  -30.4698  -12.2187   19.3218 C   0  0  0  0  0  0
  -29.4288  -11.8513   18.2464 C   0  0  0  0  0  0
  -28.0531  -11.4302   18.9801 C   0  0  0  0  0  0
  -27.6581  -12.3228   20.2383 C   0  0  2  0  0  0
  -28.8783  -12.6948   21.0956 C   0  0  0  0  0  0
  -25.0055  -14.6629   20.3257 C   0  0  0  0  0  0
  -24.3605  -14.2852   20.6303 C   0  0  0  0  0  0
  -25.4009  -12.2824   20.9130 C   0  0  0  0  0  0
  -24.6056  -10.6089   21.0642 C   0  0  0  0  0  0
  -24.6046   -9.6669   22.1670 C   0  0  0  0  0  0
  -23.7637   -8.4805   22.3269 C   0  0  0  0  0  0
  -22.6895   -8.1471   21.4459 C   0  0  0  0  0  0
  -22.6127   -8.9857   20.3465 C   0  0  0  0  0  0
  -23.6274   -9.9704   20.1296 C   0  0  0  0  0  0
  -21.7641   -6.1572   22.5367 C   0  0  0  0  0  0
  -21.4445   -6.6065   23.8345 C   0  0  0  0  0  0
  -21.3742   -5.6947   24.9071 C   0  0  0  0  0  0
  -21.6026   -4.3247   24.6869 C   0  0  0  0  0  0
  -21.8772   -3.8608   23.3881 C   0  0  0  0  0  0
  -21.9415   -4.7696   22.3127 C   0  0  0  0  0  0
  -22.7289  -14.7423   20.8152 C   0  0  0  0  0  0
  -22.1741   -4.2932   21.0656 F   0  0  0  0  0  0
  -21.5573   -3.4541   25.7259 F   0  0  0  0  0  0
  -29.8395  -13.2290   20.1748 N   0  0  0  0  0  0
  -26.1380  -12.9429   20.7307 N   0  0  0  0  0  0
  -26.2743  -12.1263   21.6875 N   0  0  0  0  0  0
  -21.7808  -13.9848   21.4849 N   0  0  0  0  0  0
  -25.0350  -15.9759   19.7799 N   0  0  0  0  0  0
  -30.8161  -15.0844   19.6548 O   0  0  0  0  0  0
  -21.8230   -7.0486   21.4848 O   0  0  0  0  0  0
  -22.2365  -15.6003   20.1524 O   0  0  0  0  0  0
  -24.6724  -31.8139   23.1713 C   0  0  0  0  0  0
  -25.9340  -32.4564   23.8215 C   0  0  1  0  0  0
  -26.7546  -26.4665   20.4579 C   0  0  0  0  0  0
  -25.5935  -33.8444   24.2095 N   0  0  0  0  0  0
  -23.4896  -30.4363   21.5220 C   0  0  2  0  0  0
  -24.8889  -28.7792   20.1024 C   0  0  0  0  0  0
  -22.7579  -29.4439   22.4664 C   0  0  0  0  0  0
  -18.0294  -28.1401   22.8423 C   0  0  0  0  0  0
  -24.1428  -36.7180   23.2653 C   0  0  0  0  0  0
  -26.0660  -30.4623   21.4796 C   0  0  0  0  0  0
  -26.0498  -29.0139   20.8439 C   0  0  0  0  0  0
  -27.0060  -27.8719   20.9827 C   0  0  0  0  0  0
  -25.7201  -26.5313   19.5089 C   0  0  0  0  0  0
  -24.7996  -27.5957   19.3638 C   0  0  0  0  0  0
  -23.7394  -29.7837   20.1343 C   0  0  0  0  0  0
  -25.4137  -36.3132   24.0340 C   0  0  1  0  0  0
  -20.5903  -28.3823   23.1064 C   0  0  2  0  0  0
  -20.6782  -26.9503   22.5323 C   0  0  0  0  0  0
  -19.5784  -26.6375   21.5133 C   0  0  0  0  0  0
  -18.1959  -26.7921   22.1547 C   0  0  0  0  0  0
  -19.1552  -28.8926   23.2734 C   0  0  0  0  0  0
  -18.9502  -30.1495   23.8815 C   0  0  0  0  0  0
  -17.6518  -30.6624   24.0552 C   0  0  0  0  0  0
  -25.9137  -34.9442   23.5107 C   0  0  0  0  0  0
  -16.5397  -29.9130   23.6328 C   0  0  0  0  0  0
  -16.7280  -28.6509   23.0390 C   0  0  0  0  0  0
  -26.4530  -31.6589   25.0840 C   0  0  0  0  0  0
  -25.3530  -31.3884   26.1395 C   0  0  0  0  0  0
  -27.0661  -30.2919   24.7055 C   0  0  0  0  0  0
  -27.6054  -32.4446   25.7501 C   0  0  0  0  0  0
  -27.5603  -37.1761   24.8452 C   0  0  0  0  0  0
  -21.4250  -29.3119   22.3367 N   0  0  0  0  0  0
  -26.4296  -37.3888   23.9436 N   0  0  0  0  0  0
  -24.7709  -30.9429   22.1079 N   0  0  0  0  0  0
  -23.3971  -28.7999   23.3034 O   0  0  0  0  0  0
  -27.2848  -25.0333   20.8002 O   0  0  0  0  0  0
  -26.5796  -34.8986   22.4722 O   0  0  0  0  0  0
  -23.5754  -32.1400   23.6533 O   0  0  0  0  0  0
  -27.0634  -14.9877   21.1720 C   0  0  0  0  0  0
  -23.9839  -13.1296   22.3800 C   0  0  0  0  0  0
  -25.1555  -13.1561   18.6353 C   0  0  0  0  0  0
  -25.6846  -14.6165   22.5406 C   0  0  0  0  0  0
  -26.9354  -14.4390   19.2306 C   0  0  0  0  0  0
  -23.4660  -12.4787   19.9521 C   0  0  0  0  0  0
  -25.7112  -16.8452   24.0604 C   0  0  0  0  0  0
  -26.1910  -18.0384   21.8615 C   0  0  0  0  0  0
  -26.3738  -19.5993   21.5502 C   0  0  0  0  0  0
  -25.7900  -16.5196   22.7642 C   0  0  0  0  0  0
  -26.3505  -21.5298   21.7897 C   0  0  0  0  0  0
  -26.5976  -23.3215   20.8107 C   0  0  0  0  0  0
  -28.4663  -14.7216   18.9041 N   0  0  0  0  0  0
  -22.2658  -12.0339   19.4994 F   0  0  0  0  0  0
  -31.3982  -12.5703   18.8670 H   0  0  0  0  0  0
  -30.7446  -11.3316   19.9005 H   0  0  0  0  0  0
  -29.8062  -10.9989   17.6752 H   0  0  0  0  0  0
  -29.2872  -12.6527   17.5149 H   0  0  0  0  0  0
  -28.2717  -10.4603   19.4263 H   0  0  0  0  0  0
  -27.2615  -11.1379   18.2628 H   0  0  0  0  0  0
  -27.7363  -12.5751   19.2509 H   0  0  0  0  0  0
  -29.2750  -11.7950   21.5654 H   0  0  0  0  0  0
  -28.7164  -13.3835   21.9209 H   0  0  0  0  0  0
  -25.2928   -9.8796   22.9692 H   0  0  0  0  0  0
  -23.9198   -7.8597   23.1976 H   0  0  0  0  0  0
  -21.9090   -8.7530   19.5633 H   0  0  0  0  0  0
  -23.6229  -10.3057   19.1039 H   0  0  0  0  0  0
  -21.2682   -7.6587   24.0053 H   0  0  0  0  0  0
  -21.1563   -6.0549   25.8997 H   0  0  0  0  0  0
  -22.0438   -2.8096   23.2037 H   0  0  0  0  0  0
  -22.0347  -13.1435   21.9733 H   0  0  0  0  0  0
  -20.8075  -14.2605   21.4354 H   0  0  0  0  0  0
  -24.1483  -16.4045   19.5380 H   0  0  0  0  0  0
  -25.7747  -16.1569   19.1136 H   0  0  0  0  0  0
  -26.7352  -32.5061   23.0849 H   0  0  0  0  0  0
  -24.9986  -33.9533   25.0196 H   0  0  0  0  0  0
  -22.8364  -31.2926   21.3472 H   0  0  0  0  0  0
  -23.3918  -35.9280   23.3279 H   0  0  0  0  0  0
  -24.3446  -36.8882   22.2071 H   0  0  0  0  0  0
  -23.6871  -37.6223   23.6692 H   0  0  0  0  0  0
  -26.2931  -31.1642   20.6746 H   0  0  0  0  0  0
  -26.9096  -30.5166   22.1515 H   0  0  0  0  0  0
  -27.8495  -27.9960   21.6473 H   0  0  0  0  0  0
  -25.4908  -25.6228   18.9750 H   0  0  0  0  0  0
  -23.9503  -27.4314   18.7114 H   0  0  0  0  0  0
  -23.9737  -30.5639   19.4150 H   0  0  0  0  0  0
  -22.8324  -29.3069   19.7658 H   0  0  0  0  0  0
  -25.1300  -36.2070   25.0845 H   0  0  0  0  0  0
  -21.0020  -28.3499   24.1184 H   0  0  0  0  0  0
  -20.5570  -26.2540   23.3626 H   0  0  0  0  0  0
  -21.6690  -26.7443   22.1244 H   0  0  0  0  0  0
  -19.7026  -25.6246   21.1322 H   0  0  0  0  0  0
  -19.6735  -27.3048   20.6559 H   0  0  0  0  0  0
  -17.4223  -26.6577   21.3987 H   0  0  0  0  0  0
  -18.0446  -26.0055   22.8951 H   0  0  0  0  0  0
  -19.8014  -30.7256   24.2183 H   0  0  0  0  0  0
  -17.5135  -31.6309   24.5168 H   0  0  0  0  0  0
  -15.5423  -30.3070   23.7753 H   0  0  0  0  0  0
  -15.8621  -28.0829   22.7247 H   0  0  0  0  0  0
  -24.5713  -30.7280   25.7581 H   0  0  0  0  0  0
  -24.8682  -32.3096   26.4644 H   0  0  0  0  0  0
  -25.7608  -30.9076   27.0291 H   0  0  0  0  0  0
  -26.3614  -29.6166   24.2190 H   0  0  0  0  0  0
  -27.4080  -29.7801   25.6071 H   0  0  0  0  0  0
  -27.9524  -30.3976   24.0798 H   0  0  0  0  0  0
  -27.2743  -33.3826   26.1904 H   0  0  0  0  0  0
  -28.3848  -32.6787   25.0257 H   0  0  0  0  0  0
  -28.0717  -31.8687   26.5474 H   0  0  0  0  0  0
  -28.2641  -38.0072   24.7822 H   0  0  0  0  0  0
  -28.1109  -36.2671   24.6006 H   0  0  0  0  0  0
  -27.2301  -37.1082   25.8827 H   0  0  0  0  0  0
  -20.9508  -29.8752   21.6441 H   0  0  0  0  0  0
  -26.0240  -38.2952   24.1606 H   0  0  0  0  0  0
  -27.7736  -15.7737   21.3827 H   0  0  0  0  0  0
  -23.2841  -13.0126   23.1975 H   0  0  0  0  0  0
  -25.1175  -12.8633   17.5940 H   0  0  0  0  0  0
  -25.5767  -16.0958   24.8300 H   0  0  0  0  0  0
  -25.8610  -17.8832   24.3515 H   0  0  0  0  0  0
  -26.6582  -17.6321   20.9700 H   0  0  0  0  0  0
  -26.7865  -19.5749   20.5486 H   0  0  0  0  0  0
  -26.7812  -21.6836   22.7830 H   0  0  0  0  0  0
  -25.2736  -21.6253   21.9703 H   0  0  0  0  0  0
  -25.5482  -23.5904   20.6228 H   0  0  0  0  0  0
  -26.8969  -22.9715   19.8262 H   0  0  0  0  0  0
  -28.5903  -15.5068   18.2740 H   0  0  0  0  0  0
  1 25  1  0  0  0
  1 30  2  0  0  0
  1 83  1  0  0  0
  2  3  1  0  0  0
  2 25  1  0  0  0
  2 85  1  0  0  0
  2 86  1  0  0  0
  3  4  1  0  0  0
  3 87  1  0  0  0
  3 88  1  0  0  0
  4  5  1  0  0  0
  4 89  1  0  0  0
  4 90  1  0  0  0
  5  6  1  0  0  0
  5 26  1  0  0  0
  5 91  1  0  0  0
  6 25  1  0  0  0
  6 92  1  0  0  0
  6 93  1  0  0  0
  7  8  2  0  0  0
  7 26  1  0  0  0
  7 29  1  0  0  0
  8  9  1  0  0  0
  8 22  1  0  0  0
  9 10  1  0  0  0
  9 27  2  0  0  0
 10 11  2  0  0  0
 10 15  1  0  0  0
 11 12  1  0  0  0
 11 94  1  0  0  0
 12 13  2  0  0  0
 12 95  1  0  0  0
 13 14  1  0  0  0
 13 31  1  0  0  0
 14 15  2  0  0  0
 14 96  1  0  0  0
 15 97  1  0  0  0
 16 17  2  0  0  0
 16 21  1  0  0  0
 16 31  1  0  0  0
 17 18  1  0  0  0
 17 98  1  0  0  0
 18 19  2  0  0  0
 18 99  1  0  0  0
 19 20  1  0  0  0
 19 24  1  0  0  0
 20 21  2  0  0  0
 20100  1  0  0  0
 21 23  1  0  0  0
 22 28  1  0  0  0
 22 32  2  0  0  0
 26 27  1  0  0  0
 28101  1  0  0  0
 28102  1  0  0  0
 29103  1  0  0  0
 29104  1  0  0  0
 33 34  1  0  0  0
 33 66  1  0  0  0
 33 70  2  0  0  0
 34 36  1  0  0  0
 34 59  1  0  0  0
 34105  1  0  0  0
 35 44  2  0  0  0
 35 45  1  0  0  0
 35 68  1  0  0  0
 36 56  1  0  0  0
 36106  1  0  0  0
 37 39  1  0  0  0
 37 47  1  0  0  0
 37 66  1  0  0  0
 37107  1  0  0  0
 38 43  2  0  0  0
 38 46  1  0  0  0
 38 47  1  0  0  0
 39 64  1  0  0  0
 39 67  2  0  0  0
 40 52  1  0  0  0
 40 53  2  0  0  0
 40 58  1  0  0  0
 41108  1  0  0  0
 41109  1  0  0  0
 41110  1  0  0  0
 41 48  1  0  0  0
 42 43  1  0  0  0
 42 66  1  0  0  0
 42111  1  0  0  0
 42112  1  0  0  0
 43 44  1  0  0  0
 44113  1  0  0  0
 45 46  2  0  0  0
 45114  1  0  0  0
 46115  1  0  0  0
 47116  1  0  0  0
 47117  1  0  0  0
 48 56  1  0  0  0
 48 65  1  0  0  0
 48118  1  0  0  0
 49 50  1  0  0  0
 49 53  1  0  0  0
 49 64  1  0  0  0
 49119  1  0  0  0
 50 51  1  0  0  0
 50120  1  0  0  0
 50121  1  0  0  0
 51 52  1  0  0  0
 51122  1  0  0  0
 51123  1  0  0  0
 52124  1  0  0  0
 52125  1  0  0  0
 53 54  1  0  0  0
 54 55  2  0  0  0
 54126  1  0  0  0
 55 57  1  0  0  0
 55127  1  0  0  0
 56 69  2  0  0  0
 57 58  2  0  0  0
 57128  1  0  0  0
 58129  1  0  0  0
 59 60  1  0  0  0
 59 61  1  0  0  0
 59 62  1  0  0  0
 60130  1  0  0  0
 60131  1  0  0  0
 60132  1  0  0  0
 61133  1  0  0  0
 61134  1  0  0  0
 61135  1  0  0  0
 62136  1  0  0  0
 62137  1  0  0  0
 62138  1  0  0  0
 63 65  1  0  0  0
 63139  1  0  0  0
 63140  1  0  0  0
 63141  1  0  0  0
 64142  1  0  0  0
 65143  1  0  0  0
 68 82  1  0  0  0
 71 74  2  0  0  0
 71 75  1  0  0  0
 71144  1  0  0  0
 72 74  1  0  0  0
 72 76  2  0  0  0
 72145  1  0  0  0
 73 75  2  0  0  0
 73 76  1  0  0  0
 73146  1  0  0  0
 74 80  1  0  0  0
 75 83  1  0  0  0
 76 84  1  0  0  0
 77 80  2  0  0  0
 77147  1  0  0  0
 77148  1  0  0  0
 78 79  2  0  0  0
 78 80  1  0  0  0
 78149  1  0  0  0
 79 81  1  0  0  0
 79150  1  0  0  0
 81 82  1  0  0  0
 81151  1  0  0  0
 81152  1  0  0  0
 82153  1  0  0  0
 82154  1  0  0  0
 83155  1  0  0  0
M  ISO  4   1 100  68 101  82 101  83 100
M  END
> <chiral flag>
0

> <version>
0

> <s_m_source_file>
/data/baiqing/PycharmProjects/Reinvent-master-3.2/result/LINK_invent/BTK/process_docking_weight1_custom_product_contain_oxygen_bond_distance_aromatic_linkinvent_7_9_3/rearranged_h_0123.sdf

> <i_m_source_file_index>
57

> <r_mmod_Potential_Energy-OPLS-2005>
23653.060546875

> <r_mmod_Stretch_Energy-OPLS-2005>
13775.08984375

> <r_mmod_Bend_Energy-OPLS-2005>
2034.75439453125

> <r_mmod_Torsional_Energy-OPLS-2005>
713.968627929688

> <r_mmod_Improper_Torsional_Energy-OPLS-2005>
75.4791030883789

> <r_mmod_Van_der_Waal_Energy-OPLS-2005>
4849.099609375

> <r_mmod_Electrostatic_Energy-OPLS-2005>
-357.293731689453

> <r_mmod_Solvation_Energy-OPLS-2005>
-199.585113525391

> <b_mmod_Minimization_Converged-OPLS-2005>
0

> <r_mmod_RMS_Derivative-OPLS-2005>
23.4939079284668

$$$$
57
                    3D
 Structure written by MMmdl.
166175  0  0  1  0            999 V2000
  -30.6591  -14.5025   20.5397 C   0  0  0  0  0  0
  -30.4366  -12.3172   19.4121 C   0  0  0  0  0  0
  -29.4956  -12.4953   18.1997 C   0  0  0  0  0  0
  -28.0138  -12.3588   18.6117 C   0  0  0  0  0  0
  -27.6607  -13.1858   19.8762 C   0  0  2  0  0  0
  -28.7106  -12.9649   20.9889 C   0  0  0  0  0  0
  -25.2616  -13.8088   20.5717 C   0  0  0  0  0  0
  -24.1834  -13.0403   20.9167 C   0  0  0  0  0  0
  -24.6366  -11.6864   20.8741 C   0  0  0  0  0  0
  -23.9036  -10.4266   21.0418 C   0  0  0  0  0  0
  -24.3600   -9.4192   21.9199 C   0  0  0  0  0  0
  -23.6280   -8.2228   22.0766 C   0  0  0  0  0  0
  -22.4271   -8.0265   21.3542 C   0  0  0  0  0  0
  -21.9899   -9.0240   20.4649 C   0  0  0  0  0  0
  -22.7215  -10.2120   20.3061 C   0  0  0  0  0  0
  -21.6846   -6.0716   22.5271 C   0  0  0  0  0  0
  -21.4005   -6.5626   23.8202 C   0  0  0  0  0  0
  -21.3657   -5.6787   24.9175 C   0  0  0  0  0  0
  -21.6053   -4.3044   24.7231 C   0  0  0  0  0  0
  -21.8830   -3.8129   23.4353 C   0  0  0  0  0  0
  -21.9199   -4.6945   22.3402 C   0  0  0  0  0  0
  -22.7870  -13.5241   21.1822 C   0  0  0  0  0  0
  -22.1674   -4.2134   21.0981 F   0  0  0  0  0  0
  -21.5640   -3.4528   25.7739 F   0  0  0  0  0  0
  -30.0365  -13.2954   20.4336 N   0  0  0  0  0  0
  -26.3024  -12.9213   20.3392 N   0  0  0  0  0  0
  -25.9289  -11.6405   20.5791 N   0  0  0  0  0  0
  -22.0493  -12.8255   22.0377 N   0  0  0  0  0  0
  -25.4393  -15.1801   20.4211 N   0  0  0  0  0  0
  -31.7975  -14.7185   20.1138 O   0  0  0  0  0  0
  -21.6637   -6.8861   21.4233 O   0  0  0  0  0  0
  -22.3583  -14.5561   20.6673 O   0  0  0  0  0  0
  -24.6158  -31.8659   23.2096 C   0  0  0  0  0  0
  -25.9052  -32.4806   23.8389 C   0  0  1  0  0  0
  -27.2505  -27.4315   20.0837 C   0  0  0  0  0  0
  -25.5904  -33.8608   24.2329 N   0  0  0  0  0  0
  -23.4058  -30.4871   21.5487 C   0  0  2  0  0  0
  -24.8552  -28.9508   20.1124 C   0  0  0  0  0  0
  -22.7423  -29.4632   22.4982 C   0  0  0  0  0  0
  -18.0277  -28.1376   22.8484 C   0  0  0  0  0  0
  -24.1483  -36.7298   23.2635 C   0  0  0  0  0  0
  -25.9356  -30.8258   21.3670 C   0  0  0  0  0  0
  -26.0129  -29.4599   20.7129 C   0  0  0  0  0  0
  -27.2069  -28.7023   20.7054 C   0  0  0  0  0  0
  -26.0671  -26.9285   19.4956 C   0  0  0  0  0  0
  -24.8759  -27.6820   19.5063 C   0  0  0  0  0  0
  -23.6163  -29.8180   20.1632 C   0  0  0  0  0  0
  -25.4104  -36.3091   24.0332 C   0  0  1  0  0  0
  -20.5866  -28.3661   23.1304 C   0  0  2  0  0  0
  -20.6767  -26.9394   22.5412 C   0  0  0  0  0  0
  -19.5745  -26.6374   21.5209 C   0  0  0  0  0  0
  -18.1921  -26.7925   22.1611 C   0  0  0  0  0  0
  -19.1526  -28.8838   23.2891 C   0  0  0  0  0  0
  -18.9453  -30.1443   23.8900 C   0  0  0  0  0  0
  -17.6455  -30.6579   24.0564 C   0  0  0  0  0  0
  -25.9034  -34.9459   23.5126 C   0  0  0  0  0  0
  -16.5349  -29.9075   23.6327 C   0  0  0  0  0  0
  -16.7265  -28.6493   23.0348 C   0  0  0  0  0  0
  -26.4474  -31.6591   25.0727 C   0  0  0  0  0  0
  -25.3743  -31.3695   26.1479 C   0  0  0  0  0  0
  -27.0311  -30.3029   24.6114 C   0  0  0  0  0  0
  -27.6047  -32.4315   25.7485 C   0  0  0  0  0  0
  -27.5574  -37.1798   24.8459 C   0  0  0  0  0  0
  -21.4153  -29.3022   22.3713 N   0  0  0  0  0  0
  -26.4279  -37.3782   23.9410 N   0  0  0  0  0  0
  -24.6700  -31.0744   22.1001 N   0  0  0  0  0  0
  -23.4193  -28.8173   23.3028 O   0  0  0  0  0  0
  -28.4219  -26.6974   20.1318 O   0  0  0  0  0  0
  -26.5593  -34.8906   22.4687 O   0  0  0  0  0  0
  -23.5347  -32.1420   23.7487 O   0  0  0  0  0  0
  -30.4026  -19.1519   21.5930 C   0  0  0  0  0  0
  -30.5541  -17.7453   21.6822 C   0  0  0  0  0  0
  -28.9708  -18.8683   19.6598 C   0  0  0  0  0  0
  -29.5809  -19.7322   20.5966 C   0  0  0  0  0  0
  -29.1574  -17.4676   19.7083 C   0  0  0  0  0  0
  -29.9178  -16.8843   20.7573 C   0  0  0  0  0  0
  -29.2489  -21.1826   20.6111 C   0  0  0  0  0  0
  -28.8417  -22.2843   17.1674 C   0  0  0  0  0  0
  -27.8091  -23.0480   18.0097 C   0  0  0  0  0  0
  -29.7623  -21.5970   18.1841 C   0  0  0  0  0  0
  -28.5034  -23.2845   19.3617 C   0  0  2  0  0  0
  -28.4970  -16.6349   18.6234 C   0  0  0  0  0  0
  -29.4471  -24.5286   19.3431 C   0  0  0  0  0  0
  -28.8182  -25.9166   18.9941 C   0  0  0  0  0  0
  -29.2250  -21.9840   19.5071 N   0  0  0  0  0  0
  -29.8639  -15.4807   21.0160 N   0  0  0  0  0  0
  -28.9002  -21.7181   21.7790 N   0  3  0  0  0  0
  -31.4767  -12.4415   19.1044 H   0  0  0  0  0  0
  -30.3628  -11.3056   19.8140 H   0  0  0  0  0  0
  -29.7337  -11.7614   17.4283 H   0  0  0  0  0  0
  -29.6635  -13.4734   17.7463 H   0  0  0  0  0  0
  -27.8110  -11.3026   18.7935 H   0  0  0  0  0  0
  -27.3692  -12.6510   17.7816 H   0  0  0  0  0  0
  -27.6948  -14.2289   19.5842 H   0  0  0  0  0  0
  -28.7012  -11.9234   21.3126 H   0  0  0  0  0  0
  -28.4696  -13.5449   21.8813 H   0  0  0  0  0  0
  -25.2748   -9.5673   22.4773 H   0  0  0  0  0  0
  -23.9987   -7.4621   22.7490 H   0  0  0  0  0  0
  -21.0834   -8.8759   19.8947 H   0  0  0  0  0  0
  -22.3684  -10.9668   19.6170 H   0  0  0  0  0  0
  -21.1978   -7.6127   23.9691 H   0  0  0  0  0  0
  -21.1481   -6.0522   25.9075 H   0  0  0  0  0  0
  -22.0613   -2.7587   23.2864 H   0  0  0  0  0  0
  -22.4066  -11.9895   22.4762 H   0  0  0  0  0  0
  -21.1116  -13.1324   22.2549 H   0  0  0  0  0  0
  -24.6821  -15.8421   20.5485 H   0  0  0  0  0  0
  -26.3045  -15.6188   20.1382 H   0  0  0  0  0  0
  -26.7131  -32.5511   23.1157 H   0  0  0  0  0  0
  -25.0073  -33.9775   25.0481 H   0  0  0  0  0  0
  -22.6942  -31.3033   21.4085 H   0  0  0  0  0  0
  -23.3740  -35.9636   23.3300 H   0  0  0  0  0  0
  -24.3576  -36.8918   22.2050 H   0  0  0  0  0  0
  -23.7244  -37.6501   23.6659 H   0  0  0  0  0  0
  -26.0558  -31.5934   20.6013 H   0  0  0  0  0  0
  -26.8206  -30.8759   21.9897 H   0  0  0  0  0  0
  -28.0994  -29.0885   21.1786 H   0  0  0  0  0  0
  -26.0432  -25.9435   19.0530 H   0  0  0  0  0  0
  -23.9817  -27.2758   19.0551 H   0  0  0  0  0  0
  -23.7267  -30.5936   19.4045 H   0  0  0  0  0  0
  -22.7399  -29.2387   19.8657 H   0  0  0  0  0  0
  -25.1279  -36.1945   25.0823 H   0  0  0  0  0  0
  -20.9955  -28.3232   24.1423 H   0  0  0  0  0  0
  -20.5662  -26.2266   23.3602 H   0  0  0  0  0  0
  -21.6640  -26.7429   22.1206 H   0  0  0  0  0  0
  -19.6903  -25.6288   21.1225 H   0  0  0  0  0  0
  -19.6675  -27.3187   20.6742 H   0  0  0  0  0  0
  -17.4191  -26.6682   21.4015 H   0  0  0  0  0  0
  -18.0306  -26.0065   22.8997 H   0  0  0  0  0  0
  -19.7930  -30.7268   24.2261 H   0  0  0  0  0  0
  -17.5006  -31.6257   24.5167 H   0  0  0  0  0  0
  -15.5348  -30.2978   23.7645 H   0  0  0  0  0  0
  -15.8667  -28.0812   22.7062 H   0  0  0  0  0  0
  -24.5905  -30.7056   25.7818 H   0  0  0  0  0  0
  -24.8948  -32.2850   26.4951 H   0  0  0  0  0  0
  -25.8097  -30.8840   27.0223 H   0  0  0  0  0  0
  -26.2859  -29.6783   24.1176 H   0  0  0  0  0  0
  -27.4088  -29.7270   25.4573 H   0  0  0  0  0  0
  -27.8688  -30.4343   23.9264 H   0  0  0  0  0  0
  -27.2668  -33.3608   26.2079 H   0  0  0  0  0  0
  -28.3840  -32.6890   25.0301 H   0  0  0  0  0  0
  -28.0734  -31.8437   26.5388 H   0  0  0  0  0  0
  -28.2579  -38.0107   24.7522 H   0  0  0  0  0  0
  -28.1080  -36.2641   24.6254 H   0  0  0  0  0  0
  -27.2298  -37.1417   25.8862 H   0  0  0  0  0  0
  -20.9329  -29.8735   21.6918 H   0  0  0  0  0  0
  -26.0161  -38.2847   24.1432 H   0  0  0  0  0  0
  -30.8794  -19.7792   22.3340 H   0  0  0  0  0  0
  -31.1209  -17.3261   22.5016 H   0  0  0  0  0  0
  -28.3121  -19.2782   18.9059 H   0  0  0  0  0  0
  -29.4234  -22.9687   16.5487 H   0  0  0  0  0  0
  -28.3590  -21.5664   16.5024 H   0  0  0  0  0  0
  -26.9268  -22.4268   18.1698 H   0  0  0  0  0  0
  -27.4632  -23.9464   17.5040 H   0  0  0  0  0  0
  -30.7864  -21.9614   18.0848 H   0  0  0  0  0  0
  -29.8012  -20.5280   17.9908 H   0  0  0  0  0  0
  -27.7451  -23.4165   20.1361 H   0  0  0  0  0  0
  -28.4737  -17.1877   17.6840 H   0  0  0  0  0  0
  -27.4682  -16.3999   18.8884 H   0  0  0  0  0  0
  -29.0441  -15.7140   18.4291 H   0  0  0  0  0  0
  -30.2407  -24.3437   18.6186 H   0  0  0  0  0  0
  -29.9605  -24.6140   20.3010 H   0  0  0  0  0  0
  -28.0578  -25.8489   18.2217 H   0  0  0  0  0  0
  -29.6028  -26.5095   18.5232 H   0  0  0  0  0  0
  -28.9642  -15.1403   21.3146 H   0  0  0  0  0  0
  -28.8657  -21.1282   22.5969 H   0  0  0  0  0  0
  -28.7237  -22.7010   21.8868 H   0  0  0  0  0  0
  1 25  1  0  0  0
  1 30  2  0  0  0
  1 86  1  0  0  0
  2  3  1  0  0  0
  2 25  1  0  0  0
  2 88  1  0  0  0
  2 89  1  0  0  0
  3  4  1  0  0  0
  3 90  1  0  0  0
  3 91  1  0  0  0
  4  5  1  0  0  0
  4 92  1  0  0  0
  4 93  1  0  0  0
  5  6  1  0  0  0
  5 26  1  0  0  0
  5 94  1  0  0  0
  6 25  1  0  0  0
  6 95  1  0  0  0
  6 96  1  0  0  0
  7  8  2  0  0  0
  7 26  1  0  0  0
  7 29  1  0  0  0
  8  9  1  0  0  0
  8 22  1  0  0  0
  9 10  1  0  0  0
  9 27  2  0  0  0
 10 11  2  0  0  0
 10 15  1  0  0  0
 11 12  1  0  0  0
 11 97  1  0  0  0
 12 13  2  0  0  0
 12 98  1  0  0  0
 13 14  1  0  0  0
 13 31  1  0  0  0
 14 15  2  0  0  0
 14 99  1  0  0  0
 15100  1  0  0  0
 16 17  2  0  0  0
 16 21  1  0  0  0
 16 31  1  0  0  0
 17 18  1  0  0  0
 17101  1  0  0  0
 18 19  2  0  0  0
 18102  1  0  0  0
 19 20  1  0  0  0
 19 24  1  0  0  0
 20 21  2  0  0  0
 20103  1  0  0  0
 21 23  1  0  0  0
 22 28  1  0  0  0
 22 32  2  0  0  0
 26 27  1  0  0  0
 28104  1  0  0  0
 28105  1  0  0  0
 29106  1  0  0  0
 29107  1  0  0  0
 33 34  1  0  0  0
 33 66  1  0  0  0
 33 70  2  0  0  0
 34 36  1  0  0  0
 34 59  1  0  0  0
 34108  1  0  0  0
 35 44  2  0  0  0
 35 45  1  0  0  0
 35 68  1  0  0  0
 36 56  1  0  0  0
 36109  1  0  0  0
 37 39  1  0  0  0
 37 47  1  0  0  0
 37 66  1  0  0  0
 37110  1  0  0  0
 38 43  2  0  0  0
 38 46  1  0  0  0
 38 47  1  0  0  0
 39 64  1  0  0  0
 39 67  2  0  0  0
 40 52  1  0  0  0
 40 53  2  0  0  0
 40 58  1  0  0  0
 41111  1  0  0  0
 41112  1  0  0  0
 41113  1  0  0  0
 41 48  1  0  0  0
 42 43  1  0  0  0
 42 66  1  0  0  0
 42114  1  0  0  0
 42115  1  0  0  0
 43 44  1  0  0  0
 44116  1  0  0  0
 45 46  2  0  0  0
 45117  1  0  0  0
 46118  1  0  0  0
 47119  1  0  0  0
 47120  1  0  0  0
 48 56  1  0  0  0
 48 65  1  0  0  0
 48121  1  0  0  0
 49 50  1  0  0  0
 49 53  1  0  0  0
 49 64  1  0  0  0
 49122  1  0  0  0
 50 51  1  0  0  0
 50123  1  0  0  0
 50124  1  0  0  0
 51 52  1  0  0  0
 51125  1  0  0  0
 51126  1  0  0  0
 52127  1  0  0  0
 52128  1  0  0  0
 53 54  1  0  0  0
 54 55  2  0  0  0
 54129  1  0  0  0
 55 57  1  0  0  0
 55130  1  0  0  0
 56 69  2  0  0  0
 57 58  2  0  0  0
 57131  1  0  0  0
 58132  1  0  0  0
 59 60  1  0  0  0
 59 61  1  0  0  0
 59 62  1  0  0  0
 60133  1  0  0  0
 60134  1  0  0  0
 60135  1  0  0  0
 61136  1  0  0  0
 61137  1  0  0  0
 61138  1  0  0  0
 62139  1  0  0  0
 62140  1  0  0  0
 62141  1  0  0  0
 63 65  1  0  0  0
 63142  1  0  0  0
 63143  1  0  0  0
 63144  1  0  0  0
 64145  1  0  0  0
 65146  1  0  0  0
 68 84  1  0  0  0
 71 72  2  0  0  0
 71 74  1  0  0  0
 71147  1  0  0  0
 72 76  1  0  0  0
 72148  1  0  0  0
 73 74  2  0  0  0
 73 75  1  0  0  0
 73149  1  0  0  0
 74 77  1  0  0  0
 75 76  2  0  0  0
 75 82  1  0  0  0
 76 86  1  0  0  0
 77 85  1  0  0  0
 77 87  2  0  0  0
 78 79  1  0  0  0
 78 80  1  0  0  0
 78150  1  0  0  0
 78151  1  0  0  0
 79 81  1  0  0  0
 79152  1  0  0  0
 79153  1  0  0  0
 80 85  1  0  0  0
 80154  1  0  0  0
 80155  1  0  0  0
 81 83  1  0  0  0
 81 85  1  0  0  0
 81156  1  0  0  0
 82157  1  0  0  0
 82158  1  0  0  0
 82159  1  0  0  0
 83 84  1  0  0  0
 83160  1  0  0  0
 83161  1  0  0  0
 84162  1  0  0  0
 84163  1  0  0  0
 86164  1  0  0  0
 87165  1  0  0  0
 87166  1  0  0  0
M  CHG  1  87   1
M  ISO  4   1 100  68 101  84 101  86 100
M  END
> <chiral flag>
0

> <version>
0

> <s_m_source_file>
/data/baiqing/PycharmProjects/Reinvent-master-3.2/result/LINK_invent/BTK/process_docking_weight1_custom_product_contain_oxygen_bond_distance_aromatic_linkinvent_7_9_3/rearranged_h_0123.sdf

> <i_m_source_file_index>
58

> <r_mmod_Potential_Energy-OPLS-2005>
-55.0413780212402

> <r_mmod_Stretch_Energy-OPLS-2005>
43.564281463623

> <r_mmod_Bend_Energy-OPLS-2005>
150.124130249023

> <r_mmod_Torsional_Energy-OPLS-2005>
345.100524902344

> <r_mmod_Improper_Torsional_Energy-OPLS-2005>
6.7581639289856

> <r_mmod_Van_der_Waal_Energy-OPLS-2005>
150.361297607422

> <r_mmod_Electrostatic_Energy-OPLS-2005>
-375.945007324219

> <r_mmod_Solvation_Energy-OPLS-2005>
-391.262145996094

> <b_mmod_Minimization_Converged-OPLS-2005>
0

> <r_mmod_RMS_Derivative-OPLS-2005>
1.90812277793884

$$$$
58
                    3D
 Structure written by MMmdl.
157165  0  0  1  0            999 V2000
  -30.5953  -14.6830   20.4381 C   0  0  0  0  0  0
  -30.4439  -12.4127   19.4452 C   0  0  0  0  0  0
  -29.5087  -12.5063   18.2192 C   0  0  0  0  0  0
  -28.0329  -12.3346   18.6362 C   0  0  0  0  0  0
  -27.6496  -13.2007   19.8650 C   0  0  2  0  0  0
  -28.7036  -13.0929   20.9892 C   0  0  0  0  0  0
  -25.2532  -13.8039   20.5644 C   0  0  0  0  0  0
  -24.1807  -13.0346   20.9187 C   0  0  0  0  0  0
  -24.6374  -11.6820   20.8773 C   0  0  0  0  0  0
  -23.9017  -10.4238   21.0438 C   0  0  0  0  0  0
  -24.3573   -9.4159   21.9211 C   0  0  0  0  0  0
  -23.6257   -8.2191   22.0769 C   0  0  0  0  0  0
  -22.4235   -8.0232   21.3559 C   0  0  0  0  0  0
  -21.9861   -9.0211   20.4678 C   0  0  0  0  0  0
  -22.7189  -10.2092   20.3101 C   0  0  0  0  0  0
  -21.6835   -6.0681   22.5274 C   0  0  0  0  0  0
  -21.3998   -6.5600   23.8199 C   0  0  0  0  0  0
  -21.3688   -5.6773   24.9180 C   0  0  0  0  0  0
  -21.6069   -4.3038   24.7248 C   0  0  0  0  0  0
  -21.8822   -3.8109   23.4372 C   0  0  0  0  0  0
  -21.9183   -4.6909   22.3414 C   0  0  0  0  0  0
  -22.7848  -13.5201   21.1811 C   0  0  0  0  0  0
  -22.1636   -4.2085   21.0995 F   0  0  0  0  0  0
  -21.5671   -3.4544   25.7775 F   0  0  0  0  0  0
  -30.0066  -13.4444   20.4032 N   0  0  0  0  0  0
  -26.2978  -12.9220   20.3366 N   0  0  0  0  0  0
  -25.9309  -11.6393   20.5811 N   0  0  0  0  0  0
  -22.0456  -12.8279   22.0402 N   0  0  0  0  0  0
  -25.4134  -15.1727   20.3901 N   0  0  0  0  0  0
  -31.7893  -14.8302   20.1626 O   0  0  0  0  0  0
  -21.6618   -6.8816   21.4234 O   0  0  0  0  0  0
  -22.3574  -14.5500   20.6619 O   0  0  0  0  0  0
  -24.6246  -31.8615   23.2050 C   0  0  0  0  0  0
  -25.9108  -32.4786   23.8368 C   0  0  1  0  0  0
  -27.2360  -27.3416   20.1039 C   0  0  0  0  0  0
  -25.5927  -33.8585   24.2295 N   0  0  0  0  0  0
  -23.4176  -30.4859   21.5464 C   0  0  2  0  0  0
  -24.8652  -28.9441   20.1127 C   0  0  0  0  0  0
  -22.7469  -29.4635   22.4942 C   0  0  0  0  0  0
  -18.0288  -28.1390   22.8471 C   0  0  0  0  0  0
  -24.1490  -36.7305   23.2632 C   0  0  0  0  0  0
  -25.9575  -30.7962   21.3759 C   0  0  0  0  0  0
  -26.0328  -29.4256   20.7171 C   0  0  0  0  0  0
  -27.2180  -28.6342   20.7075 C   0  0  0  0  0  0
  -26.0414  -26.9080   19.4790 C   0  0  0  0  0  0
  -24.8694  -27.6869   19.4888 C   0  0  0  0  0  0
  -23.6330  -29.8226   20.1605 C   0  0  0  0  0  0
  -25.4103  -36.3085   24.0329 C   0  0  1  0  0  0
  -20.5885  -28.3698   23.1288 C   0  0  2  0  0  0
  -20.6790  -26.9422   22.5420 C   0  0  0  0  0  0
  -19.5772  -26.6386   21.5212 C   0  0  0  0  0  0
  -18.1939  -26.7932   22.1606 C   0  0  0  0  0  0
  -19.1541  -28.8860   23.2872 C   0  0  0  0  0  0
  -18.9464  -30.1457   23.8902 C   0  0  0  0  0  0
  -17.6465  -30.6588   24.0570 C   0  0  0  0  0  0
  -25.9045  -34.9459   23.5113 C   0  0  0  0  0  0
  -16.5358  -29.9092   23.6327 C   0  0  0  0  0  0
  -16.7272  -28.6511   23.0337 C   0  0  0  0  0  0
  -26.4493  -31.6592   25.0739 C   0  0  0  0  0  0
  -25.3732  -31.3754   26.1483 C   0  0  0  0  0  0
  -27.0309  -30.3003   24.6197 C   0  0  0  0  0  0
  -27.6086  -32.4298   25.7481 C   0  0  0  0  0  0
  -27.5588  -37.1785   24.8435 C   0  0  0  0  0  0
  -21.4191  -29.3048   22.3678 N   0  0  0  0  0  0
  -26.4276  -37.3786   23.9419 N   0  0  0  0  0  0
  -24.6844  -31.0644   22.0990 N   0  0  0  0  0  0
  -23.4199  -28.8182   23.3022 O   0  0  0  0  0  0
  -28.3703  -26.5161   20.1431 O   0  0  0  0  0  0
  -26.5622  -34.8925   22.4682 O   0  0  0  0  0  0
  -23.5416  -32.1418   23.7382 O   0  0  0  0  0  0
  -31.0458  -19.3251   20.9354 C   0  0  0  0  0  0
  -30.9793  -17.9000   20.9370 C   0  0  0  0  0  0
  -28.9457  -19.4387   19.8011 C   0  0  0  0  0  0
  -30.0207  -20.1410   20.3902 C   0  0  0  0  0  0
  -28.8607  -18.0102   19.7663 C   0  0  0  0  0  0
  -29.8802  -17.1965   20.3771 C   0  0  0  0  0  0
  -27.8299  -16.4173   18.1739 C   0  0  0  0  0  0
  -30.0883  -21.6588   20.4674 C   0  0  0  0  0  0
  -29.1556  -22.6053   20.1226 C   0  0  0  0  0  0
  -27.7034  -17.4523   19.0195 C   0  0  0  0  0  0
  -29.3391  -24.1069   20.2705 C   0  0  0  0  0  0
  -26.3420  -18.1012   19.2265 C   0  0  0  0  0  0
  -28.1731  -25.0795   19.8615 C   0  0  0  0  0  0
  -29.7231  -15.7411   20.5270 N   0  0  0  0  0  0
  -30.3861  -24.5943   20.7105 O   0  0  0  0  0  0
  -31.4839  -12.5475   19.1419 H   0  0  0  0  0  0
  -30.3893  -11.4221   19.8968 H   0  0  0  0  0  0
  -29.7795  -11.7520   17.4801 H   0  0  0  0  0  0
  -29.6404  -13.4720   17.7282 H   0  0  0  0  0  0
  -27.8777  -11.2798   18.8672 H   0  0  0  0  0  0
  -27.3747  -12.5631   17.7972 H   0  0  0  0  0  0
  -27.6531  -14.2276   19.5184 H   0  0  0  0  0  0
  -28.7334  -12.0819   21.3991 H   0  0  0  0  0  0
  -28.4552  -13.7517   21.8239 H   0  0  0  0  0  0
  -25.2709   -9.5653   22.4782 H   0  0  0  0  0  0
  -23.9999   -7.4572   22.7457 H   0  0  0  0  0  0
  -21.0803   -8.8720   19.8958 H   0  0  0  0  0  0
  -22.3633  -10.9637   19.6228 H   0  0  0  0  0  0
  -21.1947   -7.6097   23.9682 H   0  0  0  0  0  0
  -21.1533   -6.0513   25.9085 H   0  0  0  0  0  0
  -22.0578   -2.7562   23.2907 H   0  0  0  0  0  0
  -22.4039  -11.9973   22.4889 H   0  0  0  0  0  0
  -21.1099  -13.1387   22.2553 H   0  0  0  0  0  0
  -24.6033  -15.7816   20.3792 H   0  0  0  0  0  0
  -26.2235  -15.5916   19.9528 H   0  0  0  0  0  0
  -26.7182  -32.5468   23.1121 H   0  0  0  0  0  0
  -25.0051  -33.9727   25.0425 H   0  0  0  0  0  0
  -22.7095  -31.3044   21.4043 H   0  0  0  0  0  0
  -23.3757  -35.9632   23.3257 H   0  0  0  0  0  0
  -24.3601  -36.8967   22.2056 H   0  0  0  0  0  0
  -23.7249  -37.6494   23.6689 H   0  0  0  0  0  0
  -26.0888  -31.5618   20.6100 H   0  0  0  0  0  0
  -26.8385  -30.8436   22.0043 H   0  0  0  0  0  0
  -28.1116  -28.9985   21.1945 H   0  0  0  0  0  0
  -25.9810  -25.9531   18.9795 H   0  0  0  0  0  0
  -23.9743  -27.3111   19.0125 H   0  0  0  0  0  0
  -23.7570  -30.6003   19.4053 H   0  0  0  0  0  0
  -22.7531  -29.2539   19.8549 H   0  0  0  0  0  0
  -25.1280  -36.1918   25.0820 H   0  0  0  0  0  0
  -20.9958  -28.3278   24.1418 H   0  0  0  0  0  0
  -20.5683  -26.2307   23.3615 H   0  0  0  0  0  0
  -21.6668  -26.7449   22.1241 H   0  0  0  0  0  0
  -19.6941  -25.6293   21.1261 H   0  0  0  0  0  0
  -19.6713  -27.3177   20.6727 H   0  0  0  0  0  0
  -17.4211  -26.6660   21.4001 H   0  0  0  0  0  0
  -18.0334  -26.0078   22.9007 H   0  0  0  0  0  0
  -19.7939  -30.7266   24.2272 H   0  0  0  0  0  0
  -17.5025  -31.6268   24.5170 H   0  0  0  0  0  0
  -15.5364  -30.3000   23.7647 H   0  0  0  0  0  0
  -15.8668  -28.0838   22.7051 H   0  0  0  0  0  0
  -24.5872  -30.7132   25.7834 H   0  0  0  0  0  0
  -24.8962  -32.2934   26.4930 H   0  0  0  0  0  0
  -25.8060  -30.8917   27.0250 H   0  0  0  0  0  0
  -26.2871  -29.6761   24.1234 H   0  0  0  0  0  0
  -27.4000  -29.7260   25.4705 H   0  0  0  0  0  0
  -27.8754  -30.4266   23.9417 H   0  0  0  0  0  0
  -27.2750  -33.3613   26.2064 H   0  0  0  0  0  0
  -28.3889  -32.6821   25.0288 H   0  0  0  0  0  0
  -28.0765  -31.8409   26.5382 H   0  0  0  0  0  0
  -28.2553  -38.0133   24.7569 H   0  0  0  0  0  0
  -28.1140  -36.2678   24.6134 H   0  0  0  0  0  0
  -27.2343  -37.1295   25.8844 H   0  0  0  0  0  0
  -20.9362  -29.8755   21.6881 H   0  0  0  0  0  0
  -26.0150  -38.2847   24.1476 H   0  0  0  0  0  0
  -31.9065  -19.7960   21.3920 H   0  0  0  0  0  0
  -31.7752  -17.3457   21.4124 H   0  0  0  0  0  0
  -28.1701  -20.0274   19.3386 H   0  0  0  0  0  0
  -28.7822  -15.9452   17.9867 H   0  0  0  0  0  0
  -26.9736  -16.0238   17.6422 H   0  0  0  0  0  0
  -31.0244  -22.0343   20.8588 H   0  0  0  0  0  0
  -28.2067  -22.2869   19.7202 H   0  0  0  0  0  0
  -26.1002  -18.1795   20.2866 H   0  0  0  0  0  0
  -25.5447  -17.5372   18.7399 H   0  0  0  0  0  0
  -26.3126  -19.0985   18.7917 H   0  0  0  0  0  0
  -27.2814  -24.7300   20.3823 H   0  0  0  0  0  0
  -27.9959  -24.9513   18.7936 H   0  0  0  0  0  0
  -28.7625  -15.4429   20.5895 H   0  0  0  0  0  0
  1 25  1  0  0  0
  1 30  2  0  0  0
  1 84  1  0  0  0
  2  3  1  0  0  0
  2 25  1  0  0  0
  2 86  1  0  0  0
  2 87  1  0  0  0
  3  4  1  0  0  0
  3 88  1  0  0  0
  3 89  1  0  0  0
  4  5  1  0  0  0
  4 90  1  0  0  0
  4 91  1  0  0  0
  5  6  1  0  0  0
  5 26  1  0  0  0
  5 92  1  0  0  0
  6 25  1  0  0  0
  6 93  1  0  0  0
  6 94  1  0  0  0
  7  8  2  0  0  0
  7 26  1  0  0  0
  7 29  1  0  0  0
  8  9  1  0  0  0
  8 22  1  0  0  0
  9 10  1  0  0  0
  9 27  2  0  0  0
 10 11  2  0  0  0
 10 15  1  0  0  0
 11 12  1  0  0  0
 11 95  1  0  0  0
 12 13  2  0  0  0
 12 96  1  0  0  0
 13 14  1  0  0  0
 13 31  1  0  0  0
 14 15  2  0  0  0
 14 97  1  0  0  0
 15 98  1  0  0  0
 16 17  2  0  0  0
 16 21  1  0  0  0
 16 31  1  0  0  0
 17 18  1  0  0  0
 17 99  1  0  0  0
 18 19  2  0  0  0
 18100  1  0  0  0
 19 20  1  0  0  0
 19 24  1  0  0  0
 20 21  2  0  0  0
 20101  1  0  0  0
 21 23  1  0  0  0
 22 28  1  0  0  0
 22 32  2  0  0  0
 26 27  1  0  0  0
 28102  1  0  0  0
 28103  1  0  0  0
 29104  1  0  0  0
 29105  1  0  0  0
 33 34  1  0  0  0
 33 66  1  0  0  0
 33 70  2  0  0  0
 34 36  1  0  0  0
 34 59  1  0  0  0
 34106  1  0  0  0
 35 44  2  0  0  0
 35 45  1  0  0  0
 35 68  1  0  0  0
 36 56  1  0  0  0
 36107  1  0  0  0
 37 39  1  0  0  0
 37 47  1  0  0  0
 37 66  1  0  0  0
 37108  1  0  0  0
 38 43  2  0  0  0
 38 46  1  0  0  0
 38 47  1  0  0  0
 39 64  1  0  0  0
 39 67  2  0  0  0
 40 52  1  0  0  0
 40 53  2  0  0  0
 40 58  1  0  0  0
 41109  1  0  0  0
 41110  1  0  0  0
 41111  1  0  0  0
 41 48  1  0  0  0
 42 43  1  0  0  0
 42 66  1  0  0  0
 42112  1  0  0  0
 42113  1  0  0  0
 43 44  1  0  0  0
 44114  1  0  0  0
 45 46  2  0  0  0
 45115  1  0  0  0
 46116  1  0  0  0
 47117  1  0  0  0
 47118  1  0  0  0
 48 56  1  0  0  0
 48 65  1  0  0  0
 48119  1  0  0  0
 49 50  1  0  0  0
 49 53  1  0  0  0
 49 64  1  0  0  0
 49120  1  0  0  0
 50 51  1  0  0  0
 50121  1  0  0  0
 50122  1  0  0  0
 51 52  1  0  0  0
 51123  1  0  0  0
 51124  1  0  0  0
 52125  1  0  0  0
 52126  1  0  0  0
 53 54  1  0  0  0
 54 55  2  0  0  0
 54127  1  0  0  0
 55 57  1  0  0  0
 55128  1  0  0  0
 56 69  2  0  0  0
 57 58  2  0  0  0
 57129  1  0  0  0
 58130  1  0  0  0
 59 60  1  0  0  0
 59 61  1  0  0  0
 59 62  1  0  0  0
 60131  1  0  0  0
 60132  1  0  0  0
 60133  1  0  0  0
 61134  1  0  0  0
 61135  1  0  0  0
 61136  1  0  0  0
 62137  1  0  0  0
 62138  1  0  0  0
 62139  1  0  0  0
 63 65  1  0  0  0
 63140  1  0  0  0
 63141  1  0  0  0
 63142  1  0  0  0
 64143  1  0  0  0
 65144  1  0  0  0
 68 83  1  0  0  0
 71 72  2  0  0  0
 71 74  1  0  0  0
 71145  1  0  0  0
 72 76  1  0  0  0
 72146  1  0  0  0
 73 74  2  0  0  0
 73 75  1  0  0  0
 73147  1  0  0  0
 74 78  1  0  0  0
 75 76  2  0  0  0
 75 80  1  0  0  0
 76 84  1  0  0  0
 77 80  2  0  0  0
 77148  1  0  0  0
 77149  1  0  0  0
 78 79  2  0  0  0
 78150  1  0  0  0
 79 81  1  0  0  0
 79151  1  0  0  0
 80 82  1  0  0  0
 81 83  1  0  0  0
 81 85  2  0  0  0
 82152  1  0  0  0
 82153  1  0  0  0
 82154  1  0  0  0
 83155  1  0  0  0
 83156  1  0  0  0
 84157  1  0  0  0
M  ISO  4   1 100  68 101  83 101  84 100
M  END
> <chiral flag>
0

> <version>
0

> <s_m_source_file>
/data/baiqing/PycharmProjects/Reinvent-master-3.2/result/LINK_invent/BTK/process_docking_weight1_custom_product_contain_oxygen_bond_distance_aromatic_linkinvent_7_9_3/rearranged_h_0123.sdf

> <i_m_source_file_index>
59

> <r_mmod_Potential_Energy-OPLS-2005>
51.5201530456543

> <r_mmod_Stretch_Energy-OPLS-2005>
77.4286956787109

> <r_mmod_Bend_Energy-OPLS-2005>
126.808006286621

> <r_mmod_Torsional_Energy-OPLS-2005>
234.200180053711

> <r_mmod_Improper_Torsional_Energy-OPLS-2005>
8.24453544616699

> <r_mmod_Van_der_Waal_Energy-OPLS-2005>
145.18717956543

> <r_mmod_Electrostatic_Energy-OPLS-2005>
-371.846374511719

> <r_mmod_Solvation_Energy-OPLS-2005>
-222.882034301758

> <b_mmod_Minimization_Converged-OPLS-2005>
0

> <r_mmod_RMS_Derivative-OPLS-2005>
2.68130445480347

$$$$
59
                    3D
 Structure written by MMmdl.
163171  0  0  1  0            999 V2000
  -30.7414  -14.3953   20.6434 C   0  0  0  0  0  0
  -30.4235  -12.2879   19.4037 C   0  0  0  0  0  0
  -29.4915  -12.5183   18.1981 C   0  0  0  0  0  0
  -28.0121  -12.3854   18.6112 C   0  0  0  0  0  0
  -27.6688  -13.2049   19.8843 C   0  0  2  0  0  0
  -28.7080  -12.9403   20.9969 C   0  0  0  0  0  0
  -25.2609  -13.8159   20.5676 C   0  0  0  0  0  0
  -24.1853  -13.0444   20.9173 C   0  0  0  0  0  0
  -24.6393  -11.6911   20.8736 C   0  0  0  0  0  0
  -23.9055  -10.4299   21.0403 C   0  0  0  0  0  0
  -24.3610   -9.4218   21.9182 C   0  0  0  0  0  0
  -23.6295   -8.2251   22.0755 C   0  0  0  0  0  0
  -22.4276   -8.0281   21.3547 C   0  0  0  0  0  0
  -21.9909   -9.0248   20.4645 C   0  0  0  0  0  0
  -22.7231  -10.2129   20.3050 C   0  0  0  0  0  0
  -21.6855   -6.0741   22.5277 C   0  0  0  0  0  0
  -21.4013   -6.5644   23.8210 C   0  0  0  0  0  0
  -21.3664   -5.6792   24.9170 C   0  0  0  0  0  0
  -21.6044   -4.3054   24.7212 C   0  0  0  0  0  0
  -21.8821   -3.8147   23.4334 C   0  0  0  0  0  0
  -21.9192   -4.6970   22.3395 C   0  0  0  0  0  0
  -22.7874  -13.5251   21.1829 C   0  0  0  0  0  0
  -22.1664   -4.2157   21.0975 F   0  0  0  0  0  0
  -21.5627   -3.4528   25.7721 F   0  0  0  0  0  0
  -30.0493  -13.2409   20.4602 N   0  0  0  0  0  0
  -26.3061  -12.9326   20.3406 N   0  0  0  0  0  0
  -25.9327  -11.6485   20.5790 N   0  0  0  0  0  0
  -22.0494  -12.8255   22.0373 N   0  0  0  0  0  0
  -25.4328  -15.1870   20.4056 N   0  0  0  0  0  0
  -31.8076  -14.6319   20.0676 O   0  0  0  0  0  0
  -21.6645   -6.8878   21.4235 O   0  0  0  0  0  0
  -22.3570  -14.5566   20.6688 O   0  0  0  0  0  0
  -24.6103  -31.8710   23.2121 C   0  0  0  0  0  0
  -25.9019  -32.4827   23.8418 C   0  0  1  0  0  0
  -27.2379  -27.4596   20.1024 C   0  0  0  0  0  0
  -25.5901  -33.8631   24.2349 N   0  0  0  0  0  0
  -23.3969  -30.4938   21.5521 C   0  0  2  0  0  0
  -24.8439  -28.9576   20.1213 C   0  0  0  0  0  0
  -22.7383  -29.4685   22.5018 C   0  0  0  0  0  0
  -18.0268  -28.1375   22.8506 C   0  0  0  0  0  0
  -24.1488  -36.7326   23.2637 C   0  0  0  0  0  0
  -25.9222  -30.8442   21.3602 C   0  0  0  0  0  0
  -26.0011  -29.4786   20.7136 C   0  0  0  0  0  0
  -27.2015  -28.7369   20.7000 C   0  0  0  0  0  0
  -26.0659  -26.9460   19.5040 C   0  0  0  0  0  0
  -24.8695  -27.6885   19.5158 C   0  0  0  0  0  0
  -23.6025  -29.8195   20.1688 C   0  0  0  0  0  0
  -25.4104  -36.3124   24.0345 C   0  0  1  0  0  0
  -20.5852  -28.3661   23.1344 C   0  0  2  0  0  0
  -20.6756  -26.9406   22.5442 C   0  0  0  0  0  0
  -19.5746  -26.6380   21.5226 C   0  0  0  0  0  0
  -18.1904  -26.7944   22.1593 C   0  0  0  0  0  0
  -19.1513  -28.8835   23.2922 C   0  0  0  0  0  0
  -18.9440  -30.1445   23.8917 C   0  0  0  0  0  0
  -17.6443  -30.6597   24.0543 C   0  0  0  0  0  0
  -25.9035  -34.9485   23.5145 C   0  0  0  0  0  0
  -16.5330  -29.9089   23.6318 C   0  0  0  0  0  0
  -16.7254  -28.6490   23.0364 C   0  0  0  0  0  0
  -26.4464  -31.6578   25.0729 C   0  0  0  0  0  0
  -25.3740  -31.3673   26.1474 C   0  0  0  0  0  0
  -27.0264  -30.3013   24.6076 C   0  0  0  0  0  0
  -27.6063  -32.4269   25.7495 C   0  0  0  0  0  0
  -27.5596  -37.1810   24.8446 C   0  0  0  0  0  0
  -21.4116  -29.3042   22.3755 N   0  0  0  0  0  0
  -26.4284  -37.3813   23.9424 N   0  0  0  0  0  0
  -24.6613  -31.0838   22.1005 N   0  0  0  0  0  0
  -23.4174  -28.8224   23.3040 O   0  0  0  0  0  0
  -28.4270  -26.7700   20.0661 O   0  0  0  0  0  0
  -26.5593  -34.8934   22.4705 O   0  0  0  0  0  0
  -23.5307  -32.1462   23.7531 O   0  0  0  0  0  0
  -30.1220  -18.6660   23.0682 C   0  0  0  0  0  0
  -31.1404  -17.4383   20.7573 C   0  0  0  0  0  0
  -29.9305  -17.2799   22.8719 C   0  0  0  0  0  0
  -30.8190  -19.4409   22.1176 C   0  0  0  0  0  0
  -30.4406  -16.6494   21.7056 C   0  0  0  0  0  0
  -31.3340  -18.8154   20.9659 C   0  0  0  0  0  0
  -29.8893  -23.0309   22.1926 C   0  0  0  0  0  0
  -27.6644  -16.4306   23.6350 C   0  0  0  0  0  0
  -29.1666  -16.5017   23.9344 C   0  0  0  0  0  0
  -28.7794  -23.9796   22.6576 C   0  0  0  0  0  0
  -29.8838  -21.6077   22.7683 C   0  0  0  0  0  0
  -28.8011  -25.3871   22.0175 C   0  0  0  0  0  0
  -28.4121  -25.4182   20.5273 C   0  0  0  0  0  0
  -30.1742  -15.2613   21.5018 N   0  0  0  0  0  0
  -31.0156  -20.8191   22.2808 N   0  0  0  0  0  0
  -30.7612  -23.3824   21.3893 O   0  0  0  0  0  0
  -32.0020  -19.5512   20.0424 F   0  0  0  0  0  0
  -31.4665  -12.3884   19.0990 H   0  0  0  0  0  0
  -30.3249  -11.2668   19.7749 H   0  0  0  0  0  0
  -29.7243  -11.8060   17.4052 H   0  0  0  0  0  0
  -29.6693  -13.5098   17.7786 H   0  0  0  0  0  0
  -27.8084  -11.3284   18.7843 H   0  0  0  0  0  0
  -27.3631  -12.6853   17.7871 H   0  0  0  0  0  0
  -27.7276  -14.2606   19.6169 H   0  0  0  0  0  0
  -28.6743  -11.8932   21.3004 H   0  0  0  0  0  0
  -28.4609  -13.5026   21.8977 H   0  0  0  0  0  0
  -25.2761   -9.5695   22.4746 H   0  0  0  0  0  0
  -24.0010   -7.4644   22.7477 H   0  0  0  0  0  0
  -21.0843   -8.8758   19.8952 H   0  0  0  0  0  0
  -22.3700  -10.9655   19.6145 H   0  0  0  0  0  0
  -21.2007   -7.6156   23.9714 H   0  0  0  0  0  0
  -21.1483   -6.0521   25.9074 H   0  0  0  0  0  0
  -22.0593   -2.7611   23.2821 H   0  0  0  0  0  0
  -22.4076  -11.9892   22.4742 H   0  0  0  0  0  0
  -21.1126  -13.1318   22.2586 H   0  0  0  0  0  0
  -24.6644  -15.8408   20.5096 H   0  0  0  0  0  0
  -26.2830  -15.6226   20.0711 H   0  0  0  0  0  0
  -26.7090  -32.5552   23.1189 H   0  0  0  0  0  0
  -25.0030  -33.9807   25.0481 H   0  0  0  0  0  0
  -22.6849  -31.3103   21.4125 H   0  0  0  0  0  0
  -23.3767  -35.9637   23.3259 H   0  0  0  0  0  0
  -24.3592  -36.8983   22.2065 H   0  0  0  0  0  0
  -23.7218  -37.6511   23.6669 H   0  0  0  0  0  0
  -26.0287  -31.6094   20.5895 H   0  0  0  0  0  0
  -26.8122  -30.9007   21.9752 H   0  0  0  0  0  0
  -28.0981  -29.1383   21.1507 H   0  0  0  0  0  0
  -26.0754  -25.9848   19.0098 H   0  0  0  0  0  0
  -23.9800  -27.2828   19.0532 H   0  0  0  0  0  0
  -23.7005  -30.5897   19.4029 H   0  0  0  0  0  0
  -22.7298  -29.2294   19.8831 H   0  0  0  0  0  0
  -25.1275  -36.1987   25.0836 H   0  0  0  0  0  0
  -20.9957  -28.3223   24.1463 H   0  0  0  0  0  0
  -20.5650  -26.2281   23.3632 H   0  0  0  0  0  0
  -21.6625  -26.7453   22.1240 H   0  0  0  0  0  0
  -19.6898  -25.6286   21.1267 H   0  0  0  0  0  0
  -19.6711  -27.3176   20.6754 H   0  0  0  0  0  0
  -17.4228  -26.6798   21.3930 H   0  0  0  0  0  0
  -18.0209  -26.0040   22.8923 H   0  0  0  0  0  0
  -19.7920  -30.7252   24.2291 H   0  0  0  0  0  0
  -17.5004  -31.6293   24.5110 H   0  0  0  0  0  0
  -15.5330  -30.2989   23.7629 H   0  0  0  0  0  0
  -15.8661  -28.0797   22.7084 H   0  0  0  0  0  0
  -24.6006  -30.6890   25.7853 H   0  0  0  0  0  0
  -24.8796  -32.2794   26.4831 H   0  0  0  0  0  0
  -25.8123  -30.8980   27.0289 H   0  0  0  0  0  0
  -26.2796  -29.6817   24.1098 H   0  0  0  0  0  0
  -27.3986  -29.7207   25.4524 H   0  0  0  0  0  0
  -27.8652  -30.4310   23.9238 H   0  0  0  0  0  0
  -27.2707  -33.3565   26.2109 H   0  0  0  0  0  0
  -28.3872  -32.6825   25.0322 H   0  0  0  0  0  0
  -28.0723  -31.8351   26.5385 H   0  0  0  0  0  0
  -28.2585  -38.0140   24.7538 H   0  0  0  0  0  0
  -28.1123  -36.2679   24.6185 H   0  0  0  0  0  0
  -27.2343  -37.1353   25.8855 H   0  0  0  0  0  0
  -20.9258  -29.8789   21.7010 H   0  0  0  0  0  0
  -26.0180  -38.2887   24.1440 H   0  0  0  0  0  0
  -29.7291  -19.1310   23.9613 H   0  0  0  0  0  0
  -31.5250  -17.0180   19.8418 H   0  0  0  0  0  0
  -27.1370  -15.9102   24.4344 H   0  0  0  0  0  0
  -27.4644  -15.9003   22.7040 H   0  0  0  0  0  0
  -27.2318  -17.4279   23.5475 H   0  0  0  0  0  0
  -29.3183  -16.9792   24.9038 H   0  0  0  0  0  0
  -29.5813  -15.4988   24.0408 H   0  0  0  0  0  0
  -28.8744  -24.0779   23.7388 H   0  0  0  0  0  0
  -27.8150  -23.5043   22.4795 H   0  0  0  0  0  0
  -28.9373  -21.1351   22.5009 H   0  0  0  0  0  0
  -29.9182  -21.6687   23.8561 H   0  0  0  0  0  0
  -29.7864  -25.8380   22.1478 H   0  0  0  0  0  0
  -28.1101  -26.0241   22.5718 H   0  0  0  0  0  0
  -27.4521  -24.9212   20.3888 H   0  0  0  0  0  0
  -29.1318  -24.8575   19.9311 H   0  0  0  0  0  0
  -29.3928  -14.8840   22.0143 H   0  0  0  0  0  0
  -31.4767  -21.2691   21.4905 H   0  0  0  0  0  0
  1 25  1  0  0  0
  1 30  2  0  0  0
  1 84  1  0  0  0
  2  3  1  0  0  0
  2 25  1  0  0  0
  2 88  1  0  0  0
  2 89  1  0  0  0
  3  4  1  0  0  0
  3 90  1  0  0  0
  3 91  1  0  0  0
  4  5  1  0  0  0
  4 92  1  0  0  0
  4 93  1  0  0  0
  5  6  1  0  0  0
  5 26  1  0  0  0
  5 94  1  0  0  0
  6 25  1  0  0  0
  6 95  1  0  0  0
  6 96  1  0  0  0
  7  8  2  0  0  0
  7 26  1  0  0  0
  7 29  1  0  0  0
  8  9  1  0  0  0
  8 22  1  0  0  0
  9 10  1  0  0  0
  9 27  2  0  0  0
 10 11  2  0  0  0
 10 15  1  0  0  0
 11 12  1  0  0  0
 11 97  1  0  0  0
 12 13  2  0  0  0
 12 98  1  0  0  0
 13 14  1  0  0  0
 13 31  1  0  0  0
 14 15  2  0  0  0
 14 99  1  0  0  0
 15100  1  0  0  0
 16 17  2  0  0  0
 16 21  1  0  0  0
 16 31  1  0  0  0
 17 18  1  0  0  0
 17101  1  0  0  0
 18 19  2  0  0  0
 18102  1  0  0  0
 19 20  1  0  0  0
 19 24  1  0  0  0
 20 21  2  0  0  0
 20103  1  0  0  0
 21 23  1  0  0  0
 22 28  1  0  0  0
 22 32  2  0  0  0
 26 27  1  0  0  0
 28104  1  0  0  0
 28105  1  0  0  0
 29106  1  0  0  0
 29107  1  0  0  0
 33 34  1  0  0  0
 33 66  1  0  0  0
 33 70  2  0  0  0
 34 36  1  0  0  0
 34 59  1  0  0  0
 34108  1  0  0  0
 35 44  2  0  0  0
 35 45  1  0  0  0
 35 68  1  0  0  0
 36 56  1  0  0  0
 36109  1  0  0  0
 37 39  1  0  0  0
 37 47  1  0  0  0
 37 66  1  0  0  0
 37110  1  0  0  0
 38 43  2  0  0  0
 38 46  1  0  0  0
 38 47  1  0  0  0
 39 64  1  0  0  0
 39 67  2  0  0  0
 40 52  1  0  0  0
 40 53  2  0  0  0
 40 58  1  0  0  0
 41111  1  0  0  0
 41112  1  0  0  0
 41113  1  0  0  0
 41 48  1  0  0  0
 42 43  1  0  0  0
 42 66  1  0  0  0
 42114  1  0  0  0
 42115  1  0  0  0
 43 44  1  0  0  0
 44116  1  0  0  0
 45 46  2  0  0  0
 45117  1  0  0  0
 46118  1  0  0  0
 47119  1  0  0  0
 47120  1  0  0  0
 48 56  1  0  0  0
 48 65  1  0  0  0
 48121  1  0  0  0
 49 50  1  0  0  0
 49 53  1  0  0  0
 49 64  1  0  0  0
 49122  1  0  0  0
 50 51  1  0  0  0
 50123  1  0  0  0
 50124  1  0  0  0
 51 52  1  0  0  0
 51125  1  0  0  0
 51126  1  0  0  0
 52127  1  0  0  0
 52128  1  0  0  0
 53 54  1  0  0  0
 54 55  2  0  0  0
 54129  1  0  0  0
 55 57  1  0  0  0
 55130  1  0  0  0
 56 69  2  0  0  0
 57 58  2  0  0  0
 57131  1  0  0  0
 58132  1  0  0  0
 59 60  1  0  0  0
 59 61  1  0  0  0
 59 62  1  0  0  0
 60133  1  0  0  0
 60134  1  0  0  0
 60135  1  0  0  0
 61136  1  0  0  0
 61137  1  0  0  0
 61138  1  0  0  0
 62139  1  0  0  0
 62140  1  0  0  0
 62141  1  0  0  0
 63 65  1  0  0  0
 63142  1  0  0  0
 63143  1  0  0  0
 63144  1  0  0  0
 64145  1  0  0  0
 65146  1  0  0  0
 68 83  1  0  0  0
 71 73  2  0  0  0
 71 74  1  0  0  0
 71147  1  0  0  0
 72 75  2  0  0  0
 72 76  1  0  0  0
 72148  1  0  0  0
 73 75  1  0  0  0
 73 79  1  0  0  0
 74 76  2  0  0  0
 74 85  1  0  0  0
 75 84  1  0  0  0
 76 87  1  0  0  0
 77 80  1  0  0  0
 77 81  1  0  0  0
 77 86  2  0  0  0
 78 79  1  0  0  0
 78149  1  0  0  0
 78150  1  0  0  0
 78151  1  0  0  0
 79152  1  0  0  0
 79153  1  0  0  0
 80 82  1  0  0  0
 80154  1  0  0  0
 80155  1  0  0  0
 81 85  1  0  0  0
 81156  1  0  0  0
 81157  1  0  0  0
 82 83  1  0  0  0
 82158  1  0  0  0
 82159  1  0  0  0
 83160  1  0  0  0
 83161  1  0  0  0
 84162  1  0  0  0
 85163  1  0  0  0
M  ISO  4   1 100  68 101  83 101  84 100
M  END
> <chiral flag>
0

> <version>
0

> <s_m_source_file>
/data/baiqing/PycharmProjects/Reinvent-master-3.2/result/LINK_invent/BTK/process_docking_weight1_custom_product_contain_oxygen_bond_distance_aromatic_linkinvent_7_9_3/rearranged_h_0123.sdf

> <i_m_source_file_index>
60

> <r_mmod_Potential_Energy-OPLS-2005>
-89.0273742675781

> <r_mmod_Stretch_Energy-OPLS-2005>
34.7432556152344

> <r_mmod_Bend_Energy-OPLS-2005>
97.5115585327148

> <r_mmod_Torsional_Energy-OPLS-2005>
211.905319213867

> <r_mmod_Improper_Torsional_Energy-OPLS-2005>
6.62346363067627

> <r_mmod_Van_der_Waal_Energy-OPLS-2005>
158.003021240234

> <r_mmod_Electrostatic_Energy-OPLS-2005>
-382.555541992188

> <r_mmod_Solvation_Energy-OPLS-2005>
-222.407363891602

> <b_mmod_Minimization_Converged-OPLS-2005>
0

> <r_mmod_RMS_Derivative-OPLS-2005>
1.71410167217255

$$$$
60
                    3D
 Structure written by MMmdl.
159167  0  0  1  0            999 V2000
  -30.6035  -14.7587   20.5505 C   0  0  0  0  0  0
  -30.4452  -12.4943   19.4588 C   0  0  0  0  0  0
  -29.5094  -12.5502   18.2280 C   0  0  0  0  0  0
  -28.0311  -12.3672   18.6296 C   0  0  0  0  0  0
  -27.6476  -13.2208   19.8654 C   0  0  2  0  0  0
  -28.6946  -13.0344   20.9777 C   0  0  0  0  0  0
  -25.2526  -13.8165   20.5681 C   0  0  0  0  0  0
  -24.1805  -13.0426   20.9188 C   0  0  0  0  0  0
  -24.6385  -11.6902   20.8732 C   0  0  0  0  0  0
  -23.9057  -10.4286   21.0399 C   0  0  0  0  0  0
  -24.3612   -9.4203   21.9177 C   0  0  0  0  0  0
  -23.6287   -8.2240   22.0743 C   0  0  0  0  0  0
  -22.4271   -8.0279   21.3534 C   0  0  0  0  0  0
  -21.9907   -9.0253   20.4634 C   0  0  0  0  0  0
  -22.7234  -10.2131   20.3045 C   0  0  0  0  0  0
  -21.6846   -6.0734   22.5278 C   0  0  0  0  0  0
  -21.4010   -6.5633   23.8213 C   0  0  0  0  0  0
  -21.3665   -5.6790   24.9178 C   0  0  0  0  0  0
  -21.6047   -4.3050   24.7226 C   0  0  0  0  0  0
  -21.8820   -3.8146   23.4347 C   0  0  0  0  0  0
  -21.9194   -4.6964   22.3401 C   0  0  0  0  0  0
  -22.7836  -13.5221   21.1873 C   0  0  0  0  0  0
  -22.1662   -4.2151   21.0978 F   0  0  0  0  0  0
  -21.5633   -3.4538   25.7739 F   0  0  0  0  0  0
  -29.9812  -13.5162   20.4384 N   0  0  0  0  0  0
  -26.2947  -12.9350   20.3313 N   0  0  0  0  0  0
  -25.9309  -11.6499   20.5734 N   0  0  0  0  0  0
  -22.0488  -12.8201   22.0420 N   0  0  0  0  0  0
  -25.4234  -15.1883   20.4104 N   0  0  0  0  0  0
  -31.7531  -14.8528   20.1032 O   0  0  0  0  0  0
  -21.6634   -6.8877   21.4235 O   0  0  0  0  0  0
  -22.3528  -14.5540   20.6742 O   0  0  0  0  0  0
  -24.6315  -31.8540   23.1954 C   0  0  0  0  0  0
  -25.9145  -32.4738   23.8309 C   0  0  1  0  0  0
  -27.2273  -27.2689   20.1368 C   0  0  0  0  0  0
  -25.5949  -33.8545   24.2250 N   0  0  0  0  0  0
  -23.4278  -30.4747   21.5391 C   0  0  2  0  0  0
  -24.8753  -28.9119   20.1171 C   0  0  0  0  0  0
  -22.7492  -29.4615   22.4920 C   0  0  0  0  0  0
  -18.0286  -28.1393   22.8485 C   0  0  0  0  0  0
  -24.1487  -36.7271   23.2638 C   0  0  0  0  0  0
  -25.9705  -30.7711   21.3703 C   0  0  0  0  0  0
  -26.0463  -29.3904   20.7203 C   0  0  0  0  0  0
  -27.2278  -28.5827   20.7138 C   0  0  0  0  0  0
  -26.0344  -26.8450   19.5180 C   0  0  0  0  0  0
  -24.8734  -27.6463   19.5056 C   0  0  0  0  0  0
  -23.6457  -29.7997   20.1586 C   0  0  0  0  0  0
  -25.4110  -36.3054   24.0322 C   0  0  1  0  0  0
  -20.5890  -28.3707   23.1265 C   0  0  2  0  0  0
  -20.6778  -26.9423   22.5411 C   0  0  0  0  0  0
  -19.5750  -26.6391   21.5215 C   0  0  0  0  0  0
  -18.1928  -26.7930   22.1627 C   0  0  0  0  0  0
  -19.1542  -28.8866   23.2869 C   0  0  0  0  0  0
  -18.9469  -30.1467   23.8887 C   0  0  0  0  0  0
  -17.6467  -30.6591   24.0569 C   0  0  0  0  0  0
  -25.9059  -34.9429   23.5085 C   0  0  0  0  0  0
  -16.5359  -29.9090   23.6337 C   0  0  0  0  0  0
  -16.7275  -28.6511   23.0352 C   0  0  0  0  0  0
  -26.4519  -31.6558   25.0702 C   0  0  0  0  0  0
  -25.3750  -31.3691   26.1426 C   0  0  0  0  0  0
  -27.0378  -30.2982   24.6176 C   0  0  0  0  0  0
  -27.6078  -32.4293   25.7477 C   0  0  0  0  0  0
  -27.5580  -37.1765   24.8447 C   0  0  0  0  0  0
  -21.4201  -29.3054   22.3650 N   0  0  0  0  0  0
  -26.4265  -37.3770   23.9436 N   0  0  0  0  0  0
  -24.6958  -31.0506   22.0924 N   0  0  0  0  0  0
  -23.4185  -28.8165   23.3033 O   0  0  0  0  0  0
  -28.3378  -26.4022   20.1121 O   0  0  0  0  0  0
  -26.5633  -34.8907   22.4655 O   0  0  0  0  0  0
  -23.5469  -32.1368   23.7258 O   0  0  0  0  0  0
  -31.1826  -20.0993   20.8554 C   0  0  0  0  0  0
  -31.6285  -17.7011   21.1087 C   0  0  0  0  0  0
  -29.8535  -19.8787   20.4364 C   0  0  0  0  0  0
  -29.4249  -18.4747   20.3953 C   0  0  0  0  0  0
  -30.3106  -17.3505   20.7396 C   0  0  0  0  0  0
  -32.0538  -19.0405   21.1679 C   0  0  0  0  0  0
  -29.0363  -21.1490   20.0631 C   0  0  0  0  0  0
  -29.2034  -22.4752   20.4556 C   0  0  0  0  0  0
  -28.4647  -23.7236   19.9128 C   0  0  0  0  0  0
  -26.9437  -18.5543   21.0127 C   0  0  0  0  0  0
  -28.9795  -15.8406   22.0914 C   0  0  0  0  0  0
  -27.9948  -18.1818   19.9554 C   0  0  0  0  0  0
  -28.2393  -25.0575   20.7744 C   0  0  0  0  0  0
  -29.9033  -15.9231   20.9548 N   0  0  0  0  0  0
  -28.0049  -23.7149   18.7672 O   0  0  0  0  0  0
  -33.3232  -19.3174   21.5515 F   0  0  0  0  0  0
  -31.4761  -12.6534   19.1394 H   0  0  0  0  0  0
  -30.4400  -11.4978   19.9034 H   0  0  0  0  0  0
  -29.7971  -11.7924   17.4976 H   0  0  0  0  0  0
  -29.6287  -13.5134   17.7290 H   0  0  0  0  0  0
  -27.8732  -11.3106   18.8494 H   0  0  0  0  0  0
  -27.3784  -12.6039   17.7876 H   0  0  0  0  0  0
  -27.6714  -14.2647   19.5515 H   0  0  0  0  0  0
  -28.7657  -11.9763   21.2338 H   0  0  0  0  0  0
  -28.3782  -13.4755   21.9133 H   0  0  0  0  0  0
  -25.2748   -9.5689   22.4758 H   0  0  0  0  0  0
  -24.0000   -7.4631   22.7456 H   0  0  0  0  0  0
  -21.0842   -8.8772   19.8937 H   0  0  0  0  0  0
  -22.3687  -10.9676   19.6162 H   0  0  0  0  0  0
  -21.1991   -7.6140   23.9720 H   0  0  0  0  0  0
  -21.1490   -6.0515   25.9083 H   0  0  0  0  0  0
  -22.0592   -2.7607   23.2848 H   0  0  0  0  0  0
  -22.4099  -11.9843   22.4777 H   0  0  0  0  0  0
  -21.1114  -13.1231   22.2647 H   0  0  0  0  0  0
  -24.6606  -15.8454   20.5275 H   0  0  0  0  0  0
  -26.2830  -15.6259   20.1080 H   0  0  0  0  0  0
  -26.7225  -32.5381   23.1060 H   0  0  0  0  0  0
  -25.0108  -33.9685   25.0403 H   0  0  0  0  0  0
  -22.7252  -31.2963   21.3867 H   0  0  0  0  0  0
  -23.3755  -35.9592   23.3249 H   0  0  0  0  0  0
  -24.3605  -36.8949   22.2066 H   0  0  0  0  0  0
  -23.7214  -37.6445   23.6694 H   0  0  0  0  0  0
  -26.1003  -31.5275   20.5950 H   0  0  0  0  0  0
  -26.8524  -30.8288   21.9964 H   0  0  0  0  0  0
  -28.1300  -28.9514   21.1818 H   0  0  0  0  0  0
  -25.9987  -25.8739   19.0443 H   0  0  0  0  0  0
  -23.9765  -27.2731   19.0312 H   0  0  0  0  0  0
  -23.7691  -30.5721   19.3985 H   0  0  0  0  0  0
  -22.7644  -29.2317   19.8557 H   0  0  0  0  0  0
  -25.1280  -36.1880   25.0807 H   0  0  0  0  0  0
  -20.9990  -28.3292   24.1380 H   0  0  0  0  0  0
  -20.5682  -26.2322   23.3624 H   0  0  0  0  0  0
  -21.6643  -26.7447   22.1193 H   0  0  0  0  0  0
  -19.6918  -25.6300   21.1244 H   0  0  0  0  0  0
  -19.6682  -27.3211   20.6745 H   0  0  0  0  0  0
  -17.4199  -26.6689   21.4025 H   0  0  0  0  0  0
  -18.0326  -26.0069   22.9022 H   0  0  0  0  0  0
  -19.7946  -30.7292   24.2248 H   0  0  0  0  0  0
  -17.5017  -31.6267   24.5181 H   0  0  0  0  0  0
  -15.5357  -30.2992   23.7659 H   0  0  0  0  0  0
  -15.8676  -28.0829   22.7066 H   0  0  0  0  0  0
  -24.5946  -30.7018   25.7750 H   0  0  0  0  0  0
  -24.8927  -32.2853   26.4839 H   0  0  0  0  0  0
  -25.8092  -30.8884   27.0202 H   0  0  0  0  0  0
  -26.2966  -29.6698   24.1232 H   0  0  0  0  0  0
  -27.4110  -29.7269   25.4683 H   0  0  0  0  0  0
  -27.8805  -30.4267   23.9383 H   0  0  0  0  0  0
  -27.2708  -33.3611   26.2025 H   0  0  0  0  0  0
  -28.3907  -32.6817   25.0314 H   0  0  0  0  0  0
  -28.0715  -31.8424   26.5414 H   0  0  0  0  0  0
  -28.2510  -38.0147   24.7614 H   0  0  0  0  0  0
  -28.1165  -36.2685   24.6110 H   0  0  0  0  0  0
  -27.2327  -37.1212   25.8851 H   0  0  0  0  0  0
  -20.9390  -29.8771   21.6843 H   0  0  0  0  0  0
  -26.0123  -38.2811   24.1532 H   0  0  0  0  0  0
  -31.5739  -21.1036   20.9138 H   0  0  0  0  0  0
  -32.3316  -16.9417   21.4155 H   0  0  0  0  0  0
  -28.2530  -20.9741   19.3391 H   0  0  0  0  0  0
  -29.9530  -22.6928   21.2011 H   0  0  0  0  0  0
  -25.9370  -18.3536   20.6454 H   0  0  0  0  0  0
  -26.9918  -19.6105   21.2762 H   0  0  0  0  0  0
  -27.0737  -17.9829   21.9303 H   0  0  0  0  0  0
  -28.9143  -16.7844   22.6339 H   0  0  0  0  0  0
  -29.3219  -15.1225   22.8384 H   0  0  0  0  0  0
  -27.9679  -15.5993   21.7676 H   0  0  0  0  0  0
  -27.8923  -17.1301   19.6900 H   0  0  0  0  0  0
  -27.7959  -18.7252   19.0309 H   0  0  0  0  0  0
  -28.9582  -25.0472   21.5929 H   0  0  0  0  0  0
  -27.2599  -24.9697   21.2452 H   0  0  0  0  0  0
  1 25  1  0  0  0
  1 30  2  0  0  0
  1 84  1  0  0  0
  2  3  1  0  0  0
  2 25  1  0  0  0
  2 87  1  0  0  0
  2 88  1  0  0  0
  3  4  1  0  0  0
  3 89  1  0  0  0
  3 90  1  0  0  0
  4  5  1  0  0  0
  4 91  1  0  0  0
  4 92  1  0  0  0
  5  6  1  0  0  0
  5 26  1  0  0  0
  5 93  1  0  0  0
  6 25  1  0  0  0
  6 94  1  0  0  0
  6 95  1  0  0  0
  7  8  2  0  0  0
  7 26  1  0  0  0
  7 29  1  0  0  0
  8  9  1  0  0  0
  8 22  1  0  0  0
  9 10  1  0  0  0
  9 27  2  0  0  0
 10 11  2  0  0  0
 10 15  1  0  0  0
 11 12  1  0  0  0
 11 96  1  0  0  0
 12 13  2  0  0  0
 12 97  1  0  0  0
 13 14  1  0  0  0
 13 31  1  0  0  0
 14 15  2  0  0  0
 14 98  1  0  0  0
 15 99  1  0  0  0
 16 17  2  0  0  0
 16 21  1  0  0  0
 16 31  1  0  0  0
 17 18  1  0  0  0
 17100  1  0  0  0
 18 19  2  0  0  0
 18101  1  0  0  0
 19 20  1  0  0  0
 19 24  1  0  0  0
 20 21  2  0  0  0
 20102  1  0  0  0
 21 23  1  0  0  0
 22 28  1  0  0  0
 22 32  2  0  0  0
 26 27  1  0  0  0
 28103  1  0  0  0
 28104  1  0  0  0
 29105  1  0  0  0
 29106  1  0  0  0
 33 34  1  0  0  0
 33 66  1  0  0  0
 33 70  2  0  0  0
 34 36  1  0  0  0
 34 59  1  0  0  0
 34107  1  0  0  0
 35 44  2  0  0  0
 35 45  1  0  0  0
 35 68  1  0  0  0
 36 56  1  0  0  0
 36108  1  0  0  0
 37 39  1  0  0  0
 37 47  1  0  0  0
 37 66  1  0  0  0
 37109  1  0  0  0
 38 43  2  0  0  0
 38 46  1  0  0  0
 38 47  1  0  0  0
 39 64  1  0  0  0
 39 67  2  0  0  0
 40 52  1  0  0  0
 40 53  2  0  0  0
 40 58  1  0  0  0
 41110  1  0  0  0
 41111  1  0  0  0
 41112  1  0  0  0
 41 48  1  0  0  0
 42 43  1  0  0  0
 42 66  1  0  0  0
 42113  1  0  0  0
 42114  1  0  0  0
 43 44  1  0  0  0
 44115  1  0  0  0
 45 46  2  0  0  0
 45116  1  0  0  0
 46117  1  0  0  0
 47118  1  0  0  0
 47119  1  0  0  0
 48 56  1  0  0  0
 48 65  1  0  0  0
 48120  1  0  0  0
 49 50  1  0  0  0
 49 53  1  0  0  0
 49 64  1  0  0  0
 49121  1  0  0  0
 50 51  1  0  0  0
 50122  1  0  0  0
 50123  1  0  0  0
 51 52  1  0  0  0
 51124  1  0  0  0
 51125  1  0  0  0
 52126  1  0  0  0
 52127  1  0  0  0
 53 54  1  0  0  0
 54 55  2  0  0  0
 54128  1  0  0  0
 55 57  1  0  0  0
 55129  1  0  0  0
 56 69  2  0  0  0
 57 58  2  0  0  0
 57130  1  0  0  0
 58131  1  0  0  0
 59 60  1  0  0  0
 59 61  1  0  0  0
 59 62  1  0  0  0
 60132  1  0  0  0
 60133  1  0  0  0
 60134  1  0  0  0
 61135  1  0  0  0
 61136  1  0  0  0
 61137  1  0  0  0
 62138  1  0  0  0
 62139  1  0  0  0
 62140  1  0  0  0
 63 65  1  0  0  0
 63141  1  0  0  0
 63142  1  0  0  0
 63143  1  0  0  0
 64144  1  0  0  0
 65145  1  0  0  0
 68 83  1  0  0  0
 71 73  2  0  0  0
 71 76  1  0  0  0
 71146  1  0  0  0
 72 75  1  0  0  0
 72 76  2  0  0  0
 72147  1  0  0  0
 73 74  1  0  0  0
 73 77  1  0  0  0
 74 75  2  0  0  0
 74 82  1  0  0  0
 75 84  1  0  0  0
 76 86  1  0  0  0
 77 78  2  0  0  0
 77148  1  0  0  0
 78 79  1  0  0  0
 78149  1  0  0  0
 79 83  1  0  0  0
 79 85  2  0  0  0
 80 82  1  0  0  0
 80150  1  0  0  0
 80151  1  0  0  0
 80152  1  0  0  0
 81 84  1  0  0  0
 81153  1  0  0  0
 81154  1  0  0  0
 81155  1  0  0  0
 82156  1  0  0  0
 82157  1  0  0  0
 83158  1  0  0  0
 83159  1  0  0  0
M  ISO  4   1 100  68 101  83 101  84 100
M  END
> <chiral flag>
0

> <version>
0

> <s_m_source_file>
/data/baiqing/PycharmProjects/Reinvent-master-3.2/result/LINK_invent/BTK/process_docking_weight1_custom_product_contain_oxygen_bond_distance_aromatic_linkinvent_7_9_3/rearranged_h_0123.sdf

> <i_m_source_file_index>
61

> <r_mmod_Potential_Energy-OPLS-2005>
387.303955078125

> <r_mmod_Stretch_Energy-OPLS-2005>
144.212249755859

> <r_mmod_Bend_Energy-OPLS-2005>
181.27214050293

> <r_mmod_Torsional_Energy-OPLS-2005>
321.891418457031

> <r_mmod_Improper_Torsional_Energy-OPLS-2005>
7.69699048995972

> <r_mmod_Van_der_Waal_Energy-OPLS-2005>
144.254913330078

> <r_mmod_Electrostatic_Energy-OPLS-2005>
-283.9052734375

> <r_mmod_Solvation_Energy-OPLS-2005>
-203.473342895508

> <b_mmod_Minimization_Converged-OPLS-2005>
0

> <r_mmod_RMS_Derivative-OPLS-2005>
1.46286487579346

$$$$
61
                    3D
 Structure written by MMmdl.
165173  0  0  1  0            999 V2000
  -30.6623  -14.5341   20.5597 C   0  0  0  0  0  0
  -30.4237  -12.3383   19.4335 C   0  0  0  0  0  0
  -29.4939  -12.5142   18.2137 C   0  0  0  0  0  0
  -28.0142  -12.3679   18.6237 C   0  0  0  0  0  0
  -27.6578  -13.2120   19.8773 C   0  0  2  0  0  0
  -28.7011  -12.9937   20.9944 C   0  0  0  0  0  0
  -25.2571  -13.8190   20.5708 C   0  0  0  0  0  0
  -24.1820  -13.0458   20.9206 C   0  0  0  0  0  0
  -24.6379  -11.6924   20.8757 C   0  0  0  0  0  0
  -23.9050  -10.4305   21.0418 C   0  0  0  0  0  0
  -24.3605   -9.4220   21.9192 C   0  0  0  0  0  0
  -23.6285   -8.2248   22.0759 C   0  0  0  0  0  0
  -22.4268   -8.0291   21.3546 C   0  0  0  0  0  0
  -21.9904   -9.0262   20.4644 C   0  0  0  0  0  0
  -22.7227  -10.2148   20.3058 C   0  0  0  0  0  0
  -21.6852   -6.0746   22.5280 C   0  0  0  0  0  0
  -21.4012   -6.5650   23.8214 C   0  0  0  0  0  0
  -21.3656   -5.6801   24.9175 C   0  0  0  0  0  0
  -21.6043   -4.3064   24.7222 C   0  0  0  0  0  0
  -21.8818   -3.8156   23.4341 C   0  0  0  0  0  0
  -21.9189   -4.6973   22.3403 C   0  0  0  0  0  0
  -22.7840  -13.5241   21.1880 C   0  0  0  0  0  0
  -22.1663   -4.2164   21.0978 F   0  0  0  0  0  0
  -21.5627   -3.4545   25.7728 F   0  0  0  0  0  0
  -30.0199  -13.3326   20.4442 N   0  0  0  0  0  0
  -26.2999  -12.9357   20.3391 N   0  0  0  0  0  0
  -25.9306  -11.6513   20.5787 N   0  0  0  0  0  0
  -22.0489  -12.8211   22.0428 N   0  0  0  0  0  0
  -25.4328  -15.1903   20.4112 N   0  0  0  0  0  0
  -31.8010  -14.6717   20.1020 O   0  0  0  0  0  0
  -21.6633   -6.8886   21.4242 O   0  0  0  0  0  0
  -22.3519  -14.5555   20.6749 O   0  0  0  0  0  0
  -24.6183  -31.8653   23.2071 C   0  0  0  0  0  0
  -25.9059  -32.4819   23.8377 C   0  0  1  0  0  0
  -27.2322  -27.3947   20.1091 C   0  0  0  0  0  0
  -25.5885  -33.8615   24.2298 N   0  0  0  0  0  0
  -23.4101  -30.4870   21.5486 C   0  0  2  0  0  0
  -24.8585  -28.9421   20.1212 C   0  0  0  0  0  0
  -22.7432  -29.4645   22.4979 C   0  0  0  0  0  0
  -18.0282  -28.1384   22.8489 C   0  0  0  0  0  0
  -24.1484  -36.7310   23.2641 C   0  0  0  0  0  0
  -25.9422  -30.8163   21.3692 C   0  0  0  0  0  0
  -26.0204  -29.4448   20.7225 C   0  0  0  0  0  0
  -27.2139  -28.6775   20.7156 C   0  0  0  0  0  0
  -26.0565  -26.9159   19.5006 C   0  0  0  0  0  0
  -24.8715  -27.6770   19.5084 C   0  0  0  0  0  0
  -23.6233  -29.8160   20.1658 C   0  0  0  0  0  0
  -25.4109  -36.3111   24.0327 C   0  0  1  0  0  0
  -20.5871  -28.3683   23.1304 C   0  0  2  0  0  0
  -20.6768  -26.9415   22.5411 C   0  0  0  0  0  0
  -19.5750  -26.6386   21.5210 C   0  0  0  0  0  0
  -18.1932  -26.7931   22.1622 C   0  0  0  0  0  0
  -19.1527  -28.8851   23.2897 C   0  0  0  0  0  0
  -18.9456  -30.1447   23.8922 C   0  0  0  0  0  0
  -17.6458  -30.6589   24.0567 C   0  0  0  0  0  0
  -25.9039  -34.9476   23.5117 C   0  0  0  0  0  0
  -16.5353  -29.9086   23.6323 C   0  0  0  0  0  0
  -16.7268  -28.6497   23.0358 C   0  0  0  0  0  0
  -26.4474  -31.6612   25.0721 C   0  0  0  0  0  0
  -25.3722  -31.3707   26.1457 C   0  0  0  0  0  0
  -27.0312  -30.3049   24.6119 C   0  0  0  0  0  0
  -27.6048  -32.4337   25.7487 C   0  0  0  0  0  0
  -27.5585  -37.1809   24.8461 C   0  0  0  0  0  0
  -21.4155  -29.3040   22.3713 N   0  0  0  0  0  0
  -26.4294  -37.3795   23.9407 N   0  0  0  0  0  0
  -24.6754  -31.0710   22.0998 N   0  0  0  0  0  0
  -23.4192  -28.8188   23.3036 O   0  0  0  0  0  0
  -28.3755  -26.6198   20.0323 O   0  0  0  0  0  0
  -26.5618  -34.8934   22.4693 O   0  0  0  0  0  0
  -23.5361  -32.1422   23.7435 O   0  0  0  0  0  0
  -31.9081  -20.0382   21.3351 C   0  0  0  0  0  0
  -29.3066  -19.4854   20.5599 C   0  0  0  0  0  0
  -30.9588  -21.0823   21.3680 C   0  0  0  0  0  0
  -30.2361  -18.3979   20.6079 C   0  0  0  0  0  0
  -31.5795  -18.7208   20.9499 C   0  0  0  0  0  0
  -29.6440  -20.8335   20.8874 C   0  0  0  0  0  0
  -32.6115  -22.9130   21.8454 C   0  0  0  0  0  0
  -31.3739  -22.3912   21.9041 C   0  0  0  0  0  0
  -29.7779  -17.0035   20.2218 C   0  0  0  0  0  0
  -33.2084  -17.4922   19.4393 C   0  0  0  0  0  0
  -32.7302  -17.7231   20.8795 C   0  0  0  0  0  0
  -29.9648  -15.7949   21.1867 C   0  0  0  0  0  0
  -28.0499  -24.2250   20.9955 C   0  0  0  0  0  0
  -28.6111  -25.6871   21.1090 C   0  0  0  0  0  0
  -28.8907  -23.1355   20.2504 C   0  0  0  0  0  0
  -29.1300  -16.8365   19.1458 N   0  0  0  0  0  0
  -28.6424  -21.8068   20.7986 O   0  0  0  0  0  0
  -31.4671  -12.4435   19.1310 H   0  0  0  0  0  0
  -30.3360  -11.3302   19.8419 H   0  0  0  0  0  0
  -29.7392  -11.7859   17.4394 H   0  0  0  0  0  0
  -29.6525  -13.4995   17.7725 H   0  0  0  0  0  0
  -27.8266  -11.3121   18.8234 H   0  0  0  0  0  0
  -27.3626  -12.6382   17.7931 H   0  0  0  0  0  0
  -27.7013  -14.2598   19.5792 H   0  0  0  0  0  0
  -28.6940  -11.9469   21.3049 H   0  0  0  0  0  0
  -28.4580  -13.5504   21.8978 H   0  0  0  0  0  0
  -25.2751   -9.5707   22.4762 H   0  0  0  0  0  0
  -24.0010   -7.4637   22.7470 H   0  0  0  0  0  0
  -21.0849   -8.8769   19.8931 H   0  0  0  0  0  0
  -22.3689  -10.9685   19.6165 H   0  0  0  0  0  0
  -21.2012   -7.6160   23.9722 H   0  0  0  0  0  0
  -21.1477   -6.0531   25.9080 H   0  0  0  0  0  0
  -22.0600   -2.7618   23.2835 H   0  0  0  0  0  0
  -22.4105  -11.9845   22.4766 H   0  0  0  0  0  0
  -21.1116  -13.1234   22.2676 H   0  0  0  0  0  0
  -24.6710  -15.8528   20.5083 H   0  0  0  0  0  0
  -26.2914  -15.6180   20.0837 H   0  0  0  0  0  0
  -26.7131  -32.5518   23.1142 H   0  0  0  0  0  0
  -25.0015  -33.9758   25.0431 H   0  0  0  0  0  0
  -22.6998  -31.3038   21.4053 H   0  0  0  0  0  0
  -23.3747  -35.9639   23.3305 H   0  0  0  0  0  0
  -24.3570  -36.8930   22.2053 H   0  0  0  0  0  0
  -23.7237  -37.6508   23.6668 H   0  0  0  0  0  0
  -26.0590  -31.5803   20.5984 H   0  0  0  0  0  0
  -26.8275  -30.8729   21.9900 H   0  0  0  0  0  0
  -28.1149  -29.0628   21.1713 H   0  0  0  0  0  0
  -26.0578  -25.9502   19.0157 H   0  0  0  0  0  0
  -23.9802  -27.2863   19.0362 H   0  0  0  0  0  0
  -23.7351  -30.5880   19.4042 H   0  0  0  0  0  0
  -22.7456  -29.2391   19.8712 H   0  0  0  0  0  0
  -25.1291  -36.1975   25.0818 H   0  0  0  0  0  0
  -20.9969  -28.3268   24.1425 H   0  0  0  0  0  0
  -20.5667  -26.2294   23.3602 H   0  0  0  0  0  0
  -21.6643  -26.7451   22.1218 H   0  0  0  0  0  0
  -19.6912  -25.6296   21.1244 H   0  0  0  0  0  0
  -19.6690  -27.3187   20.6735 H   0  0  0  0  0  0
  -17.4197  -26.6678   21.4031 H   0  0  0  0  0  0
  -18.0335  -26.0063   22.9007 H   0  0  0  0  0  0
  -19.7933  -30.7245   24.2319 H   0  0  0  0  0  0
  -17.5020  -31.6274   24.5164 H   0  0  0  0  0  0
  -15.5356  -30.3009   23.7620 H   0  0  0  0  0  0
  -15.8665  -28.0814   22.7080 H   0  0  0  0  0  0
  -24.5901  -30.7056   25.7778 H   0  0  0  0  0  0
  -24.8898  -32.2849   26.4926 H   0  0  0  0  0  0
  -25.8061  -30.8860   27.0210 H   0  0  0  0  0  0
  -26.2863  -29.6804   24.1169 H   0  0  0  0  0  0
  -27.4064  -29.7299   25.4596 H   0  0  0  0  0  0
  -27.8709  -30.4351   23.9285 H   0  0  0  0  0  0
  -27.2672  -33.3629   26.2086 H   0  0  0  0  0  0
  -28.3850  -32.6908   25.0314 H   0  0  0  0  0  0
  -28.0728  -31.8447   26.5382 H   0  0  0  0  0  0
  -28.2608  -38.0105   24.7529 H   0  0  0  0  0  0
  -28.1076  -36.2640   24.6274 H   0  0  0  0  0  0
  -27.2293  -37.1445   25.8859 H   0  0  0  0  0  0
  -20.9332  -29.8753   21.6911 H   0  0  0  0  0  0
  -26.0183  -38.2868   24.1418 H   0  0  0  0  0  0
  -32.9241  -20.2426   21.6396 H   0  0  0  0  0  0
  -28.2912  -19.2786   20.2528 H   0  0  0  0  0  0
  -32.8237  -23.8778   22.2845 H   0  0  0  0  0  0
  -33.4312  -22.4033   21.3595 H   0  0  0  0  0  0
  -30.6054  -22.9592   22.4101 H   0  0  0  0  0  0
  -34.0323  -16.7792   19.4167 H   0  0  0  0  0  0
  -33.5616  -18.4199   18.9884 H   0  0  0  0  0  0
  -32.4134  -17.0947   18.8075 H   0  0  0  0  0  0
  -32.4753  -16.7853   21.3614 H   0  0  0  0  0  0
  -33.5708  -18.0995   21.4644 H   0  0  0  0  0  0
  -28.9775  -15.5542   21.5688 H   0  0  0  0  0  0
  -30.5234  -16.1082   22.0666 H   0  0  0  0  0  0
  -27.0285  -24.2377   20.6162 H   0  0  0  0  0  0
  -27.9606  -23.8700   22.0229 H   0  0  0  0  0  0
  -29.6886  -25.6380   21.2693 H   0  0  0  0  0  0
  -28.2173  -26.1316   22.0243 H   0  0  0  0  0  0
  -29.9368  -23.4210   20.2178 H   0  0  0  0  0  0
  -28.5917  -23.1210   19.2017 H   0  0  0  0  0  0
  -29.0477  -17.7084   18.6340 H   0  0  0  0  0  0
  1 25  1  0  0  0
  1 30  2  0  0  0
  1 82  1  0  0  0
  2  3  1  0  0  0
  2 25  1  0  0  0
  2 88  1  0  0  0
  2 89  1  0  0  0
  3  4  1  0  0  0
  3 90  1  0  0  0
  3 91  1  0  0  0
  4  5  1  0  0  0
  4 92  1  0  0  0
  4 93  1  0  0  0
  5  6  1  0  0  0
  5 26  1  0  0  0
  5 94  1  0  0  0
  6 25  1  0  0  0
  6 95  1  0  0  0
  6 96  1  0  0  0
  7  8  2  0  0  0
  7 26  1  0  0  0
  7 29  1  0  0  0
  8  9  1  0  0  0
  8 22  1  0  0  0
  9 10  1  0  0  0
  9 27  2  0  0  0
 10 11  2  0  0  0
 10 15  1  0  0  0
 11 12  1  0  0  0
 11 97  1  0  0  0
 12 13  2  0  0  0
 12 98  1  0  0  0
 13 14  1  0  0  0
 13 31  1  0  0  0
 14 15  2  0  0  0
 14 99  1  0  0  0
 15100  1  0  0  0
 16 17  2  0  0  0
 16 21  1  0  0  0
 16 31  1  0  0  0
 17 18  1  0  0  0
 17101  1  0  0  0
 18 19  2  0  0  0
 18102  1  0  0  0
 19 20  1  0  0  0
 19 24  1  0  0  0
 20 21  2  0  0  0
 20103  1  0  0  0
 21 23  1  0  0  0
 22 28  1  0  0  0
 22 32  2  0  0  0
 26 27  1  0  0  0
 28104  1  0  0  0
 28105  1  0  0  0
 29106  1  0  0  0
 29107  1  0  0  0
 33 34  1  0  0  0
 33 66  1  0  0  0
 33 70  2  0  0  0
 34 36  1  0  0  0
 34 59  1  0  0  0
 34108  1  0  0  0
 35 44  2  0  0  0
 35 45  1  0  0  0
 35 68  1  0  0  0
 36 56  1  0  0  0
 36109  1  0  0  0
 37 39  1  0  0  0
 37 47  1  0  0  0
 37 66  1  0  0  0
 37110  1  0  0  0
 38 43  2  0  0  0
 38 46  1  0  0  0
 38 47  1  0  0  0
 39 64  1  0  0  0
 39 67  2  0  0  0
 40 52  1  0  0  0
 40 53  2  0  0  0
 40 58  1  0  0  0
 41111  1  0  0  0
 41112  1  0  0  0
 41113  1  0  0  0
 41 48  1  0  0  0
 42 43  1  0  0  0
 42 66  1  0  0  0
 42114  1  0  0  0
 42115  1  0  0  0
 43 44  1  0  0  0
 44116  1  0  0  0
 45 46  2  0  0  0
 45117  1  0  0  0
 46118  1  0  0  0
 47119  1  0  0  0
 47120  1  0  0  0
 48 56  1  0  0  0
 48 65  1  0  0  0
 48121  1  0  0  0
 49 50  1  0  0  0
 49 53  1  0  0  0
 49 64  1  0  0  0
 49122  1  0  0  0
 50 51  1  0  0  0
 50123  1  0  0  0
 50124  1  0  0  0
 51 52  1  0  0  0
 51125  1  0  0  0
 51126  1  0  0  0
 52127  1  0  0  0
 52128  1  0  0  0
 53 54  1  0  0  0
 54 55  2  0  0  0
 54129  1  0  0  0
 55 57  1  0  0  0
 55130  1  0  0  0
 56 69  2  0  0  0
 57 58  2  0  0  0
 57131  1  0  0  0
 58132  1  0  0  0
 59 60  1  0  0  0
 59 61  1  0  0  0
 59 62  1  0  0  0
 60133  1  0  0  0
 60134  1  0  0  0
 60135  1  0  0  0
 61136  1  0  0  0
 61137  1  0  0  0
 61138  1  0  0  0
 62139  1  0  0  0
 62140  1  0  0  0
 62141  1  0  0  0
 63 65  1  0  0  0
 63142  1  0  0  0
 63143  1  0  0  0
 63144  1  0  0  0
 64145  1  0  0  0
 65146  1  0  0  0
 68 84  1  0  0  0
 71 73  2  0  0  0
 71 75  1  0  0  0
 71147  1  0  0  0
 72 74  1  0  0  0
 72 76  2  0  0  0
 72148  1  0  0  0
 73 76  1  0  0  0
 73 78  1  0  0  0
 74 75  2  0  0  0
 74 79  1  0  0  0
 75 81  1  0  0  0
 76 87  1  0  0  0
 77 78  2  0  0  0
 77149  1  0  0  0
 77150  1  0  0  0
 78151  1  0  0  0
 79 82  1  0  0  0
 79 86  2  0  0  0
 80 81  1  0  0  0
 80152  1  0  0  0
 80153  1  0  0  0
 80154  1  0  0  0
 81155  1  0  0  0
 81156  1  0  0  0
 82157  1  0  0  0
 82158  1  0  0  0
 83 84  1  0  0  0
 83 85  1  0  0  0
 83159  1  0  0  0
 83160  1  0  0  0
 84161  1  0  0  0
 84162  1  0  0  0
 85 87  1  0  0  0
 85163  1  0  0  0
 85164  1  0  0  0
 86165  1  0  0  0
M  ISO  4   1 100  68 101  82 100  84 101
M  END
> <chiral flag>
0

> <version>
0

> <s_m_source_file>
/data/baiqing/PycharmProjects/Reinvent-master-3.2/result/LINK_invent/BTK/process_docking_weight1_custom_product_contain_oxygen_bond_distance_aromatic_linkinvent_7_9_3/rearranged_h_0123.sdf

> <i_m_source_file_index>
62

> <r_mmod_Potential_Energy-OPLS-2005>
86.241081237793

> <r_mmod_Stretch_Energy-OPLS-2005>
58.0954475402832

> <r_mmod_Bend_Energy-OPLS-2005>
134.350250244141

> <r_mmod_Torsional_Energy-OPLS-2005>
249.988662719727

> <r_mmod_Improper_Torsional_Energy-OPLS-2005>
3.87276649475098

> <r_mmod_Van_der_Waal_Energy-OPLS-2005>
148.472808837891

> <r_mmod_Electrostatic_Energy-OPLS-2005>
-337.270141601562

> <r_mmod_Solvation_Energy-OPLS-2005>
-190.238433837891

> <b_mmod_Minimization_Converged-OPLS-2005>
0

> <r_mmod_RMS_Derivative-OPLS-2005>
1.65502488613129

$$$$
62
                    3D
 Structure written by MMmdl.
154162  0  0  1  0            999 V2000
  -30.6415  -14.7319   20.4754 C   0  0  0  0  0  0
  -30.4263  -12.4542   19.4634 C   0  0  0  0  0  0
  -29.5033  -12.5029   18.2280 C   0  0  0  0  0  0
  -28.0308  -12.3314   18.6475 C   0  0  0  0  0  0
  -27.6389  -13.2354   19.8463 C   0  0  2  0  0  0
  -28.6866  -13.1825   20.9783 C   0  0  0  0  0  0
  -25.2510  -13.8206   20.5722 C   0  0  0  0  0  0
  -24.1803  -13.0448   20.9234 C   0  0  0  0  0  0
  -24.6392  -11.6925   20.8763 C   0  0  0  0  0  0
  -23.9070  -10.4299   21.0423 C   0  0  0  0  0  0
  -24.3619   -9.4212   21.9204 C   0  0  0  0  0  0
  -23.6294   -8.2246   22.0759 C   0  0  0  0  0  0
  -22.4278   -8.0284   21.3545 C   0  0  0  0  0  0
  -21.9916   -9.0259   20.4650 C   0  0  0  0  0  0
  -22.7243  -10.2141   20.3066 C   0  0  0  0  0  0
  -21.6854   -6.0738   22.5280 C   0  0  0  0  0  0
  -21.4015   -6.5643   23.8214 C   0  0  0  0  0  0
  -21.3658   -5.6795   24.9176 C   0  0  0  0  0  0
  -21.6042   -4.3055   24.7227 C   0  0  0  0  0  0
  -21.8822   -3.8149   23.4347 C   0  0  0  0  0  0
  -21.9195   -4.6966   22.3403 C   0  0  0  0  0  0
  -22.7824  -13.5236   21.1886 C   0  0  0  0  0  0
  -22.1666   -4.2153   21.0979 F   0  0  0  0  0  0
  -21.5625   -3.4537   25.7739 F   0  0  0  0  0  0
  -29.9843  -13.5263   20.3851 N   0  0  0  0  0  0
  -26.2930  -12.9418   20.3287 N   0  0  0  0  0  0
  -25.9325  -11.6555   20.5763 N   0  0  0  0  0  0
  -22.0451  -12.8221   22.0423 N   0  0  0  0  0  0
  -25.4181  -15.1929   20.4124 N   0  0  0  0  0  0
  -31.8364  -14.7878   20.1701 O   0  0  0  0  0  0
  -21.6639   -6.8882   21.4241 O   0  0  0  0  0  0
  -22.3514  -14.5544   20.6731 O   0  0  0  0  0  0
  -24.6318  -31.8555   23.1978 C   0  0  0  0  0  0
  -25.9140  -32.4748   23.8330 C   0  0  1  0  0  0
  -27.2168  -27.2601   20.1263 C   0  0  0  0  0  0
  -25.5933  -33.8553   24.2251 N   0  0  0  0  0  0
  -23.4285  -30.4795   21.5407 C   0  0  2  0  0  0
  -24.8744  -28.9270   20.1101 C   0  0  0  0  0  0
  -22.7507  -29.4610   22.4892 C   0  0  0  0  0  0
  -18.0299  -28.1388   22.8467 C   0  0  0  0  0  0
  -24.1498  -36.7273   23.2644 C   0  0  0  0  0  0
  -25.9758  -30.7687   21.3789 C   0  0  0  0  0  0
  -26.0475  -29.3926   20.7170 C   0  0  0  0  0  0
  -27.2222  -28.5725   20.7116 C   0  0  0  0  0  0
  -26.0174  -26.8636   19.4919 C   0  0  0  0  0  0
  -24.8645  -27.6709   19.4869 C   0  0  0  0  0  0
  -23.6474  -29.8159   20.1563 C   0  0  0  0  0  0
  -25.4128  -36.3066   24.0332 C   0  0  1  0  0  0
  -20.5906  -28.3702   23.1255 C   0  0  2  0  0  0
  -20.6795  -26.9419   22.5398 C   0  0  0  0  0  0
  -19.5768  -26.6382   21.5202 C   0  0  0  0  0  0
  -18.1945  -26.7925   22.1610 C   0  0  0  0  0  0
  -19.1554  -28.8857   23.2857 C   0  0  0  0  0  0
  -18.9477  -30.1455   23.8878 C   0  0  0  0  0  0
  -17.6477  -30.6583   24.0557 C   0  0  0  0  0  0
  -25.9069  -34.9434   23.5093 C   0  0  0  0  0  0
  -16.5365  -29.9084   23.6331 C   0  0  0  0  0  0
  -16.7286  -28.6507   23.0339 C   0  0  0  0  0  0
  -26.4509  -31.6578   25.0721 C   0  0  0  0  0  0
  -25.3729  -31.3731   26.1442 C   0  0  0  0  0  0
  -27.0375  -30.2996   24.6216 C   0  0  0  0  0  0
  -27.6055  -32.4332   25.7490 C   0  0  0  0  0  0
  -27.5587  -37.1799   24.8472 C   0  0  0  0  0  0
  -21.4213  -29.3052   22.3644 N   0  0  0  0  0  0
  -26.4305  -37.3763   23.9411 N   0  0  0  0  0  0
  -24.6975  -31.0532   22.0946 N   0  0  0  0  0  0
  -23.4214  -28.8152   23.2988 O   0  0  0  0  0  0
  -28.3122  -26.3644   20.1818 O   0  0  0  0  0  0
  -26.5647  -34.8914   22.4665 O   0  0  0  0  0  0
  -23.5468  -32.1373   23.7277 O   0  0  0  0  0  0
  -31.5132  -19.7507   21.8606 C   0  0  0  0  0  0
  -31.5501  -17.3229   21.7983 C   0  0  0  0  0  0
  -30.3439  -19.8532   21.0675 C   0  0  0  0  0  0
  -29.7739  -18.5683   20.6445 C   0  0  0  0  0  0
  -30.3915  -17.2729   20.9933 C   0  0  0  0  0  0
  -32.1029  -18.5336   22.2194 C   0  0  0  0  0  0
  -29.9968  -21.3646   20.8624 C   0  0  0  0  0  0
  -29.0573  -22.2320   20.3382 C   0  0  0  0  0  0
  -28.5167  -18.5876   19.7970 C   0  0  0  0  0  0
  -29.2437  -23.8241   20.3789 C   0  0  0  0  0  0
  -28.0609  -24.8813   20.0837 C   0  0  0  0  0  0
  -29.9083  -15.9031   20.6580 N   0  0  0  0  0  0
  -33.2190  -18.5292   22.9869 F   0  0  0  0  0  0
  -31.4667  -12.5706   19.1549 H   0  0  0  0  0  0
  -30.3663  -11.4814   19.9535 H   0  0  0  0  0  0
  -29.7811  -11.7227   17.5181 H   0  0  0  0  0  0
  -29.6311  -13.4531   17.7066 H   0  0  0  0  0  0
  -27.8898  -11.2835   18.9158 H   0  0  0  0  0  0
  -27.3701  -12.5204   17.8003 H   0  0  0  0  0  0
  -27.6290  -14.2550   19.4611 H   0  0  0  0  0  0
  -28.7232  -12.1918   21.4342 H   0  0  0  0  0  0
  -28.4273  -13.8808   21.7759 H   0  0  0  0  0  0
  -25.2759   -9.5692   22.4788 H   0  0  0  0  0  0
  -24.0002   -7.4636   22.7475 H   0  0  0  0  0  0
  -21.0851   -8.8782   19.8953 H   0  0  0  0  0  0
  -22.3704  -10.9687   19.6177 H   0  0  0  0  0  0
  -21.2006   -7.6149   23.9722 H   0  0  0  0  0  0
  -21.1478   -6.0521   25.9082 H   0  0  0  0  0  0
  -22.0599   -2.7610   23.2846 H   0  0  0  0  0  0
  -22.4047  -11.9876   22.4813 H   0  0  0  0  0  0
  -21.1067  -13.1257   22.2620 H   0  0  0  0  0  0
  -24.6470  -15.8427   20.5229 H   0  0  0  0  0  0
  -26.2564  -15.6320   20.0562 H   0  0  0  0  0  0
  -26.7205  -32.5393   23.1074 H   0  0  0  0  0  0
  -25.0058  -33.9684   25.0383 H   0  0  0  0  0  0
  -22.7252  -31.3022   21.3939 H   0  0  0  0  0  0
  -23.3766  -35.9596   23.3305 H   0  0  0  0  0  0
  -24.3586  -36.8896   22.2055 H   0  0  0  0  0  0
  -23.7251  -37.6473   23.6668 H   0  0  0  0  0  0
  -26.1222  -31.5347   20.6159 H   0  0  0  0  0  0
  -26.8502  -30.8093   22.0164 H   0  0  0  0  0  0
  -28.1201  -28.9217   21.2013 H   0  0  0  0  0  0
  -25.9354  -25.9041   19.0046 H   0  0  0  0  0  0
  -23.9660  -27.3088   19.0063 H   0  0  0  0  0  0
  -23.7787  -30.5944   19.4037 H   0  0  0  0  0  0
  -22.7645  -29.2546   19.8455 H   0  0  0  0  0  0
  -25.1313  -36.1912   25.0827 H   0  0  0  0  0  0
  -20.9992  -28.3281   24.1377 H   0  0  0  0  0  0
  -20.5701  -26.2307   23.3600 H   0  0  0  0  0  0
  -21.6661  -26.7451   22.1176 H   0  0  0  0  0  0
  -19.6942  -25.6292   21.1233 H   0  0  0  0  0  0
  -19.6709  -27.3187   20.6725 H   0  0  0  0  0  0
  -17.4217  -26.6660   21.4013 H   0  0  0  0  0  0
  -18.0353  -26.0078   22.9016 H   0  0  0  0  0  0
  -19.7960  -30.7265   24.2240 H   0  0  0  0  0  0
  -17.5042  -31.6260   24.5163 H   0  0  0  0  0  0
  -15.5368  -30.2979   23.7672 H   0  0  0  0  0  0
  -15.8685  -28.0825   22.7056 H   0  0  0  0  0  0
  -24.5904  -30.7078   25.7769 H   0  0  0  0  0  0
  -24.8920  -32.2901   26.4850 H   0  0  0  0  0  0
  -25.8052  -30.8925   27.0226 H   0  0  0  0  0  0
  -26.2969  -29.6716   24.1243 H   0  0  0  0  0  0
  -27.4069  -29.7282   25.4741 H   0  0  0  0  0  0
  -27.8835  -30.4268   23.9458 H   0  0  0  0  0  0
  -27.2653  -33.3640   26.2046 H   0  0  0  0  0  0
  -28.3874  -32.6886   25.0322 H   0  0  0  0  0  0
  -28.0711  -31.8476   26.5428 H   0  0  0  0  0  0
  -28.2605  -38.0094   24.7521 H   0  0  0  0  0  0
  -28.1091  -36.2630   24.6304 H   0  0  0  0  0  0
  -27.2305  -37.1440   25.8875 H   0  0  0  0  0  0
  -20.9408  -29.8782   21.6851 H   0  0  0  0  0  0
  -26.0186  -38.2838   24.1404 H   0  0  0  0  0  0
  -32.0108  -20.6346   22.2317 H   0  0  0  0  0  0
  -32.0429  -16.4207   22.1293 H   0  0  0  0  0  0
  -30.7876  -21.9804   21.2674 H   0  0  0  0  0  0
  -28.1680  -21.8482   19.8584 H   0  0  0  0  0  0
  -27.6483  -18.8180   20.4140 H   0  0  0  0  0  0
  -28.3441  -17.6315   19.3034 H   0  0  0  0  0  0
  -28.5932  -19.3484   19.0203 H   0  0  0  0  0  0
  -30.0402  -24.0446   19.6684 H   0  0  0  0  0  0
  -29.6647  -24.0671   21.3554 H   0  0  0  0  0  0
  -27.2325  -24.6430   20.7526 H   0  0  0  0  0  0
  -27.7085  -24.6700   19.0743 H   0  0  0  0  0  0
  -28.9075  -15.7854   20.6249 H   0  0  0  0  0  0
  1 25  1  0  0  0
  1 30  2  0  0  0
  1 82  1  0  0  0
  2  3  1  0  0  0
  2 25  1  0  0  0
  2 84  1  0  0  0
  2 85  1  0  0  0
  3  4  1  0  0  0
  3 86  1  0  0  0
  3 87  1  0  0  0
  4  5  1  0  0  0
  4 88  1  0  0  0
  4 89  1  0  0  0
  5  6  1  0  0  0
  5 26  1  0  0  0
  5 90  1  0  0  0
  6 25  1  0  0  0
  6 91  1  0  0  0
  6 92  1  0  0  0
  7  8  2  0  0  0
  7 26  1  0  0  0
  7 29  1  0  0  0
  8  9  1  0  0  0
  8 22  1  0  0  0
  9 10  1  0  0  0
  9 27  2  0  0  0
 10 11  2  0  0  0
 10 15  1  0  0  0
 11 12  1  0  0  0
 11 93  1  0  0  0
 12 13  2  0  0  0
 12 94  1  0  0  0
 13 14  1  0  0  0
 13 31  1  0  0  0
 14 15  2  0  0  0
 14 95  1  0  0  0
 15 96  1  0  0  0
 16 17  2  0  0  0
 16 21  1  0  0  0
 16 31  1  0  0  0
 17 18  1  0  0  0
 17 97  1  0  0  0
 18 19  2  0  0  0
 18 98  1  0  0  0
 19 20  1  0  0  0
 19 24  1  0  0  0
 20 21  2  0  0  0
 20 99  1  0  0  0
 21 23  1  0  0  0
 22 28  1  0  0  0
 22 32  2  0  0  0
 26 27  1  0  0  0
 28100  1  0  0  0
 28101  1  0  0  0
 29102  1  0  0  0
 29103  1  0  0  0
 33 34  1  0  0  0
 33 66  1  0  0  0
 33 70  2  0  0  0
 34 36  1  0  0  0
 34 59  1  0  0  0
 34104  1  0  0  0
 35 44  2  0  0  0
 35 45  1  0  0  0
 35 68  1  0  0  0
 36 56  1  0  0  0
 36105  1  0  0  0
 37 39  1  0  0  0
 37 47  1  0  0  0
 37 66  1  0  0  0
 37106  1  0  0  0
 38 43  2  0  0  0
 38 46  1  0  0  0
 38 47  1  0  0  0
 39 64  1  0  0  0
 39 67  2  0  0  0
 40 52  1  0  0  0
 40 53  2  0  0  0
 40 58  1  0  0  0
 41107  1  0  0  0
 41108  1  0  0  0
 41109  1  0  0  0
 41 48  1  0  0  0
 42 43  1  0  0  0
 42 66  1  0  0  0
 42110  1  0  0  0
 42111  1  0  0  0
 43 44  1  0  0  0
 44112  1  0  0  0
 45 46  2  0  0  0
 45113  1  0  0  0
 46114  1  0  0  0
 47115  1  0  0  0
 47116  1  0  0  0
 48 56  1  0  0  0
 48 65  1  0  0  0
 48117  1  0  0  0
 49 50  1  0  0  0
 49 53  1  0  0  0
 49 64  1  0  0  0
 49118  1  0  0  0
 50 51  1  0  0  0
 50119  1  0  0  0
 50120  1  0  0  0
 51 52  1  0  0  0
 51121  1  0  0  0
 51122  1  0  0  0
 52123  1  0  0  0
 52124  1  0  0  0
 53 54  1  0  0  0
 54 55  2  0  0  0
 54125  1  0  0  0
 55 57  1  0  0  0
 55126  1  0  0  0
 56 69  2  0  0  0
 57 58  2  0  0  0
 57127  1  0  0  0
 58128  1  0  0  0
 59 60  1  0  0  0
 59 61  1  0  0  0
 59 62  1  0  0  0
 60129  1  0  0  0
 60130  1  0  0  0
 60131  1  0  0  0
 61132  1  0  0  0
 61133  1  0  0  0
 61134  1  0  0  0
 62135  1  0  0  0
 62136  1  0  0  0
 62137  1  0  0  0
 63 65  1  0  0  0
 63138  1  0  0  0
 63139  1  0  0  0
 63140  1  0  0  0
 64141  1  0  0  0
 65142  1  0  0  0
 68 81  1  0  0  0
 71 73  2  0  0  0
 71 76  1  0  0  0
 71143  1  0  0  0
 72 75  1  0  0  0
 72 76  2  0  0  0
 72144  1  0  0  0
 73 74  1  0  0  0
 73 77  1  0  0  0
 74 75  2  0  0  0
 74 79  1  0  0  0
 75 82  1  0  0  0
 76 83  1  0  0  0
 77 78  2  0  0  0
 77145  1  0  0  0
 78 80  1  0  0  0
 78146  1  0  0  0
 79147  1  0  0  0
 79148  1  0  0  0
 79149  1  0  0  0
 80 81  1  0  0  0
 80150  1  0  0  0
 80151  1  0  0  0
 81152  1  0  0  0
 81153  1  0  0  0
 82154  1  0  0  0
M  ISO  4   1 100  68 101  81 101  82 100
M  END
> <chiral flag>
0

> <version>
0

> <s_m_source_file>
/data/baiqing/PycharmProjects/Reinvent-master-3.2/result/LINK_invent/BTK/process_docking_weight1_custom_product_contain_oxygen_bond_distance_aromatic_linkinvent_7_9_3/rearranged_h_0123.sdf

> <i_m_source_file_index>
63

> <r_mmod_Potential_Energy-OPLS-2005>
246.428558349609

> <r_mmod_Stretch_Energy-OPLS-2005>
133.72575378418

> <r_mmod_Bend_Energy-OPLS-2005>
215.6962890625

> <r_mmod_Torsional_Energy-OPLS-2005>
223.707290649414

> <r_mmod_Improper_Torsional_Energy-OPLS-2005>
5.87300825119019

> <r_mmod_Van_der_Waal_Energy-OPLS-2005>
146.973037719727

> <r_mmod_Electrostatic_Energy-OPLS-2005>
-358.359436035156

> <r_mmod_Solvation_Energy-OPLS-2005>
-205.101150512695

> <b_mmod_Minimization_Converged-OPLS-2005>
0

> <r_mmod_RMS_Derivative-OPLS-2005>
1.18876934051514

$$$$
63
                    3D
 Structure written by MMmdl.
161169  0  0  1  0            999 V2000
  -30.6889  -14.4851   20.4353 C   0  0  0  0  0  0
  -30.4157  -12.2740   19.4477 C   0  0  0  0  0  0
  -29.5065  -12.4721   18.2168 C   0  0  0  0  0  0
  -28.0217  -12.3512   18.6126 C   0  0  0  0  0  0
  -27.6573  -13.2051   19.8574 C   0  0  2  0  0  0
  -28.6999  -13.0474   20.9895 C   0  0  0  0  0  0
  -25.2587  -13.8157   20.5596 C   0  0  0  0  0  0
  -24.1854  -13.0445   20.9154 C   0  0  0  0  0  0
  -24.6402  -11.6909   20.8721 C   0  0  0  0  0  0
  -23.9071  -10.4299   21.0401 C   0  0  0  0  0  0
  -24.3633   -9.4224   21.9179 C   0  0  0  0  0  0
  -23.6320   -8.2260   22.0751 C   0  0  0  0  0  0
  -22.4309   -8.0281   21.3527 C   0  0  0  0  0  0
  -21.9928   -9.0255   20.4633 C   0  0  0  0  0  0
  -22.7241  -10.2144   20.3047 C   0  0  0  0  0  0
  -21.6862   -6.0735   22.5270 C   0  0  0  0  0  0
  -21.4014   -6.5646   23.8209 C   0  0  0  0  0  0
  -21.3660   -5.6791   24.9165 C   0  0  0  0  0  0
  -21.6068   -4.3065   24.7220 C   0  0  0  0  0  0
  -21.8822   -3.8147   23.4333 C   0  0  0  0  0  0
  -21.9201   -4.6969   22.3400 C   0  0  0  0  0  0
  -22.7882  -13.5247   21.1831 C   0  0  0  0  0  0
  -22.1665   -4.2159   21.0966 F   0  0  0  0  0  0
  -21.5654   -3.4542   25.7722 F   0  0  0  0  0  0
  -30.0335  -13.2979   20.4276 N   0  0  0  0  0  0
  -26.3006  -12.9305   20.3250 N   0  0  0  0  0  0
  -25.9323  -11.6475   20.5722 N   0  0  0  0  0  0
  -22.0543  -12.8214   22.0384 N   0  0  0  0  0  0
  -25.4334  -15.1865   20.3958 N   0  0  0  0  0  0
  -31.8933  -14.5906   20.2044 O   0  0  0  0  0  0
  -21.6670   -6.8890   21.4234 O   0  0  0  0  0  0
  -22.3567  -14.5554   20.6697 O   0  0  0  0  0  0
  -24.6097  -31.8682   23.2149 C   0  0  0  0  0  0
  -25.8991  -32.4840   23.8435 C   0  0  1  0  0  0
  -27.2463  -27.4749   20.0697 C   0  0  0  0  0  0
  -25.5839  -33.8646   24.2333 N   0  0  0  0  0  0
  -23.3982  -30.4914   21.5537 C   0  0  2  0  0  0
  -24.8437  -28.9634   20.1157 C   0  0  0  0  0  0
  -22.7386  -29.4645   22.5021 C   0  0  0  0  0  0
  -18.0261  -28.1380   22.8504 C   0  0  0  0  0  0
  -24.1469  -36.7348   23.2642 C   0  0  0  0  0  0
  -25.9223  -30.8410   21.3697 C   0  0  0  0  0  0
  -25.9990  -29.4794   20.7160 C   0  0  0  0  0  0
  -27.1967  -28.7361   20.7001 C   0  0  0  0  0  0
  -26.0710  -26.9587   19.4782 C   0  0  0  0  0  0
  -24.8736  -27.6997   19.5004 C   0  0  0  0  0  0
  -23.6010  -29.8213   20.1680 C   0  0  0  0  0  0
  -25.4099  -36.3147   24.0330 C   0  0  1  0  0  0
  -20.5843  -28.3643   23.1349 C   0  0  2  0  0  0
  -20.6729  -26.9380   22.5440 C   0  0  0  0  0  0
  -19.5708  -26.6374   21.5231 C   0  0  0  0  0  0
  -18.1889  -26.7928   22.1635 C   0  0  0  0  0  0
  -19.1508  -28.8828   23.2930 C   0  0  0  0  0  0
  -18.9430  -30.1435   23.8937 C   0  0  0  0  0  0
  -17.6427  -30.6576   24.0564 C   0  0  0  0  0  0
  -25.9006  -34.9493   23.5139 C   0  0  0  0  0  0
  -16.5317  -29.9073   23.6333 C   0  0  0  0  0  0
  -16.7247  -28.6490   23.0366 C   0  0  0  0  0  0
  -26.4440  -31.6639   25.0771 C   0  0  0  0  0  0
  -25.3700  -31.3721   26.1517 C   0  0  0  0  0  0
  -27.0284  -30.3075   24.6173 C   0  0  0  0  0  0
  -27.6022  -32.4380   25.7504 C   0  0  0  0  0  0
  -27.5596  -37.1821   24.8449 C   0  0  0  0  0  0
  -21.4114  -29.3025   22.3764 N   0  0  0  0  0  0
  -26.4303  -37.3816   23.9396 N   0  0  0  0  0  0
  -24.6609  -31.0805   22.1043 N   0  0  0  0  0  0
  -23.4162  -28.8167   23.3055 O   0  0  0  0  0  0
  -28.4529  -26.8116   20.0752 O   0  0  0  0  0  0
  -26.5598  -34.8933   22.4715 O   0  0  0  0  0  0
  -23.5295  -32.1416   23.7561 O   0  0  0  0  0  0
  -30.7339  -17.6121   17.3503 C   0  0  0  0  0  0
  -30.7570  -16.5766   18.2961 C   0  0  0  0  0  0
  -29.1097  -17.7676   19.6176 C   0  0  0  0  0  0
  -29.0732  -18.8338   18.6764 C   0  0  0  0  0  0
  -29.8965  -18.7338   17.5143 C   0  0  0  0  0  0
  -29.9421  -16.6350   19.4498 C   0  0  0  0  0  0
  -28.1746  -19.9737   19.0118 C   0  0  0  0  0  0
  -28.0656  -21.1929   18.4434 C   0  0  0  0  0  0
  -28.1985  -24.4698   19.4482 C   0  0  0  0  0  0
  -27.6422  -23.6274   18.5650 C   0  0  0  0  0  0
  -29.9182  -19.7584   16.3912 C   0  0  0  0  0  0
  -25.7211  -22.0716   18.1983 C   0  0  0  0  0  0
  -28.7230  -25.8404   19.0727 C   0  0  0  0  0  0
  -27.0807  -22.2570   18.8861 C   0  0  1  0  0  0
  -29.8846  -15.5673   20.4103 N   0  0  0  0  0  0
  -31.4668  -12.3404   19.1623 H   0  0  0  0  0  0
  -30.2812  -11.2776   19.8724 H   0  0  0  0  0  0
  -29.7460  -11.7350   17.4485 H   0  0  0  0  0  0
  -29.6975  -13.4504   17.7713 H   0  0  0  0  0  0
  -27.8169  -11.2989   18.8113 H   0  0  0  0  0  0
  -27.3862  -12.6268   17.7691 H   0  0  0  0  0  0
  -27.6793  -14.2409   19.5219 H   0  0  0  0  0  0
  -28.6668  -12.0443   21.4112 H   0  0  0  0  0  0
  -28.4834  -13.7332   21.8100 H   0  0  0  0  0  0
  -25.2783   -9.5718   22.4766 H   0  0  0  0  0  0
  -24.0035   -7.4656   22.7479 H   0  0  0  0  0  0
  -21.0856   -8.8766   19.8944 H   0  0  0  0  0  0
  -22.3679  -10.9697   19.6178 H   0  0  0  0  0  0
  -21.1990   -7.6156   23.9696 H   0  0  0  0  0  0
  -21.1481   -6.0531   25.9068 H   0  0  0  0  0  0
  -22.0599   -2.7617   23.2825 H   0  0  0  0  0  0
  -22.4133  -11.9846   22.4735 H   0  0  0  0  0  0
  -21.1170  -13.1249   22.2625 H   0  0  0  0  0  0
  -24.6665  -15.8444   20.4825 H   0  0  0  0  0  0
  -26.2734  -15.6101   20.0228 H   0  0  0  0  0  0
  -26.7067  -32.5539   23.1213 H   0  0  0  0  0  0
  -24.9921  -33.9807   25.0430 H   0  0  0  0  0  0
  -22.6885  -31.3077   21.4174 H   0  0  0  0  0  0
  -23.3746  -35.9669   23.3301 H   0  0  0  0  0  0
  -24.3567  -36.8980   22.2066 H   0  0  0  0  0  0
  -23.7192  -37.6532   23.6663 H   0  0  0  0  0  0
  -26.0359  -31.6134   20.6083 H   0  0  0  0  0  0
  -26.8074  -30.8871   21.9928 H   0  0  0  0  0  0
  -28.0918  -29.1330   21.1578 H   0  0  0  0  0  0
  -26.0605  -25.9905   19.0014 H   0  0  0  0  0  0
  -23.9855  -27.2977   19.0331 H   0  0  0  0  0  0
  -23.6917  -30.5919   19.4012 H   0  0  0  0  0  0
  -22.7290  -29.2297   19.8822 H   0  0  0  0  0  0
  -25.1281  -36.2048   25.0827 H   0  0  0  0  0  0
  -20.9948  -28.3191   24.1466 H   0  0  0  0  0  0
  -20.5617  -26.2248   23.3624 H   0  0  0  0  0  0
  -21.6594  -26.7405   22.1235 H   0  0  0  0  0  0
  -19.6846  -25.6286   21.1250 H   0  0  0  0  0  0
  -19.6658  -27.3196   20.6766 H   0  0  0  0  0  0
  -17.4175  -26.6733   21.4018 H   0  0  0  0  0  0
  -18.0256  -26.0037   22.8991 H   0  0  0  0  0  0
  -19.7894  -30.7248   24.2319 H   0  0  0  0  0  0
  -17.4967  -31.6253   24.5158 H   0  0  0  0  0  0
  -15.5319  -30.2986   23.7601 H   0  0  0  0  0  0
  -15.8654  -28.0787   22.7104 H   0  0  0  0  0  0
  -24.5849  -30.7111   25.7820 H   0  0  0  0  0  0
  -24.8915  -32.2864   26.5036 H   0  0  0  0  0  0
  -25.8035  -30.8809   27.0236 H   0  0  0  0  0  0
  -26.2826  -29.6849   24.1206 H   0  0  0  0  0  0
  -27.4000  -29.7329   25.4674 H   0  0  0  0  0  0
  -27.8695  -30.4402   23.9361 H   0  0  0  0  0  0
  -27.2622  -33.3645   26.2153 H   0  0  0  0  0  0
  -28.3761  -32.7015   25.0277 H   0  0  0  0  0  0
  -28.0776  -31.8474   26.5354 H   0  0  0  0  0  0
  -28.2611  -38.0123   24.7530 H   0  0  0  0  0  0
  -28.1095  -36.2663   24.6237 H   0  0  0  0  0  0
  -27.2311  -37.1426   25.8846 H   0  0  0  0  0  0
  -20.9277  -29.8788   21.7019 H   0  0  0  0  0  0
  -26.0224  -38.2900   24.1406 H   0  0  0  0  0  0
  -31.3662  -17.5342   16.4775 H   0  0  0  0  0  0
  -31.4001  -15.7323   18.0876 H   0  0  0  0  0  0
  -28.4802  -17.8241   20.4954 H   0  0  0  0  0  0
  -27.4967  -19.7834   19.8332 H   0  0  0  0  0  0
  -28.6897  -21.5008   17.6252 H   0  0  0  0  0  0
  -28.2994  -24.1848   20.4857 H   0  0  0  0  0  0
  -27.5743  -23.9363   17.5299 H   0  0  0  0  0  0
  -30.4427  -19.3792   15.5122 H   0  0  0  0  0  0
  -30.4397  -20.6650   16.7019 H   0  0  0  0  0  0
  -28.9083  -20.0016   16.0598 H   0  0  0  0  0  0
  -25.3091  -21.0803   18.3918 H   0  0  0  0  0  0
  -25.8081  -22.1857   17.1164 H   0  0  0  0  0  0
  -24.9971  -22.8063   18.5520 H   0  0  0  0  0  0
  -28.3569  -26.1602   18.0948 H   0  0  0  0  0  0
  -29.8076  -25.7687   18.9765 H   0  0  0  0  0  0
  -26.9468  -22.1725   19.9642 H   0  0  0  0  0  0
  -28.9899  -15.4447   20.8605 H   0  0  0  0  0  0
  1 25  1  0  0  0
  1 30  2  0  0  0
  1 85  1  0  0  0
  2  3  1  0  0  0
  2 25  1  0  0  0
  2 86  1  0  0  0
  2 87  1  0  0  0
  3  4  1  0  0  0
  3 88  1  0  0  0
  3 89  1  0  0  0
  4  5  1  0  0  0
  4 90  1  0  0  0
  4 91  1  0  0  0
  5  6  1  0  0  0
  5 26  1  0  0  0
  5 92  1  0  0  0
  6 25  1  0  0  0
  6 93  1  0  0  0
  6 94  1  0  0  0
  7  8  2  0  0  0
  7 26  1  0  0  0
  7 29  1  0  0  0
  8  9  1  0  0  0
  8 22  1  0  0  0
  9 10  1  0  0  0
  9 27  2  0  0  0
 10 11  2  0  0  0
 10 15  1  0  0  0
 11 12  1  0  0  0
 11 95  1  0  0  0
 12 13  2  0  0  0
 12 96  1  0  0  0
 13 14  1  0  0  0
 13 31  1  0  0  0
 14 15  2  0  0  0
 14 97  1  0  0  0
 15 98  1  0  0  0
 16 17  2  0  0  0
 16 21  1  0  0  0
 16 31  1  0  0  0
 17 18  1  0  0  0
 17 99  1  0  0  0
 18 19  2  0  0  0
 18100  1  0  0  0
 19 20  1  0  0  0
 19 24  1  0  0  0
 20 21  2  0  0  0
 20101  1  0  0  0
 21 23  1  0  0  0
 22 28  1  0  0  0
 22 32  2  0  0  0
 26 27  1  0  0  0
 28102  1  0  0  0
 28103  1  0  0  0
 29104  1  0  0  0
 29105  1  0  0  0
 33 34  1  0  0  0
 33 66  1  0  0  0
 33 70  2  0  0  0
 34 36  1  0  0  0
 34 59  1  0  0  0
 34106  1  0  0  0
 35 44  2  0  0  0
 35 45  1  0  0  0
 35 68  1  0  0  0
 36 56  1  0  0  0
 36107  1  0  0  0
 37 39  1  0  0  0
 37 47  1  0  0  0
 37 66  1  0  0  0
 37108  1  0  0  0
 38 43  2  0  0  0
 38 46  1  0  0  0
 38 47  1  0  0  0
 39 64  1  0  0  0
 39 67  2  0  0  0
 40 52  1  0  0  0
 40 53  2  0  0  0
 40 58  1  0  0  0
 41109  1  0  0  0
 41110  1  0  0  0
 41111  1  0  0  0
 41 48  1  0  0  0
 42 43  1  0  0  0
 42 66  1  0  0  0
 42112  1  0  0  0
 42113  1  0  0  0
 43 44  1  0  0  0
 44114  1  0  0  0
 45 46  2  0  0  0
 45115  1  0  0  0
 46116  1  0  0  0
 47117  1  0  0  0
 47118  1  0  0  0
 48 56  1  0  0  0
 48 65  1  0  0  0
 48119  1  0  0  0
 49 50  1  0  0  0
 49 53  1  0  0  0
 49 64  1  0  0  0
 49120  1  0  0  0
 50 51  1  0  0  0
 50121  1  0  0  0
 50122  1  0  0  0
 51 52  1  0  0  0
 51123  1  0  0  0
 51124  1  0  0  0
 52125  1  0  0  0
 52126  1  0  0  0
 53 54  1  0  0  0
 54 55  2  0  0  0
 54127  1  0  0  0
 55 57  1  0  0  0
 55128  1  0  0  0
 56 69  2  0  0  0
 57 58  2  0  0  0
 57129  1  0  0  0
 58130  1  0  0  0
 59 60  1  0  0  0
 59 61  1  0  0  0
 59 62  1  0  0  0
 60131  1  0  0  0
 60132  1  0  0  0
 60133  1  0  0  0
 61134  1  0  0  0
 61135  1  0  0  0
 61136  1  0  0  0
 62137  1  0  0  0
 62138  1  0  0  0
 62139  1  0  0  0
 63 65  1  0  0  0
 63140  1  0  0  0
 63141  1  0  0  0
 63142  1  0  0  0
 64143  1  0  0  0
 65144  1  0  0  0
 68 83  1  0  0  0
 71 72  2  0  0  0
 71 75  1  0  0  0
 71145  1  0  0  0
 72 76  1  0  0  0
 72146  1  0  0  0
 73 74  1  0  0  0
 73 76  2  0  0  0
 73147  1  0  0  0
 74 75  2  0  0  0
 74 77  1  0  0  0
 75 81  1  0  0  0
 76 85  1  0  0  0
 77 78  2  0  0  0
 77148  1  0  0  0
 78 84  1  0  0  0
 78149  1  0  0  0
 79 80  2  0  0  0
 79 83  1  0  0  0
 79150  1  0  0  0
 80 84  1  0  0  0
 80151  1  0  0  0
 81152  1  0  0  0
 81153  1  0  0  0
 81154  1  0  0  0
 82155  1  0  0  0
 82156  1  0  0  0
 82157  1  0  0  0
 82 84  1  0  0  0
 83158  1  0  0  0
 83159  1  0  0  0
 84160  1  0  0  0
 85161  1  0  0  0
M  ISO  4   1 100  68 101  83 101  85 100
M  END
> <chiral flag>
0

> <version>
0

> <s_m_source_file>
/data/baiqing/PycharmProjects/Reinvent-master-3.2/result/LINK_invent/BTK/process_docking_weight1_custom_product_contain_oxygen_bond_distance_aromatic_linkinvent_7_9_3/rearranged_h_0123.sdf

> <i_m_source_file_index>
64

> <r_mmod_Potential_Energy-OPLS-2005>
-8.55703353881836

> <r_mmod_Stretch_Energy-OPLS-2005>
35.4431991577148

> <r_mmod_Bend_Energy-OPLS-2005>
105.536666870117

> <r_mmod_Torsional_Energy-OPLS-2005>
228.764831542969

> <r_mmod_Improper_Torsional_Energy-OPLS-2005>
9.30264091491699

> <r_mmod_Van_der_Waal_Energy-OPLS-2005>
162.123626708984

> <r_mmod_Electrostatic_Energy-OPLS-2005>
-372.474884033203

> <r_mmod_Solvation_Energy-OPLS-2005>
-199.226852416992

> <b_mmod_Minimization_Converged-OPLS-2005>
0

> <r_mmod_RMS_Derivative-OPLS-2005>
3.18571615219116

$$$$
64
                    3D
 Structure written by MMmdl.
160168  0  0  1  0            999 V2000
  -30.7692  -14.3818   20.6484 C   0  0  0  0  0  0
  -30.4150  -12.2835   19.4092 C   0  0  0  0  0  0
  -29.4894  -12.5148   18.2008 C   0  0  0  0  0  0
  -28.0139  -12.3685   18.6146 C   0  0  0  0  0  0
  -27.6640  -13.2049   19.8712 C   0  0  2  0  0  0
  -28.7013  -12.9732   20.9947 C   0  0  0  0  0  0
  -25.2586  -13.8155   20.5652 C   0  0  0  0  0  0
  -24.1848  -13.0447   20.9189 C   0  0  0  0  0  0
  -24.6381  -11.6904   20.8734 C   0  0  0  0  0  0
  -23.9031  -10.4292   21.0394 C   0  0  0  0  0  0
  -24.3584   -9.4210   21.9174 C   0  0  0  0  0  0
  -23.6275   -8.2237   22.0740 C   0  0  0  0  0  0
  -22.4260   -8.0269   21.3534 C   0  0  0  0  0  0
  -21.9890   -9.0239   20.4637 C   0  0  0  0  0  0
  -22.7202  -10.2124   20.3046 C   0  0  0  0  0  0
  -21.6839   -6.0733   22.5283 C   0  0  0  0  0  0
  -21.4002   -6.5638   23.8215 C   0  0  0  0  0  0
  -21.3665   -5.6795   24.9181 C   0  0  0  0  0  0
  -21.6044   -4.3059   24.7234 C   0  0  0  0  0  0
  -21.8819   -3.8147   23.4358 C   0  0  0  0  0  0
  -21.9189   -4.6963   22.3410 C   0  0  0  0  0  0
  -22.7865  -13.5234   21.1866 C   0  0  0  0  0  0
  -22.1665   -4.2145   21.0986 F   0  0  0  0  0  0
  -21.5635   -3.4545   25.7744 F   0  0  0  0  0  0
  -30.0504  -13.2434   20.4613 N   0  0  0  0  0  0
  -26.3023  -12.9327   20.3318 N   0  0  0  0  0  0
  -25.9303  -11.6488   20.5736 N   0  0  0  0  0  0
  -22.0493  -12.8234   22.0411 N   0  0  0  0  0  0
  -25.4340  -15.1876   20.4046 N   0  0  0  0  0  0
  -31.8083  -14.6314   20.0279 O   0  0  0  0  0  0
  -21.6630   -6.8868   21.4239 O   0  0  0  0  0  0
  -22.3561  -14.5547   20.6710 O   0  0  0  0  0  0
  -24.6145  -31.8682   23.2107 C   0  0  0  0  0  0
  -25.9051  -32.4819   23.8373 C   0  0  1  0  0  0
  -27.2375  -27.4585   20.0934 C   0  0  0  0  0  0
  -25.5930  -33.8618   24.2313 N   0  0  0  0  0  0
  -23.3984  -30.4949   21.5488 C   0  0  2  0  0  0
  -24.8422  -28.9572   20.1139 C   0  0  0  0  0  0
  -22.7400  -29.4680   22.4972 C   0  0  0  0  0  0
  -18.0287  -28.1406   22.8495 C   0  0  0  0  0  0
  -24.1488  -36.7309   23.2630 C   0  0  0  0  0  0
  -25.9233  -30.8436   21.3550 C   0  0  0  0  0  0
  -25.9976  -29.4765   20.7086 C   0  0  0  0  0  0
  -27.1945  -28.7320   20.6963 C   0  0  0  0  0  0
  -26.0639  -26.9431   19.4938 C   0  0  0  0  0  0
  -24.8681  -27.6876   19.5069 C   0  0  0  0  0  0
  -23.6062  -29.8271   20.1612 C   0  0  0  0  0  0
  -25.4109  -36.3098   24.0331 C   0  0  1  0  0  0
  -20.5869  -28.3686   23.1331 C   0  0  2  0  0  0
  -20.6775  -26.9426   22.5426 C   0  0  0  0  0  0
  -19.5740  -26.6412   21.5229 C   0  0  0  0  0  0
  -18.1923  -26.7951   22.1634 C   0  0  0  0  0  0
  -19.1531  -28.8862   23.2912 C   0  0  0  0  0  0
  -18.9457  -30.1475   23.8914 C   0  0  0  0  0  0
  -17.6454  -30.6597   24.0599 C   0  0  0  0  0  0
  -25.9046  -34.9472   23.5113 C   0  0  0  0  0  0
  -16.5351  -29.9109   23.6335 C   0  0  0  0  0  0
  -16.7276  -28.6540   23.0327 C   0  0  0  0  0  0
  -26.4497  -31.6581   25.0678 C   0  0  0  0  0  0
  -25.3789  -31.3681   26.1439 C   0  0  0  0  0  0
  -27.0298  -30.3029   24.5993 C   0  0  0  0  0  0
  -27.6067  -32.4279   25.7458 C   0  0  0  0  0  0
  -27.5573  -37.1803   24.8467 C   0  0  0  0  0  0
  -21.4130  -29.3046   22.3726 N   0  0  0  0  0  0
  -26.4278  -37.3797   23.9422 N   0  0  0  0  0  0
  -24.6637  -31.0823   22.0981 N   0  0  0  0  0  0
  -23.4188  -28.8233   23.3001 O   0  0  0  0  0  0
  -28.4407  -26.7921   20.0889 O   0  0  0  0  0  0
  -26.5587  -34.8933   22.4658 O   0  0  0  0  0  0
  -23.5347  -32.1420   23.7522 O   0  0  0  0  0  0
  -31.9312  -18.5337   22.1280 C   0  0  0  0  0  0
  -31.6979  -17.1460   22.1773 C   0  0  0  0  0  0
  -29.6328  -17.4717   20.9346 C   0  0  0  0  0  0
  -31.0462  -19.4155   21.4562 C   0  0  0  0  0  0
  -29.8665  -18.8614   20.8724 C   0  0  0  0  0  0
  -30.5519  -16.6113   21.5601 C   0  0  0  0  0  0
  -31.1283  -21.6672   20.1643 C   0  0  0  0  0  0
  -30.3362  -22.7583   20.1161 C   0  0  0  0  0  0
  -31.4400  -20.8560   21.3589 C   0  0  0  0  0  0
  -28.7923  -19.7018   20.1962 C   0  0  0  0  0  0
  -29.5850  -23.3944   21.2776 C   0  0  0  0  0  0
  -29.4656  -24.9185   21.1521 C   0  0  0  0  0  0
  -28.4391  -25.3667   20.0996 C   0  0  0  0  0  0
  -32.0877  -21.4173   22.2923 N   0  0  0  0  0  0
  -30.2897  -15.2247   21.5709 N   0  0  0  0  0  0
  -31.4599  -12.3713   19.1065 H   0  0  0  0  0  0
  -30.3044  -11.2655   19.7867 H   0  0  0  0  0  0
  -29.7259  -11.8065   17.4054 H   0  0  0  0  0  0
  -29.6614  -13.5097   17.7872 H   0  0  0  0  0  0
  -27.8250  -11.3133   18.8116 H   0  0  0  0  0  0
  -27.3604  -12.6435   17.7867 H   0  0  0  0  0  0
  -27.7150  -14.2531   19.5757 H   0  0  0  0  0  0
  -28.6585  -11.9404   21.3439 H   0  0  0  0  0  0
  -28.4467  -13.5812   21.8620 H   0  0  0  0  0  0
  -25.2724   -9.5716   22.4757 H   0  0  0  0  0  0
  -24.0005   -7.4631   22.7450 H   0  0  0  0  0  0
  -21.0829   -8.8742   19.8939 H   0  0  0  0  0  0
  -22.3644  -10.9660   19.6167 H   0  0  0  0  0  0
  -21.1980   -7.6142   23.9723 H   0  0  0  0  0  0
  -21.1493   -6.0521   25.9085 H   0  0  0  0  0  0
  -22.0592   -2.7604   23.2856 H   0  0  0  0  0  0
  -22.4086  -11.9889   22.4814 H   0  0  0  0  0  0
  -21.1105  -13.1276   22.2588 H   0  0  0  0  0  0
  -24.6704  -15.8480   20.4996 H   0  0  0  0  0  0
  -26.2902  -15.6155   20.0757 H   0  0  0  0  0  0
  -26.7120  -32.5544   23.1134 H   0  0  0  0  0  0
  -25.0122  -33.9783   25.0485 H   0  0  0  0  0  0
  -22.6844  -31.3108   21.4121 H   0  0  0  0  0  0
  -23.3731  -35.9656   23.3299 H   0  0  0  0  0  0
  -24.3584  -36.8918   22.2041 H   0  0  0  0  0  0
  -23.7267  -37.6533   23.6635 H   0  0  0  0  0  0
  -26.0205  -31.6046   20.5792 H   0  0  0  0  0  0
  -26.8185  -30.9058   21.9619 H   0  0  0  0  0  0
  -28.0892  -29.1314   21.1522 H   0  0  0  0  0  0
  -26.0654  -25.9817   18.9990 H   0  0  0  0  0  0
  -23.9797  -27.2816   19.0421 H   0  0  0  0  0  0
  -23.7252  -30.6056   19.4054 H   0  0  0  0  0  0
  -22.7279  -29.2530   19.8587 H   0  0  0  0  0  0
  -25.1287  -36.1933   25.0823 H   0  0  0  0  0  0
  -20.9978  -28.3254   24.1442 H   0  0  0  0  0  0
  -20.5719  -26.2292   23.3610 H   0  0  0  0  0  0
  -21.6647  -26.7498   22.1190 H   0  0  0  0  0  0
  -19.6908  -25.6335   21.1231 H   0  0  0  0  0  0
  -19.6676  -27.3250   20.6779 H   0  0  0  0  0  0
  -17.4205  -26.6725   21.4027 H   0  0  0  0  0  0
  -18.0308  -26.0102   22.9033 H   0  0  0  0  0  0
  -19.7938  -30.7308   24.2252 H   0  0  0  0  0  0
  -17.5016  -31.6275   24.5210 H   0  0  0  0  0  0
  -15.5352  -30.3019   23.7653 H   0  0  0  0  0  0
  -15.8681  -28.0900   22.6961 H   0  0  0  0  0  0
  -24.5965  -30.7016   25.7803 H   0  0  0  0  0  0
  -24.8981  -32.2836   26.4885 H   0  0  0  0  0  0
  -25.8180  -30.8877   27.0189 H   0  0  0  0  0  0
  -26.2796  -29.6799   24.1105 H   0  0  0  0  0  0
  -27.4158  -29.7246   25.4402 H   0  0  0  0  0  0
  -27.8599  -30.4363   23.9040 H   0  0  0  0  0  0
  -27.2670  -33.3554   26.2078 H   0  0  0  0  0  0
  -28.3870  -32.6868   25.0287 H   0  0  0  0  0  0
  -28.0735  -31.8365   26.5343 H   0  0  0  0  0  0
  -28.2595  -38.0100   24.7507 H   0  0  0  0  0  0
  -28.1066  -36.2629   24.6277 H   0  0  0  0  0  0
  -27.2298  -37.1440   25.8877 H   0  0  0  0  0  0
  -20.9276  -29.8764   21.6961 H   0  0  0  0  0  0
  -26.0152  -38.2869   24.1430 H   0  0  0  0  0  0
  -32.8356  -18.9148   22.5825 H   0  0  0  0  0  0
  -32.4132  -16.5022   22.6705 H   0  0  0  0  0  0
  -28.7497  -17.0540   20.4726 H   0  0  0  0  0  0
  -31.5912  -21.3031   19.2577 H   0  0  0  0  0  0
  -30.1986  -23.2254   19.1495 H   0  0  0  0  0  0
  -29.0812  -19.9598   19.1762 H   0  0  0  0  0  0
  -28.5813  -20.6147   20.7522 H   0  0  0  0  0  0
  -27.8492  -19.1581   20.1456 H   0  0  0  0  0  0
  -30.0834  -23.1614   22.2192 H   0  0  0  0  0  0
  -28.5911  -22.9508   21.3376 H   0  0  0  0  0  0
  -30.4441  -25.3480   20.9410 H   0  0  0  0  0  0
  -29.1591  -25.3229   22.1191 H   0  0  0  0  0  0
  -27.4719  -24.9320   20.3543 H   0  0  0  0  0  0
  -28.7116  -25.0037   19.1088 H   0  0  0  0  0  0
  -32.2458  -20.7779   23.0618 H   0  0  0  0  0  0
  -29.4467  -14.9268   22.0395 H   0  0  0  0  0  0
  1 25  1  0  0  0
  1 30  2  0  0  0
  1 85  1  0  0  0
  2  3  1  0  0  0
  2 25  1  0  0  0
  2 86  1  0  0  0
  2 87  1  0  0  0
  3  4  1  0  0  0
  3 88  1  0  0  0
  3 89  1  0  0  0
  4  5  1  0  0  0
  4 90  1  0  0  0
  4 91  1  0  0  0
  5  6  1  0  0  0
  5 26  1  0  0  0
  5 92  1  0  0  0
  6 25  1  0  0  0
  6 93  1  0  0  0
  6 94  1  0  0  0
  7  8  2  0  0  0
  7 26  1  0  0  0
  7 29  1  0  0  0
  8  9  1  0  0  0
  8 22  1  0  0  0
  9 10  1  0  0  0
  9 27  2  0  0  0
 10 11  2  0  0  0
 10 15  1  0  0  0
 11 12  1  0  0  0
 11 95  1  0  0  0
 12 13  2  0  0  0
 12 96  1  0  0  0
 13 14  1  0  0  0
 13 31  1  0  0  0
 14 15  2  0  0  0
 14 97  1  0  0  0
 15 98  1  0  0  0
 16 17  2  0  0  0
 16 21  1  0  0  0
 16 31  1  0  0  0
 17 18  1  0  0  0
 17 99  1  0  0  0
 18 19  2  0  0  0
 18100  1  0  0  0
 19 20  1  0  0  0
 19 24  1  0  0  0
 20 21  2  0  0  0
 20101  1  0  0  0
 21 23  1  0  0  0
 22 28  1  0  0  0
 22 32  2  0  0  0
 26 27  1  0  0  0
 28102  1  0  0  0
 28103  1  0  0  0
 29104  1  0  0  0
 29105  1  0  0  0
 33 34  1  0  0  0
 33 66  1  0  0  0
 33 70  2  0  0  0
 34 36  1  0  0  0
 34 59  1  0  0  0
 34106  1  0  0  0
 35 44  2  0  0  0
 35 45  1  0  0  0
 35 68  1  0  0  0
 36 56  1  0  0  0
 36107  1  0  0  0
 37 39  1  0  0  0
 37 47  1  0  0  0
 37 66  1  0  0  0
 37108  1  0  0  0
 38 43  2  0  0  0
 38 46  1  0  0  0
 38 47  1  0  0  0
 39 64  1  0  0  0
 39 67  2  0  0  0
 40 52  1  0  0  0
 40 53  2  0  0  0
 40 58  1  0  0  0
 41109  1  0  0  0
 41110  1  0  0  0
 41111  1  0  0  0
 41 48  1  0  0  0
 42 43  1  0  0  0
 42 66  1  0  0  0
 42112  1  0  0  0
 42113  1  0  0  0
 43 44  1  0  0  0
 44114  1  0  0  0
 45 46  2  0  0  0
 45115  1  0  0  0
 46116  1  0  0  0
 47117  1  0  0  0
 47118  1  0  0  0
 48 56  1  0  0  0
 48 65  1  0  0  0
 48119  1  0  0  0
 49 50  1  0  0  0
 49 53  1  0  0  0
 49 64  1  0  0  0
 49120  1  0  0  0
 50 51  1  0  0  0
 50121  1  0  0  0
 50122  1  0  0  0
 51 52  1  0  0  0
 51123  1  0  0  0
 51124  1  0  0  0
 52125  1  0  0  0
 52126  1  0  0  0
 53 54  1  0  0  0
 54 55  2  0  0  0
 54127  1  0  0  0
 55 57  1  0  0  0
 55128  1  0  0  0
 56 69  2  0  0  0
 57 58  2  0  0  0
 57129  1  0  0  0
 58130  1  0  0  0
 59 60  1  0  0  0
 59 61  1  0  0  0
 59 62  1  0  0  0
 60131  1  0  0  0
 60132  1  0  0  0
 60133  1  0  0  0
 61134  1  0  0  0
 61135  1  0  0  0
 61136  1  0  0  0
 62137  1  0  0  0
 62138  1  0  0  0
 62139  1  0  0  0
 63 65  1  0  0  0
 63140  1  0  0  0
 63141  1  0  0  0
 63142  1  0  0  0
 64143  1  0  0  0
 65144  1  0  0  0
 68 83  1  0  0  0
 71 72  2  0  0  0
 71 74  1  0  0  0
 71145  1  0  0  0
 72 76  1  0  0  0
 72146  1  0  0  0
 73 75  1  0  0  0
 73 76  2  0  0  0
 73147  1  0  0  0
 74 75  2  0  0  0
 74 79  1  0  0  0
 75 80  1  0  0  0
 76 85  1  0  0  0
 77 78  2  0  0  0
 77 79  1  0  0  0
 77148  1  0  0  0
 78 81  1  0  0  0
 78149  1  0  0  0
 79 84  2  0  0  0
 80150  1  0  0  0
 80151  1  0  0  0
 80152  1  0  0  0
 81 82  1  0  0  0
 81153  1  0  0  0
 81154  1  0  0  0
 82 83  1  0  0  0
 82155  1  0  0  0
 82156  1  0  0  0
 83157  1  0  0  0
 83158  1  0  0  0
 84159  1  0  0  0
 85160  1  0  0  0
M  ISO  4   1 100  68 101  83 101  85 100
M  END
> <chiral flag>
0

> <version>
0

> <s_m_source_file>
/data/baiqing/PycharmProjects/Reinvent-master-3.2/result/LINK_invent/BTK/process_docking_weight1_custom_product_contain_oxygen_bond_distance_aromatic_linkinvent_7_9_3/rearranged_h_0123.sdf

> <i_m_source_file_index>
65

> <r_mmod_Potential_Energy-OPLS-2005>
17.556999206543

> <r_mmod_Stretch_Energy-OPLS-2005>
34.2349090576172

> <r_mmod_Bend_Energy-OPLS-2005>
99.7903289794922

> <r_mmod_Torsional_Energy-OPLS-2005>
268.31494140625

> <r_mmod_Improper_Torsional_Energy-OPLS-2005>
3.69529581069946

> <r_mmod_Van_der_Waal_Energy-OPLS-2005>
164.184005737305

> <r_mmod_Electrostatic_Energy-OPLS-2005>
-343.949768066406

> <r_mmod_Solvation_Energy-OPLS-2005>
-216.933715820312

> <b_mmod_Minimization_Converged-OPLS-2005>
0

> <r_mmod_RMS_Derivative-OPLS-2005>
2.91335201263428

$$$$
65
                    3D
 Structure written by MMmdl.
157165  0  0  1  0            999 V2000
  -30.6199  -14.5930   20.5978 C   0  0  0  0  0  0
  -30.4575  -12.3604   19.4639 C   0  0  0  0  0  0
  -29.5446  -12.5195   18.2255 C   0  0  0  0  0  0
  -28.0418  -12.4146   18.5910 C   0  0  0  0  0  0
  -27.6726  -13.2020   19.8778 C   0  0  2  0  0  0
  -28.7122  -12.9397   20.9933 C   0  0  0  0  0  0
  -25.2631  -13.8091   20.5587 C   0  0  0  0  0  0
  -24.1874  -13.0393   20.9117 C   0  0  0  0  0  0
  -24.6413  -11.6857   20.8671 C   0  0  0  0  0  0
  -23.9067  -10.4266   21.0401 C   0  0  0  0  0  0
  -24.3616   -9.4198   21.9190 C   0  0  0  0  0  0
  -23.6288   -8.2234   22.0775 C   0  0  0  0  0  0
  -22.4288   -8.0259   21.3513 C   0  0  0  0  0  0
  -21.9894   -9.0262   20.4653 C   0  0  0  0  0  0
  -22.7244  -10.2126   20.3059 C   0  0  0  0  0  0
  -21.6892   -6.0712   22.5265 C   0  0  0  0  0  0
  -21.4068   -6.5619   23.8191 C   0  0  0  0  0  0
  -21.3663   -5.6782   24.9154 C   0  0  0  0  0  0
  -21.6036   -4.3033   24.7229 C   0  0  0  0  0  0
  -21.8823   -3.8118   23.4349 C   0  0  0  0  0  0
  -21.9195   -4.6933   22.3396 C   0  0  0  0  0  0
  -22.7905  -13.5199   21.1785 C   0  0  0  0  0  0
  -22.1660   -4.2103   21.0984 F   0  0  0  0  0  0
  -21.5611   -3.4522   25.7738 F   0  0  0  0  0  0
  -30.0334  -13.3522   20.4702 N   0  0  0  0  0  0
  -26.3083  -12.9251   20.3283 N   0  0  0  0  0  0
  -25.9334  -11.6431   20.5673 N   0  0  0  0  0  0
  -22.0552  -12.8235   22.0388 N   0  0  0  0  0  0
  -25.4333  -15.1827   20.4026 N   0  0  0  0  0  0
  -31.7482  -14.8189   20.1385 O   0  0  0  0  0  0
  -21.6655   -6.8859   21.4218 O   0  0  0  0  0  0
  -22.3619  -14.5511   20.6628 O   0  0  0  0  0  0
  -24.6230  -31.8604   23.2003 C   0  0  0  0  0  0
  -25.9100  -32.4765   23.8327 C   0  0  1  0  0  0
  -27.2979  -27.3925   20.1250 C   0  0  0  0  0  0
  -25.5958  -33.8564   24.2314 N   0  0  0  0  0  0
  -23.4193  -30.4723   21.5353 C   0  0  2  0  0  0
  -24.8826  -28.9167   20.1208 C   0  0  0  0  0  0
  -22.7455  -29.4611   22.4915 C   0  0  0  0  0  0
  -18.0270  -28.1392   22.8495 C   0  0  0  0  0  0
  -24.1494  -36.7217   23.2644 C   0  0  0  0  0  0
  -25.9525  -30.8062   21.3672 C   0  0  0  0  0  0
  -26.0387  -29.4360   20.7168 C   0  0  0  0  0  0
  -27.2421  -28.6852   20.7085 C   0  0  0  0  0  0
  -26.1166  -26.8922   19.5263 C   0  0  0  0  0  0
  -24.9209  -27.6461   19.5127 C   0  0  0  0  0  0
  -23.6411  -29.7847   20.1563 C   0  0  0  0  0  0
  -25.4113  -36.3077   24.0359 C   0  0  1  0  0  0
  -20.5890  -28.3681   23.1290 C   0  0  2  0  0  0
  -20.6754  -26.9410   22.5402 C   0  0  0  0  0  0
  -19.5749  -26.6476   21.5158 C   0  0  0  0  0  0
  -18.1930  -26.7985   22.1575 C   0  0  0  0  0  0
  -19.1540  -28.8840   23.2914 C   0  0  0  0  0  0
  -18.9481  -30.1430   23.8956 C   0  0  0  0  0  0
  -17.6495  -30.6611   24.0560 C   0  0  0  0  0  0
  -25.9052  -34.9452   23.5125 C   0  0  0  0  0  0
  -16.5370  -29.9098   23.6370 C   0  0  0  0  0  0
  -16.7269  -28.6489   23.0446 C   0  0  0  0  0  0
  -26.4549  -31.6541   25.0648 C   0  0  0  0  0  0
  -25.3851  -31.3637   26.1421 C   0  0  0  0  0  0
  -27.0322  -30.2973   24.6002 C   0  0  0  0  0  0
  -27.6179  -32.4226   25.7374 C   0  0  0  0  0  0
  -27.5595  -37.1772   24.8493 C   0  0  0  0  0  0
  -21.4176  -29.3016   22.3655 N   0  0  0  0  0  0
  -26.4293  -37.3789   23.9445 N   0  0  0  0  0  0
  -24.6804  -31.0660   22.0904 N   0  0  0  0  0  0
  -23.4166  -28.8203   23.3051 O   0  0  0  0  0  0
  -28.5097  -26.7025   20.0816 O   0  0  0  0  0  0
  -26.5623  -34.8934   22.4694 O   0  0  0  0  0  0
  -23.5415  -32.1361   23.7399 O   0  0  0  0  0  0
  -30.7977  -23.9439   20.7336 C   0  0  0  0  0  0
  -30.3205  -19.1090   22.5661 C   0  0  0  0  0  0
  -30.8510  -20.4182   22.5800 C   0  0  0  0  0  0
  -31.6192  -18.5499   20.6106 C   0  0  0  0  0  0
  -30.6317  -18.1720   21.5488 C   0  0  0  0  0  0
  -31.7527  -20.8469   21.5847 C   0  0  0  0  0  0
  -32.1884  -19.8616   20.6429 C   0  0  0  0  0  0
  -31.9176  -23.5719   21.3382 C   0  0  0  0  0  0
  -29.8628  -24.5857   20.0303 C   0  0  0  0  0  0
  -29.7804  -16.9412   21.5440 C   0  0  0  0  0  0
  -29.7178  -15.6230   21.1801 C   0  0  0  0  0  0
  -32.3938  -22.2015   21.7589 C   0  0  0  0  0  0
  -33.2800  -20.1939   19.6395 C   0  0  0  0  0  0
  -28.5962  -25.3217   20.5355 C   0  0  0  0  0  0
  -33.4991  -22.2057   22.3758 N   0  0  0  0  0  0
  -31.5097  -12.4722   19.2018 H   0  0  0  0  0  0
  -30.3560  -11.3527   19.8682 H   0  0  0  0  0  0
  -29.8033  -11.7646   17.4786 H   0  0  0  0  0  0
  -29.7466  -13.4863   17.7635 H   0  0  0  0  0  0
  -27.7901  -11.3601   18.7035 H   0  0  0  0  0  0
  -27.4438  -12.7781   17.7539 H   0  0  0  0  0  0
  -27.7131  -14.2573   19.6099 H   0  0  0  0  0  0
  -28.7129  -11.8782   21.2504 H   0  0  0  0  0  0
  -28.4444  -13.4146   21.9385 H   0  0  0  0  0  0
  -25.2784   -9.5651   22.4732 H   0  0  0  0  0  0
  -23.9982   -7.4635   22.7477 H   0  0  0  0  0  0
  -21.0842   -8.8800   19.8975 H   0  0  0  0  0  0
  -22.3735  -10.9653   19.6154 H   0  0  0  0  0  0
  -21.2123   -7.6133   23.9676 H   0  0  0  0  0  0
  -21.1479   -6.0523   25.9048 H   0  0  0  0  0  0
  -22.0603   -2.7570   23.2872 H   0  0  0  0  0  0
  -22.4270  -11.9957   22.4778 H   0  0  0  0  0  0
  -21.1163  -13.1252   22.2559 H   0  0  0  0  0  0
  -24.6466  -15.8183   20.4827 H   0  0  0  0  0  0
  -26.2748  -15.6306   20.0639 H   0  0  0  0  0  0
  -26.7138  -32.5484   23.1062 H   0  0  0  0  0  0
  -25.0262  -33.9702   25.0562 H   0  0  0  0  0  0
  -22.7147  -31.2943   21.3833 H   0  0  0  0  0  0
  -23.3810  -35.9501   23.3329 H   0  0  0  0  0  0
  -24.3599  -36.8795   22.2063 H   0  0  0  0  0  0
  -23.7200  -37.6411   23.6597 H   0  0  0  0  0  0
  -26.0953  -31.5786   20.6127 H   0  0  0  0  0  0
  -26.8313  -30.8504   22.0014 H   0  0  0  0  0  0
  -28.1385  -29.0977   21.1501 H   0  0  0  0  0  0
  -26.1346  -25.9303   19.0325 H   0  0  0  0  0  0
  -24.0407  -27.2458   19.0303 H   0  0  0  0  0  0
  -23.7594  -30.5517   19.3929 H   0  0  0  0  0  0
  -22.7703  -29.1998   19.8472 H   0  0  0  0  0  0
  -25.1323  -36.1935   25.0856 H   0  0  0  0  0  0
  -20.9963  -28.3216   24.1420 H   0  0  0  0  0  0
  -20.5634  -26.2246   23.3560 H   0  0  0  0  0  0
  -21.6634  -26.7470   22.1208 H   0  0  0  0  0  0
  -19.6920  -25.6421   21.1105 H   0  0  0  0  0  0
  -19.6718  -27.3323   20.6715 H   0  0  0  0  0  0
  -17.4219  -26.6765   21.3946 H   0  0  0  0  0  0
  -18.0311  -26.0085   22.8911 H   0  0  0  0  0  0
  -19.7958  -30.7188   24.2390 H   0  0  0  0  0  0
  -17.5069  -31.6309   24.5139 H   0  0  0  0  0  0
  -15.5367  -30.3031   23.7718 H   0  0  0  0  0  0
  -15.8642  -28.0773   22.7283 H   0  0  0  0  0  0
  -24.6052  -30.6960   25.7758 H   0  0  0  0  0  0
  -24.9045  -32.2775   26.4932 H   0  0  0  0  0  0
  -25.8306  -30.8798   27.0118 H   0  0  0  0  0  0
  -26.2780  -29.6720   24.1196 H   0  0  0  0  0  0
  -27.4228  -29.7269   25.4425 H   0  0  0  0  0  0
  -27.8603  -30.4297   23.9029 H   0  0  0  0  0  0
  -27.2857  -33.3516   26.2015 H   0  0  0  0  0  0
  -28.3942  -32.6761   25.0129 H   0  0  0  0  0  0
  -28.0814  -31.8269   26.5256 H   0  0  0  0  0  0
  -28.2684  -38.0009   24.7583 H   0  0  0  0  0  0
  -28.1052  -36.2589   24.6312 H   0  0  0  0  0  0
  -27.2327  -37.1393   25.8894 H   0  0  0  0  0  0
  -20.9342  -29.8685   21.6841 H   0  0  0  0  0  0
  -26.0192  -38.2877   24.1460 H   0  0  0  0  0  0
  -29.6290  -18.8460   23.3552 H   0  0  0  0  0  0
  -30.5828  -21.0919   23.3834 H   0  0  0  0  0  0
  -31.9102  -17.8514   19.8359 H   0  0  0  0  0  0
  -32.6456  -24.3413   21.5639 H   0  0  0  0  0  0
  -29.9822  -24.5986   18.9578 H   0  0  0  0  0  0
  -28.8148  -17.2276   21.9405 H   0  0  0  0  0  0
  -28.7113  -15.3138   21.3833 H   0  0  0  0  0  0
  -33.4961  -19.3420   18.9954 H   0  0  0  0  0  0
  -34.2090  -20.4735   20.1340 H   0  0  0  0  0  0
  -32.9765  -21.0281   19.0115 H   0  0  0  0  0  0
  -28.5724  -25.3177   21.6269 H   0  0  0  0  0  0
  -27.7303  -24.7505   20.2022 H   0  0  0  0  0  0
  -33.7544  -21.2665   22.6644 H   0  0  0  0  0  0
  1 25  1  0  0  0
  1 30  2  0  0  0
  1 81  1  0  0  0
  2  3  1  0  0  0
  2 25  1  0  0  0
  2 86  1  0  0  0
  2 87  1  0  0  0
  3  4  1  0  0  0
  3 88  1  0  0  0
  3 89  1  0  0  0
  4  5  1  0  0  0
  4 90  1  0  0  0
  4 91  1  0  0  0
  5  6  1  0  0  0
  5 26  1  0  0  0
  5 92  1  0  0  0
  6 25  1  0  0  0
  6 93  1  0  0  0
  6 94  1  0  0  0
  7  8  2  0  0  0
  7 26  1  0  0  0
  7 29  1  0  0  0
  8  9  1  0  0  0
  8 22  1  0  0  0
  9 10  1  0  0  0
  9 27  2  0  0  0
 10 11  2  0  0  0
 10 15  1  0  0  0
 11 12  1  0  0  0
 11 95  1  0  0  0
 12 13  2  0  0  0
 12 96  1  0  0  0
 13 14  1  0  0  0
 13 31  1  0  0  0
 14 15  2  0  0  0
 14 97  1  0  0  0
 15 98  1  0  0  0
 16 17  2  0  0  0
 16 21  1  0  0  0
 16 31  1  0  0  0
 17 18  1  0  0  0
 17 99  1  0  0  0
 18 19  2  0  0  0
 18100  1  0  0  0
 19 20  1  0  0  0
 19 24  1  0  0  0
 20 21  2  0  0  0
 20101  1  0  0  0
 21 23  1  0  0  0
 22 28  1  0  0  0
 22 32  2  0  0  0
 26 27  1  0  0  0
 28102  1  0  0  0
 28103  1  0  0  0
 29104  1  0  0  0
 29105  1  0  0  0
 33 34  1  0  0  0
 33 66  1  0  0  0
 33 70  2  0  0  0
 34 36  1  0  0  0
 34 59  1  0  0  0
 34106  1  0  0  0
 35 44  2  0  0  0
 35 45  1  0  0  0
 35 68  1  0  0  0
 36 56  1  0  0  0
 36107  1  0  0  0
 37 39  1  0  0  0
 37 47  1  0  0  0
 37 66  1  0  0  0
 37108  1  0  0  0
 38 43  2  0  0  0
 38 46  1  0  0  0
 38 47  1  0  0  0
 39 64  1  0  0  0
 39 67  2  0  0  0
 40 52  1  0  0  0
 40 53  2  0  0  0
 40 58  1  0  0  0
 41109  1  0  0  0
 41110  1  0  0  0
 41111  1  0  0  0
 41 48  1  0  0  0
 42 43  1  0  0  0
 42 66  1  0  0  0
 42112  1  0  0  0
 42113  1  0  0  0
 43 44  1  0  0  0
 44114  1  0  0  0
 45 46  2  0  0  0
 45115  1  0  0  0
 46116  1  0  0  0
 47117  1  0  0  0
 47118  1  0  0  0
 48 56  1  0  0  0
 48 65  1  0  0  0
 48119  1  0  0  0
 49 50  1  0  0  0
 49 53  1  0  0  0
 49 64  1  0  0  0
 49120  1  0  0  0
 50 51  1  0  0  0
 50121  1  0  0  0
 50122  1  0  0  0
 51 52  1  0  0  0
 51123  1  0  0  0
 51124  1  0  0  0
 52125  1  0  0  0
 52126  1  0  0  0
 53 54  1  0  0  0
 54 55  2  0  0  0
 54127  1  0  0  0
 55 57  1  0  0  0
 55128  1  0  0  0
 56 69  2  0  0  0
 57 58  2  0  0  0
 57129  1  0  0  0
 58130  1  0  0  0
 59 60  1  0  0  0
 59 61  1  0  0  0
 59 62  1  0  0  0
 60131  1  0  0  0
 60132  1  0  0  0
 60133  1  0  0  0
 61134  1  0  0  0
 61135  1  0  0  0
 61136  1  0  0  0
 62137  1  0  0  0
 62138  1  0  0  0
 62139  1  0  0  0
 63 65  1  0  0  0
 63140  1  0  0  0
 63141  1  0  0  0
 63142  1  0  0  0
 64143  1  0  0  0
 65144  1  0  0  0
 68 84  1  0  0  0
 71 78  2  0  0  0
 71 79  2  0  0  0
 72 73  2  0  0  0
 72 75  1  0  0  0
 72145  1  0  0  0
 73 76  1  0  0  0
 73146  1  0  0  0
 74 75  2  0  0  0
 74 77  1  0  0  0
 74147  1  0  0  0
 75 80  1  0  0  0
 76 77  2  0  0  0
 76 82  1  0  0  0
 77 83  1  0  0  0
 78 82  1  0  0  0
 78148  1  0  0  0
 79 84  1  0  0  0
 79149  1  0  0  0
 80 81  2  0  0  0
 80150  1  0  0  0
 81151  1  0  0  0
 82 85  2  0  0  0
 83152  1  0  0  0
 83153  1  0  0  0
 83154  1  0  0  0
 84155  1  0  0  0
 84156  1  0  0  0
 85157  1  0  0  0
M  ISO  4   1 100  68 101  81 100  84 101
M  END
> <chiral flag>
0

> <version>
0

> <s_m_source_file>
/data/baiqing/PycharmProjects/Reinvent-master-3.2/result/LINK_invent/BTK/process_docking_weight1_custom_product_contain_oxygen_bond_distance_aromatic_linkinvent_7_9_3/rearranged_h_0123.sdf

> <i_m_source_file_index>
66

> <r_mmod_Potential_Energy-OPLS-2005>
131.179641723633

> <r_mmod_Stretch_Energy-OPLS-2005>
62.6220550537109

> <r_mmod_Bend_Energy-OPLS-2005>
240.077651977539

> <r_mmod_Torsional_Energy-OPLS-2005>
158.673767089844

> <r_mmod_Improper_Torsional_Energy-OPLS-2005>
6.18072891235352

> <r_mmod_Van_der_Waal_Energy-OPLS-2005>
151.699371337891

> <r_mmod_Electrostatic_Energy-OPLS-2005>
-316.324127197266

> <r_mmod_Solvation_Energy-OPLS-2005>
-200.725708007812

> <b_mmod_Minimization_Converged-OPLS-2005>
0

> <r_mmod_RMS_Derivative-OPLS-2005>
7.63596296310425

$$$$
66
                    3D
 Structure written by MMmdl.
163172  0  0  1  0            999 V2000
  -30.6519  -14.5133   20.4979 C   0  0  0  0  0  0
  -30.4356  -12.3067   19.4260 C   0  0  0  0  0  0
  -29.4972  -12.4595   18.2098 C   0  0  0  0  0  0
  -28.0187  -12.3256   18.6307 C   0  0  0  0  0  0
  -27.6572  -13.1845   19.8727 C   0  0  2  0  0  0
  -28.7061  -12.9945   20.9913 C   0  0  0  0  0  0
  -25.2605  -13.8050   20.5770 C   0  0  0  0  0  0
  -24.1829  -13.0371   20.9227 C   0  0  0  0  0  0
  -24.6360  -11.6838   20.8756 C   0  0  0  0  0  0
  -23.9024  -10.4249   21.0417 C   0  0  0  0  0  0
  -24.3584   -9.4171   21.9195 C   0  0  0  0  0  0
  -23.6262   -8.2210   22.0755 C   0  0  0  0  0  0
  -22.4248   -8.0257   21.3541 C   0  0  0  0  0  0
  -21.9881   -9.0228   20.4645 C   0  0  0  0  0  0
  -22.7204  -10.2107   20.3057 C   0  0  0  0  0  0
  -21.6838   -6.0723   22.5281 C   0  0  0  0  0  0
  -21.4002   -6.5631   23.8213 C   0  0  0  0  0  0
  -21.3655   -5.6788   24.9177 C   0  0  0  0  0  0
  -21.6044   -4.3050   24.7228 C   0  0  0  0  0  0
  -21.8822   -3.8140   23.4350 C   0  0  0  0  0  0
  -21.9186   -4.6954   22.3405 C   0  0  0  0  0  0
  -22.7862  -13.5212   21.1869 C   0  0  0  0  0  0
  -22.1653   -4.2142   21.0982 F   0  0  0  0  0  0
  -21.5633   -3.4533   25.7740 F   0  0  0  0  0  0
  -30.0290  -13.3065   20.4229 N   0  0  0  0  0  0
  -26.3001  -12.9188   20.3377 N   0  0  0  0  0  0
  -25.9274  -11.6377   20.5779 N   0  0  0  0  0  0
  -22.0479  -12.8217   22.0412 N   0  0  0  0  0  0
  -25.4334  -15.1748   20.4297 N   0  0  0  0  0  0
  -31.8224  -14.6918   20.1488 O   0  0  0  0  0  0
  -21.6613   -6.8859   21.4239 O   0  0  0  0  0  0
  -22.3571  -14.5527   20.6711 O   0  0  0  0  0  0
  -24.6121  -31.8680   23.2097 C   0  0  0  0  0  0
  -25.9021  -32.4821   23.8391 C   0  0  1  0  0  0
  -27.2505  -27.4503   20.0872 C   0  0  0  0  0  0
  -25.5881  -33.8621   24.2321 N   0  0  0  0  0  0
  -23.4002  -30.4889   21.5490 C   0  0  2  0  0  0
  -24.8493  -28.9515   20.1140 C   0  0  0  0  0  0
  -22.7395  -29.4655   22.4996 C   0  0  0  0  0  0
  -18.0268  -28.1378   22.8501 C   0  0  0  0  0  0
  -24.1481  -36.7312   23.2639 C   0  0  0  0  0  0
  -25.9253  -30.8342   21.3623 C   0  0  0  0  0  0
  -26.0030  -29.4666   20.7156 C   0  0  0  0  0  0
  -27.1984  -28.7163   20.7116 C   0  0  0  0  0  0
  -26.0768  -26.9406   19.4859 C   0  0  0  0  0  0
  -24.8791  -27.6849   19.5012 C   0  0  0  0  0  0
  -23.6086  -29.8153   20.1644 C   0  0  0  0  0  0
  -25.4103  -36.3113   24.0339 C   0  0  1  0  0  0
  -20.5857  -28.3658   23.1329 C   0  0  2  0  0  0
  -20.6756  -26.9396   22.5426 C   0  0  0  0  0  0
  -19.5733  -26.6389   21.5219 C   0  0  0  0  0  0
  -18.1912  -26.7928   22.1626 C   0  0  0  0  0  0
  -19.1518  -28.8834   23.2915 C   0  0  0  0  0  0
  -18.9448  -30.1443   23.8923 C   0  0  0  0  0  0
  -17.6451  -30.6585   24.0569 C   0  0  0  0  0  0
  -25.9031  -34.9478   23.5131 C   0  0  0  0  0  0
  -16.5342  -29.9090   23.6325 C   0  0  0  0  0  0
  -16.7258  -28.6505   23.0351 C   0  0  0  0  0  0
  -26.4461  -31.6599   25.0712 C   0  0  0  0  0  0
  -25.3736  -31.3676   26.1462 C   0  0  0  0  0  0
  -27.0297  -30.3053   24.6067 C   0  0  0  0  0  0
  -27.6040  -32.4313   25.7478 C   0  0  0  0  0  0
  -27.5577  -37.1808   24.8465 C   0  0  0  0  0  0
  -21.4125  -29.3028   22.3736 N   0  0  0  0  0  0
  -26.4291  -37.3799   23.9412 N   0  0  0  0  0  0
  -24.6637  -31.0788   22.0992 N   0  0  0  0  0  0
  -23.4173  -28.8209   23.3045 O   0  0  0  0  0  0
  -28.4455  -26.7609   20.1203 O   0  0  0  0  0  0
  -26.5604  -34.8929   22.4699 O   0  0  0  0  0  0
  -23.5318  -32.1430   23.7501 O   0  0  0  0  0  0
  -31.1545  -19.0227   21.2650 C   0  0  0  0  0  0
  -31.0127  -17.6162   21.3413 C   0  0  0  0  0  0
  -29.3466  -19.1159   19.6631 C   0  0  0  0  0  0
  -29.2061  -17.7139   19.7100 C   0  0  0  0  0  0
  -30.3192  -19.7914   20.4241 C   0  0  0  0  0  0
  -30.0381  -16.9393   20.5693 C   0  0  0  0  0  0
  -28.4396  -16.1382   17.9375 C   0  0  0  0  0  0
  -28.2164  -17.1554   18.7698 C   0  0  0  0  0  0
  -30.4451  -21.2651   20.3295 C   0  0  0  0  0  0
  -29.4494  -22.1098   19.9786 C   0  0  0  0  0  0
  -29.6289  -23.5338   19.7371 C   0  0  0  0  0  0
  -28.6088  -24.3789   19.4783 C   0  0  0  0  0  0
  -27.2559  -15.7948   17.0743 C   0  0  0  0  0  0
  -26.8063  -17.6793   18.6100 C   0  0  0  0  0  0
  -26.1797  -16.8123   17.4969 C   0  0  0  0  0  0
  -28.7721  -25.8407   19.0783 C   0  0  0  0  0  0
  -29.8151  -15.5390   20.7569 N   0  0  0  0  0  0
  -31.4764  -12.4248   19.1191 H   0  0  0  0  0  0
  -30.3587  -11.3037   19.8485 H   0  0  0  0  0  0
  -29.7359  -11.7048   17.4593 H   0  0  0  0  0  0
  -29.6635  -13.4212   17.7275 H   0  0  0  0  0  0
  -27.8415  -11.2730   18.8541 H   0  0  0  0  0  0
  -27.3620  -12.5640   17.7943 H   0  0  0  0  0  0
  -27.6844  -14.2240   19.5634 H   0  0  0  0  0  0
  -28.6937  -11.9655   21.3534 H   0  0  0  0  0  0
  -28.4748  -13.6153   21.8587 H   0  0  0  0  0  0
  -25.2729   -9.5644   22.4772 H   0  0  0  0  0  0
  -23.9970   -7.4597   22.7470 H   0  0  0  0  0  0
  -21.0814   -8.8746   19.8948 H   0  0  0  0  0  0
  -22.3672  -10.9650   19.6166 H   0  0  0  0  0  0
  -21.1990   -7.6139   23.9711 H   0  0  0  0  0  0
  -21.1474   -6.0520   25.9079 H   0  0  0  0  0  0
  -22.0606   -2.7601   23.2854 H   0  0  0  0  0  0
  -22.4067  -11.9858   22.4785 H   0  0  0  0  0  0
  -21.1099  -13.1261   22.2601 H   0  0  0  0  0  0
  -24.6546  -15.8163   20.5259 H   0  0  0  0  0  0
  -26.2498  -15.6030   20.0130 H   0  0  0  0  0  0
  -26.7092  -32.5541   23.1159 H   0  0  0  0  0  0
  -25.0024  -33.9785   25.0461 H   0  0  0  0  0  0
  -22.6886  -31.3050   21.4077 H   0  0  0  0  0  0
  -23.3746  -35.9640   23.3308 H   0  0  0  0  0  0
  -24.3575  -36.8924   22.2053 H   0  0  0  0  0  0
  -23.7222  -37.6513   23.6649 H   0  0  0  0  0  0
  -26.0331  -31.5968   20.5897 H   0  0  0  0  0  0
  -26.8151  -30.8935   21.9771 H   0  0  0  0  0  0
  -28.0891  -29.1111   21.1803 H   0  0  0  0  0  0
  -26.0726  -25.9677   19.0162 H   0  0  0  0  0  0
  -23.9901  -27.2793   19.0386 H   0  0  0  0  0  0
  -23.7122  -30.5874   19.4011 H   0  0  0  0  0  0
  -22.7339  -29.2311   19.8720 H   0  0  0  0  0  0
  -25.1278  -36.1980   25.0831 H   0  0  0  0  0  0
  -20.9953  -28.3219   24.1447 H   0  0  0  0  0  0
  -20.5657  -26.2264   23.3613 H   0  0  0  0  0  0
  -21.6625  -26.7443   22.1210 H   0  0  0  0  0  0
  -19.6891  -25.6306   21.1232 H   0  0  0  0  0  0
  -19.6672  -27.3216   20.6762 H   0  0  0  0  0  0
  -17.4185  -26.6694   21.4023 H   0  0  0  0  0  0
  -18.0303  -26.0059   22.9009 H   0  0  0  0  0  0
  -19.7924  -30.7256   24.2300 H   0  0  0  0  0  0
  -17.5005  -31.6268   24.5162 H   0  0  0  0  0  0
  -15.5344  -30.3004   23.7634 H   0  0  0  0  0  0
  -15.8655  -28.0833   22.7055 H   0  0  0  0  0  0
  -24.5922  -30.7014   25.7788 H   0  0  0  0  0  0
  -24.8912  -32.2815   26.4935 H   0  0  0  0  0  0
  -25.8100  -30.8827   27.0204 H   0  0  0  0  0  0
  -26.2831  -29.6813   24.1139 H   0  0  0  0  0  0
  -27.4107  -29.7284   25.4504 H   0  0  0  0  0  0
  -27.8646  -30.4392   23.9182 H   0  0  0  0  0  0
  -27.2662  -33.3606   26.2077 H   0  0  0  0  0  0
  -28.3843  -32.6882   25.0301 H   0  0  0  0  0  0
  -28.0714  -31.8420   26.5377 H   0  0  0  0  0  0
  -28.2595  -38.0108   24.7530 H   0  0  0  0  0  0
  -28.1076  -36.2643   24.6271 H   0  0  0  0  0  0
  -27.2299  -37.1432   25.8869 H   0  0  0  0  0  0
  -20.9281  -29.8749   21.6961 H   0  0  0  0  0  0
  -26.0180  -38.2875   24.1424 H   0  0  0  0  0  0
  -31.9060  -19.5115   21.8687 H   0  0  0  0  0  0
  -31.6484  -17.0609   22.0170 H   0  0  0  0  0  0
  -28.7247  -19.6795   18.9843 H   0  0  0  0  0  0
  -29.3795  -15.6135   17.8516 H   0  0  0  0  0  0
  -31.4326  -21.6679   20.5098 H   0  0  0  0  0  0
  -28.4580  -21.7056   19.8301 H   0  0  0  0  0  0
  -30.6364  -23.9280   19.7232 H   0  0  0  0  0  0
  -27.5911  -24.0164   19.5153 H   0  0  0  0  0  0
  -26.9299  -14.7716   17.2545 H   0  0  0  0  0  0
  -27.5143  -15.8927   16.0192 H   0  0  0  0  0  0
  -26.8113  -18.7285   18.3143 H   0  0  0  0  0  0
  -26.2594  -17.6061   19.5495 H   0  0  0  0  0  0
  -25.2788  -16.3085   17.8492 H   0  0  0  0  0  0
  -25.8856  -17.4327   16.6490 H   0  0  0  0  0  0
  -28.2225  -26.0376   18.1568 H   0  0  0  0  0  0
  -29.8201  -26.0119   18.8291 H   0  0  0  0  0  0
  -28.8550  -15.2612   20.8847 H   0  0  0  0  0  0
  1 25  1  0  0  0
  1 30  2  0  0  0
  1 87  1  0  0  0
  2  3  1  0  0  0
  2 25  1  0  0  0
  2 88  1  0  0  0
  2 89  1  0  0  0
  3  4  1  0  0  0
  3 90  1  0  0  0
  3 91  1  0  0  0
  4  5  1  0  0  0
  4 92  1  0  0  0
  4 93  1  0  0  0
  5  6  1  0  0  0
  5 26  1  0  0  0
  5 94  1  0  0  0
  6 25  1  0  0  0
  6 95  1  0  0  0
  6 96  1  0  0  0
  7  8  2  0  0  0
  7 26  1  0  0  0
  7 29  1  0  0  0
  8  9  1  0  0  0
  8 22  1  0  0  0
  9 10  1  0  0  0
  9 27  2  0  0  0
 10 11  2  0  0  0
 10 15  1  0  0  0
 11 12  1  0  0  0
 11 97  1  0  0  0
 12 13  2  0  0  0
 12 98  1  0  0  0
 13 14  1  0  0  0
 13 31  1  0  0  0
 14 15  2  0  0  0
 14 99  1  0  0  0
 15100  1  0  0  0
 16 17  2  0  0  0
 16 21  1  0  0  0
 16 31  1  0  0  0
 17 18  1  0  0  0
 17101  1  0  0  0
 18 19  2  0  0  0
 18102  1  0  0  0
 19 20  1  0  0  0
 19 24  1  0  0  0
 20 21  2  0  0  0
 20103  1  0  0  0
 21 23  1  0  0  0
 22 28  1  0  0  0
 22 32  2  0  0  0
 26 27  1  0  0  0
 28104  1  0  0  0
 28105  1  0  0  0
 29106  1  0  0  0
 29107  1  0  0  0
 33 34  1  0  0  0
 33 66  1  0  0  0
 33 70  2  0  0  0
 34 36  1  0  0  0
 34 59  1  0  0  0
 34108  1  0  0  0
 35 44  2  0  0  0
 35 45  1  0  0  0
 35 68  1  0  0  0
 36 56  1  0  0  0
 36109  1  0  0  0
 37 39  1  0  0  0
 37 47  1  0  0  0
 37 66  1  0  0  0
 37110  1  0  0  0
 38 43  2  0  0  0
 38 46  1  0  0  0
 38 47  1  0  0  0
 39 64  1  0  0  0
 39 67  2  0  0  0
 40 52  1  0  0  0
 40 53  2  0  0  0
 40 58  1  0  0  0
 41111  1  0  0  0
 41112  1  0  0  0
 41113  1  0  0  0
 41 48  1  0  0  0
 42 43  1  0  0  0
 42 66  1  0  0  0
 42114  1  0  0  0
 42115  1  0  0  0
 43 44  1  0  0  0
 44116  1  0  0  0
 45 46  2  0  0  0
 45117  1  0  0  0
 46118  1  0  0  0
 47119  1  0  0  0
 47120  1  0  0  0
 48 56  1  0  0  0
 48 65  1  0  0  0
 48121  1  0  0  0
 49 50  1  0  0  0
 49 53  1  0  0  0
 49 64  1  0  0  0
 49122  1  0  0  0
 50 51  1  0  0  0
 50123  1  0  0  0
 50124  1  0  0  0
 51 52  1  0  0  0
 51125  1  0  0  0
 51126  1  0  0  0
 52127  1  0  0  0
 52128  1  0  0  0
 53 54  1  0  0  0
 54 55  2  0  0  0
 54129  1  0  0  0
 55 57  1  0  0  0
 55130  1  0  0  0
 56 69  2  0  0  0
 57 58  2  0  0  0
 57131  1  0  0  0
 58132  1  0  0  0
 59 60  1  0  0  0
 59 61  1  0  0  0
 59 62  1  0  0  0
 60133  1  0  0  0
 60134  1  0  0  0
 60135  1  0  0  0
 61136  1  0  0  0
 61137  1  0  0  0
 61138  1  0  0  0
 62139  1  0  0  0
 62140  1  0  0  0
 62141  1  0  0  0
 63 65  1  0  0  0
 63142  1  0  0  0
 63143  1  0  0  0
 63144  1  0  0  0
 64145  1  0  0  0
 65146  1  0  0  0
 68 86  1  0  0  0
 71 72  2  0  0  0
 71 75  1  0  0  0
 71147  1  0  0  0
 72 76  1  0  0  0
 72148  1  0  0  0
 73 74  1  0  0  0
 73 75  2  0  0  0
 73149  1  0  0  0
 74 76  2  0  0  0
 74 78  1  0  0  0
 75 79  1  0  0  0
 76 87  1  0  0  0
 77 78  2  0  0  0
 77 83  1  0  0  0
 77150  1  0  0  0
 78 84  1  0  0  0
 79 80  2  0  0  0
 79151  1  0  0  0
 80 81  1  0  0  0
 80152  1  0  0  0
 81 82  2  0  0  0
 81153  1  0  0  0
 82 86  1  0  0  0
 82154  1  0  0  0
 83 85  1  0  0  0
 83155  1  0  0  0
 83156  1  0  0  0
 84 85  1  0  0  0
 84157  1  0  0  0
 84158  1  0  0  0
 85159  1  0  0  0
 85160  1  0  0  0
 86161  1  0  0  0
 86162  1  0  0  0
 87163  1  0  0  0
M  ISO  4   1 100  68 101  86 101  87 100
M  END
> <chiral flag>
0

> <version>
0

> <s_m_source_file>
/data/baiqing/PycharmProjects/Reinvent-master-3.2/result/LINK_invent/BTK/process_docking_weight1_custom_product_contain_oxygen_bond_distance_aromatic_linkinvent_7_9_3/rearranged_h_0123.sdf

> <i_m_source_file_index>
67

> <r_mmod_Potential_Energy-OPLS-2005>
41.9749450683594

> <r_mmod_Stretch_Energy-OPLS-2005>
36.3310089111328

> <r_mmod_Bend_Energy-OPLS-2005>
139.023162841797

> <r_mmod_Torsional_Energy-OPLS-2005>
268.646545410156

> <r_mmod_Improper_Torsional_Energy-OPLS-2005>
7.95444202423096

> <r_mmod_Van_der_Waal_Energy-OPLS-2005>
137.062347412109

> <r_mmod_Electrostatic_Energy-OPLS-2005>
-371.52880859375

> <r_mmod_Solvation_Energy-OPLS-2005>
-194.054275512695

> <b_mmod_Minimization_Converged-OPLS-2005>
0

> <r_mmod_RMS_Derivative-OPLS-2005>
0.62930554151535

$$$$
67
                    3D
 Structure written by MMmdl.
157166  0  0  1  0            999 V2000
  -30.5966  -14.7409   20.4777 C   0  0  0  0  0  0
  -30.4468  -12.4494   19.4670 C   0  0  0  0  0  0
  -29.5085  -12.4938   18.2391 C   0  0  0  0  0  0
  -28.0364  -12.3211   18.6596 C   0  0  0  0  0  0
  -27.6499  -13.2198   19.8614 C   0  0  2  0  0  0
  -28.6974  -13.1275   20.9918 C   0  0  0  0  0  0
  -25.2561  -13.8172   20.5749 C   0  0  0  0  0  0
  -24.1832  -13.0432   20.9246 C   0  0  0  0  0  0
  -24.6416  -11.6906   20.8782 C   0  0  0  0  0  0
  -23.9077  -10.4289   21.0433 C   0  0  0  0  0  0
  -24.3633   -9.4185   21.9192 C   0  0  0  0  0  0
  -23.6297   -8.2221   22.0760 C   0  0  0  0  0  0
  -22.4264   -8.0283   21.3549 C   0  0  0  0  0  0
  -21.9902   -9.0270   20.4658 C   0  0  0  0  0  0
  -22.7250  -10.2139   20.3078 C   0  0  0  0  0  0
  -21.6839   -6.0739   22.5281 C   0  0  0  0  0  0
  -21.4010   -6.5646   23.8215 C   0  0  0  0  0  0
  -21.3654   -5.6812   24.9181 C   0  0  0  0  0  0
  -21.6037   -4.3074   24.7233 C   0  0  0  0  0  0
  -21.8819   -3.8161   23.4352 C   0  0  0  0  0  0
  -21.9201   -4.6974   22.3407 C   0  0  0  0  0  0
  -22.7853  -13.5223   21.1889 C   0  0  0  0  0  0
  -22.1671   -4.2157   21.0989 F   0  0  0  0  0  0
  -21.5623   -3.4553   25.7740 F   0  0  0  0  0  0
  -30.0034  -13.4955   20.4180 N   0  0  0  0  0  0
  -26.2988  -12.9357   20.3352 N   0  0  0  0  0  0
  -25.9347  -11.6505   20.5807 N   0  0  0  0  0  0
  -22.0518  -12.8218   22.0454 N   0  0  0  0  0  0
  -25.4284  -15.1892   20.4160 N   0  0  0  0  0  0
  -31.7702  -14.8879   20.1251 O   0  0  0  0  0  0
  -21.6627   -6.8878   21.4232 O   0  0  0  0  0  0
  -22.3534  -14.5526   20.6743 O   0  0  0  0  0  0
  -24.6314  -31.8559   23.1976 C   0  0  0  0  0  0
  -25.9152  -32.4765   23.8331 C   0  0  1  0  0  0
  -27.2333  -27.2694   20.1385 C   0  0  0  0  0  0
  -25.5942  -33.8564   24.2275 N   0  0  0  0  0  0
  -23.4296  -30.4741   21.5426 C   0  0  2  0  0  0
  -24.8814  -28.9133   20.1231 C   0  0  0  0  0  0
  -22.7512  -29.4607   22.4951 C   0  0  0  0  0  0
  -18.0292  -28.1362   22.8471 C   0  0  0  0  0  0
  -24.1508  -36.7287   23.2630 C   0  0  0  0  0  0
  -25.9751  -30.7699   21.3765 C   0  0  0  0  0  0
  -26.0537  -29.3877   20.7307 C   0  0  0  0  0  0
  -27.2340  -28.5754   20.7355 C   0  0  0  0  0  0
  -26.0444  -26.8596   19.5052 C   0  0  0  0  0  0
  -24.8811  -27.6536   19.5024 C   0  0  0  0  0  0
  -23.6528  -29.8021   20.1625 C   0  0  0  0  0  0
  -25.4122  -36.3084   24.0337 C   0  0  1  0  0  0
  -20.5900  -28.3698   23.1259 C   0  0  2  0  0  0
  -20.6787  -26.9408   22.5393 C   0  0  0  0  0  0
  -19.5772  -26.6391   21.5183 C   0  0  0  0  0  0
  -18.1953  -26.7915   22.1593 C   0  0  0  0  0  0
  -19.1543  -28.8842   23.2872 C   0  0  0  0  0  0
  -18.9453  -30.1431   23.8907 C   0  0  0  0  0  0
  -17.6455  -30.6569   24.0552 C   0  0  0  0  0  0
  -25.9050  -34.9441   23.5105 C   0  0  0  0  0  0
  -16.5354  -29.9060   23.6302 C   0  0  0  0  0  0
  -16.7277  -28.6470   23.0338 C   0  0  0  0  0  0
  -26.4515  -31.6553   25.0709 C   0  0  0  0  0  0
  -25.3753  -31.3668   26.1442 C   0  0  0  0  0  0
  -27.0348  -30.2981   24.6140 C   0  0  0  0  0  0
  -27.6116  -32.4246   25.7464 C   0  0  0  0  0  0
  -27.5592  -37.1793   24.8466 C   0  0  0  0  0  0
  -21.4225  -29.3073   22.3698 N   0  0  0  0  0  0
  -26.4307  -37.3772   23.9409 N   0  0  0  0  0  0
  -24.6982  -31.0515   22.0966 N   0  0  0  0  0  0
  -23.4218  -28.8153   23.3051 O   0  0  0  0  0  0
  -28.3033  -26.3529   20.0881 O   0  0  0  0  0  0
  -26.5624  -34.8913   22.4678 O   0  0  0  0  0  0
  -23.5468  -32.1379   23.7258 O   0  0  0  0  0  0
  -28.6620  -19.5245   20.8898 C   0  0  0  0  0  0
  -30.9969  -19.5090   20.4224 C   0  0  0  0  0  0
  -28.6809  -18.0849   20.9066 C   0  0  0  0  0  0
  -31.0202  -18.0707   20.4339 C   0  0  0  0  0  0
  -29.8275  -20.3050   20.6651 C   0  0  0  0  0  0
  -29.8533  -17.2957   20.6908 C   0  0  0  0  0  0
  -28.7959  -24.1103   21.3085 C   0  0  0  0  0  0
  -28.5167  -25.4723   21.1682 C   0  0  0  0  0  0
  -29.0850  -23.6183   22.7230 C   0  0  0  0  0  0
  -28.9025  -22.8501   20.3385 C   0  0  0  0  0  0
  -30.4936  -22.9920   22.8392 C   0  0  0  0  0  0
  -30.9978  -22.3024   21.5501 C   0  0  0  0  0  0
  -29.8855  -21.7627   20.7645 N   0  0  0  0  0  0
  -29.7633  -15.8097   20.7686 N   0  0  0  0  0  0
  -31.4800  -12.5973   19.1483 H   0  0  0  0  0  0
  -30.4195  -11.4648   19.9398 H   0  0  0  0  0  0
  -29.7849  -11.7050   17.5384 H   0  0  0  0  0  0
  -29.6302  -13.4370   17.7074 H   0  0  0  0  0  0
  -27.8986  -11.2737   18.9315 H   0  0  0  0  0  0
  -27.3691  -12.5067   17.8142 H   0  0  0  0  0  0
  -27.6570  -14.2430   19.4887 H   0  0  0  0  0  0
  -28.7287  -12.1181   21.4079 H   0  0  0  0  0  0
  -28.4282  -13.7786   21.8226 H   0  0  0  0  0  0
  -25.2776   -9.5649   22.4769 H   0  0  0  0  0  0
  -24.0015   -7.4602   22.7463 H   0  0  0  0  0  0
  -21.0837   -8.8809   19.8956 H   0  0  0  0  0  0
  -22.3721  -10.9705   19.6218 H   0  0  0  0  0  0
  -21.1989   -7.6156   23.9721 H   0  0  0  0  0  0
  -21.1470   -6.0535   25.9082 H   0  0  0  0  0  0
  -22.0596   -2.7619   23.2853 H   0  0  0  0  0  0
  -22.4162  -11.9872   22.4819 H   0  0  0  0  0  0
  -21.1148  -13.1233   22.2687 H   0  0  0  0  0  0
  -24.6614  -15.8426   20.5323 H   0  0  0  0  0  0
  -26.2625  -15.6226   20.0412 H   0  0  0  0  0  0
  -26.7238  -32.5449   23.1086 H   0  0  0  0  0  0
  -25.0146  -33.9711   25.0455 H   0  0  0  0  0  0
  -22.7265  -31.2950   21.3920 H   0  0  0  0  0  0
  -23.3775  -35.9615   23.3286 H   0  0  0  0  0  0
  -24.3603  -36.8909   22.2046 H   0  0  0  0  0  0
  -23.7254  -37.6488   23.6642 H   0  0  0  0  0  0
  -26.1032  -31.5256   20.5998 H   0  0  0  0  0  0
  -26.8571  -30.8339   22.0010 H   0  0  0  0  0  0
  -28.1356  -28.9363   21.2113 H   0  0  0  0  0  0
  -26.0166  -25.8935   19.0209 H   0  0  0  0  0  0
  -23.9846  -27.2837   19.0229 H   0  0  0  0  0  0
  -23.7802  -30.5764   19.4047 H   0  0  0  0  0  0
  -22.7717  -29.2354   19.8586 H   0  0  0  0  0  0
  -25.1288  -36.1942   25.0830 H   0  0  0  0  0  0
  -20.9963  -28.3256   24.1391 H   0  0  0  0  0  0
  -20.5636  -26.2304   23.3599 H   0  0  0  0  0  0
  -21.6656  -26.7426   22.1197 H   0  0  0  0  0  0
  -19.6936  -25.6310   21.1187 H   0  0  0  0  0  0
  -19.6680  -27.3223   20.6732 H   0  0  0  0  0  0
  -17.4204  -26.6646   21.4015 H   0  0  0  0  0  0
  -18.0365  -26.0049   22.8982 H   0  0  0  0  0  0
  -19.7929  -30.7236   24.2287 H   0  0  0  0  0  0
  -17.5002  -31.6234   24.5173 H   0  0  0  0  0  0
  -15.5342  -30.2961   23.7603 H   0  0  0  0  0  0
  -15.8688  -28.0779   22.7048 H   0  0  0  0  0  0
  -24.5982  -30.6945   25.7766 H   0  0  0  0  0  0
  -24.8869  -32.2813   26.4827 H   0  0  0  0  0  0
  -25.8096  -30.8895   27.0239 H   0  0  0  0  0  0
  -26.2904  -29.6733   24.1198 H   0  0  0  0  0  0
  -27.4103  -29.7224   25.4604 H   0  0  0  0  0  0
  -27.8753  -30.4275   23.9322 H   0  0  0  0  0  0
  -27.2806  -33.3579   26.2018 H   0  0  0  0  0  0
  -28.3940  -32.6725   25.0280 H   0  0  0  0  0  0
  -28.0773  -31.8365   26.5381 H   0  0  0  0  0  0
  -28.2597  -38.0100   24.7521 H   0  0  0  0  0  0
  -28.1107  -36.2631   24.6283 H   0  0  0  0  0  0
  -27.2319  -37.1430   25.8874 H   0  0  0  0  0  0
  -20.9409  -29.8816   21.6923 H   0  0  0  0  0  0
  -26.0199  -38.2861   24.1384 H   0  0  0  0  0  0
  -27.7296  -20.0276   21.0990 H   0  0  0  0  0  0
  -31.9313  -20.0138   20.2220 H   0  0  0  0  0  0
  -27.7451  -17.5838   21.1079 H   0  0  0  0  0  0
  -31.9612  -17.5699   20.2525 H   0  0  0  0  0  0
  -28.5085  -26.0700   22.0694 H   0  0  0  0  0  0
  -28.3368  -22.8638   22.9697 H   0  0  0  0  0  0
  -28.9702  -24.4044   23.4702 H   0  0  0  0  0  0
  -29.1371  -23.1929   19.3293 H   0  0  0  0  0  0
  -27.9109  -22.3989   20.2838 H   0  0  0  0  0  0
  -30.4992  -22.2842   23.6683 H   0  0  0  0  0  0
  -31.2084  -23.7707   23.1140 H   0  0  0  0  0  0
  -31.7438  -21.5523   21.8153 H   0  0  0  0  0  0
  -31.5191  -23.0301   20.9248 H   0  0  0  0  0  0
  -28.8444  -15.4772   21.0210 H   0  0  0  0  0  0
  1 25  1  0  0  0
  1 30  2  0  0  0
  1 84  1  0  0  0
  2  3  1  0  0  0
  2 25  1  0  0  0
  2 85  1  0  0  0
  2 86  1  0  0  0
  3  4  1  0  0  0
  3 87  1  0  0  0
  3 88  1  0  0  0
  4  5  1  0  0  0
  4 89  1  0  0  0
  4 90  1  0  0  0
  5  6  1  0  0  0
  5 26  1  0  0  0
  5 91  1  0  0  0
  6 25  1  0  0  0
  6 92  1  0  0  0
  6 93  1  0  0  0
  7  8  2  0  0  0
  7 26  1  0  0  0
  7 29  1  0  0  0
  8  9  1  0  0  0
  8 22  1  0  0  0
  9 10  1  0  0  0
  9 27  2  0  0  0
 10 11  2  0  0  0
 10 15  1  0  0  0
 11 12  1  0  0  0
 11 94  1  0  0  0
 12 13  2  0  0  0
 12 95  1  0  0  0
 13 14  1  0  0  0
 13 31  1  0  0  0
 14 15  2  0  0  0
 14 96  1  0  0  0
 15 97  1  0  0  0
 16 17  2  0  0  0
 16 21  1  0  0  0
 16 31  1  0  0  0
 17 18  1  0  0  0
 17 98  1  0  0  0
 18 19  2  0  0  0
 18 99  1  0  0  0
 19 20  1  0  0  0
 19 24  1  0  0  0
 20 21  2  0  0  0
 20100  1  0  0  0
 21 23  1  0  0  0
 22 28  1  0  0  0
 22 32  2  0  0  0
 26 27  1  0  0  0
 28101  1  0  0  0
 28102  1  0  0  0
 29103  1  0  0  0
 29104  1  0  0  0
 33 34  1  0  0  0
 33 66  1  0  0  0
 33 70  2  0  0  0
 34 36  1  0  0  0
 34 59  1  0  0  0
 34105  1  0  0  0
 35 44  2  0  0  0
 35 45  1  0  0  0
 35 68  1  0  0  0
 36 56  1  0  0  0
 36106  1  0  0  0
 37 39  1  0  0  0
 37 47  1  0  0  0
 37 66  1  0  0  0
 37107  1  0  0  0
 38 43  2  0  0  0
 38 46  1  0  0  0
 38 47  1  0  0  0
 39 64  1  0  0  0
 39 67  2  0  0  0
 40 52  1  0  0  0
 40 53  2  0  0  0
 40 58  1  0  0  0
 41108  1  0  0  0
 41109  1  0  0  0
 41110  1  0  0  0
 41 48  1  0  0  0
 42 43  1  0  0  0
 42 66  1  0  0  0
 42111  1  0  0  0
 42112  1  0  0  0
 43 44  1  0  0  0
 44113  1  0  0  0
 45 46  2  0  0  0
 45114  1  0  0  0
 46115  1  0  0  0
 47116  1  0  0  0
 47117  1  0  0  0
 48 56  1  0  0  0
 48 65  1  0  0  0
 48118  1  0  0  0
 49 50  1  0  0  0
 49 53  1  0  0  0
 49 64  1  0  0  0
 49119  1  0  0  0
 50 51  1  0  0  0
 50120  1  0  0  0
 50121  1  0  0  0
 51 52  1  0  0  0
 51122  1  0  0  0
 51123  1  0  0  0
 52124  1  0  0  0
 52125  1  0  0  0
 53 54  1  0  0  0
 54 55  2  0  0  0
 54126  1  0  0  0
 55 57  1  0  0  0
 55127  1  0  0  0
 56 69  2  0  0  0
 57 58  2  0  0  0
 57128  1  0  0  0
 58129  1  0  0  0
 59 60  1  0  0  0
 59 61  1  0  0  0
 59 62  1  0  0  0
 60130  1  0  0  0
 60131  1  0  0  0
 60132  1  0  0  0
 61133  1  0  0  0
 61134  1  0  0  0
 61135  1  0  0  0
 62136  1  0  0  0
 62137  1  0  0  0
 62138  1  0  0  0
 63 65  1  0  0  0
 63139  1  0  0  0
 63140  1  0  0  0
 63141  1  0  0  0
 64142  1  0  0  0
 65143  1  0  0  0
 68 78  1  0  0  0
 71 73  2  0  0  0
 71 75  1  0  0  0
 71144  1  0  0  0
 72 74  1  0  0  0
 72 75  2  0  0  0
 72145  1  0  0  0
 73 76  1  0  0  0
 73146  1  0  0  0
 74 76  2  0  0  0
 74147  1  0  0  0
 75 83  1  0  0  0
 76 84  1  0  0  0
 77 78  2  0  0  0
 77 79  1  0  0  0
 77 80  1  0  0  0
 78148  1  0  0  0
 79 81  1  0  0  0
 79149  1  0  0  0
 79150  1  0  0  0
 80 83  1  0  0  0
 80151  1  0  0  0
 80152  1  0  0  0
 81 82  1  0  0  0
 81153  1  0  0  0
 81154  1  0  0  0
 82 83  1  0  0  0
 82155  1  0  0  0
 82156  1  0  0  0
 84157  1  0  0  0
M  ISO  4   1 100  68 101  78 101  84 100
M  END
> <chiral flag>
0

> <version>
0

> <s_m_source_file>
/data/baiqing/PycharmProjects/Reinvent-master-3.2/result/LINK_invent/BTK/process_docking_weight1_custom_product_contain_oxygen_bond_distance_aromatic_linkinvent_7_9_3/rearranged_h_0123.sdf

> <i_m_source_file_index>
68

> <r_mmod_Potential_Energy-OPLS-2005>
216.693862915039

> <r_mmod_Stretch_Energy-OPLS-2005>
114.338745117188

> <r_mmod_Bend_Energy-OPLS-2005>
224.201187133789

> <r_mmod_Torsional_Energy-OPLS-2005>
254.039398193359

> <r_mmod_Improper_Torsional_Energy-OPLS-2005>
4.66177606582642

> <r_mmod_Van_der_Waal_Energy-OPLS-2005>
143.522186279297

> <r_mmod_Electrostatic_Energy-OPLS-2005>
-388.539001464844

> <r_mmod_Solvation_Energy-OPLS-2005>
-216.92839050293

> <b_mmod_Minimization_Converged-OPLS-2005>
0

> <r_mmod_RMS_Derivative-OPLS-2005>
3.52224564552307

$$$$
68
                    3D
 Structure written by MMmdl.
157165  0  0  1  0            999 V2000
  -30.5121  -14.9352   20.4071 C   0  0  0  0  0  0
  -30.4378  -12.5694   19.4864 C   0  0  0  0  0  0
  -29.5184  -12.5354   18.2436 C   0  0  0  0  0  0
  -28.0458  -12.3366   18.6530 C   0  0  0  0  0  0
  -27.6294  -13.2474   19.8383 C   0  0  2  0  0  0
  -28.6744  -13.2397   20.9733 C   0  0  0  0  0  0
  -25.2437  -13.8209   20.5702 C   0  0  0  0  0  0
  -24.1758  -13.0433   20.9234 C   0  0  0  0  0  0
  -24.6378  -11.6918   20.8760 C   0  0  0  0  0  0
  -23.9051  -10.4291   21.0432 C   0  0  0  0  0  0
  -24.3608   -9.4199   21.9184 C   0  0  0  0  0  0
  -23.6294   -8.2221   22.0750 C   0  0  0  0  0  0
  -22.4271   -8.0252   21.3546 C   0  0  0  0  0  0
  -21.9920   -9.0225   20.4648 C   0  0  0  0  0  0
  -22.7245  -10.2109   20.3068 C   0  0  0  0  0  0
  -21.6835   -6.0714   22.5282 C   0  0  0  0  0  0
  -21.4012   -6.5634   23.8213 C   0  0  0  0  0  0
  -21.3663   -5.6798   24.9181 C   0  0  0  0  0  0
  -21.6032   -4.3057   24.7236 C   0  0  0  0  0  0
  -21.8821   -3.8142   23.4364 C   0  0  0  0  0  0
  -21.9193   -4.6945   22.3418 C   0  0  0  0  0  0
  -22.7776  -13.5180   21.1917 C   0  0  0  0  0  0
  -22.1671   -4.2149   21.0991 F   0  0  0  0  0  0
  -21.5635   -3.4544   25.7743 F   0  0  0  0  0  0
  -29.9516  -13.6595   20.3798 N   0  0  0  0  0  0
  -26.2870  -12.9447   20.3240 N   0  0  0  0  0  0
  -25.9305  -11.6573   20.5692 N   0  0  0  0  0  0
  -22.0464  -12.8131   22.0484 N   0  0  0  0  0  0
  -25.4080  -15.1944   20.4099 N   0  0  0  0  0  0
  -31.7129  -15.0280   20.1234 O   0  0  0  0  0  0
  -21.6626   -6.8860   21.4239 O   0  0  0  0  0  0
  -22.3428  -14.5480   20.6787 O   0  0  0  0  0  0
  -24.6467  -31.8409   23.1854 C   0  0  0  0  0  0
  -25.9231  -32.4665   23.8262 C   0  0  1  0  0  0
  -27.2173  -27.1330   20.1408 C   0  0  0  0  0  0
  -25.5980  -33.8480   24.2185 N   0  0  0  0  0  0
  -23.4491  -30.4619   21.5330 C   0  0  2  0  0  0
  -24.8952  -28.8848   20.1078 C   0  0  0  0  0  0
  -22.7589  -29.4533   22.4854 C   0  0  0  0  0  0
  -18.0318  -28.1389   22.8486 C   0  0  0  0  0  0
  -24.1495  -36.7267   23.2645 C   0  0  0  0  0  0
  -26.0040  -30.7142   21.3826 C   0  0  0  0  0  0
  -26.0730  -29.3248   20.7241 C   0  0  0  0  0  0
  -27.2355  -28.4656   20.7213 C   0  0  0  0  0  0
  -26.0139  -26.7962   19.4831 C   0  0  0  0  0  0
  -24.8785  -27.6357   19.4684 C   0  0  0  0  0  0
  -23.6746  -29.7893   20.1524 C   0  0  0  0  0  0
  -25.4119  -36.3022   24.0320 C   0  0  1  0  0  0
  -20.5944  -28.3712   23.1240 C   0  0  2  0  0  0
  -20.6786  -26.9409   22.5404 C   0  0  0  0  0  0
  -19.5739  -26.6373   21.5229 C   0  0  0  0  0  0
  -18.1940  -26.7929   22.1650 C   0  0  0  0  0  0
  -19.1584  -28.8870   23.2855 C   0  0  0  0  0  0
  -18.9486  -30.1487   23.8839 C   0  0  0  0  0  0
  -17.6473  -30.6572   24.0566 C   0  0  0  0  0  0
  -25.9081  -34.9399   23.5061 C   0  0  0  0  0  0
  -16.5372  -29.9053   23.6343 C   0  0  0  0  0  0
  -16.7307  -28.6498   23.0324 C   0  0  0  0  0  0
  -26.4531  -31.6524   25.0707 C   0  0  0  0  0  0
  -25.3719  -31.3707   26.1411 C   0  0  0  0  0  0
  -27.0387  -30.2914   24.6277 C   0  0  0  0  0  0
  -27.6055  -32.4284   25.7491 C   0  0  0  0  0  0
  -27.5575  -37.1791   24.8467 C   0  0  0  0  0  0
  -21.4286  -29.3042   22.3608 N   0  0  0  0  0  0
  -26.4283  -37.3737   23.9414 N   0  0  0  0  0  0
  -24.7205  -31.0266   22.0893 N   0  0  0  0  0  0
  -23.4240  -28.8081   23.3000 O   0  0  0  0  0  0
  -28.2936  -26.1739   20.1627 O   0  0  0  0  0  0
  -26.5673  -34.8903   22.4642 O   0  0  0  0  0  0
  -23.5588  -32.1311   23.7061 O   0  0  0  0  0  0
  -28.3741  -19.7971   19.9673 C   0  0  0  0  0  0
  -28.4854  -18.3471   20.1084 C   0  0  0  0  0  0
  -30.6564  -19.9548   20.4713 C   0  0  0  0  0  0
  -29.4788  -20.6990   20.1108 C   0  0  0  0  0  0
  -30.7801  -18.5116   20.6540 C   0  0  0  0  0  0
  -29.6874  -17.6028   20.4188 C   0  0  0  0  0  0
  -29.6544  -22.2438   19.7160 C   0  0  0  0  0  0
  -29.2569  -23.6212   19.6741 C   0  0  0  0  0  0
  -30.1791  -24.5209   18.8454 C   0  0  0  0  0  0
  -32.9078  -18.8877   22.0769 C   0  0  0  0  0  0
  -32.1161  -17.9572   21.1413 C   0  0  0  0  0  0
  -28.0963  -24.6216   20.2387 C   0  0  0  0  0  0
  -29.6539  -16.0637   20.5500 N   0  0  0  0  0  0
  -31.4710  -12.7327   19.1789 H   0  0  0  0  0  0
  -30.4231  -11.6051   19.9983 H   0  0  0  0  0  0
  -29.8245  -11.7427   17.5582 H   0  0  0  0  0  0
  -29.6195  -13.4719   17.6937 H   0  0  0  0  0  0
  -27.9189  -11.2870   18.9230 H   0  0  0  0  0  0
  -27.3926  -12.5169   17.7971 H   0  0  0  0  0  0
  -27.5987  -14.2576   19.4304 H   0  0  0  0  0  0
  -28.7539  -12.2496   21.4256 H   0  0  0  0  0  0
  -28.3807  -13.9210   21.7720 H   0  0  0  0  0  0
  -25.2775   -9.5660   22.4723 H   0  0  0  0  0  0
  -24.0012   -7.4606   22.7448 H   0  0  0  0  0  0
  -21.0870   -8.8734   19.8945 H   0  0  0  0  0  0
  -22.3720  -10.9620   19.6165 H   0  0  0  0  0  0
  -21.1999   -7.6143   23.9708 H   0  0  0  0  0  0
  -21.1499   -6.0541   25.9077 H   0  0  0  0  0  0
  -22.0601   -2.7596   23.2875 H   0  0  0  0  0  0
  -22.4126  -11.9788   22.4832 H   0  0  0  0  0  0
  -21.1066  -13.1090   22.2683 H   0  0  0  0  0  0
  -24.6325  -15.8398   20.5045 H   0  0  0  0  0  0
  -26.2375  -15.6333   20.0352 H   0  0  0  0  0  0
  -26.7297  -32.5268   23.0997 H   0  0  0  0  0  0
  -25.0084  -33.9574   25.0306 H   0  0  0  0  0  0
  -22.7540  -31.2890   21.3759 H   0  0  0  0  0  0
  -23.3749  -35.9611   23.3271 H   0  0  0  0  0  0
  -24.3594  -36.8933   22.2069 H   0  0  0  0  0  0
  -23.7248  -37.6458   23.6694 H   0  0  0  0  0  0
  -26.1558  -31.4643   20.6065 H   0  0  0  0  0  0
  -26.8777  -30.7701   22.0197 H   0  0  0  0  0  0
  -28.1394  -28.7977   21.2153 H   0  0  0  0  0  0
  -25.9286  -25.8540   18.9644 H   0  0  0  0  0  0
  -23.9826  -27.3059   18.9586 H   0  0  0  0  0  0
  -23.8109  -30.5621   19.3952 H   0  0  0  0  0  0
  -22.7895  -29.2322   19.8419 H   0  0  0  0  0  0
  -25.1287  -36.1851   25.0810 H   0  0  0  0  0  0
  -21.0054  -28.3292   24.1358 H   0  0  0  0  0  0
  -20.5672  -26.2338   23.3634 H   0  0  0  0  0  0
  -21.6644  -26.7385   22.1196 H   0  0  0  0  0  0
  -19.6891  -25.6283   21.1238 H   0  0  0  0  0  0
  -19.6638  -27.3209   20.6773 H   0  0  0  0  0  0
  -17.4204  -26.6715   21.4046 H   0  0  0  0  0  0
  -18.0304  -26.0076   22.9037 H   0  0  0  0  0  0
  -19.7956  -30.7351   24.2150 H   0  0  0  0  0  0
  -17.5001  -31.6223   24.5204 H   0  0  0  0  0  0
  -15.5356  -30.2913   23.7663 H   0  0  0  0  0  0
  -15.8739  -28.0802   22.6975 H   0  0  0  0  0  0
  -24.5928  -30.6999   25.7749 H   0  0  0  0  0  0
  -24.8870  -32.2883   26.4747 H   0  0  0  0  0  0
  -25.8039  -30.8951   27.0229 H   0  0  0  0  0  0
  -26.2999  -29.6629   24.1282 H   0  0  0  0  0  0
  -27.4003  -29.7199   25.4834 H   0  0  0  0  0  0
  -27.8901  -30.4126   23.9581 H   0  0  0  0  0  0
  -27.2645  -33.3613   26.1990 H   0  0  0  0  0  0
  -28.3918  -32.6794   25.0359 H   0  0  0  0  0  0
  -28.0680  -31.8462   26.5475 H   0  0  0  0  0  0
  -28.2552  -38.0117   24.7521 H   0  0  0  0  0  0
  -28.1098  -36.2646   24.6259 H   0  0  0  0  0  0
  -27.2317  -37.1422   25.8875 H   0  0  0  0  0  0
  -20.9523  -29.8800   21.6802 H   0  0  0  0  0  0
  -26.0141  -38.2805   24.1398 H   0  0  0  0  0  0
  -27.4157  -20.2020   19.6704 H   0  0  0  0  0  0
  -27.5781  -17.7826   19.9436 H   0  0  0  0  0  0
  -31.5454  -20.5532   20.5935 H   0  0  0  0  0  0
  -30.5549  -22.1727   19.1240 H   0  0  0  0  0  0
  -30.9453  -23.9905   18.2760 H   0  0  0  0  0  0
  -30.6946  -25.2355   19.4880 H   0  0  0  0  0  0
  -29.5911  -25.0844   18.1177 H   0  0  0  0  0  0
  -33.7548  -18.3540   22.5091 H   0  0  0  0  0  0
  -32.2843  -19.2411   22.9006 H   0  0  0  0  0  0
  -33.3120  -19.7568   21.5542 H   0  0  0  0  0  0
  -32.7297  -17.6774   20.2834 H   0  0  0  0  0  0
  -31.9255  -17.0432   21.7019 H   0  0  0  0  0  0
  -27.9205  -24.3622   21.2841 H   0  0  0  0  0  0
  -27.1876  -24.3306   19.7157 H   0  0  0  0  0  0
  -28.7129  -15.7297   20.6859 H   0  0  0  0  0  0
  1 25  1  0  0  0
  1 30  2  0  0  0
  1 83  1  0  0  0
  2  3  1  0  0  0
  2 25  1  0  0  0
  2 84  1  0  0  0
  2 85  1  0  0  0
  3  4  1  0  0  0
  3 86  1  0  0  0
  3 87  1  0  0  0
  4  5  1  0  0  0
  4 88  1  0  0  0
  4 89  1  0  0  0
  5  6  1  0  0  0
  5 26  1  0  0  0
  5 90  1  0  0  0
  6 25  1  0  0  0
  6 91  1  0  0  0
  6 92  1  0  0  0
  7  8  2  0  0  0
  7 26  1  0  0  0
  7 29  1  0  0  0
  8  9  1  0  0  0
  8 22  1  0  0  0
  9 10  1  0  0  0
  9 27  2  0  0  0
 10 11  2  0  0  0
 10 15  1  0  0  0
 11 12  1  0  0  0
 11 93  1  0  0  0
 12 13  2  0  0  0
 12 94  1  0  0  0
 13 14  1  0  0  0
 13 31  1  0  0  0
 14 15  2  0  0  0
 14 95  1  0  0  0
 15 96  1  0  0  0
 16 17  2  0  0  0
 16 21  1  0  0  0
 16 31  1  0  0  0
 17 18  1  0  0  0
 17 97  1  0  0  0
 18 19  2  0  0  0
 18 98  1  0  0  0
 19 20  1  0  0  0
 19 24  1  0  0  0
 20 21  2  0  0  0
 20 99  1  0  0  0
 21 23  1  0  0  0
 22 28  1  0  0  0
 22 32  2  0  0  0
 26 27  1  0  0  0
 28100  1  0  0  0
 28101  1  0  0  0
 29102  1  0  0  0
 29103  1  0  0  0
 33 34  1  0  0  0
 33 66  1  0  0  0
 33 70  2  0  0  0
 34 36  1  0  0  0
 34 59  1  0  0  0
 34104  1  0  0  0
 35 44  2  0  0  0
 35 45  1  0  0  0
 35 68  1  0  0  0
 36 56  1  0  0  0
 36105  1  0  0  0
 37 39  1  0  0  0
 37 47  1  0  0  0
 37 66  1  0  0  0
 37106  1  0  0  0
 38 43  2  0  0  0
 38 46  1  0  0  0
 38 47  1  0  0  0
 39 64  1  0  0  0
 39 67  2  0  0  0
 40 52  1  0  0  0
 40 53  2  0  0  0
 40 58  1  0  0  0
 41107  1  0  0  0
 41108  1  0  0  0
 41109  1  0  0  0
 41 48  1  0  0  0
 42 43  1  0  0  0
 42 66  1  0  0  0
 42110  1  0  0  0
 42111  1  0  0  0
 43 44  1  0  0  0
 44112  1  0  0  0
 45 46  2  0  0  0
 45113  1  0  0  0
 46114  1  0  0  0
 47115  1  0  0  0
 47116  1  0  0  0
 48 56  1  0  0  0
 48 65  1  0  0  0
 48117  1  0  0  0
 49 50  1  0  0  0
 49 53  1  0  0  0
 49 64  1  0  0  0
 49118  1  0  0  0
 50 51  1  0  0  0
 50119  1  0  0  0
 50120  1  0  0  0
 51 52  1  0  0  0
 51121  1  0  0  0
 51122  1  0  0  0
 52123  1  0  0  0
 52124  1  0  0  0
 53 54  1  0  0  0
 54 55  2  0  0  0
 54125  1  0  0  0
 55 57  1  0  0  0
 55126  1  0  0  0
 56 69  2  0  0  0
 57 58  2  0  0  0
 57127  1  0  0  0
 58128  1  0  0  0
 59 60  1  0  0  0
 59 61  1  0  0  0
 59 62  1  0  0  0
 60129  1  0  0  0
 60130  1  0  0  0
 60131  1  0  0  0
 61132  1  0  0  0
 61133  1  0  0  0
 61134  1  0  0  0
 62135  1  0  0  0
 62136  1  0  0  0
 62137  1  0  0  0
 63 65  1  0  0  0
 63138  1  0  0  0
 63139  1  0  0  0
 63140  1  0  0  0
 64141  1  0  0  0
 65142  1  0  0  0
 68 82  1  0  0  0
 71 72  2  0  0  0
 71 74  1  0  0  0
 71143  1  0  0  0
 72 76  1  0  0  0
 72144  1  0  0  0
 73 74  2  0  0  0
 73 75  1  0  0  0
 73145  1  0  0  0
 74 77  1  0  0  0
 75 76  2  0  0  0
 75 81  1  0  0  0
 76 83  1  0  0  0
 77 78  2  0  0  0
 77146  1  0  0  0
 78 79  1  0  0  0
 78 82  1  0  0  0
 79147  1  0  0  0
 79148  1  0  0  0
 79149  1  0  0  0
 80 81  1  0  0  0
 80150  1  0  0  0
 80151  1  0  0  0
 80152  1  0  0  0
 81153  1  0  0  0
 81154  1  0  0  0
 82155  1  0  0  0
 82156  1  0  0  0
 83157  1  0  0  0
M  ISO  4   1 100  68 101  82 101  83 100
M  END
> <chiral flag>
0

> <version>
0

> <s_m_source_file>
/data/baiqing/PycharmProjects/Reinvent-master-3.2/result/LINK_invent/BTK/process_docking_weight1_custom_product_contain_oxygen_bond_distance_aromatic_linkinvent_7_9_3/rearranged_h_0123.sdf

> <i_m_source_file_index>
69

> <r_mmod_Potential_Energy-OPLS-2005>
604.570251464844

> <r_mmod_Stretch_Energy-OPLS-2005>
237.208770751953

> <r_mmod_Bend_Energy-OPLS-2005>
361.776611328125

> <r_mmod_Torsional_Energy-OPLS-2005>
247.530868530273

> <r_mmod_Improper_Torsional_Energy-OPLS-2005>
6.84958791732788

> <r_mmod_Van_der_Waal_Energy-OPLS-2005>
142.51530456543

> <r_mmod_Electrostatic_Energy-OPLS-2005>
-376.070434570312

> <r_mmod_Solvation_Energy-OPLS-2005>
-198.274917602539

> <b_mmod_Minimization_Converged-OPLS-2005>
0

> <r_mmod_RMS_Derivative-OPLS-2005>
3.39891505241394

$$$$
69
                    3D
 Structure written by MMmdl.
155163  0  0  1  0            999 V2000
  -30.7207  -14.5009   20.5597 C   0  0  0  0  0  0
  -30.4155  -12.3240   19.4301 C   0  0  0  0  0  0
  -29.4919  -12.5015   18.2089 C   0  0  0  0  0  0
  -28.0155  -12.3578   18.6248 C   0  0  0  0  0  0
  -27.6567  -13.2147   19.8687 C   0  0  2  0  0  0
  -28.7012  -13.0393   20.9945 C   0  0  0  0  0  0
  -25.2568  -13.8179   20.5685 C   0  0  0  0  0  0
  -24.1832  -13.0447   20.9189 C   0  0  0  0  0  0
  -24.6400  -11.6916   20.8751 C   0  0  0  0  0  0
  -23.9070  -10.4297   21.0413 C   0  0  0  0  0  0
  -24.3620   -9.4208   21.9188 C   0  0  0  0  0  0
  -23.6296   -8.2245   22.0757 C   0  0  0  0  0  0
  -22.4278   -8.0284   21.3547 C   0  0  0  0  0  0
  -21.9912   -9.0260   20.4649 C   0  0  0  0  0  0
  -22.7244  -10.2140   20.3060 C   0  0  0  0  0  0
  -21.6852   -6.0739   22.5280 C   0  0  0  0  0  0
  -21.4013   -6.5643   23.8214 C   0  0  0  0  0  0
  -21.3660   -5.6795   24.9175 C   0  0  0  0  0  0
  -21.6041   -4.3057   24.7223 C   0  0  0  0  0  0
  -21.8820   -3.8150   23.4345 C   0  0  0  0  0  0
  -21.9193   -4.6966   22.3402 C   0  0  0  0  0  0
  -22.7853  -13.5238   21.1849 C   0  0  0  0  0  0
  -22.1661   -4.2153   21.0979 F   0  0  0  0  0  0
  -21.5628   -3.4537   25.7736 F   0  0  0  0  0  0
  -30.0267  -13.3347   20.4294 N   0  0  0  0  0  0
  -26.3006  -12.9362   20.3355 N   0  0  0  0  0  0
  -25.9328  -11.6514   20.5779 N   0  0  0  0  0  0
  -22.0493  -12.8231   22.0405 N   0  0  0  0  0  0
  -25.4282  -15.1896   20.4076 N   0  0  0  0  0  0
  -31.8624  -14.6306   20.1100 O   0  0  0  0  0  0
  -21.6642   -6.8881   21.4242 O   0  0  0  0  0  0
  -22.3541  -14.5545   20.6700 O   0  0  0  0  0  0
  -24.6188  -31.8665   23.2101 C   0  0  0  0  0  0
  -25.9069  -32.4818   23.8394 C   0  0  1  0  0  0
  -27.2227  -27.3992   20.1020 C   0  0  0  0  0  0
  -25.5913  -33.8617   24.2325 N   0  0  0  0  0  0
  -23.4082  -30.4933   21.5507 C   0  0  2  0  0  0
  -24.8547  -28.9646   20.1083 C   0  0  0  0  0  0
  -22.7434  -29.4663   22.4969 C   0  0  0  0  0  0
  -18.0279  -28.1379   22.8498 C   0  0  0  0  0  0
  -24.1490  -36.7307   23.2637 C   0  0  0  0  0  0
  -25.9435  -30.8214   21.3709 C   0  0  0  0  0  0
  -26.0195  -29.4568   20.7117 C   0  0  0  0  0  0
  -27.2095  -28.6839   20.7041 C   0  0  0  0  0  0
  -26.0438  -26.9504   19.4619 C   0  0  0  0  0  0
  -24.8647  -27.7129   19.4760 C   0  0  0  0  0  0
  -23.6177  -29.8330   20.1631 C   0  0  0  0  0  0
  -25.4114  -36.3109   24.0336 C   0  0  1  0  0  0
  -20.5875  -28.3678   23.1302 C   0  0  2  0  0  0
  -20.6778  -26.9405   22.5418 C   0  0  0  0  0  0
  -19.5754  -26.6388   21.5216 C   0  0  0  0  0  0
  -18.1930  -26.7934   22.1620 C   0  0  0  0  0  0
  -19.1530  -28.8844   23.2901 C   0  0  0  0  0  0
  -18.9459  -30.1451   23.8911 C   0  0  0  0  0  0
  -17.6461  -30.6589   24.0564 C   0  0  0  0  0  0
  -25.9040  -34.9475   23.5127 C   0  0  0  0  0  0
  -16.5350  -29.9092   23.6323 C   0  0  0  0  0  0
  -16.7268  -28.6504   23.0350 C   0  0  0  0  0  0
  -26.4480  -31.6599   25.0729 C   0  0  0  0  0  0
  -25.3737  -31.3720   26.1471 C   0  0  0  0  0  0
  -27.0309  -30.3039   24.6127 C   0  0  0  0  0  0
  -27.6060  -32.4316   25.7490 C   0  0  0  0  0  0
  -27.5586  -37.1808   24.8466 C   0  0  0  0  0  0
  -21.4159  -29.3043   22.3705 N   0  0  0  0  0  0
  -26.4300  -37.3793   23.9406 N   0  0  0  0  0  0
  -24.6751  -31.0749   22.1015 N   0  0  0  0  0  0
  -23.4194  -28.8196   23.3013 O   0  0  0  0  0  0
  -28.3336  -26.5691   20.1616 O   0  0  0  0  0  0
  -26.5597  -34.8928   22.4687 O   0  0  0  0  0  0
  -23.5374  -32.1425   23.7481 O   0  0  0  0  0  0
  -31.8267  -17.0789   21.8416 C   0  0  0  0  0  0
  -31.5881  -19.5056   21.7016 C   0  0  0  0  0  0
  -29.7895  -18.0562   20.9308 C   0  0  0  0  0  0
  -32.3421  -18.3702   22.0602 C   0  0  0  0  0  0
  -30.5533  -16.8968   21.2556 C   0  0  0  0  0  0
  -30.2944  -19.3743   21.1373 C   0  0  0  0  0  0
  -29.1595  -24.2383   20.7902 C   0  0  0  0  0  0
  -28.9603  -22.8947   20.8055 C   0  0  0  0  0  0
  -33.7101  -18.5354   22.6936 C   0  0  0  0  0  0
  -28.0144  -25.2508   20.6849 C   0  0  0  0  0  0
  -30.0200  -21.8069   21.0064 C   0  0  0  0  0  0
  -30.0371  -15.5684   21.0407 N   0  0  0  0  0  0
  -29.5096  -20.4725   20.7853 O   0  0  0  0  0  0
  -31.4608  -12.4083   19.1273 H   0  0  0  0  0  0
  -30.3092  -11.3219   19.8488 H   0  0  0  0  0  0
  -29.7365  -11.7671   17.4401 H   0  0  0  0  0  0
  -29.6552  -13.4818   17.7584 H   0  0  0  0  0  0
  -27.8355  -11.3035   18.8383 H   0  0  0  0  0  0
  -27.3614  -12.6127   17.7903 H   0  0  0  0  0  0
  -27.6884  -14.2562   19.5477 H   0  0  0  0  0  0
  -28.6834  -12.0179   21.3775 H   0  0  0  0  0  0
  -28.4650  -13.6786   21.8465 H   0  0  0  0  0  0
  -25.2766   -9.5682   22.4760 H   0  0  0  0  0  0
  -24.0004   -7.4632   22.7474 H   0  0  0  0  0  0
  -21.0843   -8.8779   19.8954 H   0  0  0  0  0  0
  -22.3703  -10.9678   19.6169 H   0  0  0  0  0  0
  -21.2006   -7.6152   23.9719 H   0  0  0  0  0  0
  -21.1479   -6.0525   25.9079 H   0  0  0  0  0  0
  -22.0597   -2.7613   23.2843 H   0  0  0  0  0  0
  -22.4102  -11.9885   22.4782 H   0  0  0  0  0  0
  -21.1118  -13.1267   22.2621 H   0  0  0  0  0  0
  -24.6602  -15.8442   20.5087 H   0  0  0  0  0  0
  -26.2772  -15.6262   20.0719 H   0  0  0  0  0  0
  -26.7137  -32.5513   23.1147 H   0  0  0  0  0  0
  -25.0091  -33.9778   25.0492 H   0  0  0  0  0  0
  -22.6989  -31.3124   21.4135 H   0  0  0  0  0  0
  -23.3757  -35.9635   23.3315 H   0  0  0  0  0  0
  -24.3587  -36.8905   22.2048 H   0  0  0  0  0  0
  -23.7240  -37.6518   23.6639 H   0  0  0  0  0  0
  -26.0664  -31.5894   20.6061 H   0  0  0  0  0  0
  -26.8277  -30.8681   21.9946 H   0  0  0  0  0  0
  -28.1017  -29.0531   21.1909 H   0  0  0  0  0  0
  -26.0155  -26.0021   18.9458 H   0  0  0  0  0  0
  -23.9751  -27.3352   18.9909 H   0  0  0  0  0  0
  -23.7286  -30.6110   19.4071 H   0  0  0  0  0  0
  -22.7405  -29.2566   19.8634 H   0  0  0  0  0  0
  -25.1296  -36.1969   25.0830 H   0  0  0  0  0  0
  -20.9969  -28.3239   24.1421 H   0  0  0  0  0  0
  -20.5684  -26.2281   23.3614 H   0  0  0  0  0  0
  -21.6644  -26.7452   22.1201 H   0  0  0  0  0  0
  -19.6918  -25.6302   21.1236 H   0  0  0  0  0  0
  -19.6695  -27.3206   20.6751 H   0  0  0  0  0  0
  -17.4207  -26.6693   21.4011 H   0  0  0  0  0  0
  -18.0318  -26.0070   22.9008 H   0  0  0  0  0  0
  -19.7935  -30.7263   24.2287 H   0  0  0  0  0  0
  -17.5016  -31.6267   24.5170 H   0  0  0  0  0  0
  -15.5353  -30.2998   23.7651 H   0  0  0  0  0  0
  -15.8666  -28.0830   22.7055 H   0  0  0  0  0  0
  -24.5924  -30.7044   25.7813 H   0  0  0  0  0  0
  -24.8907  -32.2881   26.4883 H   0  0  0  0  0  0
  -25.8088  -30.8922   27.0248 H   0  0  0  0  0  0
  -26.2859  -29.6802   24.1172 H   0  0  0  0  0  0
  -27.4064  -29.7269   25.4587 H   0  0  0  0  0  0
  -27.8702  -30.4356   23.9296 H   0  0  0  0  0  0
  -27.2687  -33.3612   26.2085 H   0  0  0  0  0  0
  -28.3858  -32.6877   25.0306 H   0  0  0  0  0  0
  -28.0740  -31.8425   26.5387 H   0  0  0  0  0  0
  -28.2613  -38.0094   24.7506 H   0  0  0  0  0  0
  -28.1069  -36.2630   24.6301 H   0  0  0  0  0  0
  -27.2304  -37.1463   25.8867 H   0  0  0  0  0  0
  -20.9323  -29.8773   21.6930 H   0  0  0  0  0  0
  -26.0192  -38.2872   24.1402 H   0  0  0  0  0  0
  -32.4214  -16.2223   22.1300 H   0  0  0  0  0  0
  -32.0284  -20.4756   21.8791 H   0  0  0  0  0  0
  -28.8057  -17.9395   20.4990 H   0  0  0  0  0  0
  -30.1566  -24.6417   20.8989 H   0  0  0  0  0  0
  -27.9502  -22.5236   20.7031 H   0  0  0  0  0  0
  -34.3899  -17.7501   22.3614 H   0  0  0  0  0  0
  -33.6322  -18.4817   23.7801 H   0  0  0  0  0  0
  -34.1562  -19.4957   22.4322 H   0  0  0  0  0  0
  -27.6152  -25.3823   21.6923 H   0  0  0  0  0  0
  -27.2353  -24.7537   20.1092 H   0  0  0  0  0  0
  -30.3613  -21.9041   22.0378 H   0  0  0  0  0  0
  -30.8708  -22.0027   20.3525 H   0  0  0  0  0  0
  -29.0526  -15.4245   21.2059 H   0  0  0  0  0  0
  1 25  1  0  0  0
  1 30  2  0  0  0
  1 82  1  0  0  0
  2  3  1  0  0  0
  2 25  1  0  0  0
  2 84  1  0  0  0
  2 85  1  0  0  0
  3  4  1  0  0  0
  3 86  1  0  0  0
  3 87  1  0  0  0
  4  5  1  0  0  0
  4 88  1  0  0  0
  4 89  1  0  0  0
  5  6  1  0  0  0
  5 26  1  0  0  0
  5 90  1  0  0  0
  6 25  1  0  0  0
  6 91  1  0  0  0
  6 92  1  0  0  0
  7  8  2  0  0  0
  7 26  1  0  0  0
  7 29  1  0  0  0
  8  9  1  0  0  0
  8 22  1  0  0  0
  9 10  1  0  0  0
  9 27  2  0  0  0
 10 11  2  0  0  0
 10 15  1  0  0  0
 11 12  1  0  0  0
 11 93  1  0  0  0
 12 13  2  0  0  0
 12 94  1  0  0  0
 13 14  1  0  0  0
 13 31  1  0  0  0
 14 15  2  0  0  0
 14 95  1  0  0  0
 15 96  1  0  0  0
 16 17  2  0  0  0
 16 21  1  0  0  0
 16 31  1  0  0  0
 17 18  1  0  0  0
 17 97  1  0  0  0
 18 19  2  0  0  0
 18 98  1  0  0  0
 19 20  1  0  0  0
 19 24  1  0  0  0
 20 21  2  0  0  0
 20 99  1  0  0  0
 21 23  1  0  0  0
 22 28  1  0  0  0
 22 32  2  0  0  0
 26 27  1  0  0  0
 28100  1  0  0  0
 28101  1  0  0  0
 29102  1  0  0  0
 29103  1  0  0  0
 33 34  1  0  0  0
 33 66  1  0  0  0
 33 70  2  0  0  0
 34 36  1  0  0  0
 34 59  1  0  0  0
 34104  1  0  0  0
 35 44  2  0  0  0
 35 45  1  0  0  0
 35 68  1  0  0  0
 36 56  1  0  0  0
 36105  1  0  0  0
 37 39  1  0  0  0
 37 47  1  0  0  0
 37 66  1  0  0  0
 37106  1  0  0  0
 38 43  2  0  0  0
 38 46  1  0  0  0
 38 47  1  0  0  0
 39 64  1  0  0  0
 39 67  2  0  0  0
 40 52  1  0  0  0
 40 53  2  0  0  0
 40 58  1  0  0  0
 41107  1  0  0  0
 41108  1  0  0  0
 41109  1  0  0  0
 41 48  1  0  0  0
 42 43  1  0  0  0
 42 66  1  0  0  0
 42110  1  0  0  0
 42111  1  0  0  0
 43 44  1  0  0  0
 44112  1  0  0  0
 45 46  2  0  0  0
 45113  1  0  0  0
 46114  1  0  0  0
 47115  1  0  0  0
 47116  1  0  0  0
 48 56  1  0  0  0
 48 65  1  0  0  0
 48117  1  0  0  0
 49 50  1  0  0  0
 49 53  1  0  0  0
 49 64  1  0  0  0
 49118  1  0  0  0
 50 51  1  0  0  0
 50119  1  0  0  0
 50120  1  0  0  0
 51 52  1  0  0  0
 51121  1  0  0  0
 51122  1  0  0  0
 52123  1  0  0  0
 52124  1  0  0  0
 53 54  1  0  0  0
 54 55  2  0  0  0
 54125  1  0  0  0
 55 57  1  0  0  0
 55126  1  0  0  0
 56 69  2  0  0  0
 57 58  2  0  0  0
 57127  1  0  0  0
 58128  1  0  0  0
 59 60  1  0  0  0
 59 61  1  0  0  0
 59 62  1  0  0  0
 60129  1  0  0  0
 60130  1  0  0  0
 60131  1  0  0  0
 61132  1  0  0  0
 61133  1  0  0  0
 61134  1  0  0  0
 62135  1  0  0  0
 62136  1  0  0  0
 62137  1  0  0  0
 63 65  1  0  0  0
 63138  1  0  0  0
 63139  1  0  0  0
 63140  1  0  0  0
 64141  1  0  0  0
 65142  1  0  0  0
 68 80  1  0  0  0
 71 74  2  0  0  0
 71 75  1  0  0  0
 71143  1  0  0  0
 72 74  1  0  0  0
 72 76  2  0  0  0
 72144  1  0  0  0
 73 75  2  0  0  0
 73 76  1  0  0  0
 73145  1  0  0  0
 74 79  1  0  0  0
 75 82  1  0  0  0
 76 83  1  0  0  0
 77 78  2  0  0  0
 77 80  1  0  0  0
 77146  1  0  0  0
 78 81  1  0  0  0
 78147  1  0  0  0
 79148  1  0  0  0
 79149  1  0  0  0
 79150  1  0  0  0
 80151  1  0  0  0
 80152  1  0  0  0
 81 83  1  0  0  0
 81153  1  0  0  0
 81154  1  0  0  0
 82155  1  0  0  0
M  ISO  4   1 100  68 101  80 101  82 100
M  END
> <chiral flag>
0

> <version>
0

> <s_m_source_file>
/data/baiqing/PycharmProjects/Reinvent-master-3.2/result/LINK_invent/BTK/process_docking_weight1_custom_product_contain_oxygen_bond_distance_aromatic_linkinvent_7_9_3/rearranged_h_0123.sdf

> <i_m_source_file_index>
70

> <r_mmod_Potential_Energy-OPLS-2005>
14.818977355957

> <r_mmod_Stretch_Energy-OPLS-2005>
46.4914779663086

> <r_mmod_Bend_Energy-OPLS-2005>
99.7095642089844

> <r_mmod_Torsional_Energy-OPLS-2005>
235.569427490234

> <r_mmod_Improper_Torsional_Energy-OPLS-2005>
4.34456062316895

> <r_mmod_Van_der_Waal_Energy-OPLS-2005>
161.408264160156

> <r_mmod_Electrostatic_Energy-OPLS-2005>
-347.384979248047

> <r_mmod_Solvation_Energy-OPLS-2005>
-207.830581665039

> <b_mmod_Minimization_Converged-OPLS-2005>
0

> <r_mmod_RMS_Derivative-OPLS-2005>
0.805709362030029

$$$$
70
                    3D
 Structure written by MMmdl.
155163  0  0  1  0            999 V2000
  -30.7010  -14.5780   20.4605 C   0  0  0  0  0  0
  -30.4091  -12.3490   19.4611 C   0  0  0  0  0  0
  -29.4964  -12.4946   18.2275 C   0  0  0  0  0  0
  -28.0236  -12.3164   18.6384 C   0  0  0  0  0  0
  -27.6391  -13.2137   19.8432 C   0  0  2  0  0  0
  -28.6836  -13.1380   20.9799 C   0  0  0  0  0  0
  -25.2528  -13.8169   20.5696 C   0  0  0  0  0  0
  -24.1796  -13.0442   20.9185 C   0  0  0  0  0  0
  -24.6350  -11.6911   20.8706 C   0  0  0  0  0  0
  -23.9015  -10.4309   21.0382 C   0  0  0  0  0  0
  -24.3591   -9.4241   21.9172 C   0  0  0  0  0  0
  -23.6287   -8.2269   22.0758 C   0  0  0  0  0  0
  -22.4286   -8.0274   21.3535 C   0  0  0  0  0  0
  -21.9895   -9.0225   20.4629 C   0  0  0  0  0  0
  -22.7189  -10.2124   20.3038 C   0  0  0  0  0  0
  -21.6886   -6.0716   22.5270 C   0  0  0  0  0  0
  -21.4026   -6.5634   23.8191 C   0  0  0  0  0  0
  -21.3665   -5.6796   24.9165 C   0  0  0  0  0  0
  -21.6059   -4.3055   24.7232 C   0  0  0  0  0  0
  -21.8817   -3.8137   23.4350 C   0  0  0  0  0  0
  -21.9196   -4.6942   22.3402 C   0  0  0  0  0  0
  -22.7820  -13.5234   21.1856 C   0  0  0  0  0  0
  -22.1670   -4.2127   21.0982 F   0  0  0  0  0  0
  -21.5631   -3.4547   25.7740 F   0  0  0  0  0  0
  -30.0149  -13.3993   20.4165 N   0  0  0  0  0  0
  -26.2918  -12.9329   20.3277 N   0  0  0  0  0  0
  -25.9279  -11.6483   20.5731 N   0  0  0  0  0  0
  -22.0486  -12.8204   22.0404 N   0  0  0  0  0  0
  -25.4273  -15.1894   20.4127 N   0  0  0  0  0  0
  -31.9128  -14.6108   20.2324 O   0  0  0  0  0  0
  -21.6675   -6.8861   21.4226 O   0  0  0  0  0  0
  -22.3496  -14.5542   20.6725 O   0  0  0  0  0  0
  -24.6197  -31.8631   23.2125 C   0  0  0  0  0  0
  -25.9086  -32.4785   23.8406 C   0  0  1  0  0  0
  -27.2248  -27.3953   20.1217 C   0  0  0  0  0  0
  -25.5938  -33.8593   24.2351 N   0  0  0  0  0  0
  -23.4066  -30.4880   21.5556 C   0  0  2  0  0  0
  -24.8501  -28.9443   20.1275 C   0  0  0  0  0  0
  -22.7411  -29.4664   22.5058 C   0  0  0  0  0  0
  -18.0256  -28.1396   22.8528 C   0  0  0  0  0  0
  -24.1489  -36.7284   23.2652 C   0  0  0  0  0  0
  -25.9372  -30.8194   21.3701 C   0  0  0  0  0  0
  -26.0138  -29.4493   20.7220 C   0  0  0  0  0  0
  -27.2077  -28.6839   20.7135 C   0  0  0  0  0  0
  -26.0448  -26.9088   19.5247 C   0  0  0  0  0  0
  -24.8617  -27.6733   19.5272 C   0  0  0  0  0  0
  -23.6126  -29.8148   20.1726 C   0  0  0  0  0  0
  -25.4120  -36.3091   24.0343 C   0  0  1  0  0  0
  -20.5847  -28.3683   23.1364 C   0  0  2  0  0  0
  -20.6759  -26.9425   22.5459 C   0  0  0  0  0  0
  -19.5731  -26.6409   21.5259 C   0  0  0  0  0  0
  -18.1889  -26.7955   22.1626 C   0  0  0  0  0  0
  -19.1502  -28.8864   23.2937 C   0  0  0  0  0  0
  -18.9419  -30.1471   23.8953 C   0  0  0  0  0  0
  -17.6418  -30.6606   24.0596 C   0  0  0  0  0  0
  -25.9058  -34.9459   23.5154 C   0  0  0  0  0  0
  -16.5324  -29.9109   23.6340 C   0  0  0  0  0  0
  -16.7243  -28.6521   23.0379 C   0  0  0  0  0  0
  -26.4541  -31.6563   25.0730 C   0  0  0  0  0  0
  -25.3801  -31.3563   26.1448 C   0  0  0  0  0  0
  -27.0446  -30.3032   24.6122 C   0  0  0  0  0  0
  -27.6132  -32.4296   25.7442 C   0  0  0  0  0  0
  -27.5601  -37.1775   24.8464 C   0  0  0  0  0  0
  -21.4135  -29.3032   22.3766 N   0  0  0  0  0  0
  -26.4301  -37.3791   23.9434 N   0  0  0  0  0  0
  -24.6726  -31.0698   22.1046 N   0  0  0  0  0  0
  -23.4163  -28.8209   23.3116 O   0  0  0  0  0  0
  -28.3714  -26.6266   20.0603 O   0  0  0  0  0  0
  -26.5592  -34.8907   22.4698 O   0  0  0  0  0  0
  -23.5388  -32.1427   23.7517 O   0  0  0  0  0  0
  -29.3036  -19.8273   18.1095 C   0  0  0  0  0  0
  -29.0449  -20.8863   18.9923 C   0  0  0  0  0  0
  -29.6193  -19.4395   20.8692 C   0  0  0  0  0  0
  -29.8868  -18.3491   19.9848 C   0  0  0  0  0  0
  -29.7294  -18.5719   18.5891 C   0  0  0  0  0  0
  -29.1954  -20.7155   20.3820 C   0  0  0  0  0  0
  -30.4916  -17.0503   20.4177 C   0  0  0  0  0  0
  -29.9043  -15.8210   20.3861 C   0  0  0  0  0  0
  -28.3610  -24.1340   20.5190 C   0  0  0  0  0  0
  -30.0624  -17.4930   17.5661 C   0  0  0  0  0  0
  -29.4182  -23.0778   20.9565 C   0  0  0  0  0  0
  -28.5158  -25.5869   21.0617 C   0  0  0  0  0  0
  -27.4281  -23.8288   19.7684 O   0  0  0  0  0  0
  -28.8890  -21.7567   21.2496 O   0  0  0  0  0  0
  -31.4572  -12.4208   19.1675 H   0  0  0  0  0  0
  -30.2918  -11.3635   19.9143 H   0  0  0  0  0  0
  -29.7649  -11.7654   17.4652 H   0  0  0  0  0  0
  -29.6374  -13.4777   17.7746 H   0  0  0  0  0  0
  -27.8800  -11.2660   18.8949 H   0  0  0  0  0  0
  -27.3651  -12.5141   17.7925 H   0  0  0  0  0  0
  -27.6257  -14.2274   19.4500 H   0  0  0  0  0  0
  -28.6687  -12.1591   21.4608 H   0  0  0  0  0  0
  -28.4462  -13.8622   21.7613 H   0  0  0  0  0  0
  -25.2721   -9.5750   22.4743 H   0  0  0  0  0  0
  -24.0008   -7.4691   22.7500 H   0  0  0  0  0  0
  -21.0832   -8.8684   19.8943 H   0  0  0  0  0  0
  -22.3604  -10.9634   19.6144 H   0  0  0  0  0  0
  -21.2031   -7.6145   23.9682 H   0  0  0  0  0  0
  -21.1503   -6.0543   25.9061 H   0  0  0  0  0  0
  -22.0596   -2.7598   23.2870 H   0  0  0  0  0  0
  -22.4122  -11.9844   22.4741 H   0  0  0  0  0  0
  -21.1090  -13.1171   22.2625 H   0  0  0  0  0  0
  -24.6650  -15.8493   20.5211 H   0  0  0  0  0  0
  -26.2891  -15.6254   20.1114 H   0  0  0  0  0  0
  -26.7151  -32.5480   23.1148 H   0  0  0  0  0  0
  -25.0146  -33.9740   25.0547 H   0  0  0  0  0  0
  -22.6995  -31.3078   21.4167 H   0  0  0  0  0  0
  -23.3778  -35.9577   23.3282 H   0  0  0  0  0  0
  -24.3607  -36.8944   22.2076 H   0  0  0  0  0  0
  -23.7186  -37.6450   23.6701 H   0  0  0  0  0  0
  -26.0521  -31.5836   20.6020 H   0  0  0  0  0  0
  -26.8233  -30.8719   21.9894 H   0  0  0  0  0  0
  -28.1103  -29.0756   21.1630 H   0  0  0  0  0  0
  -26.0398  -25.9345   19.0565 H   0  0  0  0  0  0
  -23.9621  -27.2758   19.0781 H   0  0  0  0  0  0
  -23.7168  -30.5863   19.4092 H   0  0  0  0  0  0
  -22.7350  -29.2337   19.8827 H   0  0  0  0  0  0
  -25.1301  -36.1962   25.0832 H   0  0  0  0  0  0
  -20.9926  -28.3235   24.1489 H   0  0  0  0  0  0
  -20.5720  -26.2280   23.3635 H   0  0  0  0  0  0
  -21.6623  -26.7509   22.1216 H   0  0  0  0  0  0
  -19.6909  -25.6335   21.1254 H   0  0  0  0  0  0
  -19.6691  -27.3259   20.6822 H   0  0  0  0  0  0
  -17.4208  -26.6812   21.3958 H   0  0  0  0  0  0
  -18.0206  -26.0045   22.8950 H   0  0  0  0  0  0
  -19.7883  -30.7280   24.2349 H   0  0  0  0  0  0
  -17.4952  -31.6274   24.5191 H   0  0  0  0  0  0
  -15.5322  -30.3020   23.7628 H   0  0  0  0  0  0
  -15.8633  -28.0841   22.7108 H   0  0  0  0  0  0
  -24.6069  -30.6822   25.7735 H   0  0  0  0  0  0
  -24.8861  -32.2637   26.4908 H   0  0  0  0  0  0
  -25.8157  -30.8721   27.0188 H   0  0  0  0  0  0
  -26.2984  -29.6619   24.1403 H   0  0  0  0  0  0
  -27.4502  -29.7436   25.4561 H   0  0  0  0  0  0
  -27.8673  -30.4418   23.9106 H   0  0  0  0  0  0
  -27.2828  -33.3633   26.1998 H   0  0  0  0  0  0
  -28.3897  -32.6787   25.0198 H   0  0  0  0  0  0
  -28.0836  -31.8413   26.5325 H   0  0  0  0  0  0
  -28.2584  -38.0114   24.7606 H   0  0  0  0  0  0
  -28.1136  -36.2655   24.6190 H   0  0  0  0  0  0
  -27.2321  -37.1296   25.8860 H   0  0  0  0  0  0
  -20.9335  -29.8700   21.6919 H   0  0  0  0  0  0
  -26.0190  -38.2847   24.1485 H   0  0  0  0  0  0
  -29.1891  -19.9923   17.0458 H   0  0  0  0  0  0
  -28.7153  -21.8307   18.5848 H   0  0  0  0  0  0
  -29.7629  -19.3029   21.9339 H   0  0  0  0  0  0
  -31.5435  -17.1108   20.6648 H   0  0  0  0  0  0
  -28.8462  -15.7803   20.1946 H   0  0  0  0  0  0
  -29.8539  -17.8232   16.5471 H   0  0  0  0  0  0
  -29.4740  -16.5925   17.7420 H   0  0  0  0  0  0
  -31.1210  -17.2316   17.6154 H   0  0  0  0  0  0
  -29.8995  -23.4369   21.8664 H   0  0  0  0  0  0
  -30.1984  -23.0240   20.1964 H   0  0  0  0  0  0
  -29.5060  -25.6831   21.5071 H   0  0  0  0  0  0
  -27.7986  -25.7395   21.8682 H   0  0  0  0  0  0
  1 25  1  0  0  0
  1 30  2  0  0  0
  1 78  1  0  0  0
  2  3  1  0  0  0
  2 25  1  0  0  0
  2 85  1  0  0  0
  2 86  1  0  0  0
  3  4  1  0  0  0
  3 87  1  0  0  0
  3 88  1  0  0  0
  4  5  1  0  0  0
  4 89  1  0  0  0
  4 90  1  0  0  0
  5  6  1  0  0  0
  5 26  1  0  0  0
  5 91  1  0  0  0
  6 25  1  0  0  0
  6 92  1  0  0  0
  6 93  1  0  0  0
  7  8  2  0  0  0
  7 26  1  0  0  0
  7 29  1  0  0  0
  8  9  1  0  0  0
  8 22  1  0  0  0
  9 10  1  0  0  0
  9 27  2  0  0  0
 10 11  2  0  0  0
 10 15  1  0  0  0
 11 12  1  0  0  0
 11 94  1  0  0  0
 12 13  2  0  0  0
 12 95  1  0  0  0
 13 14  1  0  0  0
 13 31  1  0  0  0
 14 15  2  0  0  0
 14 96  1  0  0  0
 15 97  1  0  0  0
 16 17  2  0  0  0
 16 21  1  0  0  0
 16 31  1  0  0  0
 17 18  1  0  0  0
 17 98  1  0  0  0
 18 19  2  0  0  0
 18 99  1  0  0  0
 19 20  1  0  0  0
 19 24  1  0  0  0
 20 21  2  0  0  0
 20100  1  0  0  0
 21 23  1  0  0  0
 22 28  1  0  0  0
 22 32  2  0  0  0
 26 27  1  0  0  0
 28101  1  0  0  0
 28102  1  0  0  0
 29103  1  0  0  0
 29104  1  0  0  0
 33 34  1  0  0  0
 33 66  1  0  0  0
 33 70  2  0  0  0
 34 36  1  0  0  0
 34 59  1  0  0  0
 34105  1  0  0  0
 35 44  2  0  0  0
 35 45  1  0  0  0
 35 68  1  0  0  0
 36 56  1  0  0  0
 36106  1  0  0  0
 37 39  1  0  0  0
 37 47  1  0  0  0
 37 66  1  0  0  0
 37107  1  0  0  0
 38 43  2  0  0  0
 38 46  1  0  0  0
 38 47  1  0  0  0
 39 64  1  0  0  0
 39 67  2  0  0  0
 40 52  1  0  0  0
 40 53  2  0  0  0
 40 58  1  0  0  0
 41108  1  0  0  0
 41109  1  0  0  0
 41110  1  0  0  0
 41 48  1  0  0  0
 42 43  1  0  0  0
 42 66  1  0  0  0
 42111  1  0  0  0
 42112  1  0  0  0
 43 44  1  0  0  0
 44113  1  0  0  0
 45 46  2  0  0  0
 45114  1  0  0  0
 46115  1  0  0  0
 47116  1  0  0  0
 47117  1  0  0  0
 48 56  1  0  0  0
 48 65  1  0  0  0
 48118  1  0  0  0
 49 50  1  0  0  0
 49 53  1  0  0  0
 49 64  1  0  0  0
 49119  1  0  0  0
 50 51  1  0  0  0
 50120  1  0  0  0
 50121  1  0  0  0
 51 52  1  0  0  0
 51122  1  0  0  0
 51123  1  0  0  0
 52124  1  0  0  0
 52125  1  0  0  0
 53 54  1  0  0  0
 54 55  2  0  0  0
 54126  1  0  0  0
 55 57  1  0  0  0
 55127  1  0  0  0
 56 69  2  0  0  0
 57 58  2  0  0  0
 57128  1  0  0  0
 58129  1  0  0  0
 59 60  1  0  0  0
 59 61  1  0  0  0
 59 62  1  0  0  0
 60130  1  0  0  0
 60131  1  0  0  0
 60132  1  0  0  0
 61133  1  0  0  0
 61134  1  0  0  0
 61135  1  0  0  0
 62136  1  0  0  0
 62137  1  0  0  0
 62138  1  0  0  0
 63 65  1  0  0  0
 63139  1  0  0  0
 63140  1  0  0  0
 63141  1  0  0  0
 64142  1  0  0  0
 65143  1  0  0  0
 68 82  1  0  0  0
 71 72  2  0  0  0
 71 75  1  0  0  0
 71144  1  0  0  0
 72 76  1  0  0  0
 72145  1  0  0  0
 73 74  1  0  0  0
 73 76  2  0  0  0
 73146  1  0  0  0
 74 75  2  0  0  0
 74 77  1  0  0  0
 75 80  1  0  0  0
 76 84  1  0  0  0
 77 78  2  0  0  0
 77147  1  0  0  0
 78148  1  0  0  0
 79 81  1  0  0  0
 79 82  1  0  0  0
 79 83  2  0  0  0
 80149  1  0  0  0
 80150  1  0  0  0
 80151  1  0  0  0
 81 84  1  0  0  0
 81152  1  0  0  0
 81153  1  0  0  0
 82154  1  0  0  0
 82155  1  0  0  0
M  ISO  4   1 100  68 101  78 100  82 101
M  END
> <chiral flag>
0

> <version>
0

> <s_m_source_file>
/data/baiqing/PycharmProjects/Reinvent-master-3.2/result/LINK_invent/BTK/process_docking_weight1_custom_product_contain_oxygen_bond_distance_aromatic_linkinvent_7_9_3/rearranged_h_0123.sdf

> <i_m_source_file_index>
71

> <r_mmod_Potential_Energy-OPLS-2005>
99.8051986694336

> <r_mmod_Stretch_Energy-OPLS-2005>
49.8144187927246

> <r_mmod_Bend_Energy-OPLS-2005>
107.054298400879

> <r_mmod_Torsional_Energy-OPLS-2005>
278.656646728516

> <r_mmod_Improper_Torsional_Energy-OPLS-2005>
14.3412637710571

> <r_mmod_Van_der_Waal_Energy-OPLS-2005>
143.868057250977

> <r_mmod_Electrostatic_Energy-OPLS-2005>
-315.585662841797

> <r_mmod_Solvation_Energy-OPLS-2005>
-213.542175292969

> <b_mmod_Minimization_Converged-OPLS-2005>
0

> <r_mmod_RMS_Derivative-OPLS-2005>
3.25049591064453

$$$$
71
                    3D
 Structure written by MMmdl.
165173  0  0  1  0            999 V2000
  -30.6311  -14.6362   20.4304 C   0  0  0  0  0  0
  -30.4623  -12.3449   19.4921 C   0  0  0  0  0  0
  -29.5560  -12.3768   18.2401 C   0  0  0  0  0  0
  -28.0495  -12.3700   18.5966 C   0  0  0  0  0  0
  -27.6697  -13.2203   19.8503 C   0  0  2  0  0  0
  -28.7127  -13.0762   20.9799 C   0  0  0  0  0  0
  -25.2690  -13.8208   20.5624 C   0  0  0  0  0  0
  -24.1951  -13.0475   20.9162 C   0  0  0  0  0  0
  -24.6527  -11.6952   20.8732 C   0  0  0  0  0  0
  -23.9175  -10.4341   21.0401 C   0  0  0  0  0  0
  -24.3717   -9.4260   21.9193 C   0  0  0  0  0  0
  -23.6376   -8.2301   22.0778 C   0  0  0  0  0  0
  -22.4359   -8.0340   21.3568 C   0  0  0  0  0  0
  -22.0008   -9.0320   20.4665 C   0  0  0  0  0  0
  -22.7347  -10.2191   20.3066 C   0  0  0  0  0  0
  -21.6858   -6.0802   22.5287 C   0  0  0  0  0  0
  -21.3974   -6.5675   23.8224 C   0  0  0  0  0  0
  -21.3667   -5.6814   24.9176 C   0  0  0  0  0  0
  -21.6070   -4.3088   24.7202 C   0  0  0  0  0  0
  -21.8815   -3.8192   23.4309 C   0  0  0  0  0  0
  -21.9176   -4.7028   22.3378 C   0  0  0  0  0  0
  -22.7955  -13.5273   21.1772 C   0  0  0  0  0  0
  -22.1644   -4.2205   21.0960 F   0  0  0  0  0  0
  -21.5678   -3.4578   25.7718 F   0  0  0  0  0  0
  -30.0264  -13.4095   20.4151 N   0  0  0  0  0  0
  -26.3127  -12.9384   20.3214 N   0  0  0  0  0  0
  -25.9447  -11.6532   20.5692 N   0  0  0  0  0  0
  -22.0529  -12.8294   22.0304 N   0  0  0  0  0  0
  -25.4386  -15.1937   20.4035 N   0  0  0  0  0  0
  -31.8081  -14.7751   20.0783 O   0  0  0  0  0  0
  -21.6668   -6.8968   21.4263 O   0  0  0  0  0  0
  -22.3661  -14.5579   20.6611 O   0  0  0  0  0  0
  -24.6173  -31.8666   23.2118 C   0  0  0  0  0  0
  -25.9037  -32.4823   23.8426 C   0  0  1  0  0  0
  -27.2077  -27.3715   20.1203 C   0  0  0  0  0  0
  -25.5854  -33.8631   24.2315 N   0  0  0  0  0  0
  -23.4071  -30.4919   21.5566 C   0  0  2  0  0  0
  -24.8450  -28.9563   20.1182 C   0  0  0  0  0  0
  -22.7450  -29.4638   22.5030 C   0  0  0  0  0  0
  -18.0248  -28.1379   22.8506 C   0  0  0  0  0  0
  -24.1470  -36.7356   23.2651 C   0  0  0  0  0  0
  -25.9415  -30.8195   21.3683 C   0  0  0  0  0  0
  -26.0133  -29.4511   20.7097 C   0  0  0  0  0  0
  -27.2011  -28.6718   20.6952 C   0  0  0  0  0  0
  -26.0105  -26.9050   19.5305 C   0  0  0  0  0  0
  -24.8414  -27.6862   19.5231 C   0  0  0  0  0  0
  -23.6138  -29.8336   20.1682 C   0  0  0  0  0  0
  -25.4089  -36.3134   24.0340 C   0  0  1  0  0  0
  -20.5854  -28.3650   23.1341 C   0  0  2  0  0  0
  -20.6734  -26.9386   22.5436 C   0  0  0  0  0  0
  -19.5701  -26.6364   21.5244 C   0  0  0  0  0  0
  -18.1880  -26.7918   22.1647 C   0  0  0  0  0  0
  -19.1508  -28.8834   23.2904 C   0  0  0  0  0  0
  -18.9435  -30.1449   23.8899 C   0  0  0  0  0  0
  -17.6452  -30.6597   24.0559 C   0  0  0  0  0  0
  -25.9030  -34.9487   23.5143 C   0  0  0  0  0  0
  -16.5338  -29.9116   23.6320 C   0  0  0  0  0  0
  -16.7244  -28.6520   23.0351 C   0  0  0  0  0  0
  -26.4401  -31.6637   25.0805 C   0  0  0  0  0  0
  -25.3648  -31.3811   26.1561 C   0  0  0  0  0  0
  -27.0220  -30.3057   24.6248 C   0  0  0  0  0  0
  -27.5946  -32.4375   25.7592 C   0  0  0  0  0  0
  -27.5568  -37.1839   24.8448 C   0  0  0  0  0  0
  -21.4165  -29.3031   22.3779 N   0  0  0  0  0  0
  -26.4264  -37.3823   23.9415 N   0  0  0  0  0  0
  -24.6747  -31.0750   22.1027 N   0  0  0  0  0  0
  -23.4200  -28.8164   23.3063 O   0  0  0  0  0  0
  -28.3532  -26.5819   20.1578 O   0  0  0  0  0  0
  -26.5640  -34.8932   22.4736 O   0  0  0  0  0  0
  -23.5360  -32.1428   23.7495 O   0  0  0  0  0  0
  -29.5373  -18.3954   17.9869 C   0  0  0  0  0  0
  -29.6594  -18.2475   20.7515 C   0  0  0  0  0  0
  -29.4485  -19.6036   18.7158 C   0  0  0  0  0  0
  -29.6956  -17.1360   18.6010 C   0  0  0  0  0  0
  -29.7811  -17.0225   20.0160 C   0  0  0  0  0  0
  -29.4936  -19.5397   20.1434 C   0  0  0  0  0  0
  -28.6486  -20.9602   16.7477 C   0  0  0  0  0  0
  -29.2884  -20.8467   17.9268 C   0  0  0  0  0  0
  -29.5367  -24.3982   20.1470 C   0  0  0  0  0  0
  -29.8276  -23.0945   20.4329 C   0  0  0  0  0  0
  -29.7190  -15.9305   17.6835 C   0  0  0  0  0  0
  -31.9761  -23.0909   21.8007 C   0  0  0  0  0  0
  -28.2066  -25.1394   19.9977 C   0  0  0  0  0  0
  -31.3043  -22.7190   20.4742 C   0  0  0  0  0  0
  -28.8224  -21.9376   20.7131 C   0  0  0  0  0  0
  -29.8309  -15.7196   20.6826 N   0  0  0  0  0  0
  -29.4201  -20.6389   21.0161 O   0  0  0  0  0  0
  -31.5130  -12.4487   19.2116 H   0  0  0  0  0  0
  -30.3888  -11.3738   19.9841 H   0  0  0  0  0  0
  -29.7843  -11.4951   17.6385 H   0  0  0  0  0  0
  -29.8127  -13.2119   17.5940 H   0  0  0  0  0  0
  -27.7691  -11.3280   18.7444 H   0  0  0  0  0  0
  -27.4792  -12.7043   17.7260 H   0  0  0  0  0  0
  -27.6858  -14.2613   19.5338 H   0  0  0  0  0  0
  -28.7231  -12.0551   21.3604 H   0  0  0  0  0  0
  -28.4784  -13.7185   21.8289 H   0  0  0  0  0  0
  -25.2855   -9.5743   22.4772 H   0  0  0  0  0  0
  -24.0089   -7.4695   22.7517 H   0  0  0  0  0  0
  -21.0941   -8.8850   19.8979 H   0  0  0  0  0  0
  -22.3804  -10.9748   19.6190 H   0  0  0  0  0  0
  -21.1920   -7.6172   23.9738 H   0  0  0  0  0  0
  -21.1512   -6.0545   25.9092 H   0  0  0  0  0  0
  -22.0578   -2.7666   23.2777 H   0  0  0  0  0  0
  -22.4024  -11.9925   22.4711 H   0  0  0  0  0  0
  -21.1132  -13.1377   22.2373 H   0  0  0  0  0  0
  -24.6802  -15.8522   20.5549 H   0  0  0  0  0  0
  -26.2879  -15.6400   20.0805 H   0  0  0  0  0  0
  -26.7138  -32.5491   23.1221 H   0  0  0  0  0  0
  -24.9836  -33.9786   25.0337 H   0  0  0  0  0  0
  -22.6929  -31.3064   21.4252 H   0  0  0  0  0  0
  -23.3710  -35.9708   23.3298 H   0  0  0  0  0  0
  -24.3560  -36.8995   22.2063 H   0  0  0  0  0  0
  -23.7211  -37.6559   23.6674 H   0  0  0  0  0  0
  -26.0619  -31.5832   20.5987 H   0  0  0  0  0  0
  -26.8259  -30.8703   21.9908 H   0  0  0  0  0  0
  -28.1026  -29.0522   21.1546 H   0  0  0  0  0  0
  -25.9393  -25.9250   19.0859 H   0  0  0  0  0  0
  -23.9391  -27.2949   19.0740 H   0  0  0  0  0  0
  -23.7318  -30.6137   19.4156 H   0  0  0  0  0  0
  -22.7309  -29.2676   19.8666 H   0  0  0  0  0  0
  -25.1250  -36.2021   25.0830 H   0  0  0  0  0  0
  -20.9908  -28.3193   24.1478 H   0  0  0  0  0  0
  -20.5646  -26.2263   23.3630 H   0  0  0  0  0  0
  -21.6597  -26.7438   22.1216 H   0  0  0  0  0  0
  -19.6854  -25.6278   21.1265 H   0  0  0  0  0  0
  -19.6627  -27.3177   20.6775 H   0  0  0  0  0  0
  -17.4156  -26.6676   21.4043 H   0  0  0  0  0  0
  -18.0250  -26.0065   22.9040 H   0  0  0  0  0  0
  -19.7927  -30.7237   24.2267 H   0  0  0  0  0  0
  -17.5028  -31.6277   24.5162 H   0  0  0  0  0  0
  -15.5351  -30.3026   23.7649 H   0  0  0  0  0  0
  -15.8627  -28.0859   22.7067 H   0  0  0  0  0  0
  -24.5744  -30.7242   25.7922 H   0  0  0  0  0  0
  -24.8925  -32.3009   26.5031 H   0  0  0  0  0  0
  -25.7954  -30.8948   27.0327 H   0  0  0  0  0  0
  -26.2840  -29.6923   24.1080 H   0  0  0  0  0  0
  -27.3690  -29.7196   25.4766 H   0  0  0  0  0  0
  -27.8787  -30.4326   23.9630 H   0  0  0  0  0  0
  -27.2504  -33.3626   26.2230 H   0  0  0  0  0  0
  -28.3735  -32.7037   25.0443 H   0  0  0  0  0  0
  -28.0651  -31.8499   26.5484 H   0  0  0  0  0  0
  -28.2583  -38.0146   24.7504 H   0  0  0  0  0  0
  -28.1061  -36.2676   24.6234 H   0  0  0  0  0  0
  -27.2313  -37.1446   25.8862 H   0  0  0  0  0  0
  -20.9336  -29.8800   21.7040 H   0  0  0  0  0  0
  -26.0163  -38.2907   24.1412 H   0  0  0  0  0  0
  -29.4954  -18.4332   16.9070 H   0  0  0  0  0  0
  -29.6724  -18.2019   21.8310 H   0  0  0  0  0  0
  -28.6009  -21.9127   16.2369 H   0  0  0  0  0  0
  -28.1599  -20.1230   16.2692 H   0  0  0  0  0  0
  -29.7594  -21.7397   18.3024 H   0  0  0  0  0  0
  -30.3801  -25.0542   19.9725 H   0  0  0  0  0  0
  -29.2812  -16.1538   16.7133 H   0  0  0  0  0  0
  -29.1095  -15.1376   18.1006 H   0  0  0  0  0  0
  -30.7388  -15.5772   17.5260 H   0  0  0  0  0  0
  -33.0142  -22.7549   21.8089 H   0  0  0  0  0  0
  -31.4674  -22.6420   22.6530 H   0  0  0  0  0  0
  -31.9766  -24.1724   21.9499 H   0  0  0  0  0  0
  -27.4754  -24.7302   20.6983 H   0  0  0  0  0  0
  -27.8554  -24.9208   18.9880 H   0  0  0  0  0  0
  -31.8157  -23.2542   19.6740 H   0  0  0  0  0  0
  -31.4532  -21.6642   20.2456 H   0  0  0  0  0  0
  -28.0389  -21.8749   19.9567 H   0  0  0  0  0  0
  -28.2882  -22.2141   21.6237 H   0  0  0  0  0  0
  -28.9927  -15.4885   21.1938 H   0  0  0  0  0  0
  1 25  1  0  0  0
  1 30  2  0  0  0
  1 86  1  0  0  0
  2  3  1  0  0  0
  2 25  1  0  0  0
  2 88  1  0  0  0
  2 89  1  0  0  0
  3  4  1  0  0  0
  3 90  1  0  0  0
  3 91  1  0  0  0
  4  5  1  0  0  0
  4 92  1  0  0  0
  4 93  1  0  0  0
  5  6  1  0  0  0
  5 26  1  0  0  0
  5 94  1  0  0  0
  6 25  1  0  0  0
  6 95  1  0  0  0
  6 96  1  0  0  0
  7  8  2  0  0  0
  7 26  1  0  0  0
  7 29  1  0  0  0
  8  9  1  0  0  0
  8 22  1  0  0  0
  9 10  1  0  0  0
  9 27  2  0  0  0
 10 11  2  0  0  0
 10 15  1  0  0  0
 11 12  1  0  0  0
 11 97  1  0  0  0
 12 13  2  0  0  0
 12 98  1  0  0  0
 13 14  1  0  0  0
 13 31  1  0  0  0
 14 15  2  0  0  0
 14 99  1  0  0  0
 15100  1  0  0  0
 16 17  2  0  0  0
 16 21  1  0  0  0
 16 31  1  0  0  0
 17 18  1  0  0  0
 17101  1  0  0  0
 18 19  2  0  0  0
 18102  1  0  0  0
 19 20  1  0  0  0
 19 24  1  0  0  0
 20 21  2  0  0  0
 20103  1  0  0  0
 21 23  1  0  0  0
 22 28  1  0  0  0
 22 32  2  0  0  0
 26 27  1  0  0  0
 28104  1  0  0  0
 28105  1  0  0  0
 29106  1  0  0  0
 29107  1  0  0  0
 33 34  1  0  0  0
 33 66  1  0  0  0
 33 70  2  0  0  0
 34 36  1  0  0  0
 34 59  1  0  0  0
 34108  1  0  0  0
 35 44  2  0  0  0
 35 45  1  0  0  0
 35 68  1  0  0  0
 36 56  1  0  0  0
 36109  1  0  0  0
 37 39  1  0  0  0
 37 47  1  0  0  0
 37 66  1  0  0  0
 37110  1  0  0  0
 38 43  2  0  0  0
 38 46  1  0  0  0
 38 47  1  0  0  0
 39 64  1  0  0  0
 39 67  2  0  0  0
 40 52  1  0  0  0
 40 53  2  0  0  0
 40 58  1  0  0  0
 41111  1  0  0  0
 41112  1  0  0  0
 41113  1  0  0  0
 41 48  1  0  0  0
 42 43  1  0  0  0
 42 66  1  0  0  0
 42114  1  0  0  0
 42115  1  0  0  0
 43 44  1  0  0  0
 44116  1  0  0  0
 45 46  2  0  0  0
 45117  1  0  0  0
 46118  1  0  0  0
 47119  1  0  0  0
 47120  1  0  0  0
 48 56  1  0  0  0
 48 65  1  0  0  0
 48121  1  0  0  0
 49 50  1  0  0  0
 49 53  1  0  0  0
 49 64  1  0  0  0
 49122  1  0  0  0
 50 51  1  0  0  0
 50123  1  0  0  0
 50124  1  0  0  0
 51 52  1  0  0  0
 51125  1  0  0  0
 51126  1  0  0  0
 52127  1  0  0  0
 52128  1  0  0  0
 53 54  1  0  0  0
 54 55  2  0  0  0
 54129  1  0  0  0
 55 57  1  0  0  0
 55130  1  0  0  0
 56 69  2  0  0  0
 57 58  2  0  0  0
 57131  1  0  0  0
 58132  1  0  0  0
 59 60  1  0  0  0
 59 61  1  0  0  0
 59 62  1  0  0  0
 60133  1  0  0  0
 60134  1  0  0  0
 60135  1  0  0  0
 61136  1  0  0  0
 61137  1  0  0  0
 61138  1  0  0  0
 62139  1  0  0  0
 62140  1  0  0  0
 62141  1  0  0  0
 63 65  1  0  0  0
 63142  1  0  0  0
 63143  1  0  0  0
 63144  1  0  0  0
 64145  1  0  0  0
 65146  1  0  0  0
 68 83  1  0  0  0
 71 73  2  0  0  0
 71 74  1  0  0  0
 71147  1  0  0  0
 72 75  1  0  0  0
 72 76  2  0  0  0
 72148  1  0  0  0
 73 76  1  0  0  0
 73 78  1  0  0  0
 74 75  2  0  0  0
 74 81  1  0  0  0
 75 86  1  0  0  0
 76 87  1  0  0  0
 77 78  2  0  0  0
 77149  1  0  0  0
 77150  1  0  0  0
 78151  1  0  0  0
 79 80  2  0  0  0
 79 83  1  0  0  0
 79152  1  0  0  0
 80 84  1  0  0  0
 80 85  1  0  0  0
 81153  1  0  0  0
 81154  1  0  0  0
 81155  1  0  0  0
 82 84  1  0  0  0
 82156  1  0  0  0
 82157  1  0  0  0
 82158  1  0  0  0
 83159  1  0  0  0
 83160  1  0  0  0
 84161  1  0  0  0
 84162  1  0  0  0
 85 87  1  0  0  0
 85163  1  0  0  0
 85164  1  0  0  0
 86165  1  0  0  0
M  ISO  4   1 100  68 101  83 101  86 100
M  END
> <chiral flag>
0

> <version>
0

> <s_m_source_file>
/data/baiqing/PycharmProjects/Reinvent-master-3.2/result/LINK_invent/BTK/process_docking_weight1_custom_product_contain_oxygen_bond_distance_aromatic_linkinvent_7_9_3/rearranged_h_0123.sdf

> <i_m_source_file_index>
72

> <r_mmod_Potential_Energy-OPLS-2005>
119.433776855469

> <r_mmod_Stretch_Energy-OPLS-2005>
66.7126770019531

> <r_mmod_Bend_Energy-OPLS-2005>
155.257736206055

> <r_mmod_Torsional_Energy-OPLS-2005>
269.515106201172

> <r_mmod_Improper_Torsional_Energy-OPLS-2005>
5.7947244644165

> <r_mmod_Van_der_Waal_Energy-OPLS-2005>
156.806823730469

> <r_mmod_Electrostatic_Energy-OPLS-2005>
-373.836242675781

> <r_mmod_Solvation_Energy-OPLS-2005>
-204.618621826172

> <b_mmod_Minimization_Converged-OPLS-2005>
0

> <r_mmod_RMS_Derivative-OPLS-2005>
5.09796333312988

$$$$
72
                    3D
 Structure written by MMmdl.
160168  0  0  1  0            999 V2000
  -30.6781  -14.4951   20.4820 C   0  0  0  0  0  0
  -30.4239  -12.2898   19.4356 C   0  0  0  0  0  0
  -29.4957  -12.4739   18.2137 C   0  0  0  0  0  0
  -28.0143  -12.3327   18.6209 C   0  0  0  0  0  0
  -27.6558  -13.1902   19.8633 C   0  0  2  0  0  0
  -28.7021  -12.9942   20.9867 C   0  0  0  0  0  0
  -25.2571  -13.8117   20.5664 C   0  0  0  0  0  0
  -24.1827  -13.0396   20.9181 C   0  0  0  0  0  0
  -24.6383  -11.6876   20.8754 C   0  0  0  0  0  0
  -23.9066  -10.4258   21.0421 C   0  0  0  0  0  0
  -24.3618   -9.4170   21.9186 C   0  0  0  0  0  0
  -23.6270   -8.2228   22.0768 C   0  0  0  0  0  0
  -22.4246   -8.0281   21.3576 C   0  0  0  0  0  0
  -21.9903   -9.0244   20.4661 C   0  0  0  0  0  0
  -22.7247  -10.2107   20.3070 C   0  0  0  0  0  0
  -21.6839   -6.0720   22.5281 C   0  0  0  0  0  0
  -21.3999   -6.5623   23.8215 C   0  0  0  0  0  0
  -21.3677   -5.6783   24.9183 C   0  0  0  0  0  0
  -21.6054   -4.3046   24.7240 C   0  0  0  0  0  0
  -21.8807   -3.8136   23.4359 C   0  0  0  0  0  0
  -21.9180   -4.6953   22.3407 C   0  0  0  0  0  0
  -22.7847  -13.5213   21.1832 C   0  0  0  0  0  0
  -22.1643   -4.2132   21.0985 F   0  0  0  0  0  0
  -21.5664   -3.4528   25.7754 F   0  0  0  0  0  0
  -30.0325  -13.2952   20.4352 N   0  0  0  0  0  0
  -26.2993  -12.9260   20.3334 N   0  0  0  0  0  0
  -25.9304  -11.6446   20.5793 N   0  0  0  0  0  0
  -22.0481  -12.8213   22.0394 N   0  0  0  0  0  0
  -25.4273  -15.1822   20.4041 N   0  0  0  0  0  0
  -31.8652  -14.6085   20.1653 O   0  0  0  0  0  0
  -21.6629   -6.8871   21.4253 O   0  0  0  0  0  0
  -22.3530  -14.5503   20.6685 O   0  0  0  0  0  0
  -24.6181  -31.8696   23.2122 C   0  0  0  0  0  0
  -25.9078  -32.4835   23.8406 C   0  0  1  0  0  0
  -27.2307  -27.4413   20.0835 C   0  0  0  0  0  0
  -25.5930  -33.8627   24.2349 N   0  0  0  0  0  0
  -23.4036  -30.4997   21.5520 C   0  0  2  0  0  0
  -24.8467  -28.9747   20.1096 C   0  0  0  0  0  0
  -22.7426  -29.4683   22.4962 C   0  0  0  0  0  0
  -18.0281  -28.1373   22.8482 C   0  0  0  0  0  0
  -24.1503  -36.7332   23.2632 C   0  0  0  0  0  0
  -25.9342  -30.8413   21.3619 C   0  0  0  0  0  0
  -26.0092  -29.4771   20.7075 C   0  0  0  0  0  0
  -27.2028  -28.7178   20.6918 C   0  0  0  0  0  0
  -26.0431  -26.9615   19.4748 C   0  0  0  0  0  0
  -24.8593  -27.7180   19.4878 C   0  0  0  0  0  0
  -23.6116  -29.8431   20.1623 C   0  0  0  0  0  0
  -25.4112  -36.3115   24.0339 C   0  0  1  0  0  0
  -20.5872  -28.3670   23.1299 C   0  0  2  0  0  0
  -20.6768  -26.9397   22.5412 C   0  0  0  0  0  0
  -19.5751  -26.6377   21.5203 C   0  0  0  0  0  0
  -18.1923  -26.7918   22.1608 C   0  0  0  0  0  0
  -19.1531  -28.8835   23.2893 C   0  0  0  0  0  0
  -18.9448  -30.1431   23.8924 C   0  0  0  0  0  0
  -17.6452  -30.6570   24.0562 C   0  0  0  0  0  0
  -25.9034  -34.9480   23.5132 C   0  0  0  0  0  0
  -16.5343  -29.9080   23.6305 C   0  0  0  0  0  0
  -16.7271  -28.6498   23.0322 C   0  0  0  0  0  0
  -26.4503  -31.6572   25.0704 C   0  0  0  0  0  0
  -25.3774  -31.3663   26.1453 C   0  0  0  0  0  0
  -27.0306  -30.3019   24.6024 C   0  0  0  0  0  0
  -27.6081  -32.4275   25.7479 C   0  0  0  0  0  0
  -27.5591  -37.1815   24.8453 C   0  0  0  0  0  0
  -21.4151  -29.3051   22.3717 N   0  0  0  0  0  0
  -26.4296  -37.3799   23.9406 N   0  0  0  0  0  0
  -24.6708  -31.0832   22.1010 N   0  0  0  0  0  0
  -23.4208  -28.8187   23.2966 O   0  0  0  0  0  0
  -28.4030  -26.7047   20.1093 O   0  0  0  0  0  0
  -26.5576  -34.8922   22.4679 O   0  0  0  0  0  0
  -23.5382  -32.1440   23.7525 O   0  0  0  0  0  0
  -29.9626  -19.4131   20.4689 C   0  0  0  0  0  0
  -28.0680  -18.0219   19.8206 C   0  0  0  0  0  0
  -27.8198  -20.4314   19.9302 C   0  0  0  0  0  0
  -29.4221  -18.1274   20.2130 C   0  0  0  0  0  0
  -29.1601  -20.5746   20.3449 C   0  0  0  0  0  0
  -27.2704  -19.1728   19.6519 C   0  0  0  0  0  0
  -30.2546  -16.9100   20.3274 C   0  0  0  0  0  0
  -29.6630  -21.9382   20.6115 C   0  0  0  0  0  0
  -29.8038  -15.6663   20.6187 C   0  0  0  0  0  0
  -29.2509  -23.0107   19.9026 C   0  0  0  0  0  0
  -25.9134  -19.3856   16.8441 C   0  0  0  0  0  0
  -29.5348  -24.4784   20.1847 C   0  0  0  0  0  0
  -25.6784  -18.4460   18.0364 C   0  0  0  0  0  0
  -28.2808  -25.3043   19.8400 C   0  0  0  0  0  0
  -25.9544  -19.1200   19.2611 O   0  0  0  0  0  0
  -31.4706  -12.3745   19.1381 H   0  0  0  0  0  0
  -30.3174  -11.2858   19.8499 H   0  0  0  0  0  0
  -29.7411  -11.7368   17.4495 H   0  0  0  0  0  0
  -29.6629  -13.4529   17.7631 H   0  0  0  0  0  0
  -27.8297  -11.2791   18.8363 H   0  0  0  0  0  0
  -27.3653  -12.5880   17.7823 H   0  0  0  0  0  0
  -27.6831  -14.2277   19.5354 H   0  0  0  0  0  0
  -28.6808  -11.9635   21.3459 H   0  0  0  0  0  0
  -28.4752  -13.6024   21.8623 H   0  0  0  0  0  0
  -25.2762   -9.5626   22.4766 H   0  0  0  0  0  0
  -23.9956   -7.4616   22.7482 H   0  0  0  0  0  0
  -21.0854   -8.8790   19.8931 H   0  0  0  0  0  0
  -22.3734  -10.9668   19.6197 H   0  0  0  0  0  0
  -21.1967   -7.6126   23.9703 H   0  0  0  0  0  0
  -21.1533   -6.0530   25.9087 H   0  0  0  0  0  0
  -22.0576   -2.7596   23.2877 H   0  0  0  0  0  0
  -22.4090  -11.9871   22.4774 H   0  0  0  0  0  0
  -21.1126  -13.1310   22.2628 H   0  0  0  0  0  0
  -24.6611  -15.8384   20.5121 H   0  0  0  0  0  0
  -26.2793  -15.6154   20.0813 H   0  0  0  0  0  0
  -26.7153  -32.5561   23.1178 H   0  0  0  0  0  0
  -25.0138  -33.9786   25.0534 H   0  0  0  0  0  0
  -22.6935  -31.3184   21.4171 H   0  0  0  0  0  0
  -23.3754  -35.9675   23.3276 H   0  0  0  0  0  0
  -24.3626  -36.8964   22.2053 H   0  0  0  0  0  0
  -23.7253  -37.6533   23.6654 H   0  0  0  0  0  0
  -26.0407  -31.6091   20.5944 H   0  0  0  0  0  0
  -26.8275  -30.8999   21.9721 H   0  0  0  0  0  0
  -28.1012  -29.1019   21.1543 H   0  0  0  0  0  0
  -26.0035  -26.0055   18.9748 H   0  0  0  0  0  0
  -23.9676  -27.3332   19.0113 H   0  0  0  0  0  0
  -23.7286  -30.6254   19.4116 H   0  0  0  0  0  0
  -22.7354  -29.2701   19.8544 H   0  0  0  0  0  0
  -25.1287  -36.1986   25.0832 H   0  0  0  0  0  0
  -20.9982  -28.3229   24.1411 H   0  0  0  0  0  0
  -20.5655  -26.2273   23.3601 H   0  0  0  0  0  0
  -21.6635  -26.7418   22.1209 H   0  0  0  0  0  0
  -19.6907  -25.6288   21.1223 H   0  0  0  0  0  0
  -19.6682  -27.3198   20.6738 H   0  0  0  0  0  0
  -17.4191  -26.6676   21.4002 H   0  0  0  0  0  0
  -18.0309  -26.0046   22.8996 H   0  0  0  0  0  0
  -19.7918  -30.7230   24.2317 H   0  0  0  0  0  0
  -17.4999  -31.6249   24.5158 H   0  0  0  0  0  0
  -15.5344  -30.2990   23.7595 H   0  0  0  0  0  0
  -15.8673  -28.0830   22.7008 H   0  0  0  0  0  0
  -24.5930  -30.7051   25.7767 H   0  0  0  0  0  0
  -24.9002  -32.2820   26.4956 H   0  0  0  0  0  0
  -25.8136  -30.8766   27.0170 H   0  0  0  0  0  0
  -26.2809  -29.6793   24.1140 H   0  0  0  0  0  0
  -27.4157  -29.7248   25.4435 H   0  0  0  0  0  0
  -27.8620  -30.4350   23.9103 H   0  0  0  0  0  0
  -27.2705  -33.3568   26.2095 H   0  0  0  0  0  0
  -28.3890  -32.6848   25.0302 H   0  0  0  0  0  0
  -28.0758  -31.8361   26.5368 H   0  0  0  0  0  0
  -28.2579  -38.0142   24.7530 H   0  0  0  0  0  0
  -28.1114  -36.2665   24.6237 H   0  0  0  0  0  0
  -27.2317  -37.1430   25.8859 H   0  0  0  0  0  0
  -20.9298  -29.8836   21.7001 H   0  0  0  0  0  0
  -26.0187  -38.2880   24.1399 H   0  0  0  0  0  0
  -31.0004  -19.5061   20.7552 H   0  0  0  0  0  0
  -27.6425  -17.0516   19.6198 H   0  0  0  0  0  0
  -27.1884  -21.3014   19.8309 H   0  0  0  0  0  0
  -31.2993  -17.0442   20.0814 H   0  0  0  0  0  0
  -30.3317  -22.0639   21.4520 H   0  0  0  0  0  0
  -28.7717  -15.5592   20.9047 H   0  0  0  0  0  0
  -28.6234  -22.8438   19.0389 H   0  0  0  0  0  0
  -25.7685  -18.8561   15.9016 H   0  0  0  0  0  0
  -26.9249  -19.7944   16.8402 H   0  0  0  0  0  0
  -25.2130  -20.2229   16.8605 H   0  0  0  0  0  0
  -30.3817  -24.8137   19.5863 H   0  0  0  0  0  0
  -29.8006  -24.6054   21.2352 H   0  0  0  0  0  0
  -26.2572  -17.5296   17.9248 H   0  0  0  0  0  0
  -24.6314  -18.1436   18.0538 H   0  0  0  0  0  0
  -27.4475  -24.8966   20.4161 H   0  0  0  0  0  0
  -28.0470  -25.1614   18.7827 H   0  0  0  0  0  0
  1 25  1  0  0  0
  1 30  2  0  0  0
  1 79  1  0  0  0
  2  3  1  0  0  0
  2 25  1  0  0  0
  2 86  1  0  0  0
  2 87  1  0  0  0
  3  4  1  0  0  0
  3 88  1  0  0  0
  3 89  1  0  0  0
  4  5  1  0  0  0
  4 90  1  0  0  0
  4 91  1  0  0  0
  5  6  1  0  0  0
  5 26  1  0  0  0
  5 92  1  0  0  0
  6 25  1  0  0  0
  6 93  1  0  0  0
  6 94  1  0  0  0
  7  8  2  0  0  0
  7 26  1  0  0  0
  7 29  1  0  0  0
  8  9  1  0  0  0
  8 22  1  0  0  0
  9 10  1  0  0  0
  9 27  2  0  0  0
 10 11  2  0  0  0
 10 15  1  0  0  0
 11 12  1  0  0  0
 11 95  1  0  0  0
 12 13  2  0  0  0
 12 96  1  0  0  0
 13 14  1  0  0  0
 13 31  1  0  0  0
 14 15  2  0  0  0
 14 97  1  0  0  0
 15 98  1  0  0  0
 16 17  2  0  0  0
 16 21  1  0  0  0
 16 31  1  0  0  0
 17 18  1  0  0  0
 17 99  1  0  0  0
 18 19  2  0  0  0
 18100  1  0  0  0
 19 20  1  0  0  0
 19 24  1  0  0  0
 20 21  2  0  0  0
 20101  1  0  0  0
 21 23  1  0  0  0
 22 28  1  0  0  0
 22 32  2  0  0  0
 26 27  1  0  0  0
 28102  1  0  0  0
 28103  1  0  0  0
 29104  1  0  0  0
 29105  1  0  0  0
 33 34  1  0  0  0
 33 66  1  0  0  0
 33 70  2  0  0  0
 34 36  1  0  0  0
 34 59  1  0  0  0
 34106  1  0  0  0
 35 44  2  0  0  0
 35 45  1  0  0  0
 35 68  1  0  0  0
 36 56  1  0  0  0
 36107  1  0  0  0
 37 39  1  0  0  0
 37 47  1  0  0  0
 37 66  1  0  0  0
 37108  1  0  0  0
 38 43  2  0  0  0
 38 46  1  0  0  0
 38 47  1  0  0  0
 39 64  1  0  0  0
 39 67  2  0  0  0
 40 52  1  0  0  0
 40 53  2  0  0  0
 40 58  1  0  0  0
 41109  1  0  0  0
 41110  1  0  0  0
 41111  1  0  0  0
 41 48  1  0  0  0
 42 43  1  0  0  0
 42 66  1  0  0  0
 42112  1  0  0  0
 42113  1  0  0  0
 43 44  1  0  0  0
 44114  1  0  0  0
 45 46  2  0  0  0
 45115  1  0  0  0
 46116  1  0  0  0
 47117  1  0  0  0
 47118  1  0  0  0
 48 56  1  0  0  0
 48 65  1  0  0  0
 48119  1  0  0  0
 49 50  1  0  0  0
 49 53  1  0  0  0
 49 64  1  0  0  0
 49120  1  0  0  0
 50 51  1  0  0  0
 50121  1  0  0  0
 50122  1  0  0  0
 51 52  1  0  0  0
 51123  1  0  0  0
 51124  1  0  0  0
 52125  1  0  0  0
 52126  1  0  0  0
 53 54  1  0  0  0
 54 55  2  0  0  0
 54127  1  0  0  0
 55 57  1  0  0  0
 55128  1  0  0  0
 56 69  2  0  0  0
 57 58  2  0  0  0
 57129  1  0  0  0
 58130  1  0  0  0
 59 60  1  0  0  0
 59 61  1  0  0  0
 59 62  1  0  0  0
 60131  1  0  0  0
 60132  1  0  0  0
 60133  1  0  0  0
 61134  1  0  0  0
 61135  1  0  0  0
 61136  1  0  0  0
 62137  1  0  0  0
 62138  1  0  0  0
 62139  1  0  0  0
 63 65  1  0  0  0
 63140  1  0  0  0
 63141  1  0  0  0
 63142  1  0  0  0
 64143  1  0  0  0
 65144  1  0  0  0
 68 84  1  0  0  0
 71 74  2  0  0  0
 71 75  1  0  0  0
 71145  1  0  0  0
 72 74  1  0  0  0
 72 76  2  0  0  0
 72146  1  0  0  0
 73 75  2  0  0  0
 73 76  1  0  0  0
 73147  1  0  0  0
 74 77  1  0  0  0
 75 78  1  0  0  0
 76 85  1  0  0  0
 77 79  2  0  0  0
 77148  1  0  0  0
 78 80  2  0  0  0
 78149  1  0  0  0
 79150  1  0  0  0
 80 82  1  0  0  0
 80151  1  0  0  0
 81 83  1  0  0  0
 81152  1  0  0  0
 81153  1  0  0  0
 81154  1  0  0  0
 82 84  1  0  0  0
 82155  1  0  0  0
 82156  1  0  0  0
 83 85  1  0  0  0
 83157  1  0  0  0
 83158  1  0  0  0
 84159  1  0  0  0
 84160  1  0  0  0
M  ISO  4   1 100  68 101  79 100  84 101
M  END
> <chiral flag>
0

> <version>
0

> <s_m_source_file>
/data/baiqing/PycharmProjects/Reinvent-master-3.2/result/LINK_invent/BTK/process_docking_weight1_custom_product_contain_oxygen_bond_distance_aromatic_linkinvent_7_9_3/rearranged_h_0123.sdf

> <i_m_source_file_index>
73

> <r_mmod_Potential_Energy-OPLS-2005>
18.8593406677246

> <r_mmod_Stretch_Energy-OPLS-2005>
36.2545471191406

> <r_mmod_Bend_Energy-OPLS-2005>
95.8846054077148

> <r_mmod_Torsional_Energy-OPLS-2005>
222.316680908203

> <r_mmod_Improper_Torsional_Energy-OPLS-2005>
9.1251745223999

> <r_mmod_Van_der_Waal_Energy-OPLS-2005>
164.142959594727

> <r_mmod_Electrostatic_Energy-OPLS-2005>
-333.982330322266

> <r_mmod_Solvation_Energy-OPLS-2005>
-193.856231689453

> <b_mmod_Minimization_Converged-OPLS-2005>
0

> <r_mmod_RMS_Derivative-OPLS-2005>
3.23704814910889

$$$$
73
                    3D
 Structure written by MMmdl.
159167  0  0  1  0            999 V2000
  -30.6653  -14.6294   20.4801 C   0  0  0  0  0  0
  -30.4185  -12.3779   19.4779 C   0  0  0  0  0  0
  -29.5079  -12.5048   18.2373 C   0  0  0  0  0  0
  -28.0286  -12.3503   18.6392 C   0  0  0  0  0  0
  -27.6486  -13.2294   19.8608 C   0  0  2  0  0  0
  -28.6867  -13.1107   20.9976 C   0  0  0  0  0  0
  -25.2528  -13.8204   20.5702 C   0  0  0  0  0  0
  -24.1804  -13.0451   20.9190 C   0  0  0  0  0  0
  -24.6385  -11.6925   20.8732 C   0  0  0  0  0  0
  -23.9058  -10.4301   21.0402 C   0  0  0  0  0  0
  -24.3612   -9.4217   21.9181 C   0  0  0  0  0  0
  -23.6297   -8.2248   22.0749 C   0  0  0  0  0  0
  -22.4278   -8.0281   21.3546 C   0  0  0  0  0  0
  -21.9907   -9.0250   20.4649 C   0  0  0  0  0  0
  -22.7229  -10.2135   20.3055 C   0  0  0  0  0  0
  -21.6854   -6.0739   22.5285 C   0  0  0  0  0  0
  -21.4014   -6.5642   23.8219 C   0  0  0  0  0  0
  -21.3660   -5.6792   24.9178 C   0  0  0  0  0  0
  -21.6049   -4.3055   24.7224 C   0  0  0  0  0  0
  -21.8818   -3.8150   23.4343 C   0  0  0  0  0  0
  -21.9191   -4.6968   22.3403 C   0  0  0  0  0  0
  -22.7829  -13.5233   21.1864 C   0  0  0  0  0  0
  -22.1662   -4.2154   21.0977 F   0  0  0  0  0  0
  -21.5627   -3.4536   25.7738 F   0  0  0  0  0  0
  -30.0080  -13.4255   20.4389 N   0  0  0  0  0  0
  -26.2958  -12.9409   20.3308 N   0  0  0  0  0  0
  -25.9318  -11.6546   20.5741 N   0  0  0  0  0  0
  -22.0477  -12.8223   22.0425 N   0  0  0  0  0  0
  -25.4253  -15.1928   20.4185 N   0  0  0  0  0  0
  -31.8303  -14.7015   20.0795 O   0  0  0  0  0  0
  -21.6642   -6.8880   21.4246 O   0  0  0  0  0  0
  -22.3507  -14.5538   20.6719 O   0  0  0  0  0  0
  -24.6233  -31.8619   23.2031 C   0  0  0  0  0  0
  -25.9092  -32.4789   23.8361 C   0  0  1  0  0  0
  -27.2256  -27.3507   20.1195 C   0  0  0  0  0  0
  -25.5918  -33.8586   24.2292 N   0  0  0  0  0  0
  -23.4165  -30.4848   21.5439 C   0  0  2  0  0  0
  -24.8656  -28.9411   20.1111 C   0  0  0  0  0  0
  -22.7461  -29.4642   22.4937 C   0  0  0  0  0  0
  -18.0285  -28.1386   22.8493 C   0  0  0  0  0  0
  -24.1485  -36.7299   23.2637 C   0  0  0  0  0  0
  -25.9539  -30.8041   21.3682 C   0  0  0  0  0  0
  -26.0317  -29.4323   20.7136 C   0  0  0  0  0  0
  -27.2200  -28.6480   20.7077 C   0  0  0  0  0  0
  -26.0441  -26.8993   19.4973 C   0  0  0  0  0  0
  -24.8718  -27.6787   19.4938 C   0  0  0  0  0  0
  -23.6308  -29.8172   20.1595 C   0  0  0  0  0  0
  -25.4106  -36.3090   24.0336 C   0  0  1  0  0  0
  -20.5884  -28.3691   23.1292 C   0  0  2  0  0  0
  -20.6772  -26.9415   22.5417 C   0  0  0  0  0  0
  -19.5749  -26.6390   21.5216 C   0  0  0  0  0  0
  -18.1929  -26.7930   22.1628 C   0  0  0  0  0  0
  -19.1536  -28.8854   23.2890 C   0  0  0  0  0  0
  -18.9460  -30.1455   23.8906 C   0  0  0  0  0  0
  -17.6459  -30.6587   24.0567 C   0  0  0  0  0  0
  -25.9047  -34.9458   23.5116 C   0  0  0  0  0  0
  -16.5351  -29.9090   23.6324 C   0  0  0  0  0  0
  -16.7275  -28.6508   23.0347 C   0  0  0  0  0  0
  -26.4489  -31.6585   25.0715 C   0  0  0  0  0  0
  -25.3737  -31.3735   26.1458 C   0  0  0  0  0  0
  -27.0295  -30.2998   24.6146 C   0  0  0  0  0  0
  -27.6070  -32.4301   25.7471 C   0  0  0  0  0  0
  -27.5582  -37.1794   24.8459 C   0  0  0  0  0  0
  -21.4177  -29.3046   22.3682 N   0  0  0  0  0  0
  -26.4286  -37.3784   23.9422 N   0  0  0  0  0  0
  -24.6831  -31.0665   22.0959 N   0  0  0  0  0  0
  -23.4198  -28.8192   23.3014 O   0  0  0  0  0  0
  -28.3241  -26.4937   20.1462 O   0  0  0  0  0  0
  -26.5613  -34.8929   22.4682 O   0  0  0  0  0  0
  -23.5403  -32.1400   23.7375 O   0  0  0  0  0  0
  -29.5318  -20.5087   21.9302 C   0  0  0  0  0  0
  -28.9448  -20.7010   19.6163 C   0  0  0  0  0  0
  -29.0939  -21.3431   20.8695 C   0  0  0  0  0  0
  -29.7115  -18.4874   20.5014 C   0  0  0  0  0  0
  -29.8353  -19.1266   21.7661 C   0  0  0  0  0  0
  -29.2387  -19.3125   19.4301 C   0  0  0  0  0  0
  -28.8172  -22.8078   21.1588 C   0  0  0  0  0  0
  -30.1953  -17.0641   20.2572 C   0  0  0  0  0  0
  -29.9186  -15.8623   20.8651 C   0  0  0  0  0  0
  -28.4695  -23.8822   20.3829 C   0  0  0  0  0  0
  -30.3583  -18.3576   22.9675 C   0  0  0  0  0  0
  -27.8088  -17.8172   17.9465 C   0  0  0  0  0  0
  -29.0403  -18.7292   18.0356 C   0  0  0  0  0  0
  -28.1434  -25.2927   20.9734 C   0  0  0  0  0  0
  -31.4669  -12.4581   19.1870 H   0  0  0  0  0  0
  -30.3136  -11.3910   19.9305 H   0  0  0  0  0  0
  -29.7760  -11.7523   17.4951 H   0  0  0  0  0  0
  -29.6608  -13.4746   17.7609 H   0  0  0  0  0  0
  -27.8616  -11.2985   18.8743 H   0  0  0  0  0  0
  -27.3789  -12.5777   17.7931 H   0  0  0  0  0  0
  -27.6626  -14.2628   19.5129 H   0  0  0  0  0  0
  -28.6898  -12.1011   21.4115 H   0  0  0  0  0  0
  -28.4301  -13.7669   21.8285 H   0  0  0  0  0  0
  -25.2757   -9.5702   22.4751 H   0  0  0  0  0  0
  -24.0021   -7.4633   22.7456 H   0  0  0  0  0  0
  -21.0841   -8.8756   19.8956 H   0  0  0  0  0  0
  -22.3679  -10.9664   19.6161 H   0  0  0  0  0  0
  -21.2006   -7.6154   23.9720 H   0  0  0  0  0  0
  -21.1486   -6.0524   25.9081 H   0  0  0  0  0  0
  -22.0597   -2.7613   23.2833 H   0  0  0  0  0  0
  -22.4085  -11.9886   22.4810 H   0  0  0  0  0  0
  -21.1095  -13.1253   22.2633 H   0  0  0  0  0  0
  -24.6657  -15.8524   20.5473 H   0  0  0  0  0  0
  -26.2931  -15.6363   20.1441 H   0  0  0  0  0  0
  -26.7167  -32.5477   23.1120 H   0  0  0  0  0  0
  -25.0052  -33.9732   25.0430 H   0  0  0  0  0  0
  -22.7096  -31.3043   21.3997 H   0  0  0  0  0  0
  -23.3755  -35.9620   23.3275 H   0  0  0  0  0  0
  -24.3590  -36.8941   22.2058 H   0  0  0  0  0  0
  -23.7222  -37.6492   23.6666 H   0  0  0  0  0  0
  -26.0779  -31.5674   20.5986 H   0  0  0  0  0  0
  -26.8372  -30.8571   21.9928 H   0  0  0  0  0  0
  -28.1170  -29.0188   21.1840 H   0  0  0  0  0  0
  -26.0270  -25.9241   19.0307 H   0  0  0  0  0  0
  -23.9783  -27.2965   19.0196 H   0  0  0  0  0  0
  -23.7468  -30.5919   19.4006 H   0  0  0  0  0  0
  -22.7530  -29.2418   19.8597 H   0  0  0  0  0  0
  -25.1279  -36.1942   25.0826 H   0  0  0  0  0  0
  -20.9986  -28.3267   24.1408 H   0  0  0  0  0  0
  -20.5675  -26.2301   23.3617 H   0  0  0  0  0  0
  -21.6641  -26.7447   22.1207 H   0  0  0  0  0  0
  -19.6909  -25.6302   21.1238 H   0  0  0  0  0  0
  -19.6686  -27.3207   20.6751 H   0  0  0  0  0  0
  -17.4202  -26.6691   21.4025 H   0  0  0  0  0  0
  -18.0325  -26.0070   22.9022 H   0  0  0  0  0  0
  -19.7937  -30.7266   24.2283 H   0  0  0  0  0  0
  -17.5017  -31.6265   24.5173 H   0  0  0  0  0  0
  -15.5351  -30.2994   23.7643 H   0  0  0  0  0  0
  -15.8679  -28.0830   22.7050 H   0  0  0  0  0  0
  -24.5887  -30.7109   25.7799 H   0  0  0  0  0  0
  -24.8956  -32.2906   26.4909 H   0  0  0  0  0  0
  -25.8069  -30.8892   27.0217 H   0  0  0  0  0  0
  -26.2834  -29.6771   24.1189 H   0  0  0  0  0  0
  -27.4002  -29.7242   25.4641 H   0  0  0  0  0  0
  -27.8716  -30.4268   23.9338 H   0  0  0  0  0  0
  -27.2706  -33.3615   26.2039 H   0  0  0  0  0  0
  -28.3881  -32.6831   25.0288 H   0  0  0  0  0  0
  -28.0731  -31.8418   26.5387 H   0  0  0  0  0  0
  -28.2582  -38.0107   24.7530 H   0  0  0  0  0  0
  -28.1090  -36.2640   24.6234 H   0  0  0  0  0  0
  -27.2315  -37.1395   25.8864 H   0  0  0  0  0  0
  -20.9349  -29.8762   21.6890 H   0  0  0  0  0  0
  -26.0165  -38.2857   24.1440 H   0  0  0  0  0  0
  -29.6600  -20.9519   22.9082 H   0  0  0  0  0  0
  -28.6008  -21.2880   18.7766 H   0  0  0  0  0  0
  -28.8897  -23.0376   22.2128 H   0  0  0  0  0  0
  -30.9404  -17.0244   19.4740 H   0  0  0  0  0  0
  -29.1766  -15.8257   21.6464 H   0  0  0  0  0  0
  -28.3658  -23.7691   19.3137 H   0  0  0  0  0  0
  -30.5821  -19.0197   23.8045 H   0  0  0  0  0  0
  -31.2775  -17.8268   22.7185 H   0  0  0  0  0  0
  -29.6207  -17.6306   23.3057 H   0  0  0  0  0  0
  -27.6733  -17.4465   16.9306 H   0  0  0  0  0  0
  -26.9002  -18.3502   18.2293 H   0  0  0  0  0  0
  -27.9040  -16.9514   18.6010 H   0  0  0  0  0  0
  -29.9342  -18.1848   17.7304 H   0  0  0  0  0  0
  -28.9330  -19.5386   17.3119 H   0  0  0  0  0  0
  -28.7538  -25.4292   21.8667 H   0  0  0  0  0  0
  -27.1183  -25.2360   21.3436 H   0  0  0  0  0  0
  1 25  1  0  0  0
  1 30  2  0  0  0
  1 79  1  0  0  0
  2  3  1  0  0  0
  2 25  1  0  0  0
  2 85  1  0  0  0
  2 86  1  0  0  0
  3  4  1  0  0  0
  3 87  1  0  0  0
  3 88  1  0  0  0
  4  5  1  0  0  0
  4 89  1  0  0  0
  4 90  1  0  0  0
  5  6  1  0  0  0
  5 26  1  0  0  0
  5 91  1  0  0  0
  6 25  1  0  0  0
  6 92  1  0  0  0
  6 93  1  0  0  0
  7  8  2  0  0  0
  7 26  1  0  0  0
  7 29  1  0  0  0
  8  9  1  0  0  0
  8 22  1  0  0  0
  9 10  1  0  0  0
  9 27  2  0  0  0
 10 11  2  0  0  0
 10 15  1  0  0  0
 11 12  1  0  0  0
 11 94  1  0  0  0
 12 13  2  0  0  0
 12 95  1  0  0  0
 13 14  1  0  0  0
 13 31  1  0  0  0
 14 15  2  0  0  0
 14 96  1  0  0  0
 15 97  1  0  0  0
 16 17  2  0  0  0
 16 21  1  0  0  0
 16 31  1  0  0  0
 17 18  1  0  0  0
 17 98  1  0  0  0
 18 19  2  0  0  0
 18 99  1  0  0  0
 19 20  1  0  0  0
 19 24  1  0  0  0
 20 21  2  0  0  0
 20100  1  0  0  0
 21 23  1  0  0  0
 22 28  1  0  0  0
 22 32  2  0  0  0
 26 27  1  0  0  0
 28101  1  0  0  0
 28102  1  0  0  0
 29103  1  0  0  0
 29104  1  0  0  0
 33 34  1  0  0  0
 33 66  1  0  0  0
 33 70  2  0  0  0
 34 36  1  0  0  0
 34 59  1  0  0  0
 34105  1  0  0  0
 35 44  2  0  0  0
 35 45  1  0  0  0
 35 68  1  0  0  0
 36 56  1  0  0  0
 36106  1  0  0  0
 37 39  1  0  0  0
 37 47  1  0  0  0
 37 66  1  0  0  0
 37107  1  0  0  0
 38 43  2  0  0  0
 38 46  1  0  0  0
 38 47  1  0  0  0
 39 64  1  0  0  0
 39 67  2  0  0  0
 40 52  1  0  0  0
 40 53  2  0  0  0
 40 58  1  0  0  0
 41108  1  0  0  0
 41109  1  0  0  0
 41110  1  0  0  0
 41 48  1  0  0  0
 42 43  1  0  0  0
 42 66  1  0  0  0
 42111  1  0  0  0
 42112  1  0  0  0
 43 44  1  0  0  0
 44113  1  0  0  0
 45 46  2  0  0  0
 45114  1  0  0  0
 46115  1  0  0  0
 47116  1  0  0  0
 47117  1  0  0  0
 48 56  1  0  0  0
 48 65  1  0  0  0
 48118  1  0  0  0
 49 50  1  0  0  0
 49 53  1  0  0  0
 49 64  1  0  0  0
 49119  1  0  0  0
 50 51  1  0  0  0
 50120  1  0  0  0
 50121  1  0  0  0
 51 52  1  0  0  0
 51122  1  0  0  0
 51123  1  0  0  0
 52124  1  0  0  0
 52125  1  0  0  0
 53 54  1  0  0  0
 54 55  2  0  0  0
 54126  1  0  0  0
 55 57  1  0  0  0
 55127  1  0  0  0
 56 69  2  0  0  0
 57 58  2  0  0  0
 57128  1  0  0  0
 58129  1  0  0  0
 59 60  1  0  0  0
 59 61  1  0  0  0
 59 62  1  0  0  0
 60130  1  0  0  0
 60131  1  0  0  0
 60132  1  0  0  0
 61133  1  0  0  0
 61134  1  0  0  0
 61135  1  0  0  0
 62136  1  0  0  0
 62137  1  0  0  0
 62138  1  0  0  0
 63 65  1  0  0  0
 63139  1  0  0  0
 63140  1  0  0  0
 63141  1  0  0  0
 64142  1  0  0  0
 65143  1  0  0  0
 68 84  1  0  0  0
 71 73  2  0  0  0
 71 75  1  0  0  0
 71144  1  0  0  0
 72 73  1  0  0  0
 72 76  2  0  0  0
 72145  1  0  0  0
 73 77  1  0  0  0
 74 75  2  0  0  0
 74 76  1  0  0  0
 74 78  1  0  0  0
 75 81  1  0  0  0
 76 83  1  0  0  0
 77 80  2  0  0  0
 77146  1  0  0  0
 78 79  2  0  0  0
 78147  1  0  0  0
 79148  1  0  0  0
 80 84  1  0  0  0
 80149  1  0  0  0
 81150  1  0  0  0
 81151  1  0  0  0
 81152  1  0  0  0
 82 83  1  0  0  0
 82153  1  0  0  0
 82154  1  0  0  0
 82155  1  0  0  0
 83156  1  0  0  0
 83157  1  0  0  0
 84158  1  0  0  0
 84159  1  0  0  0
M  ISO  4   1 100  68 101  79 100  84 101
M  END
> <chiral flag>
0

> <version>
0

> <s_m_source_file>
/data/baiqing/PycharmProjects/Reinvent-master-3.2/result/LINK_invent/BTK/process_docking_weight1_custom_product_contain_oxygen_bond_distance_aromatic_linkinvent_7_9_3/rearranged_h_0123.sdf

> <i_m_source_file_index>
74

> <r_mmod_Potential_Energy-OPLS-2005>
84.4442596435547

> <r_mmod_Stretch_Energy-OPLS-2005>
70.0753555297852

> <r_mmod_Bend_Energy-OPLS-2005>
131.580627441406

> <r_mmod_Torsional_Energy-OPLS-2005>
232.107696533203

> <r_mmod_Improper_Torsional_Energy-OPLS-2005>
4.41831207275391

> <r_mmod_Van_der_Waal_Energy-OPLS-2005>
142.958221435547

> <r_mmod_Electrostatic_Energy-OPLS-2005>
-353.283599853516

> <r_mmod_Solvation_Energy-OPLS-2005>
-186.738800048828

> <b_mmod_Minimization_Converged-OPLS-2005>
0

> <r_mmod_RMS_Derivative-OPLS-2005>
1.33179843425751

$$$$
74
                    3D
 Structure written by MMmdl.
157166  0  0  1  0            999 V2000
  -30.5804  -14.8112   20.3998 C   0  0  0  0  0  0
  -30.4415  -12.4745   19.5007 C   0  0  0  0  0  0
  -29.5243  -12.4356   18.2571 C   0  0  0  0  0  0
  -28.0410  -12.3138   18.6594 C   0  0  0  0  0  0
  -27.6406  -13.2367   19.8421 C   0  0  2  0  0  0
  -28.6821  -13.2077   20.9804 C   0  0  0  0  0  0
  -25.2513  -13.8213   20.5680 C   0  0  0  0  0  0
  -24.1806  -13.0456   20.9201 C   0  0  0  0  0  0
  -24.6399  -11.6936   20.8752 C   0  0  0  0  0  0
  -23.9076  -10.4307   21.0413 C   0  0  0  0  0  0
  -24.3620   -9.4217   21.9189 C   0  0  0  0  0  0
  -23.6296   -8.2250   22.0754 C   0  0  0  0  0  0
  -22.4282   -8.0287   21.3539 C   0  0  0  0  0  0
  -21.9917   -9.0266   20.4647 C   0  0  0  0  0  0
  -22.7248  -10.2145   20.3062 C   0  0  0  0  0  0
  -21.6858   -6.0737   22.5272 C   0  0  0  0  0  0
  -21.4020   -6.5641   23.8205 C   0  0  0  0  0  0
  -21.3662   -5.6791   24.9165 C   0  0  0  0  0  0
  -21.6044   -4.3053   24.7217 C   0  0  0  0  0  0
  -21.8822   -3.8147   23.4336 C   0  0  0  0  0  0
  -21.9194   -4.6963   22.3394 C   0  0  0  0  0  0
  -22.7828  -13.5237   21.1858 C   0  0  0  0  0  0
  -22.1663   -4.2147   21.0973 F   0  0  0  0  0  0
  -21.5628   -3.4538   25.7732 F   0  0  0  0  0  0
  -29.9769  -13.5672   20.3925 N   0  0  0  0  0  0
  -26.2939  -12.9431   20.3250 N   0  0  0  0  0  0
  -25.9333  -11.6573   20.5764 N   0  0  0  0  0  0
  -22.0467  -12.8231   22.0410 N   0  0  0  0  0  0
  -25.4214  -15.1934   20.4092 N   0  0  0  0  0  0
  -31.7792  -14.8897   20.1165 O   0  0  0  0  0  0
  -21.6644   -6.8882   21.4236 O   0  0  0  0  0  0
  -22.3518  -14.5547   20.6710 O   0  0  0  0  0  0
  -24.6341  -31.8522   23.1952 C   0  0  0  0  0  0
  -25.9157  -32.4732   23.8308 C   0  0  1  0  0  0
  -27.2230  -27.2341   20.1300 C   0  0  0  0  0  0
  -25.5945  -33.8536   24.2233 N   0  0  0  0  0  0
  -23.4328  -30.4737   21.5380 C   0  0  2  0  0  0
  -24.8814  -28.9178   20.1043 C   0  0  0  0  0  0
  -22.7522  -29.4585   22.4883 C   0  0  0  0  0  0
  -18.0298  -28.1393   22.8481 C   0  0  0  0  0  0
  -24.1495  -36.7272   23.2641 C   0  0  0  0  0  0
  -25.9805  -30.7559   21.3796 C   0  0  0  0  0  0
  -26.0528  -29.3768   20.7193 C   0  0  0  0  0  0
  -27.2225  -28.5462   20.7234 C   0  0  0  0  0  0
  -26.0252  -26.8486   19.4849 C   0  0  0  0  0  0
  -24.8748  -27.6634   19.4752 C   0  0  0  0  0  0
  -23.6533  -29.8078   20.1536 C   0  0  0  0  0  0
  -25.4123  -36.3052   24.0322 C   0  0  1  0  0  0
  -20.5905  -28.3706   23.1260 C   0  0  2  0  0  0
  -20.6784  -26.9420   22.5409 C   0  0  0  0  0  0
  -19.5762  -26.6384   21.5212 C   0  0  0  0  0  0
  -18.1942  -26.7935   22.1620 C   0  0  0  0  0  0
  -19.1552  -28.8866   23.2867 C   0  0  0  0  0  0
  -18.9469  -30.1463   23.8890 C   0  0  0  0  0  0
  -17.6467  -30.6591   24.0557 C   0  0  0  0  0  0
  -25.9065  -34.9425   23.5080 C   0  0  0  0  0  0
  -16.5360  -29.9084   23.6331 C   0  0  0  0  0  0
  -16.7283  -28.6502   23.0355 C   0  0  0  0  0  0
  -26.4515  -31.6567   25.0711 C   0  0  0  0  0  0
  -25.3726  -31.3717   26.1421 C   0  0  0  0  0  0
  -27.0363  -30.2978   24.6220 C   0  0  0  0  0  0
  -27.6066  -32.4309   25.7490 C   0  0  0  0  0  0
  -27.5580  -37.1794   24.8465 C   0  0  0  0  0  0
  -21.4225  -29.3044   22.3638 N   0  0  0  0  0  0
  -26.4292  -37.3757   23.9406 N   0  0  0  0  0  0
  -24.7016  -31.0464   22.0936 N   0  0  0  0  0  0
  -23.4208  -28.8133   23.3002 O   0  0  0  0  0  0
  -28.3007  -26.3135   20.2458 O   0  0  0  0  0  0
  -26.5642  -34.8909   22.4651 O   0  0  0  0  0  0
  -23.5483  -32.1359   23.7229 O   0  0  0  0  0  0
  -29.9377  -18.5596   17.7296 C   0  0  0  0  0  0
  -29.6442  -19.7817   18.3492 C   0  0  0  0  0  0
  -29.5034  -18.6131   20.4675 C   0  0  0  0  0  0
  -29.9936  -17.3441   18.4387 C   0  0  0  0  0  0
  -29.3936  -19.8859   19.7323 C   0  0  0  0  0  0
  -29.8161  -17.3048   19.8542 C   0  0  0  0  0  0
  -28.6284  -23.7431   20.1528 C   0  0  0  0  0  0
  -28.2782  -25.0055   19.6604 C   0  0  0  0  0  0
  -29.0686  -23.3240   21.5477 C   0  0  0  0  0  0
  -28.6717  -22.4056   19.3489 C   0  0  0  0  0  0
  -29.3499  -21.7695   21.5409 C   0  0  0  0  0  0
  -30.1486  -16.0975   17.5864 C   0  0  0  0  0  0
  -29.0404  -21.2298   20.2138 N   0  0  0  0  0  0
  -29.7942  -15.9642   20.5519 N   0  0  0  0  0  0
  -31.4801  -12.6057   19.1920 H   0  0  0  0  0  0
  -30.4083  -11.5207   20.0292 H   0  0  0  0  0  0
  -29.7966  -11.5859   17.6289 H   0  0  0  0  0  0
  -29.6838  -13.3130   17.6371 H   0  0  0  0  0  0
  -27.8738  -11.2731   18.9381 H   0  0  0  0  0  0
  -27.3981  -12.5009   17.7990 H   0  0  0  0  0  0
  -27.6264  -14.2494   19.4389 H   0  0  0  0  0  0
  -28.7281  -12.2222   21.4468 H   0  0  0  0  0  0
  -28.4088  -13.9087   21.7704 H   0  0  0  0  0  0
  -25.2755   -9.5700   22.4772 H   0  0  0  0  0  0
  -24.0000   -7.4648   22.7482 H   0  0  0  0  0  0
  -21.0840   -8.8799   19.8959 H   0  0  0  0  0  0
  -22.3702  -10.9691   19.6178 H   0  0  0  0  0  0
  -21.2019   -7.6150   23.9708 H   0  0  0  0  0  0
  -21.1479   -6.0519   25.9068 H   0  0  0  0  0  0
  -22.0599   -2.7609   23.2833 H   0  0  0  0  0  0
  -22.4074  -11.9886   22.4793 H   0  0  0  0  0  0
  -21.1095  -13.1281   22.2628 H   0  0  0  0  0  0
  -24.6541  -15.8476   20.5187 H   0  0  0  0  0  0
  -26.2691  -15.6323   20.0731 H   0  0  0  0  0  0
  -26.7223  -32.5371   23.1044 H   0  0  0  0  0  0
  -25.0082  -33.9666   25.0373 H   0  0  0  0  0  0
  -22.7307  -31.2969   21.3901 H   0  0  0  0  0  0
  -23.3758  -35.9603   23.3295 H   0  0  0  0  0  0
  -24.3587  -36.8905   22.2057 H   0  0  0  0  0  0
  -23.7251  -37.6470   23.6674 H   0  0  0  0  0  0
  -26.1260  -31.5170   20.6115 H   0  0  0  0  0  0
  -26.8551  -30.8023   22.0170 H   0  0  0  0  0  0
  -28.1141  -28.8871   21.2305 H   0  0  0  0  0  0
  -25.9400  -25.8799   19.0160 H   0  0  0  0  0  0
  -23.9769  -27.3049   18.9907 H   0  0  0  0  0  0
  -23.7811  -30.5848   19.3989 H   0  0  0  0  0  0
  -22.7706  -29.2438   19.8470 H   0  0  0  0  0  0
  -25.1307  -36.1887   25.0814 H   0  0  0  0  0  0
  -21.0002  -28.3289   24.1380 H   0  0  0  0  0  0
  -20.5682  -26.2317   23.3617 H   0  0  0  0  0  0
  -21.6651  -26.7442   22.1205 H   0  0  0  0  0  0
  -19.6925  -25.6290   21.1256 H   0  0  0  0  0  0
  -19.6706  -27.3181   20.6730 H   0  0  0  0  0  0
  -17.4214  -26.6683   21.4020 H   0  0  0  0  0  0
  -18.0340  -26.0079   22.9018 H   0  0  0  0  0  0
  -19.7944  -30.7278   24.2267 H   0  0  0  0  0  0
  -17.5020  -31.6272   24.5155 H   0  0  0  0  0  0
  -15.5359  -30.2981   23.7660 H   0  0  0  0  0  0
  -15.8685  -28.0814   22.7080 H   0  0  0  0  0  0
  -24.5923  -30.7047   25.7739 H   0  0  0  0  0  0
  -24.8891  -32.2879   26.4821 H   0  0  0  0  0  0
  -25.8037  -30.8914   27.0214 H   0  0  0  0  0  0
  -26.2949  -29.6716   24.1246 H   0  0  0  0  0  0
  -27.4030  -29.7256   25.4751 H   0  0  0  0  0  0
  -27.8835  -30.4236   23.9474 H   0  0  0  0  0  0
  -27.2683  -33.3622   26.2046 H   0  0  0  0  0  0
  -28.3896  -32.6847   25.0331 H   0  0  0  0  0  0
  -28.0715  -31.8442   26.5426 H   0  0  0  0  0  0
  -28.2589  -38.0098   24.7509 H   0  0  0  0  0  0
  -28.1085  -36.2627   24.6293 H   0  0  0  0  0  0
  -27.2299  -37.1439   25.8869 H   0  0  0  0  0  0
  -20.9416  -29.8757   21.6831 H   0  0  0  0  0  0
  -26.0164  -38.2828   24.1405 H   0  0  0  0  0  0
  -30.0819  -18.5629   16.6583 H   0  0  0  0  0  0
  -29.6025  -20.6442   17.7026 H   0  0  0  0  0  0
  -29.3092  -18.6348   21.5298 H   0  0  0  0  0  0
  -28.0048  -25.0857   18.6177 H   0  0  0  0  0  0
  -28.2786  -23.5672   22.2592 H   0  0  0  0  0  0
  -29.9577  -23.8827   21.8421 H   0  0  0  0  0  0
  -29.4083  -22.5447   18.5577 H   0  0  0  0  0  0
  -27.7059  -22.2337   18.8711 H   0  0  0  0  0  0
  -28.7471  -21.2658   22.2979 H   0  0  0  0  0  0
  -30.3963  -21.5719   21.7801 H   0  0  0  0  0  0
  -30.0987  -16.3228   16.5208 H   0  0  0  0  0  0
  -29.3279  -15.4168   17.7999 H   0  0  0  0  0  0
  -31.1034  -15.6037   17.7589 H   0  0  0  0  0  0
  -28.9312  -15.7804   21.0412 H   0  0  0  0  0  0
  1 25  1  0  0  0
  1 30  2  0  0  0
  1 84  1  0  0  0
  2  3  1  0  0  0
  2 25  1  0  0  0
  2 85  1  0  0  0
  2 86  1  0  0  0
  3  4  1  0  0  0
  3 87  1  0  0  0
  3 88  1  0  0  0
  4  5  1  0  0  0
  4 89  1  0  0  0
  4 90  1  0  0  0
  5  6  1  0  0  0
  5 26  1  0  0  0
  5 91  1  0  0  0
  6 25  1  0  0  0
  6 92  1  0  0  0
  6 93  1  0  0  0
  7  8  2  0  0  0
  7 26  1  0  0  0
  7 29  1  0  0  0
  8  9  1  0  0  0
  8 22  1  0  0  0
  9 10  1  0  0  0
  9 27  2  0  0  0
 10 11  2  0  0  0
 10 15  1  0  0  0
 11 12  1  0  0  0
 11 94  1  0  0  0
 12 13  2  0  0  0
 12 95  1  0  0  0
 13 14  1  0  0  0
 13 31  1  0  0  0
 14 15  2  0  0  0
 14 96  1  0  0  0
 15 97  1  0  0  0
 16 17  2  0  0  0
 16 21  1  0  0  0
 16 31  1  0  0  0
 17 18  1  0  0  0
 17 98  1  0  0  0
 18 19  2  0  0  0
 18 99  1  0  0  0
 19 20  1  0  0  0
 19 24  1  0  0  0
 20 21  2  0  0  0
 20100  1  0  0  0
 21 23  1  0  0  0
 22 28  1  0  0  0
 22 32  2  0  0  0
 26 27  1  0  0  0
 28101  1  0  0  0
 28102  1  0  0  0
 29103  1  0  0  0
 29104  1  0  0  0
 33 34  1  0  0  0
 33 66  1  0  0  0
 33 70  2  0  0  0
 34 36  1  0  0  0
 34 59  1  0  0  0
 34105  1  0  0  0
 35 44  2  0  0  0
 35 45  1  0  0  0
 35 68  1  0  0  0
 36 56  1  0  0  0
 36106  1  0  0  0
 37 39  1  0  0  0
 37 47  1  0  0  0
 37 66  1  0  0  0
 37107  1  0  0  0
 38 43  2  0  0  0
 38 46  1  0  0  0
 38 47  1  0  0  0
 39 64  1  0  0  0
 39 67  2  0  0  0
 40 52  1  0  0  0
 40 53  2  0  0  0
 40 58  1  0  0  0
 41108  1  0  0  0
 41109  1  0  0  0
 41110  1  0  0  0
 41 48  1  0  0  0
 42 43  1  0  0  0
 42 66  1  0  0  0
 42111  1  0  0  0
 42112  1  0  0  0
 43 44  1  0  0  0
 44113  1  0  0  0
 45 46  2  0  0  0
 45114  1  0  0  0
 46115  1  0  0  0
 47116  1  0  0  0
 47117  1  0  0  0
 48 56  1  0  0  0
 48 65  1  0  0  0
 48118  1  0  0  0
 49 50  1  0  0  0
 49 53  1  0  0  0
 49 64  1  0  0  0
 49119  1  0  0  0
 50 51  1  0  0  0
 50120  1  0  0  0
 50121  1  0  0  0
 51 52  1  0  0  0
 51122  1  0  0  0
 51123  1  0  0  0
 52124  1  0  0  0
 52125  1  0  0  0
 53 54  1  0  0  0
 54 55  2  0  0  0
 54126  1  0  0  0
 55 57  1  0  0  0
 55127  1  0  0  0
 56 69  2  0  0  0
 57 58  2  0  0  0
 57128  1  0  0  0
 58129  1  0  0  0
 59 60  1  0  0  0
 59 61  1  0  0  0
 59 62  1  0  0  0
 60130  1  0  0  0
 60131  1  0  0  0
 60132  1  0  0  0
 61133  1  0  0  0
 61134  1  0  0  0
 61135  1  0  0  0
 62136  1  0  0  0
 62137  1  0  0  0
 62138  1  0  0  0
 63 65  1  0  0  0
 63139  1  0  0  0
 63140  1  0  0  0
 63141  1  0  0  0
 64142  1  0  0  0
 65143  1  0  0  0
 68 78  1  0  0  0
 71 72  2  0  0  0
 71 74  1  0  0  0
 71144  1  0  0  0
 72 75  1  0  0  0
 72145  1  0  0  0
 73 75  2  0  0  0
 73 76  1  0  0  0
 73146  1  0  0  0
 74 76  2  0  0  0
 74 82  1  0  0  0
 75 83  1  0  0  0
 76 84  1  0  0  0
 77 78  2  0  0  0
 77 79  1  0  0  0
 77 80  1  0  0  0
 78147  1  0  0  0
 79 81  1  0  0  0
 79148  1  0  0  0
 79149  1  0  0  0
 80 83  1  0  0  0
 80150  1  0  0  0
 80151  1  0  0  0
 81 83  1  0  0  0
 81152  1  0  0  0
 81153  1  0  0  0
 82154  1  0  0  0
 82155  1  0  0  0
 82156  1  0  0  0
 84157  1  0  0  0
M  ISO  4   1 100  68 101  78 101  84 100
M  END
> <chiral flag>
0

> <version>
0

> <s_m_source_file>
/data/baiqing/PycharmProjects/Reinvent-master-3.2/result/LINK_invent/BTK/process_docking_weight1_custom_product_contain_oxygen_bond_distance_aromatic_linkinvent_7_9_3/rearranged_h_0123.sdf

> <i_m_source_file_index>
75

> <r_mmod_Potential_Energy-OPLS-2005>
300.867797851562

> <r_mmod_Stretch_Energy-OPLS-2005>
141.337173461914

> <r_mmod_Bend_Energy-OPLS-2005>
216.196975708008

> <r_mmod_Torsional_Energy-OPLS-2005>
269.725830078125

> <r_mmod_Improper_Torsional_Energy-OPLS-2005>
6.57728576660156

> <r_mmod_Van_der_Waal_Energy-OPLS-2005>
141.128860473633

> <r_mmod_Electrostatic_Energy-OPLS-2005>
-361.104522705078

> <r_mmod_Solvation_Energy-OPLS-2005>
-229.141311645508

> <b_mmod_Minimization_Converged-OPLS-2005>
0

> <r_mmod_RMS_Derivative-OPLS-2005>
0.853066027164459

$$$$
75
                    3D
 Structure written by MMmdl.
159167  0  0  1  0            999 V2000
  -30.7204  -14.5703   20.5192 C   0  0  0  0  0  0
  -30.4072  -12.3619   19.4336 C   0  0  0  0  0  0
  -29.4804  -12.5036   18.2129 C   0  0  0  0  0  0
  -28.0092  -12.3614   18.6390 C   0  0  0  0  0  0
  -27.6528  -13.2297   19.8755 C   0  0  2  0  0  0
  -28.7049  -13.0962   20.9970 C   0  0  0  0  0  0
  -25.2555  -13.8232   20.5748 C   0  0  0  0  0  0
  -24.1836  -13.0466   20.9242 C   0  0  0  0  0  0
  -24.6432  -11.6963   20.8794 C   0  0  0  0  0  0
  -23.9088  -10.4340   21.0433 C   0  0  0  0  0  0
  -24.3639   -9.4238   21.9188 C   0  0  0  0  0  0
  -23.6333   -8.2249   22.0738 C   0  0  0  0  0  0
  -22.4302   -8.0293   21.3539 C   0  0  0  0  0  0
  -21.9949   -9.0270   20.4632 C   0  0  0  0  0  0
  -22.7276  -10.2159   20.3063 C   0  0  0  0  0  0
  -21.6884   -6.0739   22.5265 C   0  0  0  0  0  0
  -21.4015   -6.5618   23.8200 C   0  0  0  0  0  0
  -21.3661   -5.6768   24.9163 C   0  0  0  0  0  0
  -21.6094   -4.3040   24.7227 C   0  0  0  0  0  0
  -21.8819   -3.8128   23.4341 C   0  0  0  0  0  0
  -21.9197   -4.6959   22.3397 C   0  0  0  0  0  0
  -22.7860  -13.5226   21.1914 C   0  0  0  0  0  0
  -22.1676   -4.2135   21.0989 F   0  0  0  0  0  0
  -21.5655   -3.4528   25.7742 F   0  0  0  0  0  0
  -30.0212  -13.3949   20.4202 N   0  0  0  0  0  0
  -26.3012  -12.9441   20.3456 N   0  0  0  0  0  0
  -25.9371  -11.6589   20.5878 N   0  0  0  0  0  0
  -22.0508  -12.8144   22.0447 N   0  0  0  0  0  0
  -25.4291  -15.1938   20.4131 N   0  0  0  0  0  0
  -31.7922  -14.7194   19.9248 O   0  0  0  0  0  0
  -21.6679   -6.8882   21.4227 O   0  0  0  0  0  0
  -22.3522  -14.5548   20.6823 O   0  0  0  0  0  0
  -24.6202  -31.8588   23.2040 C   0  0  0  0  0  0
  -25.9067  -32.4753   23.8345 C   0  0  1  0  0  0
  -27.2196  -27.3260   20.1069 C   0  0  0  0  0  0
  -25.5898  -33.8561   24.2271 N   0  0  0  0  0  0
  -23.4112  -30.4811   21.5442 C   0  0  2  0  0  0
  -24.8563  -28.9300   20.1076 C   0  0  0  0  0  0
  -22.7423  -29.4635   22.4946 C   0  0  0  0  0  0
  -18.0314  -28.1340   22.8499 C   0  0  0  0  0  0
  -24.1495  -36.7311   23.2646 C   0  0  0  0  0  0
  -25.9496  -30.7839   21.3769 C   0  0  0  0  0  0
  -26.0195  -29.4139   20.7171 C   0  0  0  0  0  0
  -27.1982  -28.6181   20.7160 C   0  0  0  0  0  0
  -26.0362  -26.8874   19.4755 C   0  0  0  0  0  0
  -24.8641  -27.6707   19.4842 C   0  0  0  0  0  0
  -23.6231  -29.8106   20.1588 C   0  0  0  0  0  0
  -25.4126  -36.3079   24.0322 C   0  0  1  0  0  0
  -20.5884  -28.3719   23.1286 C   0  0  2  0  0  0
  -20.6840  -26.9452   22.5461 C   0  0  0  0  0  0
  -19.5837  -26.6403   21.5218 C   0  0  0  0  0  0
  -18.2005  -26.7884   22.1613 C   0  0  0  0  0  0
  -19.1528  -28.8835   23.2892 C   0  0  0  0  0  0
  -18.9427  -30.1437   23.8887 C   0  0  0  0  0  0
  -17.6421  -30.6540   24.0550 C   0  0  0  0  0  0
  -25.9047  -34.9437   23.5105 C   0  0  0  0  0  0
  -16.5324  -29.9010   23.6309 C   0  0  0  0  0  0
  -16.7293  -28.6428   23.0351 C   0  0  0  0  0  0
  -26.4472  -31.6571   25.0717 C   0  0  0  0  0  0
  -25.3763  -31.3687   26.1481 C   0  0  0  0  0  0
  -27.0302  -30.2999   24.6160 C   0  0  0  0  0  0
  -27.5987  -32.4352   25.7505 C   0  0  0  0  0  0
  -27.5581  -37.1810   24.8457 C   0  0  0  0  0  0
  -21.4152  -29.3058   22.3660 N   0  0  0  0  0  0
  -26.4305  -37.3768   23.9394 N   0  0  0  0  0  0
  -24.6780  -31.0589   22.0979 N   0  0  0  0  0  0
  -23.4148  -28.8228   23.3065 O   0  0  0  0  0  0
  -28.3654  -26.5265   20.1784 O   0  0  0  0  0  0
  -26.5618  -34.8902   22.4669 O   0  0  0  0  0  0
  -23.5387  -32.1414   23.7381 O   0  0  0  0  0  0
  -28.2696  -19.2919   21.6828 C   0  0  0  0  0  0
  -28.7936  -17.0464   22.4575 C   0  0  0  0  0  0
  -28.9475  -19.0762   20.4669 C   0  0  0  0  0  0
  -29.5583  -17.7636   20.2590 C   0  0  0  0  0  0
  -29.5471  -16.7483   21.3015 C   0  0  0  0  0  0
  -28.1735  -18.2882   22.6541 C   0  0  0  0  0  0
  -28.9849  -20.2289   19.4700 C   0  0  0  0  0  0
  -28.8524  -21.6038   19.5186 C   0  0  0  0  0  0
  -27.8896  -23.9700   20.3931 C   0  0  0  0  0  0
  -30.2339  -17.4740   18.9222 C   0  0  0  0  0  0
  -31.2877  -15.5204   22.5804 C   0  0  0  0  0  0
  -28.7010  -22.6413   20.6673 C   0  0  0  0  0  0
  -28.4787  -25.1793   19.5721 C   0  0  0  0  0  0
  -30.3448  -15.5082   21.4404 N   0  0  0  0  0  0
  -26.7529  -24.0606   20.8673 O   0  0  0  0  0  0
  -27.5016  -18.5245   23.8054 F   0  0  0  0  0  0
  -31.4449  -12.4497   19.1139 H   0  0  0  0  0  0
  -30.3250  -11.3648   19.8729 H   0  0  0  0  0  0
  -29.7139  -11.7495   17.4590 H   0  0  0  0  0  0
  -29.6475  -13.4729   17.7443 H   0  0  0  0  0  0
  -27.8300  -11.3084   18.8551 H   0  0  0  0  0  0
  -27.3460  -12.6076   17.8082 H   0  0  0  0  0  0
  -27.6752  -14.2694   19.5450 H   0  0  0  0  0  0
  -28.7077  -12.0880   21.4159 H   0  0  0  0  0  0
  -28.4662  -13.7679   21.8231 H   0  0  0  0  0  0
  -25.2793   -9.5709   22.4756 H   0  0  0  0  0  0
  -24.0069   -7.4633   22.7418 H   0  0  0  0  0  0
  -21.0904   -8.8790   19.8907 H   0  0  0  0  0  0
  -22.3754  -10.9701   19.6159 H   0  0  0  0  0  0
  -21.1981   -7.6124   23.9701 H   0  0  0  0  0  0
  -21.1504   -6.0498   25.9069 H   0  0  0  0  0  0
  -22.0606   -2.7594   23.2843 H   0  0  0  0  0  0
  -22.4159  -11.9780   22.4738 H   0  0  0  0  0  0
  -21.1120  -13.1096   22.2707 H   0  0  0  0  0  0
  -24.6637  -15.8511   20.5197 H   0  0  0  0  0  0
  -26.2891  -15.6341   20.1082 H   0  0  0  0  0  0
  -26.7116  -32.5408   23.1056 H   0  0  0  0  0  0
  -25.0016  -33.9704   25.0391 H   0  0  0  0  0  0
  -22.7051  -31.3042   21.4043 H   0  0  0  0  0  0
  -23.3731  -35.9663   23.3300 H   0  0  0  0  0  0
  -24.3585  -36.8944   22.2064 H   0  0  0  0  0  0
  -23.7265  -37.6513   23.6689 H   0  0  0  0  0  0
  -26.0907  -31.5486   20.6115 H   0  0  0  0  0  0
  -26.8261  -30.8193   22.0122 H   0  0  0  0  0  0
  -28.0870  -28.9835   21.2102 H   0  0  0  0  0  0
  -25.9867  -25.9211   18.9945 H   0  0  0  0  0  0
  -23.9655  -27.2900   19.0175 H   0  0  0  0  0  0
  -23.7399  -30.5863   19.4018 H   0  0  0  0  0  0
  -22.7420  -29.2366   19.8634 H   0  0  0  0  0  0
  -25.1307  -36.1932   25.0817 H   0  0  0  0  0  0
  -20.9979  -28.3348   24.1407 H   0  0  0  0  0  0
  -20.5739  -26.2383   23.3687 H   0  0  0  0  0  0
  -21.6716  -26.7506   22.1276 H   0  0  0  0  0  0
  -19.7022  -25.6358   21.1203 H   0  0  0  0  0  0
  -19.6785  -27.3254   20.6776 H   0  0  0  0  0  0
  -17.4325  -26.6635   21.3984 H   0  0  0  0  0  0
  -18.0432  -25.9986   22.8988 H   0  0  0  0  0  0
  -19.7920  -30.7267   24.2207 H   0  0  0  0  0  0
  -17.4947  -31.6243   24.5117 H   0  0  0  0  0  0
  -15.5310  -30.2912   23.7555 H   0  0  0  0  0  0
  -15.8700  -28.0738   22.7050 H   0  0  0  0  0  0
  -24.5904  -30.7035   25.7884 H   0  0  0  0  0  0
  -24.8987  -32.2840   26.5006 H   0  0  0  0  0  0
  -25.8169  -30.8842   27.0205 H   0  0  0  0  0  0
  -26.2844  -29.6742   24.1238 H   0  0  0  0  0  0
  -27.4049  -29.7262   25.4646 H   0  0  0  0  0  0
  -27.8715  -30.4270   23.9338 H   0  0  0  0  0  0
  -27.2498  -33.3620   26.2085 H   0  0  0  0  0  0
  -28.3796  -32.6978   25.0355 H   0  0  0  0  0  0
  -28.0652  -31.8495   26.5428 H   0  0  0  0  0  0
  -28.2596  -38.0111   24.7487 H   0  0  0  0  0  0
  -28.1071  -36.2623   24.6308 H   0  0  0  0  0  0
  -27.2285  -37.1512   25.8859 H   0  0  0  0  0  0
  -20.9347  -29.8732   21.6799 H   0  0  0  0  0  0
  -26.0175  -38.2840   24.1373 H   0  0  0  0  0  0
  -27.7663  -20.2242   21.8824 H   0  0  0  0  0  0
  -28.7198  -16.3231   23.2526 H   0  0  0  0  0  0
  -29.1235  -19.8962   18.4525 H   0  0  0  0  0  0
  -28.9106  -22.0888   18.5546 H   0  0  0  0  0  0
  -29.6906  -17.9180   18.0913 H   0  0  0  0  0  0
  -30.2409  -16.4161   18.6764 H   0  0  0  0  0  0
  -31.2576  -17.8441   18.9087 H   0  0  0  0  0  0
  -32.0601  -16.2731   22.4181 H   0  0  0  0  0  0
  -31.8102  -14.5702   22.7238 H   0  0  0  0  0  0
  -30.8089  -15.7310   23.5336 H   0  0  0  0  0  0
  -29.6992  -22.9253   21.0000 H   0  0  0  0  0  0
  -28.2367  -22.1550   21.5209 H   0  0  0  0  0  0
  -28.0320  -25.1776   18.5773 H   0  0  0  0  0  0
  -29.5383  -24.9867   19.4087 H   0  0  0  0  0  0
  1 25  1  0  0  0
  1 30  2  0  0  0
  1 84  1  0  0  0
  2  3  1  0  0  0
  2 25  1  0  0  0
  2 87  1  0  0  0
  2 88  1  0  0  0
  3  4  1  0  0  0
  3 89  1  0  0  0
  3 90  1  0  0  0
  4  5  1  0  0  0
  4 91  1  0  0  0
  4 92  1  0  0  0
  5  6  1  0  0  0
  5 26  1  0  0  0
  5 93  1  0  0  0
  6 25  1  0  0  0
  6 94  1  0  0  0
  6 95  1  0  0  0
  7  8  2  0  0  0
  7 26  1  0  0  0
  7 29  1  0  0  0
  8  9  1  0  0  0
  8 22  1  0  0  0
  9 10  1  0  0  0
  9 27  2  0  0  0
 10 11  2  0  0  0
 10 15  1  0  0  0
 11 12  1  0  0  0
 11 96  1  0  0  0
 12 13  2  0  0  0
 12 97  1  0  0  0
 13 14  1  0  0  0
 13 31  1  0  0  0
 14 15  2  0  0  0
 14 98  1  0  0  0
 15 99  1  0  0  0
 16 17  2  0  0  0
 16 21  1  0  0  0
 16 31  1  0  0  0
 17 18  1  0  0  0
 17100  1  0  0  0
 18 19  2  0  0  0
 18101  1  0  0  0
 19 20  1  0  0  0
 19 24  1  0  0  0
 20 21  2  0  0  0
 20102  1  0  0  0
 21 23  1  0  0  0
 22 28  1  0  0  0
 22 32  2  0  0  0
 26 27  1  0  0  0
 28103  1  0  0  0
 28104  1  0  0  0
 29105  1  0  0  0
 29106  1  0  0  0
 33 34  1  0  0  0
 33 66  1  0  0  0
 33 70  2  0  0  0
 34 36  1  0  0  0
 34 59  1  0  0  0
 34107  1  0  0  0
 35 44  2  0  0  0
 35 45  1  0  0  0
 35 68  1  0  0  0
 36 56  1  0  0  0
 36108  1  0  0  0
 37 39  1  0  0  0
 37 47  1  0  0  0
 37 66  1  0  0  0
 37109  1  0  0  0
 38 43  2  0  0  0
 38 46  1  0  0  0
 38 47  1  0  0  0
 39 64  1  0  0  0
 39 67  2  0  0  0
 40 52  1  0  0  0
 40 53  2  0  0  0
 40 58  1  0  0  0
 41110  1  0  0  0
 41111  1  0  0  0
 41112  1  0  0  0
 41 48  1  0  0  0
 42 43  1  0  0  0
 42 66  1  0  0  0
 42113  1  0  0  0
 42114  1  0  0  0
 43 44  1  0  0  0
 44115  1  0  0  0
 45 46  2  0  0  0
 45116  1  0  0  0
 46117  1  0  0  0
 47118  1  0  0  0
 47119  1  0  0  0
 48 56  1  0  0  0
 48 65  1  0  0  0
 48120  1  0  0  0
 49 50  1  0  0  0
 49 53  1  0  0  0
 49 64  1  0  0  0
 49121  1  0  0  0
 50 51  1  0  0  0
 50122  1  0  0  0
 50123  1  0  0  0
 51 52  1  0  0  0
 51124  1  0  0  0
 51125  1  0  0  0
 52126  1  0  0  0
 52127  1  0  0  0
 53 54  1  0  0  0
 54 55  2  0  0  0
 54128  1  0  0  0
 55 57  1  0  0  0
 55129  1  0  0  0
 56 69  2  0  0  0
 57 58  2  0  0  0
 57130  1  0  0  0
 58131  1  0  0  0
 59 60  1  0  0  0
 59 61  1  0  0  0
 59 62  1  0  0  0
 60132  1  0  0  0
 60133  1  0  0  0
 60134  1  0  0  0
 61135  1  0  0  0
 61136  1  0  0  0
 61137  1  0  0  0
 62138  1  0  0  0
 62139  1  0  0  0
 62140  1  0  0  0
 63 65  1  0  0  0
 63141  1  0  0  0
 63142  1  0  0  0
 63143  1  0  0  0
 64144  1  0  0  0
 65145  1  0  0  0
 68 83  1  0  0  0
 71 73  2  0  0  0
 71 76  1  0  0  0
 71146  1  0  0  0
 72 75  1  0  0  0
 72 76  2  0  0  0
 72147  1  0  0  0
 73 74  1  0  0  0
 73 77  1  0  0  0
 74 75  2  0  0  0
 74 80  1  0  0  0
 75 84  1  0  0  0
 76 86  1  0  0  0
 77 78  2  0  0  0
 77148  1  0  0  0
 78 82  1  0  0  0
 78149  1  0  0  0
 79 82  1  0  0  0
 79 83  1  0  0  0
 79 85  2  0  0  0
 80150  1  0  0  0
 80151  1  0  0  0
 80152  1  0  0  0
 81 84  1  0  0  0
 81153  1  0  0  0
 81154  1  0  0  0
 81155  1  0  0  0
 82156  1  0  0  0
 82157  1  0  0  0
 83158  1  0  0  0
 83159  1  0  0  0
M  ISO  4   1 100  68 101  83 101  84 100
M  END
> <chiral flag>
0

> <version>
0

> <s_m_source_file>
/data/baiqing/PycharmProjects/Reinvent-master-3.2/result/LINK_invent/BTK/process_docking_weight1_custom_product_contain_oxygen_bond_distance_aromatic_linkinvent_7_9_3/rearranged_h_0123.sdf

> <i_m_source_file_index>
76

> <r_mmod_Potential_Energy-OPLS-2005>
303.171112060547

> <r_mmod_Stretch_Energy-OPLS-2005>
89.9576721191406

> <r_mmod_Bend_Energy-OPLS-2005>
201.006561279297

> <r_mmod_Torsional_Energy-OPLS-2005>
302.152160644531

> <r_mmod_Improper_Torsional_Energy-OPLS-2005>
7.15259552001953

> <r_mmod_Van_der_Waal_Energy-OPLS-2005>
147.126281738281

> <r_mmod_Electrostatic_Energy-OPLS-2005>
-279.808166503906

> <r_mmod_Solvation_Energy-OPLS-2005>
-202.986206054688

> <b_mmod_Minimization_Converged-OPLS-2005>
0

> <r_mmod_RMS_Derivative-OPLS-2005>
5.09282875061035

$$$$
76
                    3D
 Structure written by MMmdl.
161169  0  0  1  0            999 V2000
  -30.0133  -16.3806   20.2599 C   0  0  0  0  0  0
  -30.3594  -13.6343   19.5641 C   0  0  0  0  0  0
  -29.5823  -12.8821   18.4138 C   0  0  0  0  0  0
  -28.2200  -12.3603   18.8798 C   0  0  0  0  0  0
  -27.5780  -13.4011   19.8096 C   0  0  2  0  0  0
  -28.5277  -14.0336   20.8797 C   0  0  0  0  0  0
  -25.2207  -13.8439   20.5886 C   0  0  0  0  0  0
  -24.1685  -13.0461   20.9317 C   0  0  0  0  0  0
  -24.6513  -11.7012   20.8732 C   0  0  0  0  0  0
  -23.9223  -10.4314   21.0353 C   0  0  0  0  0  0
  -24.3722   -9.4223   21.9155 C   0  0  0  0  0  0
  -23.6354   -8.2279   22.0752 C   0  0  0  0  0  0
  -22.4331   -8.0318   21.3548 C   0  0  0  0  0  0
  -21.9996   -9.0295   20.4642 C   0  0  0  0  0  0
  -22.7368  -10.2150   20.3024 C   0  0  0  0  0  0
  -21.6877   -6.0755   22.5275 C   0  0  0  0  0  0
  -21.4032   -6.5652   23.8208 C   0  0  0  0  0  0
  -21.3663   -5.6803   24.9170 C   0  0  0  0  0  0
  -21.6044   -4.3063   24.7220 C   0  0  0  0  0  0
  -21.8817   -3.8156   23.4338 C   0  0  0  0  0  0
  -21.9197   -4.6978   22.3397 C   0  0  0  0  0  0
  -22.7671  -13.5115   21.1933 C   0  0  0  0  0  0
  -22.1664   -4.2162   21.0974 F   0  0  0  0  0  0
  -21.5624   -3.4543   25.7729 F   0  0  0  0  0  0
  -29.6021  -14.8722   20.2126 N   0  0  0  0  0  0
  -26.2785  -12.9963   20.3345 N   0  0  0  0  0  0
  -25.9502  -11.6921   20.5636 N   0  0  0  0  0  0
  -22.0376  -12.8062   22.0487 N   0  0  0  0  0  0
  -25.3662  -15.2200   20.4353 N   0  0  0  0  0  0
  -31.2592  -16.1932   20.1524 O   0  0  0  0  0  0
  -21.6672   -6.8920   21.4247 O   0  0  0  0  0  0
  -22.3312  -14.5408   20.6778 O   0  0  0  0  0  0
  -24.7339  -31.7395   23.1133 C   0  0  0  0  0  0
  -25.9672  -32.4171   23.7867 C   0  0  1  0  0  0
  -27.2625  -26.1935   20.2368 C   0  0  0  0  0  0
  -25.6035  -33.8027   24.1682 N   0  0  0  0  0  0
  -23.5859  -30.3203   21.4780 C   0  0  2  0  0  0
  -25.0576  -28.5655   20.1304 C   0  0  0  0  0  0
  -22.8004  -29.3990   22.4563 C   0  0  0  0  0  0
  -18.0378  -28.1447   22.8423 C   0  0  0  0  0  0
  -24.1503  -36.7030   23.2664 C   0  0  0  0  0  0
  -26.1864  -30.2986   21.4645 C   0  0  0  0  0  0
  -26.2514  -28.8078   20.8198 C   0  0  0  0  0  0
  -27.3076  -27.6640   20.8460 C   0  0  0  0  0  0
  -26.0349  -26.3120   19.4838 C   0  0  0  0  0  0
  -25.0190  -27.3438   19.4363 C   0  0  0  0  0  0
  -23.8731  -29.5776   20.1342 C   0  0  0  0  0  0
  -25.4170  -36.2722   24.0246 C   0  0  1  0  0  0
  -20.6040  -28.3835   23.1034 C   0  0  2  0  0  0
  -20.6814  -26.9443   22.5406 C   0  0  0  0  0  0
  -19.5800  -26.6351   21.5215 C   0  0  0  0  0  0
  -18.1983  -26.7962   22.1605 C   0  0  0  0  0  0
  -19.1657  -28.8976   23.2693 C   0  0  0  0  0  0
  -18.9550  -30.1541   23.8769 C   0  0  0  0  0  0
  -17.6533  -30.6613   24.0536 C   0  0  0  0  0  0
  -25.9180  -34.9123   23.4837 C   0  0  0  0  0  0
  -16.5420  -29.9084   23.6359 C   0  0  0  0  0  0
  -16.7352  -28.6508   23.0374 C   0  0  0  0  0  0
  -26.4683  -31.6424   25.0698 C   0  0  0  0  0  0
  -25.3616  -31.3888   26.1216 C   0  0  0  0  0  0
  -27.0697  -30.2704   24.6989 C   0  0  0  0  0  0
  -27.6031  -32.4415   25.7535 C   0  0  0  0  0  0
  -27.5554  -37.1671   24.8467 C   0  0  0  0  0  0
  -21.4604  -29.2980   22.3297 N   0  0  0  0  0  0
  -26.4254  -37.3538   23.9407 N   0  0  0  0  0  0
  -24.8651  -30.8313   22.0699 N   0  0  0  0  0  0
  -23.4193  -28.7658   23.3140 O   0  0  0  0  0  0
  -28.0156  -24.6169   20.2895 O   0  0  0  0  0  0
  -26.5883  -34.8796   22.4498 O   0  0  0  0  0  0
  -23.6243  -32.0710   23.5740 O   0  0  0  0  0  0
  -28.1101  -24.3053   18.1773 C   0  0  0  0  0  0
  -30.1515  -24.6869   20.4102 C   0  0  0  0  0  0
  -28.6575  -21.8562   20.1956 C   0  0  0  0  0  0
  -27.7382  -22.7349   18.9800 C   0  0  0  0  0  0
  -29.4344  -25.3443   18.8844 C   0  0  0  0  0  0
  -29.6042  -23.0813   21.0052 C   0  0  0  0  0  0
  -28.7920  -19.7680   20.2412 C   0  0  0  0  0  0
  -29.1220  -18.0854   20.2805 C   0  0  0  0  0  0
  -30.8943  -25.3361   17.3558 C   0  0  0  0  0  0
  -32.1377  -23.1363   17.1386 C   0  0  0  0  0  0
  -26.6769  -21.9210   18.2604 C   0  0  0  0  0  0
  -30.0131  -23.1732   18.7038 C   0  0  0  0  0  0
  -30.7662  -23.7909   17.3999 C   0  0  1  0  0  0
  -30.1997  -26.1304   18.0656 N   0  0  0  0  0  0
  -25.3252  -22.3873   18.5891 N   0  3  0  0  0  0
  -30.2707  -22.6402   22.0995 F   0  0  0  0  0  0
  -31.2936  -13.9857   19.1259 H   0  0  0  0  0  0
  -30.6823  -12.9282   20.3314 H   0  0  0  0  0  0
  -30.1829  -12.0628   18.0179 H   0  0  0  0  0  0
  -29.4310  -13.5770   17.5865 H   0  0  0  0  0  0
  -28.3725  -11.4300   19.4277 H   0  0  0  0  0  0
  -27.5745  -12.1274   18.0322 H   0  0  0  0  0  0
  -27.3492  -14.2212   19.1271 H   0  0  0  0  0  0
  -28.9269  -13.2813   21.5616 H   0  0  0  0  0  0
  -27.9561  -14.7109   21.5151 H   0  0  0  0  0  0
  -25.2860   -9.5686   22.4742 H   0  0  0  0  0  0
  -24.0041   -7.4679   22.7491 H   0  0  0  0  0  0
  -21.0921   -8.8838   19.8955 H   0  0  0  0  0  0
  -22.3832  -10.9689   19.6131 H   0  0  0  0  0  0
  -21.2038   -7.6160   23.9718 H   0  0  0  0  0  0
  -21.1484   -6.0529   25.9073 H   0  0  0  0  0  0
  -22.0591   -2.7617   23.2835 H   0  0  0  0  0  0
  -22.4064  -11.9753   22.4869 H   0  0  0  0  0  0
  -21.0970  -13.1012   22.2697 H   0  0  0  0  0  0
  -24.5898  -15.8623   20.5505 H   0  0  0  0  0  0
  -26.2114  -15.6708   20.1112 H   0  0  0  0  0  0
  -26.7816  -32.4533   23.0623 H   0  0  0  0  0  0
  -25.0024  -33.8979   24.9732 H   0  0  0  0  0  0
  -22.9412  -31.1714   21.2449 H   0  0  0  0  0  0
  -23.3793  -35.9327   23.3224 H   0  0  0  0  0  0
  -24.3558  -36.8825   22.2101 H   0  0  0  0  0  0
  -23.7238  -37.6152   23.6847 H   0  0  0  0  0  0
  -26.4438  -30.9878   20.6592 H   0  0  0  0  0  0
  -27.0187  -30.3840   22.1496 H   0  0  0  0  0  0
  -28.1770  -27.8684   21.4548 H   0  0  0  0  0  0
  -25.7699  -25.4293   18.9265 H   0  0  0  0  0  0
  -24.1383  -27.1326   18.8453 H   0  0  0  0  0  0
  -24.0885  -30.3200   19.3646 H   0  0  0  0  0  0
  -22.9704  -29.0684   19.7931 H   0  0  0  0  0  0
  -25.1400  -36.1418   25.0733 H   0  0  0  0  0  0
  -21.0101  -28.3501   24.1169 H   0  0  0  0  0  0
  -20.5621  -26.2481   23.3719 H   0  0  0  0  0  0
  -21.6673  -26.7299   22.1263 H   0  0  0  0  0  0
  -19.6949  -25.6227   21.1326 H   0  0  0  0  0  0
  -19.6755  -27.3092   20.6690 H   0  0  0  0  0  0
  -17.4255  -26.6703   21.4004 H   0  0  0  0  0  0
  -18.0356  -26.0133   22.9028 H   0  0  0  0  0  0
  -19.8025  -30.7383   24.2090 H   0  0  0  0  0  0
  -17.5082  -31.6277   24.5166 H   0  0  0  0  0  0
  -15.5414  -30.2947   23.7754 H   0  0  0  0  0  0
  -15.8752  -28.0780   22.7169 H   0  0  0  0  0  0
  -24.5855  -30.7183   25.7501 H   0  0  0  0  0  0
  -24.8757  -32.3152   26.4287 H   0  0  0  0  0  0
  -25.7676  -30.9281   27.0231 H   0  0  0  0  0  0
  -26.3513  -29.6150   24.2058 H   0  0  0  0  0  0
  -27.3971  -29.7368   25.5925 H   0  0  0  0  0  0
  -27.9552  -30.3703   24.0711 H   0  0  0  0  0  0
  -27.2506  -33.3855   26.1704 H   0  0  0  0  0  0
  -28.4038  -32.6756   25.0505 H   0  0  0  0  0  0
  -28.0481  -31.8835   26.5783 H   0  0  0  0  0  0
  -28.2501  -38.0028   24.7516 H   0  0  0  0  0  0
  -28.1116  -36.2542   24.6286 H   0  0  0  0  0  0
  -27.2267  -37.1286   25.8866 H   0  0  0  0  0  0
  -21.0034  -29.8584   21.6240 H   0  0  0  0  0  0
  -26.0036  -38.2563   24.1423 H   0  0  0  0  0  0
  -27.6241  -24.5840   17.2525 H   0  0  0  0  0  0
  -30.9615  -25.1985   20.9083 H   0  0  0  0  0  0
  -27.7214  -19.6432   20.3113 H   0  0  0  0  0  0
  -28.1168  -17.6905   20.3314 H   0  0  0  0  0  0
  -31.6247  -25.7135   16.6352 H   0  0  0  0  0  0
  -32.5333  -23.4206   16.1634 H   0  0  0  0  0  0
  -32.0677  -22.0480   17.1514 H   0  0  0  0  0  0
  -32.8713  -23.4312   17.8907 H   0  0  0  0  0  0
  -26.7637  -20.8673   18.5244 H   0  0  0  0  0  0
  -26.8370  -21.9901   17.1839 H   0  0  0  0  0  0
  -30.9263  -22.8049   19.2031 H   0  0  0  0  0  0
  -29.7871  -22.2222   18.1920 H   0  0  0  0  0  0
  -30.1492  -23.5438   16.5341 H   0  0  0  0  0  0
  -25.1650  -22.3277   19.5775 H   0  0  0  0  0  0
  -24.6480  -21.8148   18.1186 H   0  0  0  0  0  0
  -25.2013  -23.3351   18.2887 H   0  0  0  0  0  0
  1 25  1  0  0  0
  1 30  2  0  0  0
  1 78  1  0  0  0
  2  3  1  0  0  0
  2 25  1  0  0  0
  2 87  1  0  0  0
  2 88  1  0  0  0
  3  4  1  0  0  0
  3 89  1  0  0  0
  3 90  1  0  0  0
  4  5  1  0  0  0
  4 91  1  0  0  0
  4 92  1  0  0  0
  5  6  1  0  0  0
  5 26  1  0  0  0
  5 93  1  0  0  0
  6 25  1  0  0  0
  6 94  1  0  0  0
  6 95  1  0  0  0
  7  8  2  0  0  0
  7 26  1  0  0  0
  7 29  1  0  0  0
  8  9  1  0  0  0
  8 22  1  0  0  0
  9 10  1  0  0  0
  9 27  2  0  0  0
 10 11  2  0  0  0
 10 15  1  0  0  0
 11 12  1  0  0  0
 11 96  1  0  0  0
 12 13  2  0  0  0
 12 97  1  0  0  0
 13 14  1  0  0  0
 13 31  1  0  0  0
 14 15  2  0  0  0
 14 98  1  0  0  0
 15 99  1  0  0  0
 16 17  2  0  0  0
 16 21  1  0  0  0
 16 31  1  0  0  0
 17 18  1  0  0  0
 17100  1  0  0  0
 18 19  2  0  0  0
 18101  1  0  0  0
 19 20  1  0  0  0
 19 24  1  0  0  0
 20 21  2  0  0  0
 20102  1  0  0  0
 21 23  1  0  0  0
 22 28  1  0  0  0
 22 32  2  0  0  0
 26 27  1  0  0  0
 28103  1  0  0  0
 28104  1  0  0  0
 29105  1  0  0  0
 29106  1  0  0  0
 33 34  1  0  0  0
 33 66  1  0  0  0
 33 70  2  0  0  0
 34 36  1  0  0  0
 34 59  1  0  0  0
 34107  1  0  0  0
 35 44  2  0  0  0
 35 45  1  0  0  0
 35 68  1  0  0  0
 36 56  1  0  0  0
 36108  1  0  0  0
 37 39  1  0  0  0
 37 47  1  0  0  0
 37 66  1  0  0  0
 37109  1  0  0  0
 38 43  2  0  0  0
 38 46  1  0  0  0
 38 47  1  0  0  0
 39 64  1  0  0  0
 39 67  2  0  0  0
 40 52  1  0  0  0
 40 53  2  0  0  0
 40 58  1  0  0  0
 41110  1  0  0  0
 41111  1  0  0  0
 41112  1  0  0  0
 41 48  1  0  0  0
 42 43  1  0  0  0
 42 66  1  0  0  0
 42113  1  0  0  0
 42114  1  0  0  0
 43 44  1  0  0  0
 44115  1  0  0  0
 45 46  2  0  0  0
 45116  1  0  0  0
 46117  1  0  0  0
 47118  1  0  0  0
 47119  1  0  0  0
 48 56  1  0  0  0
 48 65  1  0  0  0
 48120  1  0  0  0
 49 50  1  0  0  0
 49 53  1  0  0  0
 49 64  1  0  0  0
 49121  1  0  0  0
 50 51  1  0  0  0
 50122  1  0  0  0
 50123  1  0  0  0
 51 52  1  0  0  0
 51124  1  0  0  0
 51125  1  0  0  0
 52126  1  0  0  0
 52127  1  0  0  0
 53 54  1  0  0  0
 54 55  2  0  0  0
 54128  1  0  0  0
 55 57  1  0  0  0
 55129  1  0  0  0
 56 69  2  0  0  0
 57 58  2  0  0  0
 57130  1  0  0  0
 58131  1  0  0  0
 59 60  1  0  0  0
 59 61  1  0  0  0
 59 62  1  0  0  0
 60132  1  0  0  0
 60133  1  0  0  0
 60134  1  0  0  0
 61135  1  0  0  0
 61136  1  0  0  0
 61137  1  0  0  0
 62138  1  0  0  0
 62139  1  0  0  0
 62140  1  0  0  0
 63 65  1  0  0  0
 63141  1  0  0  0
 63142  1  0  0  0
 63143  1  0  0  0
 64144  1  0  0  0
 65145  1  0  0  0
 68 82  1  0  0  0
 71 74  2  0  0  0
 71 75  1  0  0  0
 71146  1  0  0  0
 72 75  2  0  0  0
 72 76  1  0  0  0
 72147  1  0  0  0
 73 74  1  0  0  0
 73 76  2  0  0  0
 73 77  1  0  0  0
 74 81  1  0  0  0
 75 84  1  0  0  0
 76 86  1  0  0  0
 77 78  2  0  0  0
 77148  1  0  0  0
 78149  1  0  0  0
 79 83  1  0  0  0
 79 84  2  0  0  0
 79150  1  0  0  0
 80151  1  0  0  0
 80152  1  0  0  0
 80153  1  0  0  0
 80 83  1  0  0  0
 81 85  1  0  0  0
 81154  1  0  0  0
 81155  1  0  0  0
 82 83  1  0  0  0
 82156  1  0  0  0
 82157  1  0  0  0
 83158  1  0  0  0
 85159  1  0  0  0
 85160  1  0  0  0
 85161  1  0  0  0
M  CHG  1  85   1
M  ISO  4   1 100  68 101  78 100  82 101
M  END
> <chiral flag>
0

> <version>
0

> <s_m_source_file>
/data/baiqing/PycharmProjects/Reinvent-master-3.2/result/LINK_invent/BTK/process_docking_weight1_custom_product_contain_oxygen_bond_distance_aromatic_linkinvent_7_9_3/rearranged_h_0123.sdf

> <i_m_source_file_index>
77

> <r_mmod_Potential_Energy-OPLS-2005>
11813.986328125

> <r_mmod_Stretch_Energy-OPLS-2005>
6791.29931640625

> <r_mmod_Bend_Energy-OPLS-2005>
1083.09094238281

> <r_mmod_Torsional_Energy-OPLS-2005>
344.902618408203

> <r_mmod_Improper_Torsional_Energy-OPLS-2005>
18.9774227142334

> <r_mmod_Van_der_Waal_Energy-OPLS-2005>
1999.71630859375

> <r_mmod_Electrostatic_Energy-OPLS-2005>
-288.956604003906

> <r_mmod_Solvation_Energy-OPLS-2005>
-531.990539550781

> <b_mmod_Minimization_Converged-OPLS-2005>
0

> <r_mmod_RMS_Derivative-OPLS-2005>
2.14527535438538

$$$$
77
                    3D
 Structure written by MMmdl.
154163  0  0  1  0            999 V2000
  -30.6002  -14.6731   20.4928 C   0  0  0  0  0  0
  -30.4449  -12.4142   19.4524 C   0  0  0  0  0  0
  -29.5102  -12.5142   18.2247 C   0  0  0  0  0  0
  -28.0337  -12.3452   18.6371 C   0  0  0  0  0  0
  -27.6538  -13.2159   19.8640 C   0  0  2  0  0  0
  -28.6998  -13.0751   20.9930 C   0  0  0  0  0  0
  -25.2567  -13.8166   20.5683 C   0  0  0  0  0  0
  -24.1833  -13.0436   20.9198 C   0  0  0  0  0  0
  -24.6396  -11.6906   20.8740 C   0  0  0  0  0  0
  -23.9059  -10.4289   21.0404 C   0  0  0  0  0  0
  -24.3616   -9.4206   21.9179 C   0  0  0  0  0  0
  -23.6293   -8.2239   22.0748 C   0  0  0  0  0  0
  -22.4273   -8.0280   21.3542 C   0  0  0  0  0  0
  -21.9907   -9.0252   20.4643 C   0  0  0  0  0  0
  -22.7232  -10.2133   20.3054 C   0  0  0  0  0  0
  -21.6854   -6.0735   22.5275 C   0  0  0  0  0  0
  -21.4014   -6.5637   23.8210 C   0  0  0  0  0  0
  -21.3660   -5.6788   24.9170 C   0  0  0  0  0  0
  -21.6046   -4.3050   24.7222 C   0  0  0  0  0  0
  -21.8820   -3.8145   23.4340 C   0  0  0  0  0  0
  -21.9194   -4.6961   22.3399 C   0  0  0  0  0  0
  -22.7856  -13.5234   21.1859 C   0  0  0  0  0  0
  -22.1663   -4.2148   21.0976 F   0  0  0  0  0  0
  -21.5631   -3.4534   25.7734 F   0  0  0  0  0  0
  -30.0122  -13.4335   20.4308 N   0  0  0  0  0  0
  -26.2993  -12.9343   20.3315 N   0  0  0  0  0  0
  -25.9325  -11.6498   20.5752 N   0  0  0  0  0  0
  -22.0493  -12.8230   22.0415 N   0  0  0  0  0  0
  -25.4282  -15.1886   20.4079 N   0  0  0  0  0  0
  -31.7613  -14.8459   20.1087 O   0  0  0  0  0  0
  -21.6640   -6.8877   21.4238 O   0  0  0  0  0  0
  -22.3542  -14.5538   20.6699 O   0  0  0  0  0  0
  -24.6280  -31.8587   23.2021 C   0  0  0  0  0  0
  -25.9120  -32.4777   23.8363 C   0  0  1  0  0  0
  -27.2228  -27.3048   20.1228 C   0  0  0  0  0  0
  -25.5928  -33.8578   24.2289 N   0  0  0  0  0  0
  -23.4235  -30.4818   21.5444 C   0  0  2  0  0  0
  -24.8713  -28.9349   20.1108 C   0  0  0  0  0  0
  -22.7485  -29.4622   22.4931 C   0  0  0  0  0  0
  -18.0294  -28.1384   22.8488 C   0  0  0  0  0  0
  -24.1484  -36.7289   23.2636 C   0  0  0  0  0  0
  -25.9664  -30.7821   21.3785 C   0  0  0  0  0  0
  -26.0404  -29.4083   20.7217 C   0  0  0  0  0  0
  -27.2208  -28.6028   20.7228 C   0  0  0  0  0  0
  -26.0374  -26.8942   19.4737 C   0  0  0  0  0  0
  -24.8717  -27.6830   19.4771 C   0  0  0  0  0  0
  -23.6397  -29.8168   20.1597 C   0  0  0  0  0  0
  -25.4106  -36.3083   24.0338 C   0  0  1  0  0  0
  -20.5896  -28.3699   23.1274 C   0  0  2  0  0  0
  -20.6785  -26.9421   22.5406 C   0  0  0  0  0  0
  -19.5761  -26.6384   21.5213 C   0  0  0  0  0  0
  -18.1940  -26.7928   22.1619 C   0  0  0  0  0  0
  -19.1544  -28.8858   23.2878 C   0  0  0  0  0  0
  -18.9464  -30.1455   23.8899 C   0  0  0  0  0  0
  -17.6461  -30.6585   24.0563 C   0  0  0  0  0  0
  -25.9052  -34.9455   23.5119 C   0  0  0  0  0  0
  -16.5354  -29.9084   23.6326 C   0  0  0  0  0  0
  -16.7278  -28.6500   23.0356 C   0  0  0  0  0  0
  -26.4497  -31.6586   25.0735 C   0  0  0  0  0  0
  -25.3731  -31.3724   26.1462 C   0  0  0  0  0  0
  -27.0346  -30.3008   24.6197 C   0  0  0  0  0  0
  -27.6070  -32.4316   25.7495 C   0  0  0  0  0  0
  -27.5594  -37.1784   24.8455 C   0  0  0  0  0  0
  -21.4200  -29.3046   22.3663 N   0  0  0  0  0  0
  -26.4282  -37.3785   23.9433 N   0  0  0  0  0  0
  -24.6914  -31.0579   22.0984 N   0  0  0  0  0  0
  -23.4200  -28.8169   23.3023 O   0  0  0  0  0  0
  -28.3082  -26.4115   20.1567 O   0  0  0  0  0  0
  -26.5615  -34.8926   22.4682 O   0  0  0  0  0  0
  -23.5436  -32.1388   23.7335 O   0  0  0  0  0  0
  -28.5581  -19.3389   20.9438 C   0  0  0  0  0  0
  -30.7591  -19.3650   20.0066 C   0  0  0  0  0  0
  -28.6482  -17.9190   21.0825 C   0  0  0  0  0  0
  -30.8514  -17.9407   20.1408 C   0  0  0  0  0  0
  -29.6108  -20.1202   20.3994 C   0  0  0  0  0  0
  -29.7910  -17.1680   20.6871 C   0  0  0  0  0  0
  -28.7878  -23.9244   20.2632 C   0  0  0  0  0  0
  -28.0368  -25.0595   20.4879 C   0  0  0  0  0  0
  -30.1410  -23.8402   19.5930 C   0  0  0  0  0  0
  -28.4099  -22.4619   20.6336 C   0  0  0  0  0  0
  -30.6349  -22.3722   19.7463 C   0  0  0  0  0  0
  -29.5259  -21.5590   20.2504 N   0  0  0  0  0  0
  -29.7697  -15.7063   20.8597 N   0  0  0  0  0  0
  -31.4828  -12.5546   19.1458 H   0  0  0  0  0  0
  -30.3953  -11.4180   19.8952 H   0  0  0  0  0  0
  -29.7792  -11.7613   17.4827 H   0  0  0  0  0  0
  -29.6438  -13.4824   17.7382 H   0  0  0  0  0  0
  -27.8739  -11.2915   18.8691 H   0  0  0  0  0  0
  -27.3775  -12.5725   17.7958 H   0  0  0  0  0  0
  -27.6698  -14.2505   19.5214 H   0  0  0  0  0  0
  -28.7209  -12.0512   21.3686 H   0  0  0  0  0  0
  -28.4391  -13.6984   21.8495 H   0  0  0  0  0  0
  -25.2762   -9.5685   22.4750 H   0  0  0  0  0  0
  -24.0007   -7.4630   22.7462 H   0  0  0  0  0  0
  -21.0839   -8.8769   19.8950 H   0  0  0  0  0  0
  -22.3687  -10.9673   19.6166 H   0  0  0  0  0  0
  -21.2002   -7.6145   23.9715 H   0  0  0  0  0  0
  -21.1484   -6.0514   25.9074 H   0  0  0  0  0  0
  -22.0599   -2.7607   23.2838 H   0  0  0  0  0  0
  -22.4110  -11.9898   22.4816 H   0  0  0  0  0  0
  -21.1107  -13.1253   22.2607 H   0  0  0  0  0  0
  -24.6563  -15.8389   20.5052 H   0  0  0  0  0  0
  -26.2641  -15.6218   20.0377 H   0  0  0  0  0  0
  -26.7190  -32.5439   23.1116 H   0  0  0  0  0  0
  -25.0090  -33.9724   25.0447 H   0  0  0  0  0  0
  -22.7194  -31.3037   21.4000 H   0  0  0  0  0  0
  -23.3768  -35.9600   23.3259 H   0  0  0  0  0  0
  -24.3586  -36.8940   22.2057 H   0  0  0  0  0  0
  -23.7208  -37.6472   23.6672 H   0  0  0  0  0  0
  -26.1017  -31.5438   20.6093 H   0  0  0  0  0  0
  -26.8463  -30.8301   22.0087 H   0  0  0  0  0  0
  -28.1170  -28.9553   21.2144 H   0  0  0  0  0  0
  -26.0017  -25.9343   18.9782 H   0  0  0  0  0  0
  -23.9786  -27.3162   18.9897 H   0  0  0  0  0  0
  -23.7621  -30.5932   19.4038 H   0  0  0  0  0  0
  -22.7594  -29.2474   19.8560 H   0  0  0  0  0  0
  -25.1278  -36.1936   25.0829 H   0  0  0  0  0  0
  -20.9992  -28.3275   24.1395 H   0  0  0  0  0  0
  -20.5681  -26.2315   23.3612 H   0  0  0  0  0  0
  -21.6656  -26.7448   22.1204 H   0  0  0  0  0  0
  -19.6927  -25.6295   21.1248 H   0  0  0  0  0  0
  -19.6699  -27.3193   20.6741 H   0  0  0  0  0  0
  -17.4213  -26.6686   21.4014 H   0  0  0  0  0  0
  -18.0333  -26.0064   22.9006 H   0  0  0  0  0  0
  -19.7938  -30.7270   24.2277 H   0  0  0  0  0  0
  -17.5014  -31.6267   24.5162 H   0  0  0  0  0  0
  -15.5354  -30.2987   23.7642 H   0  0  0  0  0  0
  -15.8680  -28.0810   22.7080 H   0  0  0  0  0  0
  -24.5913  -30.7059   25.7792 H   0  0  0  0  0  0
  -24.8909  -32.2885   26.4880 H   0  0  0  0  0  0
  -25.8052  -30.8909   27.0241 H   0  0  0  0  0  0
  -26.2921  -29.6751   24.1220 H   0  0  0  0  0  0
  -27.4043  -29.7268   25.4703 H   0  0  0  0  0  0
  -27.8793  -30.4299   23.9429 H   0  0  0  0  0  0
  -27.2698  -33.3621   26.2074 H   0  0  0  0  0  0
  -28.3871  -32.6859   25.0310 H   0  0  0  0  0  0
  -28.0745  -31.8434   26.5400 H   0  0  0  0  0  0
  -28.2563  -38.0127   24.7580 H   0  0  0  0  0  0
  -28.1136  -36.2668   24.6172 H   0  0  0  0  0  0
  -27.2329  -37.1301   25.8856 H   0  0  0  0  0  0
  -20.9385  -29.8757   21.6859 H   0  0  0  0  0  0
  -26.0164  -38.2854   24.1469 H   0  0  0  0  0  0
  -27.6494  -19.8252   21.2680 H   0  0  0  0  0  0
  -31.6106  -19.8753   19.5813 H   0  0  0  0  0  0
  -27.7986  -17.4017   21.5057 H   0  0  0  0  0  0
  -31.7572  -17.4517   19.8120 H   0  0  0  0  0  0
  -27.0823  -24.9661   20.9894 H   0  0  0  0  0  0
  -30.8397  -24.5552   20.0292 H   0  0  0  0  0  0
  -30.0241  -24.0896   18.5377 H   0  0  0  0  0  0
  -27.5021  -22.1750   20.1002 H   0  0  0  0  0  0
  -28.2072  -22.3889   21.7035 H   0  0  0  0  0  0
  -31.4637  -22.3244   20.4545 H   0  0  0  0  0  0
  -30.9980  -21.9900   18.7910 H   0  0  0  0  0  0
  -28.8937  -15.3557   21.2153 H   0  0  0  0  0  0
  1 25  1  0  0  0
  1 30  2  0  0  0
  1 83  1  0  0  0
  2  3  1  0  0  0
  2 25  1  0  0  0
  2 84  1  0  0  0
  2 85  1  0  0  0
  3  4  1  0  0  0
  3 86  1  0  0  0
  3 87  1  0  0  0
  4  5  1  0  0  0
  4 88  1  0  0  0
  4 89  1  0  0  0
  5  6  1  0  0  0
  5 26  1  0  0  0
  5 90  1  0  0  0
  6 25  1  0  0  0
  6 91  1  0  0  0
  6 92  1  0  0  0
  7  8  2  0  0  0
  7 26  1  0  0  0
  7 29  1  0  0  0
  8  9  1  0  0  0
  8 22  1  0  0  0
  9 10  1  0  0  0
  9 27  2  0  0  0
 10 11  2  0  0  0
 10 15  1  0  0  0
 11 12  1  0  0  0
 11 93  1  0  0  0
 12 13  2  0  0  0
 12 94  1  0  0  0
 13 14  1  0  0  0
 13 31  1  0  0  0
 14 15  2  0  0  0
 14 95  1  0  0  0
 15 96  1  0  0  0
 16 17  2  0  0  0
 16 21  1  0  0  0
 16 31  1  0  0  0
 17 18  1  0  0  0
 17 97  1  0  0  0
 18 19  2  0  0  0
 18 98  1  0  0  0
 19 20  1  0  0  0
 19 24  1  0  0  0
 20 21  2  0  0  0
 20 99  1  0  0  0
 21 23  1  0  0  0
 22 28  1  0  0  0
 22 32  2  0  0  0
 26 27  1  0  0  0
 28100  1  0  0  0
 28101  1  0  0  0
 29102  1  0  0  0
 29103  1  0  0  0
 33 34  1  0  0  0
 33 66  1  0  0  0
 33 70  2  0  0  0
 34 36  1  0  0  0
 34 59  1  0  0  0
 34104  1  0  0  0
 35 44  2  0  0  0
 35 45  1  0  0  0
 35 68  1  0  0  0
 36 56  1  0  0  0
 36105  1  0  0  0
 37 39  1  0  0  0
 37 47  1  0  0  0
 37 66  1  0  0  0
 37106  1  0  0  0
 38 43  2  0  0  0
 38 46  1  0  0  0
 38 47  1  0  0  0
 39 64  1  0  0  0
 39 67  2  0  0  0
 40 52  1  0  0  0
 40 53  2  0  0  0
 40 58  1  0  0  0
 41107  1  0  0  0
 41108  1  0  0  0
 41109  1  0  0  0
 41 48  1  0  0  0
 42 43  1  0  0  0
 42 66  1  0  0  0
 42110  1  0  0  0
 42111  1  0  0  0
 43 44  1  0  0  0
 44112  1  0  0  0
 45 46  2  0  0  0
 45113  1  0  0  0
 46114  1  0  0  0
 47115  1  0  0  0
 47116  1  0  0  0
 48 56  1  0  0  0
 48 65  1  0  0  0
 48117  1  0  0  0
 49 50  1  0  0  0
 49 53  1  0  0  0
 49 64  1  0  0  0
 49118  1  0  0  0
 50 51  1  0  0  0
 50119  1  0  0  0
 50120  1  0  0  0
 51 52  1  0  0  0
 51121  1  0  0  0
 51122  1  0  0  0
 52123  1  0  0  0
 52124  1  0  0  0
 53 54  1  0  0  0
 54 55  2  0  0  0
 54125  1  0  0  0
 55 57  1  0  0  0
 55126  1  0  0  0
 56 69  2  0  0  0
 57 58  2  0  0  0
 57127  1  0  0  0
 58128  1  0  0  0
 59 60  1  0  0  0
 59 61  1  0  0  0
 59 62  1  0  0  0
 60129  1  0  0  0
 60130  1  0  0  0
 60131  1  0  0  0
 61132  1  0  0  0
 61133  1  0  0  0
 61134  1  0  0  0
 62135  1  0  0  0
 62136  1  0  0  0
 62137  1  0  0  0
 63 65  1  0  0  0
 63138  1  0  0  0
 63139  1  0  0  0
 63140  1  0  0  0
 64141  1  0  0  0
 65142  1  0  0  0
 68 78  1  0  0  0
 71 73  2  0  0  0
 71 75  1  0  0  0
 71143  1  0  0  0
 72 74  1  0  0  0
 72 75  2  0  0  0
 72144  1  0  0  0
 73 76  1  0  0  0
 73145  1  0  0  0
 74 76  2  0  0  0
 74146  1  0  0  0
 75 82  1  0  0  0
 76 83  1  0  0  0
 77 78  2  0  0  0
 77 79  1  0  0  0
 77 80  1  0  0  0
 78147  1  0  0  0
 79 81  1  0  0  0
 79148  1  0  0  0
 79149  1  0  0  0
 80 82  1  0  0  0
 80150  1  0  0  0
 80151  1  0  0  0
 81 82  1  0  0  0
 81152  1  0  0  0
 81153  1  0  0  0
 83154  1  0  0  0
M  ISO  4   1 100  68 101  78 101  83 100
M  END
> <chiral flag>
0

> <version>
0

> <s_m_source_file>
/data/baiqing/PycharmProjects/Reinvent-master-3.2/result/LINK_invent/BTK/process_docking_weight1_custom_product_contain_oxygen_bond_distance_aromatic_linkinvent_7_9_3/rearranged_h_0123.sdf

> <i_m_source_file_index>
78

> <r_mmod_Potential_Energy-OPLS-2005>
74.2383117675781

> <r_mmod_Stretch_Energy-OPLS-2005>
79.8768005371094

> <r_mmod_Bend_Energy-OPLS-2005>
178.672088623047

> <r_mmod_Torsional_Energy-OPLS-2005>
225.066513061523

> <r_mmod_Improper_Torsional_Energy-OPLS-2005>
3.92719888687134

> <r_mmod_Van_der_Waal_Energy-OPLS-2005>
139.265502929688

> <r_mmod_Electrostatic_Energy-OPLS-2005>
-386.534332275391

> <r_mmod_Solvation_Energy-OPLS-2005>
-226.030700683594

> <b_mmod_Minimization_Converged-OPLS-2005>
0

> <r_mmod_RMS_Derivative-OPLS-2005>
0.890161752700806

$$$$
78
                    3D
 Structure written by MMmdl.
154162  0  0  1  0            999 V2000
  -30.5780  -14.6807   20.4448 C   0  0  0  0  0  0
  -30.4438  -12.4130   19.4413 C   0  0  0  0  0  0
  -29.5038  -12.5024   18.2180 C   0  0  0  0  0  0
  -28.0270  -12.3441   18.6330 C   0  0  0  0  0  0
  -27.6482  -13.2167   19.8583 C   0  0  2  0  0  0
  -28.6974  -13.0764   20.9833 C   0  0  0  0  0  0
  -25.2563  -13.8153   20.5801 C   0  0  0  0  0  0
  -24.1814  -13.0426   20.9246 C   0  0  0  0  0  0
  -24.6369  -11.6899   20.8763 C   0  0  0  0  0  0
  -23.9038  -10.4279   21.0399 C   0  0  0  0  0  0
  -24.3604   -9.4192   21.9175 C   0  0  0  0  0  0
  -23.6286   -8.2227   22.0743 C   0  0  0  0  0  0
  -22.4262   -8.0260   21.3534 C   0  0  0  0  0  0
  -21.9881   -9.0243   20.4634 C   0  0  0  0  0  0
  -22.7216  -10.2115   20.3053 C   0  0  0  0  0  0
  -21.6829   -6.0734   22.5289 C   0  0  0  0  0  0
  -21.3997   -6.5629   23.8231 C   0  0  0  0  0  0
  -21.3676   -5.6786   24.9187 C   0  0  0  0  0  0
  -21.6050   -4.3052   24.7232 C   0  0  0  0  0  0
  -21.8819   -3.8137   23.4354 C   0  0  0  0  0  0
  -21.9184   -4.6957   22.3414 C   0  0  0  0  0  0
  -22.7829  -13.5221   21.1911 C   0  0  0  0  0  0
  -22.1648   -4.2141   21.0992 F   0  0  0  0  0  0
  -21.5640   -3.4538   25.7746 F   0  0  0  0  0  0
  -30.0024  -13.4358   20.4114 N   0  0  0  0  0  0
  -26.2967  -12.9338   20.3320 N   0  0  0  0  0  0
  -25.9288  -11.6490   20.5742 N   0  0  0  0  0  0
  -22.0456  -12.8240   22.0473 N   0  0  0  0  0  0
  -25.4338  -15.1889   20.4381 N   0  0  0  0  0  0
  -31.7570  -14.8378   20.1146 O   0  0  0  0  0  0
  -21.6628   -6.8865   21.4241 O   0  0  0  0  0  0
  -22.3524  -14.5547   20.6779 O   0  0  0  0  0  0
  -24.6257  -31.8578   23.2026 C   0  0  0  0  0  0
  -25.9104  -32.4776   23.8342 C   0  0  1  0  0  0
  -27.2646  -27.3464   20.0887 C   0  0  0  0  0  0
  -25.5932  -33.8578   24.2294 N   0  0  0  0  0  0
  -23.4216  -30.4793   21.5428 C   0  0  2  0  0  0
  -24.8764  -28.9262   20.1195 C   0  0  0  0  0  0
  -22.7472  -29.4620   22.4940 C   0  0  0  0  0  0
  -18.0282  -28.1373   22.8481 C   0  0  0  0  0  0
  -24.1499  -36.7284   23.2628 C   0  0  0  0  0  0
  -25.9626  -30.7888   21.3738 C   0  0  0  0  0  0
  -26.0422  -29.4162   20.7187 C   0  0  0  0  0  0
  -27.2362  -28.6376   20.6964 C   0  0  0  0  0  0
  -26.0720  -26.9014   19.4712 C   0  0  0  0  0  0
  -24.8895  -27.6681   19.4931 C   0  0  0  0  0  0
  -23.6403  -29.8035   20.1639 C   0  0  0  0  0  0
  -25.4108  -36.3080   24.0350 C   0  0  1  0  0  0
  -20.5898  -28.3670   23.1287 C   0  0  2  0  0  0
  -20.6786  -26.9402   22.5389 C   0  0  0  0  0  0
  -19.5765  -26.6367   21.5201 C   0  0  0  0  0  0
  -18.1939  -26.7926   22.1600 C   0  0  0  0  0  0
  -19.1551  -28.8839   23.2882 C   0  0  0  0  0  0
  -18.9479  -30.1451   23.8884 C   0  0  0  0  0  0
  -17.6486  -30.6588   24.0570 C   0  0  0  0  0  0
  -25.9034  -34.9452   23.5106 C   0  0  0  0  0  0
  -16.5362  -29.9083   23.6349 C   0  0  0  0  0  0
  -16.7275  -28.6505   23.0335 C   0  0  0  0  0  0
  -26.4488  -31.6578   25.0708 C   0  0  0  0  0  0
  -25.3761  -31.3791   26.1498 C   0  0  0  0  0  0
  -27.0250  -30.2963   24.6133 C   0  0  0  0  0  0
  -27.6090  -32.4267   25.7457 C   0  0  0  0  0  0
  -27.5614  -37.1764   24.8457 C   0  0  0  0  0  0
  -21.4184  -29.3036   22.3682 N   0  0  0  0  0  0
  -26.4279  -37.3771   23.9467 N   0  0  0  0  0  0
  -24.6879  -31.0567   22.0973 N   0  0  0  0  0  0
  -23.4217  -28.8151   23.2994 O   0  0  0  0  0  0
  -28.4284  -26.5648   20.0579 O   0  0  0  0  0  0
  -26.5565  -34.8921   22.4656 O   0  0  0  0  0  0
  -23.5415  -32.1376   23.7328 O   0  0  0  0  0  0
  -30.9641  -19.2742   19.7506 C   0  0  0  0  0  0
  -30.9632  -17.8689   19.9987 C   0  0  0  0  0  0
  -28.6252  -17.9969   20.5319 C   0  0  0  0  0  0
  -29.8076  -20.0873   19.8798 C   0  0  0  0  0  0
  -28.6234  -19.4102   20.2807 C   0  0  0  0  0  0
  -29.7907  -17.1804   20.4013 C   0  0  0  0  0  0
  -29.9032  -21.5771   19.5696 C   0  0  0  0  0  0
  -29.3973  -22.6581   20.2425 C   0  0  0  0  0  0
  -27.3202  -20.1933   20.3970 C   0  0  0  0  0  0
  -29.5355  -24.1713   19.8738 C   0  0  0  0  0  0
  -28.3225  -25.1083   20.2746 C   0  0  0  0  0  0
  -29.7198  -15.7347   20.6755 N   0  0  0  0  0  0
  -31.4768  -12.5687   19.1271 H   0  0  0  0  0  0
  -30.4157  -11.4174   19.8879 H   0  0  0  0  0  0
  -29.7653  -11.7396   17.4831 H   0  0  0  0  0  0
  -29.6431  -13.4640   17.7180 H   0  0  0  0  0  0
  -27.8614  -11.2926   18.8671 H   0  0  0  0  0  0
  -27.3683  -12.5689   17.7932 H   0  0  0  0  0  0
  -27.6553  -14.2505   19.5125 H   0  0  0  0  0  0
  -28.7192  -12.0521   21.3544 H   0  0  0  0  0  0
  -28.4466  -13.6987   21.8435 H   0  0  0  0  0  0
  -25.2736   -9.5680   22.4769 H   0  0  0  0  0  0
  -23.9992   -7.4604   22.7451 H   0  0  0  0  0  0
  -21.0810   -8.8756   19.8947 H   0  0  0  0  0  0
  -22.3653  -10.9668   19.6183 H   0  0  0  0  0  0
  -21.1974   -7.6144   23.9742 H   0  0  0  0  0  0
  -21.1497   -6.0506   25.9099 H   0  0  0  0  0  0
  -22.0586   -2.7597   23.2852 H   0  0  0  0  0  0
  -22.4004  -11.9852   22.4835 H   0  0  0  0  0  0
  -21.1108  -13.1299   22.2740 H   0  0  0  0  0  0
  -24.6893  -15.8509   20.6257 H   0  0  0  0  0  0
  -26.2980  -15.6317   20.1596 H   0  0  0  0  0  0
  -26.7159  -32.5434   23.1064 H   0  0  0  0  0  0
  -25.0259  -33.9716   25.0565 H   0  0  0  0  0  0
  -22.7187  -31.3020   21.3893 H   0  0  0  0  0  0
  -23.3806  -35.9557   23.3154 H   0  0  0  0  0  0
  -24.3658  -36.8979   22.2070 H   0  0  0  0  0  0
  -23.7171  -37.6424   23.6692 H   0  0  0  0  0  0
  -26.0931  -31.5514   20.6065 H   0  0  0  0  0  0
  -26.8443  -30.8383   22.0012 H   0  0  0  0  0  0
  -28.1366  -29.0166   21.1596 H   0  0  0  0  0  0
  -26.0458  -25.9634   18.9370 H   0  0  0  0  0  0
  -24.0006  -27.2851   19.0071 H   0  0  0  0  0  0
  -23.7632  -30.5773   19.4058 H   0  0  0  0  0  0
  -22.7632  -29.2286   19.8583 H   0  0  0  0  0  0
  -25.1260  -36.1897   25.0835 H   0  0  0  0  0  0
  -20.9981  -28.3210   24.1405 H   0  0  0  0  0  0
  -20.5704  -26.2268   23.3573 H   0  0  0  0  0  0
  -21.6653  -26.7435   22.1145 H   0  0  0  0  0  0
  -19.6943  -25.6282   21.1210 H   0  0  0  0  0  0
  -19.6710  -27.3203   20.6764 H   0  0  0  0  0  0
  -17.4214  -26.6663   21.4011 H   0  0  0  0  0  0
  -18.0332  -26.0072   22.9005 H   0  0  0  0  0  0
  -19.7975  -30.7268   24.2211 H   0  0  0  0  0  0
  -17.5057  -31.6279   24.5144 H   0  0  0  0  0  0
  -15.5370  -30.2988   23.7729 H   0  0  0  0  0  0
  -15.8656  -28.0859   22.7008 H   0  0  0  0  0  0
  -24.5869  -30.7171   25.7923 H   0  0  0  0  0  0
  -24.9048  -32.2999   26.4953 H   0  0  0  0  0  0
  -25.8119  -30.8990   27.0269 H   0  0  0  0  0  0
  -26.2759  -29.6759   24.1192 H   0  0  0  0  0  0
  -27.3979  -29.7174   25.4591 H   0  0  0  0  0  0
  -27.8646  -30.4216   23.9297 H   0  0  0  0  0  0
  -27.2769  -33.3657   26.1905 H   0  0  0  0  0  0
  -28.3992  -32.6623   25.0322 H   0  0  0  0  0  0
  -28.0622  -31.8429   26.5469 H   0  0  0  0  0  0
  -28.2504  -38.0182   24.7625 H   0  0  0  0  0  0
  -28.1206  -36.2709   24.6068 H   0  0  0  0  0  0
  -27.2361  -37.1138   25.8851 H   0  0  0  0  0  0
  -20.9337  -29.8799   21.6933 H   0  0  0  0  0  0
  -26.0149  -38.2807   24.1551 H   0  0  0  0  0  0
  -31.8934  -19.7410   19.4540 H   0  0  0  0  0  0
  -31.8878  -17.3293   19.8662 H   0  0  0  0  0  0
  -27.6906  -17.5397   20.8250 H   0  0  0  0  0  0
  -30.4476  -21.7954   18.6596 H   0  0  0  0  0  0
  -28.8696  -22.4796   21.1621 H   0  0  0  0  0  0
  -26.4736  -19.5664   20.6734 H   0  0  0  0  0  0
  -27.0805  -20.6831   19.4489 H   0  0  0  0  0  0
  -27.4036  -20.9620   21.1619 H   0  0  0  0  0  0
  -29.7444  -24.2503   18.8061 H   0  0  0  0  0  0
  -30.4305  -24.5355   20.3809 H   0  0  0  0  0  0
  -28.1565  -24.9854   21.3446 H   0  0  0  0  0  0
  -27.4486  -24.6868   19.7863 H   0  0  0  0  0  0
  -28.8105  -15.4211   20.9809 H   0  0  0  0  0  0
  1 25  1  0  0  0
  1 30  2  0  0  0
  1 82  1  0  0  0
  2  3  1  0  0  0
  2 25  1  0  0  0
  2 83  1  0  0  0
  2 84  1  0  0  0
  3  4  1  0  0  0
  3 85  1  0  0  0
  3 86  1  0  0  0
  4  5  1  0  0  0
  4 87  1  0  0  0
  4 88  1  0  0  0
  5  6  1  0  0  0
  5 26  1  0  0  0
  5 89  1  0  0  0
  6 25  1  0  0  0
  6 90  1  0  0  0
  6 91  1  0  0  0
  7  8  2  0  0  0
  7 26  1  0  0  0
  7 29  1  0  0  0
  8  9  1  0  0  0
  8 22  1  0  0  0
  9 10  1  0  0  0
  9 27  2  0  0  0
 10 11  2  0  0  0
 10 15  1  0  0  0
 11 12  1  0  0  0
 11 92  1  0  0  0
 12 13  2  0  0  0
 12 93  1  0  0  0
 13 14  1  0  0  0
 13 31  1  0  0  0
 14 15  2  0  0  0
 14 94  1  0  0  0
 15 95  1  0  0  0
 16 17  2  0  0  0
 16 21  1  0  0  0
 16 31  1  0  0  0
 17 18  1  0  0  0
 17 96  1  0  0  0
 18 19  2  0  0  0
 18 97  1  0  0  0
 19 20  1  0  0  0
 19 24  1  0  0  0
 20 21  2  0  0  0
 20 98  1  0  0  0
 21 23  1  0  0  0
 22 28  1  0  0  0
 22 32  2  0  0  0
 26 27  1  0  0  0
 28 99  1  0  0  0
 28100  1  0  0  0
 29101  1  0  0  0
 29102  1  0  0  0
 33 34  1  0  0  0
 33 66  1  0  0  0
 33 70  2  0  0  0
 34 36  1  0  0  0
 34 59  1  0  0  0
 34103  1  0  0  0
 35 44  2  0  0  0
 35 45  1  0  0  0
 35 68  1  0  0  0
 36 56  1  0  0  0
 36104  1  0  0  0
 37 39  1  0  0  0
 37 47  1  0  0  0
 37 66  1  0  0  0
 37105  1  0  0  0
 38 43  2  0  0  0
 38 46  1  0  0  0
 38 47  1  0  0  0
 39 64  1  0  0  0
 39 67  2  0  0  0
 40 52  1  0  0  0
 40 53  2  0  0  0
 40 58  1  0  0  0
 41106  1  0  0  0
 41107  1  0  0  0
 41108  1  0  0  0
 41 48  1  0  0  0
 42 43  1  0  0  0
 42 66  1  0  0  0
 42109  1  0  0  0
 42110  1  0  0  0
 43 44  1  0  0  0
 44111  1  0  0  0
 45 46  2  0  0  0
 45112  1  0  0  0
 46113  1  0  0  0
 47114  1  0  0  0
 47115  1  0  0  0
 48 56  1  0  0  0
 48 65  1  0  0  0
 48116  1  0  0  0
 49 50  1  0  0  0
 49 53  1  0  0  0
 49 64  1  0  0  0
 49117  1  0  0  0
 50 51  1  0  0  0
 50118  1  0  0  0
 50119  1  0  0  0
 51 52  1  0  0  0
 51120  1  0  0  0
 51121  1  0  0  0
 52122  1  0  0  0
 52123  1  0  0  0
 53 54  1  0  0  0
 54 55  2  0  0  0
 54124  1  0  0  0
 55 57  1  0  0  0
 55125  1  0  0  0
 56 69  2  0  0  0
 57 58  2  0  0  0
 57126  1  0  0  0
 58127  1  0  0  0
 59 60  1  0  0  0
 59 61  1  0  0  0
 59 62  1  0  0  0
 60128  1  0  0  0
 60129  1  0  0  0
 60130  1  0  0  0
 61131  1  0  0  0
 61132  1  0  0  0
 61133  1  0  0  0
 62134  1  0  0  0
 62135  1  0  0  0
 62136  1  0  0  0
 63 65  1  0  0  0
 63137  1  0  0  0
 63138  1  0  0  0
 63139  1  0  0  0
 64140  1  0  0  0
 65141  1  0  0  0
 68 81  1  0  0  0
 71 72  2  0  0  0
 71 74  1  0  0  0
 71142  1  0  0  0
 72 76  1  0  0  0
 72143  1  0  0  0
 73 75  1  0  0  0
 73 76  2  0  0  0
 73144  1  0  0  0
 74 75  2  0  0  0
 74 77  1  0  0  0
 75 79  1  0  0  0
 76 82  1  0  0  0
 77 78  2  0  0  0
 77145  1  0  0  0
 78 80  1  0  0  0
 78146  1  0  0  0
 79147  1  0  0  0
 79148  1  0  0  0
 79149  1  0  0  0
 80 81  1  0  0  0
 80150  1  0  0  0
 80151  1  0  0  0
 81152  1  0  0  0
 81153  1  0  0  0
 82154  1  0  0  0
M  ISO  4   1 100  68 101  81 101  82 100
M  END
> <chiral flag>
0

> <version>
0

> <s_m_source_file>
/data/baiqing/PycharmProjects/Reinvent-master-3.2/result/LINK_invent/BTK/process_docking_weight1_custom_product_contain_oxygen_bond_distance_aromatic_linkinvent_7_9_3/rearranged_h_0123.sdf

> <i_m_source_file_index>
79

> <r_mmod_Potential_Energy-OPLS-2005>
71.1398239135742

> <r_mmod_Stretch_Energy-OPLS-2005>
77.5974044799805

> <r_mmod_Bend_Energy-OPLS-2005>
131.62223815918

> <r_mmod_Torsional_Energy-OPLS-2005>
235.424072265625

> <r_mmod_Improper_Torsional_Energy-OPLS-2005>
4.80853796005249

> <r_mmod_Van_der_Waal_Energy-OPLS-2005>
144.52473449707

> <r_mmod_Electrostatic_Energy-OPLS-2005>
-369.176666259766

> <r_mmod_Solvation_Energy-OPLS-2005>
-203.934066772461

> <b_mmod_Minimization_Converged-OPLS-2005>
0

> <r_mmod_RMS_Derivative-OPLS-2005>
5.17645502090454

$$$$
79
                    3D
 Structure written by MMmdl.
157165  0  0  1  0            999 V2000
  -30.6808  -14.5171   20.4799 C   0  0  0  0  0  0
  -30.4202  -12.2996   19.4266 C   0  0  0  0  0  0
  -29.4968  -12.4732   18.2032 C   0  0  0  0  0  0
  -28.0138  -12.3418   18.6087 C   0  0  0  0  0  0
  -27.6536  -13.2050   19.8479 C   0  0  2  0  0  0
  -28.7025  -13.0384   20.9727 C   0  0  0  0  0  0
  -25.2579  -13.8162   20.5662 C   0  0  0  0  0  0
  -24.1858  -13.0463   20.9233 C   0  0  0  0  0  0
  -24.6408  -11.6916   20.8754 C   0  0  0  0  0  0
  -23.9063  -10.4312   21.0393 C   0  0  0  0  0  0
  -24.3614   -9.4219   21.9153 C   0  0  0  0  0  0
  -23.6313   -8.2239   22.0722 C   0  0  0  0  0  0
  -22.4283   -8.0278   21.3527 C   0  0  0  0  0  0
  -21.9920   -9.0246   20.4613 C   0  0  0  0  0  0
  -22.7242  -10.2137   20.3036 C   0  0  0  0  0  0
  -21.6848   -6.0752   22.5291 C   0  0  0  0  0  0
  -21.4007   -6.5654   23.8228 C   0  0  0  0  0  0
  -21.3666   -5.6794   24.9183 C   0  0  0  0  0  0
  -21.6054   -4.3059   24.7225 C   0  0  0  0  0  0
  -21.8821   -3.8159   23.4348 C   0  0  0  0  0  0
  -21.9204   -4.6981   22.3411 C   0  0  0  0  0  0
  -22.7864  -13.5243   21.1866 C   0  0  0  0  0  0
  -22.1665   -4.2175   21.0977 F   0  0  0  0  0  0
  -21.5631   -3.4538   25.7731 F   0  0  0  0  0  0
  -30.0245  -13.3249   20.3997 N   0  0  0  0  0  0
  -26.2983  -12.9328   20.3223 N   0  0  0  0  0  0
  -25.9321  -11.6500   20.5723 N   0  0  0  0  0  0
  -22.0503  -12.8235   22.0404 N   0  0  0  0  0  0
  -25.4288  -15.1887   20.4014 N   0  0  0  0  0  0
  -31.8610  -14.6398   20.1476 O   0  0  0  0  0  0
  -21.6644   -6.8883   21.4239 O   0  0  0  0  0  0
  -22.3549  -14.5555   20.6705 O   0  0  0  0  0  0
  -24.6183  -31.8598   23.1946 C   0  0  0  0  0  0
  -25.9044  -32.4755   23.8271 C   0  0  1  0  0  0
  -27.2805  -27.4034   20.0901 C   0  0  0  0  0  0
  -25.5845  -33.8542   24.2232 N   0  0  0  0  0  0
  -23.4120  -30.4746   21.5342 C   0  0  2  0  0  0
  -24.8711  -28.9243   20.1110 C   0  0  0  0  0  0
  -22.7425  -29.4596   22.4895 C   0  0  0  0  0  0
  -18.0275  -28.1349   22.8470 C   0  0  0  0  0  0
  -24.1498  -36.7301   23.2654 C   0  0  0  0  0  0
  -25.9427  -30.8171   21.3459 C   0  0  0  0  0  0
  -26.0271  -29.4437   20.7029 C   0  0  0  0  0  0
  -27.2263  -28.6900   20.6878 C   0  0  0  0  0  0
  -26.0967  -26.8955   19.5075 C   0  0  0  0  0  0
  -24.9029  -27.6505   19.5118 C   0  0  0  0  0  0
  -23.6259  -29.7864   20.1566 C   0  0  0  0  0  0
  -25.4122  -36.3064   24.0356 C   0  0  1  0  0  0
  -20.5875  -28.3630   23.1281 C   0  0  2  0  0  0
  -20.6765  -26.9335   22.5426 C   0  0  0  0  0  0
  -19.5744  -26.6340   21.5221 C   0  0  0  0  0  0
  -18.1904  -26.7882   22.1617 C   0  0  0  0  0  0
  -19.1525  -28.8805   23.2868 C   0  0  0  0  0  0
  -18.9467  -30.1414   23.8855 C   0  0  0  0  0  0
  -17.6465  -30.6554   24.0533 C   0  0  0  0  0  0
  -25.9059  -34.9431   23.5129 C   0  0  0  0  0  0
  -16.5350  -29.9072   23.6322 C   0  0  0  0  0  0
  -16.7261  -28.6510   23.0317 C   0  0  0  0  0  0
  -26.4472  -31.6548   25.0593 C   0  0  0  0  0  0
  -25.3756  -31.3655   26.1357 C   0  0  0  0  0  0
  -27.0338  -30.3007   24.5956 C   0  0  0  0  0  0
  -27.6009  -32.4318   25.7335 C   0  0  0  0  0  0
  -27.5578  -37.1801   24.8465 C   0  0  0  0  0  0
  -21.4142  -29.3001   22.3674 N   0  0  0  0  0  0
  -26.4291  -37.3772   23.9430 N   0  0  0  0  0  0
  -24.6755  -31.0678   22.0840 N   0  0  0  0  0  0
  -23.4188  -28.8147   23.2948 O   0  0  0  0  0  0
  -28.4910  -26.7168   20.1152 O   0  0  0  0  0  0
  -26.5657  -34.8899   22.4705 O   0  0  0  0  0  0
  -23.5380  -32.1336   23.7360 O   0  0  0  0  0  0
  -30.7359  -19.7754   21.1183 C   0  0  0  0  0  0
  -29.2089  -17.9683   20.5739 C   0  0  0  0  0  0
  -31.4895  -17.4432   21.2145 C   0  0  0  0  0  0
  -29.4467  -19.3681   20.7188 C   0  0  0  0  0  0
  -31.7456  -18.8222   21.3790 C   0  0  0  0  0  0
  -30.2139  -16.9909   20.8089 C   0  0  0  0  0  0
  -28.3154  -20.3098   20.4523 C   0  0  0  0  0  0
  -28.1688  -21.6456   20.2237 C   0  0  0  0  0  0
  -33.1145  -19.2773   21.8429 C   0  0  0  0  0  0
  -29.1441  -22.8240   20.0715 C   0  0  0  0  0  0
  -28.5574  -24.2167   20.5162 C   0  0  0  0  0  0
  -28.7015  -25.4110   19.5168 C   0  0  0  0  0  0
  -29.8792  -15.5914   20.6836 N   0  0  0  0  0  0
  -31.4657  -12.3848   19.1271 H   0  0  0  0  0  0
  -30.3151  -11.3033   19.8635 H   0  0  0  0  0  0
  -29.7433  -11.7365   17.4374 H   0  0  0  0  0  0
  -29.6645  -13.4529   17.7540 H   0  0  0  0  0  0
  -27.8159  -11.2903   18.8186 H   0  0  0  0  0  0
  -27.3748  -12.6072   17.7646 H   0  0  0  0  0  0
  -27.6809  -14.2382   19.5005 H   0  0  0  0  0  0
  -28.6831  -12.0238   21.3757 H   0  0  0  0  0  0
  -28.4802  -13.7010   21.8100 H   0  0  0  0  0  0
  -25.2757   -9.5732   22.4720 H   0  0  0  0  0  0
  -24.0049   -7.4650   22.7453 H   0  0  0  0  0  0
  -21.0854   -8.8780   19.8916 H   0  0  0  0  0  0
  -22.3694  -10.9678   19.6150 H   0  0  0  0  0  0
  -21.1973   -7.6149   23.9752 H   0  0  0  0  0  0
  -21.1474   -6.0502   25.9095 H   0  0  0  0  0  0
  -22.0587   -2.7627   23.2840 H   0  0  0  0  0  0
  -22.4110  -11.9901   22.4804 H   0  0  0  0  0  0
  -21.1085  -13.1189   22.2543 H   0  0  0  0  0  0
  -24.6638  -15.8421   20.5318 H   0  0  0  0  0  0
  -26.2501  -15.6219   20.0018 H   0  0  0  0  0  0
  -26.7109  -32.5443   23.1025 H   0  0  0  0  0  0
  -24.9753  -33.9637   25.0210 H   0  0  0  0  0  0
  -22.7056  -31.2925   21.3820 H   0  0  0  0  0  0
  -23.3719  -35.9665   23.3302 H   0  0  0  0  0  0
  -24.3537  -36.8933   22.2055 H   0  0  0  0  0  0
  -23.7330  -37.6541   23.6678 H   0  0  0  0  0  0
  -26.0559  -31.5720   20.5651 H   0  0  0  0  0  0
  -26.8318  -30.8766   21.9628 H   0  0  0  0  0  0
  -28.1199  -29.0941   21.1439 H   0  0  0  0  0  0
  -26.0776  -25.9127   19.0585 H   0  0  0  0  0  0
  -24.0138  -27.2316   19.0619 H   0  0  0  0  0  0
  -23.7230  -30.5538   19.3865 H   0  0  0  0  0  0
  -22.7583  -29.1871   19.8690 H   0  0  0  0  0  0
  -25.1310  -36.1884   25.0857 H   0  0  0  0  0  0
  -20.9960  -28.3196   24.1410 H   0  0  0  0  0  0
  -20.5686  -26.2199   23.3616 H   0  0  0  0  0  0
  -21.6624  -26.7349   22.1192 H   0  0  0  0  0  0
  -19.6887  -25.6276   21.1199 H   0  0  0  0  0  0
  -19.6701  -27.3182   20.6776 H   0  0  0  0  0  0
  -17.4188  -26.6618   21.4001 H   0  0  0  0  0  0
  -18.0288  -26.0031   22.9021 H   0  0  0  0  0  0
  -19.7964  -30.7221   24.2190 H   0  0  0  0  0  0
  -17.5056  -31.6244   24.5119 H   0  0  0  0  0  0
  -15.5362  -30.2968   23.7704 H   0  0  0  0  0  0
  -15.8642  -28.0856   22.7004 H   0  0  0  0  0  0
  -24.5902  -30.7032   25.7724 H   0  0  0  0  0  0
  -24.8951  -32.2791   26.4843 H   0  0  0  0  0  0
  -25.8123  -30.8809   27.0091 H   0  0  0  0  0  0
  -26.2886  -29.6679   24.1131 H   0  0  0  0  0  0
  -27.4266  -29.7324   25.4390 H   0  0  0  0  0  0
  -27.8604  -30.4303   23.8956 H   0  0  0  0  0  0
  -27.2584  -33.3629   26.1859 H   0  0  0  0  0  0
  -28.3792  -32.6874   25.0146 H   0  0  0  0  0  0
  -28.0669  -31.8476   26.5271 H   0  0  0  0  0  0
  -28.2599  -38.0095   24.7495 H   0  0  0  0  0  0
  -28.1067  -36.2618   24.6296 H   0  0  0  0  0  0
  -27.2256  -37.1460   25.8856 H   0  0  0  0  0  0
  -20.9317  -29.8695   21.6857 H   0  0  0  0  0  0
  -26.0157  -38.2839   24.1448 H   0  0  0  0  0  0
  -30.9561  -20.8197   21.2691 H   0  0  0  0  0  0
  -28.2294  -17.6351   20.2687 H   0  0  0  0  0  0
  -32.2841  -16.7415   21.4230 H   0  0  0  0  0  0
  -27.3666  -19.7887   20.4531 H   0  0  0  0  0  0
  -27.1406  -21.9479   20.0815 H   0  0  0  0  0  0
  -33.0921  -20.3082   22.2022 H   0  0  0  0  0  0
  -33.8217  -19.2164   21.0157 H   0  0  0  0  0  0
  -33.4792  -18.6501   22.6571 H   0  0  0  0  0  0
  -30.0692  -22.6258   20.6058 H   0  0  0  0  0  0
  -29.4055  -22.8759   19.0140 H   0  0  0  0  0  0
  -29.0491  -24.4954   21.4495 H   0  0  0  0  0  0
  -27.4989  -24.1226   20.7558 H   0  0  0  0  0  0
  -29.7331  -25.4181   19.1575 H   0  0  0  0  0  0
  -28.1099  -25.2581   18.6161 H   0  0  0  0  0  0
  -28.8954  -15.3714   20.6940 H   0  0  0  0  0  0
  1 25  1  0  0  0
  1 30  2  0  0  0
  1 83  1  0  0  0
  2  3  1  0  0  0
  2 25  1  0  0  0
  2 84  1  0  0  0
  2 85  1  0  0  0
  3  4  1  0  0  0
  3 86  1  0  0  0
  3 87  1  0  0  0
  4  5  1  0  0  0
  4 88  1  0  0  0
  4 89  1  0  0  0
  5  6  1  0  0  0
  5 26  1  0  0  0
  5 90  1  0  0  0
  6 25  1  0  0  0
  6 91  1  0  0  0
  6 92  1  0  0  0
  7  8  2  0  0  0
  7 26  1  0  0  0
  7 29  1  0  0  0
  8  9  1  0  0  0
  8 22  1  0  0  0
  9 10  1  0  0  0
  9 27  2  0  0  0
 10 11  2  0  0  0
 10 15  1  0  0  0
 11 12  1  0  0  0
 11 93  1  0  0  0
 12 13  2  0  0  0
 12 94  1  0  0  0
 13 14  1  0  0  0
 13 31  1  0  0  0
 14 15  2  0  0  0
 14 95  1  0  0  0
 15 96  1  0  0  0
 16 17  2  0  0  0
 16 21  1  0  0  0
 16 31  1  0  0  0
 17 18  1  0  0  0
 17 97  1  0  0  0
 18 19  2  0  0  0
 18 98  1  0  0  0
 19 20  1  0  0  0
 19 24  1  0  0  0
 20 21  2  0  0  0
 20 99  1  0  0  0
 21 23  1  0  0  0
 22 28  1  0  0  0
 22 32  2  0  0  0
 26 27  1  0  0  0
 28100  1  0  0  0
 28101  1  0  0  0
 29102  1  0  0  0
 29103  1  0  0  0
 33 34  1  0  0  0
 33 66  1  0  0  0
 33 70  2  0  0  0
 34 36  1  0  0  0
 34 59  1  0  0  0
 34104  1  0  0  0
 35 44  2  0  0  0
 35 45  1  0  0  0
 35 68  1  0  0  0
 36 56  1  0  0  0
 36105  1  0  0  0
 37 39  1  0  0  0
 37 47  1  0  0  0
 37 66  1  0  0  0
 37106  1  0  0  0
 38 43  2  0  0  0
 38 46  1  0  0  0
 38 47  1  0  0  0
 39 64  1  0  0  0
 39 67  2  0  0  0
 40 52  1  0  0  0
 40 53  2  0  0  0
 40 58  1  0  0  0
 41107  1  0  0  0
 41108  1  0  0  0
 41109  1  0  0  0
 41 48  1  0  0  0
 42 43  1  0  0  0
 42 66  1  0  0  0
 42110  1  0  0  0
 42111  1  0  0  0
 43 44  1  0  0  0
 44112  1  0  0  0
 45 46  2  0  0  0
 45113  1  0  0  0
 46114  1  0  0  0
 47115  1  0  0  0
 47116  1  0  0  0
 48 56  1  0  0  0
 48 65  1  0  0  0
 48117  1  0  0  0
 49 50  1  0  0  0
 49 53  1  0  0  0
 49 64  1  0  0  0
 49118  1  0  0  0
 50 51  1  0  0  0
 50119  1  0  0  0
 50120  1  0  0  0
 51 52  1  0  0  0
 51121  1  0  0  0
 51122  1  0  0  0
 52123  1  0  0  0
 52124  1  0  0  0
 53 54  1  0  0  0
 54 55  2  0  0  0
 54125  1  0  0  0
 55 57  1  0  0  0
 55126  1  0  0  0
 56 69  2  0  0  0
 57 58  2  0  0  0
 57127  1  0  0  0
 58128  1  0  0  0
 59 60  1  0  0  0
 59 61  1  0  0  0
 59 62  1  0  0  0
 60129  1  0  0  0
 60130  1  0  0  0
 60131  1  0  0  0
 61132  1  0  0  0
 61133  1  0  0  0
 61134  1  0  0  0
 62135  1  0  0  0
 62136  1  0  0  0
 62137  1  0  0  0
 63 65  1  0  0  0
 63138  1  0  0  0
 63139  1  0  0  0
 63140  1  0  0  0
 64141  1  0  0  0
 65142  1  0  0  0
 68 82  1  0  0  0
 71 74  2  0  0  0
 71 75  1  0  0  0
 71143  1  0  0  0
 72 74  1  0  0  0
 72 76  2  0  0  0
 72144  1  0  0  0
 73 75  2  0  0  0
 73 76  1  0  0  0
 73145  1  0  0  0
 74 77  1  0  0  0
 75 79  1  0  0  0
 76 83  1  0  0  0
 77 78  2  0  0  0
 77146  1  0  0  0
 78 80  1  0  0  0
 78147  1  0  0  0
 79148  1  0  0  0
 79149  1  0  0  0
 79150  1  0  0  0
 80 81  1  0  0  0
 80151  1  0  0  0
 80152  1  0  0  0
 81 82  1  0  0  0
 81153  1  0  0  0
 81154  1  0  0  0
 82155  1  0  0  0
 82156  1  0  0  0
 83157  1  0  0  0
M  ISO  4   1 100  68 101  82 101  83 100
M  END
> <chiral flag>
0

> <version>
0

> <s_m_source_file>
/data/baiqing/PycharmProjects/Reinvent-master-3.2/result/LINK_invent/BTK/process_docking_weight1_custom_product_contain_oxygen_bond_distance_aromatic_linkinvent_7_9_3/rearranged_h_0123.sdf

> <i_m_source_file_index>
80

> <r_mmod_Potential_Energy-OPLS-2005>
45.8922233581543

> <r_mmod_Stretch_Energy-OPLS-2005>
49.5810089111328

> <r_mmod_Bend_Energy-OPLS-2005>
146.673873901367

> <r_mmod_Torsional_Energy-OPLS-2005>
220.816741943359

> <r_mmod_Improper_Torsional_Energy-OPLS-2005>
6.86763572692871

> <r_mmod_Van_der_Waal_Energy-OPLS-2005>
146.279846191406

> <r_mmod_Electrostatic_Energy-OPLS-2005>
-344.738891601562

> <r_mmod_Solvation_Energy-OPLS-2005>
-203.217987060547

> <b_mmod_Minimization_Converged-OPLS-2005>
0

> <r_mmod_RMS_Derivative-OPLS-2005>
4.87523412704468

$$$$
80
                    3D
 Structure written by MMmdl.
149157  0  0  1  0            999 V2000
  -30.7177  -14.5286   20.5339 C   0  0  0  0  0  0
  -30.4116  -12.3263   19.4538 C   0  0  0  0  0  0
  -29.5004  -12.4971   18.2219 C   0  0  0  0  0  0
  -28.0208  -12.3561   18.6271 C   0  0  0  0  0  0
  -27.6525  -13.2229   19.8615 C   0  0  2  0  0  0
  -28.6930  -13.0775   20.9929 C   0  0  0  0  0  0
  -25.2552  -13.8195   20.5687 C   0  0  0  0  0  0
  -24.1820  -13.0449   20.9176 C   0  0  0  0  0  0
  -24.6395  -11.6922   20.8729 C   0  0  0  0  0  0
  -23.9069  -10.4300   21.0398 C   0  0  0  0  0  0
  -24.3620   -9.4216   21.9178 C   0  0  0  0  0  0
  -23.6295   -8.2251   22.0753 C   0  0  0  0  0  0
  -22.4276   -8.0286   21.3545 C   0  0  0  0  0  0
  -21.9911   -9.0259   20.4647 C   0  0  0  0  0  0
  -22.7239  -10.2138   20.3052 C   0  0  0  0  0  0
  -21.6856   -6.0737   22.5278 C   0  0  0  0  0  0
  -21.4017   -6.5640   23.8211 C   0  0  0  0  0  0
  -21.3661   -5.6792   24.9172 C   0  0  0  0  0  0
  -21.6044   -4.3055   24.7223 C   0  0  0  0  0  0
  -21.8819   -3.8147   23.4344 C   0  0  0  0  0  0
  -21.9195   -4.6965   22.3400 C   0  0  0  0  0  0
  -22.7843  -13.5235   21.1847 C   0  0  0  0  0  0
  -22.1663   -4.2149   21.0978 F   0  0  0  0  0  0
  -21.5629   -3.4539   25.7736 F   0  0  0  0  0  0
  -30.0221  -13.3572   20.4338 N   0  0  0  0  0  0
  -26.2986  -12.9392   20.3317 N   0  0  0  0  0  0
  -25.9324  -11.6535   20.5744 N   0  0  0  0  0  0
  -22.0494  -12.8224   22.0409 N   0  0  0  0  0  0
  -25.4270  -15.1917   20.4129 N   0  0  0  0  0  0
  -31.8698  -14.6054   20.1033 O   0  0  0  0  0  0
  -21.6643   -6.8880   21.4240 O   0  0  0  0  0  0
  -22.3521  -14.5540   20.6701 O   0  0  0  0  0  0
  -24.6198  -31.8655   23.2091 C   0  0  0  0  0  0
  -25.9075  -32.4809   23.8392 C   0  0  1  0  0  0
  -27.2191  -27.3821   20.1015 C   0  0  0  0  0  0
  -25.5916  -33.8609   24.2319 N   0  0  0  0  0  0
  -23.4089  -30.4925   21.5509 C   0  0  2  0  0  0
  -24.8520  -28.9604   20.1099 C   0  0  0  0  0  0
  -22.7437  -29.4654   22.4967 C   0  0  0  0  0  0
  -18.0279  -28.1380   22.8491 C   0  0  0  0  0  0
  -24.1488  -36.7309   23.2639 C   0  0  0  0  0  0
  -25.9448  -30.8155   21.3712 C   0  0  0  0  0  0
  -26.0179  -29.4493   20.7122 C   0  0  0  0  0  0
  -27.2042  -28.6693   20.7031 C   0  0  0  0  0  0
  -26.0321  -26.9356   19.4716 C   0  0  0  0  0  0
  -24.8575  -27.7059   19.4837 C   0  0  0  0  0  0
  -23.6180  -29.8328   20.1633 C   0  0  0  0  0  0
  -25.4111  -36.3104   24.0335 C   0  0  1  0  0  0
  -20.5873  -28.3674   23.1302 C   0  0  2  0  0  0
  -20.6770  -26.9406   22.5412 C   0  0  0  0  0  0
  -19.5746  -26.6385   21.5213 C   0  0  0  0  0  0
  -18.1925  -26.7926   22.1625 C   0  0  0  0  0  0
  -19.1529  -28.8844   23.2894 C   0  0  0  0  0  0
  -18.9455  -30.1449   23.8907 C   0  0  0  0  0  0
  -17.6456  -30.6586   24.0565 C   0  0  0  0  0  0
  -25.9041  -34.9469   23.5123 C   0  0  0  0  0  0
  -16.5347  -29.9087   23.6327 C   0  0  0  0  0  0
  -16.7267  -28.6503   23.0349 C   0  0  0  0  0  0
  -26.4485  -31.6599   25.0735 C   0  0  0  0  0  0
  -25.3738  -31.3713   26.1475 C   0  0  0  0  0  0
  -27.0322  -30.3034   24.6144 C   0  0  0  0  0  0
  -27.6055  -32.4325   25.7496 C   0  0  0  0  0  0
  -27.5580  -37.1810   24.8466 C   0  0  0  0  0  0
  -21.4159  -29.3039   22.3706 N   0  0  0  0  0  0
  -26.4296  -37.3789   23.9406 N   0  0  0  0  0  0
  -24.6764  -31.0725   22.1013 N   0  0  0  0  0  0
  -23.4193  -28.8187   23.3015 O   0  0  0  0  0  0
  -28.3567  -26.5805   20.1560 O   0  0  0  0  0  0
  -26.5602  -34.8923   22.4683 O   0  0  0  0  0  0
  -23.5379  -32.1429   23.7461 O   0  0  0  0  0  0
  -29.5894  -19.0206   20.9754 C   0  0  0  0  0  0
  -28.9711  -19.8409   18.9870 C   0  0  0  0  0  0
  -29.2656  -20.2271   20.2623 C   0  0  0  0  0  0
  -29.5298  -17.9821   20.0664 C   0  0  0  0  0  0
  -29.3193  -21.6370   20.7578 C   0  0  0  0  0  0
  -29.8640  -16.5422   19.9979 C   0  0  0  0  0  0
  -29.1950  -22.7556   19.9946 C   0  0  0  0  0  0
  -29.3029  -24.2238   20.4591 C   0  0  0  0  0  0
  -28.1776  -25.1546   19.9186 C   0  0  0  0  0  0
  -30.0215  -15.6759   20.9424 N   0  0  0  0  0  0
  -29.1271  -18.4910   18.8584 O   0  0  0  0  0  0
  -31.4605  -12.3879   19.1590 H   0  0  0  0  0  0
  -30.2871  -11.3323   19.8868 H   0  0  0  0  0  0
  -29.7509  -11.7560   17.4618 H   0  0  0  0  0  0
  -29.6695  -13.4742   17.7666 H   0  0  0  0  0  0
  -27.8395  -11.3033   18.8466 H   0  0  0  0  0  0
  -27.3734  -12.6054   17.7857 H   0  0  0  0  0  0
  -27.6760  -14.2605   19.5286 H   0  0  0  0  0  0
  -28.6710  -12.0693   21.4089 H   0  0  0  0  0  0
  -28.4571  -13.7498   21.8194 H   0  0  0  0  0  0
  -25.2766   -9.5693   22.4749 H   0  0  0  0  0  0
  -24.0008   -7.4643   22.7471 H   0  0  0  0  0  0
  -21.0843   -8.8777   19.8952 H   0  0  0  0  0  0
  -22.3697  -10.9676   19.6160 H   0  0  0  0  0  0
  -21.2010   -7.6148   23.9714 H   0  0  0  0  0  0
  -21.1483   -6.0522   25.9076 H   0  0  0  0  0  0
  -22.0598   -2.7609   23.2843 H   0  0  0  0  0  0
  -22.4119  -11.9886   22.4791 H   0  0  0  0  0  0
  -21.1114  -13.1247   22.2624 H   0  0  0  0  0  0
  -24.6690  -15.8540   20.5370 H   0  0  0  0  0  0
  -26.2967  -15.6299   20.1367 H   0  0  0  0  0  0
  -26.7141  -32.5499   23.1146 H   0  0  0  0  0  0
  -25.0070  -33.9767   25.0467 H   0  0  0  0  0  0
  -22.6998  -31.3116   21.4145 H   0  0  0  0  0  0
  -23.3747  -35.9646   23.3312 H   0  0  0  0  0  0
  -24.3581  -36.8915   22.2051 H   0  0  0  0  0  0
  -23.7244  -37.6519   23.6647 H   0  0  0  0  0  0
  -26.0686  -31.5827   20.6056 H   0  0  0  0  0  0
  -26.8287  -30.8622   21.9956 H   0  0  0  0  0  0
  -28.0995  -29.0386   21.1834 H   0  0  0  0  0  0
  -25.9809  -25.9825   18.9666 H   0  0  0  0  0  0
  -23.9639  -27.3276   19.0065 H   0  0  0  0  0  0
  -23.7312  -30.6119   19.4086 H   0  0  0  0  0  0
  -22.7392  -29.2591   19.8630 H   0  0  0  0  0  0
  -25.1288  -36.1968   25.0828 H   0  0  0  0  0  0
  -20.9967  -28.3242   24.1422 H   0  0  0  0  0  0
  -20.5677  -26.2282   23.3603 H   0  0  0  0  0  0
  -21.6638  -26.7448   22.1201 H   0  0  0  0  0  0
  -19.6907  -25.6299   21.1235 H   0  0  0  0  0  0
  -19.6683  -27.3202   20.6747 H   0  0  0  0  0  0
  -17.4195  -26.6675   21.4028 H   0  0  0  0  0  0
  -18.0328  -26.0066   22.9020 H   0  0  0  0  0  0
  -19.7931  -30.7264   24.2279 H   0  0  0  0  0  0
  -17.5011  -31.6266   24.5166 H   0  0  0  0  0  0
  -15.5348  -30.2991   23.7647 H   0  0  0  0  0  0
  -15.8667  -28.0826   22.7058 H   0  0  0  0  0  0
  -24.5910  -30.7064   25.7807 H   0  0  0  0  0  0
  -24.8933  -32.2871   26.4927 H   0  0  0  0  0  0
  -25.8083  -30.8875   27.0232 H   0  0  0  0  0  0
  -26.2879  -29.6791   24.1186 H   0  0  0  0  0  0
  -27.4064  -29.7279   25.4621 H   0  0  0  0  0  0
  -27.8729  -30.4343   23.9327 H   0  0  0  0  0  0
  -27.2671  -33.3616   26.2096 H   0  0  0  0  0  0
  -28.3850  -32.6902   25.0314 H   0  0  0  0  0  0
  -28.0740  -31.8438   26.5394 H   0  0  0  0  0  0
  -28.2606  -38.0100   24.7506 H   0  0  0  0  0  0
  -28.1068  -36.2631   24.6301 H   0  0  0  0  0  0
  -27.2297  -37.1474   25.8869 H   0  0  0  0  0  0
  -20.9323  -29.8772   21.6934 H   0  0  0  0  0  0
  -26.0185  -38.2869   24.1400 H   0  0  0  0  0  0
  -29.9032  -18.9263   22.0051 H   0  0  0  0  0  0
  -28.6838  -20.3647   18.0853 H   0  0  0  0  0  0
  -29.4829  -21.7540   21.8203 H   0  0  0  0  0  0
  -30.0375  -16.2325   18.9598 H   0  0  0  0  0  0
  -29.0299  -22.6382   18.9328 H   0  0  0  0  0  0
  -30.2641  -24.6026   20.1106 H   0  0  0  0  0  0
  -29.3320  -24.2650   21.5485 H   0  0  0  0  0  0
  -27.2497  -24.8084   20.3775 H   0  0  0  0  0  0
  -28.0804  -25.0034   18.8424 H   0  0  0  0  0  0
  1 25  1  0  0  0
  1 30  2  0  0  0
  1 80  1  0  0  0
  2  3  1  0  0  0
  2 25  1  0  0  0
  2 82  1  0  0  0
  2 83  1  0  0  0
  3  4  1  0  0  0
  3 84  1  0  0  0
  3 85  1  0  0  0
  4  5  1  0  0  0
  4 86  1  0  0  0
  4 87  1  0  0  0
  5  6  1  0  0  0
  5 26  1  0  0  0
  5 88  1  0  0  0
  6 25  1  0  0  0
  6 89  1  0  0  0
  6 90  1  0  0  0
  7  8  2  0  0  0
  7 26  1  0  0  0
  7 29  1  0  0  0
  8  9  1  0  0  0
  8 22  1  0  0  0
  9 10  1  0  0  0
  9 27  2  0  0  0
 10 11  2  0  0  0
 10 15  1  0  0  0
 11 12  1  0  0  0
 11 91  1  0  0  0
 12 13  2  0  0  0
 12 92  1  0  0  0
 13 14  1  0  0  0
 13 31  1  0  0  0
 14 15  2  0  0  0
 14 93  1  0  0  0
 15 94  1  0  0  0
 16 17  2  0  0  0
 16 21  1  0  0  0
 16 31  1  0  0  0
 17 18  1  0  0  0
 17 95  1  0  0  0
 18 19  2  0  0  0
 18 96  1  0  0  0
 19 20  1  0  0  0
 19 24  1  0  0  0
 20 21  2  0  0  0
 20 97  1  0  0  0
 21 23  1  0  0  0
 22 28  1  0  0  0
 22 32  2  0  0  0
 26 27  1  0  0  0
 28 98  1  0  0  0
 28 99  1  0  0  0
 29100  1  0  0  0
 29101  1  0  0  0
 33 34  1  0  0  0
 33 66  1  0  0  0
 33 70  2  0  0  0
 34 36  1  0  0  0
 34 59  1  0  0  0
 34102  1  0  0  0
 35 44  2  0  0  0
 35 45  1  0  0  0
 35 68  1  0  0  0
 36 56  1  0  0  0
 36103  1  0  0  0
 37 39  1  0  0  0
 37 47  1  0  0  0
 37 66  1  0  0  0
 37104  1  0  0  0
 38 43  2  0  0  0
 38 46  1  0  0  0
 38 47  1  0  0  0
 39 64  1  0  0  0
 39 67  2  0  0  0
 40 52  1  0  0  0
 40 53  2  0  0  0
 40 58  1  0  0  0
 41105  1  0  0  0
 41106  1  0  0  0
 41107  1  0  0  0
 41 48  1  0  0  0
 42 43  1  0  0  0
 42 66  1  0  0  0
 42108  1  0  0  0
 42109  1  0  0  0
 43 44  1  0  0  0
 44110  1  0  0  0
 45 46  2  0  0  0
 45111  1  0  0  0
 46112  1  0  0  0
 47113  1  0  0  0
 47114  1  0  0  0
 48 56  1  0  0  0
 48 65  1  0  0  0
 48115  1  0  0  0
 49 50  1  0  0  0
 49 53  1  0  0  0
 49 64  1  0  0  0
 49116  1  0  0  0
 50 51  1  0  0  0
 50117  1  0  0  0
 50118  1  0  0  0
 51 52  1  0  0  0
 51119  1  0  0  0
 51120  1  0  0  0
 52121  1  0  0  0
 52122  1  0  0  0
 53 54  1  0  0  0
 54 55  2  0  0  0
 54123  1  0  0  0
 55 57  1  0  0  0
 55124  1  0  0  0
 56 69  2  0  0  0
 57 58  2  0  0  0
 57125  1  0  0  0
 58126  1  0  0  0
 59 60  1  0  0  0
 59 61  1  0  0  0
 59 62  1  0  0  0
 60127  1  0  0  0
 60128  1  0  0  0
 60129  1  0  0  0
 61130  1  0  0  0
 61131  1  0  0  0
 61132  1  0  0  0
 62133  1  0  0  0
 62134  1  0  0  0
 62135  1  0  0  0
 63 65  1  0  0  0
 63136  1  0  0  0
 63137  1  0  0  0
 63138  1  0  0  0
 64139  1  0  0  0
 65140  1  0  0  0
 68 79  1  0  0  0
 71 73  1  0  0  0
 71 74  2  0  0  0
 71141  1  0  0  0
 72 73  2  0  0  0
 72 81  1  0  0  0
 72142  1  0  0  0
 73 75  1  0  0  0
 74 76  1  0  0  0
 74 81  1  0  0  0
 75 77  2  0  0  0
 75143  1  0  0  0
 76 80  2  0  0  0
 76144  1  0  0  0
 77 78  1  0  0  0
 77145  1  0  0  0
 78 79  1  0  0  0
 78146  1  0  0  0
 78147  1  0  0  0
 79148  1  0  0  0
 79149  1  0  0  0
M  ISO  4   1 100  68 101  79 101  80 100
M  END
> <chiral flag>
0

> <version>
0

> <s_m_source_file>
/data/baiqing/PycharmProjects/Reinvent-master-3.2/result/LINK_invent/BTK/process_docking_weight1_custom_product_contain_oxygen_bond_distance_aromatic_linkinvent_7_9_3/rearranged_h_0123.sdf

> <i_m_source_file_index>
81

> <r_mmod_Potential_Energy-OPLS-2005>
-9.02713489532471

> <r_mmod_Stretch_Energy-OPLS-2005>
47.1223754882812

> <r_mmod_Bend_Energy-OPLS-2005>
107.626197814941

> <r_mmod_Torsional_Energy-OPLS-2005>
177.501358032227

> <r_mmod_Improper_Torsional_Energy-OPLS-2005>
4.99981498718262

> <r_mmod_Van_der_Waal_Energy-OPLS-2005>
139.168045043945

> <r_mmod_Electrostatic_Energy-OPLS-2005>
-326.943878173828

> <r_mmod_Solvation_Energy-OPLS-2005>
-185.010513305664

> <b_mmod_Minimization_Converged-OPLS-2005>
0

> <r_mmod_RMS_Derivative-OPLS-2005>
0.25595834851265

$$$$
81
                    3D
 Structure written by MMmdl.
164172  0  0  1  0            999 V2000
  -30.7249  -14.3836   20.5796 C   0  0  0  0  0  0
  -30.4080  -12.2501   19.4089 C   0  0  0  0  0  0
  -29.4917  -12.5091   18.1966 C   0  0  0  0  0  0
  -28.0074  -12.3925   18.6008 C   0  0  0  0  0  0
  -27.6654  -13.2049   19.8800 C   0  0  2  0  0  0
  -28.7013  -12.9396   20.9952 C   0  0  0  0  0  0
  -25.2595  -13.8162   20.5669 C   0  0  0  0  0  0
  -24.1840  -13.0441   20.9163 C   0  0  0  0  0  0
  -24.6391  -11.6902   20.8712 C   0  0  0  0  0  0
  -23.9058  -10.4289   21.0383 C   0  0  0  0  0  0
  -24.3615   -9.4215   21.9163 C   0  0  0  0  0  0
  -23.6297   -8.2251   22.0744 C   0  0  0  0  0  0
  -22.4273   -8.0281   21.3544 C   0  0  0  0  0  0
  -21.9902   -9.0247   20.4641 C   0  0  0  0  0  0
  -22.7228  -10.2129   20.3038 C   0  0  0  0  0  0
  -21.6855   -6.0734   22.5284 C   0  0  0  0  0  0
  -21.4016   -6.5640   23.8218 C   0  0  0  0  0  0
  -21.3657   -5.6791   24.9177 C   0  0  0  0  0  0
  -21.6045   -4.3056   24.7225 C   0  0  0  0  0  0
  -21.8818   -3.8148   23.4348 C   0  0  0  0  0  0
  -21.9198   -4.6962   22.3405 C   0  0  0  0  0  0
  -22.7865  -13.5238   21.1845 C   0  0  0  0  0  0
  -22.1667   -4.2151   21.0982 F   0  0  0  0  0  0
  -21.5624   -3.4532   25.7740 F   0  0  0  0  0  0
  -30.0429  -13.2176   20.4531 N   0  0  0  0  0  0
  -26.3036  -12.9336   20.3363 N   0  0  0  0  0  0
  -25.9318  -11.6488   20.5723 N   0  0  0  0  0  0
  -22.0514  -12.8218   22.0402 N   0  0  0  0  0  0
  -25.4323  -15.1882   20.4097 N   0  0  0  0  0  0
  -31.8470  -14.5584   20.0967 O   0  0  0  0  0  0
  -21.6643   -6.8876   21.4245 O   0  0  0  0  0  0
  -22.3552  -14.5548   20.6709 O   0  0  0  0  0  0
  -24.6094  -31.8706   23.2107 C   0  0  0  0  0  0
  -25.9003  -32.4849   23.8392 C   0  0  1  0  0  0
  -27.2322  -27.4763   20.0920 C   0  0  0  0  0  0
  -25.5858  -33.8638   24.2334 N   0  0  0  0  0  0
  -23.3963  -30.4962   21.5483 C   0  0  2  0  0  0
  -24.8446  -28.9680   20.1073 C   0  0  0  0  0  0
  -22.7378  -29.4706   22.4973 C   0  0  0  0  0  0
  -18.0282  -28.1413   22.8510 C   0  0  0  0  0  0
  -24.1474  -36.7320   23.2637 C   0  0  0  0  0  0
  -25.9213  -30.8508   21.3585 C   0  0  0  0  0  0
  -26.0006  -29.4884   20.7054 C   0  0  0  0  0  0
  -27.1999  -28.7487   20.7005 C   0  0  0  0  0  0
  -26.0710  -26.9629   19.4830 C   0  0  0  0  0  0
  -24.8713  -27.7011   19.4939 C   0  0  0  0  0  0
  -23.6031  -29.8280   20.1614 C   0  0  0  0  0  0
  -25.4100  -36.3135   24.0334 C   0  0  1  0  0  0
  -20.5867  -28.3697   23.1349 C   0  0  2  0  0  0
  -20.6781  -26.9438   22.5450 C   0  0  0  0  0  0
  -19.5755  -26.6418   21.5242 C   0  0  0  0  0  0
  -18.1928  -26.7978   22.1633 C   0  0  0  0  0  0
  -19.1535  -28.8870   23.2933 C   0  0  0  0  0  0
  -18.9467  -30.1483   23.8943 C   0  0  0  0  0  0
  -17.6468  -30.6622   24.0600 C   0  0  0  0  0  0
  -25.9010  -34.9499   23.5143 C   0  0  0  0  0  0
  -16.5362  -29.9142   23.6329 C   0  0  0  0  0  0
  -16.7277  -28.6563   23.0341 C   0  0  0  0  0  0
  -26.4437  -31.6614   25.0714 C   0  0  0  0  0  0
  -25.3703  -31.3732   26.1458 C   0  0  0  0  0  0
  -27.0249  -30.3057   24.6076 C   0  0  0  0  0  0
  -27.6023  -32.4313   25.7488 C   0  0  0  0  0  0
  -27.5590  -37.1806   24.8467 C   0  0  0  0  0  0
  -21.4118  -29.3054   22.3742 N   0  0  0  0  0  0
  -26.4290  -37.3824   23.9427 N   0  0  0  0  0  0
  -24.6612  -31.0830   22.0988 N   0  0  0  0  0  0
  -23.4172  -28.8247   23.2996 O   0  0  0  0  0  0
  -28.3543  -26.6943   20.1596 O   0  0  0  0  0  0
  -26.5608  -34.8957   22.4721 O   0  0  0  0  0  0
  -23.5308  -32.1448   23.7522 O   0  0  0  0  0  0
  -31.0257  -18.7245   19.8060 C   0  0  0  0  0  0
  -30.9163  -17.3321   19.9339 C   0  0  0  0  0  0
  -29.5816  -17.6263   21.9430 C   0  0  0  0  0  0
  -30.4449  -19.5865   20.7538 C   0  0  0  0  0  0
  -29.6963  -19.0301   21.8306 C   0  0  0  0  0  0
  -30.2076  -16.7669   21.0198 C   0  0  0  0  0  0
  -30.6833  -21.0209   20.5505 C   0  0  0  0  0  0
  -31.1828  -21.8584   21.4732 C   0  0  0  0  0  0
  -29.4394  -24.8622   21.3642 C   0  0  0  0  0  0
  -30.3661  -24.1381   22.0464 C   0  0  0  0  0  0
  -30.5334  -24.0303   23.5741 C   0  0  0  0  0  0
  -27.8226  -20.7101   22.3018 C   0  0  0  0  0  0
  -28.9840  -19.8873   22.8743 C   0  0  0  0  0  0
  -31.3963  -23.3446   21.2615 C   0  0  0  0  0  0
  -28.3308  -25.9152   21.3577 C   0  0  0  0  0  0
  -30.0511  -15.3647   21.1966 N   0  0  0  0  0  0
  -31.4574  -12.3191   19.1168 H   0  0  0  0  0  0
  -30.2704  -11.2325   19.7777 H   0  0  0  0  0  0
  -29.7172  -11.8047   17.3949 H   0  0  0  0  0  0
  -29.6880  -13.5040   17.7929 H   0  0  0  0  0  0
  -27.7880  -11.3363   18.7586 H   0  0  0  0  0  0
  -27.3704  -12.7137   17.7749 H   0  0  0  0  0  0
  -27.7245  -14.2599   19.6145 H   0  0  0  0  0  0
  -28.6512  -11.8982   21.3145 H   0  0  0  0  0  0
  -28.4706  -13.5226   21.8876 H   0  0  0  0  0  0
  -25.2761   -9.5696   22.4724 H   0  0  0  0  0  0
  -24.0016   -7.4637   22.7449 H   0  0  0  0  0  0
  -21.0835   -8.8751   19.8940 H   0  0  0  0  0  0
  -22.3680  -10.9657   19.6136 H   0  0  0  0  0  0
  -21.2007   -7.6150   23.9723 H   0  0  0  0  0  0
  -21.1479   -6.0520   25.9083 H   0  0  0  0  0  0
  -22.0599   -2.7609   23.2846 H   0  0  0  0  0  0
  -22.4141  -11.9889   22.4795 H   0  0  0  0  0  0
  -21.1123  -13.1219   22.2586 H   0  0  0  0  0  0
  -24.6670  -15.8443   20.5186 H   0  0  0  0  0  0
  -26.2910  -15.6289   20.1043 H   0  0  0  0  0  0
  -26.7074  -32.5579   23.1155 H   0  0  0  0  0  0
  -24.9972  -33.9801   25.0459 H   0  0  0  0  0  0
  -22.6869  -31.3142   21.4114 H   0  0  0  0  0  0
  -23.3746  -35.9645   23.3328 H   0  0  0  0  0  0
  -24.3573  -36.8900   22.2046 H   0  0  0  0  0  0
  -23.7211  -37.6536   23.6626 H   0  0  0  0  0  0
  -26.0248  -31.6181   20.5902 H   0  0  0  0  0  0
  -26.8132  -30.9089   21.9703 H   0  0  0  0  0  0
  -28.0881  -29.1414   21.1787 H   0  0  0  0  0  0
  -26.0912  -25.9832   19.0251 H   0  0  0  0  0  0
  -23.9800  -27.2897   19.0396 H   0  0  0  0  0  0
  -23.7091  -30.6040   19.4031 H   0  0  0  0  0  0
  -22.7271  -29.2477   19.8623 H   0  0  0  0  0  0
  -25.1283  -36.1997   25.0832 H   0  0  0  0  0  0
  -20.9971  -28.3264   24.1467 H   0  0  0  0  0  0
  -20.5701  -26.2317   23.3628 H   0  0  0  0  0  0
  -21.6663  -26.7515   22.1239 H   0  0  0  0  0  0
  -19.6922  -25.6330   21.1263 H   0  0  0  0  0  0
  -19.6694  -27.3261   20.6792 H   0  0  0  0  0  0
  -17.4218  -26.6745   21.4012 H   0  0  0  0  0  0
  -18.0305  -26.0135   22.9041 H   0  0  0  0  0  0
  -19.7937  -30.7292   24.2314 H   0  0  0  0  0  0
  -17.5035  -31.6301   24.5216 H   0  0  0  0  0  0
  -15.5372  -30.3071   23.7626 H   0  0  0  0  0  0
  -15.8669  -28.0898   22.7012 H   0  0  0  0  0  0
  -24.5901  -30.7037   25.7826 H   0  0  0  0  0  0
  -24.8853  -32.2887   26.4853 H   0  0  0  0  0  0
  -25.8048  -30.8970   27.0250 H   0  0  0  0  0  0
  -26.2803  -29.6850   24.1095 H   0  0  0  0  0  0
  -27.3992  -29.7257   25.4530 H   0  0  0  0  0  0
  -27.8643  -30.4407   23.9254 H   0  0  0  0  0  0
  -27.2663  -33.3626   26.2072 H   0  0  0  0  0  0
  -28.3846  -32.6824   25.0313 H   0  0  0  0  0  0
  -28.0671  -31.8414   26.5405 H   0  0  0  0  0  0
  -28.2617  -38.0100   24.7572 H   0  0  0  0  0  0
  -28.1076  -36.2643   24.6230 H   0  0  0  0  0  0
  -27.2324  -37.1404   25.8872 H   0  0  0  0  0  0
  -20.9271  -29.8762   21.6966 H   0  0  0  0  0  0
  -26.0174  -38.2901   24.1458 H   0  0  0  0  0  0
  -31.5854  -19.1307   18.9745 H   0  0  0  0  0  0
  -31.3895  -16.7238   19.1765 H   0  0  0  0  0  0
  -29.0033  -17.2006   22.7520 H   0  0  0  0  0  0
  -30.4158  -21.4132   19.5799 H   0  0  0  0  0  0
  -31.4641  -21.4709   22.4411 H   0  0  0  0  0  0
  -28.9480  -24.8222   22.3151 H   0  0  0  0  0  0
  -29.7588  -24.5400   24.1512 H   0  0  0  0  0  0
  -31.4898  -24.4651   23.8688 H   0  0  0  0  0  0
  -30.5307  -22.9889   23.8957 H   0  0  0  0  0  0
  -27.3351  -21.2819   23.0926 H   0  0  0  0  0  0
  -27.0692  -20.0711   21.8403 H   0  0  0  0  0  0
  -28.1653  -21.4224   21.5531 H   0  0  0  0  0  0
  -29.6991  -20.5320   23.3810 H   0  0  0  0  0  0
  -28.5856  -19.2397   23.6568 H   0  0  0  0  0  0
  -31.3190  -23.5774   20.1975 H   0  0  0  0  0  0
  -32.4054  -23.6181   21.5735 H   0  0  0  0  0  0
  -28.4248  -26.6192   22.1970 H   0  0  0  0  0  0
  -27.3516  -25.4244   21.4430 H   0  0  0  0  0  0
  -29.2365  -15.0687   21.7118 H   0  0  0  0  0  0
  1 25  1  0  0  0
  1 30  2  0  0  0
  1 86  1  0  0  0
  2  3  1  0  0  0
  2 25  1  0  0  0
  2 87  1  0  0  0
  2 88  1  0  0  0
  3  4  1  0  0  0
  3 89  1  0  0  0
  3 90  1  0  0  0
  4  5  1  0  0  0
  4 91  1  0  0  0
  4 92  1  0  0  0
  5  6  1  0  0  0
  5 26  1  0  0  0
  5 93  1  0  0  0
  6 25  1  0  0  0
  6 94  1  0  0  0
  6 95  1  0  0  0
  7  8  2  0  0  0
  7 26  1  0  0  0
  7 29  1  0  0  0
  8  9  1  0  0  0
  8 22  1  0  0  0
  9 10  1  0  0  0
  9 27  2  0  0  0
 10 11  2  0  0  0
 10 15  1  0  0  0
 11 12  1  0  0  0
 11 96  1  0  0  0
 12 13  2  0  0  0
 12 97  1  0  0  0
 13 14  1  0  0  0
 13 31  1  0  0  0
 14 15  2  0  0  0
 14 98  1  0  0  0
 15 99  1  0  0  0
 16 17  2  0  0  0
 16 21  1  0  0  0
 16 31  1  0  0  0
 17 18  1  0  0  0
 17100  1  0  0  0
 18 19  2  0  0  0
 18101  1  0  0  0
 19 20  1  0  0  0
 19 24  1  0  0  0
 20 21  2  0  0  0
 20102  1  0  0  0
 21 23  1  0  0  0
 22 28  1  0  0  0
 22 32  2  0  0  0
 26 27  1  0  0  0
 28103  1  0  0  0
 28104  1  0  0  0
 29105  1  0  0  0
 29106  1  0  0  0
 33 34  1  0  0  0
 33 66  1  0  0  0
 33 70  2  0  0  0
 34 36  1  0  0  0
 34 59  1  0  0  0
 34107  1  0  0  0
 35 44  2  0  0  0
 35 45  1  0  0  0
 35 68  1  0  0  0
 36 56  1  0  0  0
 36108  1  0  0  0
 37 39  1  0  0  0
 37 47  1  0  0  0
 37 66  1  0  0  0
 37109  1  0  0  0
 38 43  2  0  0  0
 38 46  1  0  0  0
 38 47  1  0  0  0
 39 64  1  0  0  0
 39 67  2  0  0  0
 40 52  1  0  0  0
 40 53  2  0  0  0
 40 58  1  0  0  0
 41110  1  0  0  0
 41111  1  0  0  0
 41112  1  0  0  0
 41 48  1  0  0  0
 42 43  1  0  0  0
 42 66  1  0  0  0
 42113  1  0  0  0
 42114  1  0  0  0
 43 44  1  0  0  0
 44115  1  0  0  0
 45 46  2  0  0  0
 45116  1  0  0  0
 46117  1  0  0  0
 47118  1  0  0  0
 47119  1  0  0  0
 48 56  1  0  0  0
 48 65  1  0  0  0
 48120  1  0  0  0
 49 50  1  0  0  0
 49 53  1  0  0  0
 49 64  1  0  0  0
 49121  1  0  0  0
 50 51  1  0  0  0
 50122  1  0  0  0
 50123  1  0  0  0
 51 52  1  0  0  0
 51124  1  0  0  0
 51125  1  0  0  0
 52126  1  0  0  0
 52127  1  0  0  0
 53 54  1  0  0  0
 54 55  2  0  0  0
 54128  1  0  0  0
 55 57  1  0  0  0
 55129  1  0  0  0
 56 69  2  0  0  0
 57 58  2  0  0  0
 57130  1  0  0  0
 58131  1  0  0  0
 59 60  1  0  0  0
 59 61  1  0  0  0
 59 62  1  0  0  0
 60132  1  0  0  0
 60133  1  0  0  0
 60134  1  0  0  0
 61135  1  0  0  0
 61136  1  0  0  0
 61137  1  0  0  0
 62138  1  0  0  0
 62139  1  0  0  0
 62140  1  0  0  0
 63 65  1  0  0  0
 63141  1  0  0  0
 63142  1  0  0  0
 63143  1  0  0  0
 64144  1  0  0  0
 65145  1  0  0  0
 68 85  1  0  0  0
 71 72  2  0  0  0
 71 74  1  0  0  0
 71146  1  0  0  0
 72 76  1  0  0  0
 72147  1  0  0  0
 73 75  1  0  0  0
 73 76  2  0  0  0
 73148  1  0  0  0
 74 75  2  0  0  0
 74 77  1  0  0  0
 75 83  1  0  0  0
 76 86  1  0  0  0
 77 78  2  0  0  0
 77149  1  0  0  0
 78 84  1  0  0  0
 78150  1  0  0  0
 79 80  2  0  0  0
 79 85  1  0  0  0
 79151  1  0  0  0
 80 81  1  0  0  0
 80 84  1  0  0  0
 81152  1  0  0  0
 81153  1  0  0  0
 81154  1  0  0  0
 82 83  1  0  0  0
 82155  1  0  0  0
 82156  1  0  0  0
 82157  1  0  0  0
 83158  1  0  0  0
 83159  1  0  0  0
 84160  1  0  0  0
 84161  1  0  0  0
 85162  1  0  0  0
 85163  1  0  0  0
 86164  1  0  0  0
M  ISO  4   1 100  68 101  85 101  86 100
M  END
> <chiral flag>
0

> <version>
0

> <s_m_source_file>
/data/baiqing/PycharmProjects/Reinvent-master-3.2/result/LINK_invent/BTK/process_docking_weight1_custom_product_contain_oxygen_bond_distance_aromatic_linkinvent_7_9_3/rearranged_h_0123.sdf

> <i_m_source_file_index>
82

> <r_mmod_Potential_Energy-OPLS-2005>
237.463027954102

> <r_mmod_Stretch_Energy-OPLS-2005>
34.9162940979004

> <r_mmod_Bend_Energy-OPLS-2005>
309.012451171875

> <r_mmod_Torsional_Energy-OPLS-2005>
267.145080566406

> <r_mmod_Improper_Torsional_Energy-OPLS-2005>
11.7036085128784

> <r_mmod_Van_der_Waal_Energy-OPLS-2005>
179.244491577148

> <r_mmod_Electrostatic_Energy-OPLS-2005>
-381.323211669922

> <r_mmod_Solvation_Energy-OPLS-2005>
-194.709487915039

> <b_mmod_Minimization_Converged-OPLS-2005>
0

> <r_mmod_RMS_Derivative-OPLS-2005>
3.03351473808289

$$$$
82
                    3D
 Structure written by MMmdl.
151159  0  0  1  0            999 V2000
  -30.5826  -14.7658   20.4862 C   0  0  0  0  0  0
  -30.4404  -12.4670   19.4907 C   0  0  0  0  0  0
  -29.5172  -12.5143   18.2500 C   0  0  0  0  0  0
  -28.0443  -12.3320   18.6586 C   0  0  0  0  0  0
  -27.6476  -13.2283   19.8614 C   0  0  2  0  0  0
  -28.6865  -13.1436   21.0008 C   0  0  0  0  0  0
  -25.2520  -13.8171   20.5720 C   0  0  0  0  0  0
  -24.1801  -13.0412   20.9188 C   0  0  0  0  0  0
  -24.6410  -11.6879   20.8719 C   0  0  0  0  0  0
  -23.9077  -10.4266   21.0384 C   0  0  0  0  0  0
  -24.3630   -9.4167   21.9155 C   0  0  0  0  0  0
  -23.6293   -8.2209   22.0741 C   0  0  0  0  0  0
  -22.4258   -8.0259   21.3545 C   0  0  0  0  0  0
  -21.9911   -9.0229   20.4644 C   0  0  0  0  0  0
  -22.7249  -10.2112   20.3039 C   0  0  0  0  0  0
  -21.6853   -6.0698   22.5277 C   0  0  0  0  0  0
  -21.4001   -6.5613   23.8199 C   0  0  0  0  0  0
  -21.3677   -5.6784   24.9171 C   0  0  0  0  0  0
  -21.6064   -4.3040   24.7247 C   0  0  0  0  0  0
  -21.8801   -3.8113   23.4368 C   0  0  0  0  0  0
  -21.9188   -4.6922   22.3408 C   0  0  0  0  0  0
  -22.7820  -13.5182   21.1855 C   0  0  0  0  0  0
  -22.1661   -4.2088   21.0985 F   0  0  0  0  0  0
  -21.5662   -3.4555   25.7776 F   0  0  0  0  0  0
  -29.9935  -13.5159   20.4425 N   0  0  0  0  0  0
  -26.2959  -12.9384   20.3316 N   0  0  0  0  0  0
  -25.9343  -11.6511   20.5746 N   0  0  0  0  0  0
  -22.0502  -12.8167   22.0454 N   0  0  0  0  0  0
  -25.4250  -15.1902   20.4211 N   0  0  0  0  0  0
  -31.7294  -14.9135   20.0543 O   0  0  0  0  0  0
  -21.6611   -6.8859   21.4248 O   0  0  0  0  0  0
  -22.3478  -14.5487   20.6718 O   0  0  0  0  0  0
  -24.6341  -31.8544   23.1946 C   0  0  0  0  0  0
  -25.9140  -32.4761   23.8310 C   0  0  1  0  0  0
  -27.2277  -27.2476   20.1112 C   0  0  0  0  0  0
  -25.5919  -33.8559   24.2251 N   0  0  0  0  0  0
  -23.4328  -30.4742   21.5418 C   0  0  2  0  0  0
  -24.8805  -28.9227   20.1059 C   0  0  0  0  0  0
  -22.7548  -29.4571   22.4919 C   0  0  0  0  0  0
  -18.0315  -28.1361   22.8481 C   0  0  0  0  0  0
  -24.1484  -36.7315   23.2634 C   0  0  0  0  0  0
  -25.9778  -30.7629   21.3706 C   0  0  0  0  0  0
  -26.0532  -29.3791   20.7211 C   0  0  0  0  0  0
  -27.2258  -28.5543   20.7180 C   0  0  0  0  0  0
  -26.0358  -26.8834   19.4378 C   0  0  0  0  0  0
  -24.8791  -27.6846   19.4511 C   0  0  0  0  0  0
  -23.6505  -29.8060   20.1583 C   0  0  0  0  0  0
  -25.4096  -36.3095   24.0347 C   0  0  1  0  0  0
  -20.5908  -28.3709   23.1277 C   0  0  2  0  0  0
  -20.6783  -26.9416   22.5422 C   0  0  0  0  0  0
  -19.5809  -26.6373   21.5194 C   0  0  0  0  0  0
  -18.1987  -26.7906   22.1606 C   0  0  0  0  0  0
  -19.1553  -28.8852   23.2882 C   0  0  0  0  0  0
  -18.9449  -30.1451   23.8912 C   0  0  0  0  0  0
  -17.6433  -30.6574   24.0545 C   0  0  0  0  0  0
  -25.9045  -34.9458   23.5111 C   0  0  0  0  0  0
  -16.5346  -29.9049   23.6296 C   0  0  0  0  0  0
  -16.7297  -28.6458   23.0341 C   0  0  0  0  0  0
  -26.4477  -31.6572   25.0709 C   0  0  0  0  0  0
  -25.3678  -31.3737   26.1430 C   0  0  0  0  0  0
  -27.0308  -30.3000   24.6132 C   0  0  0  0  0  0
  -27.6057  -32.4275   25.7477 C   0  0  0  0  0  0
  -27.5569  -37.1812   24.8462 C   0  0  0  0  0  0
  -21.4248  -29.3067   22.3692 N   0  0  0  0  0  0
  -26.4280  -37.3783   23.9416 N   0  0  0  0  0  0
  -24.7026  -31.0479   22.0943 N   0  0  0  0  0  0
  -23.4236  -28.8092   23.3015 O   0  0  0  0  0  0
  -28.3125  -26.3314   20.1909 O   0  0  0  0  0  0
  -26.5625  -34.8934   22.4689 O   0  0  0  0  0  0
  -23.5483  -32.1395   23.7204 O   0  0  0  0  0  0
  -29.9111  -18.4988   21.2560 C   0  0  0  0  0  0
  -29.1592  -17.6597   19.3276 C   0  0  0  0  0  0
  -29.7271  -17.2594   20.5070 C   0  0  0  0  0  0
  -29.4868  -19.6214   20.5214 C   0  0  0  0  0  0
  -28.8470  -22.3327   20.1398 C   0  0  0  0  0  0
  -28.8720  -23.6816   20.5021 C   0  0  0  0  0  0
  -29.5013  -21.1389   20.8943 C   0  0  0  0  0  0
  -28.3843  -19.7585   18.2104 C   0  0  0  0  0  0
  -28.1076  -24.8859   19.7963 C   0  0  0  0  0  0
  -28.9999  -19.0583   19.3235 N   0  0  0  0  0  0
  -29.8366  -15.8422   20.9575 N   0  0  0  0  0  0
  -30.0845  -21.4103   21.9466 O   0  0  0  0  0  0
  -31.4804  -12.6056   19.1908 H   0  0  0  0  0  0
  -30.4018  -11.4833   19.9640 H   0  0  0  0  0  0
  -29.8070  -11.7449   17.5335 H   0  0  0  0  0  0
  -29.6317  -13.4706   17.7411 H   0  0  0  0  0  0
  -27.9062  -11.2855   18.9252 H   0  0  0  0  0  0
  -27.3911  -12.5249   17.8076 H   0  0  0  0  0  0
  -27.6476  -14.2537   19.4901 H   0  0  0  0  0  0
  -28.7173  -12.1320   21.4074 H   0  0  0  0  0  0
  -28.4074  -13.7941   21.8324 H   0  0  0  0  0  0
  -25.2786   -9.5631   22.4720 H   0  0  0  0  0  0
  -23.9978   -7.4612   22.7475 H   0  0  0  0  0  0
  -21.0831   -8.8763   19.8980 H   0  0  0  0  0  0
  -22.3697  -10.9644   19.6145 H   0  0  0  0  0  0
  -21.1960   -7.6112   23.9689 H   0  0  0  0  0  0
  -21.1544   -6.0516   25.9076 H   0  0  0  0  0  0
  -22.0565   -2.7578   23.2883 H   0  0  0  0  0  0
  -22.4144  -11.9821   22.4805 H   0  0  0  0  0  0
  -21.1122  -13.1169   22.2690 H   0  0  0  0  0  0
  -24.6702  -15.8546   20.5558 H   0  0  0  0  0  0
  -26.2948  -15.6333   20.1571 H   0  0  0  0  0  0
  -26.7213  -32.5421   23.1059 H   0  0  0  0  0  0
  -25.0045  -33.9665   25.0372 H   0  0  0  0  0  0
  -22.7306  -31.2968   21.3909 H   0  0  0  0  0  0
  -23.3745  -35.9649   23.3308 H   0  0  0  0  0  0
  -24.3578  -36.8929   22.2047 H   0  0  0  0  0  0
  -23.7234  -37.6527   23.6633 H   0  0  0  0  0  0
  -26.0948  -31.5078   20.5823 H   0  0  0  0  0  0
  -26.8658  -30.8360   21.9864 H   0  0  0  0  0  0
  -28.1226  -28.8995   21.2167 H   0  0  0  0  0  0
  -25.9555  -25.9585   18.8882 H   0  0  0  0  0  0
  -23.9900  -27.3407   18.9416 H   0  0  0  0  0  0
  -23.7691  -30.5803   19.3999 H   0  0  0  0  0  0
  -22.7693  -29.2346   19.8566 H   0  0  0  0  0  0
  -25.1262  -36.1976   25.0843 H   0  0  0  0  0  0
  -20.9970  -28.3272   24.1407 H   0  0  0  0  0  0
  -20.5634  -26.2329   23.3629 H   0  0  0  0  0  0
  -21.6675  -26.7388   22.1290 H   0  0  0  0  0  0
  -19.6988  -25.6271   21.1238 H   0  0  0  0  0  0
  -19.6758  -27.3203   20.6741 H   0  0  0  0  0  0
  -17.4240  -26.6633   21.4030 H   0  0  0  0  0  0
  -18.0399  -26.0051   22.9009 H   0  0  0  0  0  0
  -19.7923  -30.7253   24.2303 H   0  0  0  0  0  0
  -17.4977  -31.6258   24.5120 H   0  0  0  0  0  0
  -15.5352  -30.2934   23.7565 H   0  0  0  0  0  0
  -15.8708  -28.0748   22.7015 H   0  0  0  0  0  0
  -24.5859  -30.7081   25.7756 H   0  0  0  0  0  0
  -24.8859  -32.2921   26.4806 H   0  0  0  0  0  0
  -25.7995  -30.8953   27.0231 H   0  0  0  0  0  0
  -26.2879  -29.6781   24.1141 H   0  0  0  0  0  0
  -27.4012  -29.7236   25.4610 H   0  0  0  0  0  0
  -27.8740  -30.4319   23.9351 H   0  0  0  0  0  0
  -27.2697  -33.3572   26.2061 H   0  0  0  0  0  0
  -28.3866  -32.6817   25.0305 H   0  0  0  0  0  0
  -28.0712  -31.8380   26.5378 H   0  0  0  0  0  0
  -28.2606  -38.0085   24.7496 H   0  0  0  0  0  0
  -28.1054  -36.2632   24.6311 H   0  0  0  0  0  0
  -27.2310  -37.1512   25.8868 H   0  0  0  0  0  0
  -20.9417  -29.8908   21.7013 H   0  0  0  0  0  0
  -26.0202  -38.2886   24.1371 H   0  0  0  0  0  0
  -30.2995  -18.5741   22.2635 H   0  0  0  0  0  0
  -28.8011  -17.0718   18.4896 H   0  0  0  0  0  0
  -28.2945  -22.0994   19.2492 H   0  0  0  0  0  0
  -29.4268  -23.9652   21.3875 H   0  0  0  0  0  0
  -27.4386  -20.1985   18.5274 H   0  0  0  0  0  0
  -28.1695  -19.0691   17.3945 H   0  0  0  0  0  0
  -29.0517  -20.5293   17.8281 H   0  0  0  0  0  0
  -28.2417  -24.8036   18.7163 H   0  0  0  0  0  0
  -27.0740  -24.6074   19.9968 H   0  0  0  0  0  0
  -29.0384  -15.5342   21.4927 H   0  0  0  0  0  0
  1 25  1  0  0  0
  1 30  2  0  0  0
  1 81  1  0  0  0
  2  3  1  0  0  0
  2 25  1  0  0  0
  2 83  1  0  0  0
  2 84  1  0  0  0
  3  4  1  0  0  0
  3 85  1  0  0  0
  3 86  1  0  0  0
  4  5  1  0  0  0
  4 87  1  0  0  0
  4 88  1  0  0  0
  5  6  1  0  0  0
  5 26  1  0  0  0
  5 89  1  0  0  0
  6 25  1  0  0  0
  6 90  1  0  0  0
  6 91  1  0  0  0
  7  8  2  0  0  0
  7 26  1  0  0  0
  7 29  1  0  0  0
  8  9  1  0  0  0
  8 22  1  0  0  0
  9 10  1  0  0  0
  9 27  2  0  0  0
 10 11  2  0  0  0
 10 15  1  0  0  0
 11 12  1  0  0  0
 11 92  1  0  0  0
 12 13  2  0  0  0
 12 93  1  0  0  0
 13 14  1  0  0  0
 13 31  1  0  0  0
 14 15  2  0  0  0
 14 94  1  0  0  0
 15 95  1  0  0  0
 16 17  2  0  0  0
 16 21  1  0  0  0
 16 31  1  0  0  0
 17 18  1  0  0  0
 17 96  1  0  0  0
 18 19  2  0  0  0
 18 97  1  0  0  0
 19 20  1  0  0  0
 19 24  1  0  0  0
 20 21  2  0  0  0
 20 98  1  0  0  0
 21 23  1  0  0  0
 22 28  1  0  0  0
 22 32  2  0  0  0
 26 27  1  0  0  0
 28 99  1  0  0  0
 28100  1  0  0  0
 29101  1  0  0  0
 29102  1  0  0  0
 33 34  1  0  0  0
 33 66  1  0  0  0
 33 70  2  0  0  0
 34 36  1  0  0  0
 34 59  1  0  0  0
 34103  1  0  0  0
 35 44  2  0  0  0
 35 45  1  0  0  0
 35 68  1  0  0  0
 36 56  1  0  0  0
 36104  1  0  0  0
 37 39  1  0  0  0
 37 47  1  0  0  0
 37 66  1  0  0  0
 37105  1  0  0  0
 38 43  2  0  0  0
 38 46  1  0  0  0
 38 47  1  0  0  0
 39 64  1  0  0  0
 39 67  2  0  0  0
 40 52  1  0  0  0
 40 53  2  0  0  0
 40 58  1  0  0  0
 41106  1  0  0  0
 41107  1  0  0  0
 41108  1  0  0  0
 41 48  1  0  0  0
 42 43  1  0  0  0
 42 66  1  0  0  0
 42109  1  0  0  0
 42110  1  0  0  0
 43 44  1  0  0  0
 44111  1  0  0  0
 45 46  2  0  0  0
 45112  1  0  0  0
 46113  1  0  0  0
 47114  1  0  0  0
 47115  1  0  0  0
 48 56  1  0  0  0
 48 65  1  0  0  0
 48116  1  0  0  0
 49 50  1  0  0  0
 49 53  1  0  0  0
 49 64  1  0  0  0
 49117  1  0  0  0
 50 51  1  0  0  0
 50118  1  0  0  0
 50119  1  0  0  0
 51 52  1  0  0  0
 51120  1  0  0  0
 51121  1  0  0  0
 52122  1  0  0  0
 52123  1  0  0  0
 53 54  1  0  0  0
 54 55  2  0  0  0
 54124  1  0  0  0
 55 57  1  0  0  0
 55125  1  0  0  0
 56 69  2  0  0  0
 57 58  2  0  0  0
 57126  1  0  0  0
 58127  1  0  0  0
 59 60  1  0  0  0
 59 61  1  0  0  0
 59 62  1  0  0  0
 60128  1  0  0  0
 60129  1  0  0  0
 60130  1  0  0  0
 61131  1  0  0  0
 61132  1  0  0  0
 61133  1  0  0  0
 62134  1  0  0  0
 62135  1  0  0  0
 62136  1  0  0  0
 63 65  1  0  0  0
 63137  1  0  0  0
 63138  1  0  0  0
 63139  1  0  0  0
 64140  1  0  0  0
 65141  1  0  0  0
 68 79  1  0  0  0
 71 73  1  0  0  0
 71 74  2  0  0  0
 71142  1  0  0  0
 72 73  2  0  0  0
 72 80  1  0  0  0
 72143  1  0  0  0
 73 81  1  0  0  0
 74 77  1  0  0  0
 74 80  1  0  0  0
 75 76  2  0  0  0
 75 77  1  0  0  0
 75144  1  0  0  0
 76 79  1  0  0  0
 76145  1  0  0  0
 77 82  2  0  0  0
 78 80  1  0  0  0
 78146  1  0  0  0
 78147  1  0  0  0
 78148  1  0  0  0
 79149  1  0  0  0
 79150  1  0  0  0
 81151  1  0  0  0
M  ISO  4   1 100  68 101  79 101  81 100
M  END
> <chiral flag>
0

> <version>
0

> <s_m_source_file>
/data/baiqing/PycharmProjects/Reinvent-master-3.2/result/LINK_invent/BTK/process_docking_weight1_custom_product_contain_oxygen_bond_distance_aromatic_linkinvent_7_9_3/rearranged_h_0123.sdf

> <i_m_source_file_index>
83

> <r_mmod_Potential_Energy-OPLS-2005>
218.801254272461

> <r_mmod_Stretch_Energy-OPLS-2005>
134.710494995117

> <r_mmod_Bend_Energy-OPLS-2005>
187.337875366211

> <r_mmod_Torsional_Energy-OPLS-2005>
245.838333129883

> <r_mmod_Improper_Torsional_Energy-OPLS-2005>
5.84867477416992

> <r_mmod_Van_der_Waal_Energy-OPLS-2005>
124.69408416748

> <r_mmod_Electrostatic_Energy-OPLS-2005>
-336.5673828125

> <r_mmod_Solvation_Energy-OPLS-2005>
-237.839538574219

> <b_mmod_Minimization_Converged-OPLS-2005>
0

> <r_mmod_RMS_Derivative-OPLS-2005>
4.44774007797241

$$$$
83
                    3D
 Structure written by MMmdl.
162171  0  0  1  0            999 V2000
  -30.5503  -14.7718   20.4586 C   0  0  0  0  0  0
  -30.4417  -12.4720   19.4710 C   0  0  0  0  0  0
  -29.5116  -12.5092   18.2371 C   0  0  0  0  0  0
  -28.0341  -12.3359   18.6438 C   0  0  0  0  0  0
  -27.6371  -13.2270   19.8467 C   0  0  2  0  0  0
  -28.6800  -13.1474   20.9824 C   0  0  0  0  0  0
  -25.2454  -13.8172   20.5672 C   0  0  0  0  0  0
  -24.1760  -13.0440   20.9217 C   0  0  0  0  0  0
  -24.6334  -11.6922   20.8776 C   0  0  0  0  0  0
  -23.9044  -10.4291   21.0419 C   0  0  0  0  0  0
  -24.3606   -9.4211   21.9186 C   0  0  0  0  0  0
  -23.6286   -8.2228   22.0742 C   0  0  0  0  0  0
  -22.4271   -8.0283   21.3548 C   0  0  0  0  0  0
  -21.9917   -9.0243   20.4634 C   0  0  0  0  0  0
  -22.7216  -10.2119   20.3055 C   0  0  0  0  0  0
  -21.6837   -6.0712   22.5269 C   0  0  0  0  0  0
  -21.4006   -6.5641   23.8192 C   0  0  0  0  0  0
  -21.3670   -5.6797   24.9182 C   0  0  0  0  0  0
  -21.6049   -4.3047   24.7229 C   0  0  0  0  0  0
  -21.8816   -3.8146   23.4350 C   0  0  0  0  0  0
  -21.9188   -4.6956   22.3414 C   0  0  0  0  0  0
  -22.7777  -13.5218   21.1953 C   0  0  0  0  0  0
  -22.1657   -4.2155   21.0969 F   0  0  0  0  0  0
  -21.5649   -3.4538   25.7729 F   0  0  0  0  0  0
  -29.9809  -13.5172   20.4085 N   0  0  0  0  0  0
  -26.2867  -12.9394   20.3264 N   0  0  0  0  0  0
  -25.9260  -11.6527   20.5728 N   0  0  0  0  0  0
  -22.0424  -12.8175   22.0497 N   0  0  0  0  0  0
  -25.4114  -15.1888   20.3996 N   0  0  0  0  0  0
  -31.7557  -14.9170   20.2326 O   0  0  0  0  0  0
  -21.6637   -6.8878   21.4233 O   0  0  0  0  0  0
  -22.3483  -14.5499   20.6777 O   0  0  0  0  0  0
  -24.6400  -31.8442   23.1959 C   0  0  0  0  0  0
  -25.9197  -32.4689   23.8308 C   0  0  1  0  0  0
  -27.2320  -27.1992   20.0982 C   0  0  0  0  0  0
  -25.5948  -33.8505   24.2237 N   0  0  0  0  0  0
  -23.4392  -30.4659   21.5400 C   0  0  2  0  0  0
  -24.8815  -28.8951   20.1035 C   0  0  0  0  0  0
  -22.7543  -29.4586   22.4956 C   0  0  0  0  0  0
  -18.0264  -28.1412   22.8468 C   0  0  0  0  0  0
  -24.1469  -36.7265   23.2637 C   0  0  0  0  0  0
  -25.9945  -30.7315   21.3775 C   0  0  0  0  0  0
  -26.0602  -29.3461   20.7188 C   0  0  0  0  0  0
  -27.2316  -28.5119   20.7017 C   0  0  0  0  0  0
  -26.0334  -26.8371   19.4421 C   0  0  0  0  0  0
  -24.8834  -27.6516   19.4496 C   0  0  0  0  0  0
  -23.6538  -29.7939   20.1564 C   0  0  0  0  0  0
  -25.4108  -36.3033   24.0315 C   0  0  1  0  0  0
  -20.5880  -28.3695   23.1250 C   0  0  2  0  0  0
  -20.6776  -26.9427   22.5402 C   0  0  0  0  0  0
  -19.5774  -26.6399   21.5205 C   0  0  0  0  0  0
  -18.1940  -26.7945   22.1625 C   0  0  0  0  0  0
  -19.1546  -28.8906   23.2827 C   0  0  0  0  0  0
  -18.9445  -30.1500   23.8852 C   0  0  0  0  0  0
  -17.6444  -30.6599   24.0557 C   0  0  0  0  0  0
  -25.9063  -34.9404   23.5098 C   0  0  0  0  0  0
  -16.5335  -29.9080   23.6319 C   0  0  0  0  0  0
  -16.7261  -28.6516   23.0338 C   0  0  0  0  0  0
  -26.4516  -31.6548   25.0735 C   0  0  0  0  0  0
  -25.3736  -31.3686   26.1461 C   0  0  0  0  0  0
  -27.0345  -30.2949   24.6261 C   0  0  0  0  0  0
  -27.6036  -32.4300   25.7497 C   0  0  0  0  0  0
  -27.5581  -37.1799   24.8487 C   0  0  0  0  0  0
  -21.4262  -29.3018   22.3666 N   0  0  0  0  0  0
  -26.4286  -37.3748   23.9421 N   0  0  0  0  0  0
  -24.7122  -31.0362   22.0897 N   0  0  0  0  0  0
  -23.4234  -28.8142   23.3083 O   0  0  0  0  0  0
  -28.3238  -26.2859   20.1610 O   0  0  0  0  0  0
  -26.5701  -34.8898   22.4693 O   0  0  0  0  0  0
  -23.5514  -32.1265   23.7228 O   0  0  0  0  0  0
  -29.4370  -19.9839   21.8351 C   0  0  0  0  0  0
  -29.9227  -17.5866   22.1860 C   0  0  0  0  0  0
  -29.4209  -18.4254   19.9656 C   0  0  0  0  0  0
  -29.7409  -18.8988   22.6967 C   0  0  0  0  0  0
  -29.2743  -19.8058   20.4457 C   0  0  0  0  0  0
  -29.7586  -17.2872   20.8144 C   0  0  0  0  0  0
  -29.4532  -18.1963   25.0834 C   0  0  0  0  0  0
  -29.7568  -19.1274   24.1577 C   0  0  0  0  0  0
  -28.7971  -21.0024   19.5513 C   0  0  0  0  0  0
  -31.1898  -23.7863   19.1712 C   0  0  0  0  0  0
  -30.5572  -24.0838   20.5332 C   0  0  0  0  0  0
  -30.4039  -22.5907   18.6280 C   0  0  0  0  0  0
  -29.1080  -23.6080   20.3750 C   0  0  1  0  0  0
  -28.2088  -24.8237   19.7318 C   0  0  0  0  0  0
  -29.3410  -22.2963   19.5966 N   0  0  0  0  0  0
  -29.6602  -15.8462   20.4539 N   0  0  0  0  0  0
  -28.0701  -20.7062   18.5946 O   0  0  0  0  0  0
  -31.4743  -12.6461   19.1682 H   0  0  0  0  0  0
  -30.4340  -11.4937   19.9523 H   0  0  0  0  0  0
  -29.8034  -11.7354   17.5273 H   0  0  0  0  0  0
  -29.6389  -13.4629   17.7211 H   0  0  0  0  0  0
  -27.8837  -11.2865   18.8928 H   0  0  0  0  0  0
  -27.3874  -12.5452   17.7955 H   0  0  0  0  0  0
  -27.6247  -14.2505   19.4708 H   0  0  0  0  0  0
  -28.7166  -12.1423   21.4057 H   0  0  0  0  0  0
  -28.4057  -13.8165   21.8016 H   0  0  0  0  0  0
  -25.2740   -9.5686   22.4774 H   0  0  0  0  0  0
  -24.0002   -7.4618   22.7446 H   0  0  0  0  0  0
  -21.0854   -8.8745   19.8925 H   0  0  0  0  0  0
  -22.3674  -10.9669   19.6176 H   0  0  0  0  0  0
  -21.1971   -7.6143   23.9716 H   0  0  0  0  0  0
  -21.1514   -6.0517   25.9077 H   0  0  0  0  0  0
  -22.0583   -2.7615   23.2831 H   0  0  0  0  0  0
  -22.4055  -11.9838   22.4873 H   0  0  0  0  0  0
  -21.1036  -13.1193   22.2706 H   0  0  0  0  0  0
  -24.6290  -15.8314   20.4807 H   0  0  0  0  0  0
  -26.2326  -15.6280   20.0063 H   0  0  0  0  0  0
  -26.7335  -32.5285   23.1082 H   0  0  0  0  0  0
  -24.9964  -33.9654   25.0285 H   0  0  0  0  0  0
  -22.7270  -31.2818   21.3979 H   0  0  0  0  0  0
  -23.3702  -35.9631   23.3317 H   0  0  0  0  0  0
  -24.3538  -36.8881   22.2050 H   0  0  0  0  0  0
  -23.7271  -37.6482   23.6662 H   0  0  0  0  0  0
  -26.1588  -31.4846   20.6021 H   0  0  0  0  0  0
  -26.8580  -30.7765   22.0298 H   0  0  0  0  0  0
  -28.1348  -28.8448   21.1904 H   0  0  0  0  0  0
  -25.9473  -25.8985   18.9128 H   0  0  0  0  0  0
  -23.9995  -27.3087   18.9295 H   0  0  0  0  0  0
  -23.7830  -30.5714   19.4034 H   0  0  0  0  0  0
  -22.7546  -29.2462   19.8583 H   0  0  0  0  0  0
  -25.1292  -36.1860   25.0811 H   0  0  0  0  0  0
  -20.9988  -28.3302   24.1366 H   0  0  0  0  0  0
  -20.5663  -26.2343   23.3600 H   0  0  0  0  0  0
  -21.6617  -26.7435   22.1207 H   0  0  0  0  0  0
  -19.6914  -25.6307   21.1228 H   0  0  0  0  0  0
  -19.6672  -27.3185   20.6709 H   0  0  0  0  0  0
  -17.4174  -26.6605   21.4047 H   0  0  0  0  0  0
  -18.0378  -26.0110   22.9067 H   0  0  0  0  0  0
  -19.7943  -30.7338   24.2177 H   0  0  0  0  0  0
  -17.4991  -31.6261   24.5190 H   0  0  0  0  0  0
  -15.5353  -30.2973   23.7697 H   0  0  0  0  0  0
  -15.8655  -28.0848   22.7063 H   0  0  0  0  0  0
  -24.5890  -30.7065   25.7826 H   0  0  0  0  0  0
  -24.8922  -32.2800   26.4973 H   0  0  0  0  0  0
  -25.8032  -30.8816   27.0214 H   0  0  0  0  0  0
  -26.2953  -29.6715   24.1226 H   0  0  0  0  0  0
  -27.3934  -29.7220   25.4821 H   0  0  0  0  0  0
  -27.8861  -30.4205   23.9578 H   0  0  0  0  0  0
  -27.2621  -33.3560   26.2129 H   0  0  0  0  0  0
  -28.3765  -32.6954   25.0279 H   0  0  0  0  0  0
  -28.0791  -31.8413   26.5345 H   0  0  0  0  0  0
  -28.2622  -38.0070   24.7470 H   0  0  0  0  0  0
  -28.1064  -36.2603   24.6367 H   0  0  0  0  0  0
  -27.2318  -37.1512   25.8901 H   0  0  0  0  0  0
  -20.9529  -29.8693   21.6778 H   0  0  0  0  0  0
  -26.0145  -38.2833   24.1348 H   0  0  0  0  0  0
  -29.2702  -20.9639   22.2665 H   0  0  0  0  0  0
  -30.1277  -16.7672   22.8650 H   0  0  0  0  0  0
  -29.2035  -18.2214   18.9285 H   0  0  0  0  0  0
  -29.5114  -18.4149   26.1413 H   0  0  0  0  0  0
  -29.1359  -17.2002   24.8089 H   0  0  0  0  0  0
  -30.0614  -20.1159   24.4838 H   0  0  0  0  0  0
  -32.2582  -23.5660   19.2516 H   0  0  0  0  0  0
  -31.0849  -24.6424   18.4978 H   0  0  0  0  0  0
  -30.6579  -25.1357   20.7991 H   0  0  0  0  0  0
  -31.0467  -23.4922   21.3090 H   0  0  0  0  0  0
  -31.0670  -21.7398   18.4678 H   0  0  0  0  0  0
  -29.9703  -22.8507   17.6584 H   0  0  0  0  0  0
  -28.6919  -23.3663   21.3544 H   0  0  0  0  0  0
  -27.1812  -24.4954   19.8545 H   0  0  0  0  0  0
  -28.3844  -24.8262   18.6540 H   0  0  0  0  0  0
  -28.7098  -15.5058   20.4491 H   0  0  0  0  0  0
  1 25  1  0  0  0
  1 30  2  0  0  0
  1 86  1  0  0  0
  2  3  1  0  0  0
  2 25  1  0  0  0
  2 88  1  0  0  0
  2 89  1  0  0  0
  3  4  1  0  0  0
  3 90  1  0  0  0
  3 91  1  0  0  0
  4  5  1  0  0  0
  4 92  1  0  0  0
  4 93  1  0  0  0
  5  6  1  0  0  0
  5 26  1  0  0  0
  5 94  1  0  0  0
  6 25  1  0  0  0
  6 95  1  0  0  0
  6 96  1  0  0  0
  7  8  2  0  0  0
  7 26  1  0  0  0
  7 29  1  0  0  0
  8  9  1  0  0  0
  8 22  1  0  0  0
  9 10  1  0  0  0
  9 27  2  0  0  0
 10 11  2  0  0  0
 10 15  1  0  0  0
 11 12  1  0  0  0
 11 97  1  0  0  0
 12 13  2  0  0  0
 12 98  1  0  0  0
 13 14  1  0  0  0
 13 31  1  0  0  0
 14 15  2  0  0  0
 14 99  1  0  0  0
 15100  1  0  0  0
 16 17  2  0  0  0
 16 21  1  0  0  0
 16 31  1  0  0  0
 17 18  1  0  0  0
 17101  1  0  0  0
 18 19  2  0  0  0
 18102  1  0  0  0
 19 20  1  0  0  0
 19 24  1  0  0  0
 20 21  2  0  0  0
 20103  1  0  0  0
 21 23  1  0  0  0
 22 28  1  0  0  0
 22 32  2  0  0  0
 26 27  1  0  0  0
 28104  1  0  0  0
 28105  1  0  0  0
 29106  1  0  0  0
 29107  1  0  0  0
 33 34  1  0  0  0
 33 66  1  0  0  0
 33 70  2  0  0  0
 34 36  1  0  0  0
 34 59  1  0  0  0
 34108  1  0  0  0
 35 44  2  0  0  0
 35 45  1  0  0  0
 35 68  1  0  0  0
 36 56  1  0  0  0
 36109  1  0  0  0
 37 39  1  0  0  0
 37 47  1  0  0  0
 37 66  1  0  0  0
 37110  1  0  0  0
 38 43  2  0  0  0
 38 46  1  0  0  0
 38 47  1  0  0  0
 39 64  1  0  0  0
 39 67  2  0  0  0
 40 52  1  0  0  0
 40 53  2  0  0  0
 40 58  1  0  0  0
 41111  1  0  0  0
 41112  1  0  0  0
 41113  1  0  0  0
 41 48  1  0  0  0
 42 43  1  0  0  0
 42 66  1  0  0  0
 42114  1  0  0  0
 42115  1  0  0  0
 43 44  1  0  0  0
 44116  1  0  0  0
 45 46  2  0  0  0
 45117  1  0  0  0
 46118  1  0  0  0
 47119  1  0  0  0
 47120  1  0  0  0
 48 56  1  0  0  0
 48 65  1  0  0  0
 48121  1  0  0  0
 49 50  1  0  0  0
 49 53  1  0  0  0
 49 64  1  0  0  0
 49122  1  0  0  0
 50 51  1  0  0  0
 50123  1  0  0  0
 50124  1  0  0  0
 51 52  1  0  0  0
 51125  1  0  0  0
 51126  1  0  0  0
 52127  1  0  0  0
 52128  1  0  0  0
 53 54  1  0  0  0
 54 55  2  0  0  0
 54129  1  0  0  0
 55 57  1  0  0  0
 55130  1  0  0  0
 56 69  2  0  0  0
 57 58  2  0  0  0
 57131  1  0  0  0
 58132  1  0  0  0
 59 60  1  0  0  0
 59 61  1  0  0  0
 59 62  1  0  0  0
 60133  1  0  0  0
 60134  1  0  0  0
 60135  1  0  0  0
 61136  1  0  0  0
 61137  1  0  0  0
 61138  1  0  0  0
 62139  1  0  0  0
 62140  1  0  0  0
 62141  1  0  0  0
 63 65  1  0  0  0
 63142  1  0  0  0
 63143  1  0  0  0
 63144  1  0  0  0
 64145  1  0  0  0
 65146  1  0  0  0
 68 84  1  0  0  0
 71 74  2  0  0  0
 71 75  1  0  0  0
 71147  1  0  0  0
 72 74  1  0  0  0
 72 76  2  0  0  0
 72148  1  0  0  0
 73 75  2  0  0  0
 73 76  1  0  0  0
 73149  1  0  0  0
 74 78  1  0  0  0
 75 79  1  0  0  0
 76 86  1  0  0  0
 77 78  2  0  0  0
 77150  1  0  0  0
 77151  1  0  0  0
 78152  1  0  0  0
 79 85  1  0  0  0
 79 87  2  0  0  0
 80 81  1  0  0  0
 80 82  1  0  0  0
 80153  1  0  0  0
 80154  1  0  0  0
 81 83  1  0  0  0
 81155  1  0  0  0
 81156  1  0  0  0
 82 85  1  0  0  0
 82157  1  0  0  0
 82158  1  0  0  0
 83 84  1  0  0  0
 83 85  1  0  0  0
 83159  1  0  0  0
 84160  1  0  0  0
 84161  1  0  0  0
 86162  1  0  0  0
M  ISO  4   1 100  68 101  84 101  86 100
M  END
> <chiral flag>
0

> <version>
0

> <s_m_source_file>
/data/baiqing/PycharmProjects/Reinvent-master-3.2/result/LINK_invent/BTK/process_docking_weight1_custom_product_contain_oxygen_bond_distance_aromatic_linkinvent_7_9_3/rearranged_h_0123.sdf

> <i_m_source_file_index>
84

> <r_mmod_Potential_Energy-OPLS-2005>
491.495330810547

> <r_mmod_Stretch_Energy-OPLS-2005>
153.763916015625

> <r_mmod_Bend_Energy-OPLS-2005>
225.775268554688

> <r_mmod_Torsional_Energy-OPLS-2005>
434.068908691406

> <r_mmod_Improper_Torsional_Energy-OPLS-2005>
17.2198886871338

> <r_mmod_Van_der_Waal_Energy-OPLS-2005>
128.025741577148

> <r_mmod_Electrostatic_Energy-OPLS-2005>
-356.820617675781

> <r_mmod_Solvation_Energy-OPLS-2005>
-223.242172241211

> <b_mmod_Minimization_Converged-OPLS-2005>
0

> <r_mmod_RMS_Derivative-OPLS-2005>
9.74202442169189

$$$$
84
                    3D
 Structure written by MMmdl.
156164  0  0  1  0            999 V2000
  -30.7001  -14.5396   20.5457 C   0  0  0  0  0  0
  -30.4151  -12.3401   19.4545 C   0  0  0  0  0  0
  -29.4979  -12.5140   18.2261 C   0  0  0  0  0  0
  -28.0213  -12.3605   18.6338 C   0  0  0  0  0  0
  -27.6558  -13.2185   19.8749 C   0  0  2  0  0  0
  -28.6947  -13.0486   21.0065 C   0  0  0  0  0  0
  -25.2555  -13.8201   20.5714 C   0  0  0  0  0  0
  -24.1813  -13.0449   20.9192 C   0  0  0  0  0  0
  -24.6379  -11.6923   20.8726 C   0  0  0  0  0  0
  -23.9040  -10.4305   21.0385 C   0  0  0  0  0  0
  -24.3593   -9.4232   21.9170 C   0  0  0  0  0  0
  -23.6286   -8.2262   22.0751 C   0  0  0  0  0  0
  -22.4272   -8.0285   21.3544 C   0  0  0  0  0  0
  -21.9887   -9.0254   20.4641 C   0  0  0  0  0  0
  -22.7208  -10.2140   20.3044 C   0  0  0  0  0  0
  -21.6848   -6.0728   22.5285 C   0  0  0  0  0  0
  -21.4008   -6.5626   23.8223 C   0  0  0  0  0  0
  -21.3669   -5.6782   24.9184 C   0  0  0  0  0  0
  -21.6049   -4.3043   24.7232 C   0  0  0  0  0  0
  -21.8818   -3.8138   23.4347 C   0  0  0  0  0  0
  -21.9197   -4.6955   22.3407 C   0  0  0  0  0  0
  -22.7838  -13.5248   21.1866 C   0  0  0  0  0  0
  -22.1659   -4.2137   21.0979 F   0  0  0  0  0  0
  -21.5639   -3.4528   25.7746 F   0  0  0  0  0  0
  -30.0235  -13.3538   20.4545 N   0  0  0  0  0  0
  -26.2990  -12.9384   20.3380 N   0  0  0  0  0  0
  -25.9313  -11.6528   20.5765 N   0  0  0  0  0  0
  -22.0471  -12.8237   22.0417 N   0  0  0  0  0  0
  -25.4250  -15.1919   20.4146 N   0  0  0  0  0  0
  -31.8108  -14.6752   20.0242 O   0  0  0  0  0  0
  -21.6643   -6.8873   21.4250 O   0  0  0  0  0  0
  -22.3518  -14.5557   20.6743 O   0  0  0  0  0  0
  -24.6186  -31.8653   23.2078 C   0  0  0  0  0  0
  -25.9080  -32.4797   23.8392 C   0  0  1  0  0  0
  -27.2342  -27.3686   20.1178 C   0  0  0  0  0  0
  -25.5958  -33.8600   24.2345 N   0  0  0  0  0  0
  -23.4098  -30.4888   21.5455 C   0  0  2  0  0  0
  -24.8611  -28.9506   20.1023 C   0  0  0  0  0  0
  -22.7457  -29.4638   22.4939 C   0  0  0  0  0  0
  -18.0278  -28.1333   22.8447 C   0  0  0  0  0  0
  -24.1505  -36.7284   23.2640 C   0  0  0  0  0  0
  -25.9428  -30.8106   21.3737 C   0  0  0  0  0  0
  -26.0201  -29.4411   20.7160 C   0  0  0  0  0  0
  -27.2032  -28.6562   20.7233 C   0  0  0  0  0  0
  -26.0596  -26.9230   19.4669 C   0  0  0  0  0  0
  -24.8805  -27.6950   19.4711 C   0  0  0  0  0  0
  -23.6253  -29.8256   20.1571 C   0  0  0  0  0  0
  -25.4130  -36.3093   24.0335 C   0  0  1  0  0  0
  -20.5873  -28.3642   23.1278 C   0  0  2  0  0  0
  -20.6771  -26.9370   22.5390 C   0  0  0  0  0  0
  -19.5771  -26.6358   21.5147 C   0  0  0  0  0  0
  -18.1942  -26.7881   22.1557 C   0  0  0  0  0  0
  -19.1528  -28.8798   23.2857 C   0  0  0  0  0  0
  -18.9469  -30.1407   23.8870 C   0  0  0  0  0  0
  -17.6472  -30.6549   24.0542 C   0  0  0  0  0  0
  -25.9050  -34.9455   23.5131 C   0  0  0  0  0  0
  -16.5358  -29.9041   23.6322 C   0  0  0  0  0  0
  -16.7272  -28.6455   23.0338 C   0  0  0  0  0  0
  -26.4514  -31.6582   25.0723 C   0  0  0  0  0  0
  -25.3776  -31.3644   26.1465 C   0  0  0  0  0  0
  -27.0415  -30.3060   24.6099 C   0  0  0  0  0  0
  -27.6102  -32.4300   25.7471 C   0  0  0  0  0  0
  -27.5600  -37.1811   24.8478 C   0  0  0  0  0  0
  -21.4162  -29.3020   22.3700 N   0  0  0  0  0  0
  -26.4316  -37.3785   23.9405 N   0  0  0  0  0  0
  -24.6740  -31.0725   22.0991 N   0  0  0  0  0  0
  -23.4222  -28.8187   23.2997 O   0  0  0  0  0  0
  -28.3890  -26.5928   20.2119 O   0  0  0  0  0  0
  -26.5583  -34.8910   22.4675 O   0  0  0  0  0  0
  -23.5370  -32.1440   23.7442 O   0  0  0  0  0  0
  -29.6365  -18.6610   22.5035 C   0  0  0  0  0  0
  -29.2635  -20.0397   22.4796 C   0  0  0  0  0  0
  -29.6849  -18.2082   21.2184 C   0  0  0  0  0  0
  -29.0105  -20.3557   21.1636 C   0  0  0  0  0  0
  -30.0617  -16.9213   20.6616 C   0  0  0  0  0  0
  -30.0537  -15.6764   21.2229 C   0  0  0  0  0  0
  -28.6295  -22.8459   20.9278 C   0  0  0  0  0  0
  -28.4483  -21.5471   20.5243 C   0  0  0  0  0  0
  -27.8543  -24.0672   20.4995 C   0  0  0  0  0  0
  -29.1263  -20.9128   23.7006 C   0  0  0  0  0  0
  -27.4998  -21.1847   19.3869 C   0  0  0  0  0  0
  -28.4942  -25.2299   19.6804 C   0  0  0  0  0  0
  -26.6344  -24.1191   20.8288 N   0  0  0  0  0  0
  -29.2814  -19.2351   20.3880 O   0  0  0  0  0  0
  -31.4629  -12.4189   19.1588 H   0  0  0  0  0  0
  -30.3067  -11.3395   19.8747 H   0  0  0  0  0  0
  -29.7515  -11.7862   17.4547 H   0  0  0  0  0  0
  -29.6559  -13.4975   17.7804 H   0  0  0  0  0  0
  -27.8481  -11.3053   18.8477 H   0  0  0  0  0  0
  -27.3691  -12.6083   17.7960 H   0  0  0  0  0  0
  -27.6865  -14.2602   19.5565 H   0  0  0  0  0  0
  -28.6833  -12.0263   21.3872 H   0  0  0  0  0  0
  -28.4405  -13.6812   21.8572 H   0  0  0  0  0  0
  -25.2730   -9.5728   22.4738 H   0  0  0  0  0  0
  -24.0006   -7.4653   22.7457 H   0  0  0  0  0  0
  -21.0827   -8.8763   19.8931 H   0  0  0  0  0  0
  -22.3659  -10.9675   19.6148 H   0  0  0  0  0  0
  -21.1991   -7.6131   23.9725 H   0  0  0  0  0  0
  -21.1490   -6.0503   25.9091 H   0  0  0  0  0  0
  -22.0589   -2.7595   23.2857 H   0  0  0  0  0  0
  -22.4085  -11.9907   22.4810 H   0  0  0  0  0  0
  -21.1088  -13.1265   22.2613 H   0  0  0  0  0  0
  -24.6605  -15.8476   20.5354 H   0  0  0  0  0  0
  -26.2902  -15.6386   20.1368 H   0  0  0  0  0  0
  -26.7144  -32.5520   23.1143 H   0  0  0  0  0  0
  -25.0227  -33.9767   25.0575 H   0  0  0  0  0  0
  -22.6978  -31.3057   21.4076 H   0  0  0  0  0  0
  -23.3773  -35.9617   23.3298 H   0  0  0  0  0  0
  -24.3594  -36.8899   22.2058 H   0  0  0  0  0  0
  -23.7235  -37.6477   23.6652 H   0  0  0  0  0  0
  -26.0710  -31.5820   20.6133 H   0  0  0  0  0  0
  -26.8222  -30.8587   22.0034 H   0  0  0  0  0  0
  -28.0904  -29.0234   21.2218 H   0  0  0  0  0  0
  -26.0246  -25.9614   18.9767 H   0  0  0  0  0  0
  -23.9925  -27.3155   18.9833 H   0  0  0  0  0  0
  -23.7367  -30.6045   19.4015 H   0  0  0  0  0  0
  -22.7475  -29.2531   19.8530 H   0  0  0  0  0  0
  -25.1296  -36.1975   25.0824 H   0  0  0  0  0  0
  -20.9963  -28.3240   24.1406 H   0  0  0  0  0  0
  -20.5636  -26.2259   23.3596 H   0  0  0  0  0  0
  -21.6655  -26.7414   22.1220 H   0  0  0  0  0  0
  -19.6955  -25.6263   21.1200 H   0  0  0  0  0  0
  -19.6717  -27.3146   20.6652 H   0  0  0  0  0  0
  -17.4217  -26.6591   21.3957 H   0  0  0  0  0  0
  -18.0364  -26.0009   22.8944 H   0  0  0  0  0  0
  -19.7961  -30.7191   24.2260 H   0  0  0  0  0  0
  -17.5041  -31.6234   24.5131 H   0  0  0  0  0  0
  -15.5354  -30.2932   23.7668 H   0  0  0  0  0  0
  -15.8661  -28.0776   22.7067 H   0  0  0  0  0  0
  -24.5982  -30.6968   25.7763 H   0  0  0  0  0  0
  -24.8912  -32.2759   26.4955 H   0  0  0  0  0  0
  -25.8134  -30.8792   27.0209 H   0  0  0  0  0  0
  -26.2978  -29.6719   24.1266 H   0  0  0  0  0  0
  -27.4358  -29.7400   25.4545 H   0  0  0  0  0  0
  -27.8723  -30.4408   23.9166 H   0  0  0  0  0  0
  -27.2771  -33.3623   26.2044 H   0  0  0  0  0  0
  -28.3908  -32.6817   25.0272 H   0  0  0  0  0  0
  -28.0762  -31.8405   26.5374 H   0  0  0  0  0  0
  -28.2619  -38.0115   24.7551 H   0  0  0  0  0  0
  -28.1099  -36.2650   24.6282 H   0  0  0  0  0  0
  -27.2319  -37.1418   25.8883 H   0  0  0  0  0  0
  -20.9342  -29.8794   21.6954 H   0  0  0  0  0  0
  -26.0217  -38.2876   24.1384 H   0  0  0  0  0  0
  -29.8834  -18.0715   23.3748 H   0  0  0  0  0  0
  -30.4705  -16.9967   19.6628 H   0  0  0  0  0  0
  -29.6248  -15.5374   22.2040 H   0  0  0  0  0  0
  -29.3584  -23.0639   21.6928 H   0  0  0  0  0  0
  -29.6326  -20.4522   24.5495 H   0  0  0  0  0  0
  -28.0772  -21.0446   23.9663 H   0  0  0  0  0  0
  -29.5804  -21.8905   23.5487 H   0  0  0  0  0  0
  -28.0427  -20.6585   18.6013 H   0  0  0  0  0  0
  -27.0227  -22.0475   18.9241 H   0  0  0  0  0  0
  -26.7104  -20.5257   19.7495 H   0  0  0  0  0  0
  -29.5611  -25.0196   19.5966 H   0  0  0  0  0  0
  -28.1166  -25.1979   18.6583 H   0  0  0  0  0  0
  -26.3688  -23.2945   21.3521 H   0  0  0  0  0  0
  1 25  1  0  0  0
  1 30  2  0  0  0
  1 76  1  0  0  0
  2  3  1  0  0  0
  2 25  1  0  0  0
  2 85  1  0  0  0
  2 86  1  0  0  0
  3  4  1  0  0  0
  3 87  1  0  0  0
  3 88  1  0  0  0
  4  5  1  0  0  0
  4 89  1  0  0  0
  4 90  1  0  0  0
  5  6  1  0  0  0
  5 26  1  0  0  0
  5 91  1  0  0  0
  6 25  1  0  0  0
  6 92  1  0  0  0
  6 93  1  0  0  0
  7  8  2  0  0  0
  7 26  1  0  0  0
  7 29  1  0  0  0
  8  9  1  0  0  0
  8 22  1  0  0  0
  9 10  1  0  0  0
  9 27  2  0  0  0
 10 11  2  0  0  0
 10 15  1  0  0  0
 11 12  1  0  0  0
 11 94  1  0  0  0
 12 13  2  0  0  0
 12 95  1  0  0  0
 13 14  1  0  0  0
 13 31  1  0  0  0
 14 15  2  0  0  0
 14 96  1  0  0  0
 15 97  1  0  0  0
 16 17  2  0  0  0
 16 21  1  0  0  0
 16 31  1  0  0  0
 17 18  1  0  0  0
 17 98  1  0  0  0
 18 19  2  0  0  0
 18 99  1  0  0  0
 19 20  1  0  0  0
 19 24  1  0  0  0
 20 21  2  0  0  0
 20100  1  0  0  0
 21 23  1  0  0  0
 22 28  1  0  0  0
 22 32  2  0  0  0
 26 27  1  0  0  0
 28101  1  0  0  0
 28102  1  0  0  0
 29103  1  0  0  0
 29104  1  0  0  0
 33 34  1  0  0  0
 33 66  1  0  0  0
 33 70  2  0  0  0
 34 36  1  0  0  0
 34 59  1  0  0  0
 34105  1  0  0  0
 35 44  2  0  0  0
 35 45  1  0  0  0
 35 68  1  0  0  0
 36 56  1  0  0  0
 36106  1  0  0  0
 37 39  1  0  0  0
 37 47  1  0  0  0
 37 66  1  0  0  0
 37107  1  0  0  0
 38 43  2  0  0  0
 38 46  1  0  0  0
 38 47  1  0  0  0
 39 64  1  0  0  0
 39 67  2  0  0  0
 40 52  1  0  0  0
 40 53  2  0  0  0
 40 58  1  0  0  0
 41108  1  0  0  0
 41109  1  0  0  0
 41110  1  0  0  0
 41 48  1  0  0  0
 42 43  1  0  0  0
 42 66  1  0  0  0
 42111  1  0  0  0
 42112  1  0  0  0
 43 44  1  0  0  0
 44113  1  0  0  0
 45 46  2  0  0  0
 45114  1  0  0  0
 46115  1  0  0  0
 47116  1  0  0  0
 47117  1  0  0  0
 48 56  1  0  0  0
 48 65  1  0  0  0
 48118  1  0  0  0
 49 50  1  0  0  0
 49 53  1  0  0  0
 49 64  1  0  0  0
 49119  1  0  0  0
 50 51  1  0  0  0
 50120  1  0  0  0
 50121  1  0  0  0
 51 52  1  0  0  0
 51122  1  0  0  0
 51123  1  0  0  0
 52124  1  0  0  0
 52125  1  0  0  0
 53 54  1  0  0  0
 54 55  2  0  0  0
 54126  1  0  0  0
 55 57  1  0  0  0
 55127  1  0  0  0
 56 69  2  0  0  0
 57 58  2  0  0  0
 57128  1  0  0  0
 58129  1  0  0  0
 59 60  1  0  0  0
 59 61  1  0  0  0
 59 62  1  0  0  0
 60130  1  0  0  0
 60131  1  0  0  0
 60132  1  0  0  0
 61133  1  0  0  0
 61134  1  0  0  0
 61135  1  0  0  0
 62136  1  0  0  0
 62137  1  0  0  0
 62138  1  0  0  0
 63 65  1  0  0  0
 63139  1  0  0  0
 63140  1  0  0  0
 63141  1  0  0  0
 64142  1  0  0  0
 65143  1  0  0  0
 68 82  1  0  0  0
 71 72  1  0  0  0
 71 73  2  0  0  0
 71144  1  0  0  0
 72 74  2  0  0  0
 72 80  1  0  0  0
 73 75  1  0  0  0
 73 84  1  0  0  0
 74 78  1  0  0  0
 74 84  1  0  0  0
 75 76  2  0  0  0
 75145  1  0  0  0
 76146  1  0  0  0
 77 78  2  0  0  0
 77 79  1  0  0  0
 77147  1  0  0  0
 78 81  1  0  0  0
 79 82  1  0  0  0
 79 83  2  0  0  0
 80148  1  0  0  0
 80149  1  0  0  0
 80150  1  0  0  0
 81151  1  0  0  0
 81152  1  0  0  0
 81153  1  0  0  0
 82154  1  0  0  0
 82155  1  0  0  0
 83156  1  0  0  0
M  ISO  4   1 100  68 101  76 100  82 101
M  END
> <chiral flag>
0

> <version>
0

> <s_m_source_file>
/data/baiqing/PycharmProjects/Reinvent-master-3.2/result/LINK_invent/BTK/process_docking_weight1_custom_product_contain_oxygen_bond_distance_aromatic_linkinvent_7_9_3/rearranged_h_0123.sdf

> <i_m_source_file_index>
85

> <r_mmod_Potential_Energy-OPLS-2005>
13.4565420150757

> <r_mmod_Stretch_Energy-OPLS-2005>
55.9111671447754

> <r_mmod_Bend_Energy-OPLS-2005>
132.100189208984

> <r_mmod_Torsional_Energy-OPLS-2005>
209.888641357422

> <r_mmod_Improper_Torsional_Energy-OPLS-2005>
5.02339172363281

> <r_mmod_Van_der_Waal_Energy-OPLS-2005>
128.215240478516

> <r_mmod_Electrostatic_Energy-OPLS-2005>
-341.810729980469

> <r_mmod_Solvation_Energy-OPLS-2005>
-202.641738891602

> <b_mmod_Minimization_Converged-OPLS-2005>
0

> <r_mmod_RMS_Derivative-OPLS-2005>
2.8337550163269

$$$$
85
                    3D
 Structure written by MMmdl.
160168  0  0  1  0            999 V2000
  -30.6315  -14.6440   20.5083 C   0  0  0  0  0  0
  -30.4380  -12.3962   19.4588 C   0  0  0  0  0  0
  -29.5097  -12.5098   18.2290 C   0  0  0  0  0  0
  -28.0327  -12.3469   18.6395 C   0  0  0  0  0  0
  -27.6541  -13.2194   19.8658 C   0  0  2  0  0  0
  -28.6980  -13.0793   20.9973 C   0  0  0  0  0  0
  -25.2539  -13.8159   20.5640 C   0  0  0  0  0  0
  -24.1823  -13.0427   20.9190 C   0  0  0  0  0  0
  -24.6401  -11.6903   20.8751 C   0  0  0  0  0  0
  -23.9069  -10.4287   21.0413 C   0  0  0  0  0  0
  -24.3618   -9.4202   21.9190 C   0  0  0  0  0  0
  -23.6290   -8.2240   22.0758 C   0  0  0  0  0  0
  -22.4274   -8.0280   21.3546 C   0  0  0  0  0  0
  -21.9912   -9.0253   20.4647 C   0  0  0  0  0  0
  -22.7243  -10.2131   20.3058 C   0  0  0  0  0  0
  -21.6852   -6.0734   22.5278 C   0  0  0  0  0  0
  -21.4015   -6.5639   23.8211 C   0  0  0  0  0  0
  -21.3658   -5.6791   24.9172 C   0  0  0  0  0  0
  -21.6041   -4.3054   24.7223 C   0  0  0  0  0  0
  -21.8820   -3.8145   23.4345 C   0  0  0  0  0  0
  -21.9193   -4.6962   22.3401 C   0  0  0  0  0  0
  -22.7844  -13.5223   21.1850 C   0  0  0  0  0  0
  -22.1661   -4.2148   21.0979 F   0  0  0  0  0  0
  -21.5628   -3.4538   25.7736 F   0  0  0  0  0  0
  -30.0153  -13.4204   20.4364 N   0  0  0  0  0  0
  -26.2991  -12.9357   20.3325 N   0  0  0  0  0  0
  -25.9336  -11.6510   20.5780 N   0  0  0  0  0  0
  -22.0485  -12.8219   22.0407 N   0  0  0  0  0  0
  -25.4191  -15.1864   20.3935 N   0  0  0  0  0  0
  -31.7890  -14.7951   20.1071 O   0  0  0  0  0  0
  -21.6637   -6.8877   21.4239 O   0  0  0  0  0  0
  -22.3531  -14.5530   20.6696 O   0  0  0  0  0  0
  -24.6265  -31.8605   23.2038 C   0  0  0  0  0  0
  -25.9114  -32.4783   23.8363 C   0  0  1  0  0  0
  -27.2224  -27.3166   20.1129 C   0  0  0  0  0  0
  -25.5929  -33.8584   24.2285 N   0  0  0  0  0  0
  -23.4201  -30.4862   21.5466 C   0  0  2  0  0  0
  -24.8662  -28.9461   20.1099 C   0  0  0  0  0  0
  -22.7481  -29.4629   22.4933 C   0  0  0  0  0  0
  -18.0287  -28.1386   22.8485 C   0  0  0  0  0  0
  -24.1489  -36.7291   23.2636 C   0  0  0  0  0  0
  -25.9630  -30.7908   21.3767 C   0  0  0  0  0  0
  -26.0367  -29.4195   20.7158 C   0  0  0  0  0  0
  -27.2175  -28.6168   20.7085 C   0  0  0  0  0  0
  -26.0249  -26.9033   19.4787 C   0  0  0  0  0  0
  -24.8627  -27.6933   19.4829 C   0  0  0  0  0  0
  -23.6347  -29.8258   20.1606 C   0  0  0  0  0  0
  -25.4112  -36.3084   24.0329 C   0  0  1  0  0  0
  -20.5890  -28.3689   23.1281 C   0  0  2  0  0  0
  -20.6780  -26.9412   22.5406 C   0  0  0  0  0  0
  -19.5754  -26.6384   21.5213 C   0  0  0  0  0  0
  -18.1931  -26.7927   22.1622 C   0  0  0  0  0  0
  -19.1541  -28.8852   23.2880 C   0  0  0  0  0  0
  -18.9464  -30.1455   23.8897 C   0  0  0  0  0  0
  -17.6464  -30.6589   24.0565 C   0  0  0  0  0  0
  -25.9051  -34.9455   23.5105 C   0  0  0  0  0  0
  -16.5355  -29.9086   23.6334 C   0  0  0  0  0  0
  -16.7274  -28.6507   23.0350 C   0  0  0  0  0  0
  -26.4495  -31.6590   25.0732 C   0  0  0  0  0  0
  -25.3726  -31.3729   26.1457 C   0  0  0  0  0  0
  -27.0338  -30.3012   24.6184 C   0  0  0  0  0  0
  -27.6054  -32.4325   25.7502 C   0  0  0  0  0  0
  -27.5581  -37.1797   24.8459 C   0  0  0  0  0  0
  -21.4194  -29.3048   22.3680 N   0  0  0  0  0  0
  -26.4286  -37.3782   23.9414 N   0  0  0  0  0  0
  -24.6887  -31.0619   22.0993 N   0  0  0  0  0  0
  -23.4208  -28.8163   23.3005 O   0  0  0  0  0  0
  -28.3331  -26.4537   20.1720 O   0  0  0  0  0  0
  -26.5620  -34.8923   22.4672 O   0  0  0  0  0  0
  -23.5428  -32.1401   23.7364 O   0  0  0  0  0  0
  -29.0586  -19.4297   21.2881 C   0  0  0  0  0  0
  -30.9493  -17.8172   20.0076 C   0  0  0  0  0  0
  -30.0733  -20.1007   20.5570 C   0  0  0  0  0  0
  -29.0065  -18.0051   21.4110 C   0  0  0  0  0  0
  -31.0161  -19.2424   19.8929 C   0  0  0  0  0  0
  -29.9605  -17.1532   20.7783 C   0  0  0  0  0  0
  -32.0112  -21.6855   17.3247 C   0  0  0  0  0  0
  -29.0649  -22.6011   20.3205 C   0  0  0  0  0  0
  -31.6189  -20.4774   17.7570 C   0  0  0  0  0  0
  -29.2021  -23.9738   20.2679 C   0  0  0  0  0  0
  -30.2113  -21.6453   20.5898 C   0  0  0  0  0  0
  -27.9111  -17.3980   22.2704 C   0  0  0  0  0  0
  -32.1312  -19.8105   19.0184 C   0  0  0  0  0  0
  -28.0826  -25.0104   19.9429 C   0  0  0  0  0  0
  -29.8472  -15.6941   20.9151 N   0  0  0  0  0  0
  -31.3168  -22.1271   20.8548 O   0  0  0  0  0  0
  -31.4800  -12.5170   19.1575 H   0  0  0  0  0  0
  -30.3704  -11.4015   19.9021 H   0  0  0  0  0  0
  -29.7756  -11.7573   17.4855 H   0  0  0  0  0  0
  -29.6521  -13.4789   17.7481 H   0  0  0  0  0  0
  -27.8709  -11.2939   18.8729 H   0  0  0  0  0  0
  -27.3785  -12.5743   17.7971 H   0  0  0  0  0  0
  -27.6721  -14.2548   19.5249 H   0  0  0  0  0  0
  -28.7090  -12.0594   21.3841 H   0  0  0  0  0  0
  -28.4402  -13.7139   21.8463 H   0  0  0  0  0  0
  -25.2762   -9.5675   22.4767 H   0  0  0  0  0  0
  -23.9993   -7.4632   22.7481 H   0  0  0  0  0  0
  -21.0843   -8.8776   19.8953 H   0  0  0  0  0  0
  -22.3707  -10.9671   19.6167 H   0  0  0  0  0  0
  -21.2008   -7.6148   23.9714 H   0  0  0  0  0  0
  -21.1478   -6.0521   25.9075 H   0  0  0  0  0  0
  -22.0600   -2.7606   23.2846 H   0  0  0  0  0  0
  -22.4094  -11.9877   22.4794 H   0  0  0  0  0  0
  -21.1104  -13.1250   22.2612 H   0  0  0  0  0  0
  -24.6393  -15.8298   20.4730 H   0  0  0  0  0  0
  -26.2470  -15.6158   20.0014 H   0  0  0  0  0  0
  -26.7181  -32.5455   23.1111 H   0  0  0  0  0  0
  -25.0082  -33.9731   25.0435 H   0  0  0  0  0  0
  -22.7136  -31.3069   21.4053 H   0  0  0  0  0  0
  -23.3759  -35.9615   23.3285 H   0  0  0  0  0  0
  -24.3584  -36.8923   22.2053 H   0  0  0  0  0  0
  -23.7231  -37.6483   23.6668 H   0  0  0  0  0  0
  -26.0959  -31.5568   20.6114 H   0  0  0  0  0  0
  -26.8429  -30.8367   22.0068 H   0  0  0  0  0  0
  -28.1138  -28.9745   21.1956 H   0  0  0  0  0  0
  -25.9458  -25.9500   18.9790 H   0  0  0  0  0  0
  -23.9663  -27.3255   19.0024 H   0  0  0  0  0  0
  -23.7547  -30.6047   19.4068 H   0  0  0  0  0  0
  -22.7545  -29.2568   19.8560 H   0  0  0  0  0  0
  -25.1291  -36.1933   25.0820 H   0  0  0  0  0  0
  -20.9979  -28.3259   24.1403 H   0  0  0  0  0  0
  -20.5688  -26.2296   23.3605 H   0  0  0  0  0  0
  -21.6648  -26.7444   22.1193 H   0  0  0  0  0  0
  -19.6919  -25.6298   21.1234 H   0  0  0  0  0  0
  -19.6691  -27.3202   20.6751 H   0  0  0  0  0  0
  -17.4203  -26.6678   21.4022 H   0  0  0  0  0  0
  -18.0326  -26.0066   22.9013 H   0  0  0  0  0  0
  -19.7943  -30.7272   24.2261 H   0  0  0  0  0  0
  -17.5021  -31.6268   24.5165 H   0  0  0  0  0  0
  -15.5355  -30.2990   23.7662 H   0  0  0  0  0  0
  -15.8671  -28.0830   22.7061 H   0  0  0  0  0  0
  -24.5908  -30.7067   25.7788 H   0  0  0  0  0  0
  -24.8909  -32.2897   26.4872 H   0  0  0  0  0  0
  -25.8047  -30.8917   27.0240 H   0  0  0  0  0  0
  -26.2914  -29.6765   24.1202 H   0  0  0  0  0  0
  -27.4032  -29.7264   25.4687 H   0  0  0  0  0  0
  -27.8784  -30.4300   23.9411 H   0  0  0  0  0  0
  -27.2666  -33.3634   26.2066 H   0  0  0  0  0  0
  -28.3873  -32.6870   25.0334 H   0  0  0  0  0  0
  -28.0712  -31.8457   26.5430 H   0  0  0  0  0  0
  -28.2579  -38.0115   24.7537 H   0  0  0  0  0  0
  -28.1099  -36.2647   24.6246 H   0  0  0  0  0  0
  -27.2305  -37.1393   25.8863 H   0  0  0  0  0  0
  -20.9370  -29.8780   21.6899 H   0  0  0  0  0  0
  -26.0165  -38.2851   24.1441 H   0  0  0  0  0  0
  -28.3282  -20.0279   21.8158 H   0  0  0  0  0  0
  -31.6839  -17.2246   19.4820 H   0  0  0  0  0  0
  -31.6147  -22.1071   16.4118 H   0  0  0  0  0  0
  -32.7323  -22.2738   17.8748 H   0  0  0  0  0  0
  -28.0972  -22.1553   20.1459 H   0  0  0  0  0  0
  -30.8986  -19.9148   17.1789 H   0  0  0  0  0  0
  -30.1784  -24.4050   20.4382 H   0  0  0  0  0  0
  -27.2791  -18.1641   22.7204 H   0  0  0  0  0  0
  -28.3427  -16.8086   23.0801 H   0  0  0  0  0  0
  -27.2714  -16.7493   21.6748 H   0  0  0  0  0  0
  -32.7970  -19.0052   18.7048 H   0  0  0  0  0  0
  -32.7621  -20.4903   19.5912 H   0  0  0  0  0  0
  -27.1994  -24.6979   20.5025 H   0  0  0  0  0  0
  -27.8566  -24.8736   18.8847 H   0  0  0  0  0  0
  -28.9710  -15.3850   21.3051 H   0  0  0  0  0  0
  1 25  1  0  0  0
  1 30  2  0  0  0
  1 85  1  0  0  0
  2  3  1  0  0  0
  2 25  1  0  0  0
  2 87  1  0  0  0
  2 88  1  0  0  0
  3  4  1  0  0  0
  3 89  1  0  0  0
  3 90  1  0  0  0
  4  5  1  0  0  0
  4 91  1  0  0  0
  4 92  1  0  0  0
  5  6  1  0  0  0
  5 26  1  0  0  0
  5 93  1  0  0  0
  6 25  1  0  0  0
  6 94  1  0  0  0
  6 95  1  0  0  0
  7  8  2  0  0  0
  7 26  1  0  0  0
  7 29  1  0  0  0
  8  9  1  0  0  0
  8 22  1  0  0  0
  9 10  1  0  0  0
  9 27  2  0  0  0
 10 11  2  0  0  0
 10 15  1  0  0  0
 11 12  1  0  0  0
 11 96  1  0  0  0
 12 13  2  0  0  0
 12 97  1  0  0  0
 13 14  1  0  0  0
 13 31  1  0  0  0
 14 15  2  0  0  0
 14 98  1  0  0  0
 15 99  1  0  0  0
 16 17  2  0  0  0
 16 21  1  0  0  0
 16 31  1  0  0  0
 17 18  1  0  0  0
 17100  1  0  0  0
 18 19  2  0  0  0
 18101  1  0  0  0
 19 20  1  0  0  0
 19 24  1  0  0  0
 20 21  2  0  0  0
 20102  1  0  0  0
 21 23  1  0  0  0
 22 28  1  0  0  0
 22 32  2  0  0  0
 26 27  1  0  0  0
 28103  1  0  0  0
 28104  1  0  0  0
 29105  1  0  0  0
 29106  1  0  0  0
 33 34  1  0  0  0
 33 66  1  0  0  0
 33 70  2  0  0  0
 34 36  1  0  0  0
 34 59  1  0  0  0
 34107  1  0  0  0
 35 44  2  0  0  0
 35 45  1  0  0  0
 35 68  1  0  0  0
 36 56  1  0  0  0
 36108  1  0  0  0
 37 39  1  0  0  0
 37 47  1  0  0  0
 37 66  1  0  0  0
 37109  1  0  0  0
 38 43  2  0  0  0
 38 46  1  0  0  0
 38 47  1  0  0  0
 39 64  1  0  0  0
 39 67  2  0  0  0
 40 52  1  0  0  0
 40 53  2  0  0  0
 40 58  1  0  0  0
 41110  1  0  0  0
 41111  1  0  0  0
 41112  1  0  0  0
 41 48  1  0  0  0
 42 43  1  0  0  0
 42 66  1  0  0  0
 42113  1  0  0  0
 42114  1  0  0  0
 43 44  1  0  0  0
 44115  1  0  0  0
 45 46  2  0  0  0
 45116  1  0  0  0
 46117  1  0  0  0
 47118  1  0  0  0
 47119  1  0  0  0
 48 56  1  0  0  0
 48 65  1  0  0  0
 48120  1  0  0  0
 49 50  1  0  0  0
 49 53  1  0  0  0
 49 64  1  0  0  0
 49121  1  0  0  0
 50 51  1  0  0  0
 50122  1  0  0  0
 50123  1  0  0  0
 51 52  1  0  0  0
 51124  1  0  0  0
 51125  1  0  0  0
 52126  1  0  0  0
 52127  1  0  0  0
 53 54  1  0  0  0
 54 55  2  0  0  0
 54128  1  0  0  0
 55 57  1  0  0  0
 55129  1  0  0  0
 56 69  2  0  0  0
 57 58  2  0  0  0
 57130  1  0  0  0
 58131  1  0  0  0
 59 60  1  0  0  0
 59 61  1  0  0  0
 59 62  1  0  0  0
 60132  1  0  0  0
 60133  1  0  0  0
 60134  1  0  0  0
 61135  1  0  0  0
 61136  1  0  0  0
 61137  1  0  0  0
 62138  1  0  0  0
 62139  1  0  0  0
 62140  1  0  0  0
 63 65  1  0  0  0
 63141  1  0  0  0
 63142  1  0  0  0
 63143  1  0  0  0
 64144  1  0  0  0
 65145  1  0  0  0
 68 84  1  0  0  0
 71 73  2  0  0  0
 71 74  1  0  0  0
 71146  1  0  0  0
 72 75  2  0  0  0
 72 76  1  0  0  0
 72147  1  0  0  0
 73 75  1  0  0  0
 73 81  1  0  0  0
 74 76  2  0  0  0
 74 82  1  0  0  0
 75 83  1  0  0  0
 76 85  1  0  0  0
 77 79  2  0  0  0
 77148  1  0  0  0
 77149  1  0  0  0
 78 80  2  0  0  0
 78 81  1  0  0  0
 78150  1  0  0  0
 79 83  1  0  0  0
 79151  1  0  0  0
 80 84  1  0  0  0
 80152  1  0  0  0
 81 86  2  0  0  0
 82153  1  0  0  0
 82154  1  0  0  0
 82155  1  0  0  0
 83156  1  0  0  0
 83157  1  0  0  0
 84158  1  0  0  0
 84159  1  0  0  0
 85160  1  0  0  0
M  ISO  4   1 100  68 101  84 101  85 100
M  END
> <chiral flag>
0

> <version>
0

> <s_m_source_file>
/data/baiqing/PycharmProjects/Reinvent-master-3.2/result/LINK_invent/BTK/process_docking_weight1_custom_product_contain_oxygen_bond_distance_aromatic_linkinvent_7_9_3/rearranged_h_0123.sdf

> <i_m_source_file_index>
86

> <r_mmod_Potential_Energy-OPLS-2005>
74.3338470458984

> <r_mmod_Stretch_Energy-OPLS-2005>
84.6181411743164

> <r_mmod_Bend_Energy-OPLS-2005>
133.762619018555

> <r_mmod_Torsional_Energy-OPLS-2005>
234.6357421875

> <r_mmod_Improper_Torsional_Energy-OPLS-2005>
4.22226285934448

> <r_mmod_Van_der_Waal_Energy-OPLS-2005>
150.169342041016

> <r_mmod_Electrostatic_Energy-OPLS-2005>
-368.076049804688

> <r_mmod_Solvation_Energy-OPLS-2005>
-215.221466064453

> <b_mmod_Minimization_Converged-OPLS-2005>
0

> <r_mmod_RMS_Derivative-OPLS-2005>
0.49783194065094

$$$$
86
                    3D
 Structure written by MMmdl.
157165  0  0  1  0            999 V2000
  -30.6718  -14.4963   20.5557 C   0  0  0  0  0  0
  -30.4335  -12.3186   19.4181 C   0  0  0  0  0  0
  -29.4963  -12.5061   18.2058 C   0  0  0  0  0  0
  -28.0176  -12.3585   18.6204 C   0  0  0  0  0  0
  -27.6613  -13.1954   19.8775 C   0  0  2  0  0  0
  -28.7074  -12.9758   20.9941 C   0  0  0  0  0  0
  -25.2582  -13.8104   20.5711 C   0  0  0  0  0  0
  -24.1823  -13.0396   20.9179 C   0  0  0  0  0  0
  -24.6377  -11.6867   20.8736 C   0  0  0  0  0  0
  -23.9043  -10.4267   21.0406 C   0  0  0  0  0  0
  -24.3602   -9.4188   21.9184 C   0  0  0  0  0  0
  -23.6279   -8.2225   22.0753 C   0  0  0  0  0  0
  -22.4260   -8.0268   21.3544 C   0  0  0  0  0  0
  -21.9892   -9.0239   20.4646 C   0  0  0  0  0  0
  -22.7220  -10.2116   20.3054 C   0  0  0  0  0  0
  -21.6847   -6.0728   22.5280 C   0  0  0  0  0  0
  -21.4008   -6.5634   23.8213 C   0  0  0  0  0  0
  -21.3657   -5.6788   24.9175 C   0  0  0  0  0  0
  -21.6046   -4.3052   24.7226 C   0  0  0  0  0  0
  -21.8820   -3.8142   23.4349 C   0  0  0  0  0  0
  -21.9191   -4.6957   22.3405 C   0  0  0  0  0  0
  -22.7853  -13.5215   21.1846 C   0  0  0  0  0  0
  -22.1660   -4.2145   21.0982 F   0  0  0  0  0  0
  -21.5631   -3.4537   25.7740 F   0  0  0  0  0  0
  -30.0361  -13.2973   20.4408 N   0  0  0  0  0  0
  -26.3020  -12.9264   20.3393 N   0  0  0  0  0  0
  -25.9302  -11.6435   20.5774 N   0  0  0  0  0  0
  -22.0487  -12.8218   22.0406 N   0  0  0  0  0  0
  -25.4268  -15.1823   20.4184 N   0  0  0  0  0  0
  -31.8078  -14.7029   20.1183 O   0  0  0  0  0  0
  -21.6628   -6.8866   21.4240 O   0  0  0  0  0  0
  -22.3549  -14.5530   20.6701 O   0  0  0  0  0  0
  -24.6147  -31.8674   23.2098 C   0  0  0  0  0  0
  -25.9041  -32.4818   23.8393 C   0  0  1  0  0  0
  -27.2430  -27.4300   20.0844 C   0  0  0  0  0  0
  -25.5898  -33.8619   24.2323 N   0  0  0  0  0  0
  -23.4031  -30.4903   21.5498 C   0  0  2  0  0  0
  -24.8497  -28.9529   20.1153 C   0  0  0  0  0  0
  -22.7407  -29.4657   22.4987 C   0  0  0  0  0  0
  -18.0272  -28.1378   22.8495 C   0  0  0  0  0  0
  -24.1486  -36.7313   23.2637 C   0  0  0  0  0  0
  -25.9324  -30.8269   21.3667 C   0  0  0  0  0  0
  -26.0080  -29.4593   20.7166 C   0  0  0  0  0  0
  -27.2009  -28.6998   20.7086 C   0  0  0  0  0  0
  -26.0599  -26.9356   19.4869 C   0  0  0  0  0  0
  -24.8697  -27.6879   19.5029 C   0  0  0  0  0  0
  -23.6122  -29.8211   20.1646 C   0  0  0  0  0  0
  -25.4108  -36.3112   24.0336 C   0  0  1  0  0  0
  -20.5862  -28.3667   23.1318 C   0  0  2  0  0  0
  -20.6762  -26.9401   22.5422 C   0  0  0  0  0  0
  -19.5741  -26.6388   21.5215 C   0  0  0  0  0  0
  -18.1918  -26.7927   22.1622 C   0  0  0  0  0  0
  -19.1522  -28.8838   23.2906 C   0  0  0  0  0  0
  -18.9450  -30.1443   23.8920 C   0  0  0  0  0  0
  -17.6453  -30.6584   24.0570 C   0  0  0  0  0  0
  -25.9036  -34.9476   23.5128 C   0  0  0  0  0  0
  -16.5345  -29.9090   23.6325 C   0  0  0  0  0  0
  -16.7263  -28.6504   23.0350 C   0  0  0  0  0  0
  -26.4468  -31.6602   25.0725 C   0  0  0  0  0  0
  -25.3736  -31.3716   26.1477 C   0  0  0  0  0  0
  -27.0287  -30.3038   24.6109 C   0  0  0  0  0  0
  -27.6056  -32.4314   25.7477 C   0  0  0  0  0  0
  -27.5585  -37.1807   24.8462 C   0  0  0  0  0  0
  -21.4135  -29.3035   22.3724 N   0  0  0  0  0  0
  -26.4294  -37.3797   23.9412 N   0  0  0  0  0  0
  -24.6681  -31.0765   22.1003 N   0  0  0  0  0  0
  -23.4174  -28.8201   23.3036 O   0  0  0  0  0  0
  -28.4301  -26.7175   20.0974 O   0  0  0  0  0  0
  -26.5602  -34.8928   22.4692 O   0  0  0  0  0  0
  -23.5339  -32.1433   23.7487 O   0  0  0  0  0  0
  -29.3103  -19.0142   19.8790 C   0  0  0  0  0  0
  -30.8500  -17.6400   21.7822 C   0  0  0  0  0  0
  -29.3030  -17.5992   19.9057 C   0  0  0  0  0  0
  -30.0574  -16.8959   20.8808 C   0  0  0  0  0  0
  -30.0805  -19.7666   20.8002 C   0  0  0  0  0  0
  -30.8685  -19.0533   21.7345 C   0  0  0  0  0  0
  -28.4671  -16.8665   18.8723 C   0  0  0  0  0  0
  -28.2669  -24.2622   19.4799 C   0  0  0  0  0  0
  -29.3425  -23.4287   20.2287 C   0  0  0  0  0  0
  -28.6638  -25.7144   19.0970 C   0  0  0  0  0  0
  -29.1311  -21.8971   20.0971 C   0  0  0  0  0  0
  -29.9013  -15.4851   21.0520 N   0  0  0  0  0  0
  -30.1104  -21.1564   20.8383 O   0  0  0  0  0  0
  -31.6310  -19.7352   22.6240 F   0  0  0  0  0  0
  -31.4752  -12.4358   19.1141 H   0  0  0  0  0  0
  -30.3514  -11.3059   19.8156 H   0  0  0  0  0  0
  -29.7390  -11.7814   17.4275 H   0  0  0  0  0  0
  -29.6566  -13.4914   17.7653 H   0  0  0  0  0  0
  -27.8338  -11.3016   18.8173 H   0  0  0  0  0  0
  -27.3644  -12.6295   17.7902 H   0  0  0  0  0  0
  -27.6995  -14.2403   19.5798 H   0  0  0  0  0  0
  -28.6923  -11.9365   21.3255 H   0  0  0  0  0  0
  -28.4669  -13.5631   21.8816 H   0  0  0  0  0  0
  -25.2750   -9.5666   22.4756 H   0  0  0  0  0  0
  -23.9991   -7.4616   22.7471 H   0  0  0  0  0  0
  -21.0823   -8.8756   19.8954 H   0  0  0  0  0  0
  -22.3681  -10.9655   19.6162 H   0  0  0  0  0  0
  -21.1994   -7.6141   23.9714 H   0  0  0  0  0  0
  -21.1482   -6.0519   25.9078 H   0  0  0  0  0  0
  -22.0601   -2.7605   23.2851 H   0  0  0  0  0  0
  -22.4090  -11.9872   22.4790 H   0  0  0  0  0  0
  -21.1113  -13.1261   22.2619 H   0  0  0  0  0  0
  -24.6590  -15.8346   20.5356 H   0  0  0  0  0  0
  -26.2848  -15.6296   20.1279 H   0  0  0  0  0  0
  -26.7113  -32.5524   23.1157 H   0  0  0  0  0  0
  -25.0052  -33.9782   25.0470 H   0  0  0  0  0  0
  -22.6925  -31.3074   21.4097 H   0  0  0  0  0  0
  -23.3750  -35.9642   23.3299 H   0  0  0  0  0  0
  -24.3584  -36.8928   22.2052 H   0  0  0  0  0  0
  -23.7231  -37.6514   23.6652 H   0  0  0  0  0  0
  -26.0479  -31.5909   20.5965 H   0  0  0  0  0  0
  -26.8193  -30.8803   21.9863 H   0  0  0  0  0  0
  -28.0951  -29.0888   21.1751 H   0  0  0  0  0  0
  -26.0360  -25.9658   19.0126 H   0  0  0  0  0  0
  -23.9773  -27.2885   19.0410 H   0  0  0  0  0  0
  -23.7215  -30.5952   19.4041 H   0  0  0  0  0  0
  -22.7358  -29.2417   19.8686 H   0  0  0  0  0  0
  -25.1284  -36.1977   25.0829 H   0  0  0  0  0  0
  -20.9956  -28.3234   24.1438 H   0  0  0  0  0  0
  -20.5664  -26.2275   23.3611 H   0  0  0  0  0  0
  -21.6633  -26.7443   22.1216 H   0  0  0  0  0  0
  -19.6903  -25.6302   21.1235 H   0  0  0  0  0  0
  -19.6681  -27.3209   20.6754 H   0  0  0  0  0  0
  -17.4190  -26.6685   21.4020 H   0  0  0  0  0  0
  -18.0313  -26.0062   22.9009 H   0  0  0  0  0  0
  -19.7926  -30.7254   24.2300 H   0  0  0  0  0  0
  -17.5008  -31.6268   24.5166 H   0  0  0  0  0  0
  -15.5347  -30.3002   23.7633 H   0  0  0  0  0  0
  -15.8661  -28.0831   22.7057 H   0  0  0  0  0  0
  -24.5909  -30.7060   25.7819 H   0  0  0  0  0  0
  -24.8928  -32.2872   26.4930 H   0  0  0  0  0  0
  -25.8091  -30.8884   27.0232 H   0  0  0  0  0  0
  -26.2823  -29.6808   24.1164 H   0  0  0  0  0  0
  -27.4045  -29.7270   25.4571 H   0  0  0  0  0  0
  -27.8670  -30.4346   23.9261 H   0  0  0  0  0  0
  -27.2695  -33.3613   26.2074 H   0  0  0  0  0  0
  -28.3852  -32.6869   25.0288 H   0  0  0  0  0  0
  -28.0737  -31.8421   26.5372 H   0  0  0  0  0  0
  -28.2603  -38.0105   24.7518 H   0  0  0  0  0  0
  -28.1078  -36.2639   24.6270 H   0  0  0  0  0  0
  -27.2308  -37.1436   25.8866 H   0  0  0  0  0  0
  -20.9296  -29.8756   21.6945 H   0  0  0  0  0  0
  -26.0183  -38.2873   24.1421 H   0  0  0  0  0  0
  -28.7047  -19.5094   19.1355 H   0  0  0  0  0  0
  -31.4262  -17.1341   22.5428 H   0  0  0  0  0  0
  -28.2907  -17.4916   17.9963 H   0  0  0  0  0  0
  -27.4987  -16.6015   19.2896 H   0  0  0  0  0  0
  -28.9663  -15.9626   18.5236 H   0  0  0  0  0  0
  -27.3283  -24.2518   20.0342 H   0  0  0  0  0  0
  -28.0541  -23.7459   18.5428 H   0  0  0  0  0  0
  -29.3593  -23.7184   21.2798 H   0  0  0  0  0  0
  -30.3297  -23.6677   19.8320 H   0  0  0  0  0  0
  -28.1708  -25.9992   18.1660 H   0  0  0  0  0  0
  -29.7258  -25.7398   18.8520 H   0  0  0  0  0  0
  -29.1924  -21.6364   19.0399 H   0  0  0  0  0  0
  -28.1328  -21.6290   20.4471 H   0  0  0  0  0  0
  -28.9830  -15.1782   21.3337 H   0  0  0  0  0  0
  1 25  1  0  0  0
  1 30  2  0  0  0
  1 82  1  0  0  0
  2  3  1  0  0  0
  2 25  1  0  0  0
  2 85  1  0  0  0
  2 86  1  0  0  0
  3  4  1  0  0  0
  3 87  1  0  0  0
  3 88  1  0  0  0
  4  5  1  0  0  0
  4 89  1  0  0  0
  4 90  1  0  0  0
  5  6  1  0  0  0
  5 26  1  0  0  0
  5 91  1  0  0  0
  6 25  1  0  0  0
  6 92  1  0  0  0
  6 93  1  0  0  0
  7  8  2  0  0  0
  7 26  1  0  0  0
  7 29  1  0  0  0
  8  9  1  0  0  0
  8 22  1  0  0  0
  9 10  1  0  0  0
  9 27  2  0  0  0
 10 11  2  0  0  0
 10 15  1  0  0  0
 11 12  1  0  0  0
 11 94  1  0  0  0
 12 13  2  0  0  0
 12 95  1  0  0  0
 13 14  1  0  0  0
 13 31  1  0  0  0
 14 15  2  0  0  0
 14 96  1  0  0  0
 15 97  1  0  0  0
 16 17  2  0  0  0
 16 21  1  0  0  0
 16 31  1  0  0  0
 17 18  1  0  0  0
 17 98  1  0  0  0
 18 19  2  0  0  0
 18 99  1  0  0  0
 19 20  1  0  0  0
 19 24  1  0  0  0
 20 21  2  0  0  0
 20100  1  0  0  0
 21 23  1  0  0  0
 22 28  1  0  0  0
 22 32  2  0  0  0
 26 27  1  0  0  0
 28101  1  0  0  0
 28102  1  0  0  0
 29103  1  0  0  0
 29104  1  0  0  0
 33 34  1  0  0  0
 33 66  1  0  0  0
 33 70  2  0  0  0
 34 36  1  0  0  0
 34 59  1  0  0  0
 34105  1  0  0  0
 35 44  2  0  0  0
 35 45  1  0  0  0
 35 68  1  0  0  0
 36 56  1  0  0  0
 36106  1  0  0  0
 37 39  1  0  0  0
 37 47  1  0  0  0
 37 66  1  0  0  0
 37107  1  0  0  0
 38 43  2  0  0  0
 38 46  1  0  0  0
 38 47  1  0  0  0
 39 64  1  0  0  0
 39 67  2  0  0  0
 40 52  1  0  0  0
 40 53  2  0  0  0
 40 58  1  0  0  0
 41108  1  0  0  0
 41109  1  0  0  0
 41110  1  0  0  0
 41 48  1  0  0  0
 42 43  1  0  0  0
 42 66  1  0  0  0
 42111  1  0  0  0
 42112  1  0  0  0
 43 44  1  0  0  0
 44113  1  0  0  0
 45 46  2  0  0  0
 45114  1  0  0  0
 46115  1  0  0  0
 47116  1  0  0  0
 47117  1  0  0  0
 48 56  1  0  0  0
 48 65  1  0  0  0
 48118  1  0  0  0
 49 50  1  0  0  0
 49 53  1  0  0  0
 49 64  1  0  0  0
 49119  1  0  0  0
 50 51  1  0  0  0
 50120  1  0  0  0
 50121  1  0  0  0
 51 52  1  0  0  0
 51122  1  0  0  0
 51123  1  0  0  0
 52124  1  0  0  0
 52125  1  0  0  0
 53 54  1  0  0  0
 54 55  2  0  0  0
 54126  1  0  0  0
 55 57  1  0  0  0
 55127  1  0  0  0
 56 69  2  0  0  0
 57 58  2  0  0  0
 57128  1  0  0  0
 58129  1  0  0  0
 59 60  1  0  0  0
 59 61  1  0  0  0
 59 62  1  0  0  0
 60130  1  0  0  0
 60131  1  0  0  0
 60132  1  0  0  0
 61133  1  0  0  0
 61134  1  0  0  0
 61135  1  0  0  0
 62136  1  0  0  0
 62137  1  0  0  0
 62138  1  0  0  0
 63 65  1  0  0  0
 63139  1  0  0  0
 63140  1  0  0  0
 63141  1  0  0  0
 64142  1  0  0  0
 65143  1  0  0  0
 68 80  1  0  0  0
 71 73  2  0  0  0
 71 75  1  0  0  0
 71144  1  0  0  0
 72 74  2  0  0  0
 72 76  1  0  0  0
 72145  1  0  0  0
 73 74  1  0  0  0
 73 77  1  0  0  0
 74 82  1  0  0  0
 75 76  2  0  0  0
 75 83  1  0  0  0
 76 84  1  0  0  0
 77146  1  0  0  0
 77147  1  0  0  0
 77148  1  0  0  0
 78 79  1  0  0  0
 78 80  1  0  0  0
 78149  1  0  0  0
 78150  1  0  0  0
 79 81  1  0  0  0
 79151  1  0  0  0
 79152  1  0  0  0
 80153  1  0  0  0
 80154  1  0  0  0
 81 83  1  0  0  0
 81155  1  0  0  0
 81156  1  0  0  0
 82157  1  0  0  0
M  ISO  4   1 100  68 101  80 101  82 100
M  END
> <chiral flag>
0

> <version>
0

> <s_m_source_file>
/data/baiqing/PycharmProjects/Reinvent-master-3.2/result/LINK_invent/BTK/process_docking_weight1_custom_product_contain_oxygen_bond_distance_aromatic_linkinvent_7_9_3/rearranged_h_0123.sdf

> <i_m_source_file_index>
87

> <r_mmod_Potential_Energy-OPLS-2005>
-17.9449729919434

> <r_mmod_Stretch_Energy-OPLS-2005>
39.570140838623

> <r_mmod_Bend_Energy-OPLS-2005>
106.970413208008

> <r_mmod_Torsional_Energy-OPLS-2005>
240.215179443359

> <r_mmod_Improper_Torsional_Energy-OPLS-2005>
4.78149223327637

> <r_mmod_Van_der_Waal_Energy-OPLS-2005>
150.127136230469

> <r_mmod_Electrostatic_Energy-OPLS-2005>
-359.981384277344

> <r_mmod_Solvation_Energy-OPLS-2005>
-214.199127197266

> <b_mmod_Minimization_Converged-OPLS-2005>
0

> <r_mmod_RMS_Derivative-OPLS-2005>
0.321707993745804

$$$$
87
                    3D
 Structure written by MMmdl.
165173  0  0  1  0            999 V2000
  -30.7884  -14.3430   20.7179 C   0  0  0  0  0  0
  -30.4171  -12.2995   19.3808 C   0  0  0  0  0  0
  -29.4781  -12.5305   18.1852 C   0  0  0  0  0  0
  -28.0055  -12.3830   18.6092 C   0  0  0  0  0  0
  -27.6674  -13.2034   19.8813 C   0  0  2  0  0  0
  -28.7063  -12.9412   20.9920 C   0  0  0  0  0  0
  -25.2622  -13.8160   20.5687 C   0  0  0  0  0  0
  -24.1862  -13.0446   20.9179 C   0  0  0  0  0  0
  -24.6403  -11.6914   20.8732 C   0  0  0  0  0  0
  -23.9060  -10.4303   21.0407 C   0  0  0  0  0  0
  -24.3610   -9.4216   21.9190 C   0  0  0  0  0  0
  -23.6292   -8.2242   22.0755 C   0  0  0  0  0  0
  -22.4279   -8.0277   21.3544 C   0  0  0  0  0  0
  -21.9906   -9.0252   20.4649 C   0  0  0  0  0  0
  -22.7230  -10.2138   20.3059 C   0  0  0  0  0  0
  -21.6845   -6.0737   22.5282 C   0  0  0  0  0  0
  -21.4013   -6.5639   23.8215 C   0  0  0  0  0  0
  -21.3656   -5.6792   24.9178 C   0  0  0  0  0  0
  -21.6042   -4.3058   24.7224 C   0  0  0  0  0  0
  -21.8817   -3.8150   23.4352 C   0  0  0  0  0  0
  -21.9192   -4.6965   22.3411 C   0  0  0  0  0  0
  -22.7889  -13.5244   21.1859 C   0  0  0  0  0  0
  -22.1662   -4.2151   21.0987 F   0  0  0  0  0  0
  -21.5623   -3.4545   25.7736 F   0  0  0  0  0  0
  -30.0497  -13.2347   20.4536 N   0  0  0  0  0  0
  -26.3057  -12.9323   20.3385 N   0  0  0  0  0  0
  -25.9331  -11.6487   20.5786 N   0  0  0  0  0  0
  -22.0520  -12.8230   22.0406 N   0  0  0  0  0  0
  -25.4402  -15.1878   20.4117 N   0  0  0  0  0  0
  -31.7837  -14.6699   20.0629 O   0  0  0  0  0  0
  -21.6641   -6.8883   21.4252 O   0  0  0  0  0  0
  -22.3578  -14.5559   20.6728 O   0  0  0  0  0  0
  -24.6144  -31.8696   23.2112 C   0  0  0  0  0  0
  -25.9050  -32.4825   23.8393 C   0  0  1  0  0  0
  -27.2392  -27.4481   20.0903 C   0  0  0  0  0  0
  -25.5945  -33.8630   24.2344 N   0  0  0  0  0  0
  -23.4020  -30.4919   21.5495 C   0  0  2  0  0  0
  -24.8513  -28.9586   20.1165 C   0  0  0  0  0  0
  -22.7404  -29.4656   22.4990 C   0  0  0  0  0  0
  -18.0261  -28.1354   22.8456 C   0  0  0  0  0  0
  -24.1495  -36.7313   23.2641 C   0  0  0  0  0  0
  -25.9293  -30.8362   21.3645 C   0  0  0  0  0  0
  -26.0078  -29.4692   20.7178 C   0  0  0  0  0  0
  -27.2059  -28.7193   20.7105 C   0  0  0  0  0  0
  -26.0695  -26.9510   19.4819 C   0  0  0  0  0  0
  -24.8757  -27.6951   19.4997 C   0  0  0  0  0  0
  -23.6136  -29.8257   20.1627 C   0  0  0  0  0  0
  -25.4113  -36.3118   24.0363 C   0  0  1  0  0  0
  -20.5863  -28.3633   23.1305 C   0  0  2  0  0  0
  -20.6776  -26.9371   22.5406 C   0  0  0  0  0  0
  -19.5773  -26.6355   21.5183 C   0  0  0  0  0  0
  -18.1932  -26.7891   22.1596 C   0  0  0  0  0  0
  -19.1522  -28.8809   23.2874 C   0  0  0  0  0  0
  -18.9467  -30.1414   23.8888 C   0  0  0  0  0  0
  -17.6476  -30.6562   24.0534 C   0  0  0  0  0  0
  -25.9056  -34.9481   23.5145 C   0  0  0  0  0  0
  -16.5352  -29.9060   23.6335 C   0  0  0  0  0  0
  -16.7257  -28.6487   23.0326 C   0  0  0  0  0  0
  -26.4472  -31.6591   25.0707 C   0  0  0  0  0  0
  -25.3747  -31.3735   26.1464 C   0  0  0  0  0  0
  -27.0304  -30.3056   24.6045 C   0  0  0  0  0  0
  -27.6028  -32.4309   25.7485 C   0  0  0  0  0  0
  -27.5576  -37.1800   24.8461 C   0  0  0  0  0  0
  -21.4137  -29.3005   22.3729 N   0  0  0  0  0  0
  -26.4290  -37.3789   23.9417 N   0  0  0  0  0  0
  -24.6663  -31.0810   22.0999 N   0  0  0  0  0  0
  -23.4178  -28.8212   23.3046 O   0  0  0  0  0  0
  -28.3856  -26.6950   19.9856 O   0  0  0  0  0  0
  -26.5567  -34.8932   22.4688 O   0  0  0  0  0  0
  -23.5345  -32.1420   23.7512 O   0  0  0  0  0  0
  -29.7418  -19.5172   21.7354 C   0  0  0  0  0  0
  -32.1099  -18.0782   21.3992 C   0  0  0  0  0  0
  -30.8492  -20.1684   21.1422 C   0  0  0  0  0  0
  -29.8061  -18.1753   22.1744 C   0  0  0  0  0  0
  -32.0476  -19.4238   20.9806 C   0  0  0  0  0  0
  -31.0100  -17.4448   22.0083 C   0  0  0  0  0  0
  -30.7779  -21.6055   20.7613 C   0  0  0  0  0  0
  -29.7928  -22.4706   21.0937 C   0  0  0  0  0  0
  -29.8100  -23.8897   20.6853 C   0  0  0  0  0  0
  -33.3026  -20.0433   20.3869 C   0  0  0  0  0  0
  -28.5602  -17.8542   24.3585 C   0  0  0  0  0  0
  -28.5754  -17.5848   22.8492 C   0  0  0  0  0  0
  -31.1973  -16.0184   22.5243 C   0  0  0  0  0  0
  -28.9243  -24.8436   21.5007 C   0  0  0  0  0  0
  -29.0631  -26.3537   21.1952 C   0  0  0  0  0  0
  -30.4238  -14.9974   21.8256 N   0  0  0  0  0  0
  -30.5014  -24.3150   19.7544 O   0  0  0  0  0  0
  -31.4583  -12.4060   19.0696 H   0  0  0  0  0  0
  -30.3224  -11.2751   19.7435 H   0  0  0  0  0  0
  -29.7061  -11.8242   17.3860 H   0  0  0  0  0  0
  -29.6438  -13.5259   17.7709 H   0  0  0  0  0  0
  -27.8154  -11.3240   18.7932 H   0  0  0  0  0  0
  -27.3464  -12.6714   17.7898 H   0  0  0  0  0  0
  -27.7282  -14.2584   19.6116 H   0  0  0  0  0  0
  -28.6722  -11.8955   21.3013 H   0  0  0  0  0  0
  -28.4491  -13.5159   21.8815 H   0  0  0  0  0  0
  -25.2753   -9.5677   22.4783 H   0  0  0  0  0  0
  -23.9989   -7.4625   22.7466 H   0  0  0  0  0  0
  -21.0832   -8.8773   19.8955 H   0  0  0  0  0  0
  -22.3686  -10.9683   19.6167 H   0  0  0  0  0  0
  -21.2012   -7.6142   23.9717 H   0  0  0  0  0  0
  -21.1479   -6.0526   25.9076 H   0  0  0  0  0  0
  -22.0605   -2.7610   23.2854 H   0  0  0  0  0  0
  -22.4108  -11.9846   22.4737 H   0  0  0  0  0  0
  -21.1162  -13.1296   22.2670 H   0  0  0  0  0  0
  -24.6833  -15.8551   20.5197 H   0  0  0  0  0  0
  -26.3063  -15.6162   20.1086 H   0  0  0  0  0  0
  -26.7130  -32.5567   23.1162 H   0  0  0  0  0  0
  -25.0137  -33.9786   25.0508 H   0  0  0  0  0  0
  -22.6886  -31.3093   21.4109 H   0  0  0  0  0  0
  -23.3763  -35.9625   23.3310 H   0  0  0  0  0  0
  -24.3595  -36.8921   22.2044 H   0  0  0  0  0  0
  -23.7258  -37.6530   23.6639 H   0  0  0  0  0  0
  -26.0355  -31.5968   20.5890 H   0  0  0  0  0  0
  -26.8188  -30.8926   21.9802 H   0  0  0  0  0  0
  -28.1049  -29.1225   21.1575 H   0  0  0  0  0  0
  -26.0850  -25.9886   18.9875 H   0  0  0  0  0  0
  -23.9861  -27.3021   19.0264 H   0  0  0  0  0  0
  -23.7220  -30.6011   19.4021 H   0  0  0  0  0  0
  -22.7390  -29.2460   19.8666 H   0  0  0  0  0  0
  -25.1279  -36.1977   25.0850 H   0  0  0  0  0  0
  -20.9913  -28.3194   24.1446 H   0  0  0  0  0  0
  -20.5706  -26.2216   23.3582 H   0  0  0  0  0  0
  -21.6650  -26.7435   22.1189 H   0  0  0  0  0  0
  -19.6951  -25.6265   21.1220 H   0  0  0  0  0  0
  -19.6760  -27.3186   20.6729 H   0  0  0  0  0  0
  -17.4213  -26.6633   21.3995 H   0  0  0  0  0  0
  -18.0336  -26.0020   22.8994 H   0  0  0  0  0  0
  -19.7952  -30.7193   24.2279 H   0  0  0  0  0  0
  -17.5044  -31.6254   24.5114 H   0  0  0  0  0  0
  -15.5364  -30.2958   23.7660 H   0  0  0  0  0  0
  -15.8651  -28.0812   22.7027 H   0  0  0  0  0  0
  -24.5892  -30.7128   25.7804 H   0  0  0  0  0  0
  -24.8968  -32.2900   26.4922 H   0  0  0  0  0  0
  -25.8078  -30.8872   27.0220 H   0  0  0  0  0  0
  -26.2806  -29.6864   24.1089 H   0  0  0  0  0  0
  -27.4101  -29.7267   25.4485 H   0  0  0  0  0  0
  -27.8651  -30.4438   23.9163 H   0  0  0  0  0  0
  -27.2648  -33.3603   26.2079 H   0  0  0  0  0  0
  -28.3824  -32.6911   25.0321 H   0  0  0  0  0  0
  -28.0711  -31.8455   26.5389 H   0  0  0  0  0  0
  -28.2566  -38.0111   24.7490 H   0  0  0  0  0  0
  -28.1098  -36.2641   24.6289 H   0  0  0  0  0  0
  -27.2286  -37.1441   25.8859 H   0  0  0  0  0  0
  -20.9305  -29.8720   21.6951 H   0  0  0  0  0  0
  -26.0201  -38.2878   24.1412 H   0  0  0  0  0  0
  -28.8129  -20.0483   21.8809 H   0  0  0  0  0  0
  -33.0334  -17.5261   21.2751 H   0  0  0  0  0  0
  -31.5924  -21.9829   20.1599 H   0  0  0  0  0  0
  -28.9503  -22.1589   21.6887 H   0  0  0  0  0  0
  -34.1272  -19.3285   20.3594 H   0  0  0  0  0  0
  -33.6311  -20.8970   20.9805 H   0  0  0  0  0  0
  -33.1227  -20.3776   19.3653 H   0  0  0  0  0  0
  -27.6623  -17.4347   24.8144 H   0  0  0  0  0  0
  -28.5675  -18.9249   24.5741 H   0  0  0  0  0  0
  -29.4253  -17.4082   24.8511 H   0  0  0  0  0  0
  -28.4930  -16.5172   22.6565 H   0  0  0  0  0  0
  -27.6853  -18.0232   22.3951 H   0  0  0  0  0  0
  -30.9341  -15.9911   23.5827 H   0  0  0  0  0  0
  -32.2550  -15.7487   22.4926 H   0  0  0  0  0  0
  -29.2075  -24.6848   22.5396 H   0  0  0  0  0  0
  -27.8851  -24.5324   21.4178 H   0  0  0  0  0  0
  -30.1133  -26.6324   21.1037 H   0  0  0  0  0  0
  -28.6787  -26.9181   22.0442 H   0  0  0  0  0  0
  -29.6147  -14.6370   22.3061 H   0  0  0  0  0  0
  1 25  1  0  0  0
  1 30  2  0  0  0
  1 86  1  0  0  0
  2  3  1  0  0  0
  2 25  1  0  0  0
  2 88  1  0  0  0
  2 89  1  0  0  0
  3  4  1  0  0  0
  3 90  1  0  0  0
  3 91  1  0  0  0
  4  5  1  0  0  0
  4 92  1  0  0  0
  4 93  1  0  0  0
  5  6  1  0  0  0
  5 26  1  0  0  0
  5 94  1  0  0  0
  6 25  1  0  0  0
  6 95  1  0  0  0
  6 96  1  0  0  0
  7  8  2  0  0  0
  7 26  1  0  0  0
  7 29  1  0  0  0
  8  9  1  0  0  0
  8 22  1  0  0  0
  9 10  1  0  0  0
  9 27  2  0  0  0
 10 11  2  0  0  0
 10 15  1  0  0  0
 11 12  1  0  0  0
 11 97  1  0  0  0
 12 13  2  0  0  0
 12 98  1  0  0  0
 13 14  1  0  0  0
 13 31  1  0  0  0
 14 15  2  0  0  0
 14 99  1  0  0  0
 15100  1  0  0  0
 16 17  2  0  0  0
 16 21  1  0  0  0
 16 31  1  0  0  0
 17 18  1  0  0  0
 17101  1  0  0  0
 18 19  2  0  0  0
 18102  1  0  0  0
 19 20  1  0  0  0
 19 24  1  0  0  0
 20 21  2  0  0  0
 20103  1  0  0  0
 21 23  1  0  0  0
 22 28  1  0  0  0
 22 32  2  0  0  0
 26 27  1  0  0  0
 28104  1  0  0  0
 28105  1  0  0  0
 29106  1  0  0  0
 29107  1  0  0  0
 33 34  1  0  0  0
 33 66  1  0  0  0
 33 70  2  0  0  0
 34 36  1  0  0  0
 34 59  1  0  0  0
 34108  1  0  0  0
 35 44  2  0  0  0
 35 45  1  0  0  0
 35 68  1  0  0  0
 36 56  1  0  0  0
 36109  1  0  0  0
 37 39  1  0  0  0
 37 47  1  0  0  0
 37 66  1  0  0  0
 37110  1  0  0  0
 38 43  2  0  0  0
 38 46  1  0  0  0
 38 47  1  0  0  0
 39 64  1  0  0  0
 39 67  2  0  0  0
 40 52  1  0  0  0
 40 53  2  0  0  0
 40 58  1  0  0  0
 41111  1  0  0  0
 41112  1  0  0  0
 41113  1  0  0  0
 41 48  1  0  0  0
 42 43  1  0  0  0
 42 66  1  0  0  0
 42114  1  0  0  0
 42115  1  0  0  0
 43 44  1  0  0  0
 44116  1  0  0  0
 45 46  2  0  0  0
 45117  1  0  0  0
 46118  1  0  0  0
 47119  1  0  0  0
 47120  1  0  0  0
 48 56  1  0  0  0
 48 65  1  0  0  0
 48121  1  0  0  0
 49 50  1  0  0  0
 49 53  1  0  0  0
 49 64  1  0  0  0
 49122  1  0  0  0
 50 51  1  0  0  0
 50123  1  0  0  0
 50124  1  0  0  0
 51 52  1  0  0  0
 51125  1  0  0  0
 51126  1  0  0  0
 52127  1  0  0  0
 52128  1  0  0  0
 53 54  1  0  0  0
 54 55  2  0  0  0
 54129  1  0  0  0
 55 57  1  0  0  0
 55130  1  0  0  0
 56 69  2  0  0  0
 57 58  2  0  0  0
 57131  1  0  0  0
 58132  1  0  0  0
 59 60  1  0  0  0
 59 61  1  0  0  0
 59 62  1  0  0  0
 60133  1  0  0  0
 60134  1  0  0  0
 60135  1  0  0  0
 61136  1  0  0  0
 61137  1  0  0  0
 61138  1  0  0  0
 62139  1  0  0  0
 62140  1  0  0  0
 62141  1  0  0  0
 63 65  1  0  0  0
 63142  1  0  0  0
 63143  1  0  0  0
 63144  1  0  0  0
 64145  1  0  0  0
 65146  1  0  0  0
 68 85  1  0  0  0
 71 73  2  0  0  0
 71 74  1  0  0  0
 71147  1  0  0  0
 72 75  2  0  0  0
 72 76  1  0  0  0
 72148  1  0  0  0
 73 75  1  0  0  0
 73 77  1  0  0  0
 74 76  2  0  0  0
 74 82  1  0  0  0
 75 80  1  0  0  0
 76 83  1  0  0  0
 77 78  2  0  0  0
 77149  1  0  0  0
 78 79  1  0  0  0
 78150  1  0  0  0
 79 84  1  0  0  0
 79 87  2  0  0  0
 80151  1  0  0  0
 80152  1  0  0  0
 80153  1  0  0  0
 81 82  1  0  0  0
 81154  1  0  0  0
 81155  1  0  0  0
 81156  1  0  0  0
 82157  1  0  0  0
 82158  1  0  0  0
 83 86  1  0  0  0
 83159  1  0  0  0
 83160  1  0  0  0
 84 85  1  0  0  0
 84161  1  0  0  0
 84162  1  0  0  0
 85163  1  0  0  0
 85164  1  0  0  0
 86165  1  0  0  0
M  ISO  4   1 100  68 101  85 101  86 100
M  END
> <chiral flag>
0

> <version>
0

> <s_m_source_file>
/data/baiqing/PycharmProjects/Reinvent-master-3.2/result/LINK_invent/BTK/process_docking_weight1_custom_product_contain_oxygen_bond_distance_aromatic_linkinvent_7_9_3/rearranged_h_0123.sdf

> <i_m_source_file_index>
88

> <r_mmod_Potential_Energy-OPLS-2005>
-164.933715820312

> <r_mmod_Stretch_Energy-OPLS-2005>
35.2658500671387

> <r_mmod_Bend_Energy-OPLS-2005>
95.4943466186523

> <r_mmod_Torsional_Energy-OPLS-2005>
206.296691894531

> <r_mmod_Improper_Torsional_Energy-OPLS-2005>
3.0316150188446

> <r_mmod_Van_der_Waal_Energy-OPLS-2005>
154.588684082031

> <r_mmod_Electrostatic_Energy-OPLS-2005>
-441.021667480469

> <r_mmod_Solvation_Energy-OPLS-2005>
-226.076400756836

> <b_mmod_Minimization_Converged-OPLS-2005>
0

> <r_mmod_RMS_Derivative-OPLS-2005>
3.50377774238586

$$$$
88
                    3D
 Structure written by MMmdl.
153161  0  0  1  0            999 V2000
  -30.6633  -14.5836   20.5192 C   0  0  0  0  0  0
  -30.4301  -12.3550   19.4619 C   0  0  0  0  0  0
  -29.5118  -12.5000   18.2290 C   0  0  0  0  0  0
  -28.0296  -12.3566   18.6300 C   0  0  0  0  0  0
  -27.6575  -13.2157   19.8692 C   0  0  2  0  0  0
  -28.6963  -13.0418   20.9972 C   0  0  0  0  0  0
  -25.2581  -13.8182   20.5677 C   0  0  0  0  0  0
  -24.1839  -13.0449   20.9171 C   0  0  0  0  0  0
  -24.6402  -11.6915   20.8721 C   0  0  0  0  0  0
  -23.9067  -10.4300   21.0406 C   0  0  0  0  0  0
  -24.3625   -9.4213   21.9181 C   0  0  0  0  0  0
  -23.6298   -8.2247   22.0750 C   0  0  0  0  0  0
  -22.4277   -8.0284   21.3549 C   0  0  0  0  0  0
  -21.9914   -9.0254   20.4648 C   0  0  0  0  0  0
  -22.7241  -10.2134   20.3054 C   0  0  0  0  0  0
  -21.6850   -6.0742   22.5278 C   0  0  0  0  0  0
  -21.4019   -6.5642   23.8217 C   0  0  0  0  0  0
  -21.3662   -5.6793   24.9178 C   0  0  0  0  0  0
  -21.6042   -4.3055   24.7226 C   0  0  0  0  0  0
  -21.8824   -3.8153   23.4346 C   0  0  0  0  0  0
  -21.9197   -4.6972   22.3405 C   0  0  0  0  0  0
  -22.7863  -13.5239   21.1849 C   0  0  0  0  0  0
  -22.1664   -4.2153   21.0986 F   0  0  0  0  0  0
  -21.5624   -3.4538   25.7741 F   0  0  0  0  0  0
  -30.0200  -13.3745   20.4483 N   0  0  0  0  0  0
  -26.3008  -12.9358   20.3321 N   0  0  0  0  0  0
  -25.9332  -11.6511   20.5743 N   0  0  0  0  0  0
  -22.0502  -12.8224   22.0397 N   0  0  0  0  0  0
  -25.4333  -15.1902   20.4125 N   0  0  0  0  0  0
  -31.8059  -14.7110   20.0695 O   0  0  0  0  0  0
  -21.6642   -6.8882   21.4239 O   0  0  0  0  0  0
  -22.3546  -14.5546   20.6692 O   0  0  0  0  0  0
  -24.6208  -31.8624   23.2036 C   0  0  0  0  0  0
  -25.9069  -32.4797   23.8360 C   0  0  1  0  0  0
  -27.2363  -27.3651   20.1140 C   0  0  0  0  0  0
  -25.5896  -33.8597   24.2292 N   0  0  0  0  0  0
  -23.4129  -30.4835   21.5456 C   0  0  2  0  0  0
  -24.8614  -28.9405   20.1128 C   0  0  0  0  0  0
  -22.7443  -29.4631   22.4960 C   0  0  0  0  0  0
  -18.0276  -28.1376   22.8489 C   0  0  0  0  0  0
  -24.1484  -36.7304   23.2641 C   0  0  0  0  0  0
  -25.9476  -30.8083   21.3657 C   0  0  0  0  0  0
  -26.0255  -29.4379   20.7111 C   0  0  0  0  0  0
  -27.2152  -28.6613   20.7013 C   0  0  0  0  0  0
  -26.0508  -26.9039   19.4970 C   0  0  0  0  0  0
  -24.8734  -27.6771   19.4985 C   0  0  0  0  0  0
  -23.6254  -29.8133   20.1619 C   0  0  0  0  0  0
  -25.4109  -36.3101   24.0336 C   0  0  1  0  0  0
  -20.5869  -28.3674   23.1297 C   0  0  2  0  0  0
  -20.6761  -26.9401   22.5413 C   0  0  0  0  0  0
  -19.5745  -26.6377   21.5209 C   0  0  0  0  0  0
  -18.1924  -26.7920   22.1623 C   0  0  0  0  0  0
  -19.1527  -28.8841   23.2888 C   0  0  0  0  0  0
  -18.9457  -30.1444   23.8903 C   0  0  0  0  0  0
  -17.6459  -30.6585   24.0558 C   0  0  0  0  0  0
  -25.9041  -34.9468   23.5120 C   0  0  0  0  0  0
  -16.5350  -29.9084   23.6323 C   0  0  0  0  0  0
  -16.7266  -28.6497   23.0354 C   0  0  0  0  0  0
  -26.4473  -31.6591   25.0712 C   0  0  0  0  0  0
  -25.3728  -31.3704   26.1452 C   0  0  0  0  0  0
  -27.0312  -30.3031   24.6115 C   0  0  0  0  0  0
  -27.6039  -32.4320   25.7476 C   0  0  0  0  0  0
  -27.5580  -37.1807   24.8467 C   0  0  0  0  0  0
  -21.4162  -29.3037   22.3699 N   0  0  0  0  0  0
  -26.4293  -37.3789   23.9411 N   0  0  0  0  0  0
  -24.6790  -31.0670   22.0962 N   0  0  0  0  0  0
  -23.4186  -28.8185   23.3035 O   0  0  0  0  0  0
  -28.3865  -26.5777   20.1596 O   0  0  0  0  0  0
  -26.5616  -34.8929   22.4689 O   0  0  0  0  0  0
  -23.5383  -32.1397   23.7393 O   0  0  0  0  0  0
  -28.6849  -18.6012   22.0400 C   0  0  0  0  0  0
  -28.3527  -19.9856   21.9289 C   0  0  0  0  0  0
  -29.4675  -18.2728   20.9671 C   0  0  0  0  0  0
  -28.9176  -20.4558   20.7753 C   0  0  0  0  0  0
  -30.0787  -17.0154   20.5503 C   0  0  0  0  0  0
  -29.9007  -15.7470   21.0324 C   0  0  0  0  0  0
  -29.6341  -22.9694   20.6916 C   0  0  0  0  0  0
  -29.4378  -24.3263   20.6925 C   0  0  0  0  0  0
  -30.4702  -25.2099   21.3768 C   0  0  0  0  0  0
  -28.8248  -21.8155   20.0681 C   0  0  0  0  0  0
  -28.2574  -25.1186   20.0702 C   0  0  0  0  0  0
  -29.6069  -19.4086   20.1767 O   0  0  0  0  0  0
  -31.4766  -12.4492   19.1695 H   0  0  0  0  0  0
  -30.3375  -11.3569   19.8930 H   0  0  0  0  0  0
  -29.7689  -11.7520   17.4770 H   0  0  0  0  0  0
  -29.6744  -13.4725   17.7623 H   0  0  0  0  0  0
  -27.8473  -11.3028   18.8428 H   0  0  0  0  0  0
  -27.3867  -12.6117   17.7879 H   0  0  0  0  0  0
  -27.6885  -14.2572   19.5488 H   0  0  0  0  0  0
  -28.6932  -12.0098   21.3514 H   0  0  0  0  0  0
  -28.4352  -13.6397   21.8689 H   0  0  0  0  0  0
  -25.2776   -9.5688   22.4753 H   0  0  0  0  0  0
  -24.0013   -7.4641   22.7468 H   0  0  0  0  0  0
  -21.0850   -8.8777   19.8947 H   0  0  0  0  0  0
  -22.3710  -10.9672   19.6166 H   0  0  0  0  0  0
  -21.2011   -7.6151   23.9722 H   0  0  0  0  0  0
  -21.1476   -6.0523   25.9080 H   0  0  0  0  0  0
  -22.0601   -2.7616   23.2847 H   0  0  0  0  0  0
  -22.4125  -11.9888   22.4787 H   0  0  0  0  0  0
  -21.1126  -13.1247   22.2600 H   0  0  0  0  0  0
  -24.6765  -15.8539   20.5327 H   0  0  0  0  0  0
  -26.2990  -15.6253   20.1175 H   0  0  0  0  0  0
  -26.7140  -32.5491   23.1114 H   0  0  0  0  0  0
  -25.0030  -33.9743   25.0427 H   0  0  0  0  0  0
  -22.7053  -31.3025   21.4012 H   0  0  0  0  0  0
  -23.3749  -35.9633   23.3314 H   0  0  0  0  0  0
  -24.3573  -36.8911   22.2054 H   0  0  0  0  0  0
  -23.7233  -37.6508   23.6654 H   0  0  0  0  0  0
  -26.0671  -31.5723   20.5967 H   0  0  0  0  0  0
  -26.8329  -30.8629   21.9876 H   0  0  0  0  0  0
  -28.1118  -29.0403   21.1720 H   0  0  0  0  0  0
  -26.0185  -25.9384   19.0135 H   0  0  0  0  0  0
  -23.9807  -27.2883   19.0285 H   0  0  0  0  0  0
  -23.7381  -30.5862   19.4008 H   0  0  0  0  0  0
  -22.7487  -29.2353   19.8650 H   0  0  0  0  0  0
  -25.1288  -36.1962   25.0830 H   0  0  0  0  0  0
  -20.9959  -28.3242   24.1419 H   0  0  0  0  0  0
  -20.5647  -26.2286   23.3610 H   0  0  0  0  0  0
  -21.6636  -26.7424   22.1223 H   0  0  0  0  0  0
  -19.6906  -25.6287   21.1244 H   0  0  0  0  0  0
  -19.6685  -27.3181   20.6735 H   0  0  0  0  0  0
  -17.4189  -26.6659   21.4028 H   0  0  0  0  0  0
  -18.0331  -26.0057   22.9017 H   0  0  0  0  0  0
  -19.7934  -30.7248   24.2283 H   0  0  0  0  0  0
  -17.5020  -31.6269   24.5154 H   0  0  0  0  0  0
  -15.5354  -30.2998   23.7640 H   0  0  0  0  0  0
  -15.8663  -28.0819   22.7080 H   0  0  0  0  0  0
  -24.5894  -30.7060   25.7778 H   0  0  0  0  0  0
  -24.8920  -32.2862   26.4906 H   0  0  0  0  0  0
  -25.8075  -30.8860   27.0207 H   0  0  0  0  0  0
  -26.2864  -29.6792   24.1154 H   0  0  0  0  0  0
  -27.4059  -29.7269   25.4584 H   0  0  0  0  0  0
  -27.8708  -30.4347   23.9283 H   0  0  0  0  0  0
  -27.2653  -33.3615   26.2062 H   0  0  0  0  0  0
  -28.3837  -32.6893   25.0296 H   0  0  0  0  0  0
  -28.0718  -31.8439   26.5379 H   0  0  0  0  0  0
  -28.2607  -38.0096   24.7515 H   0  0  0  0  0  0
  -28.1068  -36.2631   24.6297 H   0  0  0  0  0  0
  -27.2299  -37.1462   25.8869 H   0  0  0  0  0  0
  -20.9333  -29.8763   21.6916 H   0  0  0  0  0  0
  -26.0184  -38.2867   24.1410 H   0  0  0  0  0  0
  -28.3830  -17.9210   22.8241 H   0  0  0  0  0  0
  -27.7378  -20.5639   22.6052 H   0  0  0  0  0  0
  -30.7940  -17.1344   19.7471 H   0  0  0  0  0  0
  -29.1913  -15.6139   21.8326 H   0  0  0  0  0  0
  -30.5273  -22.6085   21.1815 H   0  0  0  0  0  0
  -31.3053  -24.6331   21.7765 H   0  0  0  0  0  0
  -30.0170  -25.7564   22.2047 H   0  0  0  0  0  0
  -30.8820  -25.9330   20.6729 H   0  0  0  0  0  0
  -27.7804  -22.1199   19.9961 H   0  0  0  0  0  0
  -29.1711  -21.6947   19.0416 H   0  0  0  0  0  0
  -27.3538  -24.7928   20.5877 H   0  0  0  0  0  0
  -28.1548  -24.8284   19.0235 H   0  0  0  0  0  0
  1 25  1  0  0  0
  1 30  2  0  0  0
  1 76  1  0  0  0
  2  3  1  0  0  0
  2 25  1  0  0  0
  2 83  1  0  0  0
  2 84  1  0  0  0
  3  4  1  0  0  0
  3 85  1  0  0  0
  3 86  1  0  0  0
  4  5  1  0  0  0
  4 87  1  0  0  0
  4 88  1  0  0  0
  5  6  1  0  0  0
  5 26  1  0  0  0
  5 89  1  0  0  0
  6 25  1  0  0  0
  6 90  1  0  0  0
  6 91  1  0  0  0
  7  8  2  0  0  0
  7 26  1  0  0  0
  7 29  1  0  0  0
  8  9  1  0  0  0
  8 22  1  0  0  0
  9 10  1  0  0  0
  9 27  2  0  0  0
 10 11  2  0  0  0
 10 15  1  0  0  0
 11 12  1  0  0  0
 11 92  1  0  0  0
 12 13  2  0  0  0
 12 93  1  0  0  0
 13 14  1  0  0  0
 13 31  1  0  0  0
 14 15  2  0  0  0
 14 94  1  0  0  0
 15 95  1  0  0  0
 16 17  2  0  0  0
 16 21  1  0  0  0
 16 31  1  0  0  0
 17 18  1  0  0  0
 17 96  1  0  0  0
 18 19  2  0  0  0
 18 97  1  0  0  0
 19 20  1  0  0  0
 19 24  1  0  0  0
 20 21  2  0  0  0
 20 98  1  0  0  0
 21 23  1  0  0  0
 22 28  1  0  0  0
 22 32  2  0  0  0
 26 27  1  0  0  0
 28 99  1  0  0  0
 28100  1  0  0  0
 29101  1  0  0  0
 29102  1  0  0  0
 33 34  1  0  0  0
 33 66  1  0  0  0
 33 70  2  0  0  0
 34 36  1  0  0  0
 34 59  1  0  0  0
 34103  1  0  0  0
 35 44  2  0  0  0
 35 45  1  0  0  0
 35 68  1  0  0  0
 36 56  1  0  0  0
 36104  1  0  0  0
 37 39  1  0  0  0
 37 47  1  0  0  0
 37 66  1  0  0  0
 37105  1  0  0  0
 38 43  2  0  0  0
 38 46  1  0  0  0
 38 47  1  0  0  0
 39 64  1  0  0  0
 39 67  2  0  0  0
 40 52  1  0  0  0
 40 53  2  0  0  0
 40 58  1  0  0  0
 41106  1  0  0  0
 41107  1  0  0  0
 41108  1  0  0  0
 41 48  1  0  0  0
 42 43  1  0  0  0
 42 66  1  0  0  0
 42109  1  0  0  0
 42110  1  0  0  0
 43 44  1  0  0  0
 44111  1  0  0  0
 45 46  2  0  0  0
 45112  1  0  0  0
 46113  1  0  0  0
 47114  1  0  0  0
 47115  1  0  0  0
 48 56  1  0  0  0
 48 65  1  0  0  0
 48116  1  0  0  0
 49 50  1  0  0  0
 49 53  1  0  0  0
 49 64  1  0  0  0
 49117  1  0  0  0
 50 51  1  0  0  0
 50118  1  0  0  0
 50119  1  0  0  0
 51 52  1  0  0  0
 51120  1  0  0  0
 51121  1  0  0  0
 52122  1  0  0  0
 52123  1  0  0  0
 53 54  1  0  0  0
 54 55  2  0  0  0
 54124  1  0  0  0
 55 57  1  0  0  0
 55125  1  0  0  0
 56 69  2  0  0  0
 57 58  2  0  0  0
 57126  1  0  0  0
 58127  1  0  0  0
 59 60  1  0  0  0
 59 61  1  0  0  0
 59 62  1  0  0  0
 60128  1  0  0  0
 60129  1  0  0  0
 60130  1  0  0  0
 61131  1  0  0  0
 61132  1  0  0  0
 61133  1  0  0  0
 62134  1  0  0  0
 62135  1  0  0  0
 62136  1  0  0  0
 63 65  1  0  0  0
 63137  1  0  0  0
 63138  1  0  0  0
 63139  1  0  0  0
 64140  1  0  0  0
 65141  1  0  0  0
 68 81  1  0  0  0
 71 72  1  0  0  0
 71 73  2  0  0  0
 71142  1  0  0  0
 72 74  2  0  0  0
 72143  1  0  0  0
 73 75  1  0  0  0
 73 82  1  0  0  0
 74 80  1  0  0  0
 74 82  1  0  0  0
 75 76  2  0  0  0
 75144  1  0  0  0
 76145  1  0  0  0
 77 78  2  0  0  0
 77 80  1  0  0  0
 77146  1  0  0  0
 78 79  1  0  0  0
 78 81  1  0  0  0
 79147  1  0  0  0
 79148  1  0  0  0
 79149  1  0  0  0
 80150  1  0  0  0
 80151  1  0  0  0
 81152  1  0  0  0
 81153  1  0  0  0
M  ISO  4   1 100  68 101  76 100  81 101
M  END
> <chiral flag>
0

> <version>
0

> <s_m_source_file>
/data/baiqing/PycharmProjects/Reinvent-master-3.2/result/LINK_invent/BTK/process_docking_weight1_custom_product_contain_oxygen_bond_distance_aromatic_linkinvent_7_9_3/rearranged_h_0123.sdf

> <i_m_source_file_index>
89

> <r_mmod_Potential_Energy-OPLS-2005>
-13.7550649642944

> <r_mmod_Stretch_Energy-OPLS-2005>
56.7385444641113

> <r_mmod_Bend_Energy-OPLS-2005>
114.90478515625

> <r_mmod_Torsional_Energy-OPLS-2005>
187.494201660156

> <r_mmod_Improper_Torsional_Energy-OPLS-2005>
3.19230937957764

> <r_mmod_Van_der_Waal_Energy-OPLS-2005>
127.014434814453

> <r_mmod_Electrostatic_Energy-OPLS-2005>
-342.487274169922

> <r_mmod_Solvation_Energy-OPLS-2005>
-190.535110473633

> <b_mmod_Minimization_Converged-OPLS-2005>
0

> <r_mmod_RMS_Derivative-OPLS-2005>
1.40546035766602

$$$$
89
                    3D
 Structure written by MMmdl.
158166  0  0  1  0            999 V2000
  -30.7235  -14.5381   20.4290 C   0  0  0  0  0  0
  -30.4188  -12.3315   19.4157 C   0  0  0  0  0  0
  -29.4889  -12.4726   18.1957 C   0  0  0  0  0  0
  -28.0147  -12.3298   18.6221 C   0  0  0  0  0  0
  -27.6477  -13.2186   19.8432 C   0  0  2  0  0  0
  -28.7049  -13.1060   20.9637 C   0  0  0  0  0  0
  -25.2556  -13.8192   20.5709 C   0  0  0  0  0  0
  -24.1824  -13.0450   20.9218 C   0  0  0  0  0  0
  -24.6394  -11.6924   20.8744 C   0  0  0  0  0  0
  -23.9066  -10.4302   21.0399 C   0  0  0  0  0  0
  -24.3620   -9.4210   21.9179 C   0  0  0  0  0  0
  -23.6285   -8.2248   22.0762 C   0  0  0  0  0  0
  -22.4255   -8.0298   21.3564 C   0  0  0  0  0  0
  -21.9886   -9.0269   20.4660 C   0  0  0  0  0  0
  -22.7228  -10.2146   20.3054 C   0  0  0  0  0  0
  -21.6839   -6.0734   22.5278 C   0  0  0  0  0  0
  -21.4015   -6.5636   23.8217 C   0  0  0  0  0  0
  -21.3654   -5.6786   24.9175 C   0  0  0  0  0  0
  -21.6041   -4.3046   24.7215 C   0  0  0  0  0  0
  -21.8828   -3.8140   23.4331 C   0  0  0  0  0  0
  -21.9194   -4.6963   22.3394 C   0  0  0  0  0  0
  -22.7840  -13.5233   21.1867 C   0  0  0  0  0  0
  -22.1666   -4.2160   21.0969 F   0  0  0  0  0  0
  -21.5611   -3.4540   25.7726 F   0  0  0  0  0  0
  -30.0196  -13.3743   20.3710 N   0  0  0  0  0  0
  -26.2975  -12.9387   20.3267 N   0  0  0  0  0  0
  -25.9314  -11.6541   20.5730 N   0  0  0  0  0  0
  -22.0443  -12.8234   22.0405 N   0  0  0  0  0  0
  -25.4231  -15.1919   20.4172 N   0  0  0  0  0  0
  -31.9467  -14.5431   20.3831 O   0  0  0  0  0  0
  -21.6627   -6.8881   21.4250 O   0  0  0  0  0  0
  -22.3533  -14.5535   20.6697 O   0  0  0  0  0  0
  -24.6163  -31.8683   23.2094 C   0  0  0  0  0  0
  -25.9051  -32.4827   23.8384 C   0  0  1  0  0  0
  -27.2319  -27.4101   20.0890 C   0  0  0  0  0  0
  -25.5898  -33.8629   24.2317 N   0  0  0  0  0  0
  -23.4030  -30.4950   21.5522 C   0  0  2  0  0  0
  -24.8470  -28.9625   20.1155 C   0  0  0  0  0  0
  -22.7391  -29.4678   22.4986 C   0  0  0  0  0  0
  -18.0274  -28.1362   22.8496 C   0  0  0  0  0  0
  -24.1495  -36.7303   23.2634 C   0  0  0  0  0  0
  -25.9372  -30.8260   21.3690 C   0  0  0  0  0  0
  -26.0120  -29.4607   20.7105 C   0  0  0  0  0  0
  -27.2024  -28.6915   20.6975 C   0  0  0  0  0  0
  -26.0284  -26.9273   19.5173 C   0  0  0  0  0  0
  -24.8508  -27.6932   19.5208 C   0  0  0  0  0  0
  -23.6094  -29.8297   20.1667 C   0  0  0  0  0  0
  -25.4117  -36.3116   24.0335 C   0  0  1  0  0  0
  -20.5864  -28.3656   23.1313 C   0  0  2  0  0  0
  -20.6774  -26.9396   22.5413 C   0  0  0  0  0  0
  -19.5755  -26.6377   21.5207 C   0  0  0  0  0  0
  -18.1924  -26.7909   22.1613 C   0  0  0  0  0  0
  -19.1522  -28.8825   23.2902 C   0  0  0  0  0  0
  -18.9450  -30.1427   23.8915 C   0  0  0  0  0  0
  -17.6456  -30.6570   24.0566 C   0  0  0  0  0  0
  -25.9035  -34.9481   23.5121 C   0  0  0  0  0  0
  -16.5347  -29.9071   23.6329 C   0  0  0  0  0  0
  -16.7264  -28.6481   23.0362 C   0  0  0  0  0  0
  -26.4476  -31.6607   25.0713 C   0  0  0  0  0  0
  -25.3734  -31.3729   26.1454 C   0  0  0  0  0  0
  -27.0302  -30.3042   24.6109 C   0  0  0  0  0  0
  -27.6042  -32.4332   25.7469 C   0  0  0  0  0  0
  -27.5588  -37.1814   24.8458 C   0  0  0  0  0  0
  -21.4126  -29.3027   22.3712 N   0  0  0  0  0  0
  -26.4304  -37.3798   23.9395 N   0  0  0  0  0  0
  -24.6706  -31.0775   22.1009 N   0  0  0  0  0  0
  -23.4151  -28.8221   23.3030 O   0  0  0  0  0  0
  -28.4022  -26.6604   20.1209 O   0  0  0  0  0  0
  -26.5600  -34.8933   22.4684 O   0  0  0  0  0  0
  -23.5352  -32.1454   23.7479 O   0  0  0  0  0  0
  -31.2517  -19.6263   19.0226 C   0  0  0  0  0  0
  -31.9583  -18.5108   18.5588 C   0  0  0  0  0  0
  -29.7469  -18.1475   20.2233 C   0  0  0  0  0  0
  -30.0874  -19.4697   19.8022 C   0  0  0  0  0  0
  -31.5466  -17.2004   18.8658 C   0  0  0  0  0  0
  -30.4739  -16.9893   19.7941 C   0  0  0  0  0  0
  -29.2230  -20.6689   20.0555 C   0  0  0  0  0  0
  -29.5936  -21.9664   19.8660 C   0  0  0  0  0  0
  -29.3156  -24.3647   19.5526 C   0  0  0  0  0  0
  -28.7340  -23.1624   19.8031 C   0  0  0  0  0  0
  -32.2539  -16.1039   18.0762 C   0  0  0  0  0  0
  -27.2188  -23.0695   19.9104 C   0  0  0  0  0  0
  -28.6227  -25.6612   19.1049 C   0  0  0  0  0  0
  -30.0122  -15.6785   20.2311 N   0  0  0  0  0  0
  -31.4588  -12.4293   19.0963 H   0  0  0  0  0  0
  -30.3334  -11.3425   19.8682 H   0  0  0  0  0  0
  -29.7321  -11.7180   17.4472 H   0  0  0  0  0  0
  -29.6461  -13.4386   17.7132 H   0  0  0  0  0  0
  -27.8491  -11.2792   18.8637 H   0  0  0  0  0  0
  -27.3570  -12.5535   17.7816 H   0  0  0  0  0  0
  -27.6568  -14.2474   19.4847 H   0  0  0  0  0  0
  -28.6913  -12.1102   21.4088 H   0  0  0  0  0  0
  -28.4908  -13.8103   21.7698 H   0  0  0  0  0  0
  -25.2772   -9.5674   22.4745 H   0  0  0  0  0  0
  -24.0012   -7.4619   22.7453 H   0  0  0  0  0  0
  -21.0825   -8.8778   19.8936 H   0  0  0  0  0  0
  -22.3696  -10.9689   19.6152 H   0  0  0  0  0  0
  -21.2023   -7.6146   23.9723 H   0  0  0  0  0  0
  -21.1458   -6.0511   25.9080 H   0  0  0  0  0  0
  -22.0610   -2.7602   23.2820 H   0  0  0  0  0  0
  -22.4048  -11.9936   22.4869 H   0  0  0  0  0  0
  -21.1057  -13.1273   22.2577 H   0  0  0  0  0  0
  -24.6527  -15.8416   20.5304 H   0  0  0  0  0  0
  -26.2643  -15.6346   20.0706 H   0  0  0  0  0  0
  -26.7109  -32.5532   23.1130 H   0  0  0  0  0  0
  -25.0085  -33.9798   25.0489 H   0  0  0  0  0  0
  -22.6934  -31.3132   21.4141 H   0  0  0  0  0  0
  -23.3770  -35.9621   23.3312 H   0  0  0  0  0  0
  -24.3587  -36.8907   22.2042 H   0  0  0  0  0  0
  -23.7240  -37.6508   23.6643 H   0  0  0  0  0  0
  -26.0592  -31.5963   20.6063 H   0  0  0  0  0  0
  -26.8205  -30.8702   21.9944 H   0  0  0  0  0  0
  -28.1004  -29.0762   21.1611 H   0  0  0  0  0  0
  -25.9382  -25.9410   19.0945 H   0  0  0  0  0  0
  -23.9485  -27.2885   19.0836 H   0  0  0  0  0  0
  -23.7125  -30.6040   19.4054 H   0  0  0  0  0  0
  -22.7330  -29.2476   19.8748 H   0  0  0  0  0  0
  -25.1301  -36.1982   25.0830 H   0  0  0  0  0  0
  -20.9960  -28.3219   24.1431 H   0  0  0  0  0  0
  -20.5673  -26.2257   23.3593 H   0  0  0  0  0  0
  -21.6655  -26.7431   22.1226 H   0  0  0  0  0  0
  -19.6925  -25.6284   21.1248 H   0  0  0  0  0  0
  -19.6705  -27.3186   20.6735 H   0  0  0  0  0  0
  -17.4205  -26.6659   21.4009 H   0  0  0  0  0  0
  -18.0318  -26.0029   22.8985 H   0  0  0  0  0  0
  -19.7929  -30.7240   24.2287 H   0  0  0  0  0  0
  -17.5013  -31.6265   24.5144 H   0  0  0  0  0  0
  -15.5350  -30.2980   23.7642 H   0  0  0  0  0  0
  -15.8658  -28.0799   22.7086 H   0  0  0  0  0  0
  -24.5871  -30.7127   25.7786 H   0  0  0  0  0  0
  -24.8975  -32.2902   26.4925 H   0  0  0  0  0  0
  -25.8069  -30.8862   27.0195 H   0  0  0  0  0  0
  -26.2853  -29.6804   24.1158 H   0  0  0  0  0  0
  -27.4057  -29.7280   25.4573 H   0  0  0  0  0  0
  -27.8694  -30.4348   23.9274 H   0  0  0  0  0  0
  -27.2646  -33.3616   26.2068 H   0  0  0  0  0  0
  -28.3825  -32.6923   25.0281 H   0  0  0  0  0  0
  -28.0727  -31.8451   26.5368 H   0  0  0  0  0  0
  -28.2626  -38.0097   24.7516 H   0  0  0  0  0  0
  -28.1082  -36.2642   24.6289 H   0  0  0  0  0  0
  -27.2308  -37.1454   25.8863 H   0  0  0  0  0  0
  -20.9255  -29.8730   21.6943 H   0  0  0  0  0  0
  -26.0207  -38.2885   24.1382 H   0  0  0  0  0  0
  -31.5833  -20.5948   18.6814 H   0  0  0  0  0  0
  -32.7943  -18.6744   17.8933 H   0  0  0  0  0  0
  -28.8794  -18.0189   20.8559 H   0  0  0  0  0  0
  -28.2014  -20.4435   20.3235 H   0  0  0  0  0  0
  -30.6373  -22.1517   19.6621 H   0  0  0  0  0  0
  -30.3941  -24.4385   19.5732 H   0  0  0  0  0  0
  -32.6409  -16.4853   17.1304 H   0  0  0  0  0  0
  -31.5726  -15.2927   17.8243 H   0  0  0  0  0  0
  -33.1133  -15.7072   18.6165 H   0  0  0  0  0  0
  -26.8781  -22.1353   20.3508 H   0  0  0  0  0  0
  -26.7552  -23.1747   18.9285 H   0  0  0  0  0  0
  -26.8428  -23.8704   20.5485 H   0  0  0  0  0  0
  -27.7571  -25.3750   18.5191 H   0  0  0  0  0  0
  -29.2831  -26.1218   18.3689 H   0  0  0  0  0  0
  -29.0180  -15.5839   20.3540 H   0  0  0  0  0  0
  1 25  1  0  0  0
  1 30  2  0  0  0
  1 84  1  0  0  0
  2  3  1  0  0  0
  2 25  1  0  0  0
  2 85  1  0  0  0
  2 86  1  0  0  0
  3  4  1  0  0  0
  3 87  1  0  0  0
  3 88  1  0  0  0
  4  5  1  0  0  0
  4 89  1  0  0  0
  4 90  1  0  0  0
  5  6  1  0  0  0
  5 26  1  0  0  0
  5 91  1  0  0  0
  6 25  1  0  0  0
  6 92  1  0  0  0
  6 93  1  0  0  0
  7  8  2  0  0  0
  7 26  1  0  0  0
  7 29  1  0  0  0
  8  9  1  0  0  0
  8 22  1  0  0  0
  9 10  1  0  0  0
  9 27  2  0  0  0
 10 11  2  0  0  0
 10 15  1  0  0  0
 11 12  1  0  0  0
 11 94  1  0  0  0
 12 13  2  0  0  0
 12 95  1  0  0  0
 13 14  1  0  0  0
 13 31  1  0  0  0
 14 15  2  0  0  0
 14 96  1  0  0  0
 15 97  1  0  0  0
 16 17  2  0  0  0
 16 21  1  0  0  0
 16 31  1  0  0  0
 17 18  1  0  0  0
 17 98  1  0  0  0
 18 19  2  0  0  0
 18 99  1  0  0  0
 19 20  1  0  0  0
 19 24  1  0  0  0
 20 21  2  0  0  0
 20100  1  0  0  0
 21 23  1  0  0  0
 22 28  1  0  0  0
 22 32  2  0  0  0
 26 27  1  0  0  0
 28101  1  0  0  0
 28102  1  0  0  0
 29103  1  0  0  0
 29104  1  0  0  0
 33 34  1  0  0  0
 33 66  1  0  0  0
 33 70  2  0  0  0
 34 36  1  0  0  0
 34 59  1  0  0  0
 34105  1  0  0  0
 35 44  2  0  0  0
 35 45  1  0  0  0
 35 68  1  0  0  0
 36 56  1  0  0  0
 36106  1  0  0  0
 37 39  1  0  0  0
 37 47  1  0  0  0
 37 66  1  0  0  0
 37107  1  0  0  0
 38 43  2  0  0  0
 38 46  1  0  0  0
 38 47  1  0  0  0
 39 64  1  0  0  0
 39 67  2  0  0  0
 40 52  1  0  0  0
 40 53  2  0  0  0
 40 58  1  0  0  0
 41108  1  0  0  0
 41109  1  0  0  0
 41110  1  0  0  0
 41 48  1  0  0  0
 42 43  1  0  0  0
 42 66  1  0  0  0
 42111  1  0  0  0
 42112  1  0  0  0
 43 44  1  0  0  0
 44113  1  0  0  0
 45 46  2  0  0  0
 45114  1  0  0  0
 46115  1  0  0  0
 47116  1  0  0  0
 47117  1  0  0  0
 48 56  1  0  0  0
 48 65  1  0  0  0
 48118  1  0  0  0
 49 50  1  0  0  0
 49 53  1  0  0  0
 49 64  1  0  0  0
 49119  1  0  0  0
 50 51  1  0  0  0
 50120  1  0  0  0
 50121  1  0  0  0
 51 52  1  0  0  0
 51122  1  0  0  0
 51123  1  0  0  0
 52124  1  0  0  0
 52125  1  0  0  0
 53 54  1  0  0  0
 54 55  2  0  0  0
 54126  1  0  0  0
 55 57  1  0  0  0
 55127  1  0  0  0
 56 69  2  0  0  0
 57 58  2  0  0  0
 57128  1  0  0  0
 58129  1  0  0  0
 59 60  1  0  0  0
 59 61  1  0  0  0
 59 62  1  0  0  0
 60130  1  0  0  0
 60131  1  0  0  0
 60132  1  0  0  0
 61133  1  0  0  0
 61134  1  0  0  0
 61135  1  0  0  0
 62136  1  0  0  0
 62137  1  0  0  0
 62138  1  0  0  0
 63 65  1  0  0  0
 63139  1  0  0  0
 63140  1  0  0  0
 63141  1  0  0  0
 64142  1  0  0  0
 65143  1  0  0  0
 68 83  1  0  0  0
 71 72  2  0  0  0
 71 74  1  0  0  0
 71144  1  0  0  0
 72 75  1  0  0  0
 72145  1  0  0  0
 73 74  2  0  0  0
 73 76  1  0  0  0
 73146  1  0  0  0
 74 77  1  0  0  0
 75 76  2  0  0  0
 75 81  1  0  0  0
 76 84  1  0  0  0
 77 78  2  0  0  0
 77147  1  0  0  0
 78 80  1  0  0  0
 78148  1  0  0  0
 79 80  2  0  0  0
 79 83  1  0  0  0
 79149  1  0  0  0
 80 82  1  0  0  0
 81150  1  0  0  0
 81151  1  0  0  0
 81152  1  0  0  0
 82153  1  0  0  0
 82154  1  0  0  0
 82155  1  0  0  0
 83156  1  0  0  0
 83157  1  0  0  0
 84158  1  0  0  0
M  ISO  4   1 100  68 101  83 101  84 100
M  END
> <chiral flag>
0

> <version>
0

> <s_m_source_file>
/data/baiqing/PycharmProjects/Reinvent-master-3.2/result/LINK_invent/BTK/process_docking_weight1_custom_product_contain_oxygen_bond_distance_aromatic_linkinvent_7_9_3/rearranged_h_0123.sdf

> <i_m_source_file_index>
90

> <r_mmod_Potential_Energy-OPLS-2005>
81.5263061523438

> <r_mmod_Stretch_Energy-OPLS-2005>
51.0354385375977

> <r_mmod_Bend_Energy-OPLS-2005>
123.050010681152

> <r_mmod_Torsional_Energy-OPLS-2005>
262.830139160156

> <r_mmod_Improper_Torsional_Energy-OPLS-2005>
11.9750461578369

> <r_mmod_Van_der_Waal_Energy-OPLS-2005>
167.852142333984

> <r_mmod_Electrostatic_Energy-OPLS-2005>
-376.640014648438

> <r_mmod_Solvation_Energy-OPLS-2005>
-200.72834777832

> <b_mmod_Minimization_Converged-OPLS-2005>
0

> <r_mmod_RMS_Derivative-OPLS-2005>
2.76681542396545

$$$$
90
                    3D
 Structure written by MMmdl.
162170  0  0  1  0            999 V2000
  -30.6569  -14.5422   20.4349 C   0  0  0  0  0  0
  -30.4118  -12.2927   19.4637 C   0  0  0  0  0  0
  -29.4968  -12.4198   18.2271 C   0  0  0  0  0  0
  -28.0087  -12.3400   18.6248 C   0  0  0  0  0  0
  -27.6471  -13.2165   19.8552 C   0  0  2  0  0  0
  -28.6893  -13.0653   20.9859 C   0  0  0  0  0  0
  -25.2509  -13.8210   20.5699 C   0  0  0  0  0  0
  -24.1801  -13.0469   20.9197 C   0  0  0  0  0  0
  -24.6400  -11.6937   20.8790 C   0  0  0  0  0  0
  -23.9099  -10.4309   21.0443 C   0  0  0  0  0  0
  -24.3645   -9.4193   21.9194 C   0  0  0  0  0  0
  -23.6300   -8.2238   22.0770 C   0  0  0  0  0  0
  -22.4279   -8.0294   21.3566 C   0  0  0  0  0  0
  -21.9945   -9.0264   20.4653 C   0  0  0  0  0  0
  -22.7297  -10.2131   20.3062 C   0  0  0  0  0  0
  -21.6858   -6.0753   22.5284 C   0  0  0  0  0  0
  -21.4013   -6.5648   23.8215 C   0  0  0  0  0  0
  -21.3657   -5.6801   24.9176 C   0  0  0  0  0  0
  -21.6042   -4.3066   24.7230 C   0  0  0  0  0  0
  -21.8815   -3.8150   23.4354 C   0  0  0  0  0  0
  -21.9182   -4.6976   22.3406 C   0  0  0  0  0  0
  -22.7804  -13.5219   21.1858 C   0  0  0  0  0  0
  -22.1665   -4.2160   21.0989 F   0  0  0  0  0  0
  -21.5609   -3.4555   25.7742 F   0  0  0  0  0  0
  -30.0152  -13.3403   20.4168 N   0  0  0  0  0  0
  -26.2956  -12.9403   20.3308 N   0  0  0  0  0  0
  -25.9315  -11.6564   20.5786 N   0  0  0  0  0  0
  -22.0486  -12.8187   22.0418 N   0  0  0  0  0  0
  -25.4208  -15.1950   20.4139 N   0  0  0  0  0  0
  -31.8661  -14.6541   20.2203 O   0  0  0  0  0  0
  -21.6614   -6.8915   21.4263 O   0  0  0  0  0  0
  -22.3479  -14.5544   20.6726 O   0  0  0  0  0  0
  -24.6141  -31.8683   23.2116 C   0  0  0  0  0  0
  -25.9008  -32.4838   23.8451 C   0  0  1  0  0  0
  -27.2361  -27.4151   20.1003 C   0  0  0  0  0  0
  -25.5843  -33.8639   24.2361 N   0  0  0  0  0  0
  -23.4044  -30.4956   21.5489 C   0  0  2  0  0  0
  -24.8530  -28.9599   20.1212 C   0  0  0  0  0  0
  -22.7400  -29.4676   22.4946 C   0  0  0  0  0  0
  -18.0269  -28.1372   22.8503 C   0  0  0  0  0  0
  -24.1472  -36.7326   23.2649 C   0  0  0  0  0  0
  -25.9362  -30.8329   21.3654 C   0  0  0  0  0  0
  -26.0133  -29.4624   20.7179 C   0  0  0  0  0  0
  -27.2043  -28.6983   20.7043 C   0  0  0  0  0  0
  -26.0454  -26.9301   19.5064 C   0  0  0  0  0  0
  -24.8641  -27.6943   19.5141 C   0  0  0  0  0  0
  -23.6200  -29.8339   20.1638 C   0  0  0  0  0  0
  -25.4091  -36.3131   24.0361 C   0  0  1  0  0  0
  -20.5857  -28.3673   23.1330 C   0  0  2  0  0  0
  -20.6743  -26.9406   22.5433 C   0  0  0  0  0  0
  -19.5724  -26.6400   21.5212 C   0  0  0  0  0  0
  -18.1903  -26.7918   22.1629 C   0  0  0  0  0  0
  -19.1518  -28.8835   23.2927 C   0  0  0  0  0  0
  -18.9440  -30.1420   23.8982 C   0  0  0  0  0  0
  -17.6448  -30.6588   24.0570 C   0  0  0  0  0  0
  -25.9026  -34.9493   23.5178 C   0  0  0  0  0  0
  -16.5336  -29.9109   23.6289 C   0  0  0  0  0  0
  -16.7260  -28.6498   23.0357 C   0  0  0  0  0  0
  -26.4455  -31.6589   25.0749 C   0  0  0  0  0  0
  -25.3741  -31.3587   26.1492 C   0  0  0  0  0  0
  -27.0288  -30.3065   24.6043 C   0  0  0  0  0  0
  -27.6077  -32.4264   25.7478 C   0  0  0  0  0  0
  -27.5576  -37.1799   24.8472 C   0  0  0  0  0  0
  -21.4118  -29.3055   22.3713 N   0  0  0  0  0  0
  -26.4281  -37.3816   23.9439 N   0  0  0  0  0  0
  -24.6709  -31.0799   22.1005 N   0  0  0  0  0  0
  -23.4172  -28.8188   23.2967 O   0  0  0  0  0  0
  -28.4257  -26.7019   20.1177 O   0  0  0  0  0  0
  -26.5620  -34.8935   22.4759 O   0  0  0  0  0  0
  -23.5330  -32.1418   23.7510 O   0  0  0  0  0  0
  -29.4021  -18.0542   20.3191 C   0  0  0  0  0  0
  -30.3071  -18.2186   17.7056 C   0  0  0  0  0  0
  -29.2886  -19.3131   19.6458 C   0  0  0  0  0  0
  -29.7687  -19.3710   18.3058 C   0  0  0  0  0  0
  -30.3772  -16.9764   18.3577 C   0  0  0  0  0  0
  -29.9322  -16.8712   19.7117 C   0  0  0  0  0  0
  -28.6313  -20.4770   20.3487 C   0  0  0  0  0  0
  -28.7778  -21.8121   20.1230 C   0  0  0  0  0  0
  -28.7437  -24.3121   20.7471 C   0  0  0  0  0  0
  -30.8485  -15.8349   17.4614 C   0  0  0  0  0  0
  -30.9616  -21.4060   17.3456 C   0  0  0  0  0  0
  -29.6604  -20.5891   17.3935 C   0  0  0  0  0  0
  -27.9697  -22.9702   20.7311 C   0  0  0  0  0  0
  -28.5001  -25.3437   19.6168 C   0  0  0  0  0  0
  -29.8380  -15.6234   20.4452 N   0  0  0  0  0  0
  -29.5691  -24.5394   21.6357 O   0  0  0  0  0  0
  -31.4626  -12.3651   19.1780 H   0  0  0  0  0  0
  -30.2910  -11.3105   19.9226 H   0  0  0  0  0  0
  -29.7266  -11.6254   17.5162 H   0  0  0  0  0  0
  -29.6844  -13.3543   17.7062 H   0  0  0  0  0  0
  -27.7835  -11.2942   18.8345 H   0  0  0  0  0  0
  -27.3816  -12.6152   17.7759 H   0  0  0  0  0  0
  -27.6641  -14.2509   19.5115 H   0  0  0  0  0  0
  -28.6587  -12.0557   21.3955 H   0  0  0  0  0  0
  -28.4660  -13.7358   21.8187 H   0  0  0  0  0  0
  -25.2809   -9.5623   22.4747 H   0  0  0  0  0  0
  -23.9984   -7.4630   22.7495 H   0  0  0  0  0  0
  -21.0876   -8.8835   19.8943 H   0  0  0  0  0  0
  -22.3819  -10.9674   19.6146 H   0  0  0  0  0  0
  -21.2041   -7.6162   23.9736 H   0  0  0  0  0  0
  -21.1479   -6.0527   25.9086 H   0  0  0  0  0  0
  -22.0600   -2.7609   23.2847 H   0  0  0  0  0  0
  -22.4135  -11.9829   22.4740 H   0  0  0  0  0  0
  -21.1116  -13.1172   22.2705 H   0  0  0  0  0  0
  -24.6509  -15.8464   20.5235 H   0  0  0  0  0  0
  -26.2691  -15.6396   20.0874 H   0  0  0  0  0  0
  -26.7061  -32.5587   23.1217 H   0  0  0  0  0  0
  -24.9884  -33.9806   25.0424 H   0  0  0  0  0  0
  -22.6938  -31.3134   21.4089 H   0  0  0  0  0  0
  -23.3756  -35.9638   23.3302 H   0  0  0  0  0  0
  -24.3574  -36.8960   22.2070 H   0  0  0  0  0  0
  -23.7189  -37.6507   23.6678 H   0  0  0  0  0  0
  -26.0401  -31.5937   20.5906 H   0  0  0  0  0  0
  -26.8271  -30.9012   21.9775 H   0  0  0  0  0  0
  -28.1026  -29.0860   21.1657 H   0  0  0  0  0  0
  -25.9794  -25.9672   19.0281 H   0  0  0  0  0  0
  -23.9688  -27.2995   19.0549 H   0  0  0  0  0  0
  -23.7489  -30.6139   19.4120 H   0  0  0  0  0  0
  -22.7419  -29.2661   19.8504 H   0  0  0  0  0  0
  -25.1244  -36.2023   25.0856 H   0  0  0  0  0  0
  -20.9972  -28.3256   24.1440 H   0  0  0  0  0  0
  -20.5606  -26.2291   23.3617 H   0  0  0  0  0  0
  -21.6621  -26.7422   22.1260 H   0  0  0  0  0  0
  -19.6895  -25.6324   21.1212 H   0  0  0  0  0  0
  -19.6659  -27.3236   20.6760 H   0  0  0  0  0  0
  -17.4166  -26.6684   21.4039 H   0  0  0  0  0  0
  -18.0313  -26.0046   22.9013 H   0  0  0  0  0  0
  -19.7915  -30.7179   24.2445 H   0  0  0  0  0  0
  -17.5011  -31.6287   24.5129 H   0  0  0  0  0  0
  -15.5337  -30.3060   23.7540 H   0  0  0  0  0  0
  -15.8650  -28.0831   22.7086 H   0  0  0  0  0  0
  -24.5995  -30.6846   25.7789 H   0  0  0  0  0  0
  -24.8826  -32.2678   26.4970 H   0  0  0  0  0  0
  -25.8155  -30.8747   27.0223 H   0  0  0  0  0  0
  -26.2806  -29.6797   24.1169 H   0  0  0  0  0  0
  -27.4184  -29.7296   25.4439 H   0  0  0  0  0  0
  -27.8587  -30.4425   23.9108 H   0  0  0  0  0  0
  -27.2778  -33.3587   26.2076 H   0  0  0  0  0  0
  -28.3871  -32.6758   25.0257 H   0  0  0  0  0  0
  -28.0752  -31.8343   26.5352 H   0  0  0  0  0  0
  -28.2578  -38.0107   24.7576 H   0  0  0  0  0  0
  -28.1091  -36.2658   24.6249 H   0  0  0  0  0  0
  -27.2314  -37.1388   25.8873 H   0  0  0  0  0  0
  -20.9239  -29.8869   21.7035 H   0  0  0  0  0  0
  -26.0189  -38.2893   24.1491 H   0  0  0  0  0  0
  -29.0361  -17.9867   21.3342 H   0  0  0  0  0  0
  -30.6192  -18.2774   16.6721 H   0  0  0  0  0  0
  -27.9026  -20.1869   21.0948 H   0  0  0  0  0  0
  -29.5055  -22.1511   19.4159 H   0  0  0  0  0  0
  -31.6383  -16.1858   16.7961 H   0  0  0  0  0  0
  -30.0278  -15.4969   16.8293 H   0  0  0  0  0  0
  -31.2647  -14.9680   17.9505 H   0  0  0  0  0  0
  -30.8735  -22.2384   16.6471 H   0  0  0  0  0  0
  -31.7916  -20.7817   17.0174 H   0  0  0  0  0  0
  -31.2422  -21.8155   18.3152 H   0  0  0  0  0  0
  -28.7897  -21.1956   17.6384 H   0  0  0  0  0  0
  -29.4450  -20.2434   16.3822 H   0  0  0  0  0  0
  -27.6230  -22.7292   21.7370 H   0  0  0  0  0  0
  -27.0747  -23.1242   20.1283 H   0  0  0  0  0  0
  -27.6840  -25.0343   18.9723 H   0  0  0  0  0  0
  -29.3812  -25.3125   18.9750 H   0  0  0  0  0  0
  -28.9328  -15.4401   20.8473 H   0  0  0  0  0  0
  1 25  1  0  0  0
  1 30  2  0  0  0
  1 85  1  0  0  0
  2  3  1  0  0  0
  2 25  1  0  0  0
  2 87  1  0  0  0
  2 88  1  0  0  0
  3  4  1  0  0  0
  3 89  1  0  0  0
  3 90  1  0  0  0
  4  5  1  0  0  0
  4 91  1  0  0  0
  4 92  1  0  0  0
  5  6  1  0  0  0
  5 26  1  0  0  0
  5 93  1  0  0  0
  6 25  1  0  0  0
  6 94  1  0  0  0
  6 95  1  0  0  0
  7  8  2  0  0  0
  7 26  1  0  0  0
  7 29  1  0  0  0
  8  9  1  0  0  0
  8 22  1  0  0  0
  9 10  1  0  0  0
  9 27  2  0  0  0
 10 11  2  0  0  0
 10 15  1  0  0  0
 11 12  1  0  0  0
 11 96  1  0  0  0
 12 13  2  0  0  0
 12 97  1  0  0  0
 13 14  1  0  0  0
 13 31  1  0  0  0
 14 15  2  0  0  0
 14 98  1  0  0  0
 15 99  1  0  0  0
 16 17  2  0  0  0
 16 21  1  0  0  0
 16 31  1  0  0  0
 17 18  1  0  0  0
 17100  1  0  0  0
 18 19  2  0  0  0
 18101  1  0  0  0
 19 20  1  0  0  0
 19 24  1  0  0  0
 20 21  2  0  0  0
 20102  1  0  0  0
 21 23  1  0  0  0
 22 28  1  0  0  0
 22 32  2  0  0  0
 26 27  1  0  0  0
 28103  1  0  0  0
 28104  1  0  0  0
 29105  1  0  0  0
 29106  1  0  0  0
 33 34  1  0  0  0
 33 66  1  0  0  0
 33 70  2  0  0  0
 34 36  1  0  0  0
 34 59  1  0  0  0
 34107  1  0  0  0
 35 44  2  0  0  0
 35 45  1  0  0  0
 35 68  1  0  0  0
 36 56  1  0  0  0
 36108  1  0  0  0
 37 39  1  0  0  0
 37 47  1  0  0  0
 37 66  1  0  0  0
 37109  1  0  0  0
 38 43  2  0  0  0
 38 46  1  0  0  0
 38 47  1  0  0  0
 39 64  1  0  0  0
 39 67  2  0  0  0
 40 52  1  0  0  0
 40 53  2  0  0  0
 40 58  1  0  0  0
 41110  1  0  0  0
 41111  1  0  0  0
 41112  1  0  0  0
 41 48  1  0  0  0
 42 43  1  0  0  0
 42 66  1  0  0  0
 42113  1  0  0  0
 42114  1  0  0  0
 43 44  1  0  0  0
 44115  1  0  0  0
 45 46  2  0  0  0
 45116  1  0  0  0
 46117  1  0  0  0
 47118  1  0  0  0
 47119  1  0  0  0
 48 56  1  0  0  0
 48 65  1  0  0  0
 48120  1  0  0  0
 49 50  1  0  0  0
 49 53  1  0  0  0
 49 64  1  0  0  0
 49121  1  0  0  0
 50 51  1  0  0  0
 50122  1  0  0  0
 50123  1  0  0  0
 51 52  1  0  0  0
 51124  1  0  0  0
 51125  1  0  0  0
 52126  1  0  0  0
 52127  1  0  0  0
 53 54  1  0  0  0
 54 55  2  0  0  0
 54128  1  0  0  0
 55 57  1  0  0  0
 55129  1  0  0  0
 56 69  2  0  0  0
 57 58  2  0  0  0
 57130  1  0  0  0
 58131  1  0  0  0
 59 60  1  0  0  0
 59 61  1  0  0  0
 59 62  1  0  0  0
 60132  1  0  0  0
 60133  1  0  0  0
 60134  1  0  0  0
 61135  1  0  0  0
 61136  1  0  0  0
 61137  1  0  0  0
 62138  1  0  0  0
 62139  1  0  0  0
 62140  1  0  0  0
 63 65  1  0  0  0
 63141  1  0  0  0
 63142  1  0  0  0
 63143  1  0  0  0
 64144  1  0  0  0
 65145  1  0  0  0
 68 84  1  0  0  0
 71 73  2  0  0  0
 71 76  1  0  0  0
 71146  1  0  0  0
 72 74  2  0  0  0
 72 75  1  0  0  0
 72147  1  0  0  0
 73 74  1  0  0  0
 73 77  1  0  0  0
 74 82  1  0  0  0
 75 76  2  0  0  0
 75 80  1  0  0  0
 76 85  1  0  0  0
 77 78  2  0  0  0
 77148  1  0  0  0
 78 83  1  0  0  0
 78149  1  0  0  0
 79 83  1  0  0  0
 79 84  1  0  0  0
 79 86  2  0  0  0
 80150  1  0  0  0
 80151  1  0  0  0
 80152  1  0  0  0
 81 82  1  0  0  0
 81153  1  0  0  0
 81154  1  0  0  0
 81155  1  0  0  0
 82156  1  0  0  0
 82157  1  0  0  0
 83158  1  0  0  0
 83159  1  0  0  0
 84160  1  0  0  0
 84161  1  0  0  0
 85162  1  0  0  0
M  ISO  4   1 100  68 101  84 101  85 100
M  END
> <chiral flag>
0

> <version>
0

> <s_m_source_file>
/data/baiqing/PycharmProjects/Reinvent-master-3.2/result/LINK_invent/BTK/process_docking_weight1_custom_product_contain_oxygen_bond_distance_aromatic_linkinvent_7_9_3/rearranged_h_0123.sdf

> <i_m_source_file_index>
91

> <r_mmod_Potential_Energy-OPLS-2005>
61.2565231323242

> <r_mmod_Stretch_Energy-OPLS-2005>
52.9314155578613

> <r_mmod_Bend_Energy-OPLS-2005>
133.907730102539

> <r_mmod_Torsional_Energy-OPLS-2005>
260.591186523438

> <r_mmod_Improper_Torsional_Energy-OPLS-2005>
8.54633522033691

> <r_mmod_Van_der_Waal_Energy-OPLS-2005>
161.803466796875

> <r_mmod_Electrostatic_Energy-OPLS-2005>
-355.947479248047

> <r_mmod_Solvation_Energy-OPLS-2005>
-228.723922729492

> <b_mmod_Minimization_Converged-OPLS-2005>
0

> <r_mmod_RMS_Derivative-OPLS-2005>
3.85837864875793

$$$$
91
                    3D
 Structure written by MMmdl.
153161  0  0  1  0            999 V2000
  -30.7071  -14.4913   20.5753 C   0  0  0  0  0  0
  -30.4174  -12.3267   19.4242 C   0  0  0  0  0  0
  -29.4915  -12.5134   18.2062 C   0  0  0  0  0  0
  -28.0121  -12.3682   18.6174 C   0  0  0  0  0  0
  -27.6534  -13.2127   19.8705 C   0  0  2  0  0  0
  -28.6965  -13.0166   20.9929 C   0  0  0  0  0  0
  -25.2536  -13.8180   20.5699 C   0  0  0  0  0  0
  -24.1795  -13.0444   20.9174 C   0  0  0  0  0  0
  -24.6360  -11.6924   20.8733 C   0  0  0  0  0  0
  -23.9036  -10.4305   21.0404 C   0  0  0  0  0  0
  -24.3595   -9.4224   21.9180 C   0  0  0  0  0  0
  -23.6280   -8.2260   22.0748 C   0  0  0  0  0  0
  -22.4264   -8.0280   21.3546 C   0  0  0  0  0  0
  -21.9894   -9.0245   20.4643 C   0  0  0  0  0  0
  -22.7205  -10.2133   20.3055 C   0  0  0  0  0  0
  -21.6850   -6.0732   22.5285 C   0  0  0  0  0  0
  -21.4007   -6.5634   23.8218 C   0  0  0  0  0  0
  -21.3665   -5.6782   24.9178 C   0  0  0  0  0  0
  -21.6054   -4.3043   24.7226 C   0  0  0  0  0  0
  -21.8816   -3.8146   23.4346 C   0  0  0  0  0  0
  -21.9187   -4.6963   22.3398 C   0  0  0  0  0  0
  -22.7818  -13.5247   21.1828 C   0  0  0  0  0  0
  -22.1649   -4.2158   21.0975 F   0  0  0  0  0  0
  -21.5651   -3.4519   25.7736 F   0  0  0  0  0  0
  -30.0218  -13.3241   20.4320 N   0  0  0  0  0  0
  -26.2973  -12.9358   20.3359 N   0  0  0  0  0  0
  -25.9290  -11.6508   20.5767 N   0  0  0  0  0  0
  -22.0461  -12.8250   22.0394 N   0  0  0  0  0  0
  -25.4230  -15.1907   20.4142 N   0  0  0  0  0  0
  -31.8396  -14.6505   20.1124 O   0  0  0  0  0  0
  -21.6635   -6.8877   21.4247 O   0  0  0  0  0  0
  -22.3511  -14.5553   20.6676 O   0  0  0  0  0  0
  -24.6188  -31.8690   23.2094 C   0  0  0  0  0  0
  -25.9084  -32.4818   23.8385 C   0  0  1  0  0  0
  -27.2165  -27.4030   20.0983 C   0  0  0  0  0  0
  -25.5945  -33.8619   24.2323 N   0  0  0  0  0  0
  -23.4062  -30.4952   21.5519 C   0  0  2  0  0  0
  -24.8479  -28.9659   20.1084 C   0  0  0  0  0  0
  -22.7436  -29.4670   22.4977 C   0  0  0  0  0  0
  -18.0286  -28.1384   22.8493 C   0  0  0  0  0  0
  -24.1504  -36.7306   23.2631 C   0  0  0  0  0  0
  -25.9405  -30.8221   21.3719 C   0  0  0  0  0  0
  -26.0122  -29.4588   20.7102 C   0  0  0  0  0  0
  -27.1999  -28.6862   20.7003 C   0  0  0  0  0  0
  -26.0317  -26.9436   19.4750 C   0  0  0  0  0  0
  -24.8542  -27.7097   19.4848 C   0  0  0  0  0  0
  -23.6142  -29.8373   20.1632 C   0  0  0  0  0  0
  -25.4123  -36.3110   24.0338 C   0  0  1  0  0  0
  -20.5877  -28.3688   23.1308 C   0  0  2  0  0  0
  -20.6789  -26.9424   22.5415 C   0  0  0  0  0  0
  -19.5761  -26.6392   21.5222 C   0  0  0  0  0  0
  -18.1935  -26.7935   22.1623 C   0  0  0  0  0  0
  -19.1532  -28.8853   23.2893 C   0  0  0  0  0  0
  -18.9460  -30.1461   23.8896 C   0  0  0  0  0  0
  -17.6460  -30.6593   24.0569 C   0  0  0  0  0  0
  -25.9064  -34.9477   23.5120 C   0  0  0  0  0  0
  -16.5353  -29.9093   23.6328 C   0  0  0  0  0  0
  -16.7275  -28.6512   23.0346 C   0  0  0  0  0  0
  -26.4490  -31.6588   25.0713 C   0  0  0  0  0  0
  -25.3729  -31.3696   26.1436 C   0  0  0  0  0  0
  -27.0336  -30.3032   24.6112 C   0  0  0  0  0  0
  -27.6080  -32.4294   25.7464 C   0  0  0  0  0  0
  -27.5606  -37.1797   24.8451 C   0  0  0  0  0  0
  -21.4162  -29.3053   22.3713 N   0  0  0  0  0  0
  -26.4301  -37.3806   23.9422 N   0  0  0  0  0  0
  -24.6729  -31.0763   22.1015 N   0  0  0  0  0  0
  -23.4197  -28.8204   23.3018 O   0  0  0  0  0  0
  -28.3602  -26.6197   20.1502 O   0  0  0  0  0  0
  -26.5614  -34.8929   22.4677 O   0  0  0  0  0  0
  -23.5372  -32.1469   23.7468 O   0  0  0  0  0  0
  -28.9887  -19.8247   19.8983 C   0  0  0  0  0  0
  -29.2945  -18.4199   19.9748 C   0  0  0  0  0  0
  -30.0273  -18.0936   21.0971 C   0  0  0  0  0  0
  -29.5100  -20.5848   20.9238 C   0  0  0  0  0  0
  -29.1770  -22.8256   20.3310 C   0  0  0  0  0  0
  -28.8852  -17.4483   18.9067 C   0  0  0  0  0  0
  -30.6616  -16.7945   21.5679 C   0  0  0  0  0  0
  -29.3348  -24.3376   20.5616 C   0  0  0  0  0  0
  -28.1757  -25.1910   19.9925 C   0  0  0  0  0  0
  -29.5340  -21.9452   21.1893 N   0  0  0  0  0  0
  -30.0486  -15.5130   21.1632 N   0  0  0  0  0  0
  -30.3196  -19.5303   22.0570 S   0  0  0  0  0  0
  -31.4618  -12.4229   19.1233 H   0  0  0  0  0  0
  -30.3175  -11.3209   19.8342 H   0  0  0  0  0  0
  -29.7410  -11.7908   17.4281 H   0  0  0  0  0  0
  -29.6526  -13.5004   17.7715 H   0  0  0  0  0  0
  -27.8209  -11.3124   18.8107 H   0  0  0  0  0  0
  -27.3634  -12.6421   17.7852 H   0  0  0  0  0  0
  -27.6885  -14.2580   19.5625 H   0  0  0  0  0  0
  -28.6816  -11.9860   21.3508 H   0  0  0  0  0  0
  -28.4548  -13.6295   21.8624 H   0  0  0  0  0  0
  -25.2735   -9.5713   22.4754 H   0  0  0  0  0  0
  -23.9996   -7.4650   22.7455 H   0  0  0  0  0  0
  -21.0834   -8.8740   19.8941 H   0  0  0  0  0  0
  -22.3645  -10.9661   19.6167 H   0  0  0  0  0  0
  -21.1989   -7.6138   23.9729 H   0  0  0  0  0  0
  -21.1496   -6.0505   25.9083 H   0  0  0  0  0  0
  -22.0596   -2.7611   23.2831 H   0  0  0  0  0  0
  -22.4039  -11.9883   22.4759 H   0  0  0  0  0  0
  -21.1106  -13.1329   22.2650 H   0  0  0  0  0  0
  -24.6521  -15.8409   20.5216 H   0  0  0  0  0  0
  -26.2799  -15.6395   20.1201 H   0  0  0  0  0  0
  -26.7144  -32.5510   23.1131 H   0  0  0  0  0  0
  -25.0120  -33.9778   25.0483 H   0  0  0  0  0  0
  -22.6962  -31.3142   21.4172 H   0  0  0  0  0  0
  -23.3791  -35.9608   23.3248 H   0  0  0  0  0  0
  -24.3619  -36.8968   22.2057 H   0  0  0  0  0  0
  -23.7218  -37.6480   23.6671 H   0  0  0  0  0  0
  -26.0690  -31.5932   20.6109 H   0  0  0  0  0  0
  -26.8231  -30.8614   21.9982 H   0  0  0  0  0  0
  -28.0955  -29.0586   21.1772 H   0  0  0  0  0  0
  -25.9874  -25.9875   18.9756 H   0  0  0  0  0  0
  -23.9614  -27.3271   19.0093 H   0  0  0  0  0  0
  -23.7310  -30.6188   19.4120 H   0  0  0  0  0  0
  -22.7342  -29.2678   19.8591 H   0  0  0  0  0  0
  -25.1294  -36.1967   25.0830 H   0  0  0  0  0  0
  -20.9967  -28.3259   24.1432 H   0  0  0  0  0  0
  -20.5737  -26.2294   23.3604 H   0  0  0  0  0  0
  -21.6652  -26.7495   22.1177 H   0  0  0  0  0  0
  -19.6926  -25.6302   21.1254 H   0  0  0  0  0  0
  -19.6695  -27.3204   20.6754 H   0  0  0  0  0  0
  -17.4216  -26.6708   21.4009 H   0  0  0  0  0  0
  -18.0309  -26.0068   22.9004 H   0  0  0  0  0  0
  -19.7939  -30.7292   24.2247 H   0  0  0  0  0  0
  -17.5017  -31.6271   24.5176 H   0  0  0  0  0  0
  -15.5355  -30.3000   23.7646 H   0  0  0  0  0  0
  -15.8674  -28.0843   22.7035 H   0  0  0  0  0  0
  -24.5895  -30.7077   25.7724 H   0  0  0  0  0  0
  -24.8929  -32.2857   26.4890 H   0  0  0  0  0  0
  -25.8046  -30.8820   27.0184 H   0  0  0  0  0  0
  -26.2895  -29.6763   24.1188 H   0  0  0  0  0  0
  -27.4133  -29.7295   25.4577 H   0  0  0  0  0  0
  -27.8712  -30.4348   23.9259 H   0  0  0  0  0  0
  -27.2728  -33.3590   26.2070 H   0  0  0  0  0  0
  -28.3861  -32.6860   25.0263 H   0  0  0  0  0  0
  -28.0775  -31.8394   26.5340 H   0  0  0  0  0  0
  -28.2563  -38.0158   24.7610 H   0  0  0  0  0  0
  -28.1173  -36.2702   24.6139 H   0  0  0  0  0  0
  -27.2343  -37.1269   25.8853 H   0  0  0  0  0  0
  -20.9327  -29.8790   21.6946 H   0  0  0  0  0  0
  -26.0188  -38.2872   24.1471 H   0  0  0  0  0  0
  -28.4257  -20.2241   19.0659 H   0  0  0  0  0  0
  -28.7657  -22.5595   19.3530 H   0  0  0  0  0  0
  -28.6275  -17.9614   17.9795 H   0  0  0  0  0  0
  -28.0169  -16.8645   19.2098 H   0  0  0  0  0  0
  -29.6881  -16.7500   18.6689 H   0  0  0  0  0  0
  -30.6758  -16.7939   22.6581 H   0  0  0  0  0  0
  -31.7145  -16.8220   21.2822 H   0  0  0  0  0  0
  -30.2735  -24.6517   20.1075 H   0  0  0  0  0  0
  -29.4323  -24.5278   21.6302 H   0  0  0  0  0  0
  -27.2653  -24.8717   20.5040 H   0  0  0  0  0  0
  -28.0466  -24.9721   18.9313 H   0  0  0  0  0  0
  -29.0996  -15.3407   21.4575 H   0  0  0  0  0  0
  1 25  1  0  0  0
  1 30  2  0  0  0
  1 81  1  0  0  0
  2  3  1  0  0  0
  2 25  1  0  0  0
  2 83  1  0  0  0
  2 84  1  0  0  0
  3  4  1  0  0  0
  3 85  1  0  0  0
  3 86  1  0  0  0
  4  5  1  0  0  0
  4 87  1  0  0  0
  4 88  1  0  0  0
  5  6  1  0  0  0
  5 26  1  0  0  0
  5 89  1  0  0  0
  6 25  1  0  0  0
  6 90  1  0  0  0
  6 91  1  0  0  0
  7  8  2  0  0  0
  7 26  1  0  0  0
  7 29  1  0  0  0
  8  9  1  0  0  0
  8 22  1  0  0  0
  9 10  1  0  0  0
  9 27  2  0  0  0
 10 11  2  0  0  0
 10 15  1  0  0  0
 11 12  1  0  0  0
 11 92  1  0  0  0
 12 13  2  0  0  0
 12 93  1  0  0  0
 13 14  1  0  0  0
 13 31  1  0  0  0
 14 15  2  0  0  0
 14 94  1  0  0  0
 15 95  1  0  0  0
 16 17  2  0  0  0
 16 21  1  0  0  0
 16 31  1  0  0  0
 17 18  1  0  0  0
 17 96  1  0  0  0
 18 19  2  0  0  0
 18 97  1  0  0  0
 19 20  1  0  0  0
 19 24  1  0  0  0
 20 21  2  0  0  0
 20 98  1  0  0  0
 21 23  1  0  0  0
 22 28  1  0  0  0
 22 32  2  0  0  0
 26 27  1  0  0  0
 28 99  1  0  0  0
 28100  1  0  0  0
 29101  1  0  0  0
 29102  1  0  0  0
 33 34  1  0  0  0
 33 66  1  0  0  0
 33 70  2  0  0  0
 34 36  1  0  0  0
 34 59  1  0  0  0
 34103  1  0  0  0
 35 44  2  0  0  0
 35 45  1  0  0  0
 35 68  1  0  0  0
 36 56  1  0  0  0
 36104  1  0  0  0
 37 39  1  0  0  0
 37 47  1  0  0  0
 37 66  1  0  0  0
 37105  1  0  0  0
 38 43  2  0  0  0
 38 46  1  0  0  0
 38 47  1  0  0  0
 39 64  1  0  0  0
 39 67  2  0  0  0
 40 52  1  0  0  0
 40 53  2  0  0  0
 40 58  1  0  0  0
 41106  1  0  0  0
 41107  1  0  0  0
 41108  1  0  0  0
 41 48  1  0  0  0
 42 43  1  0  0  0
 42 66  1  0  0  0
 42109  1  0  0  0
 42110  1  0  0  0
 43 44  1  0  0  0
 44111  1  0  0  0
 45 46  2  0  0  0
 45112  1  0  0  0
 46113  1  0  0  0
 47114  1  0  0  0
 47115  1  0  0  0
 48 56  1  0  0  0
 48 65  1  0  0  0
 48116  1  0  0  0
 49 50  1  0  0  0
 49 53  1  0  0  0
 49 64  1  0  0  0
 49117  1  0  0  0
 50 51  1  0  0  0
 50118  1  0  0  0
 50119  1  0  0  0
 51 52  1  0  0  0
 51120  1  0  0  0
 51121  1  0  0  0
 52122  1  0  0  0
 52123  1  0  0  0
 53 54  1  0  0  0
 54 55  2  0  0  0
 54124  1  0  0  0
 55 57  1  0  0  0
 55125  1  0  0  0
 56 69  2  0  0  0
 57 58  2  0  0  0
 57126  1  0  0  0
 58127  1  0  0  0
 59 60  1  0  0  0
 59 61  1  0  0  0
 59 62  1  0  0  0
 60128  1  0  0  0
 60129  1  0  0  0
 60130  1  0  0  0
 61131  1  0  0  0
 61132  1  0  0  0
 61133  1  0  0  0
 62134  1  0  0  0
 62135  1  0  0  0
 62136  1  0  0  0
 63 65  1  0  0  0
 63137  1  0  0  0
 63138  1  0  0  0
 63139  1  0  0  0
 64140  1  0  0  0
 65141  1  0  0  0
 68 79  1  0  0  0
 71 72  1  0  0  0
 71 74  2  0  0  0
 71142  1  0  0  0
 72 73  2  0  0  0
 72 76  1  0  0  0
 73 77  1  0  0  0
 73 82  1  0  0  0
 74 80  1  0  0  0
 74 82  1  0  0  0
 75 78  1  0  0  0
 75 80  2  0  0  0
 75143  1  0  0  0
 76144  1  0  0  0
 76145  1  0  0  0
 76146  1  0  0  0
 77 81  1  0  0  0
 77147  1  0  0  0
 77148  1  0  0  0
 78 79  1  0  0  0
 78149  1  0  0  0
 78150  1  0  0  0
 79151  1  0  0  0
 79152  1  0  0  0
 81153  1  0  0  0
M  ISO  4   1 100  68 101  79 101  81 100
M  END
> <chiral flag>
0

> <version>
0

> <s_m_source_file>
/data/baiqing/PycharmProjects/Reinvent-master-3.2/result/LINK_invent/BTK/process_docking_weight1_custom_product_contain_oxygen_bond_distance_aromatic_linkinvent_7_9_3/rearranged_h_0123.sdf

> <i_m_source_file_index>
92

> <r_mmod_Potential_Energy-OPLS-2005>
-130.099243164062

> <r_mmod_Stretch_Energy-OPLS-2005>
39.3292045593262

> <r_mmod_Bend_Energy-OPLS-2005>
113.323791503906

> <r_mmod_Torsional_Energy-OPLS-2005>
191.249938964844

> <r_mmod_Improper_Torsional_Energy-OPLS-2005>
2.80953025817871

> <r_mmod_Van_der_Waal_Energy-OPLS-2005>
133.275192260742

> <r_mmod_Electrostatic_Energy-OPLS-2005>
-408.390289306641

> <r_mmod_Solvation_Energy-OPLS-2005>
-220.584930419922

> <b_mmod_Minimization_Converged-OPLS-2005>
0

> <r_mmod_RMS_Derivative-OPLS-2005>
1.8474212884903

$$$$
92
                    3D
 Structure written by MMmdl.
161169  0  0  1  0            999 V2000
  -30.7375  -14.4667   20.5705 C   0  0  0  0  0  0
  -30.4100  -12.3043   19.4297 C   0  0  0  0  0  0
  -29.4911  -12.5029   18.2089 C   0  0  0  0  0  0
  -28.0132  -12.3657   18.6212 C   0  0  0  0  0  0
  -27.6589  -13.2145   19.8721 C   0  0  2  0  0  0
  -28.7016  -13.0235   20.9977 C   0  0  0  0  0  0
  -25.2572  -13.8181   20.5690 C   0  0  0  0  0  0
  -24.1830  -13.0446   20.9183 C   0  0  0  0  0  0
  -24.6394  -11.6916   20.8736 C   0  0  0  0  0  0
  -23.9063  -10.4297   21.0401 C   0  0  0  0  0  0
  -24.3616   -9.4211   21.9178 C   0  0  0  0  0  0
  -23.6292   -8.2245   22.0751 C   0  0  0  0  0  0
  -22.4274   -8.0283   21.3545 C   0  0  0  0  0  0
  -21.9908   -9.0257   20.4646 C   0  0  0  0  0  0
  -22.7235  -10.2136   20.3052 C   0  0  0  0  0  0
  -21.6854   -6.0734   22.5279 C   0  0  0  0  0  0
  -21.4015   -6.5636   23.8212 C   0  0  0  0  0  0
  -21.3660   -5.6791   24.9174 C   0  0  0  0  0  0
  -21.6045   -4.3054   24.7225 C   0  0  0  0  0  0
  -21.8819   -3.8146   23.4346 C   0  0  0  0  0  0
  -21.9193   -4.6963   22.3402 C   0  0  0  0  0  0
  -22.7851  -13.5239   21.1844 C   0  0  0  0  0  0
  -22.1662   -4.2147   21.0980 F   0  0  0  0  0  0
  -21.5627   -3.4538   25.7738 F   0  0  0  0  0  0
  -30.0322  -13.3090   20.4384 N   0  0  0  0  0  0
  -26.3014  -12.9366   20.3366 N   0  0  0  0  0  0
  -25.9325  -11.6518   20.5768 N   0  0  0  0  0  0
  -22.0492  -12.8232   22.0403 N   0  0  0  0  0  0
  -25.4290  -15.1901   20.4099 N   0  0  0  0  0  0
  -31.8573  -14.6024   20.0711 O   0  0  0  0  0  0
  -21.6640   -6.8878   21.4241 O   0  0  0  0  0  0
  -22.3535  -14.5542   20.6689 O   0  0  0  0  0  0
  -24.6159  -31.8679   23.2105 C   0  0  0  0  0  0
  -25.9050  -32.4822   23.8400 C   0  0  1  0  0  0
  -27.2249  -27.4262   20.1015 C   0  0  0  0  0  0
  -25.5906  -33.8619   24.2334 N   0  0  0  0  0  0
  -23.4044  -30.4929   21.5509 C   0  0  2  0  0  0
  -24.8511  -28.9642   20.1089 C   0  0  0  0  0  0
  -22.7422  -29.4659   22.4981 C   0  0  0  0  0  0
  -18.0275  -28.1374   22.8488 C   0  0  0  0  0  0
  -24.1489  -36.7315   23.2637 C   0  0  0  0  0  0
  -25.9352  -30.8323   21.3654 C   0  0  0  0  0  0
  -26.0132  -29.4684   20.7086 C   0  0  0  0  0  0
  -27.2071  -28.7075   20.7011 C   0  0  0  0  0  0
  -26.0531  -26.9512   19.4735 C   0  0  0  0  0  0
  -24.8667  -27.7056   19.4854 C   0  0  0  0  0  0
  -23.6127  -29.8298   20.1637 C   0  0  0  0  0  0
  -25.4107  -36.3113   24.0341 C   0  0  1  0  0  0
  -20.5867  -28.3663   23.1314 C   0  0  2  0  0  0
  -20.6763  -26.9398   22.5417 C   0  0  0  0  0  0
  -19.5745  -26.6383   21.5209 C   0  0  0  0  0  0
  -18.1922  -26.7921   22.1619 C   0  0  0  0  0  0
  -19.1524  -28.8835   23.2897 C   0  0  0  0  0  0
  -18.9452  -30.1442   23.8907 C   0  0  0  0  0  0
  -17.6454  -30.6582   24.0563 C   0  0  0  0  0  0
  -25.9035  -34.9476   23.5134 C   0  0  0  0  0  0
  -16.5344  -29.9083   23.6325 C   0  0  0  0  0  0
  -16.7264  -28.6500   23.0345 C   0  0  0  0  0  0
  -26.4473  -31.6594   25.0728 C   0  0  0  0  0  0
  -25.3739  -31.3703   26.1479 C   0  0  0  0  0  0
  -27.0292  -30.3033   24.6100 C   0  0  0  0  0  0
  -27.6059  -32.4302   25.7482 C   0  0  0  0  0  0
  -27.5585  -37.1808   24.8462 C   0  0  0  0  0  0
  -21.4147  -29.3031   22.3721 N   0  0  0  0  0  0
  -26.4294  -37.3797   23.9414 N   0  0  0  0  0  0
  -24.6700  -31.0781   22.1005 N   0  0  0  0  0  0
  -23.4192  -28.8197   23.3021 O   0  0  0  0  0  0
  -28.3446  -26.6207   20.1474 O   0  0  0  0  0  0
  -26.5593  -34.8927   22.4692 O   0  0  0  0  0  0
  -23.5349  -32.1429   23.7497 O   0  0  0  0  0  0
  -29.7375  -17.9669   21.1674 C   0  0  0  0  0  0
  -31.5910  -19.4894   21.5766 C   0  0  0  0  0  0
  -31.9651  -17.0874   21.6134 C   0  0  0  0  0  0
  -30.2183  -19.2988   21.2997 C   0  0  0  0  0  0
  -30.6047  -16.8495   21.3002 C   0  0  0  0  0  0
  -32.4706  -18.4031   21.7365 C   0  0  0  0  0  0
  -29.2928  -20.4594   21.1828 C   0  0  0  0  0  0
  -29.6070  -21.7709   21.3194 C   0  0  0  0  0  0
  -36.1184  -18.2341   22.3120 C   0  0  0  0  0  0
  -28.6042  -22.9227   21.2904 C   0  0  0  0  0  0
  -29.0650  -24.2201   20.5676 C   0  0  0  0  0  0
  -34.7285  -17.6418   22.0724 C   0  0  0  0  0  0
  -28.1195  -25.4035   20.8920 C   0  0  0  0  0  0
  -30.0989  -15.5104   21.1479 N   0  0  0  0  0  0
  -33.7877  -18.7068   22.0110 O   0  0  0  0  0  0
  -31.4570  -12.3745   19.1301 H   0  0  0  0  0  0
  -30.2896  -11.3003   19.8397 H   0  0  0  0  0  0
  -29.7318  -11.7755   17.4324 H   0  0  0  0  0  0
  -29.6634  -13.4874   17.7708 H   0  0  0  0  0  0
  -27.8239  -11.3108   18.8231 H   0  0  0  0  0  0
  -27.3634  -12.6351   17.7876 H   0  0  0  0  0  0
  -27.6960  -14.2590   19.5615 H   0  0  0  0  0  0
  -28.6744  -11.9984   21.3706 H   0  0  0  0  0  0
  -28.4670  -13.6545   21.8559 H   0  0  0  0  0  0
  -25.2762   -9.5686   22.4749 H   0  0  0  0  0  0
  -24.0003   -7.4637   22.7468 H   0  0  0  0  0  0
  -21.0839   -8.8777   19.8954 H   0  0  0  0  0  0
  -22.3694  -10.9674   19.6159 H   0  0  0  0  0  0
  -21.2007   -7.6144   23.9714 H   0  0  0  0  0  0
  -21.1482   -6.0521   25.9077 H   0  0  0  0  0  0
  -22.0598   -2.7609   23.2847 H   0  0  0  0  0  0
  -22.4104  -11.9893   22.4793 H   0  0  0  0  0  0
  -21.1112  -13.1261   22.2606 H   0  0  0  0  0  0
  -24.6628  -15.8466   20.5139 H   0  0  0  0  0  0
  -26.2817  -15.6274   20.0840 H   0  0  0  0  0  0
  -26.7124  -32.5536   23.1167 H   0  0  0  0  0  0
  -25.0070  -33.9780   25.0488 H   0  0  0  0  0  0
  -22.6930  -31.3101   21.4141 H   0  0  0  0  0  0
  -23.3751  -35.9650   23.3305 H   0  0  0  0  0  0
  -24.3588  -36.8918   22.2050 H   0  0  0  0  0  0
  -23.7243  -37.6524   23.6640 H   0  0  0  0  0  0
  -26.0505  -31.6001   20.5992 H   0  0  0  0  0  0
  -26.8221  -30.8828   21.9854 H   0  0  0  0  0  0
  -28.1007  -29.0846   21.1787 H   0  0  0  0  0  0
  -26.0506  -25.9847   18.9892 H   0  0  0  0  0  0
  -23.9760  -27.3140   19.0136 H   0  0  0  0  0  0
  -23.7194  -30.6070   19.4061 H   0  0  0  0  0  0
  -22.7366  -29.2498   19.8679 H   0  0  0  0  0  0
  -25.1280  -36.1979   25.0834 H   0  0  0  0  0  0
  -20.9958  -28.3228   24.1435 H   0  0  0  0  0  0
  -20.5659  -26.2270   23.3604 H   0  0  0  0  0  0
  -21.6635  -26.7437   22.1217 H   0  0  0  0  0  0
  -19.6907  -25.6296   21.1231 H   0  0  0  0  0  0
  -19.6689  -27.3199   20.6744 H   0  0  0  0  0  0
  -17.4195  -26.6673   21.4017 H   0  0  0  0  0  0
  -18.0322  -26.0059   22.9012 H   0  0  0  0  0  0
  -19.7930  -30.7251   24.2280 H   0  0  0  0  0  0
  -17.5013  -31.6263   24.5162 H   0  0  0  0  0  0
  -15.5344  -30.2986   23.7645 H   0  0  0  0  0  0
  -15.8665  -28.0824   22.7049 H   0  0  0  0  0  0
  -24.5920  -30.7035   25.7825 H   0  0  0  0  0  0
  -24.8919  -32.2857   26.4922 H   0  0  0  0  0  0
  -25.8097  -30.8885   27.0240 H   0  0  0  0  0  0
  -26.2832  -29.6808   24.1146 H   0  0  0  0  0  0
  -27.4051  -29.7254   25.4553 H   0  0  0  0  0  0
  -27.8676  -30.4346   23.9255 H   0  0  0  0  0  0
  -27.2692  -33.3593   26.2093 H   0  0  0  0  0  0
  -28.3848  -32.6870   25.0291 H   0  0  0  0  0  0
  -28.0749  -31.8403   26.5367 H   0  0  0  0  0  0
  -28.2600  -38.0109   24.7521 H   0  0  0  0  0  0
  -28.1081  -36.2641   24.6262 H   0  0  0  0  0  0
  -27.2311  -37.1438   25.8867 H   0  0  0  0  0  0
  -20.9304  -29.8758   21.6952 H   0  0  0  0  0  0
  -26.0185  -38.2876   24.1416 H   0  0  0  0  0  0
  -28.6906  -17.8042   20.9521 H   0  0  0  0  0  0
  -32.0010  -20.4818   21.6842 H   0  0  0  0  0  0
  -32.6224  -16.2437   21.7559 H   0  0  0  0  0  0
  -28.2584  -20.2088   20.9913 H   0  0  0  0  0  0
  -30.6267  -22.0716   21.5075 H   0  0  0  0  0  0
  -36.8717  -17.4476   22.3605 H   0  0  0  0  0  0
  -36.1532  -18.7871   23.2509 H   0  0  0  0  0  0
  -36.3992  -18.9158   21.5089 H   0  0  0  0  0  0
  -28.3953  -23.1654   22.3334 H   0  0  0  0  0  0
  -27.6598  -22.5757   20.8681 H   0  0  0  0  0  0
  -29.0895  -24.0480   19.4912 H   0  0  0  0  0  0
  -30.0807  -24.4823   20.8663 H   0  0  0  0  0  0
  -34.4790  -16.9579   22.8850 H   0  0  0  0  0  0
  -34.7278  -17.0773   21.1382 H   0  0  0  0  0  0
  -28.2116  -25.6481   21.9514 H   0  0  0  0  0  0
  -27.0999  -25.0364   20.7714 H   0  0  0  0  0  0
  -29.1333  -15.3511   21.3933 H   0  0  0  0  0  0
  1 25  1  0  0  0
  1 30  2  0  0  0
  1 84  1  0  0  0
  2  3  1  0  0  0
  2 25  1  0  0  0
  2 86  1  0  0  0
  2 87  1  0  0  0
  3  4  1  0  0  0
  3 88  1  0  0  0
  3 89  1  0  0  0
  4  5  1  0  0  0
  4 90  1  0  0  0
  4 91  1  0  0  0
  5  6  1  0  0  0
  5 26  1  0  0  0
  5 92  1  0  0  0
  6 25  1  0  0  0
  6 93  1  0  0  0
  6 94  1  0  0  0
  7  8  2  0  0  0
  7 26  1  0  0  0
  7 29  1  0  0  0
  8  9  1  0  0  0
  8 22  1  0  0  0
  9 10  1  0  0  0
  9 27  2  0  0  0
 10 11  2  0  0  0
 10 15  1  0  0  0
 11 12  1  0  0  0
 11 95  1  0  0  0
 12 13  2  0  0  0
 12 96  1  0  0  0
 13 14  1  0  0  0
 13 31  1  0  0  0
 14 15  2  0  0  0
 14 97  1  0  0  0
 15 98  1  0  0  0
 16 17  2  0  0  0
 16 21  1  0  0  0
 16 31  1  0  0  0
 17 18  1  0  0  0
 17 99  1  0  0  0
 18 19  2  0  0  0
 18100  1  0  0  0
 19 20  1  0  0  0
 19 24  1  0  0  0
 20 21  2  0  0  0
 20101  1  0  0  0
 21 23  1  0  0  0
 22 28  1  0  0  0
 22 32  2  0  0  0
 26 27  1  0  0  0
 28102  1  0  0  0
 28103  1  0  0  0
 29104  1  0  0  0
 29105  1  0  0  0
 33 34  1  0  0  0
 33 66  1  0  0  0
 33 70  2  0  0  0
 34 36  1  0  0  0
 34 59  1  0  0  0
 34106  1  0  0  0
 35 44  2  0  0  0
 35 45  1  0  0  0
 35 68  1  0  0  0
 36 56  1  0  0  0
 36107  1  0  0  0
 37 39  1  0  0  0
 37 47  1  0  0  0
 37 66  1  0  0  0
 37108  1  0  0  0
 38 43  2  0  0  0
 38 46  1  0  0  0
 38 47  1  0  0  0
 39 64  1  0  0  0
 39 67  2  0  0  0
 40 52  1  0  0  0
 40 53  2  0  0  0
 40 58  1  0  0  0
 41109  1  0  0  0
 41110  1  0  0  0
 41111  1  0  0  0
 41 48  1  0  0  0
 42 43  1  0  0  0
 42 66  1  0  0  0
 42112  1  0  0  0
 42113  1  0  0  0
 43 44  1  0  0  0
 44114  1  0  0  0
 45 46  2  0  0  0
 45115  1  0  0  0
 46116  1  0  0  0
 47117  1  0  0  0
 47118  1  0  0  0
 48 56  1  0  0  0
 48 65  1  0  0  0
 48119  1  0  0  0
 49 50  1  0  0  0
 49 53  1  0  0  0
 49 64  1  0  0  0
 49120  1  0  0  0
 50 51  1  0  0  0
 50121  1  0  0  0
 50122  1  0  0  0
 51 52  1  0  0  0
 51123  1  0  0  0
 51124  1  0  0  0
 52125  1  0  0  0
 52126  1  0  0  0
 53 54  1  0  0  0
 54 55  2  0  0  0
 54127  1  0  0  0
 55 57  1  0  0  0
 55128  1  0  0  0
 56 69  2  0  0  0
 57 58  2  0  0  0
 57129  1  0  0  0
 58130  1  0  0  0
 59 60  1  0  0  0
 59 61  1  0  0  0
 59 62  1  0  0  0
 60131  1  0  0  0
 60132  1  0  0  0
 60133  1  0  0  0
 61134  1  0  0  0
 61135  1  0  0  0
 61136  1  0  0  0
 62137  1  0  0  0
 62138  1  0  0  0
 62139  1  0  0  0
 63 65  1  0  0  0
 63140  1  0  0  0
 63141  1  0  0  0
 63142  1  0  0  0
 64143  1  0  0  0
 65144  1  0  0  0
 68 83  1  0  0  0
 71 74  2  0  0  0
 71 75  1  0  0  0
 71145  1  0  0  0
 72 74  1  0  0  0
 72 76  2  0  0  0
 72146  1  0  0  0
 73 75  2  0  0  0
 73 76  1  0  0  0
 73147  1  0  0  0
 74 77  1  0  0  0
 75 84  1  0  0  0
 76 85  1  0  0  0
 77 78  2  0  0  0
 77148  1  0  0  0
 78 80  1  0  0  0
 78149  1  0  0  0
 79 82  1  0  0  0
 79150  1  0  0  0
 79151  1  0  0  0
 79152  1  0  0  0
 80 81  1  0  0  0
 80153  1  0  0  0
 80154  1  0  0  0
 81 83  1  0  0  0
 81155  1  0  0  0
 81156  1  0  0  0
 82 85  1  0  0  0
 82157  1  0  0  0
 82158  1  0  0  0
 83159  1  0  0  0
 83160  1  0  0  0
 84161  1  0  0  0
M  ISO  4   1 100  68 101  83 101  84 100
M  END
> <chiral flag>
0

> <version>
0

> <s_m_source_file>
/data/baiqing/PycharmProjects/Reinvent-master-3.2/result/LINK_invent/BTK/process_docking_weight1_custom_product_contain_oxygen_bond_distance_aromatic_linkinvent_7_9_3/rearranged_h_0123.sdf

> <i_m_source_file_index>
93

> <r_mmod_Potential_Energy-OPLS-2005>
2.6482207775116

> <r_mmod_Stretch_Energy-OPLS-2005>
41.1932373046875

> <r_mmod_Bend_Energy-OPLS-2005>
100.81226348877

> <r_mmod_Torsional_Energy-OPLS-2005>
233.003005981445

> <r_mmod_Improper_Torsional_Energy-OPLS-2005>
3.58677911758423

> <r_mmod_Van_der_Waal_Energy-OPLS-2005>
165.076049804688

> <r_mmod_Electrostatic_Energy-OPLS-2005>
-350.988525390625

> <r_mmod_Solvation_Energy-OPLS-2005>
-206.490127563477

> <b_mmod_Minimization_Converged-OPLS-2005>
0

> <r_mmod_RMS_Derivative-OPLS-2005>
0.440475523471832

$$$$
93
                    3D
 Structure written by MMmdl.
158166  0  0  1  0            999 V2000
  -30.7588  -14.3851   20.6802 C   0  0  0  0  0  0
  -30.4244  -12.3112   19.3653 C   0  0  0  0  0  0
  -29.4911  -12.5526   18.1628 C   0  0  0  0  0  0
  -28.0006  -12.4411   18.5547 C   0  0  0  0  0  0
  -27.6650  -13.2007   19.8650 C   0  0  2  0  0  0
  -28.7049  -12.8838   20.9530 C   0  0  0  0  0  0
  -25.2599  -13.8130   20.5570 C   0  0  0  0  0  0
  -24.1849  -13.0381   20.9070 C   0  0  0  0  0  0
  -24.6408  -11.6854   20.8592 C   0  0  0  0  0  0
  -23.9074  -10.4252   21.0296 C   0  0  0  0  0  0
  -24.3629   -9.4187   21.9099 C   0  0  0  0  0  0
  -23.6294   -8.2239   22.0731 C   0  0  0  0  0  0
  -22.4277   -8.0257   21.3538 C   0  0  0  0  0  0
  -21.9905   -9.0210   20.4649 C   0  0  0  0  0  0
  -22.7228  -10.2081   20.3003 C   0  0  0  0  0  0
  -21.6869   -6.0726   22.5284 C   0  0  0  0  0  0
  -21.4014   -6.5636   23.8220 C   0  0  0  0  0  0
  -21.3657   -5.6790   24.9169 C   0  0  0  0  0  0
  -21.6046   -4.3050   24.7215 C   0  0  0  0  0  0
  -21.8822   -3.8147   23.4345 C   0  0  0  0  0  0
  -21.9195   -4.6957   22.3397 C   0  0  0  0  0  0
  -22.7862  -13.5158   21.1756 C   0  0  0  0  0  0
  -22.1652   -4.2150   21.0963 F   0  0  0  0  0  0
  -21.5640   -3.4532   25.7731 F   0  0  0  0  0  0
  -30.0475  -13.2376   20.4489 N   0  0  0  0  0  0
  -26.3038  -12.9282   20.3254 N   0  0  0  0  0  0
  -25.9334  -11.6434   20.5608 N   0  0  0  0  0  0
  -22.0573  -12.8141   22.0365 N   0  0  0  0  0  0
  -25.4237  -15.1864   20.3956 N   0  0  0  0  0  0
  -31.7921  -14.6672   20.0636 O   0  0  0  0  0  0
  -21.6635   -6.8864   21.4241 O   0  0  0  0  0  0
  -22.3500  -14.5437   20.6599 O   0  0  0  0  0  0
  -24.6099  -31.8698   23.2142 C   0  0  0  0  0  0
  -25.9015  -32.4819   23.8393 C   0  0  1  0  0  0
  -27.2160  -27.4179   20.0804 C   0  0  0  0  0  0
  -25.5904  -33.8636   24.2262 N   0  0  0  0  0  0
  -23.3941  -30.4965   21.5568 C   0  0  2  0  0  0
  -24.8356  -28.9649   20.1120 C   0  0  0  0  0  0
  -22.7345  -29.4690   22.5024 C   0  0  0  0  0  0
  -18.0257  -28.1362   22.8543 C   0  0  0  0  0  0
  -24.1506  -36.7335   23.2641 C   0  0  0  0  0  0
  -25.9277  -30.8220   21.3724 C   0  0  0  0  0  0
  -26.0009  -29.4628   20.7074 C   0  0  0  0  0  0
  -27.1931  -28.6959   20.6911 C   0  0  0  0  0  0
  -26.0210  -26.9316   19.5036 C   0  0  0  0  0  0
  -24.8402  -27.6983   19.5087 C   0  0  0  0  0  0
  -23.5924  -29.8280   20.1705 C   0  0  0  0  0  0
  -25.4144  -36.3106   24.0285 C   0  0  1  0  0  0
  -20.5833  -28.3671   23.1362 C   0  0  2  0  0  0
  -20.6780  -26.9424   22.5432 C   0  0  0  0  0  0
  -19.5739  -26.6369   21.5258 C   0  0  0  0  0  0
  -18.1912  -26.7934   22.1631 C   0  0  0  0  0  0
  -19.1492  -28.8831   23.2963 C   0  0  0  0  0  0
  -18.9416  -30.1461   23.8940 C   0  0  0  0  0  0
  -17.6417  -30.6607   24.0570 C   0  0  0  0  0  0
  -25.9029  -34.9475   23.5050 C   0  0  0  0  0  0
  -16.5307  -29.9080   23.6368 C   0  0  0  0  0  0
  -16.7239  -28.6486   23.0418 C   0  0  0  0  0  0
  -26.4436  -31.6662   25.0755 C   0  0  0  0  0  0
  -25.3657  -31.3815   26.1467 C   0  0  0  0  0  0
  -27.0291  -30.3078   24.6250 C   0  0  0  0  0  0
  -27.5964  -32.4469   25.7515 C   0  0  0  0  0  0
  -27.5592  -37.1818   24.8428 C   0  0  0  0  0  0
  -21.4066  -29.3047   22.3760 N   0  0  0  0  0  0
  -26.4328  -37.3787   23.9359 N   0  0  0  0  0  0
  -24.6625  -31.0755   22.1054 N   0  0  0  0  0  0
  -23.4119  -28.8214   23.3064 O   0  0  0  0  0  0
  -28.3979  -26.6908   20.0769 O   0  0  0  0  0  0
  -26.5574  -34.8907   22.4595 O   0  0  0  0  0  0
  -23.5301  -32.1486   23.7547 O   0  0  0  0  0  0
  -30.2134  -17.6663   22.6290 C   0  0  0  0  0  0
  -30.0277  -19.0594   22.5445 C   0  0  0  0  0  0
  -29.6738  -18.8432   20.1650 C   0  0  0  0  0  0
  -30.1184  -16.8038   21.4996 C   0  0  0  0  0  0
  -29.8437  -17.4334   20.2361 C   0  0  0  0  0  0
  -29.7509  -19.6731   21.3093 C   0  0  0  0  0  0
  -30.2569  -15.3136   21.7867 C   0  0  0  0  0  0
  -29.4222  -21.9716   20.2986 C   0  0  0  0  0  0
  -29.7056  -16.6817   18.9073 C   0  0  0  0  0  0
  -29.2276  -23.4604   20.6624 C   0  0  0  0  0  0
  -28.1005  -24.1845   19.8672 C   0  0  0  0  0  0
  -28.5128  -25.5353   19.2227 C   0  0  0  0  0  0
  -30.0361  -14.8484   22.9531 N   0  0  0  0  0  0
  -29.5570  -21.0920   21.3169 N   0  0  0  0  0  0
  -29.4808  -21.6581   19.1079 O   0  0  0  0  0  0
  -31.4632  -12.4325   19.0533 H   0  0  0  0  0  0
  -30.3414  -11.2780   19.7072 H   0  0  0  0  0  0
  -29.7197  -11.8569   17.3533 H   0  0  0  0  0  0
  -29.6847  -13.5464   17.7583 H   0  0  0  0  0  0
  -27.7493  -11.3862   18.6493 H   0  0  0  0  0  0
  -27.3857  -12.8262   17.7401 H   0  0  0  0  0  0
  -27.7269  -14.2635   19.6516 H   0  0  0  0  0  0
  -28.6810  -11.8165   21.1783 H   0  0  0  0  0  0
  -28.4134  -13.3597   21.8819 H   0  0  0  0  0  0
  -25.2796   -9.5654   22.4621 H   0  0  0  0  0  0
  -24.0024   -7.4635   22.7430 H   0  0  0  0  0  0
  -21.0868   -8.8667   19.8946 H   0  0  0  0  0  0
  -22.3670  -10.9556   19.6075 H   0  0  0  0  0  0
  -21.2000   -7.6143   23.9711 H   0  0  0  0  0  0
  -21.1488   -6.0515   25.9067 H   0  0  0  0  0  0
  -22.0619   -2.7619   23.2835 H   0  0  0  0  0  0
  -22.4304  -11.9881   22.4798 H   0  0  0  0  0  0
  -21.1157  -13.1066   22.2537 H   0  0  0  0  0  0
  -24.6458  -15.8293   20.5036 H   0  0  0  0  0  0
  -26.2781  -15.6475   20.1067 H   0  0  0  0  0  0
  -26.7057  -32.5509   23.1116 H   0  0  0  0  0  0
  -25.0136  -33.9840   25.0441 H   0  0  0  0  0  0
  -22.6877  -31.3177   21.4257 H   0  0  0  0  0  0
  -23.3779  -35.9657   23.3336 H   0  0  0  0  0  0
  -24.3588  -36.8924   22.2050 H   0  0  0  0  0  0
  -23.7254  -37.6525   23.6667 H   0  0  0  0  0  0
  -26.0555  -31.5992   20.6196 H   0  0  0  0  0  0
  -26.8080  -30.8528   22.0031 H   0  0  0  0  0  0
  -28.0971  -29.0771   21.1430 H   0  0  0  0  0  0
  -25.9638  -25.9516   19.0546 H   0  0  0  0  0  0
  -23.9379  -27.3078   19.0593 H   0  0  0  0  0  0
  -23.6686  -30.6015   19.4065 H   0  0  0  0  0  0
  -22.7157  -29.2376   19.8972 H   0  0  0  0  0  0
  -25.1342  -36.1979   25.0788 H   0  0  0  0  0  0
  -20.9945  -28.3261   24.1476 H   0  0  0  0  0  0
  -20.5784  -26.2273   23.3607 H   0  0  0  0  0  0
  -21.6645  -26.7538   22.1160 H   0  0  0  0  0  0
  -19.6938  -25.6280   21.1316 H   0  0  0  0  0  0
  -19.6711  -27.3164   20.6788 H   0  0  0  0  0  0
  -17.4202  -26.6746   21.3994 H   0  0  0  0  0  0
  -18.0280  -26.0025   22.8964 H   0  0  0  0  0  0
  -19.7877  -30.7309   24.2301 H   0  0  0  0  0  0
  -17.4942  -31.6304   24.5153 H   0  0  0  0  0  0
  -15.5303  -30.2964   23.7740 H   0  0  0  0  0  0
  -15.8626  -28.0802   22.7158 H   0  0  0  0  0  0
  -24.5798  -30.7199   25.7785 H   0  0  0  0  0  0
  -24.8890  -32.3002   26.4907 H   0  0  0  0  0  0
  -25.7932  -30.8949   27.0241 H   0  0  0  0  0  0
  -26.2874  -29.6846   24.1232 H   0  0  0  0  0  0
  -27.3882  -29.7333   25.4801 H   0  0  0  0  0  0
  -27.8794  -30.4343   23.9534 H   0  0  0  0  0  0
  -27.2514  -33.3759   26.2083 H   0  0  0  0  0  0
  -28.3773  -32.7099   25.0356 H   0  0  0  0  0  0
  -28.0641  -31.8648   26.5446 H   0  0  0  0  0  0
  -28.2597  -38.0130   24.7523 H   0  0  0  0  0  0
  -28.1098  -36.2649   24.6246 H   0  0  0  0  0  0
  -27.2290  -37.1459   25.8820 H   0  0  0  0  0  0
  -20.9203  -29.8717   21.6940 H   0  0  0  0  0  0
  -26.0221  -38.2876   24.1329 H   0  0  0  0  0  0
  -30.4290  -17.2666   23.6116 H   0  0  0  0  0  0
  -30.1026  -19.6570   23.4452 H   0  0  0  0  0  0
  -29.4713  -19.2760   19.1988 H   0  0  0  0  0  0
  -29.2396  -17.2918   18.1310 H   0  0  0  0  0  0
  -29.0799  -15.7967   18.9932 H   0  0  0  0  0  0
  -30.6825  -16.3872   18.5178 H   0  0  0  0  0  0
  -30.1843  -23.9447   20.4625 H   0  0  0  0  0  0
  -29.0670  -23.5786   21.7342 H   0  0  0  0  0  0
  -27.2180  -24.3085   20.4956 H   0  0  0  0  0  0
  -27.7581  -23.5416   19.0537 H   0  0  0  0  0  0
  -27.9707  -25.6846   18.2871 H   0  0  0  0  0  0
  -29.5517  -25.4747   18.8933 H   0  0  0  0  0  0
  -29.7270  -15.5639   23.5975 H   0  0  0  0  0  0
  -29.5287  -21.5114   22.2388 H   0  0  0  0  0  0
  1 25  1  0  0  0
  1 30  2  0  0  0
  1 77  1  0  0  0
  2  3  1  0  0  0
  2 25  1  0  0  0
  2 86  1  0  0  0
  2 87  1  0  0  0
  3  4  1  0  0  0
  3 88  1  0  0  0
  3 89  1  0  0  0
  4  5  1  0  0  0
  4 90  1  0  0  0
  4 91  1  0  0  0
  5  6  1  0  0  0
  5 26  1  0  0  0
  5 92  1  0  0  0
  6 25  1  0  0  0
  6 93  1  0  0  0
  6 94  1  0  0  0
  7  8  2  0  0  0
  7 26  1  0  0  0
  7 29  1  0  0  0
  8  9  1  0  0  0
  8 22  1  0  0  0
  9 10  1  0  0  0
  9 27  2  0  0  0
 10 11  2  0  0  0
 10 15  1  0  0  0
 11 12  1  0  0  0
 11 95  1  0  0  0
 12 13  2  0  0  0
 12 96  1  0  0  0
 13 14  1  0  0  0
 13 31  1  0  0  0
 14 15  2  0  0  0
 14 97  1  0  0  0
 15 98  1  0  0  0
 16 17  2  0  0  0
 16 21  1  0  0  0
 16 31  1  0  0  0
 17 18  1  0  0  0
 17 99  1  0  0  0
 18 19  2  0  0  0
 18100  1  0  0  0
 19 20  1  0  0  0
 19 24  1  0  0  0
 20 21  2  0  0  0
 20101  1  0  0  0
 21 23  1  0  0  0
 22 28  1  0  0  0
 22 32  2  0  0  0
 26 27  1  0  0  0
 28102  1  0  0  0
 28103  1  0  0  0
 29104  1  0  0  0
 29105  1  0  0  0
 33 34  1  0  0  0
 33 66  1  0  0  0
 33 70  2  0  0  0
 34 36  1  0  0  0
 34 59  1  0  0  0
 34106  1  0  0  0
 35 44  2  0  0  0
 35 45  1  0  0  0
 35 68  1  0  0  0
 36 56  1  0  0  0
 36107  1  0  0  0
 37 39  1  0  0  0
 37 47  1  0  0  0
 37 66  1  0  0  0
 37108  1  0  0  0
 38 43  2  0  0  0
 38 46  1  0  0  0
 38 47  1  0  0  0
 39 64  1  0  0  0
 39 67  2  0  0  0
 40 52  1  0  0  0
 40 53  2  0  0  0
 40 58  1  0  0  0
 41109  1  0  0  0
 41110  1  0  0  0
 41111  1  0  0  0
 41 48  1  0  0  0
 42 43  1  0  0  0
 42 66  1  0  0  0
 42112  1  0  0  0
 42113  1  0  0  0
 43 44  1  0  0  0
 44114  1  0  0  0
 45 46  2  0  0  0
 45115  1  0  0  0
 46116  1  0  0  0
 47117  1  0  0  0
 47118  1  0  0  0
 48 56  1  0  0  0
 48 65  1  0  0  0
 48119  1  0  0  0
 49 50  1  0  0  0
 49 53  1  0  0  0
 49 64  1  0  0  0
 49120  1  0  0  0
 50 51  1  0  0  0
 50121  1  0  0  0
 50122  1  0  0  0
 51 52  1  0  0  0
 51123  1  0  0  0
 51124  1  0  0  0
 52125  1  0  0  0
 52126  1  0  0  0
 53 54  1  0  0  0
 54 55  2  0  0  0
 54127  1  0  0  0
 55 57  1  0  0  0
 55128  1  0  0  0
 56 69  2  0  0  0
 57 58  2  0  0  0
 57129  1  0  0  0
 58130  1  0  0  0
 59 60  1  0  0  0
 59 61  1  0  0  0
 59 62  1  0  0  0
 60131  1  0  0  0
 60132  1  0  0  0
 60133  1  0  0  0
 61134  1  0  0  0
 61135  1  0  0  0
 61136  1  0  0  0
 62137  1  0  0  0
 62138  1  0  0  0
 62139  1  0  0  0
 63 65  1  0  0  0
 63140  1  0  0  0
 63141  1  0  0  0
 63142  1  0  0  0
 64143  1  0  0  0
 65144  1  0  0  0
 68 82  1  0  0  0
 71 72  2  0  0  0
 71 74  1  0  0  0
 71145  1  0  0  0
 72 76  1  0  0  0
 72146  1  0  0  0
 73 75  1  0  0  0
 73 76  2  0  0  0
 73147  1  0  0  0
 74 75  2  0  0  0
 74 77  1  0  0  0
 75 79  1  0  0  0
 76 84  1  0  0  0
 77 83  2  0  0  0
 78 80  1  0  0  0
 78 84  1  0  0  0
 78 85  2  0  0  0
 79148  1  0  0  0
 79149  1  0  0  0
 79150  1  0  0  0
 80 81  1  0  0  0
 80151  1  0  0  0
 80152  1  0  0  0
 81 82  1  0  0  0
 81153  1  0  0  0
 81154  1  0  0  0
 82155  1  0  0  0
 82156  1  0  0  0
 83157  1  0  0  0
 84158  1  0  0  0
M  ISO  4   1 100  68 101  77 100  82 101
M  END
> <chiral flag>
0

> <version>
0

> <s_m_source_file>
/data/baiqing/PycharmProjects/Reinvent-master-3.2/result/LINK_invent/BTK/process_docking_weight1_custom_product_contain_oxygen_bond_distance_aromatic_linkinvent_7_9_3/rearranged_h_0123.sdf

> <i_m_source_file_index>
94

> <r_mmod_Potential_Energy-OPLS-2005>
93.5738143920898

> <r_mmod_Stretch_Energy-OPLS-2005>
50.6709480285645

> <r_mmod_Bend_Energy-OPLS-2005>
130.279876708984

> <r_mmod_Torsional_Energy-OPLS-2005>
209.036880493164

> <r_mmod_Improper_Torsional_Energy-OPLS-2005>
2.51927971839905

> <r_mmod_Van_der_Waal_Energy-OPLS-2005>
176.487884521484

> <r_mmod_Electrostatic_Energy-OPLS-2005>
-270.857482910156

> <r_mmod_Solvation_Energy-OPLS-2005>
-216.247756958008

> <b_mmod_Minimization_Converged-OPLS-2005>
0

> <r_mmod_RMS_Derivative-OPLS-2005>
5.38782453536987

$$$$
94
                    3D
 Structure written by MMmdl.
156164  0  0  1  0            999 V2000
  -30.5727  -14.7649   20.4283 C   0  0  0  0  0  0
  -30.4393  -12.4591   19.4808 C   0  0  0  0  0  0
  -29.5184  -12.5060   18.2389 C   0  0  0  0  0  0
  -28.0406  -12.3170   18.6374 C   0  0  0  0  0  0
  -27.6366  -13.2155   19.8339 C   0  0  2  0  0  0
  -28.6770  -13.1630   20.9737 C   0  0  0  0  0  0
  -25.2555  -13.8145   20.5688 C   0  0  0  0  0  0
  -24.1812  -13.0440   20.9206 C   0  0  0  0  0  0
  -24.6353  -11.6901   20.8736 C   0  0  0  0  0  0
  -23.8999  -10.4296   21.0407 C   0  0  0  0  0  0
  -24.3571   -9.4231   21.9183 C   0  0  0  0  0  0
  -23.6297   -8.2239   22.0744 C   0  0  0  0  0  0
  -22.4272   -8.0267   21.3549 C   0  0  0  0  0  0
  -21.9879   -9.0222   20.4645 C   0  0  0  0  0  0
  -22.7169  -10.2133   20.3059 C   0  0  0  0  0  0
  -21.6826   -6.0749   22.5292 C   0  0  0  0  0  0
  -21.4001   -6.5664   23.8230 C   0  0  0  0  0  0
  -21.3660   -5.6802   24.9193 C   0  0  0  0  0  0
  -21.6048   -4.3064   24.7227 C   0  0  0  0  0  0
  -21.8823   -3.8164   23.4338 C   0  0  0  0  0  0
  -21.9195   -4.6991   22.3407 C   0  0  0  0  0  0
  -22.7858  -13.5281   21.1878 C   0  0  0  0  0  0
  -22.1676   -4.2185   21.0983 F   0  0  0  0  0  0
  -21.5626   -3.4545   25.7726 F   0  0  0  0  0  0
  -29.9840  -13.5183   20.4099 N   0  0  0  0  0  0
  -26.2917  -12.9301   20.3175 N   0  0  0  0  0  0
  -25.9272  -11.6480   20.5687 N   0  0  0  0  0  0
  -22.0464  -12.8286   22.0415 N   0  0  0  0  0  0
  -25.4323  -15.1867   20.4169 N   0  0  0  0  0  0
  -31.7764  -14.8576   20.1665 O   0  0  0  0  0  0
  -21.6633   -6.8872   21.4248 O   0  0  0  0  0  0
  -22.3585  -14.5602   20.6718 O   0  0  0  0  0  0
  -24.6285  -31.8566   23.1990 C   0  0  0  0  0  0
  -25.9129  -32.4748   23.8339 C   0  0  1  0  0  0
  -27.2185  -27.2836   20.1463 C   0  0  0  0  0  0
  -25.5958  -33.8556   24.2274 N   0  0  0  0  0  0
  -23.4242  -30.4766   21.5418 C   0  0  2  0  0  0
  -24.8720  -28.9161   20.1215 C   0  0  0  0  0  0
  -22.7476  -29.4616   22.4940 C   0  0  0  0  0  0
  -18.0265  -28.1377   22.8485 C   0  0  0  0  0  0
  -24.1483  -36.7273   23.2632 C   0  0  0  0  0  0
  -25.9650  -30.7772   21.3745 C   0  0  0  0  0  0
  -26.0408  -29.3982   20.7244 C   0  0  0  0  0  0
  -27.2226  -28.5943   20.7229 C   0  0  0  0  0  0
  -26.0308  -26.8512   19.5270 C   0  0  0  0  0  0
  -24.8683  -27.6493   19.5146 C   0  0  0  0  0  0
  -23.6414  -29.8014   20.1611 C   0  0  0  0  0  0
  -25.4110  -36.3076   24.0331 C   0  0  1  0  0  0
  -20.5874  -28.3689   23.1279 C   0  0  2  0  0  0
  -20.6761  -26.9411   22.5410 C   0  0  0  0  0  0
  -19.5745  -26.6373   21.5212 C   0  0  0  0  0  0
  -18.1915  -26.7921   22.1606 C   0  0  0  0  0  0
  -19.1520  -28.8842   23.2872 C   0  0  0  0  0  0
  -18.9452  -30.1451   23.8878 C   0  0  0  0  0  0
  -17.6458  -30.6586   24.0541 C   0  0  0  0  0  0
  -25.9061  -34.9446   23.5090 C   0  0  0  0  0  0
  -16.5344  -29.9076   23.6344 C   0  0  0  0  0  0
  -16.7254  -28.6488   23.0370 C   0  0  0  0  0  0
  -26.4515  -31.6564   25.0722 C   0  0  0  0  0  0
  -25.3750  -31.3741   26.1460 C   0  0  0  0  0  0
  -27.0333  -30.2970   24.6195 C   0  0  0  0  0  0
  -27.6080  -32.4298   25.7483 C   0  0  0  0  0  0
  -27.5603  -37.1766   24.8439 C   0  0  0  0  0  0
  -21.4187  -29.3049   22.3681 N   0  0  0  0  0  0
  -26.4270  -37.3797   23.9442 N   0  0  0  0  0  0
  -24.6909  -31.0551   22.0951 N   0  0  0  0  0  0
  -23.4180  -28.8163   23.3045 O   0  0  0  0  0  0
  -28.3190  -26.4135   20.1238 O   0  0  0  0  0  0
  -26.5614  -34.8927   22.4664 O   0  0  0  0  0  0
  -23.5447  -32.1386   23.7317 O   0  0  0  0  0  0
  -27.0419  -19.4444   19.2776 C   0  0  0  0  0  0
  -27.9083  -18.3761   19.5744 C   0  0  0  0  0  0
  -27.3707  -20.7713   19.6127 C   0  0  0  0  0  0
  -29.1470  -18.5755   20.2196 C   0  0  0  0  0  0
  -28.5629  -21.0895   20.2965 C   0  0  0  0  0  0
  -29.4461  -19.9594   20.6006 C   0  0  0  0  0  0
  -30.0318  -17.3117   20.4006 C   0  0  0  0  0  0
  -28.7739  -22.5708   20.6965 C   0  0  0  0  0  0
  -29.6601  -15.9745   20.4853 C   0  0  0  0  0  0
  -28.1063  -23.7319   20.3276 C   0  0  0  0  0  0
  -30.4558  -20.1108   22.9052 C   0  0  0  0  0  0
  -30.7117  -20.2309   21.3984 C   0  0  0  0  0  0
  -28.2682  -25.1786   20.9559 C   0  0  0  0  0  0
  -31.4786  -12.5978   19.1812 H   0  0  0  0  0  0
  -30.3951  -11.4834   19.9656 H   0  0  0  0  0  0
  -29.8162  -11.7430   17.5189 H   0  0  0  0  0  0
  -29.6390  -13.4657   17.7314 H   0  0  0  0  0  0
  -27.8916  -11.2663   18.8886 H   0  0  0  0  0  0
  -27.3938  -12.5168   17.7823 H   0  0  0  0  0  0
  -27.6170  -14.2253   19.4304 H   0  0  0  0  0  0
  -28.7151  -12.1719   21.4281 H   0  0  0  0  0  0
  -28.4025  -13.8499   21.7766 H   0  0  0  0  0  0
  -25.2723   -9.5740   22.4755 H   0  0  0  0  0  0
  -24.0041   -7.4631   22.7444 H   0  0  0  0  0  0
  -21.0821   -8.8681   19.8970 H   0  0  0  0  0  0
  -22.3576  -10.9650   19.6173 H   0  0  0  0  0  0
  -21.1964   -7.6168   23.9739 H   0  0  0  0  0  0
  -21.1496   -6.0531   25.9095 H   0  0  0  0  0  0
  -22.0596   -2.7630   23.2787 H   0  0  0  0  0  0
  -22.4026  -11.9941   22.4826 H   0  0  0  0  0  0
  -21.1079  -13.1348   22.2591 H   0  0  0  0  0  0
  -24.6748  -15.8454   20.5546 H   0  0  0  0  0  0
  -26.2967  -15.6261   20.1298 H   0  0  0  0  0  0
  -26.7196  -32.5427   23.1083 H   0  0  0  0  0  0
  -25.0149  -33.9709   25.0445 H   0  0  0  0  0  0
  -22.7202  -31.2976   21.3928 H   0  0  0  0  0  0
  -23.3792  -35.9552   23.3207 H   0  0  0  0  0  0
  -24.3598  -36.8985   22.2069 H   0  0  0  0  0  0
  -23.7154  -37.6414   23.6704 H   0  0  0  0  0  0
  -26.0980  -31.5355   20.6020 H   0  0  0  0  0  0
  -26.8455  -30.8303   22.0023 H   0  0  0  0  0  0
  -28.1234  -28.9604   21.1974 H   0  0  0  0  0  0
  -26.0012  -25.8745   19.0629 H   0  0  0  0  0  0
  -23.9691  -27.2699   19.0470 H   0  0  0  0  0  0
  -23.7613  -30.5716   19.3982 H   0  0  0  0  0  0
  -22.7623  -29.2263   19.8645 H   0  0  0  0  0  0
  -25.1275  -36.1909   25.0815 H   0  0  0  0  0  0
  -20.9951  -28.3257   24.1406 H   0  0  0  0  0  0
  -20.5653  -26.2300   23.3615 H   0  0  0  0  0  0
  -21.6629  -26.7436   22.1207 H   0  0  0  0  0  0
  -19.6904  -25.6272   21.1266 H   0  0  0  0  0  0
  -19.6703  -27.3159   20.6732 H   0  0  0  0  0  0
  -17.4207  -26.6688   21.3986 H   0  0  0  0  0  0
  -18.0291  -26.0042   22.8975 H   0  0  0  0  0  0
  -19.7938  -30.7263   24.2233 H   0  0  0  0  0  0
  -17.5020  -31.6281   24.5115 H   0  0  0  0  0  0
  -15.5344  -30.2976   23.7680 H   0  0  0  0  0  0
  -15.8648  -28.0802   22.7111 H   0  0  0  0  0  0
  -24.5872  -30.7143   25.7803 H   0  0  0  0  0  0
  -24.9011  -32.2928   26.4936 H   0  0  0  0  0  0
  -25.8070  -30.8869   27.0210 H   0  0  0  0  0  0
  -26.2896  -29.6715   24.1230 H   0  0  0  0  0  0
  -27.4015  -29.7239   25.4718 H   0  0  0  0  0  0
  -27.8793  -30.4227   23.9426 H   0  0  0  0  0  0
  -27.2700  -33.3622   26.2029 H   0  0  0  0  0  0
  -28.3912  -32.6811   25.0312 H   0  0  0  0  0  0
  -28.0712  -31.8425   26.5425 H   0  0  0  0  0  0
  -28.2516  -38.0167   24.7653 H   0  0  0  0  0  0
  -28.1197  -36.2719   24.6025 H   0  0  0  0  0  0
  -27.2355  -37.1113   25.8837 H   0  0  0  0  0  0
  -20.9357  -29.8776   21.6892 H   0  0  0  0  0  0
  -26.0142  -38.2843   24.1549 H   0  0  0  0  0  0
  -26.1056  -19.2426   18.7765 H   0  0  0  0  0  0
  -27.6108  -17.3869   19.2581 H   0  0  0  0  0  0
  -26.6588  -21.5446   19.3714 H   0  0  0  0  0  0
  -31.0948  -17.5047   20.3692 H   0  0  0  0  0  0
  -29.5371  -22.7185   21.4440 H   0  0  0  0  0  0
  -28.6019  -15.7920   20.5483 H   0  0  0  0  0  0
  -27.3294  -23.6686   19.5791 H   0  0  0  0  0  0
  -31.3483  -20.3693   23.4741 H   0  0  0  0  0  0
  -30.1663  -19.0937   23.1728 H   0  0  0  0  0  0
  -29.6530  -20.7774   23.2254 H   0  0  0  0  0  0
  -31.1013  -21.2210   21.1640 H   0  0  0  0  0  0
  -31.5051  -19.5481   21.1036 H   0  0  0  0  0  0
  -29.1770  -25.1682   21.5593 H   0  0  0  0  0  0
  -27.4573  -25.2903   21.6776 H   0  0  0  0  0  0
  1 25  1  0  0  0
  1 30  2  0  0  0
  1 79  1  0  0  0
  2  3  1  0  0  0
  2 25  1  0  0  0
  2 84  1  0  0  0
  2 85  1  0  0  0
  3  4  1  0  0  0
  3 86  1  0  0  0
  3 87  1  0  0  0
  4  5  1  0  0  0
  4 88  1  0  0  0
  4 89  1  0  0  0
  5  6  1  0  0  0
  5 26  1  0  0  0
  5 90  1  0  0  0
  6 25  1  0  0  0
  6 91  1  0  0  0
  6 92  1  0  0  0
  7  8  2  0  0  0
  7 26  1  0  0  0
  7 29  1  0  0  0
  8  9  1  0  0  0
  8 22  1  0  0  0
  9 10  1  0  0  0
  9 27  2  0  0  0
 10 11  2  0  0  0
 10 15  1  0  0  0
 11 12  1  0  0  0
 11 93  1  0  0  0
 12 13  2  0  0  0
 12 94  1  0  0  0
 13 14  1  0  0  0
 13 31  1  0  0  0
 14 15  2  0  0  0
 14 95  1  0  0  0
 15 96  1  0  0  0
 16 17  2  0  0  0
 16 21  1  0  0  0
 16 31  1  0  0  0
 17 18  1  0  0  0
 17 97  1  0  0  0
 18 19  2  0  0  0
 18 98  1  0  0  0
 19 20  1  0  0  0
 19 24  1  0  0  0
 20 21  2  0  0  0
 20 99  1  0  0  0
 21 23  1  0  0  0
 22 28  1  0  0  0
 22 32  2  0  0  0
 26 27  1  0  0  0
 28100  1  0  0  0
 28101  1  0  0  0
 29102  1  0  0  0
 29103  1  0  0  0
 33 34  1  0  0  0
 33 66  1  0  0  0
 33 70  2  0  0  0
 34 36  1  0  0  0
 34 59  1  0  0  0
 34104  1  0  0  0
 35 44  2  0  0  0
 35 45  1  0  0  0
 35 68  1  0  0  0
 36 56  1  0  0  0
 36105  1  0  0  0
 37 39  1  0  0  0
 37 47  1  0  0  0
 37 66  1  0  0  0
 37106  1  0  0  0
 38 43  2  0  0  0
 38 46  1  0  0  0
 38 47  1  0  0  0
 39 64  1  0  0  0
 39 67  2  0  0  0
 40 52  1  0  0  0
 40 53  2  0  0  0
 40 58  1  0  0  0
 41107  1  0  0  0
 41108  1  0  0  0
 41109  1  0  0  0
 41 48  1  0  0  0
 42 43  1  0  0  0
 42 66  1  0  0  0
 42110  1  0  0  0
 42111  1  0  0  0
 43 44  1  0  0  0
 44112  1  0  0  0
 45 46  2  0  0  0
 45113  1  0  0  0
 46114  1  0  0  0
 47115  1  0  0  0
 47116  1  0  0  0
 48 56  1  0  0  0
 48 65  1  0  0  0
 48117  1  0  0  0
 49 50  1  0  0  0
 49 53  1  0  0  0
 49 64  1  0  0  0
 49118  1  0  0  0
 50 51  1  0  0  0
 50119  1  0  0  0
 50120  1  0  0  0
 51 52  1  0  0  0
 51121  1  0  0  0
 51122  1  0  0  0
 52123  1  0  0  0
 52124  1  0  0  0
 53 54  1  0  0  0
 54 55  2  0  0  0
 54125  1  0  0  0
 55 57  1  0  0  0
 55126  1  0  0  0
 56 69  2  0  0  0
 57 58  2  0  0  0
 57127  1  0  0  0
 58128  1  0  0  0
 59 60  1  0  0  0
 59 61  1  0  0  0
 59 62  1  0  0  0
 60129  1  0  0  0
 60130  1  0  0  0
 60131  1  0  0  0
 61132  1  0  0  0
 61133  1  0  0  0
 61134  1  0  0  0
 62135  1  0  0  0
 62136  1  0  0  0
 62137  1  0  0  0
 63 65  1  0  0  0
 63138  1  0  0  0
 63139  1  0  0  0
 63140  1  0  0  0
 64141  1  0  0  0
 65142  1  0  0  0
 68 83  1  0  0  0
 71 72  2  0  0  0
 71 73  1  0  0  0
 71143  1  0  0  0
 72 74  1  0  0  0
 72144  1  0  0  0
 73 75  2  0  0  0
 73145  1  0  0  0
 74 76  2  0  0  0
 74 77  1  0  0  0
 75 76  1  0  0  0
 75 78  1  0  0  0
 76 82  1  0  0  0
 77 79  2  0  0  0
 77146  1  0  0  0
 78 80  2  0  0  0
 78147  1  0  0  0
 79148  1  0  0  0
 80 83  1  0  0  0
 80149  1  0  0  0
 81 82  1  0  0  0
 81150  1  0  0  0
 81151  1  0  0  0
 81152  1  0  0  0
 82153  1  0  0  0
 82154  1  0  0  0
 83155  1  0  0  0
 83156  1  0  0  0
M  ISO  4   1 100  68 101  79 100  83 101
M  END
> <chiral flag>
0

> <version>
0

> <s_m_source_file>
/data/baiqing/PycharmProjects/Reinvent-master-3.2/result/LINK_invent/BTK/process_docking_weight1_custom_product_contain_oxygen_bond_distance_aromatic_linkinvent_7_9_3/rearranged_h_0123.sdf

> <i_m_source_file_index>
95

> <r_mmod_Potential_Energy-OPLS-2005>
187.434494018555

> <r_mmod_Stretch_Energy-OPLS-2005>
116.266387939453

> <r_mmod_Bend_Energy-OPLS-2005>
145.813949584961

> <r_mmod_Torsional_Energy-OPLS-2005>
220.078430175781

> <r_mmod_Improper_Torsional_Energy-OPLS-2005>
8.90696430206299

> <r_mmod_Van_der_Waal_Energy-OPLS-2005>
137.094757080078

> <r_mmod_Electrostatic_Energy-OPLS-2005>
-335.378021240234

> <r_mmod_Solvation_Energy-OPLS-2005>
-189.517349243164

> <b_mmod_Minimization_Converged-OPLS-2005>
0

> <r_mmod_RMS_Derivative-OPLS-2005>
3.24553513526917

$$$$
95
                    3D
 Structure written by MMmdl.
160168  0  0  1  0            999 V2000
  -30.6773  -14.7702   20.4324 C   0  0  0  0  0  0
  -30.4152  -12.4700   19.4939 C   0  0  0  0  0  0
  -29.5183  -12.5064   18.2357 C   0  0  0  0  0  0
  -28.0425  -12.3181   18.6424 C   0  0  0  0  0  0
  -27.6245  -13.2387   19.8203 C   0  0  2  0  0  0
  -28.6605  -13.2321   20.9582 C   0  0  0  0  0  0
  -25.2459  -13.8217   20.5629 C   0  0  0  0  0  0
  -24.1760  -13.0462   20.9230 C   0  0  0  0  0  0
  -24.6344  -11.6932   20.8702 C   0  0  0  0  0  0
  -23.8979  -10.4334   21.0400 C   0  0  0  0  0  0
  -24.3585   -9.4246   21.9120 C   0  0  0  0  0  0
  -23.6260   -8.2253   22.0674 C   0  0  0  0  0  0
  -22.4207   -8.0258   21.3510 C   0  0  0  0  0  0
  -21.9884   -9.0237   20.4595 C   0  0  0  0  0  0
  -22.7164  -10.2174   20.3055 C   0  0  0  0  0  0
  -21.6782   -6.0741   22.5282 C   0  0  0  0  0  0
  -21.3987   -6.5614   23.8227 C   0  0  0  0  0  0
  -21.3708   -5.6783   24.9195 C   0  0  0  0  0  0
  -21.6012   -4.3019   24.7214 C   0  0  0  0  0  0
  -21.8813   -3.8142   23.4295 C   0  0  0  0  0  0
  -21.9167   -4.6981   22.3367 C   0  0  0  0  0  0
  -22.7832  -13.5208   21.1975 C   0  0  0  0  0  0
  -22.1643   -4.2185   21.0936 F   0  0  0  0  0  0
  -21.5687   -3.4477   25.7735 F   0  0  0  0  0  0
  -29.9713  -13.5785   20.3802 N   0  0  0  0  0  0
  -26.2829  -12.9423   20.3148 N   0  0  0  0  0  0
  -25.9219  -11.6532   20.5569 N   0  0  0  0  0  0
  -22.0531  -12.8172   22.0575 N   0  0  0  0  0  0
  -25.4126  -15.1911   20.3975 N   0  0  0  0  0  0
  -31.8770  -14.7595   20.1503 O   0  0  0  0  0  0
  -21.6510   -6.8895   21.4247 O   0  0  0  0  0  0
  -22.3461  -14.5484   20.6857 O   0  0  0  0  0  0
  -24.6422  -31.8487   23.1854 C   0  0  0  0  0  0
  -25.9228  -32.4691   23.8231 C   0  0  1  0  0  0
  -27.2236  -27.1954   20.1541 C   0  0  0  0  0  0
  -25.5987  -33.8484   24.2176 N   0  0  0  0  0  0
  -23.4418  -30.4671   21.5321 C   0  0  2  0  0  0
  -24.8909  -28.8995   20.1115 C   0  0  0  0  0  0
  -22.7547  -29.4570   22.4860 C   0  0  0  0  0  0
  -18.0295  -28.1386   22.8484 C   0  0  0  0  0  0
  -24.1497  -36.7254   23.2639 C   0  0  0  0  0  0
  -25.9937  -30.7440   21.3741 C   0  0  0  0  0  0
  -26.0678  -29.3602   20.7188 C   0  0  0  0  0  0
  -27.2417  -28.5263   20.7123 C   0  0  0  0  0  0
  -26.0248  -26.8120   19.5189 C   0  0  0  0  0  0
  -24.8815  -27.6394   19.4938 C   0  0  0  0  0  0
  -23.6625  -29.7933   20.1511 C   0  0  0  0  0  0
  -25.4121  -36.3014   24.0307 C   0  0  1  0  0  0
  -20.5909  -28.3708   23.1222 C   0  0  2  0  0  0
  -20.6782  -26.9410   22.5390 C   0  0  0  0  0  0
  -19.5761  -26.6379   21.5201 C   0  0  0  0  0  0
  -18.1943  -26.7930   22.1619 C   0  0  0  0  0  0
  -19.1556  -28.8867   23.2844 C   0  0  0  0  0  0
  -18.9474  -30.1456   23.8864 C   0  0  0  0  0  0
  -17.6475  -30.6578   24.0551 C   0  0  0  0  0  0
  -25.9080  -34.9401   23.5041 C   0  0  0  0  0  0
  -16.5361  -29.9078   23.6331 C   0  0  0  0  0  0
  -16.7282  -28.6503   23.0355 C   0  0  0  0  0  0
  -26.4565  -31.6550   25.0662 C   0  0  0  0  0  0
  -25.3732  -31.3742   26.1330 C   0  0  0  0  0  0
  -27.0466  -30.2950   24.6247 C   0  0  0  0  0  0
  -27.6061  -32.4345   25.7475 C   0  0  0  0  0  0
  -27.5561  -37.1787   24.8458 C   0  0  0  0  0  0
  -21.4228  -29.3050   22.3617 N   0  0  0  0  0  0
  -26.4279  -37.3732   23.9394 N   0  0  0  0  0  0
  -24.7111  -31.0411   22.0854 N   0  0  0  0  0  0
  -23.4230  -28.8118   23.2979 O   0  0  0  0  0  0
  -28.3004  -26.2604   20.1672 O   0  0  0  0  0  0
  -26.5677  -34.8917   22.4613 O   0  0  0  0  0  0
  -23.5556  -32.1325   23.7150 O   0  0  0  0  0  0
  -28.6168  -18.8629   22.6310 C   0  0  0  0  0  0
  -29.3059  -16.1872   22.6711 C   0  0  0  0  0  0
  -28.3660  -18.1019   23.7812 C   0  0  0  0  0  0
  -28.7469  -16.7566   23.8176 C   0  0  0  0  0  0
  -29.1985  -18.3431   21.4465 C   0  0  0  0  0  0
  -29.5208  -16.8866   21.4560 C   0  0  0  0  0  0
  -28.7114  -20.5357   20.1526 C   0  0  0  0  0  0
  -27.7293  -18.7555   24.9873 C   0  0  0  0  0  0
  -28.6357  -15.9271   25.0868 C   0  0  0  0  0  0
  -28.8268  -22.0137   20.8074 C   0  0  0  0  0  0
  -28.7688  -23.4469   19.9806 C   0  0  0  0  0  0
  -28.0774  -24.8083   20.6090 C   0  0  0  0  0  0
  -29.5065  -19.4319   20.4812 N   0  0  0  0  0  0
  -30.0480  -16.0192   20.3897 N   0  0  0  0  0  0
  -27.7928  -20.3734   19.3480 O   0  0  0  0  0  0
  -31.4704  -12.5325   19.2157 H   0  0  0  0  0  0
  -30.3202  -11.5144   20.0086 H   0  0  0  0  0  0
  -29.7956  -11.7196   17.5324 H   0  0  0  0  0  0
  -29.6447  -13.4537   17.7098 H   0  0  0  0  0  0
  -27.9110  -11.2701   18.9235 H   0  0  0  0  0  0
  -27.3956  -12.4793   17.7830 H   0  0  0  0  0  0
  -27.5948  -14.2529   19.4144 H   0  0  0  0  0  0
  -28.6972  -12.2611   21.4546 H   0  0  0  0  0  0
  -28.3302  -13.9328   21.7117 H   0  0  0  0  0  0
  -25.2805   -9.5599   22.4633 H   0  0  0  0  0  0
  -23.9916   -7.4628   22.7390 H   0  0  0  0  0  0
  -21.0786   -8.8766   19.8976 H   0  0  0  0  0  0
  -22.3591  -10.9689   19.6131 H   0  0  0  0  0  0
  -21.1943   -7.6117   23.9711 H   0  0  0  0  0  0
  -21.1554   -6.0518   25.9098 H   0  0  0  0  0  0
  -22.0557   -2.7595   23.2750 H   0  0  0  0  0  0
  -22.4192  -11.9844   22.4970 H   0  0  0  0  0  0
  -21.1135  -13.1176   22.2871 H   0  0  0  0  0  0
  -24.6457  -15.8456   20.5260 H   0  0  0  0  0  0
  -26.2903  -15.6364   20.1625 H   0  0  0  0  0  0
  -26.7317  -32.5341   23.0987 H   0  0  0  0  0  0
  -25.0086  -33.9599   25.0300 H   0  0  0  0  0  0
  -22.7429  -31.2908   21.3783 H   0  0  0  0  0  0
  -23.3743  -35.9608   23.3331 H   0  0  0  0  0  0
  -24.3569  -36.8858   22.2046 H   0  0  0  0  0  0
  -23.7318  -37.6478   23.6673 H   0  0  0  0  0  0
  -26.1495  -31.5031   20.6071 H   0  0  0  0  0  0
  -26.8631  -30.7890   22.0159 H   0  0  0  0  0  0
  -28.1476  -28.8833   21.1851 H   0  0  0  0  0  0
  -25.9643  -25.8433   19.0442 H   0  0  0  0  0  0
  -23.9881  -27.2809   19.0020 H   0  0  0  0  0  0
  -23.7902  -30.5685   19.3919 H   0  0  0  0  0  0
  -22.7788  -29.2269   19.8464 H   0  0  0  0  0  0
  -25.1332  -36.1802   25.0806 H   0  0  0  0  0  0
  -21.0023  -28.3306   24.1335 H   0  0  0  0  0  0
  -20.5649  -26.2335   23.3614 H   0  0  0  0  0  0
  -21.6649  -26.7397   22.1201 H   0  0  0  0  0  0
  -19.6899  -25.6285   21.1249 H   0  0  0  0  0  0
  -19.6677  -27.3179   20.6723 H   0  0  0  0  0  0
  -17.4202  -26.6665   21.4031 H   0  0  0  0  0  0
  -18.0318  -26.0058   22.9003 H   0  0  0  0  0  0
  -19.7943  -30.7276   24.2232 H   0  0  0  0  0  0
  -17.5021  -31.6251   24.5164 H   0  0  0  0  0  0
  -15.5364  -30.2970   23.7662 H   0  0  0  0  0  0
  -15.8684  -28.0808   22.7089 H   0  0  0  0  0  0
  -24.5888  -30.7141   25.7623 H   0  0  0  0  0  0
  -24.8946  -32.2934   26.4708 H   0  0  0  0  0  0
  -25.7961  -30.8908   27.0135 H   0  0  0  0  0  0
  -26.3105  -29.6614   24.1277 H   0  0  0  0  0  0
  -27.4136  -29.7287   25.4822 H   0  0  0  0  0  0
  -27.8978  -30.4189   23.9535 H   0  0  0  0  0  0
  -27.2593  -33.3629   26.2022 H   0  0  0  0  0  0
  -28.3884  -32.6939   25.0332 H   0  0  0  0  0  0
  -28.0726  -31.8497   26.5410 H   0  0  0  0  0  0
  -28.2574  -38.0087   24.7482 H   0  0  0  0  0  0
  -28.1061  -36.2609   24.6313 H   0  0  0  0  0  0
  -27.2269  -37.1473   25.8860 H   0  0  0  0  0  0
  -20.9446  -29.8779   21.6800 H   0  0  0  0  0  0
  -26.0132  -38.2798   24.1374 H   0  0  0  0  0  0
  -28.3817  -19.9154   22.7042 H   0  0  0  0  0  0
  -29.6061  -15.1598   22.7734 H   0  0  0  0  0  0
  -26.8575  -18.1797   25.2901 H   0  0  0  0  0  0
  -27.3906  -19.7647   24.7556 H   0  0  0  0  0  0
  -28.4287  -18.8035   25.8212 H   0  0  0  0  0  0
  -29.3813  -16.2465   25.8145 H   0  0  0  0  0  0
  -28.8162  -14.8757   24.8712 H   0  0  0  0  0  0
  -27.6527  -15.9992   25.5513 H   0  0  0  0  0  0
  -27.9551  -22.0345   21.4626 H   0  0  0  0  0  0
  -29.6767  -22.0114   21.4863 H   0  0  0  0  0  0
  -28.3007  -23.2489   19.0197 H   0  0  0  0  0  0
  -29.7969  -23.6979   19.7307 H   0  0  0  0  0  0
  -28.3587  -24.8119   21.6585 H   0  0  0  0  0  0
  -27.0078  -24.6132   20.6334 H   0  0  0  0  0  0
  -30.4882  -19.6719   20.5036 H   0  0  0  0  0  0
  -30.5411  -16.5906   19.7187 H   0  0  0  0  0  0
  1 25  1  0  0  0
  1 30  2  0  0  0
  1 84  1  0  0  0
  2  3  1  0  0  0
  2 25  1  0  0  0
  2 86  1  0  0  0
  2 87  1  0  0  0
  3  4  1  0  0  0
  3 88  1  0  0  0
  3 89  1  0  0  0
  4  5  1  0  0  0
  4 90  1  0  0  0
  4 91  1  0  0  0
  5  6  1  0  0  0
  5 26  1  0  0  0
  5 92  1  0  0  0
  6 25  1  0  0  0
  6 93  1  0  0  0
  6 94  1  0  0  0
  7  8  2  0  0  0
  7 26  1  0  0  0
  7 29  1  0  0  0
  8  9  1  0  0  0
  8 22  1  0  0  0
  9 10  1  0  0  0
  9 27  2  0  0  0
 10 11  2  0  0  0
 10 15  1  0  0  0
 11 12  1  0  0  0
 11 95  1  0  0  0
 12 13  2  0  0  0
 12 96  1  0  0  0
 13 14  1  0  0  0
 13 31  1  0  0  0
 14 15  2  0  0  0
 14 97  1  0  0  0
 15 98  1  0  0  0
 16 17  2  0  0  0
 16 21  1  0  0  0
 16 31  1  0  0  0
 17 18  1  0  0  0
 17 99  1  0  0  0
 18 19  2  0  0  0
 18100  1  0  0  0
 19 20  1  0  0  0
 19 24  1  0  0  0
 20 21  2  0  0  0
 20101  1  0  0  0
 21 23  1  0  0  0
 22 28  1  0  0  0
 22 32  2  0  0  0
 26 27  1  0  0  0
 28102  1  0  0  0
 28103  1  0  0  0
 29104  1  0  0  0
 29105  1  0  0  0
 33 34  1  0  0  0
 33 66  1  0  0  0
 33 70  2  0  0  0
 34 36  1  0  0  0
 34 59  1  0  0  0
 34106  1  0  0  0
 35 44  2  0  0  0
 35 45  1  0  0  0
 35 68  1  0  0  0
 36 56  1  0  0  0
 36107  1  0  0  0
 37 39  1  0  0  0
 37 47  1  0  0  0
 37 66  1  0  0  0
 37108  1  0  0  0
 38 43  2  0  0  0
 38 46  1  0  0  0
 38 47  1  0  0  0
 39 64  1  0  0  0
 39 67  2  0  0  0
 40 52  1  0  0  0
 40 53  2  0  0  0
 40 58  1  0  0  0
 41109  1  0  0  0
 41110  1  0  0  0
 41111  1  0  0  0
 41 48  1  0  0  0
 42 43  1  0  0  0
 42 66  1  0  0  0
 42112  1  0  0  0
 42113  1  0  0  0
 43 44  1  0  0  0
 44114  1  0  0  0
 45 46  2  0  0  0
 45115  1  0  0  0
 46116  1  0  0  0
 47117  1  0  0  0
 47118  1  0  0  0
 48 56  1  0  0  0
 48 65  1  0  0  0
 48119  1  0  0  0
 49 50  1  0  0  0
 49 53  1  0  0  0
 49 64  1  0  0  0
 49120  1  0  0  0
 50 51  1  0  0  0
 50121  1  0  0  0
 50122  1  0  0  0
 51 52  1  0  0  0
 51123  1  0  0  0
 51124  1  0  0  0
 52125  1  0  0  0
 52126  1  0  0  0
 53 54  1  0  0  0
 54 55  2  0  0  0
 54127  1  0  0  0
 55 57  1  0  0  0
 55128  1  0  0  0
 56 69  2  0  0  0
 57 58  2  0  0  0
 57129  1  0  0  0
 58130  1  0  0  0
 59 60  1  0  0  0
 59 61  1  0  0  0
 59 62  1  0  0  0
 60131  1  0  0  0
 60132  1  0  0  0
 60133  1  0  0  0
 61134  1  0  0  0
 61135  1  0  0  0
 61136  1  0  0  0
 62137  1  0  0  0
 62138  1  0  0  0
 62139  1  0  0  0
 63 65  1  0  0  0
 63140  1  0  0  0
 63141  1  0  0  0
 63142  1  0  0  0
 64143  1  0  0  0
 65144  1  0  0  0
 68 82  1  0  0  0
 71 73  2  0  0  0
 71 75  1  0  0  0
 71145  1  0  0  0
 72 74  2  0  0  0
 72 76  1  0  0  0
 72146  1  0  0  0
 73 74  1  0  0  0
 73 78  1  0  0  0
 74 79  1  0  0  0
 75 76  2  0  0  0
 75 83  1  0  0  0
 76 84  1  0  0  0
 77 80  1  0  0  0
 77 83  1  0  0  0
 77 85  2  0  0  0
 78147  1  0  0  0
 78148  1  0  0  0
 78149  1  0  0  0
 79150  1  0  0  0
 79151  1  0  0  0
 79152  1  0  0  0
 80 81  1  0  0  0
 80153  1  0  0  0
 80154  1  0  0  0
 81 82  1  0  0  0
 81155  1  0  0  0
 81156  1  0  0  0
 82157  1  0  0  0
 82158  1  0  0  0
 83159  1  0  0  0
 84160  1  0  0  0
M  ISO  4   1 100  68 101  82 101  84 100
M  END
> <chiral flag>
0

> <version>
0

> <s_m_source_file>
/data/baiqing/PycharmProjects/Reinvent-master-3.2/result/LINK_invent/BTK/process_docking_weight1_custom_product_contain_oxygen_bond_distance_aromatic_linkinvent_7_9_3/rearranged_h_0123.sdf

> <i_m_source_file_index>
96

> <r_mmod_Potential_Energy-OPLS-2005>
348.875366210938

> <r_mmod_Stretch_Energy-OPLS-2005>
172.44548034668

> <r_mmod_Bend_Energy-OPLS-2005>
261.2861328125

> <r_mmod_Torsional_Energy-OPLS-2005>
358.822937011719

> <r_mmod_Improper_Torsional_Energy-OPLS-2005>
19.1122264862061

> <r_mmod_Van_der_Waal_Energy-OPLS-2005>
143.621520996094

> <r_mmod_Electrostatic_Energy-OPLS-2005>
-499.785034179688

> <r_mmod_Solvation_Energy-OPLS-2005>
-222.568054199219

> <b_mmod_Minimization_Converged-OPLS-2005>
0

> <r_mmod_RMS_Derivative-OPLS-2005>
8.99812984466553

$$$$
96
                    3D
 Structure written by MMmdl.
155163  0  0  1  0            999 V2000
  -30.6424  -14.5627   20.5158 C   0  0  0  0  0  0
  -30.4360  -12.3464   19.4376 C   0  0  0  0  0  0
  -29.5037  -12.5056   18.2146 C   0  0  0  0  0  0
  -28.0215  -12.3586   18.6189 C   0  0  0  0  0  0
  -27.6573  -13.2057   19.8685 C   0  0  2  0  0  0
  -28.7006  -12.9905   20.9866 C   0  0  0  0  0  0
  -25.2579  -13.8152   20.5659 C   0  0  0  0  0  0
  -24.1837  -13.0437   20.9181 C   0  0  0  0  0  0
  -24.6385  -11.6902   20.8731 C   0  0  0  0  0  0
  -23.9050  -10.4293   21.0404 C   0  0  0  0  0  0
  -24.3606   -9.4211   21.9183 C   0  0  0  0  0  0
  -23.6285   -8.2241   22.0753 C   0  0  0  0  0  0
  -22.4270   -8.0278   21.3542 C   0  0  0  0  0  0
  -21.9899   -9.0248   20.4647 C   0  0  0  0  0  0
  -22.7221  -10.2129   20.3055 C   0  0  0  0  0  0
  -21.6851   -6.0737   22.5282 C   0  0  0  0  0  0
  -21.4008   -6.5639   23.8216 C   0  0  0  0  0  0
  -21.3658   -5.6791   24.9176 C   0  0  0  0  0  0
  -21.6050   -4.3055   24.7227 C   0  0  0  0  0  0
  -21.8816   -3.8149   23.4346 C   0  0  0  0  0  0
  -21.9184   -4.6964   22.3403 C   0  0  0  0  0  0
  -22.7852  -13.5239   21.1840 C   0  0  0  0  0  0
  -22.1656   -4.2156   21.0978 F   0  0  0  0  0  0
  -21.5629   -3.4537   25.7734 F   0  0  0  0  0  0
  -30.0217  -13.3440   20.4423 N   0  0  0  0  0  0
  -26.2999  -12.9319   20.3316 N   0  0  0  0  0  0
  -25.9304  -11.6485   20.5736 N   0  0  0  0  0  0
  -22.0481  -12.8246   22.0396 N   0  0  0  0  0  0
  -25.4311  -15.1866   20.4043 N   0  0  0  0  0  0
  -31.8022  -14.7056   20.1158 O   0  0  0  0  0  0
  -21.6637   -6.8876   21.4244 O   0  0  0  0  0  0
  -22.3538  -14.5543   20.6676 O   0  0  0  0  0  0
  -24.6189  -31.8649   23.2066 C   0  0  0  0  0  0
  -25.9070  -32.4804   23.8374 C   0  0  1  0  0  0
  -27.2348  -27.3912   20.0919 C   0  0  0  0  0  0
  -25.5911  -33.8603   24.2304 N   0  0  0  0  0  0
  -23.4082  -30.4880   21.5484 C   0  0  2  0  0  0
  -24.8522  -28.9456   20.1151 C   0  0  0  0  0  0
  -22.7433  -29.4648   22.4978 C   0  0  0  0  0  0
  -18.0281  -28.1374   22.8491 C   0  0  0  0  0  0
  -24.1488  -36.7309   23.2638 C   0  0  0  0  0  0
  -25.9415  -30.8146   21.3668 C   0  0  0  0  0  0
  -26.0151  -29.4455   20.7127 C   0  0  0  0  0  0
  -27.2046  -28.6746   20.6998 C   0  0  0  0  0  0
  -26.0423  -26.9093   19.5036 C   0  0  0  0  0  0
  -24.8619  -27.6773   19.5109 C   0  0  0  0  0  0
  -23.6178  -29.8194   20.1636 C   0  0  0  0  0  0
  -25.4112  -36.3101   24.0332 C   0  0  1  0  0  0
  -20.5874  -28.3669   23.1308 C   0  0  2  0  0  0
  -20.6774  -26.9402   22.5416 C   0  0  0  0  0  0
  -19.5754  -26.6377   21.5217 C   0  0  0  0  0  0
  -18.1931  -26.7919   22.1624 C   0  0  0  0  0  0
  -19.1530  -28.8840   23.2896 C   0  0  0  0  0  0
  -18.9455  -30.1445   23.8908 C   0  0  0  0  0  0
  -17.6456  -30.6582   24.0563 C   0  0  0  0  0  0
  -25.9042  -34.9467   23.5117 C   0  0  0  0  0  0
  -16.5348  -29.9080   23.6327 C   0  0  0  0  0  0
  -16.7269  -28.6496   23.0352 C   0  0  0  0  0  0
  -26.4476  -31.6600   25.0725 C   0  0  0  0  0  0
  -25.3728  -31.3724   26.1466 C   0  0  0  0  0  0
  -27.0310  -30.3034   24.6135 C   0  0  0  0  0  0
  -27.6043  -32.4328   25.7494 C   0  0  0  0  0  0
  -27.5582  -37.1811   24.8465 C   0  0  0  0  0  0
  -21.4158  -29.3033   22.3712 N   0  0  0  0  0  0
  -26.4294  -37.3789   23.9407 N   0  0  0  0  0  0
  -24.6748  -31.0716   22.0982 N   0  0  0  0  0  0
  -23.4191  -28.8193   23.3033 O   0  0  0  0  0  0
  -28.4112  -26.6505   20.1139 O   0  0  0  0  0  0
  -26.5606  -34.8924   22.4681 O   0  0  0  0  0  0
  -23.5370  -32.1416   23.7439 O   0  0  0  0  0  0
  -29.7654  -19.4964   20.3185 C   0  0  0  0  0  0
  -28.1198  -20.7290   21.5650 C   0  0  0  0  0  0
  -29.4148  -18.3015   21.0201 C   0  0  0  0  0  0
  -29.1372  -20.7460   20.5919 C   0  0  0  0  0  0
  -28.3752  -18.4460   21.9827 C   0  0  0  0  0  0
  -30.1395  -17.0146   20.6823 C   0  0  0  0  0  0
  -29.7972  -15.7125   20.9202 C   0  0  0  0  0  0
  -27.8809  -17.3157   22.8647 C   0  0  0  0  0  0
  -28.1721  -24.0786   19.9508 C   0  0  0  0  0  0
  -28.5565  -25.4556   19.3052 C   0  0  0  0  0  0
  -29.3401  -23.2069   20.5178 C   0  0  0  0  0  0
  -27.7516  -19.6188   22.2346 N   0  0  0  0  0  0
  -29.5074  -21.9004   19.9035 O   0  0  0  0  0  0
  -31.4779  -12.4632   19.1333 H   0  0  0  0  0  0
  -30.3612  -11.3397   19.8500 H   0  0  0  0  0  0
  -29.7571  -11.7709   17.4497 H   0  0  0  0  0  0
  -29.6624  -13.4850   17.7602 H   0  0  0  0  0  0
  -27.8379  -11.3033   18.8226 H   0  0  0  0  0  0
  -27.3748  -12.6241   17.7813 H   0  0  0  0  0  0
  -27.6958  -14.2510   19.5633 H   0  0  0  0  0  0
  -28.6991  -11.9437   21.2949 H   0  0  0  0  0  0
  -28.4514  -13.5403   21.8924 H   0  0  0  0  0  0
  -25.2751   -9.5689   22.4754 H   0  0  0  0  0  0
  -23.9996   -7.4630   22.7470 H   0  0  0  0  0  0
  -21.0831   -8.8760   19.8953 H   0  0  0  0  0  0
  -22.3677  -10.9662   19.6164 H   0  0  0  0  0  0
  -21.1999   -7.6148   23.9724 H   0  0  0  0  0  0
  -21.1490   -6.0522   25.9084 H   0  0  0  0  0  0
  -22.0598   -2.7612   23.2841 H   0  0  0  0  0  0
  -22.4089  -11.9913   22.4799 H   0  0  0  0  0  0
  -21.1105  -13.1289   22.2594 H   0  0  0  0  0  0
  -24.6611  -15.8401   20.4965 H   0  0  0  0  0  0
  -26.2767  -15.6166   20.0525 H   0  0  0  0  0  0
  -26.7140  -32.5490   23.1132 H   0  0  0  0  0  0
  -25.0074  -33.9760   25.0459 H   0  0  0  0  0  0
  -22.6986  -31.3061   21.4080 H   0  0  0  0  0  0
  -23.3746  -35.9647   23.3306 H   0  0  0  0  0  0
  -24.3581  -36.8921   22.2051 H   0  0  0  0  0  0
  -23.7245  -37.6516   23.6651 H   0  0  0  0  0  0
  -26.0636  -31.5786   20.5977 H   0  0  0  0  0  0
  -26.8261  -30.8645   21.9904 H   0  0  0  0  0  0
  -28.1024  -29.0597   21.1623 H   0  0  0  0  0  0
  -25.9933  -25.9302   19.0507 H   0  0  0  0  0  0
  -23.9633  -27.2813   19.0582 H   0  0  0  0  0  0
  -23.7316  -30.5936   19.4039 H   0  0  0  0  0  0
  -22.7394  -29.2439   19.8662 H   0  0  0  0  0  0
  -25.1291  -36.1962   25.0824 H   0  0  0  0  0  0
  -20.9967  -28.3237   24.1427 H   0  0  0  0  0  0
  -20.5687  -26.2279   23.3607 H   0  0  0  0  0  0
  -21.6644  -26.7447   22.1204 H   0  0  0  0  0  0
  -19.6916  -25.6289   21.1244 H   0  0  0  0  0  0
  -19.6690  -27.3189   20.6749 H   0  0  0  0  0  0
  -17.4205  -26.6672   21.4020 H   0  0  0  0  0  0
  -18.0325  -26.0057   22.9015 H   0  0  0  0  0  0
  -19.7931  -30.7257   24.2281 H   0  0  0  0  0  0
  -17.5010  -31.6261   24.5162 H   0  0  0  0  0  0
  -15.5349  -30.2983   23.7645 H   0  0  0  0  0  0
  -15.8670  -28.0814   22.7065 H   0  0  0  0  0  0
  -24.5895  -30.7082   25.7803 H   0  0  0  0  0  0
  -24.8929  -32.2886   26.4911 H   0  0  0  0  0  0
  -25.8066  -30.8891   27.0228 H   0  0  0  0  0  0
  -26.2866  -29.6800   24.1168 H   0  0  0  0  0  0
  -27.4041  -29.7272   25.4611 H   0  0  0  0  0  0
  -27.8717  -30.4341   23.9319 H   0  0  0  0  0  0
  -27.2652  -33.3614   26.2095 H   0  0  0  0  0  0
  -28.3839  -32.6913   25.0319 H   0  0  0  0  0  0
  -28.0726  -31.8444   26.5392 H   0  0  0  0  0  0
  -28.2604  -38.0104   24.7509 H   0  0  0  0  0  0
  -28.1074  -36.2637   24.6291 H   0  0  0  0  0  0
  -27.2302  -37.1465   25.8868 H   0  0  0  0  0  0
  -20.9332  -29.8752   21.6925 H   0  0  0  0  0  0
  -26.0182  -38.2869   24.1398 H   0  0  0  0  0  0
  -30.5399  -19.4609   19.5663 H   0  0  0  0  0  0
  -27.5670  -21.6229   21.8110 H   0  0  0  0  0  0
  -31.0843  -17.1733   20.1786 H   0  0  0  0  0  0
  -28.8629  -15.5145   21.4026 H   0  0  0  0  0  0
  -27.2387  -16.6439   22.2967 H   0  0  0  0  0  0
  -27.2948  -17.6901   23.7046 H   0  0  0  0  0  0
  -28.7137  -16.7546   23.2865 H   0  0  0  0  0  0
  -27.6746  -23.4860   19.1824 H   0  0  0  0  0  0
  -27.4142  -24.2325   20.7196 H   0  0  0  0  0  0
  -28.0247  -25.5773   18.3606 H   0  0  0  0  0  0
  -29.6003  -25.4155   18.9937 H   0  0  0  0  0  0
  -29.2672  -23.1377   21.6039 H   0  0  0  0  0  0
  -30.2807  -23.7331   20.3542 H   0  0  0  0  0  0
  1 25  1  0  0  0
  1 30  2  0  0  0
  1 77  1  0  0  0
  2  3  1  0  0  0
  2 25  1  0  0  0
  2 84  1  0  0  0
  2 85  1  0  0  0
  3  4  1  0  0  0
  3 86  1  0  0  0
  3 87  1  0  0  0
  4  5  1  0  0  0
  4 88  1  0  0  0
  4 89  1  0  0  0
  5  6  1  0  0  0
  5 26  1  0  0  0
  5 90  1  0  0  0
  6 25  1  0  0  0
  6 91  1  0  0  0
  6 92  1  0  0  0
  7  8  2  0  0  0
  7 26  1  0  0  0
  7 29  1  0  0  0
  8  9  1  0  0  0
  8 22  1  0  0  0
  9 10  1  0  0  0
  9 27  2  0  0  0
 10 11  2  0  0  0
 10 15  1  0  0  0
 11 12  1  0  0  0
 11 93  1  0  0  0
 12 13  2  0  0  0
 12 94  1  0  0  0
 13 14  1  0  0  0
 13 31  1  0  0  0
 14 15  2  0  0  0
 14 95  1  0  0  0
 15 96  1  0  0  0
 16 17  2  0  0  0
 16 21  1  0  0  0
 16 31  1  0  0  0
 17 18  1  0  0  0
 17 97  1  0  0  0
 18 19  2  0  0  0
 18 98  1  0  0  0
 19 20  1  0  0  0
 19 24  1  0  0  0
 20 21  2  0  0  0
 20 99  1  0  0  0
 21 23  1  0  0  0
 22 28  1  0  0  0
 22 32  2  0  0  0
 26 27  1  0  0  0
 28100  1  0  0  0
 28101  1  0  0  0
 29102  1  0  0  0
 29103  1  0  0  0
 33 34  1  0  0  0
 33 66  1  0  0  0
 33 70  2  0  0  0
 34 36  1  0  0  0
 34 59  1  0  0  0
 34104  1  0  0  0
 35 44  2  0  0  0
 35 45  1  0  0  0
 35 68  1  0  0  0
 36 56  1  0  0  0
 36105  1  0  0  0
 37 39  1  0  0  0
 37 47  1  0  0  0
 37 66  1  0  0  0
 37106  1  0  0  0
 38 43  2  0  0  0
 38 46  1  0  0  0
 38 47  1  0  0  0
 39 64  1  0  0  0
 39 67  2  0  0  0
 40 52  1  0  0  0
 40 53  2  0  0  0
 40 58  1  0  0  0
 41107  1  0  0  0
 41108  1  0  0  0
 41109  1  0  0  0
 41 48  1  0  0  0
 42 43  1  0  0  0
 42 66  1  0  0  0
 42110  1  0  0  0
 42111  1  0  0  0
 43 44  1  0  0  0
 44112  1  0  0  0
 45 46  2  0  0  0
 45113  1  0  0  0
 46114  1  0  0  0
 47115  1  0  0  0
 47116  1  0  0  0
 48 56  1  0  0  0
 48 65  1  0  0  0
 48117  1  0  0  0
 49 50  1  0  0  0
 49 53  1  0  0  0
 49 64  1  0  0  0
 49118  1  0  0  0
 50 51  1  0  0  0
 50119  1  0  0  0
 50120  1  0  0  0
 51 52  1  0  0  0
 51121  1  0  0  0
 51122  1  0  0  0
 52123  1  0  0  0
 52124  1  0  0  0
 53 54  1  0  0  0
 54 55  2  0  0  0
 54125  1  0  0  0
 55 57  1  0  0  0
 55126  1  0  0  0
 56 69  2  0  0  0
 57 58  2  0  0  0
 57127  1  0  0  0
 58128  1  0  0  0
 59 60  1  0  0  0
 59 61  1  0  0  0
 59 62  1  0  0  0
 60129  1  0  0  0
 60130  1  0  0  0
 60131  1  0  0  0
 61132  1  0  0  0
 61133  1  0  0  0
 61134  1  0  0  0
 62135  1  0  0  0
 62136  1  0  0  0
 62137  1  0  0  0
 63 65  1  0  0  0
 63138  1  0  0  0
 63139  1  0  0  0
 63140  1  0  0  0
 64141  1  0  0  0
 65142  1  0  0  0
 68 80  1  0  0  0
 71 73  2  0  0  0
 71 74  1  0  0  0
 71143  1  0  0  0
 72 74  2  0  0  0
 72 82  1  0  0  0
 72144  1  0  0  0
 73 75  1  0  0  0
 73 76  1  0  0  0
 74 83  1  0  0  0
 75 78  1  0  0  0
 75 82  2  0  0  0
 76 77  2  0  0  0
 76145  1  0  0  0
 77146  1  0  0  0
 78147  1  0  0  0
 78148  1  0  0  0
 78149  1  0  0  0
 79 80  1  0  0  0
 79 81  1  0  0  0
 79150  1  0  0  0
 79151  1  0  0  0
 80152  1  0  0  0
 80153  1  0  0  0
 81 83  1  0  0  0
 81154  1  0  0  0
 81155  1  0  0  0
M  ISO  4   1 100  68 101  77 100  80 101
M  END
> <chiral flag>
0

> <version>
0

> <s_m_source_file>
/data/baiqing/PycharmProjects/Reinvent-master-3.2/result/LINK_invent/BTK/process_docking_weight1_custom_product_contain_oxygen_bond_distance_aromatic_linkinvent_7_9_3/rearranged_h_0123.sdf

> <i_m_source_file_index>
97

> <r_mmod_Potential_Energy-OPLS-2005>
-27.2890510559082

> <r_mmod_Stretch_Energy-OPLS-2005>
55.8937683105469

> <r_mmod_Bend_Energy-OPLS-2005>
130.734039306641

> <r_mmod_Torsional_Energy-OPLS-2005>
199.593536376953

> <r_mmod_Improper_Torsional_Energy-OPLS-2005>
4.16138315200806

> <r_mmod_Van_der_Waal_Energy-OPLS-2005>
161.760192871094

> <r_mmod_Electrostatic_Energy-OPLS-2005>
-392.711242675781

> <r_mmod_Solvation_Energy-OPLS-2005>
-210.211074829102

> <b_mmod_Minimization_Converged-OPLS-2005>
0

> <r_mmod_RMS_Derivative-OPLS-2005>
1.22771894931793

$$$$
97
                    3D
 Structure written by MMmdl.
160169  0  0  1  0            999 V2000
  -30.5768  -14.7280   20.4957 C   0  0  0  0  0  0
  -30.4513  -12.4518   19.4588 C   0  0  0  0  0  0
  -29.5137  -12.5163   18.2304 C   0  0  0  0  0  0
  -28.0393  -12.3356   18.6444 C   0  0  0  0  0  0
  -27.6518  -13.2182   19.8603 C   0  0  2  0  0  0
  -28.6987  -13.0986   20.9909 C   0  0  0  0  0  0
  -25.2576  -13.8161   20.5692 C   0  0  0  0  0  0
  -24.1839  -13.0432   20.9188 C   0  0  0  0  0  0
  -24.6405  -11.6901   20.8747 C   0  0  0  0  0  0
  -23.9071  -10.4293   21.0414 C   0  0  0  0  0  0
  -24.3621   -9.4204   21.9191 C   0  0  0  0  0  0
  -23.6297   -8.2243   22.0761 C   0  0  0  0  0  0
  -22.4277   -8.0281   21.3546 C   0  0  0  0  0  0
  -21.9920   -9.0256   20.4654 C   0  0  0  0  0  0
  -22.7248  -10.2131   20.3057 C   0  0  0  0  0  0
  -21.6847   -6.0731   22.5274 C   0  0  0  0  0  0
  -21.3996   -6.5636   23.8209 C   0  0  0  0  0  0
  -21.3649   -5.6788   24.9172 C   0  0  0  0  0  0
  -21.6036   -4.3059   24.7232 C   0  0  0  0  0  0
  -21.8833   -3.8151   23.4346 C   0  0  0  0  0  0
  -21.9199   -4.6968   22.3401 C   0  0  0  0  0  0
  -22.7859  -13.5230   21.1833 C   0  0  0  0  0  0
  -22.1676   -4.2150   21.0976 F   0  0  0  0  0  0
  -21.5627   -3.4539   25.7743 F   0  0  0  0  0  0
  -30.0040  -13.4774   20.4266 N   0  0  0  0  0  0
  -26.2994  -12.9340   20.3318 N   0  0  0  0  0  0
  -25.9333  -11.6494   20.5748 N   0  0  0  0  0  0
  -22.0500  -12.8232   22.0395 N   0  0  0  0  0  0
  -25.4275  -15.1885   20.4103 N   0  0  0  0  0  0
  -31.7412  -14.9078   20.1234 O   0  0  0  0  0  0
  -21.6635   -6.8882   21.4241 O   0  0  0  0  0  0
  -22.3563  -14.5543   20.6684 O   0  0  0  0  0  0
  -24.6306  -31.8568   23.1967 C   0  0  0  0  0  0
  -25.9142  -32.4763   23.8310 C   0  0  1  0  0  0
  -27.2322  -27.2743   20.1450 C   0  0  0  0  0  0
  -25.5932  -33.8563   24.2249 N   0  0  0  0  0  0
  -23.4294  -30.4753   21.5386 C   0  0  2  0  0  0
  -24.8841  -28.9190   20.1157 C   0  0  0  0  0  0
  -22.7495  -29.4614   22.4901 C   0  0  0  0  0  0
  -18.0295  -28.1420   22.8493 C   0  0  0  0  0  0
  -24.1446  -36.7204   23.2631 C   0  0  0  0  0  0
  -25.9735  -30.7727   21.3779 C   0  0  0  0  0  0
  -26.0532  -29.3927   20.7284 C   0  0  0  0  0  0
  -27.2329  -28.5812   20.7358 C   0  0  0  0  0  0
  -26.0443  -26.8594   19.5118 C   0  0  0  0  0  0
  -24.8827  -27.6570   19.4993 C   0  0  0  0  0  0
  -23.6534  -29.8038   20.1579 C   0  0  0  0  0  0
  -25.4086  -36.3053   24.0323 C   0  0  1  0  0  0
  -20.5897  -28.3708   23.1258 C   0  0  2  0  0  0
  -20.6762  -26.9422   22.5415 C   0  0  0  0  0  0
  -19.5737  -26.6420   21.5207 C   0  0  0  0  0  0
  -18.1922  -26.7968   22.1629 C   0  0  0  0  0  0
  -19.1557  -28.8890   23.2869 C   0  0  0  0  0  0
  -18.9494  -30.1487   23.8890 C   0  0  0  0  0  0
  -17.6493  -30.6614   24.0586 C   0  0  0  0  0  0
  -25.9053  -34.9445   23.5094 C   0  0  0  0  0  0
  -16.5378  -29.9109   23.6364 C   0  0  0  0  0  0
  -16.7282  -28.6532   23.0373 C   0  0  0  0  0  0
  -26.4536  -31.6578   25.0686 C   0  0  0  0  0  0
  -25.3771  -31.3729   26.1417 C   0  0  0  0  0  0
  -27.0348  -30.2979   24.6155 C   0  0  0  0  0  0
  -27.6070  -32.4329   25.7481 C   0  0  0  0  0  0
  -27.5558  -37.1735   24.8467 C   0  0  0  0  0  0
  -21.4216  -29.3039   22.3625 N   0  0  0  0  0  0
  -26.4236  -37.3780   23.9467 N   0  0  0  0  0  0
  -24.6962  -31.0536   22.0945 N   0  0  0  0  0  0
  -23.4190  -28.8182   23.3033 O   0  0  0  0  0  0
  -28.2999  -26.3551   20.1414 O   0  0  0  0  0  0
  -26.5631  -34.8938   22.4664 O   0  0  0  0  0  0
  -23.5455  -32.1397   23.7256 O   0  0  0  0  0  0
  -30.7808  -18.0969   20.3665 C   0  0  0  0  0  0
  -28.5427  -17.9311   21.1785 C   0  0  0  0  0  0
  -30.6687  -19.5360   20.3850 C   0  0  0  0  0  0
  -28.4120  -19.3583   21.1957 C   0  0  0  0  0  0
  -29.4844  -20.2242   20.8166 C   0  0  0  0  0  0
  -29.7228  -17.2402   20.7824 C   0  0  0  0  0  0
  -28.6088  -24.0086   21.2282 C   0  0  0  0  0  0
  -28.3256  -25.3733   21.1575 C   0  0  0  0  0  0
  -28.6162  -23.3292   22.5841 C   0  0  0  0  0  0
  -28.9825  -22.8393   20.2466 C   0  0  0  0  0  0
  -29.4841  -22.0640   22.4626 C   0  0  0  0  0  0
  -31.8830  -20.3484   19.9722 C   0  0  0  0  0  0
  -27.0903  -19.9320   21.6855 C   0  0  0  0  0  0
  -29.4611  -21.6601   21.0621 N   0  0  0  0  0  0
  -29.7213  -15.7576   20.8448 N   0  0  0  0  0  0
  -31.4858  -12.6060   19.1494 H   0  0  0  0  0  0
  -30.4208  -11.4621   19.9168 H   0  0  0  0  0  0
  -29.7926  -11.7542   17.5018 H   0  0  0  0  0  0
  -29.6349  -13.4766   17.7268 H   0  0  0  0  0  0
  -27.8925  -11.2829   18.8914 H   0  0  0  0  0  0
  -27.3800  -12.5448   17.8002 H   0  0  0  0  0  0
  -27.6602  -14.2482   19.5025 H   0  0  0  0  0  0
  -28.7366  -12.0777   21.3722 H   0  0  0  0  0  0
  -28.4293  -13.7232   21.8439 H   0  0  0  0  0  0
  -25.2769   -9.5674   22.4766 H   0  0  0  0  0  0
  -23.9998   -7.4635   22.7485 H   0  0  0  0  0  0
  -21.0845   -8.8783   19.8964 H   0  0  0  0  0  0
  -22.3717  -10.9671   19.6162 H   0  0  0  0  0  0
  -21.1973   -7.6139   23.9706 H   0  0  0  0  0  0
  -21.1444   -6.0521   25.9075 H   0  0  0  0  0  0
  -22.0619   -2.7619   23.2850 H   0  0  0  0  0  0
  -22.4107  -11.9867   22.4741 H   0  0  0  0  0  0
  -21.1120  -13.1265   22.2606 H   0  0  0  0  0  0
  -24.6502  -15.8336   20.5010 H   0  0  0  0  0  0
  -26.2633  -15.6258   20.0465 H   0  0  0  0  0  0
  -26.7195  -32.5451   23.1040 H   0  0  0  0  0  0
  -25.0068  -33.9702   25.0388 H   0  0  0  0  0  0
  -22.7236  -31.2951   21.3857 H   0  0  0  0  0  0
  -23.3768  -35.9471   23.3292 H   0  0  0  0  0  0
  -24.3502  -36.8843   22.2041 H   0  0  0  0  0  0
  -23.7139  -37.6364   23.6677 H   0  0  0  0  0  0
  -26.1096  -31.5287   20.6038 H   0  0  0  0  0  0
  -26.8513  -30.8271   22.0112 H   0  0  0  0  0  0
  -28.1299  -28.9354   21.2244 H   0  0  0  0  0  0
  -26.0108  -25.8829   19.0505 H   0  0  0  0  0  0
  -23.9863  -27.2816   19.0235 H   0  0  0  0  0  0
  -23.7811  -30.5768   19.3988 H   0  0  0  0  0  0
  -22.7748  -29.2333   19.8519 H   0  0  0  0  0  0
  -25.1263  -36.1846   25.0803 H   0  0  0  0  0  0
  -21.0020  -28.3318   24.1368 H   0  0  0  0  0  0
  -20.5652  -26.2316   23.3623 H   0  0  0  0  0  0
  -21.6625  -26.7441   22.1217 H   0  0  0  0  0  0
  -19.6875  -25.6336   21.1219 H   0  0  0  0  0  0
  -19.6685  -27.3245   20.6747 H   0  0  0  0  0  0
  -17.4194  -26.6748   21.4031 H   0  0  0  0  0  0
  -18.0314  -26.0117   22.9035 H   0  0  0  0  0  0
  -19.7965  -30.7303   24.2264 H   0  0  0  0  0  0
  -17.5052  -31.6287   24.5198 H   0  0  0  0  0  0
  -15.5385  -30.3012   23.7711 H   0  0  0  0  0  0
  -15.8676  -28.0848   22.7115 H   0  0  0  0  0  0
  -24.5970  -30.7042   25.7774 H   0  0  0  0  0  0
  -24.8943  -32.2901   26.4800 H   0  0  0  0  0  0
  -25.8124  -30.8967   27.0211 H   0  0  0  0  0  0
  -26.2889  -29.6741   24.1220 H   0  0  0  0  0  0
  -27.4051  -29.7243   25.4656 H   0  0  0  0  0  0
  -27.8780  -30.4212   23.9352 H   0  0  0  0  0  0
  -27.2658  -33.3653   26.1999 H   0  0  0  0  0  0
  -28.3938  -32.6866   25.0360 H   0  0  0  0  0  0
  -28.0678  -31.8488   26.5464 H   0  0  0  0  0  0
  -28.2553  -38.0059   24.7624 H   0  0  0  0  0  0
  -28.1087  -36.2611   24.6174 H   0  0  0  0  0  0
  -27.2292  -37.1248   25.8867 H   0  0  0  0  0  0
  -20.9404  -29.8676   21.6755 H   0  0  0  0  0  0
  -26.0093  -38.2810   24.1624 H   0  0  0  0  0  0
  -31.7116  -17.6503   20.0463 H   0  0  0  0  0  0
  -27.6963  -17.3457   21.5078 H   0  0  0  0  0  0
  -28.0965  -25.8653   22.0931 H   0  0  0  0  0  0
  -27.5896  -23.0444   22.8192 H   0  0  0  0  0  0
  -28.9658  -23.9880   23.3810 H   0  0  0  0  0  0
  -29.7573  -23.1695   19.5535 H   0  0  0  0  0  0
  -28.1061  -22.5552   19.6623 H   0  0  0  0  0  0
  -29.1419  -21.2808   23.1406 H   0  0  0  0  0  0
  -30.5176  -22.2876   22.7337 H   0  0  0  0  0  0
  -32.6666  -19.7162   19.5553 H   0  0  0  0  0  0
  -32.2963  -20.8775   20.8313 H   0  0  0  0  0  0
  -31.6087  -21.0833   19.2152 H   0  0  0  0  0  0
  -26.2602  -19.2691   21.4408 H   0  0  0  0  0  0
  -26.8775  -20.8983   21.2301 H   0  0  0  0  0  0
  -27.1102  -20.0608   22.7677 H   0  0  0  0  0  0
  -28.8346  -15.3797   21.1409 H   0  0  0  0  0  0
  1 25  1  0  0  0
  1 30  2  0  0  0
  1 85  1  0  0  0
  2  3  1  0  0  0
  2 25  1  0  0  0
  2 86  1  0  0  0
  2 87  1  0  0  0
  3  4  1  0  0  0
  3 88  1  0  0  0
  3 89  1  0  0  0
  4  5  1  0  0  0
  4 90  1  0  0  0
  4 91  1  0  0  0
  5  6  1  0  0  0
  5 26  1  0  0  0
  5 92  1  0  0  0
  6 25  1  0  0  0
  6 93  1  0  0  0
  6 94  1  0  0  0
  7  8  2  0  0  0
  7 26  1  0  0  0
  7 29  1  0  0  0
  8  9  1  0  0  0
  8 22  1  0  0  0
  9 10  1  0  0  0
  9 27  2  0  0  0
 10 11  2  0  0  0
 10 15  1  0  0  0
 11 12  1  0  0  0
 11 95  1  0  0  0
 12 13  2  0  0  0
 12 96  1  0  0  0
 13 14  1  0  0  0
 13 31  1  0  0  0
 14 15  2  0  0  0
 14 97  1  0  0  0
 15 98  1  0  0  0
 16 17  2  0  0  0
 16 21  1  0  0  0
 16 31  1  0  0  0
 17 18  1  0  0  0
 17 99  1  0  0  0
 18 19  2  0  0  0
 18100  1  0  0  0
 19 20  1  0  0  0
 19 24  1  0  0  0
 20 21  2  0  0  0
 20101  1  0  0  0
 21 23  1  0  0  0
 22 28  1  0  0  0
 22 32  2  0  0  0
 26 27  1  0  0  0
 28102  1  0  0  0
 28103  1  0  0  0
 29104  1  0  0  0
 29105  1  0  0  0
 33 34  1  0  0  0
 33 66  1  0  0  0
 33 70  2  0  0  0
 34 36  1  0  0  0
 34 59  1  0  0  0
 34106  1  0  0  0
 35 44  2  0  0  0
 35 45  1  0  0  0
 35 68  1  0  0  0
 36 56  1  0  0  0
 36107  1  0  0  0
 37 39  1  0  0  0
 37 47  1  0  0  0
 37 66  1  0  0  0
 37108  1  0  0  0
 38 43  2  0  0  0
 38 46  1  0  0  0
 38 47  1  0  0  0
 39 64  1  0  0  0
 39 67  2  0  0  0
 40 52  1  0  0  0
 40 53  2  0  0  0
 40 58  1  0  0  0
 41109  1  0  0  0
 41110  1  0  0  0
 41111  1  0  0  0
 41 48  1  0  0  0
 42 43  1  0  0  0
 42 66  1  0  0  0
 42112  1  0  0  0
 42113  1  0  0  0
 43 44  1  0  0  0
 44114  1  0  0  0
 45 46  2  0  0  0
 45115  1  0  0  0
 46116  1  0  0  0
 47117  1  0  0  0
 47118  1  0  0  0
 48 56  1  0  0  0
 48 65  1  0  0  0
 48119  1  0  0  0
 49 50  1  0  0  0
 49 53  1  0  0  0
 49 64  1  0  0  0
 49120  1  0  0  0
 50 51  1  0  0  0
 50121  1  0  0  0
 50122  1  0  0  0
 51 52  1  0  0  0
 51123  1  0  0  0
 51124  1  0  0  0
 52125  1  0  0  0
 52126  1  0  0  0
 53 54  1  0  0  0
 54 55  2  0  0  0
 54127  1  0  0  0
 55 57  1  0  0  0
 55128  1  0  0  0
 56 69  2  0  0  0
 57 58  2  0  0  0
 57129  1  0  0  0
 58130  1  0  0  0
 59 60  1  0  0  0
 59 61  1  0  0  0
 59 62  1  0  0  0
 60131  1  0  0  0
 60132  1  0  0  0
 60133  1  0  0  0
 61134  1  0  0  0
 61135  1  0  0  0
 61136  1  0  0  0
 62137  1  0  0  0
 62138  1  0  0  0
 62139  1  0  0  0
 63 65  1  0  0  0
 63140  1  0  0  0
 63141  1  0  0  0
 63142  1  0  0  0
 64143  1  0  0  0
 65144  1  0  0  0
 68 78  1  0  0  0
 71 73  2  0  0  0
 71 76  1  0  0  0
 71145  1  0  0  0
 72 74  1  0  0  0
 72 76  2  0  0  0
 72146  1  0  0  0
 73 75  1  0  0  0
 73 82  1  0  0  0
 74 75  2  0  0  0
 74 83  1  0  0  0
 75 84  1  0  0  0
 76 85  1  0  0  0
 77 78  2  0  0  0
 77 79  1  0  0  0
 77 80  1  0  0  0
 78147  1  0  0  0
 79 81  1  0  0  0
 79148  1  0  0  0
 79149  1  0  0  0
 80 84  1  0  0  0
 80150  1  0  0  0
 80151  1  0  0  0
 81 84  1  0  0  0
 81152  1  0  0  0
 81153  1  0  0  0
 82154  1  0  0  0
 82155  1  0  0  0
 82156  1  0  0  0
 83157  1  0  0  0
 83158  1  0  0  0
 83159  1  0  0  0
 85160  1  0  0  0
M  ISO  4   1 100  68 101  78 101  85 100
M  END
> <chiral flag>
0

> <version>
0

> <s_m_source_file>
/data/baiqing/PycharmProjects/Reinvent-master-3.2/result/LINK_invent/BTK/process_docking_weight1_custom_product_contain_oxygen_bond_distance_aromatic_linkinvent_7_9_3/rearranged_h_0123.sdf

> <i_m_source_file_index>
98

> <r_mmod_Potential_Energy-OPLS-2005>
209.07177734375

> <r_mmod_Stretch_Energy-OPLS-2005>
100.621231079102

> <r_mmod_Bend_Energy-OPLS-2005>
241.069580078125

> <r_mmod_Torsional_Energy-OPLS-2005>
274.223846435547

> <r_mmod_Improper_Torsional_Energy-OPLS-2005>
6.50890254974365

> <r_mmod_Van_der_Waal_Energy-OPLS-2005>
128.603271484375

> <r_mmod_Electrostatic_Energy-OPLS-2005>
-414.928802490234

> <r_mmod_Solvation_Energy-OPLS-2005>
-206.686981201172

> <b_mmod_Minimization_Converged-OPLS-2005>
0

> <r_mmod_RMS_Derivative-OPLS-2005>
2.35887575149536

$$$$
