0
                    3D
 Structure written by MMmdl.
168178  0  0  1  0            999 V2000
  -28.9824  -16.0726   20.3688 C   0  0  0  0  0  0
  -30.1365  -13.5737   19.6268 C   0  0  0  0  0  0
  -29.4859  -12.8021   18.4219 C   0  0  0  0  0  0
  -28.1075  -12.2446   18.8091 C   0  0  0  0  0  0
  -27.4364  -13.2302   19.7772 C   0  0  2  0  0  0
  -28.2807  -13.5995   20.9818 C   0  0  0  0  0  0
  -25.1612  -13.7962   20.5606 C   0  0  0  0  0  0
  -24.1136  -13.0224   20.9400 C   0  0  0  0  0  0
  -24.5804  -11.6721   20.8852 C   0  0  0  0  0  0
  -23.8673  -10.4151   21.0544 C   0  0  0  0  0  0
  -24.3397   -9.4127   21.9272 C   0  0  0  0  0  0
  -23.6180   -8.2116   22.0770 C   0  0  0  0  0  0
  -22.4173   -8.0147   21.3539 C   0  0  0  0  0  0
  -21.9722   -9.0078   20.4647 C   0  0  0  0  0  0
  -22.6931  -10.1999   20.3112 C   0  0  0  0  0  0
  -21.6817   -6.0667   22.5292 C   0  0  0  0  0  0
  -21.3986   -6.5607   23.8211 C   0  0  0  0  0  0
  -21.3637   -5.6775   24.9181 C   0  0  0  0  0  0
  -21.6037   -4.3036   24.7249 C   0  0  0  0  0  0
  -21.8823   -3.8112   23.4378 C   0  0  0  0  0  0
  -21.9181   -4.6909   22.3425 C   0  0  0  0  0  0
  -22.7282  -13.5093   21.2105 C   0  0  0  0  0  0
  -22.1659   -4.2109   21.0999 F   0  0  0  0  0  0
  -21.5625   -3.4523   25.7765 F   0  0  0  0  0  0
  -29.1417  -14.5658   20.3598 N   0  0  0  0  0  0
  -26.1550  -12.8954   20.2545 N   0  0  0  0  0  0
  -25.8541  -11.6193   20.5423 N   0  0  0  0  0  0
  -21.9956  -12.8121   22.0677 N   0  0  0  0  0  0
  -25.3459  -15.1714   20.4086 N   0  0  0  0  0  0
  -30.2334  -16.2966   20.1686 O   0  0  0  0  0  0
  -21.6560   -6.8757   21.4238 O   0  0  0  0  0  0
  -22.3103  -14.5456   20.6946 O   0  0  0  0  0  0
  -24.5480  -31.7665   22.6944 C   0  0  0  0  0  0
  -25.8381  -32.3518   23.5458 C   0  0  1  0  0  0
  -26.1129  -28.3730   21.7031 C   0  0  0  0  0  0
  -25.5119  -33.7452   23.9924 N   0  0  0  0  0  0
  -23.6646  -29.4050   20.8624 C   0  0  2  0  0  0
  -25.2654  -29.0195   19.4261 C   0  0  0  0  0  0
  -23.4598  -27.6308   21.9316 C   0  0  0  0  0  0
  -18.6289  -28.0899   22.2301 C   0  0  0  0  0  0
  -24.1475  -36.6848   23.2757 C   0  0  0  0  0  0
  -25.6646  -31.1657   20.6711 C   0  0  0  0  0  0
  -26.1608  -29.8433   20.1872 C   0  0  0  0  0  0
  -27.0153  -29.2181   21.0863 C   0  0  0  0  0  0
  -26.0296  -27.2779   20.6767 C   0  0  0  0  0  0
  -25.4256  -27.6389   19.4693 C   0  0  0  0  0  0
  -23.8566  -29.3875   19.4144 C   0  0  0  0  0  0
  -25.4231  -36.2372   24.0091 C   0  0  1  0  0  0
  -21.1915  -27.7681   24.0521 C   0  0  2  0  0  0
  -21.5476  -26.2861   23.9350 C   0  0  0  0  0  0
  -21.5103  -25.7244   22.3943 C   0  0  0  0  0  0
  -19.2812  -26.8060   20.9265 C   0  0  0  0  0  0
  -19.5474  -28.5075   23.4655 C   0  0  0  0  0  0
  -19.0859  -29.6984   24.1400 C   0  0  0  0  0  0
  -17.7989  -30.2727   24.0155 C   0  0  0  0  0  0
  -25.9182  -34.8890   23.4218 C   0  0  0  0  0  0
  -16.8388  -29.6176   23.2369 C   0  0  0  0  0  0
  -17.2497  -28.5590   22.3675 C   0  0  0  0  0  0
  -26.3943  -31.6320   24.8964 C   0  0  0  0  0  0
  -25.3433  -31.3769   26.0073 C   0  0  0  0  0  0
  -27.1035  -30.2956   24.6055 C   0  0  0  0  0  0
  -27.5058  -32.4968   25.5748 C   0  0  0  0  0  0
  -27.5528  -37.1472   24.8445 C   0  0  0  0  0  0
  -22.7484  -27.4613   23.3069 N   0  0  0  0  0  0
  -26.4217  -37.3322   23.9397 N   0  0  0  0  0  0
  -24.4505  -30.9410   21.4542 N   0  0  0  0  0  0
  -24.2250  -26.9310   22.5347 O   0  0  0  0  0  0
  -24.9865  -29.1051   22.7161 O   0  0  0  0  0  0
  -26.6455  -34.8926   22.4301 O   0  0  0  0  0  0
  -23.5285  -32.2683   23.1916 O   0  0  0  0  0  0
  -26.4896  -21.0357   19.0266 C   0  0  0  0  0  0
  -27.0850  -19.7626   19.4142 C   0  0  0  0  0  0
  -25.1502  -19.7956   20.7872 C   0  0  0  0  0  0
  -25.2790  -21.7403   19.4620 C   0  0  0  0  0  0
  -24.3105  -21.3345   20.4565 C   0  0  0  0  0  0
  -26.5765  -18.8231   20.3569 C   0  0  0  0  0  0
  -19.3285  -25.7672   22.9182 C   0  0  0  0  0  0
  -19.7932  -24.2724   21.7001 C   0  0  0  0  0  0
  -21.2399  -23.1322   19.4381 C   0  0  0  0  0  0
  -21.6540  -26.2209   20.1833 C   0  0  0  0  0  0
  -21.6359  -21.8930   20.3089 C   0  0  0  0  0  0
  -21.0561  -27.8035   21.7243 C   0  0  2  0  0  0
  -21.5328  -24.0917   20.5897 C   0  0  1  0  0  0
  -24.9994  -23.0536   18.7473 C   0  0  0  0  0  0
  -22.3695  -30.1905   24.3428 C   0  0  0  0  0  0
  -22.6351  -29.6369   22.8755 C   0  0  1  0  0  0
  -22.8084  -22.5865   20.8141 N   0  0  0  0  0  0
  -27.6051  -17.1445   20.5349 N   0  0  0  0  0  0
  -18.5598  -25.7490   23.8967 O   0  0  0  0  0  0
  -30.9880  -14.1349   19.2411 H   0  0  0  0  0  0
  -30.5827  -12.8679   20.3301 H   0  0  0  0  0  0
  -30.1382  -12.0088   18.0559 H   0  0  0  0  0  0
  -29.3576  -13.5010   17.5954 H   0  0  0  0  0  0
  -28.2368  -11.2794   19.3000 H   0  0  0  0  0  0
  -27.4922  -12.0623   17.9272 H   0  0  0  0  0  0
  -27.2520  -14.1000   19.1413 H   0  0  0  0  0  0
  -28.7584  -12.7393   21.4567 H   0  0  0  0  0  0
  -27.7020  -14.1039   21.7578 H   0  0  0  0  0  0
  -25.2549   -9.5682   22.4818 H   0  0  0  0  0  0
  -23.9938   -7.4502   22.7469 H   0  0  0  0  0  0
  -21.0655   -8.8532   19.8950 H   0  0  0  0  0  0
  -22.3372  -10.9540   19.6226 H   0  0  0  0  0  0
  -21.1974   -7.6116   23.9701 H   0  0  0  0  0  0
  -21.1453   -6.0511   25.9079 H   0  0  0  0  0  0
  -22.0630   -2.7579   23.2881 H   0  0  0  0  0  0
  -22.3549  -11.9762   22.5039 H   0  0  0  0  0  0
  -21.0614  -13.1228   22.2954 H   0  0  0  0  0  0
  -24.5010  -15.7340   20.4434 H   0  0  0  0  0  0
  -25.9614  -15.4783   19.6678 H   0  0  0  0  0  0
  -26.7136  -32.4295   22.9100 H   0  0  0  0  0  0
  -24.8454  -33.8139   24.7457 H   0  0  0  0  0  0
  -22.6318  -29.6764   20.6143 H   0  0  0  0  0  0
  -23.3783  -35.9128   23.3214 H   0  0  0  0  0  0
  -24.3387  -36.8911   22.2215 H   0  0  0  0  0  0
  -23.7253  -37.5847   23.7230 H   0  0  0  0  0  0
  -25.3646  -31.7415   19.7952 H   0  0  0  0  0  0
  -26.4825  -31.7480   21.0702 H   0  0  0  0  0  0
  -27.5084  -29.9170   21.7413 H   0  0  0  0  0  0
  -25.8670  -26.2437   20.9553 H   0  0  0  0  0  0
  -24.8310  -26.9211   18.9189 H   0  0  0  0  0  0
  -23.6748  -30.3335   18.9040 H   0  0  0  0  0  0
  -23.2506  -28.6172   18.9270 H   0  0  0  0  0  0
  -25.1624  -36.0714   25.0569 H   0  0  0  0  0  0
  -21.2055  -27.8744   25.1343 H   0  0  0  0  0  0
  -20.8986  -25.7801   24.6570 H   0  0  0  0  0  0
  -22.3693  -25.8432   24.5466 H   0  0  0  0  0  0
  -21.5533  -24.7349   22.8833 H   0  0  0  0  0  0
  -22.5170  -25.4433   22.0695 H   0  0  0  0  0  0
  -19.4451  -27.3521   19.9896 H   0  0  0  0  0  0
  -18.4823  -26.1297   20.5990 H   0  0  0  0  0  0
  -19.7146  -30.1352   24.9025 H   0  0  0  0  0  0
  -17.5176  -31.1290   24.6159 H   0  0  0  0  0  0
  -15.8143  -29.9705   23.2207 H   0  0  0  0  0  0
  -16.5075  -28.1751   21.6822 H   0  0  0  0  0  0
  -24.9300  -30.3710   25.9482 H   0  0  0  0  0  0
  -24.5242  -32.0947   25.9583 H   0  0  0  0  0  0
  -25.7691  -31.4522   27.0081 H   0  0  0  0  0  0
  -26.4203  -29.4836   24.4001 H   0  0  0  0  0  0
  -27.6663  -29.9504   25.4735 H   0  0  0  0  0  0
  -27.8212  -30.3796   23.7917 H   0  0  0  0  0  0
  -27.1108  -33.4290   25.9804 H   0  0  0  0  0  0
  -28.2893  -32.7625   24.8638 H   0  0  0  0  0  0
  -27.9868  -31.9856   26.4109 H   0  0  0  0  0  0
  -28.2408  -37.9894   24.7586 H   0  0  0  0  0  0
  -28.1154  -36.2397   24.6184 H   0  0  0  0  0  0
  -27.2221  -37.0954   25.8836 H   0  0  0  0  0  0
  -23.3449  -26.8737   23.8648 H   0  0  0  0  0  0
  -25.9880  -38.2252   24.1590 H   0  0  0  0  0  0
  -27.0635  -21.5372   18.2594 H   0  0  0  0  0  0
  -27.9974  -19.4789   18.9071 H   0  0  0  0  0  0
  -24.5806  -19.2521   21.5255 H   0  0  0  0  0  0
  -18.9472  -24.1457   21.0239 H   0  0  0  0  0  0
  -19.7218  -23.3848   22.3279 H   0  0  0  0  0  0
  -20.1881  -23.1263   19.1472 H   0  0  0  0  0  0
  -21.8732  -23.2711   18.5614 H   0  0  0  0  0  0
  -22.6750  -26.3946   19.8529 H   0  0  0  0  0  0
  -21.1547  -26.4156   19.2356 H   0  0  0  0  0  0
  -21.8655  -21.0021   19.7255 H   0  0  0  0  0  0
  -20.9344  -21.6598   21.1149 H   0  0  0  0  0  0
  -20.5874  -28.5840   21.1131 H   0  0  0  0  0  0
  -25.8655  -23.4211   18.1950 H   0  0  0  0  0  0
  -24.7097  -23.8350   19.4501 H   0  0  0  0  0  0
  -24.1880  -22.9176   18.0315 H   0  0  0  0  0  0
  -21.5953  -30.9597   24.3516 H   0  0  0  0  0  0
  -23.2554  -30.6537   24.7257 H   0  0  0  0  0  0
  -22.2278  -29.5449   25.1941 H   0  0  0  0  0  0
  -22.2435  -30.5242   22.3783 H   0  0  0  0  0  0
  -26.9211  -16.4731   20.8755 H   0  0  0  0  0  0
  1 25  1  0  0  0
  1 30  2  0  0  0
  1 88  1  0  0  0
  2  3  1  0  0  0
  2 25  1  0  0  0
  2 90  1  0  0  0
  2 91  1  0  0  0
  3  4  1  0  0  0
  3 92  1  0  0  0
  3 93  1  0  0  0
  4  5  1  0  0  0
  4 94  1  0  0  0
  4 95  1  0  0  0
  5  6  1  0  0  0
  5 26  1  0  0  0
  5 96  1  0  0  0
  6 25  1  0  0  0
  6 97  1  0  0  0
  6 98  1  0  0  0
  7  8  2  0  0  0
  7 26  1  0  0  0
  7 29  1  0  0  0
  8  9  1  0  0  0
  8 22  1  0  0  0
  9 10  1  0  0  0
  9 27  2  0  0  0
 10 11  2  0  0  0
 10 15  1  0  0  0
 11 12  1  0  0  0
 11 99  1  0  0  0
 12 13  2  0  0  0
 12100  1  0  0  0
 13 14  1  0  0  0
 13 31  1  0  0  0
 14 15  2  0  0  0
 14101  1  0  0  0
 15102  1  0  0  0
 16 17  2  0  0  0
 16 21  1  0  0  0
 16 31  1  0  0  0
 17 18  1  0  0  0
 17103  1  0  0  0
 18 19  2  0  0  0
 18104  1  0  0  0
 19 20  1  0  0  0
 19 24  1  0  0  0
 20 21  2  0  0  0
 20105  1  0  0  0
 21 23  1  0  0  0
 22 28  1  0  0  0
 22 32  2  0  0  0
 26 27  1  0  0  0
 28106  1  0  0  0
 28107  1  0  0  0
 29108  1  0  0  0
 29109  1  0  0  0
 33 34  1  0  0  0
 33 66  1  0  0  0
 33 70  2  0  0  0
 34 36  1  0  0  0
 34 59  1  0  0  0
 34110  1  0  0  0
 35 44  2  0  0  0
 35 45  1  0  0  0
 35 68  1  0  0  0
 36 56  1  0  0  0
 36111  1  0  0  0
 37 39  1  0  0  0
 37 47  1  0  0  0
 37 66  1  0  0  0
 37112  1  0  0  0
 38 43  2  0  0  0
 38 46  1  0  0  0
 38 47  1  0  0  0
 39 64  1  0  0  0
 39 67  2  0  0  0
 40 52  1  0  0  0
 40 53  2  0  0  0
 40 58  1  0  0  0
 41113  1  0  0  0
 41114  1  0  0  0
 41115  1  0  0  0
 41 48  1  0  0  0
 42 43  1  0  0  0
 42 66  1  0  0  0
 42116  1  0  0  0
 42117  1  0  0  0
 43 44  1  0  0  0
 44118  1  0  0  0
 45 46  2  0  0  0
 45119  1  0  0  0
 46120  1  0  0  0
 47121  1  0  0  0
 47122  1  0  0  0
 48 56  1  0  0  0
 48 65  1  0  0  0
 48123  1  0  0  0
 49 50  1  0  0  0
 49 53  1  0  0  0
 49 64  1  0  0  0
 49124  1  0  0  0
 50 51  1  0  0  0
 50125  1  0  0  0
 50126  1  0  0  0
 51 52  1  0  0  0
 51127  1  0  0  0
 51128  1  0  0  0
 52129  1  0  0  0
 52130  1  0  0  0
 53 54  1  0  0  0
 54 55  2  0  0  0
 54131  1  0  0  0
 55 57  1  0  0  0
 55132  1  0  0  0
 56 69  2  0  0  0
 57 58  2  0  0  0
 57133  1  0  0  0
 58134  1  0  0  0
 59 60  1  0  0  0
 59 61  1  0  0  0
 59 62  1  0  0  0
 60135  1  0  0  0
 60136  1  0  0  0
 60137  1  0  0  0
 61138  1  0  0  0
 61139  1  0  0  0
 61140  1  0  0  0
 62141  1  0  0  0
 62142  1  0  0  0
 62143  1  0  0  0
 63 65  1  0  0  0
 63144  1  0  0  0
 63145  1  0  0  0
 63146  1  0  0  0
 64147  1  0  0  0
 65148  1  0  0  0
 68 86  1  0  0  0
 71 72  2  0  0  0
 71 74  1  0  0  0
 71149  1  0  0  0
 72 76  1  0  0  0
 72150  1  0  0  0
 73 75  1  0  0  0
 73 76  2  0  0  0
 73151  1  0  0  0
 74 75  2  0  0  0
 74 84  1  0  0  0
 75 87  1  0  0  0
 76 88  1  0  0  0
 77 78  1  0  0  0
 77 82  1  0  0  0
 77 89  2  0  0  0
 78152  1  0  0  0
 78153  1  0  0  0
 78 83  1  0  0  0
 79 81  1  0  0  0
 79 83  1  0  0  0
 79154  1  0  0  0
 79155  1  0  0  0
 80 83  1  0  0  0
 80156  1  0  0  0
 80157  1  0  0  0
 80 82  1  0  0  0
 81 87  1  0  0  0
 81158  1  0  0  0
 81159  1  0  0  0
 82 86  1  0  0  0
 82160  1  0  0  0
 83 87  1  0  0  0
 84161  1  0  0  0
 84162  1  0  0  0
 84163  1  0  0  0
 85164  1  0  0  0
 85165  1  0  0  0
 85166  1  0  0  0
 85 86  1  0  0  0
 86167  1  0  0  0
 88168  1  0  0  0
M  ISO  4   1 100  68 101  86 101  88 100
M  END
> <chiral flag>
0

> <version>
0

> <s_m_source_file>
/data/baiqing/PycharmProjects/Reinvent-master-3.2/result/LINK_invent/BTK/process_docking_weight1_custom_product_contain_oxygen_bond_distance_aromatic_linkinvent_7_9_3/rearranged_h_0077.sdf

> <i_m_source_file_index>
1

> <r_mmod_Potential_Energy-OPLS-2005>
29016.978515625

> <r_mmod_Stretch_Energy-OPLS-2005>
13468.5693359375

> <r_mmod_Bend_Energy-OPLS-2005>
2431.81762695312

> <r_mmod_Torsional_Energy-OPLS-2005>
742.662658691406

> <r_mmod_Improper_Torsional_Energy-OPLS-2005>
115.502143859863

> <r_mmod_Van_der_Waal_Energy-OPLS-2005>
4457.03173828125

> <r_mmod_Electrostatic_Energy-OPLS-2005>
-407.987243652344

> <r_mmod_Solvation_Energy-OPLS-2005>
-234.46891784668

> <b_mmod_Minimization_Converged-OPLS-2005>
0

> <r_mmod_RMS_Derivative-OPLS-2005>
9.44192123413086

$$$$
1
                    3D
 Structure written by MMmdl.
157166  0  0  1  0            999 V2000
  -30.7045  -14.5700   20.5358 C   0  0  0  0  0  0
  -30.4209  -12.3542   19.4702 C   0  0  0  0  0  0
  -29.5144  -12.5367   18.2380 C   0  0  0  0  0  0
  -28.0376  -12.3593   18.6373 C   0  0  0  0  0  0
  -27.6576  -13.2245   19.8694 C   0  0  2  0  0  0
  -28.6977  -13.0965   21.0047 C   0  0  0  0  0  0
  -25.2560  -13.8204   20.5628 C   0  0  0  0  0  0
  -24.1844  -13.0458   20.9104 C   0  0  0  0  0  0
  -24.6438  -11.6934   20.8735 C   0  0  0  0  0  0
  -23.9088  -10.4314   21.0356 C   0  0  0  0  0  0
  -24.3612   -9.4265   21.9178 C   0  0  0  0  0  0
  -23.6313   -8.2288   22.0744 C   0  0  0  0  0  0
  -22.4311   -8.0299   21.3510 C   0  0  0  0  0  0
  -21.9951   -9.0245   20.4577 C   0  0  0  0  0  0
  -22.7253  -10.2139   20.3004 C   0  0  0  0  0  0
  -21.6921   -6.0749   22.5257 C   0  0  0  0  0  0
  -21.4071   -6.5635   23.8193 C   0  0  0  0  0  0
  -21.3743   -5.6781   24.9152 C   0  0  0  0  0  0
  -21.6053   -4.3037   24.7181 C   0  0  0  0  0  0
  -21.8808   -3.8143   23.4301 C   0  0  0  0  0  0
  -21.9175   -4.6968   22.3373 C   0  0  0  0  0  0
  -22.7850  -13.5208   21.1792 C   0  0  0  0  0  0
  -22.1640   -4.2162   21.0936 F   0  0  0  0  0  0
  -21.5638   -3.4522   25.7700 F   0  0  0  0  0  0
  -30.0219  -13.3903   20.4411 N   0  0  0  0  0  0
  -26.3027  -12.9400   20.3354 N   0  0  0  0  0  0
  -25.9371  -11.6553   20.5799 N   0  0  0  0  0  0
  -22.0478  -12.8230   22.0367 N   0  0  0  0  0  0
  -25.4230  -15.1937   20.4023 N   0  0  0  0  0  0
  -31.8599  -14.6723   20.1156 O   0  0  0  0  0  0
  -21.6679   -6.8893   21.4227 O   0  0  0  0  0  0
  -22.3524  -14.5507   20.6630 O   0  0  0  0  0  0
  -24.6181  -31.8672   23.2017 C   0  0  0  0  0  0
  -25.9043  -32.4814   23.8359 C   0  0  1  0  0  0
  -27.2327  -27.4033   20.1413 C   0  0  0  0  0  0
  -25.5831  -33.8601   24.2258 N   0  0  0  0  0  0
  -23.4081  -30.4802   21.5504 C   0  0  2  0  0  0
  -24.8587  -28.9487   20.1192 C   0  0  0  0  0  0
  -22.7467  -29.4592   22.5023 C   0  0  0  0  0  0
  -18.0258  -28.1424   22.8527 C   0  0  0  0  0  0
  -24.1455  -36.7323   23.2635 C   0  0  0  0  0  0
  -25.9317  -30.8357   21.3498 C   0  0  0  0  0  0
  -26.0188  -29.4658   20.7041 C   0  0  0  0  0  0
  -27.2169  -28.7068   20.7001 C   0  0  0  0  0  0
  -26.0559  -26.9100   19.5405 C   0  0  0  0  0  0
  -24.8708  -27.6733   19.5311 C   0  0  0  0  0  0
  -23.6161  -29.8097   20.1658 C   0  0  0  0  0  0
  -25.4087  -36.3108   24.0326 C   0  0  1  0  0  0
  -20.5869  -28.3659   23.1364 C   0  0  2  0  0  0
  -20.6783  -26.9384   22.5468 C   0  0  0  0  0  0
  -19.5768  -26.6397   21.5296 C   0  0  0  0  0  0
  -18.1923  -26.7963   22.1665 C   0  0  0  0  0  0
  -19.1506  -28.8867   23.2949 C   0  0  0  0  0  0
  -18.9413  -30.1478   23.8970 C   0  0  0  0  0  0
  -17.6400  -30.6625   24.0593 C   0  0  0  0  0  0
  -25.9015  -34.9468   23.5117 C   0  0  0  0  0  0
  -16.5308  -29.9150   23.6328 C   0  0  0  0  0  0
  -16.7229  -28.6579   23.0342 C   0  0  0  0  0  0
  -26.4420  -31.6605   25.0732 C   0  0  0  0  0  0
  -25.3609  -31.3762   26.1415 C   0  0  0  0  0  0
  -27.0216  -30.3027   24.6151 C   0  0  0  0  0  0
  -27.5994  -32.4283   25.7534 C   0  0  0  0  0  0
  -27.5564  -37.1795   24.8448 C   0  0  0  0  0  0
  -21.4191  -29.3000   22.3749 N   0  0  0  0  0  0
  -26.4254  -37.3818   23.9409 N   0  0  0  0  0  0
  -24.6720  -31.0757   22.0922 N   0  0  0  0  0  0
  -23.4221  -28.8126   23.3051 O   0  0  0  0  0  0
  -28.3680  -26.6077   20.1738 O   0  0  0  0  0  0
  -26.5649  -34.8933   22.4719 O   0  0  0  0  0  0
  -23.5366  -32.1358   23.7430 O   0  0  0  0  0  0
  -32.1821  -18.6811   21.6471 C   0  0  0  0  0  0
  -31.2627  -19.7356   21.5470 C   0  0  0  0  0  0
  -31.7718  -17.3538   21.4242 C   0  0  0  0  0  0
  -29.5013  -18.1364   20.9816 C   0  0  0  0  0  0
  -29.9144  -19.4892   21.2106 C   0  0  0  0  0  0
  -30.4305  -17.0441   21.0814 C   0  0  0  0  0  0
  -28.8530  -22.9418   21.1683 C   0  0  0  0  0  0
  -28.5167  -22.4912   22.5093 C   0  0  0  0  0  0
  -29.2379  -21.7355   20.4261 C   0  0  0  0  0  0
  -28.5812  -23.1752   23.6727 C   0  0  0  0  0  0
  -28.8156  -24.1715   20.5756 C   0  0  0  0  0  0
  -28.3175  -20.9974   22.4412 C   0  0  0  0  0  0
  -28.3444  -25.5185   21.1408 C   0  0  0  0  0  0
  -29.0336  -20.6359   21.2111 N   0  0  0  0  0  0
  -29.9894  -15.6693   20.9200 N   0  0  0  0  0  0
  -29.6672  -21.6954   19.2645 O   0  0  0  0  0  0
  -31.4748  -12.4173   19.1846 H   0  0  0  0  0  0
  -30.2848  -11.3624   19.9092 H   0  0  0  0  0  0
  -29.7827  -11.8317   17.4535 H   0  0  0  0  0  0
  -29.6642  -13.5392   17.8306 H   0  0  0  0  0  0
  -27.8875  -11.3031   18.8652 H   0  0  0  0  0  0
  -27.3820  -12.5939   17.7977 H   0  0  0  0  0  0
  -27.6736  -14.2598   19.5333 H   0  0  0  0  0  0
  -28.6924  -12.0931   21.4260 H   0  0  0  0  0  0
  -28.4583  -13.7704   21.8298 H   0  0  0  0  0  0
  -25.2736   -9.5800   22.4766 H   0  0  0  0  0  0
  -24.0028   -7.4717   22.7504 H   0  0  0  0  0  0
  -21.0895   -8.8721   19.8871 H   0  0  0  0  0  0
  -22.3690  -10.9651   19.6092 H   0  0  0  0  0  0
  -21.2126   -7.6168   23.9721 H   0  0  0  0  0  0
  -21.1600   -6.0501   25.9050 H   0  0  0  0  0  0
  -22.0516   -2.7614   23.2763 H   0  0  0  0  0  0
  -22.4135  -11.9966   22.4872 H   0  0  0  0  0  0
  -21.1066  -13.1226   22.2465 H   0  0  0  0  0  0
  -24.6455  -15.8393   20.4854 H   0  0  0  0  0  0
  -26.2824  -15.6467   20.1156 H   0  0  0  0  0  0
  -26.7140  -32.5527   23.1147 H   0  0  0  0  0  0
  -24.9794  -33.9696   25.0276 H   0  0  0  0  0  0
  -22.7021  -31.2995   21.4153 H   0  0  0  0  0  0
  -23.3736  -35.9645   23.3308 H   0  0  0  0  0  0
  -24.3515  -36.8953   22.2041 H   0  0  0  0  0  0
  -23.7174  -37.6516   23.6665 H   0  0  0  0  0  0
  -26.0168  -31.5980   20.5771 H   0  0  0  0  0  0
  -26.8250  -30.9091   21.9581 H   0  0  0  0  0  0
  -28.1139  -29.1053   21.1517 H   0  0  0  0  0  0
  -26.0430  -25.9248   19.0988 H   0  0  0  0  0  0
  -23.9687  -27.2669   19.0949 H   0  0  0  0  0  0
  -23.7035  -30.5770   19.3942 H   0  0  0  0  0  0
  -22.7507  -29.2084   19.8883 H   0  0  0  0  0  0
  -25.1269  -36.1977   25.0822 H   0  0  0  0  0  0
  -20.9930  -28.3205   24.1498 H   0  0  0  0  0  0
  -20.5809  -26.2232   23.3645 H   0  0  0  0  0  0
  -21.6614  -26.7519   22.1160 H   0  0  0  0  0  0
  -19.6887  -25.6321   21.1300 H   0  0  0  0  0  0
  -19.6710  -27.3267   20.6874 H   0  0  0  0  0  0
  -17.4217  -26.6755   21.4045 H   0  0  0  0  0  0
  -18.0238  -26.0115   22.9047 H   0  0  0  0  0  0
  -19.7847  -30.7313   24.2403 H   0  0  0  0  0  0
  -17.4925  -31.6297   24.5179 H   0  0  0  0  0  0
  -15.5319  -30.3078   23.7611 H   0  0  0  0  0  0
  -15.8627  -28.0946   22.7010 H   0  0  0  0  0  0
  -24.5679  -30.7324   25.7579 H   0  0  0  0  0  0
  -24.8948  -32.2983   26.4920 H   0  0  0  0  0  0
  -25.7783  -30.8709   27.0133 H   0  0  0  0  0  0
  -26.2772  -29.6858   24.1097 H   0  0  0  0  0  0
  -27.3826  -29.7203   25.4644 H   0  0  0  0  0  0
  -27.8681  -30.4328   23.9402 H   0  0  0  0  0  0
  -27.2587  -33.3463   26.2330 H   0  0  0  0  0  0
  -28.3703  -32.7015   25.0323 H   0  0  0  0  0  0
  -28.0818  -31.8302   26.5283 H   0  0  0  0  0  0
  -28.2576  -38.0087   24.7507 H   0  0  0  0  0  0
  -28.1050  -36.2621   24.6267 H   0  0  0  0  0  0
  -27.2277  -37.1445   25.8843 H   0  0  0  0  0  0
  -20.9446  -29.8586   21.6808 H   0  0  0  0  0  0
  -26.0171  -38.2891   24.1489 H   0  0  0  0  0  0
  -33.2077  -18.8863   21.9227 H   0  0  0  0  0  0
  -31.5944  -20.7461   21.7497 H   0  0  0  0  0  0
  -32.5171  -16.5842   21.5659 H   0  0  0  0  0  0
  -28.4657  -17.9382   20.7368 H   0  0  0  0  0  0
  -28.8718  -24.2136   23.7483 H   0  0  0  0  0  0
  -28.3855  -22.6707   24.6151 H   0  0  0  0  0  0
  -29.1159  -24.2417   19.5363 H   0  0  0  0  0  0
  -27.2552  -20.7623   22.3368 H   0  0  0  0  0  0
  -28.7190  -20.4787   23.3133 H   0  0  0  0  0  0
  -29.0063  -25.7883   21.9642 H   0  0  0  0  0  0
  -27.3516  -25.3673   21.5670 H   0  0  0  0  0  0
  -29.0042  -15.5059   21.0647 H   0  0  0  0  0  0
  1 25  1  0  0  0
  1 30  2  0  0  0
  1 85  1  0  0  0
  2  3  1  0  0  0
  2 25  1  0  0  0
  2 87  1  0  0  0
  2 88  1  0  0  0
  3  4  1  0  0  0
  3 89  1  0  0  0
  3 90  1  0  0  0
  4  5  1  0  0  0
  4 91  1  0  0  0
  4 92  1  0  0  0
  5  6  1  0  0  0
  5 26  1  0  0  0
  5 93  1  0  0  0
  6 25  1  0  0  0
  6 94  1  0  0  0
  6 95  1  0  0  0
  7  8  2  0  0  0
  7 26  1  0  0  0
  7 29  1  0  0  0
  8  9  1  0  0  0
  8 22  1  0  0  0
  9 10  1  0  0  0
  9 27  2  0  0  0
 10 11  2  0  0  0
 10 15  1  0  0  0
 11 12  1  0  0  0
 11 96  1  0  0  0
 12 13  2  0  0  0
 12 97  1  0  0  0
 13 14  1  0  0  0
 13 31  1  0  0  0
 14 15  2  0  0  0
 14 98  1  0  0  0
 15 99  1  0  0  0
 16 17  2  0  0  0
 16 21  1  0  0  0
 16 31  1  0  0  0
 17 18  1  0  0  0
 17100  1  0  0  0
 18 19  2  0  0  0
 18101  1  0  0  0
 19 20  1  0  0  0
 19 24  1  0  0  0
 20 21  2  0  0  0
 20102  1  0  0  0
 21 23  1  0  0  0
 22 28  1  0  0  0
 22 32  2  0  0  0
 26 27  1  0  0  0
 28103  1  0  0  0
 28104  1  0  0  0
 29105  1  0  0  0
 29106  1  0  0  0
 33 34  1  0  0  0
 33 66  1  0  0  0
 33 70  2  0  0  0
 34 36  1  0  0  0
 34 59  1  0  0  0
 34107  1  0  0  0
 35 44  2  0  0  0
 35 45  1  0  0  0
 35 68  1  0  0  0
 36 56  1  0  0  0
 36108  1  0  0  0
 37 39  1  0  0  0
 37 47  1  0  0  0
 37 66  1  0  0  0
 37109  1  0  0  0
 38 43  2  0  0  0
 38 46  1  0  0  0
 38 47  1  0  0  0
 39 64  1  0  0  0
 39 67  2  0  0  0
 40 52  1  0  0  0
 40 53  2  0  0  0
 40 58  1  0  0  0
 41110  1  0  0  0
 41111  1  0  0  0
 41112  1  0  0  0
 41 48  1  0  0  0
 42 43  1  0  0  0
 42 66  1  0  0  0
 42113  1  0  0  0
 42114  1  0  0  0
 43 44  1  0  0  0
 44115  1  0  0  0
 45 46  2  0  0  0
 45116  1  0  0  0
 46117  1  0  0  0
 47118  1  0  0  0
 47119  1  0  0  0
 48 56  1  0  0  0
 48 65  1  0  0  0
 48120  1  0  0  0
 49 50  1  0  0  0
 49 53  1  0  0  0
 49 64  1  0  0  0
 49121  1  0  0  0
 50 51  1  0  0  0
 50122  1  0  0  0
 50123  1  0  0  0
 51 52  1  0  0  0
 51124  1  0  0  0
 51125  1  0  0  0
 52126  1  0  0  0
 52127  1  0  0  0
 53 54  1  0  0  0
 54 55  2  0  0  0
 54128  1  0  0  0
 55 57  1  0  0  0
 55129  1  0  0  0
 56 69  2  0  0  0
 57 58  2  0  0  0
 57130  1  0  0  0
 58131  1  0  0  0
 59 60  1  0  0  0
 59 61  1  0  0  0
 59 62  1  0  0  0
 60132  1  0  0  0
 60133  1  0  0  0
 60134  1  0  0  0
 61135  1  0  0  0
 61136  1  0  0  0
 61137  1  0  0  0
 62138  1  0  0  0
 62139  1  0  0  0
 62140  1  0  0  0
 63 65  1  0  0  0
 63141  1  0  0  0
 63142  1  0  0  0
 63143  1  0  0  0
 64144  1  0  0  0
 65145  1  0  0  0
 68 83  1  0  0  0
 71 72  2  0  0  0
 71 73  1  0  0  0
 71146  1  0  0  0
 72 75  1  0  0  0
 72147  1  0  0  0
 73 76  2  0  0  0
 73148  1  0  0  0
 74 75  2  0  0  0
 74 76  1  0  0  0
 74149  1  0  0  0
 75 84  1  0  0  0
 76 85  1  0  0  0
 77 78  1  0  0  0
 77 79  1  0  0  0
 77 81  2  0  0  0
 78 80  2  0  0  0
 78 82  1  0  0  0
 79 84  1  0  0  0
 79 86  2  0  0  0
 80150  1  0  0  0
 80151  1  0  0  0
 81 83  1  0  0  0
 81152  1  0  0  0
 82 84  1  0  0  0
 82153  1  0  0  0
 82154  1  0  0  0
 83155  1  0  0  0
 83156  1  0  0  0
 85157  1  0  0  0
M  ISO  4   1 100  68 101  83 101  85 100
M  END
> <chiral flag>
0

> <version>
0

> <s_m_source_file>
/data/baiqing/PycharmProjects/Reinvent-master-3.2/result/LINK_invent/BTK/process_docking_weight1_custom_product_contain_oxygen_bond_distance_aromatic_linkinvent_7_9_3/rearranged_h_0077.sdf

> <i_m_source_file_index>
2

> <r_mmod_Potential_Energy-OPLS-2005>
190.081634521484

> <r_mmod_Stretch_Energy-OPLS-2005>
55.3609428405762

> <r_mmod_Bend_Energy-OPLS-2005>
168.631973266602

> <r_mmod_Torsional_Energy-OPLS-2005>
335.993530273438

> <r_mmod_Improper_Torsional_Energy-OPLS-2005>
7.01975440979004

> <r_mmod_Van_der_Waal_Energy-OPLS-2005>
143.394927978516

> <r_mmod_Electrostatic_Energy-OPLS-2005>
-328.989898681641

> <r_mmod_Solvation_Energy-OPLS-2005>
-219.587554931641

> <b_mmod_Minimization_Converged-OPLS-2005>
0

> <r_mmod_RMS_Derivative-OPLS-2005>
8.43038082122803

$$$$
2
                    3D
 Structure written by MMmdl.
157166  0  0  1  0            999 V2000
  -30.6829  -14.7616   20.4754 C   0  0  0  0  0  0
  -30.4187  -12.4758   19.4844 C   0  0  0  0  0  0
  -29.5182  -12.5193   18.2356 C   0  0  0  0  0  0
  -28.0434  -12.3514   18.6456 C   0  0  0  0  0  0
  -27.6433  -13.2553   19.8441 C   0  0  2  0  0  0
  -28.6854  -13.2361   20.9810 C   0  0  0  0  0  0
  -25.2545  -13.8245   20.5745 C   0  0  0  0  0  0
  -24.1854  -13.0456   20.9208 C   0  0  0  0  0  0
  -24.6478  -11.6945   20.8751 C   0  0  0  0  0  0
  -23.9155  -10.4294   21.0403 C   0  0  0  0  0  0
  -24.3683   -9.4189   21.9183 C   0  0  0  0  0  0
  -23.6320   -8.2243   22.0754 C   0  0  0  0  0  0
  -22.4290   -8.0303   21.3551 C   0  0  0  0  0  0
  -21.9950   -9.0288   20.4649 C   0  0  0  0  0  0
  -22.7322  -10.2142   20.3041 C   0  0  0  0  0  0
  -21.6866   -6.0750   22.5271 C   0  0  0  0  0  0
  -21.4056   -6.5653   23.8214 C   0  0  0  0  0  0
  -21.3649   -5.6789   24.9164 C   0  0  0  0  0  0
  -21.6028   -4.3052   24.7194 C   0  0  0  0  0  0
  -21.8831   -3.8155   23.4321 C   0  0  0  0  0  0
  -21.9203   -4.6981   22.3388 C   0  0  0  0  0  0
  -22.7849  -13.5206   21.1820 C   0  0  0  0  0  0
  -22.1662   -4.2159   21.0959 F   0  0  0  0  0  0
  -21.5593   -3.4534   25.7709 F   0  0  0  0  0  0
  -29.9864  -13.5700   20.3910 N   0  0  0  0  0  0
  -26.2992  -12.9509   20.3266 N   0  0  0  0  0  0
  -25.9417  -11.6624   20.5740 N   0  0  0  0  0  0
  -22.0508  -12.8199   22.0382 N   0  0  0  0  0  0
  -25.4223  -15.1989   20.4272 N   0  0  0  0  0  0
  -31.8545  -14.7844   20.0957 O   0  0  0  0  0  0
  -21.6650   -6.8899   21.4235 O   0  0  0  0  0  0
  -22.3511  -14.5482   20.6611 O   0  0  0  0  0  0
  -24.6401  -31.8525   23.1974 C   0  0  0  0  0  0
  -25.9197  -32.4746   23.8340 C   0  0  1  0  0  0
  -27.2007  -27.2164   20.1169 C   0  0  0  0  0  0
  -25.5956  -33.8546   24.2275 N   0  0  0  0  0  0
  -23.4360  -30.4813   21.5436 C   0  0  2  0  0  0
  -24.8734  -28.9276   20.1062 C   0  0  0  0  0  0
  -22.7551  -29.4600   22.4890 C   0  0  0  0  0  0
  -18.0316  -28.1382   22.8484 C   0  0  0  0  0  0
  -24.1484  -36.7288   23.2640 C   0  0  0  0  0  0
  -25.9888  -30.7508   21.3798 C   0  0  0  0  0  0
  -26.0530  -29.3724   20.7164 C   0  0  0  0  0  0
  -27.2192  -28.5313   20.7081 C   0  0  0  0  0  0
  -25.9889  -26.8574   19.4791 C   0  0  0  0  0  0
  -24.8490  -27.6787   19.4745 C   0  0  0  0  0  0
  -23.6505  -29.8232   20.1572 C   0  0  0  0  0  0
  -25.4109  -36.3080   24.0340 C   0  0  1  0  0  0
  -20.5924  -28.3699   23.1240 C   0  0  2  0  0  0
  -20.6785  -26.9403   22.5391 C   0  0  0  0  0  0
  -19.5750  -26.6366   21.5205 C   0  0  0  0  0  0
  -18.1942  -26.7924   22.1628 C   0  0  0  0  0  0
  -19.1572  -28.8861   23.2854 C   0  0  0  0  0  0
  -18.9478  -30.1461   23.8873 C   0  0  0  0  0  0
  -17.6467  -30.6567   24.0562 C   0  0  0  0  0  0
  -25.9060  -34.9439   23.5121 C   0  0  0  0  0  0
  -16.5364  -29.9063   23.6315 C   0  0  0  0  0  0
  -16.7300  -28.6485   23.0341 C   0  0  0  0  0  0
  -26.4523  -31.6578   25.0745 C   0  0  0  0  0  0
  -25.3735  -31.3714   26.1455 C   0  0  0  0  0  0
  -27.0371  -30.3002   24.6235 C   0  0  0  0  0  0
  -27.6084  -32.4313   25.7519 C   0  0  0  0  0  0
  -27.5587  -37.1800   24.8471 C   0  0  0  0  0  0
  -21.4254  -29.3057   22.3636 N   0  0  0  0  0  0
  -26.4295  -37.3772   23.9420 N   0  0  0  0  0  0
  -24.7097  -31.0467   22.0962 N   0  0  0  0  0  0
  -23.4241  -28.8103   23.2970 O   0  0  0  0  0  0
  -28.2704  -26.2748   20.1854 O   0  0  0  0  0  0
  -26.5624  -34.8914   22.4685 O   0  0  0  0  0  0
  -23.5535  -32.1344   23.7254 O   0  0  0  0  0  0
  -31.5884  -20.0962   21.5188 C   0  0  0  0  0  0
  -31.1878  -18.7738   21.2358 C   0  0  0  0  0  0
  -30.7942  -21.2118   21.1701 C   0  0  0  0  0  0
  -29.1579  -19.6747   20.2563 C   0  0  0  0  0  0
  -29.9565  -18.4971   20.6034 C   0  0  0  0  0  0
  -29.5464  -21.0717   20.5108 C   0  0  0  0  0  0
  -28.8917  -23.6408   20.5214 C   0  0  0  0  0  0
  -29.6238  -17.0128   20.2079 C   0  0  0  0  0  0
  -27.5862  -23.1929   17.9427 C   0  0  0  0  0  0
  -28.1178  -24.5804   18.3349 C   0  0  0  0  0  0
  -27.7741  -22.0747   19.0069 C   0  0  0  0  0  0
  -28.0094  -24.8094   19.8492 C   0  0  2  0  0  0
  -28.7907  -22.3064   20.0578 N   0  0  0  0  0  0
  -30.1217  -15.9431   20.9403 N   0  0  0  0  0  0
  -29.6282  -23.9710   21.4572 O   0  0  0  0  0  0
  -28.8830  -16.8272   19.2375 O   0  0  0  0  0  0
  -31.4679  -12.5536   19.1974 H   0  0  0  0  0  0
  -30.3228  -11.5104   19.9839 H   0  0  0  0  0  0
  -29.8031  -11.7340   17.5321 H   0  0  0  0  0  0
  -29.6612  -13.4666   17.7118 H   0  0  0  0  0  0
  -27.9022  -11.3034   18.9109 H   0  0  0  0  0  0
  -27.3881  -12.5415   17.7949 H   0  0  0  0  0  0
  -27.6232  -14.2739   19.4550 H   0  0  0  0  0  0
  -28.7200  -12.2622   21.4685 H   0  0  0  0  0  0
  -28.4164  -13.9641   21.7500 H   0  0  0  0  0  0
  -25.2833   -9.5629   22.4759 H   0  0  0  0  0  0
  -24.0003   -7.4630   22.7485 H   0  0  0  0  0  0
  -21.0865   -8.8857   19.8972 H   0  0  0  0  0  0
  -22.3825  -10.9692   19.6146 H   0  0  0  0  0  0
  -21.2106   -7.6174   23.9719 H   0  0  0  0  0  0
  -21.1442   -6.0519   25.9057 H   0  0  0  0  0  0
  -22.0628   -2.7617   23.2821 H   0  0  0  0  0  0
  -22.4171  -11.9894   22.4792 H   0  0  0  0  0  0
  -21.1115  -13.1198   22.2561 H   0  0  0  0  0  0
  -24.6620  -15.8544   20.5677 H   0  0  0  0  0  0
  -26.2726  -15.6430   20.1004 H   0  0  0  0  0  0
  -26.7279  -32.5361   23.1084 H   0  0  0  0  0  0
  -25.0120  -33.9663   25.0438 H   0  0  0  0  0  0
  -22.7365  -31.3076   21.4034 H   0  0  0  0  0  0
  -23.3751  -35.9617   23.3302 H   0  0  0  0  0  0
  -24.3585  -36.8897   22.2058 H   0  0  0  0  0  0
  -23.7219  -37.6484   23.6656 H   0  0  0  0  0  0
  -26.1355  -31.5058   20.6063 H   0  0  0  0  0  0
  -26.8669  -30.7987   22.0128 H   0  0  0  0  0  0
  -28.1204  -28.8650   21.2014 H   0  0  0  0  0  0
  -25.8577  -25.9053   18.9910 H   0  0  0  0  0  0
  -23.9463  -27.3301   18.9914 H   0  0  0  0  0  0
  -23.7826  -30.6039   19.4079 H   0  0  0  0  0  0
  -22.7618  -29.2694   19.8477 H   0  0  0  0  0  0
  -25.1280  -36.1951   25.0834 H   0  0  0  0  0  0
  -21.0046  -28.3276   24.1347 H   0  0  0  0  0  0
  -20.5657  -26.2313   23.3612 H   0  0  0  0  0  0
  -21.6651  -26.7373   22.1198 H   0  0  0  0  0  0
  -19.6895  -25.6272   21.1241 H   0  0  0  0  0  0
  -19.6686  -27.3165   20.6734 H   0  0  0  0  0  0
  -17.4202  -26.6672   21.4039 H   0  0  0  0  0  0
  -18.0341  -26.0068   22.9033 H   0  0  0  0  0  0
  -19.7949  -30.7297   24.2217 H   0  0  0  0  0  0
  -17.5010  -31.6243   24.5178 H   0  0  0  0  0  0
  -15.5361  -30.2952   23.7640 H   0  0  0  0  0  0
  -15.8708  -28.0798   22.7047 H   0  0  0  0  0  0
  -24.5926  -30.7044   25.7773 H   0  0  0  0  0  0
  -24.8892  -32.2860   26.4887 H   0  0  0  0  0  0
  -25.8037  -30.8885   27.0237 H   0  0  0  0  0  0
  -26.2953  -29.6745   24.1247 H   0  0  0  0  0  0
  -27.4044  -29.7269   25.4758 H   0  0  0  0  0  0
  -27.8842  -30.4288   23.9492 H   0  0  0  0  0  0
  -27.2718  -33.3631   26.2071 H   0  0  0  0  0  0
  -28.3902  -32.6829   25.0345 H   0  0  0  0  0  0
  -28.0743  -31.8442   26.5439 H   0  0  0  0  0  0
  -28.2601  -38.0097   24.7522 H   0  0  0  0  0  0
  -28.1083  -36.2633   24.6295 H   0  0  0  0  0  0
  -27.2313  -37.1446   25.8872 H   0  0  0  0  0  0
  -20.9448  -29.8846   21.6892 H   0  0  0  0  0  0
  -26.0187  -38.2856   24.1397 H   0  0  0  0  0  0
  -32.5527  -20.2652   21.9816 H   0  0  0  0  0  0
  -31.8660  -17.9665   21.4742 H   0  0  0  0  0  0
  -31.2102  -22.1835   21.3883 H   0  0  0  0  0  0
  -28.2229  -19.4725   19.7551 H   0  0  0  0  0  0
  -28.0604  -22.8937   17.0067 H   0  0  0  0  0  0
  -26.5213  -23.2674   17.7115 H   0  0  0  0  0  0
  -27.5959  -25.3474   17.7652 H   0  0  0  0  0  0
  -29.1645  -24.6638   18.0370 H   0  0  0  0  0  0
  -27.9991  -21.1672   18.4500 H   0  0  0  0  0  0
  -26.8264  -21.8770   19.5087 H   0  0  0  0  0  0
  -27.0040  -24.5643   20.1925 H   0  0  0  0  0  0
  -30.7133  -16.3343   21.6553 H   0  0  0  0  0  0
  1 25  1  0  0  0
  1 30  2  0  0  0
  1 84  1  0  0  0
  2  3  1  0  0  0
  2 25  1  0  0  0
  2 87  1  0  0  0
  2 88  1  0  0  0
  3  4  1  0  0  0
  3 89  1  0  0  0
  3 90  1  0  0  0
  4  5  1  0  0  0
  4 91  1  0  0  0
  4 92  1  0  0  0
  5  6  1  0  0  0
  5 26  1  0  0  0
  5 93  1  0  0  0
  6 25  1  0  0  0
  6 94  1  0  0  0
  6 95  1  0  0  0
  7  8  2  0  0  0
  7 26  1  0  0  0
  7 29  1  0  0  0
  8  9  1  0  0  0
  8 22  1  0  0  0
  9 10  1  0  0  0
  9 27  2  0  0  0
 10 11  2  0  0  0
 10 15  1  0  0  0
 11 12  1  0  0  0
 11 96  1  0  0  0
 12 13  2  0  0  0
 12 97  1  0  0  0
 13 14  1  0  0  0
 13 31  1  0  0  0
 14 15  2  0  0  0
 14 98  1  0  0  0
 15 99  1  0  0  0
 16 17  2  0  0  0
 16 21  1  0  0  0
 16 31  1  0  0  0
 17 18  1  0  0  0
 17100  1  0  0  0
 18 19  2  0  0  0
 18101  1  0  0  0
 19 20  1  0  0  0
 19 24  1  0  0  0
 20 21  2  0  0  0
 20102  1  0  0  0
 21 23  1  0  0  0
 22 28  1  0  0  0
 22 32  2  0  0  0
 26 27  1  0  0  0
 28103  1  0  0  0
 28104  1  0  0  0
 29105  1  0  0  0
 29106  1  0  0  0
 33 34  1  0  0  0
 33 66  1  0  0  0
 33 70  2  0  0  0
 34 36  1  0  0  0
 34 59  1  0  0  0
 34107  1  0  0  0
 35 44  2  0  0  0
 35 45  1  0  0  0
 35 68  1  0  0  0
 36 56  1  0  0  0
 36108  1  0  0  0
 37 39  1  0  0  0
 37 47  1  0  0  0
 37 66  1  0  0  0
 37109  1  0  0  0
 38 43  2  0  0  0
 38 46  1  0  0  0
 38 47  1  0  0  0
 39 64  1  0  0  0
 39 67  2  0  0  0
 40 52  1  0  0  0
 40 53  2  0  0  0
 40 58  1  0  0  0
 41110  1  0  0  0
 41111  1  0  0  0
 41112  1  0  0  0
 41 48  1  0  0  0
 42 43  1  0  0  0
 42 66  1  0  0  0
 42113  1  0  0  0
 42114  1  0  0  0
 43 44  1  0  0  0
 44115  1  0  0  0
 45 46  2  0  0  0
 45116  1  0  0  0
 46117  1  0  0  0
 47118  1  0  0  0
 47119  1  0  0  0
 48 56  1  0  0  0
 48 65  1  0  0  0
 48120  1  0  0  0
 49 50  1  0  0  0
 49 53  1  0  0  0
 49 64  1  0  0  0
 49121  1  0  0  0
 50 51  1  0  0  0
 50122  1  0  0  0
 50123  1  0  0  0
 51 52  1  0  0  0
 51124  1  0  0  0
 51125  1  0  0  0
 52126  1  0  0  0
 52127  1  0  0  0
 53 54  1  0  0  0
 54 55  2  0  0  0
 54128  1  0  0  0
 55 57  1  0  0  0
 55129  1  0  0  0
 56 69  2  0  0  0
 57 58  2  0  0  0
 57130  1  0  0  0
 58131  1  0  0  0
 59 60  1  0  0  0
 59 61  1  0  0  0
 59 62  1  0  0  0
 60132  1  0  0  0
 60133  1  0  0  0
 60134  1  0  0  0
 61135  1  0  0  0
 61136  1  0  0  0
 61137  1  0  0  0
 62138  1  0  0  0
 62139  1  0  0  0
 62140  1  0  0  0
 63 65  1  0  0  0
 63141  1  0  0  0
 63142  1  0  0  0
 63143  1  0  0  0
 64144  1  0  0  0
 65145  1  0  0  0
 68 82  1  0  0  0
 71 72  2  0  0  0
 71 73  1  0  0  0
 71146  1  0  0  0
 72 75  1  0  0  0
 72147  1  0  0  0
 73 76  2  0  0  0
 73148  1  0  0  0
 74 75  2  0  0  0
 74 76  1  0  0  0
 74149  1  0  0  0
 75 78  1  0  0  0
 76 83  1  0  0  0
 77 82  1  0  0  0
 77 83  1  0  0  0
 77 85  2  0  0  0
 78 84  1  0  0  0
 78 86  2  0  0  0
 79 80  1  0  0  0
 79 81  1  0  0  0
 79150  1  0  0  0
 79151  1  0  0  0
 80 82  1  0  0  0
 80152  1  0  0  0
 80153  1  0  0  0
 81 83  1  0  0  0
 81154  1  0  0  0
 81155  1  0  0  0
 82156  1  0  0  0
 84157  1  0  0  0
M  ISO  4   1 100  68 101  82 101  84 100
M  END
> <chiral flag>
0

> <version>
0

> <s_m_source_file>
/data/baiqing/PycharmProjects/Reinvent-master-3.2/result/LINK_invent/BTK/process_docking_weight1_custom_product_contain_oxygen_bond_distance_aromatic_linkinvent_7_9_3/rearranged_h_0077.sdf

> <i_m_source_file_index>
3

> <r_mmod_Potential_Energy-OPLS-2005>
352.914978027344

> <r_mmod_Stretch_Energy-OPLS-2005>
155.82341003418

> <r_mmod_Bend_Energy-OPLS-2005>
196.825988769531

> <r_mmod_Torsional_Energy-OPLS-2005>
342.991485595703

> <r_mmod_Improper_Torsional_Energy-OPLS-2005>
6.95796394348145

> <r_mmod_Van_der_Waal_Energy-OPLS-2005>
156.772369384766

> <r_mmod_Electrostatic_Energy-OPLS-2005>
-391.4599609375

> <r_mmod_Solvation_Energy-OPLS-2005>
-221.639389038086

> <b_mmod_Minimization_Converged-OPLS-2005>
0

> <r_mmod_RMS_Derivative-OPLS-2005>
3.35294485092163

$$$$
3
                    3D
 Structure written by MMmdl.
159168  0  0  1  0            999 V2000
  -30.5852  -14.7074   20.4806 C   0  0  0  0  0  0
  -30.4477  -12.4333   19.4564 C   0  0  0  0  0  0
  -29.5128  -12.5134   18.2274 C   0  0  0  0  0  0
  -28.0363  -12.3382   18.6403 C   0  0  0  0  0  0
  -27.6497  -13.2176   19.8589 C   0  0  2  0  0  0
  -28.6976  -13.0997   20.9883 C   0  0  0  0  0  0
  -25.2562  -13.8185   20.5709 C   0  0  0  0  0  0
  -24.1827  -13.0439   20.9193 C   0  0  0  0  0  0
  -24.6395  -11.6909   20.8737 C   0  0  0  0  0  0
  -23.9067  -10.4293   21.0404 C   0  0  0  0  0  0
  -24.3618   -9.4210   21.9183 C   0  0  0  0  0  0
  -23.6295   -8.2245   22.0751 C   0  0  0  0  0  0
  -22.4274   -8.0284   21.3545 C   0  0  0  0  0  0
  -21.9910   -9.0255   20.4645 C   0  0  0  0  0  0
  -22.7240  -10.2134   20.3055 C   0  0  0  0  0  0
  -21.6854   -6.0737   22.5280 C   0  0  0  0  0  0
  -21.4011   -6.5638   23.8215 C   0  0  0  0  0  0
  -21.3660   -5.6789   24.9174 C   0  0  0  0  0  0
  -21.6046   -4.3052   24.7224 C   0  0  0  0  0  0
  -21.8820   -3.8149   23.4344 C   0  0  0  0  0  0
  -21.9191   -4.6966   22.3401 C   0  0  0  0  0  0
  -22.7848  -13.5232   21.1856 C   0  0  0  0  0  0
  -22.1662   -4.2153   21.0978 F   0  0  0  0  0  0
  -21.5632   -3.4534   25.7737 F   0  0  0  0  0  0
  -30.0043  -13.4633   20.4177 N   0  0  0  0  0  0
  -26.2981  -12.9359   20.3316 N   0  0  0  0  0  0
  -25.9324  -11.6511   20.5753 N   0  0  0  0  0  0
  -22.0489  -12.8225   22.0412 N   0  0  0  0  0  0
  -25.4214  -15.1924   20.4187 N   0  0  0  0  0  0
  -31.7664  -14.8751   20.1611 O   0  0  0  0  0  0
  -21.6641   -6.8880   21.4241 O   0  0  0  0  0  0
  -22.3529  -14.5537   20.6702 O   0  0  0  0  0  0
  -24.6301  -31.8554   23.1980 C   0  0  0  0  0  0
  -25.9132  -32.4754   23.8323 C   0  0  1  0  0  0
  -27.2336  -27.2850   20.1111 C   0  0  0  0  0  0
  -25.5934  -33.8556   24.2253 N   0  0  0  0  0  0
  -23.4256  -30.4779   21.5418 C   0  0  2  0  0  0
  -24.8726  -28.9246   20.1121 C   0  0  0  0  0  0
  -22.7493  -29.4605   22.4919 C   0  0  0  0  0  0
  -18.0290  -28.1392   22.8482 C   0  0  0  0  0  0
  -24.1486  -36.7282   23.2634 C   0  0  0  0  0  0
  -25.9697  -30.7765   21.3722 C   0  0  0  0  0  0
  -26.0446  -29.4005   20.7133 C   0  0  0  0  0  0
  -27.2245  -28.5928   20.7009 C   0  0  0  0  0  0
  -26.0240  -26.8582   19.5155 C   0  0  0  0  0  0
  -24.8655  -27.6595   19.5060 C   0  0  0  0  0  0
  -23.6423  -29.8092   20.1588 C   0  0  0  0  0  0
  -25.4112  -36.3067   24.0322 C   0  0  1  0  0  0
  -20.5891  -28.3697   23.1275 C   0  0  2  0  0  0
  -20.6778  -26.9414   22.5414 C   0  0  0  0  0  0
  -19.5758  -26.6385   21.5214 C   0  0  0  0  0  0
  -18.1935  -26.7935   22.1618 C   0  0  0  0  0  0
  -19.1543  -28.8862   23.2875 C   0  0  0  0  0  0
  -18.9463  -30.1461   23.8894 C   0  0  0  0  0  0
  -17.6462  -30.6587   24.0568 C   0  0  0  0  0  0
  -25.9059  -34.9440   23.5093 C   0  0  0  0  0  0
  -16.5353  -29.9085   23.6335 C   0  0  0  0  0  0
  -16.7275  -28.6507   23.0347 C   0  0  0  0  0  0
  -26.4501  -31.6574   25.0711 C   0  0  0  0  0  0
  -25.3721  -31.3734   26.1430 C   0  0  0  0  0  0
  -27.0333  -30.2983   24.6192 C   0  0  0  0  0  0
  -27.6056  -32.4308   25.7489 C   0  0  0  0  0  0
  -27.5589  -37.1781   24.8450 C   0  0  0  0  0  0
  -21.4201  -29.3044   22.3663 N   0  0  0  0  0  0
  -26.4280  -37.3777   23.9425 N   0  0  0  0  0  0
  -24.6943  -31.0535   22.0946 N   0  0  0  0  0  0
  -23.4197  -28.8153   23.3019 O   0  0  0  0  0  0
  -28.3601  -26.4302   20.1763 O   0  0  0  0  0  0
  -26.5630  -34.8916   22.4662 O   0  0  0  0  0  0
  -23.5454  -32.1369   23.7289 O   0  0  0  0  0  0
  -28.5549  -19.3141   19.9330 C   0  0  0  0  0  0
  -30.7328  -18.0732   21.1822 C   0  0  0  0  0  0
  -29.4829  -20.1788   20.5809 C   0  0  0  0  0  0
  -28.6899  -17.8875   19.9409 C   0  0  0  0  0  0
  -29.7750  -17.2181   20.5734 C   0  0  0  0  0  0
  -30.5873  -19.5023   21.1921 C   0  0  0  0  0  0
  -28.7266  -23.9428   20.3034 C   0  0  0  0  0  0
  -29.0416  -23.7762   21.7012 C   0  0  0  0  0  0
  -28.8602  -22.5576   19.7324 C   0  0  0  0  0  0
  -28.9518  -24.7185   22.6572 C   0  0  0  0  0  0
  -28.4086  -25.1186   19.6193 C   0  0  0  0  0  0
  -29.4727  -22.3495   21.9707 C   0  0  0  0  0  0
  -28.2548  -25.1636   18.1031 C   0  0  0  0  0  0
  -29.2724  -21.6508   20.6932 N   0  0  0  0  0  0
  -27.7157  -17.1091   19.3166 N   0  0  0  0  0  0
  -29.7149  -15.7497   20.7041 N   0  0  0  0  0  0
  -28.6448  -22.2268   18.5615 O   0  0  0  0  0  0
  -31.5423  -20.2273   21.8212 F   0  0  0  0  0  0
  -31.4858  -12.5807   19.1530 H   0  0  0  0  0  0
  -30.4045  -11.4433   19.9130 H   0  0  0  0  0  0
  -29.7890  -11.7551   17.4938 H   0  0  0  0  0  0
  -29.6402  -13.4773   17.7318 H   0  0  0  0  0  0
  -27.8848  -11.2860   18.8831 H   0  0  0  0  0  0
  -27.3793  -12.5529   17.7966 H   0  0  0  0  0  0
  -27.6538  -14.2459   19.5016 H   0  0  0  0  0  0
  -28.7268  -12.0833   21.3834 H   0  0  0  0  0  0
  -28.4377  -13.7412   21.8320 H   0  0  0  0  0  0
  -25.2759   -9.5693   22.4757 H   0  0  0  0  0  0
  -24.0009   -7.4637   22.7467 H   0  0  0  0  0  0
  -21.0843   -8.8771   19.8950 H   0  0  0  0  0  0
  -22.3696  -10.9673   19.6166 H   0  0  0  0  0  0
  -21.1997   -7.6145   23.9723 H   0  0  0  0  0  0
  -21.1482   -6.0515   25.9080 H   0  0  0  0  0  0
  -22.0598   -2.7612   23.2838 H   0  0  0  0  0  0
  -22.4097  -11.9888   22.4810 H   0  0  0  0  0  0
  -21.1105  -13.1256   22.2612 H   0  0  0  0  0  0
  -24.6464  -15.8326   20.5485 H   0  0  0  0  0  0
  -26.2660  -15.6743   20.1151 H   0  0  0  0  0  0
  -26.7200  -32.5409   23.1065 H   0  0  0  0  0  0
  -25.0068  -33.9692   25.0389 H   0  0  0  0  0  0
  -22.7217  -31.2996   21.3949 H   0  0  0  0  0  0
  -23.3762  -35.9598   23.3256 H   0  0  0  0  0  0
  -24.3589  -36.8950   22.2060 H   0  0  0  0  0  0
  -23.7215  -37.6459   23.6688 H   0  0  0  0  0  0
  -26.1034  -31.5389   20.6035 H   0  0  0  0  0  0
  -26.8488  -30.8260   22.0034 H   0  0  0  0  0  0
  -28.1249  -28.9554   21.1769 H   0  0  0  0  0  0
  -25.9421  -25.8770   19.0747 H   0  0  0  0  0  0
  -23.9623  -27.2816   19.0470 H   0  0  0  0  0  0
  -23.7648  -30.5837   19.4007 H   0  0  0  0  0  0
  -22.7614  -29.2401   19.8555 H   0  0  0  0  0  0
  -25.1290  -36.1902   25.0812 H   0  0  0  0  0  0
  -20.9983  -28.3276   24.1396 H   0  0  0  0  0  0
  -20.5672  -26.2307   23.3619 H   0  0  0  0  0  0
  -21.6647  -26.7438   22.1210 H   0  0  0  0  0  0
  -19.6918  -25.6294   21.1250 H   0  0  0  0  0  0
  -19.6704  -27.3190   20.6741 H   0  0  0  0  0  0
  -17.4209  -26.6684   21.4017 H   0  0  0  0  0  0
  -18.0330  -26.0076   22.9014 H   0  0  0  0  0  0
  -19.7938  -30.7281   24.2260 H   0  0  0  0  0  0
  -17.5014  -31.6267   24.5172 H   0  0  0  0  0  0
  -15.5352  -30.2984   23.7667 H   0  0  0  0  0  0
  -15.8675  -28.0829   22.7057 H   0  0  0  0  0  0
  -24.5900  -30.7077   25.7762 H   0  0  0  0  0  0
  -24.8906  -32.2906   26.4828 H   0  0  0  0  0  0
  -25.8031  -30.8932   27.0223 H   0  0  0  0  0  0
  -26.2907  -29.6737   24.1211 H   0  0  0  0  0  0
  -27.4000  -29.7243   25.4712 H   0  0  0  0  0  0
  -27.8793  -30.4244   23.9433 H   0  0  0  0  0  0
  -27.2662  -33.3605   26.2066 H   0  0  0  0  0  0
  -28.3870  -32.6870   25.0324 H   0  0  0  0  0  0
  -28.0715  -31.8431   26.5408 H   0  0  0  0  0  0
  -28.2552  -38.0132   24.7573 H   0  0  0  0  0  0
  -28.1138  -36.2669   24.6167 H   0  0  0  0  0  0
  -27.2327  -37.1293   25.8854 H   0  0  0  0  0  0
  -20.9383  -29.8758   21.6863 H   0  0  0  0  0  0
  -26.0150  -38.2835   24.1484 H   0  0  0  0  0  0
  -27.6923  -19.7560   19.4560 H   0  0  0  0  0  0
  -31.5734  -17.6375   21.7016 H   0  0  0  0  0  0
  -28.6280  -25.7277   22.4517 H   0  0  0  0  0  0
  -29.2031  -24.4879   23.6826 H   0  0  0  0  0  0
  -28.8601  -21.9002   22.7535 H   0  0  0  0  0  0
  -30.5166  -22.3334   22.2834 H   0  0  0  0  0  0
  -27.4016  -24.5662   17.7816 H   0  0  0  0  0  0
  -29.1483  -24.7657   17.6211 H   0  0  0  0  0  0
  -28.1202  -26.1813   17.7362 H   0  0  0  0  0  0
  -27.0688  -17.6211   18.7266 H   0  0  0  0  0  0
  -28.0904  -16.3155   18.8112 H   0  0  0  0  0  0
  -28.7654  -15.4238   20.8003 H   0  0  0  0  0  0
  1 25  1  0  0  0
  1 30  2  0  0  0
  1 86  1  0  0  0
  2  3  1  0  0  0
  2 25  1  0  0  0
  2 89  1  0  0  0
  2 90  1  0  0  0
  3  4  1  0  0  0
  3 91  1  0  0  0
  3 92  1  0  0  0
  4  5  1  0  0  0
  4 93  1  0  0  0
  4 94  1  0  0  0
  5  6  1  0  0  0
  5 26  1  0  0  0
  5 95  1  0  0  0
  6 25  1  0  0  0
  6 96  1  0  0  0
  6 97  1  0  0  0
  7  8  2  0  0  0
  7 26  1  0  0  0
  7 29  1  0  0  0
  8  9  1  0  0  0
  8 22  1  0  0  0
  9 10  1  0  0  0
  9 27  2  0  0  0
 10 11  2  0  0  0
 10 15  1  0  0  0
 11 12  1  0  0  0
 11 98  1  0  0  0
 12 13  2  0  0  0
 12 99  1  0  0  0
 13 14  1  0  0  0
 13 31  1  0  0  0
 14 15  2  0  0  0
 14100  1  0  0  0
 15101  1  0  0  0
 16 17  2  0  0  0
 16 21  1  0  0  0
 16 31  1  0  0  0
 17 18  1  0  0  0
 17102  1  0  0  0
 18 19  2  0  0  0
 18103  1  0  0  0
 19 20  1  0  0  0
 19 24  1  0  0  0
 20 21  2  0  0  0
 20104  1  0  0  0
 21 23  1  0  0  0
 22 28  1  0  0  0
 22 32  2  0  0  0
 26 27  1  0  0  0
 28105  1  0  0  0
 28106  1  0  0  0
 29107  1  0  0  0
 29108  1  0  0  0
 33 34  1  0  0  0
 33 66  1  0  0  0
 33 70  2  0  0  0
 34 36  1  0  0  0
 34 59  1  0  0  0
 34109  1  0  0  0
 35 44  2  0  0  0
 35 45  1  0  0  0
 35 68  1  0  0  0
 36 56  1  0  0  0
 36110  1  0  0  0
 37 39  1  0  0  0
 37 47  1  0  0  0
 37 66  1  0  0  0
 37111  1  0  0  0
 38 43  2  0  0  0
 38 46  1  0  0  0
 38 47  1  0  0  0
 39 64  1  0  0  0
 39 67  2  0  0  0
 40 52  1  0  0  0
 40 53  2  0  0  0
 40 58  1  0  0  0
 41112  1  0  0  0
 41113  1  0  0  0
 41114  1  0  0  0
 41 48  1  0  0  0
 42 43  1  0  0  0
 42 66  1  0  0  0
 42115  1  0  0  0
 42116  1  0  0  0
 43 44  1  0  0  0
 44117  1  0  0  0
 45 46  2  0  0  0
 45118  1  0  0  0
 46119  1  0  0  0
 47120  1  0  0  0
 47121  1  0  0  0
 48 56  1  0  0  0
 48 65  1  0  0  0
 48122  1  0  0  0
 49 50  1  0  0  0
 49 53  1  0  0  0
 49 64  1  0  0  0
 49123  1  0  0  0
 50 51  1  0  0  0
 50124  1  0  0  0
 50125  1  0  0  0
 51 52  1  0  0  0
 51126  1  0  0  0
 51127  1  0  0  0
 52128  1  0  0  0
 52129  1  0  0  0
 53 54  1  0  0  0
 54 55  2  0  0  0
 54130  1  0  0  0
 55 57  1  0  0  0
 55131  1  0  0  0
 56 69  2  0  0  0
 57 58  2  0  0  0
 57132  1  0  0  0
 58133  1  0  0  0
 59 60  1  0  0  0
 59 61  1  0  0  0
 59 62  1  0  0  0
 60134  1  0  0  0
 60135  1  0  0  0
 60136  1  0  0  0
 61137  1  0  0  0
 61138  1  0  0  0
 61139  1  0  0  0
 62140  1  0  0  0
 62141  1  0  0  0
 62142  1  0  0  0
 63 65  1  0  0  0
 63143  1  0  0  0
 63144  1  0  0  0
 63145  1  0  0  0
 64146  1  0  0  0
 65147  1  0  0  0
 68 81  1  0  0  0
 71 73  2  0  0  0
 71 74  1  0  0  0
 71148  1  0  0  0
 72 75  1  0  0  0
 72 76  2  0  0  0
 72149  1  0  0  0
 73 76  1  0  0  0
 73 84  1  0  0  0
 74 75  2  0  0  0
 74 85  1  0  0  0
 75 86  1  0  0  0
 76 88  1  0  0  0
 77 78  1  0  0  0
 77 79  1  0  0  0
 77 81  2  0  0  0
 78 80  2  0  0  0
 78 82  1  0  0  0
 79 84  1  0  0  0
 79 87  2  0  0  0
 80150  1  0  0  0
 80151  1  0  0  0
 81 83  1  0  0  0
 82 84  1  0  0  0
 82152  1  0  0  0
 82153  1  0  0  0
 83154  1  0  0  0
 83155  1  0  0  0
 83156  1  0  0  0
 85157  1  0  0  0
 85158  1  0  0  0
 86159  1  0  0  0
M  ISO  4   1 100  68 101  81 101  86 100
M  END
> <chiral flag>
0

> <version>
0

> <s_m_source_file>
/data/baiqing/PycharmProjects/Reinvent-master-3.2/result/LINK_invent/BTK/process_docking_weight1_custom_product_contain_oxygen_bond_distance_aromatic_linkinvent_7_9_3/rearranged_h_0077.sdf

> <i_m_source_file_index>
4

> <r_mmod_Potential_Energy-OPLS-2005>
170.391647338867

> <r_mmod_Stretch_Energy-OPLS-2005>
102.083152770996

> <r_mmod_Bend_Energy-OPLS-2005>
199.950424194336

> <r_mmod_Torsional_Energy-OPLS-2005>
299.793731689453

> <r_mmod_Improper_Torsional_Energy-OPLS-2005>
11.8767652511597

> <r_mmod_Van_der_Waal_Energy-OPLS-2005>
142.796005249023

> <r_mmod_Electrostatic_Energy-OPLS-2005>
-454.732604980469

> <r_mmod_Solvation_Energy-OPLS-2005>
-200.984619140625

> <b_mmod_Minimization_Converged-OPLS-2005>
0

> <r_mmod_RMS_Derivative-OPLS-2005>
0.793847024440765

$$$$
4
                    3D
 Structure written by MMmdl.
155163  0  0  1  0            999 V2000
  -30.6218  -14.7915   20.4267 C   0  0  0  0  0  0
  -30.4193  -12.4802   19.4774 C   0  0  0  0  0  0
  -29.4993  -12.4981   18.2378 C   0  0  0  0  0  0
  -28.0286  -12.3161   18.6533 C   0  0  0  0  0  0
  -27.6284  -13.2376   19.8369 C   0  0  2  0  0  0
  -28.6752  -13.2235   20.9729 C   0  0  0  0  0  0
  -25.2460  -13.8221   20.5707 C   0  0  0  0  0  0
  -24.1754  -13.0458   20.9216 C   0  0  0  0  0  0
  -24.6347  -11.6938   20.8774 C   0  0  0  0  0  0
  -23.9034  -10.4303   21.0401 C   0  0  0  0  0  0
  -24.3597   -9.4221   21.9169 C   0  0  0  0  0  0
  -23.6281   -8.2249   22.0745 C   0  0  0  0  0  0
  -22.4262   -8.0283   21.3541 C   0  0  0  0  0  0
  -21.9890   -9.0243   20.4638 C   0  0  0  0  0  0
  -22.7206  -10.2131   20.3047 C   0  0  0  0  0  0
  -21.6855   -6.0734   22.5267 C   0  0  0  0  0  0
  -21.4010   -6.5634   23.8199 C   0  0  0  0  0  0
  -21.3659   -5.6787   24.9158 C   0  0  0  0  0  0
  -21.6049   -4.3049   24.7213 C   0  0  0  0  0  0
  -21.8823   -3.8142   23.4335 C   0  0  0  0  0  0
  -21.9188   -4.6962   22.3390 C   0  0  0  0  0  0
  -22.7774  -13.5230   21.1884 C   0  0  0  0  0  0
  -22.1661   -4.2147   21.0977 F   0  0  0  0  0  0
  -21.5629   -3.4536   25.7730 F   0  0  0  0  0  0
  -29.9687  -13.5752   20.3743 N   0  0  0  0  0  0
  -26.2861  -12.9416   20.3240 N   0  0  0  0  0  0
  -25.9273  -11.6561   20.5745 N   0  0  0  0  0  0
  -22.0430  -12.8214   22.0448 N   0  0  0  0  0  0
  -25.4161  -15.1953   20.4138 N   0  0  0  0  0  0
  -31.8245  -14.8065   20.1491 O   0  0  0  0  0  0
  -21.6641   -6.8880   21.4232 O   0  0  0  0  0  0
  -22.3453  -14.5538   20.6736 O   0  0  0  0  0  0
  -24.6373  -31.8489   23.1910 C   0  0  0  0  0  0
  -25.9170  -32.4713   23.8272 C   0  0  1  0  0  0
  -27.2208  -27.2211   20.1175 C   0  0  0  0  0  0
  -25.5954  -33.8516   24.2198 N   0  0  0  0  0  0
  -23.4354  -30.4706   21.5354 C   0  0  2  0  0  0
  -24.8826  -28.9116   20.1037 C   0  0  0  0  0  0
  -22.7538  -29.4576   22.4877 C   0  0  0  0  0  0
  -18.0299  -28.1400   22.8432 C   0  0  0  0  0  0
  -24.1510  -36.7263   23.2635 C   0  0  0  0  0  0
  -25.9869  -30.7549   21.3727 C   0  0  0  0  0  0
  -26.0595  -29.3738   20.7079 C   0  0  0  0  0  0
  -27.2304  -28.5426   20.6968 C   0  0  0  0  0  0
  -26.0185  -26.8371   19.4851 C   0  0  0  0  0  0
  -24.8712  -27.6560   19.4804 C   0  0  0  0  0  0
  -23.6532  -29.7990   20.1528 C   0  0  0  0  0  0
  -25.4125  -36.3024   24.0309 C   0  0  1  0  0  0
  -20.5908  -28.3692   23.1239 C   0  0  2  0  0  0
  -20.6786  -26.9409   22.5377 C   0  0  0  0  0  0
  -19.5768  -26.6365   21.5182 C   0  0  0  0  0  0
  -18.1939  -26.7930   22.1589 C   0  0  0  0  0  0
  -19.1554  -28.8854   23.2841 C   0  0  0  0  0  0
  -18.9472  -30.1454   23.8850 C   0  0  0  0  0  0
  -17.6467  -30.6573   24.0546 C   0  0  0  0  0  0
  -25.9060  -34.9400   23.5043 C   0  0  0  0  0  0
  -16.5355  -29.9060   23.6338 C   0  0  0  0  0  0
  -16.7282  -28.6509   23.0303 C   0  0  0  0  0  0
  -26.4532  -31.6564   25.0673 C   0  0  0  0  0  0
  -25.3717  -31.3723   26.1349 C   0  0  0  0  0  0
  -27.0373  -30.2963   24.6222 C   0  0  0  0  0  0
  -27.6070  -32.4307   25.7455 C   0  0  0  0  0  0
  -27.5576  -37.1778   24.8457 C   0  0  0  0  0  0
  -21.4237  -29.3045   22.3637 N   0  0  0  0  0  0
  -26.4290  -37.3735   23.9404 N   0  0  0  0  0  0
  -24.7070  -31.0428   22.0890 N   0  0  0  0  0  0
  -23.4228  -28.8117   23.2985 O   0  0  0  0  0  0
  -28.3141  -26.3096   20.1859 O   0  0  0  0  0  0
  -26.5654  -34.8889   22.4621 O   0  0  0  0  0  0
  -23.5512  -32.1309   23.7182 O   0  0  0  0  0  0
  -31.6828  -17.7322   20.6638 C   0  0  0  0  0  0
  -32.1765  -19.0415   20.5802 C   0  0  0  0  0  0
  -29.4464  -18.6142   20.3419 C   0  0  0  0  0  0
  -29.9192  -20.0108   20.2917 C   0  0  0  0  0  0
  -30.3132  -17.4320   20.5042 C   0  0  0  0  0  0
  -31.3438  -20.1516   20.3538 C   0  0  0  0  0  0
  -28.9973  -21.2953   20.1283 C   0  0  0  0  0  0
  -29.2769  -23.8808   20.5925 C   0  0  0  0  0  0
  -28.3375  -24.6753   18.3478 C   0  0  0  0  0  0
  -28.1757  -24.8144   19.8760 C   0  0  2  0  0  0
  -32.0266  -21.3610   20.1778 N   0  0  0  0  0  0
  -29.8865  -15.9860   20.5430 N   0  0  0  0  0  0
  -29.5029  -22.5002   20.5859 N   0  0  0  0  0  0
  -27.8719  -21.1932   19.6287 O   0  0  0  0  0  0
  -30.1089  -24.5191   21.2424 O   0  0  0  0  0  0
  -31.4592  -12.5963   19.1679 H   0  0  0  0  0  0
  -30.3646  -11.5195   19.9912 H   0  0  0  0  0  0
  -29.7931  -11.7163   17.5368 H   0  0  0  0  0  0
  -29.6113  -13.4438   17.7063 H   0  0  0  0  0  0
  -27.8930  -11.2703   18.9339 H   0  0  0  0  0  0
  -27.3701  -12.4875   17.8022 H   0  0  0  0  0  0
  -27.6055  -14.2462   19.4260 H   0  0  0  0  0  0
  -28.7218  -12.2437   21.4488 H   0  0  0  0  0  0
  -28.4001  -13.9378   21.7527 H   0  0  0  0  0  0
  -25.2737   -9.5711   22.4724 H   0  0  0  0  0  0
  -24.0000   -7.4649   22.7447 H   0  0  0  0  0  0
  -21.0830   -8.8744   19.8926 H   0  0  0  0  0  0
  -22.3649  -10.9666   19.6157 H   0  0  0  0  0  0
  -21.2005   -7.6144   23.9706 H   0  0  0  0  0  0
  -21.1476   -6.0517   25.9069 H   0  0  0  0  0  0
  -22.0607   -2.7603   23.2829 H   0  0  0  0  0  0
  -22.4078  -11.9881   22.4819 H   0  0  0  0  0  0
  -21.1049  -13.1198   22.2671 H   0  0  0  0  0  0
  -24.6473  -15.8494   20.5185 H   0  0  0  0  0  0
  -26.2601  -15.6328   20.0679 H   0  0  0  0  0  0
  -26.7225  -32.5328   23.1001 H   0  0  0  0  0  0
  -25.0078  -33.9663   25.0332 H   0  0  0  0  0  0
  -22.7327  -31.2928   21.3803 H   0  0  0  0  0  0
  -23.3759  -35.9613   23.3280 H   0  0  0  0  0  0
  -24.3599  -36.8913   22.2053 H   0  0  0  0  0  0
  -23.7288  -37.6465   23.6680 H   0  0  0  0  0  0
  -26.1340  -31.5235   20.6130 H   0  0  0  0  0  0
  -26.8619  -30.7999   22.0092 H   0  0  0  0  0  0
  -28.1349  -28.8926   21.1735 H   0  0  0  0  0  0
  -25.9323  -25.8772   19.0004 H   0  0  0  0  0  0
  -23.9701  -27.2955   19.0032 H   0  0  0  0  0  0
  -23.7737  -30.5715   19.3925 H   0  0  0  0  0  0
  -22.7750  -29.2268   19.8451 H   0  0  0  0  0  0
  -25.1338  -36.1826   25.0809 H   0  0  0  0  0  0
  -20.9996  -28.3246   24.1370 H   0  0  0  0  0  0
  -20.5657  -26.2309   23.3590 H   0  0  0  0  0  0
  -21.6650  -26.7410   22.1189 H   0  0  0  0  0  0
  -19.6946  -25.6273   21.1222 H   0  0  0  0  0  0
  -19.6720  -27.3154   20.6700 H   0  0  0  0  0  0
  -17.4219  -26.6627   21.3998 H   0  0  0  0  0  0
  -18.0371  -26.0112   22.9022 H   0  0  0  0  0  0
  -19.7945  -30.7275   24.2222 H   0  0  0  0  0  0
  -17.5006  -31.6251   24.5144 H   0  0  0  0  0  0
  -15.5354  -30.2926   23.7705 H   0  0  0  0  0  0
  -15.8689  -28.0813   22.7025 H   0  0  0  0  0  0
  -24.5935  -30.7070   25.7626 H   0  0  0  0  0  0
  -24.8862  -32.2884   26.4706 H   0  0  0  0  0  0
  -25.7959  -30.8907   27.0162 H   0  0  0  0  0  0
  -26.2964  -29.6683   24.1262 H   0  0  0  0  0  0
  -27.4053  -29.7280   25.4779 H   0  0  0  0  0  0
  -27.8850  -30.4224   23.9478 H   0  0  0  0  0  0
  -27.2708  -33.3642   26.1985 H   0  0  0  0  0  0
  -28.3904  -32.6813   25.0287 H   0  0  0  0  0  0
  -28.0725  -31.8454   26.5406 H   0  0  0  0  0  0
  -28.2569  -38.0098   24.7497 H   0  0  0  0  0  0
  -28.1109  -36.2614   24.6297 H   0  0  0  0  0  0
  -27.2286  -37.1419   25.8865 H   0  0  0  0  0  0
  -20.9430  -29.8788   21.6841 H   0  0  0  0  0  0
  -26.0149  -38.2814   24.1383 H   0  0  0  0  0  0
  -32.4138  -16.9619   20.8433 H   0  0  0  0  0  0
  -33.2447  -19.1835   20.6788 H   0  0  0  0  0  0
  -28.3834  -18.4509   20.2418 H   0  0  0  0  0  0
  -29.3893  -24.6218   18.0565 H   0  0  0  0  0  0
  -27.9145  -25.5312   17.8210 H   0  0  0  0  0  0
  -27.8510  -23.7696   17.9796 H   0  0  0  0  0  0
  -27.1996  -24.4547   20.2003 H   0  0  0  0  0  0
  -31.6495  -22.0010   19.4843 H   0  0  0  0  0  0
  -33.0248  -21.2646   20.0146 H   0  0  0  0  0  0
  -28.8930  -15.8359   20.6111 H   0  0  0  0  0  0
  -30.3998  -22.2962   21.0129 H   0  0  0  0  0  0
  1 25  1  0  0  0
  1 30  2  0  0  0
  1 82  1  0  0  0
  2  3  1  0  0  0
  2 25  1  0  0  0
  2 86  1  0  0  0
  2 87  1  0  0  0
  3  4  1  0  0  0
  3 88  1  0  0  0
  3 89  1  0  0  0
  4  5  1  0  0  0
  4 90  1  0  0  0
  4 91  1  0  0  0
  5  6  1  0  0  0
  5 26  1  0  0  0
  5 92  1  0  0  0
  6 25  1  0  0  0
  6 93  1  0  0  0
  6 94  1  0  0  0
  7  8  2  0  0  0
  7 26  1  0  0  0
  7 29  1  0  0  0
  8  9  1  0  0  0
  8 22  1  0  0  0
  9 10  1  0  0  0
  9 27  2  0  0  0
 10 11  2  0  0  0
 10 15  1  0  0  0
 11 12  1  0  0  0
 11 95  1  0  0  0
 12 13  2  0  0  0
 12 96  1  0  0  0
 13 14  1  0  0  0
 13 31  1  0  0  0
 14 15  2  0  0  0
 14 97  1  0  0  0
 15 98  1  0  0  0
 16 17  2  0  0  0
 16 21  1  0  0  0
 16 31  1  0  0  0
 17 18  1  0  0  0
 17 99  1  0  0  0
 18 19  2  0  0  0
 18100  1  0  0  0
 19 20  1  0  0  0
 19 24  1  0  0  0
 20 21  2  0  0  0
 20101  1  0  0  0
 21 23  1  0  0  0
 22 28  1  0  0  0
 22 32  2  0  0  0
 26 27  1  0  0  0
 28102  1  0  0  0
 28103  1  0  0  0
 29104  1  0  0  0
 29105  1  0  0  0
 33 34  1  0  0  0
 33 66  1  0  0  0
 33 70  2  0  0  0
 34 36  1  0  0  0
 34 59  1  0  0  0
 34106  1  0  0  0
 35 44  2  0  0  0
 35 45  1  0  0  0
 35 68  1  0  0  0
 36 56  1  0  0  0
 36107  1  0  0  0
 37 39  1  0  0  0
 37 47  1  0  0  0
 37 66  1  0  0  0
 37108  1  0  0  0
 38 43  2  0  0  0
 38 46  1  0  0  0
 38 47  1  0  0  0
 39 64  1  0  0  0
 39 67  2  0  0  0
 40 52  1  0  0  0
 40 53  2  0  0  0
 40 58  1  0  0  0
 41109  1  0  0  0
 41110  1  0  0  0
 41111  1  0  0  0
 41 48  1  0  0  0
 42 43  1  0  0  0
 42 66  1  0  0  0
 42112  1  0  0  0
 42113  1  0  0  0
 43 44  1  0  0  0
 44114  1  0  0  0
 45 46  2  0  0  0
 45115  1  0  0  0
 46116  1  0  0  0
 47117  1  0  0  0
 47118  1  0  0  0
 48 56  1  0  0  0
 48 65  1  0  0  0
 48119  1  0  0  0
 49 50  1  0  0  0
 49 53  1  0  0  0
 49 64  1  0  0  0
 49120  1  0  0  0
 50 51  1  0  0  0
 50121  1  0  0  0
 50122  1  0  0  0
 51 52  1  0  0  0
 51123  1  0  0  0
 51124  1  0  0  0
 52125  1  0  0  0
 52126  1  0  0  0
 53 54  1  0  0  0
 54 55  2  0  0  0
 54127  1  0  0  0
 55 57  1  0  0  0
 55128  1  0  0  0
 56 69  2  0  0  0
 57 58  2  0  0  0
 57129  1  0  0  0
 58130  1  0  0  0
 59 60  1  0  0  0
 59 61  1  0  0  0
 59 62  1  0  0  0
 60131  1  0  0  0
 60132  1  0  0  0
 60133  1  0  0  0
 61134  1  0  0  0
 61135  1  0  0  0
 61136  1  0  0  0
 62137  1  0  0  0
 62138  1  0  0  0
 62139  1  0  0  0
 63 65  1  0  0  0
 63140  1  0  0  0
 63141  1  0  0  0
 63142  1  0  0  0
 64143  1  0  0  0
 65144  1  0  0  0
 68 80  1  0  0  0
 71 72  2  0  0  0
 71 75  1  0  0  0
 71145  1  0  0  0
 72 76  1  0  0  0
 72146  1  0  0  0
 73 74  1  0  0  0
 73 75  2  0  0  0
 73147  1  0  0  0
 74 76  2  0  0  0
 74 77  1  0  0  0
 75 82  1  0  0  0
 76 81  1  0  0  0
 77 83  1  0  0  0
 77 84  2  0  0  0
 78 80  1  0  0  0
 78 83  1  0  0  0
 78 85  2  0  0  0
 79148  1  0  0  0
 79149  1  0  0  0
 79150  1  0  0  0
 79 80  1  0  0  0
 80151  1  0  0  0
 81152  1  0  0  0
 81153  1  0  0  0
 82154  1  0  0  0
 83155  1  0  0  0
M  ISO  4   1 100  68 101  80 101  82 100
M  END
> <chiral flag>
0

> <version>
0

> <s_m_source_file>
/data/baiqing/PycharmProjects/Reinvent-master-3.2/result/LINK_invent/BTK/process_docking_weight1_custom_product_contain_oxygen_bond_distance_aromatic_linkinvent_7_9_3/rearranged_h_0077.sdf

> <i_m_source_file_index>
5

> <r_mmod_Potential_Energy-OPLS-2005>
168.781005859375

> <r_mmod_Stretch_Energy-OPLS-2005>
161.823989868164

> <r_mmod_Bend_Energy-OPLS-2005>
241.24186706543

> <r_mmod_Torsional_Energy-OPLS-2005>
238.315658569336

> <r_mmod_Improper_Torsional_Energy-OPLS-2005>
11.1236486434937

> <r_mmod_Van_der_Waal_Energy-OPLS-2005>
152.860733032227

> <r_mmod_Electrostatic_Energy-OPLS-2005>
-497.103576660156

> <r_mmod_Solvation_Energy-OPLS-2005>
-249.257720947266

> <b_mmod_Minimization_Converged-OPLS-2005>
0

> <r_mmod_RMS_Derivative-OPLS-2005>
4.09120464324951

$$$$
5
                    3D
 Structure written by MMmdl.
160168  0  0  1  0            999 V2000
  -30.7242  -14.4811   20.5734 C   0  0  0  0  0  0
  -30.4183  -12.3143   19.4288 C   0  0  0  0  0  0
  -29.4930  -12.5015   18.2094 C   0  0  0  0  0  0
  -28.0171  -12.3560   18.6253 C   0  0  0  0  0  0
  -27.6602  -13.2100   19.8713 C   0  0  2  0  0  0
  -28.7032  -13.0191   20.9971 C   0  0  0  0  0  0
  -25.2588  -13.8174   20.5680 C   0  0  0  0  0  0
  -24.1843  -13.0444   20.9183 C   0  0  0  0  0  0
  -24.6402  -11.6914   20.8745 C   0  0  0  0  0  0
  -23.9066  -10.4296   21.0413 C   0  0  0  0  0  0
  -24.3617   -9.4210   21.9191 C   0  0  0  0  0  0
  -23.6289   -8.2246   22.0761 C   0  0  0  0  0  0
  -22.4276   -8.0283   21.3548 C   0  0  0  0  0  0
  -21.9912   -9.0260   20.4652 C   0  0  0  0  0  0
  -22.7242  -10.2138   20.3060 C   0  0  0  0  0  0
  -21.6849   -6.0740   22.5280 C   0  0  0  0  0  0
  -21.4012   -6.5641   23.8216 C   0  0  0  0  0  0
  -21.3659   -5.6791   24.9179 C   0  0  0  0  0  0
  -21.6045   -4.3054   24.7228 C   0  0  0  0  0  0
  -21.8819   -3.8150   23.4347 C   0  0  0  0  0  0
  -21.9191   -4.6968   22.3403 C   0  0  0  0  0  0
  -22.7861  -13.5244   21.1839 C   0  0  0  0  0  0
  -22.1660   -4.2148   21.0983 F   0  0  0  0  0  0
  -21.5629   -3.4540   25.7742 F   0  0  0  0  0  0
  -30.0328  -13.3144   20.4389 N   0  0  0  0  0  0
  -26.3023  -12.9347   20.3361 N   0  0  0  0  0  0
  -25.9328  -11.6507   20.5774 N   0  0  0  0  0  0
  -22.0490  -12.8239   22.0393 N   0  0  0  0  0  0
  -25.4308  -15.1892   20.4081 N   0  0  0  0  0  0
  -31.8549  -14.6269   20.1001 O   0  0  0  0  0  0
  -21.6640   -6.8883   21.4244 O   0  0  0  0  0  0
  -22.3552  -14.5553   20.6694 O   0  0  0  0  0  0
  -24.6162  -31.8659   23.2101 C   0  0  0  0  0  0
  -25.9051  -32.4811   23.8389 C   0  0  1  0  0  0
  -27.2302  -27.4213   20.1078 C   0  0  0  0  0  0
  -25.5911  -33.8607   24.2329 N   0  0  0  0  0  0
  -23.4057  -30.4889   21.5511 C   0  0  2  0  0  0
  -24.8540  -28.9605   20.1083 C   0  0  0  0  0  0
  -22.7429  -29.4627   22.4985 C   0  0  0  0  0  0
  -18.0268  -28.1373   22.8483 C   0  0  0  0  0  0
  -24.1492  -36.7319   23.2634 C   0  0  0  0  0  0
  -25.9339  -30.8310   21.3628 C   0  0  0  0  0  0
  -26.0148  -29.4651   20.7095 C   0  0  0  0  0  0
  -27.2088  -28.7033   20.7070 C   0  0  0  0  0  0
  -26.0599  -26.9488   19.4743 C   0  0  0  0  0  0
  -24.8722  -27.7022   19.4833 C   0  0  0  0  0  0
  -23.6141  -29.8245   20.1641 C   0  0  0  0  0  0
  -25.4108  -36.3106   24.0335 C   0  0  1  0  0  0
  -20.5858  -28.3654   23.1310 C   0  0  2  0  0  0
  -20.6755  -26.9386   22.5414 C   0  0  0  0  0  0
  -19.5735  -26.6372   21.5207 C   0  0  0  0  0  0
  -18.1913  -26.7913   22.1616 C   0  0  0  0  0  0
  -19.1518  -28.8829   23.2891 C   0  0  0  0  0  0
  -18.9448  -30.1439   23.8899 C   0  0  0  0  0  0
  -17.6452  -30.6584   24.0548 C   0  0  0  0  0  0
  -25.9032  -34.9468   23.5124 C   0  0  0  0  0  0
  -16.5341  -29.9083   23.6321 C   0  0  0  0  0  0
  -16.7255  -28.6499   23.0337 C   0  0  0  0  0  0
  -26.4473  -31.6585   25.0714 C   0  0  0  0  0  0
  -25.3746  -31.3664   26.1468 C   0  0  0  0  0  0
  -27.0299  -30.3041   24.6058 C   0  0  0  0  0  0
  -27.6062  -32.4284   25.7486 C   0  0  0  0  0  0
  -27.5587  -37.1813   24.8463 C   0  0  0  0  0  0
  -21.4154  -29.3025   22.3732 N   0  0  0  0  0  0
  -26.4299  -37.3794   23.9410 N   0  0  0  0  0  0
  -24.6707  -31.0750   22.1010 N   0  0  0  0  0  0
  -23.4199  -28.8143   23.3005 O   0  0  0  0  0  0
  -28.3468  -26.6102   20.1708 O   0  0  0  0  0  0
  -26.5593  -34.8919   22.4684 O   0  0  0  0  0  0
  -23.5358  -32.1402   23.7508 O   0  0  0  0  0  0
  -32.2323  -18.5534   21.6390 C   0  0  0  0  0  0
  -31.3228  -19.5964   21.3819 C   0  0  0  0  0  0
  -31.8178  -17.2105   21.5640 C   0  0  0  0  0  0
  -29.5669  -17.9464   21.0014 C   0  0  0  0  0  0
  -29.9715  -19.3109   21.0710 C   0  0  0  0  0  0
  -30.4854  -16.8847   21.2176 C   0  0  0  0  0  0
  -28.9747  -20.4258   20.8119 C   0  0  0  0  0  0
  -30.4514  -24.4987   21.3931 C   0  0  0  0  0  0
  -27.8829  -22.9032   22.6384 C   0  0  0  0  0  0
  -28.1038  -25.4110   20.9434 C   0  0  0  0  0  0
  -29.0851  -24.2168   20.7384 C   0  0  2  0  0  0
  -28.4450  -22.8567   21.2019 C   0  0  1  0  0  0
  -30.0473  -15.5204   21.1143 N   0  0  0  0  0  0
  -29.3480  -21.6915   21.1030 N   0  0  0  0  0  0
  -27.8418  -20.1554   20.4068 O   0  0  0  0  0  0
  -31.4629  -12.4007   19.1246 H   0  0  0  0  0  0
  -30.3126  -11.3082   19.8388 H   0  0  0  0  0  0
  -29.7361  -11.7718   17.4360 H   0  0  0  0  0  0
  -29.6568  -13.4846   17.7646 H   0  0  0  0  0  0
  -27.8389  -11.3011   18.8378 H   0  0  0  0  0  0
  -27.3620  -12.6110   17.7915 H   0  0  0  0  0  0
  -27.6976  -14.2533   19.5563 H   0  0  0  0  0  0
  -28.6813  -11.9924   21.3662 H   0  0  0  0  0  0
  -28.4645  -13.6438   21.8586 H   0  0  0  0  0  0
  -25.2763   -9.5680   22.4769 H   0  0  0  0  0  0
  -23.9995   -7.4638   22.7483 H   0  0  0  0  0  0
  -21.0847   -8.8789   19.8955 H   0  0  0  0  0  0
  -22.3712  -10.9682   19.6170 H   0  0  0  0  0  0
  -21.2004   -7.6151   23.9719 H   0  0  0  0  0  0
  -21.1480   -6.0526   25.9082 H   0  0  0  0  0  0
  -22.0597   -2.7610   23.2854 H   0  0  0  0  0  0
  -22.4089  -11.9895   22.4779 H   0  0  0  0  0  0
  -21.1116  -13.1289   22.2595 H   0  0  0  0  0  0
  -24.6633  -15.8443   20.5121 H   0  0  0  0  0  0
  -26.2817  -15.6272   20.0781 H   0  0  0  0  0  0
  -26.7123  -32.5529   23.1157 H   0  0  0  0  0  0
  -25.0093  -33.9746   25.0495 H   0  0  0  0  0  0
  -22.6951  -31.3066   21.4131 H   0  0  0  0  0  0
  -23.3748  -35.9660   23.3298 H   0  0  0  0  0  0
  -24.3593  -36.8931   22.2050 H   0  0  0  0  0  0
  -23.7248  -37.6524   23.6648 H   0  0  0  0  0  0
  -26.0373  -31.5944   20.5908 H   0  0  0  0  0  0
  -26.8240  -30.8912   21.9770 H   0  0  0  0  0  0
  -28.0996  -29.0771   21.1924 H   0  0  0  0  0  0
  -26.0578  -25.9824   18.9895 H   0  0  0  0  0  0
  -23.9834  -27.3114   19.0068 H   0  0  0  0  0  0
  -23.7175  -30.5992   19.4038 H   0  0  0  0  0  0
  -22.7388  -29.2419   19.8710 H   0  0  0  0  0  0
  -25.1282  -36.1973   25.0828 H   0  0  0  0  0  0
  -20.9934  -28.3220   24.1437 H   0  0  0  0  0  0
  -20.5657  -26.2260   23.3600 H   0  0  0  0  0  0
  -21.6624  -26.7430   22.1203 H   0  0  0  0  0  0
  -19.6897  -25.6285   21.1236 H   0  0  0  0  0  0
  -19.6680  -27.3183   20.6736 H   0  0  0  0  0  0
  -17.4176  -26.6653   21.4026 H   0  0  0  0  0  0
  -18.0315  -26.0061   22.9016 H   0  0  0  0  0  0
  -19.7931  -30.7235   24.2288 H   0  0  0  0  0  0
  -17.5014  -31.6270   24.5142 H   0  0  0  0  0  0
  -15.5342  -30.2979   23.7664 H   0  0  0  0  0  0
  -15.8652  -28.0833   22.7041 H   0  0  0  0  0  0
  -24.5943  -30.6972   25.7824 H   0  0  0  0  0  0
  -24.8892  -32.2788   26.4930 H   0  0  0  0  0  0
  -25.8116  -30.8847   27.0224 H   0  0  0  0  0  0
  -26.2826  -29.6803   24.1139 H   0  0  0  0  0  0
  -27.4119  -29.7268   25.4488 H   0  0  0  0  0  0
  -27.8637  -30.4375   23.9163 H   0  0  0  0  0  0
  -27.2701  -33.3585   26.2077 H   0  0  0  0  0  0
  -28.3876  -32.6826   25.0313 H   0  0  0  0  0  0
  -28.0712  -31.8373   26.5383 H   0  0  0  0  0  0
  -28.2599  -38.0120   24.7528 H   0  0  0  0  0  0
  -28.1082  -36.2647   24.6269 H   0  0  0  0  0  0
  -27.2293  -37.1441   25.8863 H   0  0  0  0  0  0
  -20.9321  -29.8794   21.6990 H   0  0  0  0  0  0
  -26.0185  -38.2870   24.1421 H   0  0  0  0  0  0
  -33.2576  -18.7844   21.8942 H   0  0  0  0  0  0
  -31.6820  -20.6139   21.4363 H   0  0  0  0  0  0
  -32.5418  -16.4352   21.7713 H   0  0  0  0  0  0
  -28.5394  -17.7122   20.7584 H   0  0  0  0  0  0
  -30.8510  -25.4572   21.0602 H   0  0  0  0  0  0
  -31.1866  -23.7373   21.1336 H   0  0  0  0  0  0
  -30.3802  -24.5359   22.4802 H   0  0  0  0  0  0
  -27.1052  -23.6577   22.7559 H   0  0  0  0  0  0
  -28.6621  -23.1114   23.3716 H   0  0  0  0  0  0
  -27.4254  -21.9510   22.9108 H   0  0  0  0  0  0
  -28.1046  -25.6986   21.9956 H   0  0  0  0  0  0
  -27.1008  -25.0278   20.7552 H   0  0  0  0  0  0
  -29.2531  -24.1306   19.6634 H   0  0  0  0  0  0
  -27.5978  -22.6787   20.5355 H   0  0  0  0  0  0
  -29.0826  -15.3319   21.3404 H   0  0  0  0  0  0
  -30.2971  -21.8220   21.4200 H   0  0  0  0  0  0
  1 25  1  0  0  0
  1 30  2  0  0  0
  1 83  1  0  0  0
  2  3  1  0  0  0
  2 25  1  0  0  0
  2 86  1  0  0  0
  2 87  1  0  0  0
  3  4  1  0  0  0
  3 88  1  0  0  0
  3 89  1  0  0  0
  4  5  1  0  0  0
  4 90  1  0  0  0
  4 91  1  0  0  0
  5  6  1  0  0  0
  5 26  1  0  0  0
  5 92  1  0  0  0
  6 25  1  0  0  0
  6 93  1  0  0  0
  6 94  1  0  0  0
  7  8  2  0  0  0
  7 26  1  0  0  0
  7 29  1  0  0  0
  8  9  1  0  0  0
  8 22  1  0  0  0
  9 10  1  0  0  0
  9 27  2  0  0  0
 10 11  2  0  0  0
 10 15  1  0  0  0
 11 12  1  0  0  0
 11 95  1  0  0  0
 12 13  2  0  0  0
 12 96  1  0  0  0
 13 14  1  0  0  0
 13 31  1  0  0  0
 14 15  2  0  0  0
 14 97  1  0  0  0
 15 98  1  0  0  0
 16 17  2  0  0  0
 16 21  1  0  0  0
 16 31  1  0  0  0
 17 18  1  0  0  0
 17 99  1  0  0  0
 18 19  2  0  0  0
 18100  1  0  0  0
 19 20  1  0  0  0
 19 24  1  0  0  0
 20 21  2  0  0  0
 20101  1  0  0  0
 21 23  1  0  0  0
 22 28  1  0  0  0
 22 32  2  0  0  0
 26 27  1  0  0  0
 28102  1  0  0  0
 28103  1  0  0  0
 29104  1  0  0  0
 29105  1  0  0  0
 33 34  1  0  0  0
 33 66  1  0  0  0
 33 70  2  0  0  0
 34 36  1  0  0  0
 34 59  1  0  0  0
 34106  1  0  0  0
 35 44  2  0  0  0
 35 45  1  0  0  0
 35 68  1  0  0  0
 36 56  1  0  0  0
 36107  1  0  0  0
 37 39  1  0  0  0
 37 47  1  0  0  0
 37 66  1  0  0  0
 37108  1  0  0  0
 38 43  2  0  0  0
 38 46  1  0  0  0
 38 47  1  0  0  0
 39 64  1  0  0  0
 39 67  2  0  0  0
 40 52  1  0  0  0
 40 53  2  0  0  0
 40 58  1  0  0  0
 41109  1  0  0  0
 41110  1  0  0  0
 41111  1  0  0  0
 41 48  1  0  0  0
 42 43  1  0  0  0
 42 66  1  0  0  0
 42112  1  0  0  0
 42113  1  0  0  0
 43 44  1  0  0  0
 44114  1  0  0  0
 45 46  2  0  0  0
 45115  1  0  0  0
 46116  1  0  0  0
 47117  1  0  0  0
 47118  1  0  0  0
 48 56  1  0  0  0
 48 65  1  0  0  0
 48119  1  0  0  0
 49 50  1  0  0  0
 49 53  1  0  0  0
 49 64  1  0  0  0
 49120  1  0  0  0
 50 51  1  0  0  0
 50121  1  0  0  0
 50122  1  0  0  0
 51 52  1  0  0  0
 51123  1  0  0  0
 51124  1  0  0  0
 52125  1  0  0  0
 52126  1  0  0  0
 53 54  1  0  0  0
 54 55  2  0  0  0
 54127  1  0  0  0
 55 57  1  0  0  0
 55128  1  0  0  0
 56 69  2  0  0  0
 57 58  2  0  0  0
 57129  1  0  0  0
 58130  1  0  0  0
 59 60  1  0  0  0
 59 61  1  0  0  0
 59 62  1  0  0  0
 60131  1  0  0  0
 60132  1  0  0  0
 60133  1  0  0  0
 61134  1  0  0  0
 61135  1  0  0  0
 61136  1  0  0  0
 62137  1  0  0  0
 62138  1  0  0  0
 62139  1  0  0  0
 63 65  1  0  0  0
 63140  1  0  0  0
 63141  1  0  0  0
 63142  1  0  0  0
 64143  1  0  0  0
 65144  1  0  0  0
 68 80  1  0  0  0
 71 72  2  0  0  0
 71 73  1  0  0  0
 71145  1  0  0  0
 72 75  1  0  0  0
 72146  1  0  0  0
 73 76  2  0  0  0
 73147  1  0  0  0
 74 75  2  0  0  0
 74 76  1  0  0  0
 74148  1  0  0  0
 75 77  1  0  0  0
 76 83  1  0  0  0
 77 84  1  0  0  0
 77 85  2  0  0  0
 78149  1  0  0  0
 78150  1  0  0  0
 78151  1  0  0  0
 78 81  1  0  0  0
 79152  1  0  0  0
 79153  1  0  0  0
 79154  1  0  0  0
 79 82  1  0  0  0
 80 81  1  0  0  0
 80155  1  0  0  0
 80156  1  0  0  0
 81 82  1  0  0  0
 81157  1  0  0  0
 82 84  1  0  0  0
 82158  1  0  0  0
 83159  1  0  0  0
 84160  1  0  0  0
M  ISO  4   1 100  68 101  80 101  83 100
M  END
> <chiral flag>
0

> <version>
0

> <s_m_source_file>
/data/baiqing/PycharmProjects/Reinvent-master-3.2/result/LINK_invent/BTK/process_docking_weight1_custom_product_contain_oxygen_bond_distance_aromatic_linkinvent_7_9_3/rearranged_h_0077.sdf

> <i_m_source_file_index>
6

> <r_mmod_Potential_Energy-OPLS-2005>
-69.72509765625

> <r_mmod_Stretch_Energy-OPLS-2005>
44.1248092651367

> <r_mmod_Bend_Energy-OPLS-2005>
98.3756713867188

> <r_mmod_Torsional_Energy-OPLS-2005>
255.80143737793

> <r_mmod_Improper_Torsional_Energy-OPLS-2005>
4.17487335205078

> <r_mmod_Van_der_Waal_Energy-OPLS-2005>
161.792114257812

> <r_mmod_Electrostatic_Energy-OPLS-2005>
-433.727355957031

> <r_mmod_Solvation_Energy-OPLS-2005>
-217.978973388672

> <b_mmod_Minimization_Converged-OPLS-2005>
0

> <r_mmod_RMS_Derivative-OPLS-2005>
1.39711892604828

$$$$
6
                    3D
 Structure written by MMmdl.
144151  0  0  1  0            999 V2000
  -30.2740  -15.7256   20.3215 C   0  0  0  0  0  0
  -30.4160  -13.1503   19.5395 C   0  0  0  0  0  0
  -29.5524  -12.6775   18.3326 C   0  0  0  0  0  0
  -28.1336  -12.3006   18.7816 C   0  0  0  0  0  0
  -27.5915  -13.3167   19.8105 C   0  0  2  0  0  0
  -28.6015  -13.6926   20.9226 C   0  0  0  0  0  0
  -25.2304  -13.8295   20.5810 C   0  0  0  0  0  0
  -24.1703  -13.0432   20.9296 C   0  0  0  0  0  0
  -24.6418  -11.6948   20.8766 C   0  0  0  0  0  0
  -23.9123  -10.4292   21.0395 C   0  0  0  0  0  0
  -24.3657   -9.4205   21.9178 C   0  0  0  0  0  0
  -23.6316   -8.2247   22.0753 C   0  0  0  0  0  0
  -22.4296   -8.0288   21.3544 C   0  0  0  0  0  0
  -21.9944   -9.0263   20.4642 C   0  0  0  0  0  0
  -22.7289  -10.2134   20.3048 C   0  0  0  0  0  0
  -21.6860   -6.0742   22.5279 C   0  0  0  0  0  0
  -21.4019   -6.5643   23.8213 C   0  0  0  0  0  0
  -21.3661   -5.6794   24.9174 C   0  0  0  0  0  0
  -21.6044   -4.3057   24.7223 C   0  0  0  0  0  0
  -21.8818   -3.8150   23.4344 C   0  0  0  0  0  0
  -21.9195   -4.6968   22.3401 C   0  0  0  0  0  0
  -22.7713  -13.5156   21.1927 C   0  0  0  0  0  0
  -22.1662   -4.2154   21.0978 F   0  0  0  0  0  0
  -21.5627   -3.4540   25.7735 F   0  0  0  0  0  0
  -29.7589  -14.3443   20.2579 N   0  0  0  0  0  0
  -26.2761  -12.9643   20.3246 N   0  0  0  0  0  0
  -25.9367  -11.6704   20.5697 N   0  0  0  0  0  0
  -22.0381  -12.8130   22.0478 N   0  0  0  0  0  0
  -25.3884  -15.2038   20.4254 N   0  0  0  0  0  0
  -31.5122  -15.6382   20.1869 O   0  0  0  0  0  0
  -21.6650   -6.8890   21.4243 O   0  0  0  0  0  0
  -22.3386  -14.5453   20.6761 O   0  0  0  0  0  0
  -24.6903  -31.7916   23.1459 C   0  0  0  0  0  0
  -25.9452  -32.4424   23.8030 C   0  0  1  0  0  0
  -27.2279  -26.6265   20.2259 C   0  0  0  0  0  0
  -25.6002  -33.8255   24.1908 N   0  0  0  0  0  0
  -23.5199  -30.3900   21.5014 C   0  0  2  0  0  0
  -24.9781  -28.7138   20.1226 C   0  0  0  0  0  0
  -22.7796  -29.4269   22.4693 C   0  0  0  0  0  0
  -18.0342  -28.1425   22.8451 C   0  0  0  0  0  0
  -24.1496  -36.7135   23.2654 C   0  0  0  0  0  0
  -26.1033  -30.4979   21.4240 C   0  0  0  0  0  0
  -26.1667  -29.0531   20.7793 C   0  0  0  0  0  0
  -27.2715  -28.0385   20.7991 C   0  0  0  0  0  0
  -26.0086  -26.5190   19.5046 C   0  0  0  0  0  0
  -24.9418  -27.4728   19.4622 C   0  0  0  0  0  0
  -23.7787  -29.6794   20.1403 C   0  0  0  0  0  0
  -25.4150  -36.2871   24.0276 C   0  0  1  0  0  0
  -20.5981  -28.3788   23.1129 C   0  0  2  0  0  0
  -20.6805  -26.9440   22.5405 C   0  0  0  0  0  0
  -19.5782  -26.6368   21.5217 C   0  0  0  0  0  0
  -18.1965  -26.7951   22.1618 C   0  0  0  0  0  0
  -19.1610  -28.8933   23.2769 C   0  0  0  0  0  0
  -18.9515  -30.1514   23.8817 C   0  0  0  0  0  0
  -17.6504  -30.6605   24.0549 C   0  0  0  0  0  0
  -25.9134  -34.9262   23.4934 C   0  0  0  0  0  0
  -16.5393  -29.9085   23.6352 C   0  0  0  0  0  0
  -16.7322  -28.6509   23.0368 C   0  0  0  0  0  0
  -26.4607  -31.6491   25.0684 C   0  0  0  0  0  0
  -25.3653  -31.3831   26.1284 C   0  0  0  0  0  0
  -27.0554  -30.2820   24.6643 C   0  0  0  0  0  0
  -27.6040  -32.4372   25.7507 C   0  0  0  0  0  0
  -27.5562  -37.1725   24.8466 C   0  0  0  0  0  0
  -21.4437  -29.3020   22.3441 N   0  0  0  0  0  0
  -26.4269  -37.3639   23.9406 N   0  0  0  0  0  0
  -24.7954  -30.9285   22.0757 N   0  0  0  0  0  0
  -23.4205  -28.7882   23.3072 O   0  0  0  0  0  0
  -28.1967  -25.3844   20.2607 O   0  0  0  0  0  0
  -26.5785  -34.8854   22.4559 O   0  0  0  0  0  0
  -23.5907  -32.1029   23.6364 O   0  0  0  0  0  0
  -28.0227  -23.7509   20.2694 C   0  0  0  0  0  0
  -28.8694  -22.4381   20.2797 C   0  0  0  0  0  0
  -28.6506  -20.5996   20.3142 C   0  0  0  0  0  0
  -30.5923  -19.1162   18.9878 C   0  0  0  0  0  0
  -29.7464  -18.9259   20.2546 C   0  0  2  0  0  0
  -29.5289  -17.1242   20.3362 N   0  0  0  0  0  0
  -27.4574  -20.2995   20.3883 O   0  0  0  0  0  0
  -30.1813  -22.7050   20.2652 O   0  0  0  0  0  0
  -31.4017  -13.4252   19.1627 H   0  0  0  0  0  0
  -30.6006  -12.3257   20.2303 H   0  0  0  0  0  0
  -30.0260  -11.8342   17.8281 H   0  0  0  0  0  0
  -29.4965  -13.4827   17.5986 H   0  0  0  0  0  0
  -28.1786  -11.3112   19.2384 H   0  0  0  0  0  0
  -27.4647  -12.2164   17.9242 H   0  0  0  0  0  0
  -27.4401  -14.2241   19.2240 H   0  0  0  0  0  0
  -28.8846  -12.8284   21.5256 H   0  0  0  0  0  0
  -28.1497  -14.4095   21.6099 H   0  0  0  0  0  0
  -25.2795   -9.5679   22.4764 H   0  0  0  0  0  0
  -24.0015   -7.4640   22.7479 H   0  0  0  0  0  0
  -21.0873   -8.8792   19.8949 H   0  0  0  0  0  0
  -22.3747  -10.9676   19.6160 H   0  0  0  0  0  0
  -21.2014   -7.6152   23.9718 H   0  0  0  0  0  0
  -21.1483   -6.0524   25.9077 H   0  0  0  0  0  0
  -22.0595   -2.7612   23.2842 H   0  0  0  0  0  0
  -22.4028  -11.9810   22.4875 H   0  0  0  0  0  0
  -21.0985  -13.1120   22.2674 H   0  0  0  0  0  0
  -24.6156  -15.8510   20.5388 H   0  0  0  0  0  0
  -26.2281  -15.6472   20.0776 H   0  0  0  0  0  0
  -26.7539  -32.4877   23.0744 H   0  0  0  0  0  0
  -25.0048  -33.9282   24.9994 H   0  0  0  0  0  0
  -22.8495  -31.2292   21.3047 H   0  0  0  0  0  0
  -23.3778  -35.9444   23.3262 H   0  0  0  0  0  0
  -24.3560  -36.8857   22.2079 H   0  0  0  0  0  0
  -23.7238  -37.6289   23.6773 H   0  0  0  0  0  0
  -26.3145  -31.2156   20.6301 H   0  0  0  0  0  0
  -26.9515  -30.5700   22.0920 H   0  0  0  0  0  0
  -28.1669  -28.3082   21.3409 H   0  0  0  0  0  0
  -25.8378  -25.5871   18.9845 H   0  0  0  0  0  0
  -24.0486  -27.2045   18.9148 H   0  0  0  0  0  0
  -23.9616  -30.4358   19.3763 H   0  0  0  0  0  0
  -22.8819  -29.1502   19.8137 H   0  0  0  0  0  0
  -25.1363  -36.1622   25.0765 H   0  0  0  0  0  0
  -21.0060  -28.3418   24.1257 H   0  0  0  0  0  0
  -20.5661  -26.2414   23.3673 H   0  0  0  0  0  0
  -21.6666  -26.7371   22.1227 H   0  0  0  0  0  0
  -19.6937  -25.6257   21.1299 H   0  0  0  0  0  0
  -19.6728  -27.3134   20.6713 H   0  0  0  0  0  0
  -17.4235  -26.6694   21.4021 H   0  0  0  0  0  0
  -18.0350  -26.0113   22.9032 H   0  0  0  0  0  0
  -19.7990  -30.7351   24.2152 H   0  0  0  0  0  0
  -17.5053  -31.6277   24.5167 H   0  0  0  0  0  0
  -15.5389  -30.2962   23.7722 H   0  0  0  0  0  0
  -15.8723  -28.0800   22.7129 H   0  0  0  0  0  0
  -24.5868  -30.7150   25.7581 H   0  0  0  0  0  0
  -24.8809  -32.3060   26.4484 H   0  0  0  0  0  0
  -25.7811  -30.9141   27.0210 H   0  0  0  0  0  0
  -26.3287  -29.6408   24.1645 H   0  0  0  0  0  0
  -27.3957  -29.7301   25.5415 H   0  0  0  0  0  0
  -27.9276  -30.3926   24.0200 H   0  0  0  0  0  0
  -27.2569  -33.3753   26.1851 H   0  0  0  0  0  0
  -28.3969  -32.6807   25.0422 H   0  0  0  0  0  0
  -28.0579  -31.8660   26.5615 H   0  0  0  0  0  0
  -28.2543  -38.0052   24.7513 H   0  0  0  0  0  0
  -28.1093  -36.2573   24.6298 H   0  0  0  0  0  0
  -27.2275  -37.1362   25.8867 H   0  0  0  0  0  0
  -20.9759  -29.8664   21.6485 H   0  0  0  0  0  0
  -26.0090  -38.2684   24.1420 H   0  0  0  0  0  0
  -26.9569  -23.5686   20.2786 H   0  0  0  0  0  0
  -30.9086  -20.1535   18.8706 H   0  0  0  0  0  0
  -30.0284  -18.8402   18.0966 H   0  0  0  0  0  0
  -31.4948  -18.5054   19.0176 H   0  0  0  0  0  0
  -30.4309  -19.0760   21.0901 H   0  0  0  0  0  0
  -28.5392  -16.9338   20.4101 H   0  0  0  0  0  0
  -30.2709  -23.6496   20.2502 H   0  0  0  0  0  0
  1 25  1  0  0  0
  1 30  2  0  0  0
  1 76  1  0  0  0
  2  3  1  0  0  0
  2 25  1  0  0  0
  2 79  1  0  0  0
  2 80  1  0  0  0
  3  4  1  0  0  0
  3 81  1  0  0  0
  3 82  1  0  0  0
  4  5  1  0  0  0
  4 83  1  0  0  0
  4 84  1  0  0  0
  5  6  1  0  0  0
  5 26  1  0  0  0
  5 85  1  0  0  0
  6 25  1  0  0  0
  6 86  1  0  0  0
  6 87  1  0  0  0
  7  8  2  0  0  0
  7 26  1  0  0  0
  7 29  1  0  0  0
  8  9  1  0  0  0
  8 22  1  0  0  0
  9 10  1  0  0  0
  9 27  2  0  0  0
 10 11  2  0  0  0
 10 15  1  0  0  0
 11 12  1  0  0  0
 11 88  1  0  0  0
 12 13  2  0  0  0
 12 89  1  0  0  0
 13 14  1  0  0  0
 13 31  1  0  0  0
 14 15  2  0  0  0
 14 90  1  0  0  0
 15 91  1  0  0  0
 16 17  2  0  0  0
 16 21  1  0  0  0
 16 31  1  0  0  0
 17 18  1  0  0  0
 17 92  1  0  0  0
 18 19  2  0  0  0
 18 93  1  0  0  0
 19 20  1  0  0  0
 19 24  1  0  0  0
 20 21  2  0  0  0
 20 94  1  0  0  0
 21 23  1  0  0  0
 22 28  1  0  0  0
 22 32  2  0  0  0
 26 27  1  0  0  0
 28 95  1  0  0  0
 28 96  1  0  0  0
 29 97  1  0  0  0
 29 98  1  0  0  0
 33 34  1  0  0  0
 33 66  1  0  0  0
 33 70  2  0  0  0
 34 36  1  0  0  0
 34 59  1  0  0  0
 34 99  1  0  0  0
 35 44  2  0  0  0
 35 45  1  0  0  0
 35 68  1  0  0  0
 36 56  1  0  0  0
 36100  1  0  0  0
 37 39  1  0  0  0
 37 47  1  0  0  0
 37 66  1  0  0  0
 37101  1  0  0  0
 38 43  2  0  0  0
 38 46  1  0  0  0
 38 47  1  0  0  0
 39 64  1  0  0  0
 39 67  2  0  0  0
 40 52  1  0  0  0
 40 53  2  0  0  0
 40 58  1  0  0  0
 41102  1  0  0  0
 41103  1  0  0  0
 41104  1  0  0  0
 41 48  1  0  0  0
 42 43  1  0  0  0
 42 66  1  0  0  0
 42105  1  0  0  0
 42106  1  0  0  0
 43 44  1  0  0  0
 44107  1  0  0  0
 45 46  2  0  0  0
 45108  1  0  0  0
 46109  1  0  0  0
 47110  1  0  0  0
 47111  1  0  0  0
 48 56  1  0  0  0
 48 65  1  0  0  0
 48112  1  0  0  0
 49 50  1  0  0  0
 49 53  1  0  0  0
 49 64  1  0  0  0
 49113  1  0  0  0
 50 51  1  0  0  0
 50114  1  0  0  0
 50115  1  0  0  0
 51 52  1  0  0  0
 51116  1  0  0  0
 51117  1  0  0  0
 52118  1  0  0  0
 52119  1  0  0  0
 53 54  1  0  0  0
 54 55  2  0  0  0
 54120  1  0  0  0
 55 57  1  0  0  0
 55121  1  0  0  0
 56 69  2  0  0  0
 57 58  2  0  0  0
 57122  1  0  0  0
 58123  1  0  0  0
 59 60  1  0  0  0
 59 61  1  0  0  0
 59 62  1  0  0  0
 60124  1  0  0  0
 60125  1  0  0  0
 60126  1  0  0  0
 61127  1  0  0  0
 61128  1  0  0  0
 61129  1  0  0  0
 62130  1  0  0  0
 62131  1  0  0  0
 62132  1  0  0  0
 63 65  1  0  0  0
 63133  1  0  0  0
 63134  1  0  0  0
 63135  1  0  0  0
 64136  1  0  0  0
 65137  1  0  0  0
 68 71  1  0  0  0
 71 72  2  0  0  0
 71138  1  0  0  0
 72 73  1  0  0  0
 72 78  1  0  0  0
 73 75  1  0  0  0
 73 77  2  0  0  0
 74139  1  0  0  0
 74140  1  0  0  0
 74141  1  0  0  0
 74 75  1  0  0  0
 75 76  1  0  0  0
 75142  1  0  0  0
 76143  1  0  0  0
 78144  1  0  0  0
M  ISO  4   1 100  68 101  71 101  76 100
M  END
> <chiral flag>
0

> <version>
0

> <s_m_source_file>
/data/baiqing/PycharmProjects/Reinvent-master-3.2/result/LINK_invent/BTK/process_docking_weight1_custom_product_contain_oxygen_bond_distance_aromatic_linkinvent_7_9_3/rearranged_h_0077.sdf

> <i_m_source_file_index>
7

> <r_mmod_Potential_Energy-OPLS-2005>
2656.58666992188

> <r_mmod_Stretch_Energy-OPLS-2005>
1265.03662109375

> <r_mmod_Bend_Energy-OPLS-2005>
618.972473144531

> <r_mmod_Torsional_Energy-OPLS-2005>
204.357070922852

> <r_mmod_Improper_Torsional_Energy-OPLS-2005>
4.09772920608521

> <r_mmod_Van_der_Waal_Energy-OPLS-2005>
106.538604736328

> <r_mmod_Electrostatic_Energy-OPLS-2005>
-365.005798339844

> <r_mmod_Solvation_Energy-OPLS-2005>
-224.199966430664

> <b_mmod_Minimization_Converged-OPLS-2005>
0

> <r_mmod_RMS_Derivative-OPLS-2005>
0.0510510057210922

$$$$
7
                    3D
 Structure written by MMmdl.
155164  0  0  1  0            999 V2000
  -30.6100  -14.7614   20.4462 C   0  0  0  0  0  0
  -30.4344  -12.4625   19.4845 C   0  0  0  0  0  0
  -29.5138  -12.5134   18.2446 C   0  0  0  0  0  0
  -28.0413  -12.3327   18.6573 C   0  0  0  0  0  0
  -27.6454  -13.2355   19.8557 C   0  0  2  0  0  0
  -28.6886  -13.1754   20.9946 C   0  0  0  0  0  0
  -25.2528  -13.8207   20.5703 C   0  0  0  0  0  0
  -24.1809  -13.0452   20.9195 C   0  0  0  0  0  0
  -24.6404  -11.6928   20.8743 C   0  0  0  0  0  0
  -23.9083  -10.4302   21.0403 C   0  0  0  0  0  0
  -24.3631   -9.4211   21.9179 C   0  0  0  0  0  0
  -23.6299   -8.2248   22.0753 C   0  0  0  0  0  0
  -22.4276   -8.0293   21.3548 C   0  0  0  0  0  0
  -21.9910   -9.0269   20.4651 C   0  0  0  0  0  0
  -22.7248  -10.2145   20.3059 C   0  0  0  0  0  0
  -21.6856   -6.0738   22.5274 C   0  0  0  0  0  0
  -21.4016   -6.5636   23.8210 C   0  0  0  0  0  0
  -21.3660   -5.6789   24.9172 C   0  0  0  0  0  0
  -21.6047   -4.3054   24.7218 C   0  0  0  0  0  0
  -21.8822   -3.8145   23.4339 C   0  0  0  0  0  0
  -21.9191   -4.6964   22.3395 C   0  0  0  0  0  0
  -22.7830  -13.5234   21.1855 C   0  0  0  0  0  0
  -22.1662   -4.2153   21.0972 F   0  0  0  0  0  0
  -21.5626   -3.4533   25.7728 F   0  0  0  0  0  0
  -29.9931  -13.5275   20.4192 N   0  0  0  0  0  0
  -26.2961  -12.9422   20.3306 N   0  0  0  0  0  0
  -25.9343  -11.6561   20.5768 N   0  0  0  0  0  0
  -22.0483  -12.8230   22.0422 N   0  0  0  0  0  0
  -25.4233  -15.1929   20.4133 N   0  0  0  0  0  0
  -31.7920  -14.8530   20.1024 O   0  0  0  0  0  0
  -21.6649   -6.8885   21.4238 O   0  0  0  0  0  0
  -22.3512  -14.5539   20.6704 O   0  0  0  0  0  0
  -24.6357  -31.8535   23.1989 C   0  0  0  0  0  0
  -25.9167  -32.4743   23.8339 C   0  0  1  0  0  0
  -27.2096  -27.2270   20.1183 C   0  0  0  0  0  0
  -25.5948  -33.8548   24.2249 N   0  0  0  0  0  0
  -23.4340  -30.4794   21.5437 C   0  0  2  0  0  0
  -24.8796  -28.9322   20.1057 C   0  0  0  0  0  0
  -22.7531  -29.4591   22.4895 C   0  0  0  0  0  0
  -18.0303  -28.1388   22.8482 C   0  0  0  0  0  0
  -24.1494  -36.7285   23.2638 C   0  0  0  0  0  0
  -25.9865  -30.7511   21.3913 C   0  0  0  0  0  0
  -26.0548  -29.3747   20.7264 C   0  0  0  0  0  0
  -27.2202  -28.5332   20.7281 C   0  0  0  0  0  0
  -26.0147  -26.8867   19.4368 C   0  0  0  0  0  0
  -24.8672  -27.6968   19.4499 C   0  0  0  0  0  0
  -23.6539  -29.8230   20.1574 C   0  0  0  0  0  0
  -25.4117  -36.3062   24.0323 C   0  0  1  0  0  0
  -20.5908  -28.3706   23.1256 C   0  0  2  0  0  0
  -20.6781  -26.9415   22.5409 C   0  0  0  0  0  0
  -19.5754  -26.6377   21.5216 C   0  0  0  0  0  0
  -18.1936  -26.7929   22.1625 C   0  0  0  0  0  0
  -19.1555  -28.8866   23.2863 C   0  0  0  0  0  0
  -18.9474  -30.1460   23.8889 C   0  0  0  0  0  0
  -17.6469  -30.6586   24.0564 C   0  0  0  0  0  0
  -25.9063  -34.9434   23.5089 C   0  0  0  0  0  0
  -16.5362  -29.9081   23.6329 C   0  0  0  0  0  0
  -16.7286  -28.6499   23.0352 C   0  0  0  0  0  0
  -26.4508  -31.6583   25.0749 C   0  0  0  0  0  0
  -25.3714  -31.3768   26.1463 C   0  0  0  0  0  0
  -27.0349  -30.2976   24.6292 C   0  0  0  0  0  0
  -27.6055  -32.4338   25.7512 C   0  0  0  0  0  0
  -27.5583  -37.1790   24.8456 C   0  0  0  0  0  0
  -21.4234  -29.3046   22.3640 N   0  0  0  0  0  0
  -26.4286  -37.3764   23.9413 N   0  0  0  0  0  0
  -24.7045  -31.0470   22.0995 N   0  0  0  0  0  0
  -23.4214  -28.8122   23.2998 O   0  0  0  0  0  0
  -28.2649  -26.2691   20.2037 O   0  0  0  0  0  0
  -26.5639  -34.8914   22.4660 O   0  0  0  0  0  0
  -23.5495  -32.1383   23.7256 O   0  0  0  0  0  0
  -29.7059  -19.6869   18.5314 C   0  0  0  0  0  0
  -30.0007  -18.4551   17.9196 C   0  0  0  0  0  0
  -29.5867  -18.5428   20.6710 C   0  0  0  0  0  0
  -29.4796  -19.7988   19.9191 C   0  0  0  0  0  0
  -29.8799  -17.2399   20.0572 C   0  0  0  0  0  0
  -30.0696  -17.2572   18.6526 C   0  0  0  0  0  0
  -28.6099  -22.2645   19.7122 C   0  0  0  0  0  0
  -28.7071  -23.5046   20.2926 C   0  0  0  0  0  0
  -29.4509  -23.2251   21.5025 C   0  0  0  0  0  0
  -29.8197  -24.1552   22.3970 C   0  0  0  0  0  0
  -29.7550  -21.7153   21.6152 C   0  0  0  0  0  0
  -27.9543  -24.8367   19.8058 C   0  0  0  0  0  0
  -29.1592  -21.1401   20.4038 N   0  0  0  0  0  0
  -29.8622  -15.9028   20.7297 N   0  0  0  0  0  0
  -30.2608  -16.1068   17.9630 F   0  0  0  0  0  0
  -31.4755  -12.5826   19.1794 H   0  0  0  0  0  0
  -30.3777  -11.4860   19.9676 H   0  0  0  0  0  0
  -29.7982  -11.7406   17.5291 H   0  0  0  0  0  0
  -29.6374  -13.4681   17.7311 H   0  0  0  0  0  0
  -27.9028  -11.2844   18.9236 H   0  0  0  0  0  0
  -27.3845  -12.5203   17.8073 H   0  0  0  0  0  0
  -27.6396  -14.2567   19.4739 H   0  0  0  0  0  0
  -28.7226  -12.1791   21.4371 H   0  0  0  0  0  0
  -28.4209  -13.8583   21.8019 H   0  0  0  0  0  0
  -25.2775   -9.5682   22.4759 H   0  0  0  0  0  0
  -24.0007   -7.4633   22.7468 H   0  0  0  0  0  0
  -21.0839   -8.8797   19.8957 H   0  0  0  0  0  0
  -22.3705  -10.9689   19.6180 H   0  0  0  0  0  0
  -21.2020   -7.6147   23.9709 H   0  0  0  0  0  0
  -21.1476   -6.0523   25.9074 H   0  0  0  0  0  0
  -22.0602   -2.7608   23.2837 H   0  0  0  0  0  0
  -22.4100  -11.9897   22.4820 H   0  0  0  0  0  0
  -21.1110  -13.1268   22.2647 H   0  0  0  0  0  0
  -24.6582  -15.8492   20.5222 H   0  0  0  0  0  0
  -26.2763  -15.6302   20.0883 H   0  0  0  0  0  0
  -26.7236  -32.5365   23.1077 H   0  0  0  0  0  0
  -25.0068  -33.9674   25.0376 H   0  0  0  0  0  0
  -22.7324  -31.3037   21.3998 H   0  0  0  0  0  0
  -23.3757  -35.9615   23.3284 H   0  0  0  0  0  0
  -24.3591  -36.8926   22.2056 H   0  0  0  0  0  0
  -23.7244  -37.6479   23.6679 H   0  0  0  0  0  0
  -26.1413  -31.5140   20.6277 H   0  0  0  0  0  0
  -26.8584  -30.7904   22.0322 H   0  0  0  0  0  0
  -28.1123  -28.8607   21.2439 H   0  0  0  0  0  0
  -25.9150  -25.9637   18.8875 H   0  0  0  0  0  0
  -23.9744  -27.3588   18.9421 H   0  0  0  0  0  0
  -23.7859  -30.6045   19.4083 H   0  0  0  0  0  0
  -22.7700  -29.2638   19.8453 H   0  0  0  0  0  0
  -25.1295  -36.1907   25.0813 H   0  0  0  0  0  0
  -21.0000  -28.3289   24.1377 H   0  0  0  0  0  0
  -20.5669  -26.2320   23.3623 H   0  0  0  0  0  0
  -21.6650  -26.7418   22.1215 H   0  0  0  0  0  0
  -19.6912  -25.6286   21.1252 H   0  0  0  0  0  0
  -19.6686  -27.3182   20.6742 H   0  0  0  0  0  0
  -17.4204  -26.6685   21.4029 H   0  0  0  0  0  0
  -18.0325  -26.0073   22.9021 H   0  0  0  0  0  0
  -19.7947  -30.7279   24.2255 H   0  0  0  0  0  0
  -17.5022  -31.6263   24.5167 H   0  0  0  0  0  0
  -15.5361  -30.2977   23.7653 H   0  0  0  0  0  0
  -15.8690  -28.0810   22.7070 H   0  0  0  0  0  0
  -24.5883  -30.7117   25.7804 H   0  0  0  0  0  0
  -24.8916  -32.2952   26.4857 H   0  0  0  0  0  0
  -25.8017  -30.8969   27.0262 H   0  0  0  0  0  0
  -26.2945  -29.6720   24.1290 H   0  0  0  0  0  0
  -27.3955  -29.7254   25.4851 H   0  0  0  0  0  0
  -27.8868  -30.4212   23.9601 H   0  0  0  0  0  0
  -27.2647  -33.3636   26.2081 H   0  0  0  0  0  0
  -28.3858  -32.6905   25.0335 H   0  0  0  0  0  0
  -28.0734  -31.8478   26.5432 H   0  0  0  0  0  0
  -28.2585  -38.0104   24.7526 H   0  0  0  0  0  0
  -28.1099  -36.2638   24.6248 H   0  0  0  0  0  0
  -27.2315  -37.1398   25.8861 H   0  0  0  0  0  0
  -20.9430  -29.8783   21.6851 H   0  0  0  0  0  0
  -26.0166  -38.2837   24.1425 H   0  0  0  0  0  0
  -29.6587  -20.5636   17.9024 H   0  0  0  0  0  0
  -30.1500  -18.4224   16.8509 H   0  0  0  0  0  0
  -29.4047  -18.5741   21.7354 H   0  0  0  0  0  0
  -28.0471  -22.0499   18.8128 H   0  0  0  0  0  0
  -29.5766  -25.1985   22.2564 H   0  0  0  0  0  0
  -30.3782  -23.8889   23.2822 H   0  0  0  0  0  0
  -29.3017  -21.2946   22.5137 H   0  0  0  0  0  0
  -30.8313  -21.5392   21.6467 H   0  0  0  0  0  0
  -26.9417  -24.6127   20.1399 H   0  0  0  0  0  0
  -27.9341  -24.8035   18.7157 H   0  0  0  0  0  0
  -29.0202  -15.7149   21.2521 H   0  0  0  0  0  0
  1 25  1  0  0  0
  1 30  2  0  0  0
  1 84  1  0  0  0
  2  3  1  0  0  0
  2 25  1  0  0  0
  2 86  1  0  0  0
  2 87  1  0  0  0
  3  4  1  0  0  0
  3 88  1  0  0  0
  3 89  1  0  0  0
  4  5  1  0  0  0
  4 90  1  0  0  0
  4 91  1  0  0  0
  5  6  1  0  0  0
  5 26  1  0  0  0
  5 92  1  0  0  0
  6 25  1  0  0  0
  6 93  1  0  0  0
  6 94  1  0  0  0
  7  8  2  0  0  0
  7 26  1  0  0  0
  7 29  1  0  0  0
  8  9  1  0  0  0
  8 22  1  0  0  0
  9 10  1  0  0  0
  9 27  2  0  0  0
 10 11  2  0  0  0
 10 15  1  0  0  0
 11 12  1  0  0  0
 11 95  1  0  0  0
 12 13  2  0  0  0
 12 96  1  0  0  0
 13 14  1  0  0  0
 13 31  1  0  0  0
 14 15  2  0  0  0
 14 97  1  0  0  0
 15 98  1  0  0  0
 16 17  2  0  0  0
 16 21  1  0  0  0
 16 31  1  0  0  0
 17 18  1  0  0  0
 17 99  1  0  0  0
 18 19  2  0  0  0
 18100  1  0  0  0
 19 20  1  0  0  0
 19 24  1  0  0  0
 20 21  2  0  0  0
 20101  1  0  0  0
 21 23  1  0  0  0
 22 28  1  0  0  0
 22 32  2  0  0  0
 26 27  1  0  0  0
 28102  1  0  0  0
 28103  1  0  0  0
 29104  1  0  0  0
 29105  1  0  0  0
 33 34  1  0  0  0
 33 66  1  0  0  0
 33 70  2  0  0  0
 34 36  1  0  0  0
 34 59  1  0  0  0
 34106  1  0  0  0
 35 44  2  0  0  0
 35 45  1  0  0  0
 35 68  1  0  0  0
 36 56  1  0  0  0
 36107  1  0  0  0
 37 39  1  0  0  0
 37 47  1  0  0  0
 37 66  1  0  0  0
 37108  1  0  0  0
 38 43  2  0  0  0
 38 46  1  0  0  0
 38 47  1  0  0  0
 39 64  1  0  0  0
 39 67  2  0  0  0
 40 52  1  0  0  0
 40 53  2  0  0  0
 40 58  1  0  0  0
 41109  1  0  0  0
 41110  1  0  0  0
 41111  1  0  0  0
 41 48  1  0  0  0
 42 43  1  0  0  0
 42 66  1  0  0  0
 42112  1  0  0  0
 42113  1  0  0  0
 43 44  1  0  0  0
 44114  1  0  0  0
 45 46  2  0  0  0
 45115  1  0  0  0
 46116  1  0  0  0
 47117  1  0  0  0
 47118  1  0  0  0
 48 56  1  0  0  0
 48 65  1  0  0  0
 48119  1  0  0  0
 49 50  1  0  0  0
 49 53  1  0  0  0
 49 64  1  0  0  0
 49120  1  0  0  0
 50 51  1  0  0  0
 50121  1  0  0  0
 50122  1  0  0  0
 51 52  1  0  0  0
 51123  1  0  0  0
 51124  1  0  0  0
 52125  1  0  0  0
 52126  1  0  0  0
 53 54  1  0  0  0
 54 55  2  0  0  0
 54127  1  0  0  0
 55 57  1  0  0  0
 55128  1  0  0  0
 56 69  2  0  0  0
 57 58  2  0  0  0
 57129  1  0  0  0
 58130  1  0  0  0
 59 60  1  0  0  0
 59 61  1  0  0  0
 59 62  1  0  0  0
 60131  1  0  0  0
 60132  1  0  0  0
 60133  1  0  0  0
 61134  1  0  0  0
 61135  1  0  0  0
 61136  1  0  0  0
 62137  1  0  0  0
 62138  1  0  0  0
 62139  1  0  0  0
 63 65  1  0  0  0
 63140  1  0  0  0
 63141  1  0  0  0
 63142  1  0  0  0
 64143  1  0  0  0
 65144  1  0  0  0
 68 82  1  0  0  0
 71 72  2  0  0  0
 71 74  1  0  0  0
 71145  1  0  0  0
 72 76  1  0  0  0
 72146  1  0  0  0
 73 74  2  0  0  0
 73 75  1  0  0  0
 73147  1  0  0  0
 74 83  1  0  0  0
 75 76  2  0  0  0
 75 84  1  0  0  0
 76 85  1  0  0  0
 77 78  2  0  0  0
 77 83  1  0  0  0
 77148  1  0  0  0
 78 79  1  0  0  0
 78 82  1  0  0  0
 79 80  2  0  0  0
 79 81  1  0  0  0
 80149  1  0  0  0
 80150  1  0  0  0
 81 83  1  0  0  0
 81151  1  0  0  0
 81152  1  0  0  0
 82153  1  0  0  0
 82154  1  0  0  0
 84155  1  0  0  0
M  ISO  4   1 100  68 101  82 101  84 100
M  END
> <chiral flag>
0

> <version>
0

> <s_m_source_file>
/data/baiqing/PycharmProjects/Reinvent-master-3.2/result/LINK_invent/BTK/process_docking_weight1_custom_product_contain_oxygen_bond_distance_aromatic_linkinvent_7_9_3/rearranged_h_0077.sdf

> <i_m_source_file_index>
8

> <r_mmod_Potential_Energy-OPLS-2005>
292.720520019531

> <r_mmod_Stretch_Energy-OPLS-2005>
134.613006591797

> <r_mmod_Bend_Energy-OPLS-2005>
266.993957519531

> <r_mmod_Torsional_Energy-OPLS-2005>
241.1572265625

> <r_mmod_Improper_Torsional_Energy-OPLS-2005>
5.95924282073975

> <r_mmod_Van_der_Waal_Energy-OPLS-2005>
143.25276184082

> <r_mmod_Electrostatic_Energy-OPLS-2005>
-389.304595947266

> <r_mmod_Solvation_Energy-OPLS-2005>
-214.285797119141

> <b_mmod_Minimization_Converged-OPLS-2005>
0

> <r_mmod_RMS_Derivative-OPLS-2005>
1.06036937236786

$$$$
8
                    3D
 Structure written by MMmdl.
152161  0  0  1  0            999 V2000
  -30.7293  -14.5210   20.5792 C   0  0  0  0  0  0
  -30.4073  -12.3447   19.4401 C   0  0  0  0  0  0
  -29.4961  -12.5086   18.2105 C   0  0  0  0  0  0
  -28.0160  -12.3690   18.6159 C   0  0  0  0  0  0
  -27.6478  -13.2256   19.8581 C   0  0  2  0  0  0
  -28.6881  -13.0703   20.9889 C   0  0  0  0  0  0
  -25.2508  -13.8197   20.5649 C   0  0  0  0  0  0
  -24.1800  -13.0448   20.9165 C   0  0  0  0  0  0
  -24.6393  -11.6914   20.8730 C   0  0  0  0  0  0
  -23.9085  -10.4284   21.0388 C   0  0  0  0  0  0
  -24.3634   -9.4190   21.9155 C   0  0  0  0  0  0
  -23.6295   -8.2237   22.0740 C   0  0  0  0  0  0
  -22.4270   -8.0289   21.3549 C   0  0  0  0  0  0
  -21.9905   -9.0259   20.4652 C   0  0  0  0  0  0
  -22.7250  -10.2123   20.3045 C   0  0  0  0  0  0
  -21.6852   -6.0744   22.5284 C   0  0  0  0  0  0
  -21.4023   -6.5640   23.8223 C   0  0  0  0  0  0
  -21.3653   -5.6786   24.9180 C   0  0  0  0  0  0
  -21.6035   -4.3055   24.7224 C   0  0  0  0  0  0
  -21.8825   -3.8148   23.4351 C   0  0  0  0  0  0
  -21.9189   -4.6968   22.3402 C   0  0  0  0  0  0
  -22.7823  -13.5207   21.1846 C   0  0  0  0  0  0
  -22.1658   -4.2158   21.0977 F   0  0  0  0  0  0
  -21.5624   -3.4544   25.7731 F   0  0  0  0  0  0
  -30.0093  -13.3729   20.4222 N   0  0  0  0  0  0
  -26.2947  -12.9409   20.3272 N   0  0  0  0  0  0
  -25.9319  -11.6549   20.5709 N   0  0  0  0  0  0
  -22.0482  -12.8203   22.0418 N   0  0  0  0  0  0
  -25.4185  -15.1932   20.4074 N   0  0  0  0  0  0
  -31.8892  -14.5805   20.1606 O   0  0  0  0  0  0
  -21.6648   -6.8880   21.4247 O   0  0  0  0  0  0
  -22.3474  -14.5477   20.6654 O   0  0  0  0  0  0
  -24.6161  -31.8684   23.2088 C   0  0  0  0  0  0
  -25.9047  -32.4823   23.8376 C   0  0  1  0  0  0
  -27.2129  -27.4104   20.1106 C   0  0  0  0  0  0
  -25.5894  -33.8613   24.2311 N   0  0  0  0  0  0
  -23.4044  -30.4937   21.5508 C   0  0  2  0  0  0
  -24.8522  -28.9673   20.1033 C   0  0  0  0  0  0
  -22.7416  -29.4646   22.4962 C   0  0  0  0  0  0
  -18.0285  -28.1373   22.8490 C   0  0  0  0  0  0
  -24.1493  -36.7306   23.2628 C   0  0  0  0  0  0
  -25.9364  -30.8312   21.3660 C   0  0  0  0  0  0
  -26.0158  -29.4674   20.7045 C   0  0  0  0  0  0
  -27.2058  -28.6978   20.7043 C   0  0  0  0  0  0
  -26.0412  -26.9401   19.4849 C   0  0  0  0  0  0
  -24.8625  -27.7073   19.4815 C   0  0  0  0  0  0
  -23.6118  -29.8322   20.1625 C   0  0  0  0  0  0
  -25.4112  -36.3101   24.0330 C   0  0  1  0  0  0
  -20.5869  -28.3651   23.1327 C   0  0  2  0  0  0
  -20.6767  -26.9387   22.5424 C   0  0  0  0  0  0
  -19.5738  -26.6375   21.5219 C   0  0  0  0  0  0
  -18.1919  -26.7919   22.1634 C   0  0  0  0  0  0
  -19.1536  -28.8829   23.2910 C   0  0  0  0  0  0
  -18.9452  -30.1440   23.8920 C   0  0  0  0  0  0
  -17.6445  -30.6564   24.0566 C   0  0  0  0  0  0
  -25.9039  -34.9465   23.5121 C   0  0  0  0  0  0
  -16.5342  -29.9060   23.6321 C   0  0  0  0  0  0
  -16.7265  -28.6481   23.0335 C   0  0  0  0  0  0
  -26.4443  -31.6599   25.0717 C   0  0  0  0  0  0
  -25.3693  -31.3791   26.1460 C   0  0  0  0  0  0
  -27.0218  -30.2993   24.6131 C   0  0  0  0  0  0
  -27.6036  -32.4294   25.7469 C   0  0  0  0  0  0
  -27.5590  -37.1816   24.8445 C   0  0  0  0  0  0
  -21.4127  -29.3017   22.3725 N   0  0  0  0  0  0
  -26.4294  -37.3783   23.9398 N   0  0  0  0  0  0
  -24.6700  -31.0782   22.0999 N   0  0  0  0  0  0
  -23.4209  -28.8182   23.2994 O   0  0  0  0  0  0
  -28.2826  -26.5427   20.2028 O   0  0  0  0  0  0
  -26.5598  -34.8931   22.4687 O   0  0  0  0  0  0
  -23.5345  -32.1442   23.7467 O   0  0  0  0  0  0
  -30.7170  -19.2131   20.5839 C   0  0  0  0  0  0
  -28.6718  -18.4342   21.6002 C   0  0  0  0  0  0
  -30.1812  -20.5148   20.4727 C   0  0  0  0  0  0
  -28.1567  -19.7588   21.5105 C   0  0  0  0  0  0
  -29.9800  -18.1426   21.1460 C   0  0  0  0  0  0
  -28.8902  -20.8500   20.9553 C   0  0  0  0  0  0
  -28.2767  -24.1999   20.9865 C   0  0  0  0  0  0
  -28.0253  -23.1200   21.9126 C   0  0  0  0  0  0
  -28.0781  -25.5354   21.1360 C   0  0  0  0  0  0
  -30.6847  -16.8077   21.3430 C   0  0  0  0  0  0
  -28.8004  -23.2238   19.9514 C   0  0  0  0  0  0
  -28.3656  -22.1927   20.9243 N   0  0  0  0  0  0
  -30.0755  -15.6350   21.0182 N   0  0  0  0  0  0
  -27.7658  -23.1134   23.0987 O   0  0  0  0  0  0
  -31.8532  -16.8648   21.7528 O   0  0  0  0  0  0
  -31.4540  -12.4218   19.1419 H   0  0  0  0  0  0
  -30.3009  -11.3478   19.8713 H   0  0  0  0  0  0
  -29.7483  -11.7666   17.4523 H   0  0  0  0  0  0
  -29.6689  -13.4843   17.7548 H   0  0  0  0  0  0
  -27.8295  -11.3157   18.8207 H   0  0  0  0  0  0
  -27.3726  -12.6304   17.7747 H   0  0  0  0  0  0
  -27.6693  -14.2666   19.5322 H   0  0  0  0  0  0
  -28.6730  -12.0523   21.3788 H   0  0  0  0  0  0
  -28.4455  -13.7167   21.8329 H   0  0  0  0  0  0
  -25.2807   -9.5658   22.4709 H   0  0  0  0  0  0
  -24.0031   -7.4618   22.7447 H   0  0  0  0  0  0
  -21.0839   -8.8776   19.8949 H   0  0  0  0  0  0
  -22.3728  -10.9659   19.6146 H   0  0  0  0  0  0
  -21.2035   -7.6159   23.9731 H   0  0  0  0  0  0
  -21.1456   -6.0522   25.9082 H   0  0  0  0  0  0
  -22.0607   -2.7614   23.2860 H   0  0  0  0  0  0
  -22.4099  -11.9916   22.4891 H   0  0  0  0  0  0
  -21.1082  -13.1205   22.2563 H   0  0  0  0  0  0
  -24.6469  -15.8436   20.5066 H   0  0  0  0  0  0
  -26.2609  -15.6386   20.0683 H   0  0  0  0  0  0
  -26.7121  -32.5532   23.1156 H   0  0  0  0  0  0
  -25.0028  -33.9773   25.0439 H   0  0  0  0  0  0
  -22.6911  -31.3091   21.4184 H   0  0  0  0  0  0
  -23.3725  -35.9673   23.3328 H   0  0  0  0  0  0
  -24.3583  -36.8858   22.2032 H   0  0  0  0  0  0
  -23.7298  -37.6549   23.6609 H   0  0  0  0  0  0
  -26.0558  -31.6040   20.6048 H   0  0  0  0  0  0
  -26.8200  -30.8750   21.9902 H   0  0  0  0  0  0
  -28.0948  -29.0653   21.1962 H   0  0  0  0  0  0
  -26.0326  -25.9594   19.0321 H   0  0  0  0  0  0
  -23.9664  -27.3170   19.0182 H   0  0  0  0  0  0
  -23.7083  -30.6125   19.4060 H   0  0  0  0  0  0
  -22.7344  -29.2494   19.8722 H   0  0  0  0  0  0
  -25.1281  -36.1961   25.0820 H   0  0  0  0  0  0
  -20.9981  -28.3231   24.1439 H   0  0  0  0  0  0
  -20.5642  -26.2252   23.3612 H   0  0  0  0  0  0
  -21.6641  -26.7408   22.1241 H   0  0  0  0  0  0
  -19.6891  -25.6285   21.1238 H   0  0  0  0  0  0
  -19.6678  -27.3203   20.6770 H   0  0  0  0  0  0
  -17.4189  -26.6649   21.4030 H   0  0  0  0  0  0
  -18.0319  -26.0057   22.9024 H   0  0  0  0  0  0
  -19.7926  -30.7253   24.2273 H   0  0  0  0  0  0
  -17.4996  -31.6236   24.5161 H   0  0  0  0  0  0
  -15.5351  -30.2970   23.7601 H   0  0  0  0  0  0
  -15.8674  -28.0808   22.7029 H   0  0  0  0  0  0
  -24.5823  -30.7178   25.7813 H   0  0  0  0  0  0
  -24.8961  -32.3003   26.4858 H   0  0  0  0  0  0
  -25.7983  -30.8974   27.0254 H   0  0  0  0  0  0
  -26.2775  -29.6843   24.1049 H   0  0  0  0  0  0
  -27.3776  -29.7135   25.4624 H   0  0  0  0  0  0
  -27.8719  -30.4230   23.9416 H   0  0  0  0  0  0
  -27.2646  -33.3571   26.2085 H   0  0  0  0  0  0
  -28.3818  -32.6872   25.0277 H   0  0  0  0  0  0
  -28.0731  -31.8400   26.5359 H   0  0  0  0  0  0
  -28.2620  -38.0096   24.7472 H   0  0  0  0  0  0
  -28.1081  -36.2641   24.6285 H   0  0  0  0  0  0
  -27.2310  -37.1475   25.8843 H   0  0  0  0  0  0
  -20.9277  -29.8763   21.6975 H   0  0  0  0  0  0
  -26.0182  -38.2864   24.1385 H   0  0  0  0  0  0
  -31.7333  -19.0429   20.2504 H   0  0  0  0  0  0
  -28.0715  -17.6617   22.0654 H   0  0  0  0  0  0
  -30.8213  -21.2749   20.0460 H   0  0  0  0  0  0
  -27.1598  -19.9313   21.9051 H   0  0  0  0  0  0
  -27.6708  -25.9284   22.0590 H   0  0  0  0  0  0
  -29.8767  -23.2546   19.7754 H   0  0  0  0  0  0
  -28.2585  -23.1555   19.0060 H   0  0  0  0  0  0
  -29.0700  -15.6234   20.9971 H   0  0  0  0  0  0
  1 25  1  0  0  0
  1 30  2  0  0  0
  1 83  1  0  0  0
  2  3  1  0  0  0
  2 25  1  0  0  0
  2 86  1  0  0  0
  2 87  1  0  0  0
  3  4  1  0  0  0
  3 88  1  0  0  0
  3 89  1  0  0  0
  4  5  1  0  0  0
  4 90  1  0  0  0
  4 91  1  0  0  0
  5  6  1  0  0  0
  5 26  1  0  0  0
  5 92  1  0  0  0
  6 25  1  0  0  0
  6 93  1  0  0  0
  6 94  1  0  0  0
  7  8  2  0  0  0
  7 26  1  0  0  0
  7 29  1  0  0  0
  8  9  1  0  0  0
  8 22  1  0  0  0
  9 10  1  0  0  0
  9 27  2  0  0  0
 10 11  2  0  0  0
 10 15  1  0  0  0
 11 12  1  0  0  0
 11 95  1  0  0  0
 12 13  2  0  0  0
 12 96  1  0  0  0
 13 14  1  0  0  0
 13 31  1  0  0  0
 14 15  2  0  0  0
 14 97  1  0  0  0
 15 98  1  0  0  0
 16 17  2  0  0  0
 16 21  1  0  0  0
 16 31  1  0  0  0
 17 18  1  0  0  0
 17 99  1  0  0  0
 18 19  2  0  0  0
 18100  1  0  0  0
 19 20  1  0  0  0
 19 24  1  0  0  0
 20 21  2  0  0  0
 20101  1  0  0  0
 21 23  1  0  0  0
 22 28  1  0  0  0
 22 32  2  0  0  0
 26 27  1  0  0  0
 28102  1  0  0  0
 28103  1  0  0  0
 29104  1  0  0  0
 29105  1  0  0  0
 33 34  1  0  0  0
 33 66  1  0  0  0
 33 70  2  0  0  0
 34 36  1  0  0  0
 34 59  1  0  0  0
 34106  1  0  0  0
 35 44  2  0  0  0
 35 45  1  0  0  0
 35 68  1  0  0  0
 36 56  1  0  0  0
 36107  1  0  0  0
 37 39  1  0  0  0
 37 47  1  0  0  0
 37 66  1  0  0  0
 37108  1  0  0  0
 38 43  2  0  0  0
 38 46  1  0  0  0
 38 47  1  0  0  0
 39 64  1  0  0  0
 39 67  2  0  0  0
 40 52  1  0  0  0
 40 53  2  0  0  0
 40 58  1  0  0  0
 41109  1  0  0  0
 41110  1  0  0  0
 41111  1  0  0  0
 41 48  1  0  0  0
 42 43  1  0  0  0
 42 66  1  0  0  0
 42112  1  0  0  0
 42113  1  0  0  0
 43 44  1  0  0  0
 44114  1  0  0  0
 45 46  2  0  0  0
 45115  1  0  0  0
 46116  1  0  0  0
 47117  1  0  0  0
 47118  1  0  0  0
 48 56  1  0  0  0
 48 65  1  0  0  0
 48119  1  0  0  0
 49 50  1  0  0  0
 49 53  1  0  0  0
 49 64  1  0  0  0
 49120  1  0  0  0
 50 51  1  0  0  0
 50121  1  0  0  0
 50122  1  0  0  0
 51 52  1  0  0  0
 51123  1  0  0  0
 51124  1  0  0  0
 52125  1  0  0  0
 52126  1  0  0  0
 53 54  1  0  0  0
 54 55  2  0  0  0
 54127  1  0  0  0
 55 57  1  0  0  0
 55128  1  0  0  0
 56 69  2  0  0  0
 57 58  2  0  0  0
 57129  1  0  0  0
 58130  1  0  0  0
 59 60  1  0  0  0
 59 61  1  0  0  0
 59 62  1  0  0  0
 60131  1  0  0  0
 60132  1  0  0  0
 60133  1  0  0  0
 61134  1  0  0  0
 61135  1  0  0  0
 61136  1  0  0  0
 62137  1  0  0  0
 62138  1  0  0  0
 62139  1  0  0  0
 63 65  1  0  0  0
 63140  1  0  0  0
 63141  1  0  0  0
 63142  1  0  0  0
 64143  1  0  0  0
 65144  1  0  0  0
 68 79  1  0  0  0
 71 73  2  0  0  0
 71 75  1  0  0  0
 71145  1  0  0  0
 72 74  1  0  0  0
 72 75  2  0  0  0
 72146  1  0  0  0
 73 76  1  0  0  0
 73147  1  0  0  0
 74 76  2  0  0  0
 74148  1  0  0  0
 75 80  1  0  0  0
 76 82  1  0  0  0
 77 78  1  0  0  0
 77 79  2  0  0  0
 77 81  1  0  0  0
 78 82  1  0  0  0
 78 84  2  0  0  0
 79149  1  0  0  0
 80 83  1  0  0  0
 80 85  2  0  0  0
 81 82  1  0  0  0
 81150  1  0  0  0
 81151  1  0  0  0
 83152  1  0  0  0
M  ISO  4   1 100  68 101  79 101  83 100
M  END
> <chiral flag>
0

> <version>
0

> <s_m_source_file>
/data/baiqing/PycharmProjects/Reinvent-master-3.2/result/LINK_invent/BTK/process_docking_weight1_custom_product_contain_oxygen_bond_distance_aromatic_linkinvent_7_9_3/rearranged_h_0077.sdf

> <i_m_source_file_index>
9

> <r_mmod_Potential_Energy-OPLS-2005>
24.8535251617432

> <r_mmod_Stretch_Energy-OPLS-2005>
46.4953651428223

> <r_mmod_Bend_Energy-OPLS-2005>
178.622421264648

> <r_mmod_Torsional_Energy-OPLS-2005>
273.555725097656

> <r_mmod_Improper_Torsional_Energy-OPLS-2005>
9.22615814208984

> <r_mmod_Van_der_Waal_Energy-OPLS-2005>
151.069976806641

> <r_mmod_Electrostatic_Energy-OPLS-2005>
-429.060485839844

> <r_mmod_Solvation_Energy-OPLS-2005>
-234.706481933594

> <b_mmod_Minimization_Converged-OPLS-2005>
0

> <r_mmod_RMS_Derivative-OPLS-2005>
3.90416979789734

$$$$
9
                    3D
 Structure written by MMmdl.
156164  0  0  1  0            999 V2000
  -30.6924  -14.4775   20.5713 C   0  0  0  0  0  0
  -30.4218  -12.3054   19.4218 C   0  0  0  0  0  0
  -29.4898  -12.4964   18.2063 C   0  0  0  0  0  0
  -28.0101  -12.3635   18.6188 C   0  0  0  0  0  0
  -27.6608  -13.2053   19.8740 C   0  0  2  0  0  0
  -28.7023  -12.9795   20.9931 C   0  0  0  0  0  0
  -25.2589  -13.8161   20.5676 C   0  0  0  0  0  0
  -24.1843  -13.0442   20.9193 C   0  0  0  0  0  0
  -24.6407  -11.6913   20.8765 C   0  0  0  0  0  0
  -23.9079  -10.4293   21.0432 C   0  0  0  0  0  0
  -24.3626   -9.4198   21.9202 C   0  0  0  0  0  0
  -23.6301   -8.2231   22.0747 C   0  0  0  0  0  0
  -22.4275   -8.0289   21.3549 C   0  0  0  0  0  0
  -21.9931   -9.0266   20.4645 C   0  0  0  0  0  0
  -22.7263  -10.2139   20.3063 C   0  0  0  0  0  0
  -21.6854   -6.0735   22.5289 C   0  0  0  0  0  0
  -21.4012   -6.5638   23.8218 C   0  0  0  0  0  0
  -21.3653   -5.6789   24.9185 C   0  0  0  0  0  0
  -21.6037   -4.3054   24.7241 C   0  0  0  0  0  0
  -21.8823   -3.8146   23.4364 C   0  0  0  0  0  0
  -21.9194   -4.6963   22.3416 C   0  0  0  0  0  0
  -22.7859  -13.5239   21.1854 C   0  0  0  0  0  0
  -22.1665   -4.2141   21.0994 F   0  0  0  0  0  0
  -21.5626   -3.4541   25.7753 F   0  0  0  0  0  0
  -30.0336  -13.2918   20.4448 N   0  0  0  0  0  0
  -26.3020  -12.9336   20.3365 N   0  0  0  0  0  0
  -25.9328  -11.6492   20.5779 N   0  0  0  0  0  0
  -22.0507  -12.8214   22.0400 N   0  0  0  0  0  0
  -25.4360  -15.1878   20.4059 N   0  0  0  0  0  0
  -31.8170  -14.6546   20.0944 O   0  0  0  0  0  0
  -21.6636   -6.8885   21.4249 O   0  0  0  0  0  0
  -22.3540  -14.5551   20.6720 O   0  0  0  0  0  0
  -24.6198  -31.8681   23.2085 C   0  0  0  0  0  0
  -25.9073  -32.4805   23.8380 C   0  0  1  0  0  0
  -27.2356  -27.4247   20.0808 C   0  0  0  0  0  0
  -25.5916  -33.8603   24.2326 N   0  0  0  0  0  0
  -23.4070  -30.4930   21.5500 C   0  0  2  0  0  0
  -24.8456  -28.9512   20.1143 C   0  0  0  0  0  0
  -22.7454  -29.4693   22.5012 C   0  0  0  0  0  0
  -18.0289  -28.1440   22.8499 C   0  0  0  0  0  0
  -24.1474  -36.7277   23.2645 C   0  0  0  0  0  0
  -25.9343  -30.8305   21.3577 C   0  0  0  0  0  0
  -26.0080  -29.4612   20.7071 C   0  0  0  0  0  0
  -27.2008  -28.7044   20.6850 C   0  0  0  0  0  0
  -26.0533  -26.9272   19.4884 C   0  0  0  0  0  0
  -24.8659  -27.6834   19.5044 C   0  0  0  0  0  0
  -23.6112  -29.8232   20.1645 C   0  0  0  0  0  0
  -25.4098  -36.3097   24.0350 C   0  0  1  0  0  0
  -20.5883  -28.3727   23.1314 C   0  0  2  0  0  0
  -20.6754  -26.9461   22.5425 C   0  0  0  0  0  0
  -19.5721  -26.6440   21.5223 C   0  0  0  0  0  0
  -18.1917  -26.7986   22.1649 C   0  0  0  0  0  0
  -19.1547  -28.8903   23.2899 C   0  0  0  0  0  0
  -18.9471  -30.1503   23.8925 C   0  0  0  0  0  0
  -17.6463  -30.6609   24.0606 C   0  0  0  0  0  0
  -25.9051  -34.9465   23.5136 C   0  0  0  0  0  0
  -16.5356  -29.9126   23.6333 C   0  0  0  0  0  0
  -16.7274  -28.6555   23.0336 C   0  0  0  0  0  0
  -26.4466  -31.6591   25.0722 C   0  0  0  0  0  0
  -25.3722  -31.3652   26.1469 C   0  0  0  0  0  0
  -27.0301  -30.3050   24.6081 C   0  0  0  0  0  0
  -27.6083  -32.4268   25.7447 C   0  0  0  0  0  0
  -27.5576  -37.1799   24.8479 C   0  0  0  0  0  0
  -21.4183  -29.3071   22.3718 N   0  0  0  0  0  0
  -26.4270  -37.3806   23.9445 N   0  0  0  0  0  0
  -24.6724  -31.0811   22.0955 N   0  0  0  0  0  0
  -23.4208  -28.8247   23.3067 O   0  0  0  0  0  0
  -28.4155  -26.7085   20.1199 O   0  0  0  0  0  0
  -26.5615  -34.8916   22.4704 O   0  0  0  0  0  0
  -23.5380  -32.1460   23.7465 O   0  0  0  0  0  0
  -31.4604  -18.9372   20.6710 C   0  0  0  0  0  0
  -29.1074  -19.1360   21.2176 C   0  0  0  0  0  0
  -31.3731  -17.5301   20.7490 C   0  0  0  0  0  0
  -29.0173  -17.7237   21.2949 C   0  0  0  0  0  0
  -30.3371  -19.7613   20.9051 C   0  0  0  0  0  0
  -30.1426  -16.8964   21.0510 C   0  0  0  0  0  0
  -32.2534  -22.7703   21.9866 C   0  0  0  0  0  0
  -28.8036  -24.3691   20.4276 C   0  0  0  0  0  0
  -31.3809  -21.7529   22.0364 C   0  0  0  0  0  0
  -28.5010  -25.4203   19.6325 C   0  0  0  0  0  0
  -29.0829  -23.0385   19.8944 C   0  0  0  0  0  0
  -30.5419  -21.2868   20.8620 C   0  0  2  0  0  0
  -29.9735  -15.4718   21.1421 N   0  0  0  0  0  0
  -29.3509  -22.1466   20.8645 N   0  0  0  0  0  0
  -29.2126  -22.7662   18.6978 O   0  0  0  0  0  0
  -31.4649  -12.4057   19.1161 H   0  0  0  0  0  0
  -30.3269  -11.2943   19.8215 H   0  0  0  0  0  0
  -29.7265  -11.7629   17.4337 H   0  0  0  0  0  0
  -29.6592  -13.4768   17.7595 H   0  0  0  0  0  0
  -27.8124  -11.3089   18.8135 H   0  0  0  0  0  0
  -27.3603  -12.6449   17.7887 H   0  0  0  0  0  0
  -27.7071  -14.2529   19.5750 H   0  0  0  0  0  0
  -28.6764  -11.9394   21.3199 H   0  0  0  0  0  0
  -28.4602  -13.5657   21.8811 H   0  0  0  0  0  0
  -25.2775   -9.5649   22.4783 H   0  0  0  0  0  0
  -24.0010   -7.4602   22.7450 H   0  0  0  0  0  0
  -21.0867   -8.8812   19.8938 H   0  0  0  0  0  0
  -22.3766  -10.9690   19.6164 H   0  0  0  0  0  0
  -21.2002   -7.6145   23.9733 H   0  0  0  0  0  0
  -21.1462   -6.0513   25.9085 H   0  0  0  0  0  0
  -22.0609   -2.7608   23.2879 H   0  0  0  0  0  0
  -22.4125  -11.9859   22.4757 H   0  0  0  0  0  0
  -21.1120  -13.1227   22.2616 H   0  0  0  0  0  0
  -24.6744  -15.8501   20.5053 H   0  0  0  0  0  0
  -26.2841  -15.6153   20.0561 H   0  0  0  0  0  0
  -26.7169  -32.5499   23.1159 H   0  0  0  0  0  0
  -25.0027  -33.9745   25.0451 H   0  0  0  0  0  0
  -22.6973  -31.3099   21.4107 H   0  0  0  0  0  0
  -23.3735  -35.9615   23.3310 H   0  0  0  0  0  0
  -24.3565  -36.8881   22.2060 H   0  0  0  0  0  0
  -23.7213  -37.6482   23.6632 H   0  0  0  0  0  0
  -26.0500  -31.5918   20.5849 H   0  0  0  0  0  0
  -26.8258  -30.8887   21.9705 H   0  0  0  0  0  0
  -28.1019  -29.0957   21.1353 H   0  0  0  0  0  0
  -26.0319  -25.9543   19.0169 H   0  0  0  0  0  0
  -23.9732  -27.2817   19.0463 H   0  0  0  0  0  0
  -23.7354  -30.5988   19.4088 H   0  0  0  0  0  0
  -22.7305  -29.2552   19.8604 H   0  0  0  0  0  0
  -25.1263  -36.1952   25.0838 H   0  0  0  0  0  0
  -21.0004  -28.3295   24.1430 H   0  0  0  0  0  0
  -20.5690  -26.2343   23.3619 H   0  0  0  0  0  0
  -21.6623  -26.7501   22.1222 H   0  0  0  0  0  0
  -19.6867  -25.6368   21.1213 H   0  0  0  0  0  0
  -19.6617  -27.3275   20.6766 H   0  0  0  0  0  0
  -17.4189  -26.6777   21.4046 H   0  0  0  0  0  0
  -18.0283  -26.0118   22.9018 H   0  0  0  0  0  0
  -19.7941  -30.7328   24.2296 H   0  0  0  0  0  0
  -17.5007  -31.6270   24.5238 H   0  0  0  0  0  0
  -15.5369  -30.3021   23.7643 H   0  0  0  0  0  0
  -15.8676  -28.0872   22.7030 H   0  0  0  0  0  0
  -24.5942  -30.6954   25.7792 H   0  0  0  0  0  0
  -24.8852  -32.2769   26.4936 H   0  0  0  0  0  0
  -25.8102  -30.8826   27.0220 H   0  0  0  0  0  0
  -26.2855  -29.6787   24.1166 H   0  0  0  0  0  0
  -27.4134  -29.7308   25.4523 H   0  0  0  0  0  0
  -27.8633  -30.4393   23.9180 H   0  0  0  0  0  0
  -27.2796  -33.3589   26.2036 H   0  0  0  0  0  0
  -28.3859  -32.6779   25.0224 H   0  0  0  0  0  0
  -28.0761  -31.8354   26.5330 H   0  0  0  0  0  0
  -28.2616  -38.0085   24.7546 H   0  0  0  0  0  0
  -28.1033  -36.2614   24.6244 H   0  0  0  0  0  0
  -27.2288  -37.1416   25.8884 H   0  0  0  0  0  0
  -20.9392  -29.8755   21.6878 H   0  0  0  0  0  0
  -26.0123  -38.2868   24.1475 H   0  0  0  0  0  0
  -32.4151  -19.3935   20.4424 H   0  0  0  0  0  0
  -28.2301  -19.7360   21.4151 H   0  0  0  0  0  0
  -32.2785  -16.9644   20.5814 H   0  0  0  0  0  0
  -28.0646  -17.2758   21.5448 H   0  0  0  0  0  0
  -32.8176  -23.0647   22.8607 H   0  0  0  0  0  0
  -32.4128  -23.3244   21.0715 H   0  0  0  0  0  0
  -28.8900  -24.5441   21.4905 H   0  0  0  0  0  0
  -31.2357  -21.2269   22.9708 H   0  0  0  0  0  0
  -28.3602  -25.3659   18.5611 H   0  0  0  0  0  0
  -31.1256  -21.4897   19.9588 H   0  0  0  0  0  0
  -29.0828  -15.1620   21.4986 H   0  0  0  0  0  0
  -29.0661  -22.4266   21.7923 H   0  0  0  0  0  0
  1 25  1  0  0  0
  1 30  2  0  0  0
  1 83  1  0  0  0
  2  3  1  0  0  0
  2 25  1  0  0  0
  2 86  1  0  0  0
  2 87  1  0  0  0
  3  4  1  0  0  0
  3 88  1  0  0  0
  3 89  1  0  0  0
  4  5  1  0  0  0
  4 90  1  0  0  0
  4 91  1  0  0  0
  5  6  1  0  0  0
  5 26  1  0  0  0
  5 92  1  0  0  0
  6 25  1  0  0  0
  6 93  1  0  0  0
  6 94  1  0  0  0
  7  8  2  0  0  0
  7 26  1  0  0  0
  7 29  1  0  0  0
  8  9  1  0  0  0
  8 22  1  0  0  0
  9 10  1  0  0  0
  9 27  2  0  0  0
 10 11  2  0  0  0
 10 15  1  0  0  0
 11 12  1  0  0  0
 11 95  1  0  0  0
 12 13  2  0  0  0
 12 96  1  0  0  0
 13 14  1  0  0  0
 13 31  1  0  0  0
 14 15  2  0  0  0
 14 97  1  0  0  0
 15 98  1  0  0  0
 16 17  2  0  0  0
 16 21  1  0  0  0
 16 31  1  0  0  0
 17 18  1  0  0  0
 17 99  1  0  0  0
 18 19  2  0  0  0
 18100  1  0  0  0
 19 20  1  0  0  0
 19 24  1  0  0  0
 20 21  2  0  0  0
 20101  1  0  0  0
 21 23  1  0  0  0
 22 28  1  0  0  0
 22 32  2  0  0  0
 26 27  1  0  0  0
 28102  1  0  0  0
 28103  1  0  0  0
 29104  1  0  0  0
 29105  1  0  0  0
 33 34  1  0  0  0
 33 66  1  0  0  0
 33 70  2  0  0  0
 34 36  1  0  0  0
 34 59  1  0  0  0
 34106  1  0  0  0
 35 44  2  0  0  0
 35 45  1  0  0  0
 35 68  1  0  0  0
 36 56  1  0  0  0
 36107  1  0  0  0
 37 39  1  0  0  0
 37 47  1  0  0  0
 37 66  1  0  0  0
 37108  1  0  0  0
 38 43  2  0  0  0
 38 46  1  0  0  0
 38 47  1  0  0  0
 39 64  1  0  0  0
 39 67  2  0  0  0
 40 52  1  0  0  0
 40 53  2  0  0  0
 40 58  1  0  0  0
 41109  1  0  0  0
 41110  1  0  0  0
 41111  1  0  0  0
 41 48  1  0  0  0
 42 43  1  0  0  0
 42 66  1  0  0  0
 42112  1  0  0  0
 42113  1  0  0  0
 43 44  1  0  0  0
 44114  1  0  0  0
 45 46  2  0  0  0
 45115  1  0  0  0
 46116  1  0  0  0
 47117  1  0  0  0
 47118  1  0  0  0
 48 56  1  0  0  0
 48 65  1  0  0  0
 48119  1  0  0  0
 49 50  1  0  0  0
 49 53  1  0  0  0
 49 64  1  0  0  0
 49120  1  0  0  0
 50 51  1  0  0  0
 50121  1  0  0  0
 50122  1  0  0  0
 51 52  1  0  0  0
 51123  1  0  0  0
 51124  1  0  0  0
 52125  1  0  0  0
 52126  1  0  0  0
 53 54  1  0  0  0
 54 55  2  0  0  0
 54127  1  0  0  0
 55 57  1  0  0  0
 55128  1  0  0  0
 56 69  2  0  0  0
 57 58  2  0  0  0
 57129  1  0  0  0
 58130  1  0  0  0
 59 60  1  0  0  0
 59 61  1  0  0  0
 59 62  1  0  0  0
 60131  1  0  0  0
 60132  1  0  0  0
 60133  1  0  0  0
 61134  1  0  0  0
 61135  1  0  0  0
 61136  1  0  0  0
 62137  1  0  0  0
 62138  1  0  0  0
 62139  1  0  0  0
 63 65  1  0  0  0
 63140  1  0  0  0
 63141  1  0  0  0
 63142  1  0  0  0
 64143  1  0  0  0
 65144  1  0  0  0
 68 80  1  0  0  0
 71 73  2  0  0  0
 71 75  1  0  0  0
 71145  1  0  0  0
 72 74  1  0  0  0
 72 75  2  0  0  0
 72146  1  0  0  0
 73 76  1  0  0  0
 73147  1  0  0  0
 74 76  2  0  0  0
 74148  1  0  0  0
 75 82  1  0  0  0
 76 83  1  0  0  0
 77 79  2  0  0  0
 77149  1  0  0  0
 77150  1  0  0  0
 78 80  2  0  0  0
 78 81  1  0  0  0
 78151  1  0  0  0
 79 82  1  0  0  0
 79152  1  0  0  0
 80153  1  0  0  0
 81 84  1  0  0  0
 81 85  2  0  0  0
 82 84  1  0  0  0
 82154  1  0  0  0
 83155  1  0  0  0
 84156  1  0  0  0
M  ISO  4   1 100  68 101  80 101  83 100
M  END
> <chiral flag>
0

> <version>
0

> <s_m_source_file>
/data/baiqing/PycharmProjects/Reinvent-master-3.2/result/LINK_invent/BTK/process_docking_weight1_custom_product_contain_oxygen_bond_distance_aromatic_linkinvent_7_9_3/rearranged_h_0077.sdf

> <i_m_source_file_index>
10

> <r_mmod_Potential_Energy-OPLS-2005>
-107.608299255371

> <r_mmod_Stretch_Energy-OPLS-2005>
38.8281135559082

> <r_mmod_Bend_Energy-OPLS-2005>
111.263885498047

> <r_mmod_Torsional_Energy-OPLS-2005>
244.051803588867

> <r_mmod_Improper_Torsional_Energy-OPLS-2005>
8.81366634368896

> <r_mmod_Van_der_Waal_Energy-OPLS-2005>
154.694412231445

> <r_mmod_Electrostatic_Energy-OPLS-2005>
-452.201049804688

> <r_mmod_Solvation_Energy-OPLS-2005>
-226.912155151367

> <b_mmod_Minimization_Converged-OPLS-2005>
0

> <r_mmod_RMS_Derivative-OPLS-2005>
3.99099016189575

$$$$
10
                    3D
 Structure written by MMmdl.
159168  0  0  1  0            999 V2000
  -30.7093  -14.6237   20.4632 C   0  0  0  0  0  0
  -30.4059  -12.3776   19.4801 C   0  0  0  0  0  0
  -29.5027  -12.4862   18.2352 C   0  0  0  0  0  0
  -28.0266  -12.3346   18.6432 C   0  0  0  0  0  0
  -27.6427  -13.2332   19.8512 C   0  0  2  0  0  0
  -28.6848  -13.1646   20.9919 C   0  0  0  0  0  0
  -25.2504  -13.8207   20.5687 C   0  0  0  0  0  0
  -24.1799  -13.0452   20.9214 C   0  0  0  0  0  0
  -24.6388  -11.6930   20.8745 C   0  0  0  0  0  0
  -23.9062  -10.4306   21.0405 C   0  0  0  0  0  0
  -24.3613   -9.4220   21.9185 C   0  0  0  0  0  0
  -23.6296   -8.2246   22.0751 C   0  0  0  0  0  0
  -22.4277   -8.0277   21.3542 C   0  0  0  0  0  0
  -21.9910   -9.0249   20.4642 C   0  0  0  0  0  0
  -22.7233  -10.2135   20.3053 C   0  0  0  0  0  0
  -21.6858   -6.0731   22.5279 C   0  0  0  0  0  0
  -21.4019   -6.5634   23.8213 C   0  0  0  0  0  0
  -21.3660   -5.6785   24.9175 C   0  0  0  0  0  0
  -21.6044   -4.3047   24.7224 C   0  0  0  0  0  0
  -21.8821   -3.8141   23.4346 C   0  0  0  0  0  0
  -21.9195   -4.6960   22.3404 C   0  0  0  0  0  0
  -22.7822  -13.5234   21.1867 C   0  0  0  0  0  0
  -22.1665   -4.2145   21.0982 F   0  0  0  0  0  0
  -21.5628   -3.4533   25.7739 F   0  0  0  0  0  0
  -30.0013  -13.4512   20.4143 N   0  0  0  0  0  0
  -26.2935  -12.9425   20.3280 N   0  0  0  0  0  0
  -25.9320  -11.6564   20.5743 N   0  0  0  0  0  0
  -22.0456  -12.8228   22.0415 N   0  0  0  0  0  0
  -25.4184  -15.1929   20.4071 N   0  0  0  0  0  0
  -31.8963  -14.6396   20.1164 O   0  0  0  0  0  0
  -21.6641   -6.8874   21.4239 O   0  0  0  0  0  0
  -22.3515  -14.5538   20.6705 O   0  0  0  0  0  0
  -24.6236  -31.8613   23.2048 C   0  0  0  0  0  0
  -25.9083  -32.4785   23.8376 C   0  0  1  0  0  0
  -27.2155  -27.3341   20.1200 C   0  0  0  0  0  0
  -25.5901  -33.8588   24.2298 N   0  0  0  0  0  0
  -23.4171  -30.4866   21.5460 C   0  0  2  0  0  0
  -24.8657  -28.9483   20.1072 C   0  0  0  0  0  0
  -22.7464  -29.4629   22.4927 C   0  0  0  0  0  0
  -18.0290  -28.1373   22.8498 C   0  0  0  0  0  0
  -24.1490  -36.7300   23.2641 C   0  0  0  0  0  0
  -25.9582  -30.7964   21.3765 C   0  0  0  0  0  0
  -26.0334  -29.4258   20.7174 C   0  0  0  0  0  0
  -27.2157  -28.6288   20.7187 C   0  0  0  0  0  0
  -26.0380  -26.9181   19.4624 C   0  0  0  0  0  0
  -24.8686  -27.6988   19.4699 C   0  0  0  0  0  0
  -23.6319  -29.8249   20.1596 C   0  0  0  0  0  0
  -25.4115  -36.3090   24.0337 C   0  0  1  0  0  0
  -20.5890  -28.3676   23.1286 C   0  0  2  0  0  0
  -20.6775  -26.9398   22.5406 C   0  0  0  0  0  0
  -19.5745  -26.6379   21.5210 C   0  0  0  0  0  0
  -18.1929  -26.7921   22.1627 C   0  0  0  0  0  0
  -19.1541  -28.8844   23.2890 C   0  0  0  0  0  0
  -18.9464  -30.1451   23.8900 C   0  0  0  0  0  0
  -17.6464  -30.6579   24.0567 C   0  0  0  0  0  0
  -25.9046  -34.9454   23.5123 C   0  0  0  0  0  0
  -16.5356  -29.9080   23.6328 C   0  0  0  0  0  0
  -16.7278  -28.6494   23.0356 C   0  0  0  0  0  0
  -26.4475  -31.6584   25.0732 C   0  0  0  0  0  0
  -25.3711  -31.3722   26.1462 C   0  0  0  0  0  0
  -27.0311  -30.3009   24.6161 C   0  0  0  0  0  0
  -27.6039  -32.4313   25.7495 C   0  0  0  0  0  0
  -27.5587  -37.1812   24.8466 C   0  0  0  0  0  0
  -21.4180  -29.3039   22.3680 N   0  0  0  0  0  0
  -26.4299  -37.3779   23.9404 N   0  0  0  0  0  0
  -24.6846  -31.0644   22.0991 N   0  0  0  0  0  0
  -23.4201  -28.8156   23.2988 O   0  0  0  0  0  0
  -28.2919  -26.4415   20.1817 O   0  0  0  0  0  0
  -26.5615  -34.8918   22.4689 O   0  0  0  0  0  0
  -23.5401  -32.1405   23.7380 O   0  0  0  0  0  0
  -28.5262  -18.8566   20.5523 C   0  0  0  0  0  0
  -30.7883  -19.6732   20.5428 C   0  0  0  0  0  0
  -28.0694  -20.2045   20.7056 C   0  0  0  0  0  0
  -30.3319  -21.0176   20.6626 C   0  0  0  0  0  0
  -29.9087  -18.5490   20.4676 C   0  0  0  0  0  0
  -28.9537  -21.3239   20.7551 C   0  0  0  0  0  0
  -28.7271  -23.8421   20.3530 C   0  0  0  0  0  0
  -30.4853  -17.1643   20.2040 C   0  0  0  0  0  0
  -27.9029  -23.9791   23.1232 C   0  0  0  0  0  0
  -28.1357  -25.3004   22.3579 C   0  0  0  0  0  0
  -27.5556  -22.7826   22.2054 C   0  0  0  0  0  0
  -27.9702  -25.1485   20.8358 C   0  0  1  0  0  0
  -28.4648  -22.6743   21.0492 N   0  0  0  0  0  0
  -30.0233  -15.9292   20.6429 N   0  0  0  0  0  0
  -31.5718  -17.2045   19.4201 N   0  3  0  0  0  0
  -29.4933  -23.8937   19.3863 O   0  0  0  0  0  0
  -31.4562  -12.4340   19.1885 H   0  0  0  0  0  0
  -30.2881  -11.4033   19.9572 H   0  0  0  0  0  0
  -29.7714  -11.7194   17.5075 H   0  0  0  0  0  0
  -29.6583  -13.4468   17.7417 H   0  0  0  0  0  0
  -27.8682  -11.2855   18.8962 H   0  0  0  0  0  0
  -27.3740  -12.5407   17.7936 H   0  0  0  0  0  0
  -27.6414  -14.2561   19.4739 H   0  0  0  0  0  0
  -28.6854  -12.1781   21.4574 H   0  0  0  0  0  0
  -28.4400  -13.8765   21.7814 H   0  0  0  0  0  0
  -25.2759   -9.5701   22.4758 H   0  0  0  0  0  0
  -24.0008   -7.4641   22.7475 H   0  0  0  0  0  0
  -21.0842   -8.8764   19.8953 H   0  0  0  0  0  0
  -22.3689  -10.9667   19.6156 H   0  0  0  0  0  0
  -21.2009   -7.6143   23.9718 H   0  0  0  0  0  0
  -21.1483   -6.0515   25.9080 H   0  0  0  0  0  0
  -22.0599   -2.7602   23.2847 H   0  0  0  0  0  0
  -22.4059  -11.9894   22.4819 H   0  0  0  0  0  0
  -21.1066  -13.1251   22.2592 H   0  0  0  0  0  0
  -24.6378  -15.8359   20.4912 H   0  0  0  0  0  0
  -26.2404  -15.6232   20.0062 H   0  0  0  0  0  0
  -26.7150  -32.5467   23.1127 H   0  0  0  0  0  0
  -25.0034  -33.9740   25.0436 H   0  0  0  0  0  0
  -22.7103  -31.3071   21.4061 H   0  0  0  0  0  0
  -23.3751  -35.9635   23.3303 H   0  0  0  0  0  0
  -24.3589  -36.8912   22.2054 H   0  0  0  0  0  0
  -23.7244  -37.6509   23.6656 H   0  0  0  0  0  0
  -26.0909  -31.5612   20.6100 H   0  0  0  0  0  0
  -26.8387  -30.8429   22.0056 H   0  0  0  0  0  0
  -28.1074  -28.9818   21.2181 H   0  0  0  0  0  0
  -26.0078  -25.9629   18.9573 H   0  0  0  0  0  0
  -23.9768  -27.3316   18.9819 H   0  0  0  0  0  0
  -23.7475  -30.6031   19.4043 H   0  0  0  0  0  0
  -22.7534  -29.2513   19.8581 H   0  0  0  0  0  0
  -25.1299  -36.1955   25.0834 H   0  0  0  0  0  0
  -21.0003  -28.3239   24.1398 H   0  0  0  0  0  0
  -20.5670  -26.2277   23.3602 H   0  0  0  0  0  0
  -21.6648  -26.7422   22.1201 H   0  0  0  0  0  0
  -19.6896  -25.6291   21.1231 H   0  0  0  0  0  0
  -19.6683  -27.3202   20.6750 H   0  0  0  0  0  0
  -17.4203  -26.6682   21.4025 H   0  0  0  0  0  0
  -18.0328  -26.0060   22.9016 H   0  0  0  0  0  0
  -19.7940  -30.7269   24.2265 H   0  0  0  0  0  0
  -17.5017  -31.6262   24.5160 H   0  0  0  0  0  0
  -15.5354  -30.2978   23.7650 H   0  0  0  0  0  0
  -15.8679  -28.0810   22.7066 H   0  0  0  0  0  0
  -24.5881  -30.7070   25.7798 H   0  0  0  0  0  0
  -24.8908  -32.2892   26.4889 H   0  0  0  0  0  0
  -25.8039  -30.8903   27.0235 H   0  0  0  0  0  0
  -26.2882  -29.6773   24.1166 H   0  0  0  0  0  0
  -27.4004  -29.7242   25.4652 H   0  0  0  0  0  0
  -27.8757  -30.4314   23.9387 H   0  0  0  0  0  0
  -27.2651  -33.3602   26.2095 H   0  0  0  0  0  0
  -28.3833  -32.6883   25.0309 H   0  0  0  0  0  0
  -28.0715  -31.8415   26.5390 H   0  0  0  0  0  0
  -28.2607  -38.0105   24.7512 H   0  0  0  0  0  0
  -28.1079  -36.2640   24.6298 H   0  0  0  0  0  0
  -27.2304  -37.1466   25.8868 H   0  0  0  0  0  0
  -20.9338  -29.8779   21.6922 H   0  0  0  0  0  0
  -26.0181  -38.2857   24.1394 H   0  0  0  0  0  0
  -27.7935  -18.0642   20.4920 H   0  0  0  0  0  0
  -31.8583  -19.5194   20.4990 H   0  0  0  0  0  0
  -27.0057  -20.3776   20.7879 H   0  0  0  0  0  0
  -31.0578  -21.8162   20.7248 H   0  0  0  0  0  0
  -27.1141  -24.1135   23.8649 H   0  0  0  0  0  0
  -28.8023  -23.7392   23.6927 H   0  0  0  0  0  0
  -29.1369  -25.6759   22.5742 H   0  0  0  0  0  0
  -27.4446  -26.0588   22.7263 H   0  0  0  0  0  0
  -26.5300  -22.8689   21.8417 H   0  0  0  0  0  0
  -27.5822  -21.8717   22.8061 H   0  0  0  0  0  0
  -26.9240  -24.9012   20.6614 H   0  0  0  0  0  0
  -29.0984  -15.9821   21.0322 H   0  0  0  0  0  0
  -31.8870  -18.0721   19.0171 H   0  0  0  0  0  0
  -32.1133  -16.3529   19.3045 H   0  0  0  0  0  0
  1 25  1  0  0  0
  1 30  2  0  0  0
  1 84  1  0  0  0
  2  3  1  0  0  0
  2 25  1  0  0  0
  2 87  1  0  0  0
  2 88  1  0  0  0
  3  4  1  0  0  0
  3 89  1  0  0  0
  3 90  1  0  0  0
  4  5  1  0  0  0
  4 91  1  0  0  0
  4 92  1  0  0  0
  5  6  1  0  0  0
  5 26  1  0  0  0
  5 93  1  0  0  0
  6 25  1  0  0  0
  6 94  1  0  0  0
  6 95  1  0  0  0
  7  8  2  0  0  0
  7 26  1  0  0  0
  7 29  1  0  0  0
  8  9  1  0  0  0
  8 22  1  0  0  0
  9 10  1  0  0  0
  9 27  2  0  0  0
 10 11  2  0  0  0
 10 15  1  0  0  0
 11 12  1  0  0  0
 11 96  1  0  0  0
 12 13  2  0  0  0
 12 97  1  0  0  0
 13 14  1  0  0  0
 13 31  1  0  0  0
 14 15  2  0  0  0
 14 98  1  0  0  0
 15 99  1  0  0  0
 16 17  2  0  0  0
 16 21  1  0  0  0
 16 31  1  0  0  0
 17 18  1  0  0  0
 17100  1  0  0  0
 18 19  2  0  0  0
 18101  1  0  0  0
 19 20  1  0  0  0
 19 24  1  0  0  0
 20 21  2  0  0  0
 20102  1  0  0  0
 21 23  1  0  0  0
 22 28  1  0  0  0
 22 32  2  0  0  0
 26 27  1  0  0  0
 28103  1  0  0  0
 28104  1  0  0  0
 29105  1  0  0  0
 29106  1  0  0  0
 33 34  1  0  0  0
 33 66  1  0  0  0
 33 70  2  0  0  0
 34 36  1  0  0  0
 34 59  1  0  0  0
 34107  1  0  0  0
 35 44  2  0  0  0
 35 45  1  0  0  0
 35 68  1  0  0  0
 36 56  1  0  0  0
 36108  1  0  0  0
 37 39  1  0  0  0
 37 47  1  0  0  0
 37 66  1  0  0  0
 37109  1  0  0  0
 38 43  2  0  0  0
 38 46  1  0  0  0
 38 47  1  0  0  0
 39 64  1  0  0  0
 39 67  2  0  0  0
 40 52  1  0  0  0
 40 53  2  0  0  0
 40 58  1  0  0  0
 41110  1  0  0  0
 41111  1  0  0  0
 41112  1  0  0  0
 41 48  1  0  0  0
 42 43  1  0  0  0
 42 66  1  0  0  0
 42113  1  0  0  0
 42114  1  0  0  0
 43 44  1  0  0  0
 44115  1  0  0  0
 45 46  2  0  0  0
 45116  1  0  0  0
 46117  1  0  0  0
 47118  1  0  0  0
 47119  1  0  0  0
 48 56  1  0  0  0
 48 65  1  0  0  0
 48120  1  0  0  0
 49 50  1  0  0  0
 49 53  1  0  0  0
 49 64  1  0  0  0
 49121  1  0  0  0
 50 51  1  0  0  0
 50122  1  0  0  0
 50123  1  0  0  0
 51 52  1  0  0  0
 51124  1  0  0  0
 51125  1  0  0  0
 52126  1  0  0  0
 52127  1  0  0  0
 53 54  1  0  0  0
 54 55  2  0  0  0
 54128  1  0  0  0
 55 57  1  0  0  0
 55129  1  0  0  0
 56 69  2  0  0  0
 57 58  2  0  0  0
 57130  1  0  0  0
 58131  1  0  0  0
 59 60  1  0  0  0
 59 61  1  0  0  0
 59 62  1  0  0  0
 60132  1  0  0  0
 60133  1  0  0  0
 60134  1  0  0  0
 61135  1  0  0  0
 61136  1  0  0  0
 61137  1  0  0  0
 62138  1  0  0  0
 62139  1  0  0  0
 62140  1  0  0  0
 63 65  1  0  0  0
 63141  1  0  0  0
 63142  1  0  0  0
 63143  1  0  0  0
 64144  1  0  0  0
 65145  1  0  0  0
 68 82  1  0  0  0
 71 73  2  0  0  0
 71 75  1  0  0  0
 71146  1  0  0  0
 72 74  1  0  0  0
 72 75  2  0  0  0
 72147  1  0  0  0
 73 76  1  0  0  0
 73148  1  0  0  0
 74 76  2  0  0  0
 74149  1  0  0  0
 75 78  1  0  0  0
 76 83  1  0  0  0
 77 82  1  0  0  0
 77 83  1  0  0  0
 77 86  2  0  0  0
 78 84  1  0  0  0
 78 85  2  0  0  0
 79 80  1  0  0  0
 79 81  1  0  0  0
 79150  1  0  0  0
 79151  1  0  0  0
 80 82  1  0  0  0
 80152  1  0  0  0
 80153  1  0  0  0
 81 83  1  0  0  0
 81154  1  0  0  0
 81155  1  0  0  0
 82156  1  0  0  0
 84157  1  0  0  0
 85158  1  0  0  0
 85159  1  0  0  0
M  CHG  1  85   1
M  ISO  4   1 100  68 101  82 101  84 100
M  END
> <chiral flag>
0

> <version>
0

> <s_m_source_file>
/data/baiqing/PycharmProjects/Reinvent-master-3.2/result/LINK_invent/BTK/process_docking_weight1_custom_product_contain_oxygen_bond_distance_aromatic_linkinvent_7_9_3/rearranged_h_0077.sdf

> <i_m_source_file_index>
11

> <r_mmod_Potential_Energy-OPLS-2005>
-9.35171222686768

> <r_mmod_Stretch_Energy-OPLS-2005>
86.7402267456055

> <r_mmod_Bend_Energy-OPLS-2005>
144.957809448242

> <r_mmod_Torsional_Energy-OPLS-2005>
301.7373046875

> <r_mmod_Improper_Torsional_Energy-OPLS-2005>
7.66222524642944

> <r_mmod_Van_der_Waal_Energy-OPLS-2005>
178.695434570312

> <r_mmod_Electrostatic_Energy-OPLS-2005>
-338.78955078125

> <r_mmod_Solvation_Energy-OPLS-2005>
-444.564178466797

> <b_mmod_Minimization_Converged-OPLS-2005>
0

> <r_mmod_RMS_Derivative-OPLS-2005>
1.14540100097656

$$$$
11
                    3D
 Structure written by MMmdl.
158167  0  0  1  0            999 V2000
  -30.6132  -14.6633   20.5062 C   0  0  0  0  0  0
  -30.4417  -12.4084   19.4595 C   0  0  0  0  0  0
  -29.5116  -12.5153   18.2294 C   0  0  0  0  0  0
  -28.0345  -12.3493   18.6391 C   0  0  0  0  0  0
  -27.6546  -13.2191   19.8669 C   0  0  2  0  0  0
  -28.6983  -13.0766   20.9983 C   0  0  0  0  0  0
  -25.2536  -13.8150   20.5627 C   0  0  0  0  0  0
  -24.1822  -13.0422   20.9189 C   0  0  0  0  0  0
  -24.6401  -11.6900   20.8751 C   0  0  0  0  0  0
  -23.9064  -10.4289   21.0411 C   0  0  0  0  0  0
  -24.3612   -9.4203   21.9185 C   0  0  0  0  0  0
  -23.6287   -8.2239   22.0751 C   0  0  0  0  0  0
  -22.4267   -8.0284   21.3542 C   0  0  0  0  0  0
  -21.9905   -9.0257   20.4640 C   0  0  0  0  0  0
  -22.7238  -10.2135   20.3054 C   0  0  0  0  0  0
  -21.6850   -6.0741   22.5283 C   0  0  0  0  0  0
  -21.4012   -6.5643   23.8218 C   0  0  0  0  0  0
  -21.3656   -5.6792   24.9178 C   0  0  0  0  0  0
  -21.6043   -4.3055   24.7224 C   0  0  0  0  0  0
  -21.8819   -3.8150   23.4342 C   0  0  0  0  0  0
  -21.9189   -4.6968   22.3401 C   0  0  0  0  0  0
  -22.7848  -13.5218   21.1853 C   0  0  0  0  0  0
  -22.1652   -4.2155   21.0978 F   0  0  0  0  0  0
  -21.5628   -3.4535   25.7734 F   0  0  0  0  0  0
  -30.0140  -13.4294   20.4394 N   0  0  0  0  0  0
  -26.2992  -12.9353   20.3323 N   0  0  0  0  0  0
  -25.9333  -11.6506   20.5772 N   0  0  0  0  0  0
  -22.0483  -12.8218   22.0413 N   0  0  0  0  0  0
  -25.4180  -15.1853   20.3900 N   0  0  0  0  0  0
  -31.7648  -14.8332   20.0939 O   0  0  0  0  0  0
  -21.6628   -6.8883   21.4245 O   0  0  0  0  0  0
  -22.3538  -14.5523   20.6700 O   0  0  0  0  0  0
  -24.6273  -31.8588   23.2021 C   0  0  0  0  0  0
  -25.9119  -32.4771   23.8356 C   0  0  1  0  0  0
  -27.2237  -27.3109   20.1293 C   0  0  0  0  0  0
  -25.5933  -33.8572   24.2287 N   0  0  0  0  0  0
  -23.4215  -30.4820   21.5442 C   0  0  2  0  0  0
  -24.8704  -28.9350   20.1117 C   0  0  0  0  0  0
  -22.7479  -29.4621   22.4932 C   0  0  0  0  0  0
  -18.0283  -28.1386   22.8481 C   0  0  0  0  0  0
  -24.1488  -36.7289   23.2640 C   0  0  0  0  0  0
  -25.9633  -30.7884   21.3739 C   0  0  0  0  0  0
  -26.0391  -29.4140   20.7185 C   0  0  0  0  0  0
  -27.2220  -28.6144   20.7161 C   0  0  0  0  0  0
  -26.0391  -26.8916   19.4859 C   0  0  0  0  0  0
  -24.8725  -27.6793   19.4845 C   0  0  0  0  0  0
  -23.6378  -29.8158   20.1598 C   0  0  0  0  0  0
  -25.4111  -36.3079   24.0336 C   0  0  1  0  0  0
  -20.5886  -28.3691   23.1280 C   0  0  2  0  0  0
  -20.6772  -26.9415   22.5408 C   0  0  0  0  0  0
  -19.5748  -26.6388   21.5211 C   0  0  0  0  0  0
  -18.1928  -26.7929   22.1619 C   0  0  0  0  0  0
  -19.1537  -28.8855   23.2872 C   0  0  0  0  0  0
  -18.9461  -30.1457   23.8888 C   0  0  0  0  0  0
  -17.6461  -30.6586   24.0562 C   0  0  0  0  0  0
  -25.9051  -34.9448   23.5112 C   0  0  0  0  0  0
  -16.5350  -29.9085   23.6334 C   0  0  0  0  0  0
  -16.7271  -28.6505   23.0350 C   0  0  0  0  0  0
  -26.4503  -31.6578   25.0724 C   0  0  0  0  0  0
  -25.3739  -31.3713   26.1450 C   0  0  0  0  0  0
  -27.0349  -30.3002   24.6178 C   0  0  0  0  0  0
  -27.6063  -32.4313   25.7492 C   0  0  0  0  0  0
  -27.5579  -37.1800   24.8466 C   0  0  0  0  0  0
  -21.4191  -29.3041   22.3671 N   0  0  0  0  0  0
  -26.4290  -37.3775   23.9412 N   0  0  0  0  0  0
  -24.6894  -31.0603   22.0966 N   0  0  0  0  0  0
  -23.4201  -28.8168   23.3021 O   0  0  0  0  0  0
  -28.3190  -26.4336   20.1633 O   0  0  0  0  0  0
  -26.5613  -34.8917   22.4674 O   0  0  0  0  0  0
  -23.5435  -32.1385   23.7348 O   0  0  0  0  0  0
  -28.8171  -19.3952   21.2348 C   0  0  0  0  0  0
  -30.7469  -17.8706   19.9140 C   0  0  0  0  0  0
  -28.8882  -17.9773   21.4276 C   0  0  0  0  0  0
  -29.6946  -20.1117   20.3766 C   0  0  0  0  0  0
  -29.8511  -17.1632   20.7587 C   0  0  0  0  0  0
  -30.6761  -19.2879   19.7279 C   0  0  0  0  0  0
  -28.6960  -22.5272   20.7101 C   0  0  0  0  0  0
  -28.8952  -23.8163   20.2973 C   0  0  0  0  0  0
  -30.0285  -23.7299   19.4040 C   0  0  0  0  0  0
  -30.5939  -24.7517   18.7416 C   0  0  0  0  0  0
  -30.5044  -22.2836   19.3152 C   0  0  0  0  0  0
  -27.8963  -17.3326   22.3812 C   0  0  0  0  0  0
  -28.0569  -25.0832   20.7314 C   0  0  0  0  0  0
  -29.5845  -21.5513   20.1908 N   0  0  0  0  0  0
  -29.8182  -15.6994   20.9349 N   0  0  0  0  0  0
  -31.5856  -19.8394   18.8872 F   0  0  0  0  0  0
  -31.4825  -12.5384   19.1579 H   0  0  0  0  0  0
  -30.3815  -11.4123   19.9010 H   0  0  0  0  0  0
  -29.7808  -11.7631   17.4865 H   0  0  0  0  0  0
  -29.6503  -13.4841   17.7469 H   0  0  0  0  0  0
  -27.8726  -11.2957   18.8695 H   0  0  0  0  0  0
  -27.3803  -12.5793   17.7975 H   0  0  0  0  0  0
  -27.6728  -14.2553   19.5286 H   0  0  0  0  0  0
  -28.7140  -12.0535   21.3776 H   0  0  0  0  0  0
  -28.4357  -13.7029   21.8520 H   0  0  0  0  0  0
  -25.2756   -9.5680   22.4761 H   0  0  0  0  0  0
  -23.9993   -7.4626   22.7464 H   0  0  0  0  0  0
  -21.0837   -8.8785   19.8942 H   0  0  0  0  0  0
  -22.3703  -10.9675   19.6162 H   0  0  0  0  0  0
  -21.2007   -7.6153   23.9725 H   0  0  0  0  0  0
  -21.1474   -6.0519   25.9082 H   0  0  0  0  0  0
  -22.0599   -2.7613   23.2837 H   0  0  0  0  0  0
  -22.4089  -11.9878   22.4807 H   0  0  0  0  0  0
  -21.1107  -13.1259   22.2616 H   0  0  0  0  0  0
  -24.6350  -15.8257   20.4621 H   0  0  0  0  0  0
  -26.2447  -15.6134   19.9935 H   0  0  0  0  0  0
  -26.7187  -32.5444   23.1105 H   0  0  0  0  0  0
  -25.0097  -33.9713   25.0445 H   0  0  0  0  0  0
  -22.7157  -31.3026   21.3996 H   0  0  0  0  0  0
  -23.3752  -35.9619   23.3301 H   0  0  0  0  0  0
  -24.3583  -36.8905   22.2054 H   0  0  0  0  0  0
  -23.7237  -37.6493   23.6655 H   0  0  0  0  0  0
  -26.0940  -31.5503   20.6042 H   0  0  0  0  0  0
  -26.8437  -30.8390   22.0030 H   0  0  0  0  0  0
  -28.1181  -28.9761   21.2009 H   0  0  0  0  0  0
  -26.0053  -25.9321   18.9894 H   0  0  0  0  0  0
  -23.9794  -27.3098   18.9996 H   0  0  0  0  0  0
  -23.7568  -30.5913   19.4021 H   0  0  0  0  0  0
  -22.7583  -29.2445   19.8582 H   0  0  0  0  0  0
  -25.1288  -36.1930   25.0830 H   0  0  0  0  0  0
  -20.9977  -28.3263   24.1402 H   0  0  0  0  0  0
  -20.5672  -26.2304   23.3607 H   0  0  0  0  0  0
  -21.6638  -26.7441   22.1204 H   0  0  0  0  0  0
  -19.6910  -25.6297   21.1245 H   0  0  0  0  0  0
  -19.6693  -27.3194   20.6736 H   0  0  0  0  0  0
  -17.4202  -26.6676   21.4016 H   0  0  0  0  0  0
  -18.0328  -26.0070   22.9016 H   0  0  0  0  0  0
  -19.7939  -30.7272   24.2254 H   0  0  0  0  0  0
  -17.5019  -31.6265   24.5165 H   0  0  0  0  0  0
  -15.5351  -30.2985   23.7664 H   0  0  0  0  0  0
  -15.8670  -28.0822   22.7066 H   0  0  0  0  0  0
  -24.5920  -30.7051   25.7781 H   0  0  0  0  0  0
  -24.8919  -32.2873   26.4873 H   0  0  0  0  0  0
  -25.8070  -30.8898   27.0227 H   0  0  0  0  0  0
  -26.2920  -29.6746   24.1212 H   0  0  0  0  0  0
  -27.4055  -29.7262   25.4682 H   0  0  0  0  0  0
  -27.8789  -30.4284   23.9396 H   0  0  0  0  0  0
  -27.2672  -33.3616   26.2059 H   0  0  0  0  0  0
  -28.3877  -32.6864   25.0321 H   0  0  0  0  0  0
  -28.0728  -31.8442   26.5414 H   0  0  0  0  0  0
  -28.2594  -38.0099   24.7515 H   0  0  0  0  0  0
  -28.1077  -36.2630   24.6286 H   0  0  0  0  0  0
  -27.2301  -37.1444   25.8871 H   0  0  0  0  0  0
  -20.9374  -29.8768   21.6880 H   0  0  0  0  0  0
  -26.0171  -38.2852   24.1406 H   0  0  0  0  0  0
  -28.0565  -19.9469   21.7659 H   0  0  0  0  0  0
  -31.5071  -17.3299   19.3711 H   0  0  0  0  0  0
  -27.9275  -22.1936   21.3947 H   0  0  0  0  0  0
  -30.2317  -25.7648   18.8256 H   0  0  0  0  0  0
  -31.4425  -24.5851   18.0939 H   0  0  0  0  0  0
  -31.5345  -22.2032   19.6664 H   0  0  0  0  0  0
  -30.4446  -21.9286   18.2852 H   0  0  0  0  0  0
  -28.4173  -16.7464   23.1389 H   0  0  0  0  0  0
  -27.2187  -16.6733   21.8412 H   0  0  0  0  0  0
  -27.2921  -18.0769   22.9004 H   0  0  0  0  0  0
  -28.1926  -25.1807   21.8089 H   0  0  0  0  0  0
  -27.0130  -24.7967   20.6126 H   0  0  0  0  0  0
  -28.9677  -15.3622   21.3580 H   0  0  0  0  0  0
  1 25  1  0  0  0
  1 30  2  0  0  0
  1 85  1  0  0  0
  2  3  1  0  0  0
  2 25  1  0  0  0
  2 87  1  0  0  0
  2 88  1  0  0  0
  3  4  1  0  0  0
  3 89  1  0  0  0
  3 90  1  0  0  0
  4  5  1  0  0  0
  4 91  1  0  0  0
  4 92  1  0  0  0
  5  6  1  0  0  0
  5 26  1  0  0  0
  5 93  1  0  0  0
  6 25  1  0  0  0
  6 94  1  0  0  0
  6 95  1  0  0  0
  7  8  2  0  0  0
  7 26  1  0  0  0
  7 29  1  0  0  0
  8  9  1  0  0  0
  8 22  1  0  0  0
  9 10  1  0  0  0
  9 27  2  0  0  0
 10 11  2  0  0  0
 10 15  1  0  0  0
 11 12  1  0  0  0
 11 96  1  0  0  0
 12 13  2  0  0  0
 12 97  1  0  0  0
 13 14  1  0  0  0
 13 31  1  0  0  0
 14 15  2  0  0  0
 14 98  1  0  0  0
 15 99  1  0  0  0
 16 17  2  0  0  0
 16 21  1  0  0  0
 16 31  1  0  0  0
 17 18  1  0  0  0
 17100  1  0  0  0
 18 19  2  0  0  0
 18101  1  0  0  0
 19 20  1  0  0  0
 19 24  1  0  0  0
 20 21  2  0  0  0
 20102  1  0  0  0
 21 23  1  0  0  0
 22 28  1  0  0  0
 22 32  2  0  0  0
 26 27  1  0  0  0
 28103  1  0  0  0
 28104  1  0  0  0
 29105  1  0  0  0
 29106  1  0  0  0
 33 34  1  0  0  0
 33 66  1  0  0  0
 33 70  2  0  0  0
 34 36  1  0  0  0
 34 59  1  0  0  0
 34107  1  0  0  0
 35 44  2  0  0  0
 35 45  1  0  0  0
 35 68  1  0  0  0
 36 56  1  0  0  0
 36108  1  0  0  0
 37 39  1  0  0  0
 37 47  1  0  0  0
 37 66  1  0  0  0
 37109  1  0  0  0
 38 43  2  0  0  0
 38 46  1  0  0  0
 38 47  1  0  0  0
 39 64  1  0  0  0
 39 67  2  0  0  0
 40 52  1  0  0  0
 40 53  2  0  0  0
 40 58  1  0  0  0
 41110  1  0  0  0
 41111  1  0  0  0
 41112  1  0  0  0
 41 48  1  0  0  0
 42 43  1  0  0  0
 42 66  1  0  0  0
 42113  1  0  0  0
 42114  1  0  0  0
 43 44  1  0  0  0
 44115  1  0  0  0
 45 46  2  0  0  0
 45116  1  0  0  0
 46117  1  0  0  0
 47118  1  0  0  0
 47119  1  0  0  0
 48 56  1  0  0  0
 48 65  1  0  0  0
 48120  1  0  0  0
 49 50  1  0  0  0
 49 53  1  0  0  0
 49 64  1  0  0  0
 49121  1  0  0  0
 50 51  1  0  0  0
 50122  1  0  0  0
 50123  1  0  0  0
 51 52  1  0  0  0
 51124  1  0  0  0
 51125  1  0  0  0
 52126  1  0  0  0
 52127  1  0  0  0
 53 54  1  0  0  0
 54 55  2  0  0  0
 54128  1  0  0  0
 55 57  1  0  0  0
 55129  1  0  0  0
 56 69  2  0  0  0
 57 58  2  0  0  0
 57130  1  0  0  0
 58131  1  0  0  0
 59 60  1  0  0  0
 59 61  1  0  0  0
 59 62  1  0  0  0
 60132  1  0  0  0
 60133  1  0  0  0
 60134  1  0  0  0
 61135  1  0  0  0
 61136  1  0  0  0
 61137  1  0  0  0
 62138  1  0  0  0
 62139  1  0  0  0
 62140  1  0  0  0
 63 65  1  0  0  0
 63141  1  0  0  0
 63142  1  0  0  0
 63143  1  0  0  0
 64144  1  0  0  0
 65145  1  0  0  0
 68 83  1  0  0  0
 71 73  2  0  0  0
 71 74  1  0  0  0
 71146  1  0  0  0
 72 75  2  0  0  0
 72 76  1  0  0  0
 72147  1  0  0  0
 73 75  1  0  0  0
 73 82  1  0  0  0
 74 76  2  0  0  0
 74 84  1  0  0  0
 75 85  1  0  0  0
 76 86  1  0  0  0
 77 78  2  0  0  0
 77 84  1  0  0  0
 77148  1  0  0  0
 78 79  1  0  0  0
 78 83  1  0  0  0
 79 80  2  0  0  0
 79 81  1  0  0  0
 80149  1  0  0  0
 80150  1  0  0  0
 81 84  1  0  0  0
 81151  1  0  0  0
 81152  1  0  0  0
 82153  1  0  0  0
 82154  1  0  0  0
 82155  1  0  0  0
 83156  1  0  0  0
 83157  1  0  0  0
 85158  1  0  0  0
M  ISO  4   1 100  68 101  83 101  85 100
M  END
> <chiral flag>
0

> <version>
0

> <s_m_source_file>
/data/baiqing/PycharmProjects/Reinvent-master-3.2/result/LINK_invent/BTK/process_docking_weight1_custom_product_contain_oxygen_bond_distance_aromatic_linkinvent_7_9_3/rearranged_h_0077.sdf

> <i_m_source_file_index>
12

> <r_mmod_Potential_Energy-OPLS-2005>
194.481246948242

> <r_mmod_Stretch_Energy-OPLS-2005>
86.9815063476562

> <r_mmod_Bend_Energy-OPLS-2005>
235.694152832031

> <r_mmod_Torsional_Energy-OPLS-2005>
214.714401245117

> <r_mmod_Improper_Torsional_Energy-OPLS-2005>
3.70105290412903

> <r_mmod_Van_der_Waal_Energy-OPLS-2005>
143.541320800781

> <r_mmod_Electrostatic_Energy-OPLS-2005>
-343.212707519531

> <r_mmod_Solvation_Energy-OPLS-2005>
-202.103530883789

> <b_mmod_Minimization_Converged-OPLS-2005>
0

> <r_mmod_RMS_Derivative-OPLS-2005>
0.753326833248138

$$$$
12
                    3D
 Structure written by MMmdl.
158166  0  0  1  0            999 V2000
  -30.7270  -14.3873   20.6894 C   0  0  0  0  0  0
  -30.4342  -12.2967   19.3954 C   0  0  0  0  0  0
  -29.4971  -12.5234   18.1915 C   0  0  0  0  0  0
  -28.0165  -12.3853   18.6002 C   0  0  0  0  0  0
  -27.6716  -13.1964   19.8765 C   0  0  2  0  0  0
  -28.7051  -12.9120   20.9879 C   0  0  0  0  0  0
  -25.2644  -13.8132   20.5618 C   0  0  0  0  0  0
  -24.1880  -13.0435   20.9132 C   0  0  0  0  0  0
  -24.6399  -11.6891   20.8678 C   0  0  0  0  0  0
  -23.9029  -10.4305   21.0389 C   0  0  0  0  0  0
  -24.3592   -9.4227   21.9173 C   0  0  0  0  0  0
  -23.6281   -8.2247   22.0749 C   0  0  0  0  0  0
  -22.4269   -8.0257   21.3533 C   0  0  0  0  0  0
  -21.9873   -9.0239   20.4653 C   0  0  0  0  0  0
  -22.7194  -10.2133   20.3053 C   0  0  0  0  0  0
  -21.6857   -6.0708   22.5286 C   0  0  0  0  0  0
  -21.4011   -6.5628   23.8210 C   0  0  0  0  0  0
  -21.3659   -5.6788   24.9179 C   0  0  0  0  0  0
  -21.6041   -4.3040   24.7229 C   0  0  0  0  0  0
  -21.8827   -3.8120   23.4350 C   0  0  0  0  0  0
  -21.9187   -4.6934   22.3403 C   0  0  0  0  0  0
  -22.7909  -13.5258   21.1808 C   0  0  0  0  0  0
  -22.1673   -4.2123   21.0982 F   0  0  0  0  0  0
  -21.5630   -3.4526   25.7732 F   0  0  0  0  0  0
  -30.0531  -13.2271   20.4670 N   0  0  0  0  0  0
  -26.3073  -12.9285   20.3305 N   0  0  0  0  0  0
  -25.9317  -11.6446   20.5678 N   0  0  0  0  0  0
  -22.0523  -12.8290   22.0379 N   0  0  0  0  0  0
  -25.4400  -15.1850   20.4050 N   0  0  0  0  0  0
  -31.7423  -14.7151   20.0673 O   0  0  0  0  0  0
  -21.6648   -6.8849   21.4243 O   0  0  0  0  0  0
  -22.3598  -14.5564   20.6651 O   0  0  0  0  0  0
  -24.6096  -31.8711   23.2127 C   0  0  0  0  0  0
  -25.9006  -32.4834   23.8406 C   0  0  1  0  0  0
  -27.2443  -27.4595   20.0944 C   0  0  0  0  0  0
  -25.5861  -33.8633   24.2330 N   0  0  0  0  0  0
  -23.3983  -30.4945   21.5506 C   0  0  2  0  0  0
  -24.8491  -28.9597   20.1201 C   0  0  0  0  0  0
  -22.7386  -29.4685   22.4996 C   0  0  0  0  0  0
  -18.0264  -28.1369   22.8499 C   0  0  0  0  0  0
  -24.1474  -36.7340   23.2656 C   0  0  0  0  0  0
  -25.9261  -30.8392   21.3693 C   0  0  0  0  0  0
  -26.0047  -29.4737   20.7217 C   0  0  0  0  0  0
  -27.2055  -28.7288   20.7163 C   0  0  0  0  0  0
  -26.0779  -26.9589   19.4842 C   0  0  0  0  0  0
  -24.8776  -27.6968   19.5034 C   0  0  0  0  0  0
  -23.6084  -29.8254   20.1645 C   0  0  0  0  0  0
  -25.4095  -36.3123   24.0344 C   0  0  1  0  0  0
  -20.5856  -28.3660   23.1329 C   0  0  2  0  0  0
  -20.6740  -26.9389   22.5453 C   0  0  0  0  0  0
  -19.5724  -26.6359   21.5241 C   0  0  0  0  0  0
  -18.1897  -26.7925   22.1620 C   0  0  0  0  0  0
  -19.1517  -28.8825   23.2908 C   0  0  0  0  0  0
  -18.9459  -30.1430   23.8918 C   0  0  0  0  0  0
  -17.6461  -30.6586   24.0550 C   0  0  0  0  0  0
  -25.9016  -34.9483   23.5139 C   0  0  0  0  0  0
  -16.5344  -29.9092   23.6313 C   0  0  0  0  0  0
  -16.7256  -28.6501   23.0352 C   0  0  0  0  0  0
  -26.4451  -31.6638   25.0748 C   0  0  0  0  0  0
  -25.3733  -31.3771   26.1524 C   0  0  0  0  0  0
  -27.0311  -30.3071   24.6173 C   0  0  0  0  0  0
  -27.6039  -32.4379   25.7476 C   0  0  0  0  0  0
  -27.5579  -37.1821   24.8451 C   0  0  0  0  0  0
  -21.4128  -29.3019   22.3720 N   0  0  0  0  0  0
  -26.4286  -37.3800   23.9396 N   0  0  0  0  0  0
  -24.6613  -31.0832   22.1014 N   0  0  0  0  0  0
  -23.4183  -28.8251   23.3046 O   0  0  0  0  0  0
  -28.3837  -26.6931   20.0227 O   0  0  0  0  0  0
  -26.5610  -34.8950   22.4725 O   0  0  0  0  0  0
  -23.5291  -32.1467   23.7518 O   0  0  0  0  0  0
  -30.8715  -18.8320   21.6345 C   0  0  0  0  0  0
  -28.7706  -18.3472   22.7660 C   0  0  0  0  0  0
  -31.0583  -17.4483   21.3902 C   0  0  0  0  0  0
  -28.9598  -16.9731   22.5309 C   0  0  0  0  0  0
  -29.7294  -19.2909   22.3348 C   0  0  0  0  0  0
  -30.1028  -16.5072   21.8474 C   0  0  0  0  0  0
  -29.5229  -20.7109   22.6762 C   0  0  0  0  0  0
  -30.1694  -25.4179   21.1076 C   0  0  0  0  0  0
  -29.4488  -23.1104   21.9381 C   0  0  0  0  0  0
  -29.7426  -23.9988   20.7141 C   0  0  0  0  0  0
  -29.0531  -26.4539   21.2608 C   0  0  0  0  0  0
  -31.3886  -25.7394   21.2649 N   0  0  0  0  0  0
  -30.2236  -15.1003   21.7083 N   0  0  0  0  0  0
  -29.7005  -21.6956   21.7625 N   0  0  0  0  0  0
  -29.1241  -20.9752   23.9268 N   0  3  0  0  0  0
  -28.9947  -23.5686   22.9967 O   0  0  0  0  0  0
  -31.4766  -12.4202   19.0950 H   0  0  0  0  0  0
  -30.3478  -11.2686   19.7525 H   0  0  0  0  0  0
  -29.7324  -11.8152   17.3968 H   0  0  0  0  0  0
  -29.6686  -13.5167   17.7747 H   0  0  0  0  0  0
  -27.8144  -11.3276   18.7680 H   0  0  0  0  0  0
  -27.3675  -12.6888   17.7770 H   0  0  0  0  0  0
  -27.7357  -14.2545   19.6174 H   0  0  0  0  0  0
  -28.6709  -11.8587   21.2735 H   0  0  0  0  0  0
  -28.4298  -13.4518   21.8937 H   0  0  0  0  0  0
  -25.2737   -9.5711   22.4735 H   0  0  0  0  0  0
  -23.9996   -7.4640   22.7471 H   0  0  0  0  0  0
  -21.0777   -8.8736   19.8984 H   0  0  0  0  0  0
  -22.3617  -10.9650   19.6147 H   0  0  0  0  0  0
  -21.2029   -7.6139   23.9699 H   0  0  0  0  0  0
  -21.1477   -6.0524   25.9087 H   0  0  0  0  0  0
  -22.0607   -2.7570   23.2851 H   0  0  0  0  0  0
  -22.4116  -11.9977   22.4827 H   0  0  0  0  0  0
  -21.1156  -13.1367   22.2569 H   0  0  0  0  0  0
  -24.6751  -15.8413   20.5141 H   0  0  0  0  0  0
  -26.2922  -15.6150   20.0679 H   0  0  0  0  0  0
  -26.7086  -32.5557   23.1178 H   0  0  0  0  0  0
  -24.9901  -33.9770   25.0389 H   0  0  0  0  0  0
  -22.6866  -31.3106   21.4105 H   0  0  0  0  0  0
  -23.3724  -35.9685   23.3335 H   0  0  0  0  0  0
  -24.3568  -36.8934   22.2065 H   0  0  0  0  0  0
  -23.7232  -37.6559   23.6663 H   0  0  0  0  0  0
  -26.0471  -31.6072   20.6044 H   0  0  0  0  0  0
  -26.8082  -30.8849   21.9956 H   0  0  0  0  0  0
  -28.0981  -29.1362   21.1688 H   0  0  0  0  0  0
  -26.0985  -25.9956   18.9952 H   0  0  0  0  0  0
  -23.9920  -27.2942   19.0327 H   0  0  0  0  0  0
  -23.7151  -30.5996   19.4040 H   0  0  0  0  0  0
  -22.7316  -29.2453   19.8698 H   0  0  0  0  0  0
  -25.1266  -36.2012   25.0836 H   0  0  0  0  0  0
  -20.9948  -28.3240   24.1445 H   0  0  0  0  0  0
  -20.5617  -26.2278   23.3645 H   0  0  0  0  0  0
  -21.6617  -26.7403   22.1264 H   0  0  0  0  0  0
  -19.6861  -25.6271   21.1260 H   0  0  0  0  0  0
  -19.6667  -27.3183   20.6786 H   0  0  0  0  0  0
  -17.4173  -26.6720   21.4001 H   0  0  0  0  0  0
  -18.0261  -26.0049   22.8997 H   0  0  0  0  0  0
  -19.7945  -30.7214   24.2322 H   0  0  0  0  0  0
  -17.5028  -31.6260   24.5156 H   0  0  0  0  0  0
  -15.5347  -30.2986   23.7614 H   0  0  0  0  0  0
  -15.8674  -28.0797   22.7067 H   0  0  0  0  0  0
  -24.5799  -30.7251   25.7854 H   0  0  0  0  0  0
  -24.9069  -32.2963   26.5096 H   0  0  0  0  0  0
  -25.8068  -30.8808   27.0219 H   0  0  0  0  0  0
  -26.2879  -29.6810   24.1231 H   0  0  0  0  0  0
  -27.4062  -29.7340   25.4674 H   0  0  0  0  0  0
  -27.8718  -30.4380   23.9350 H   0  0  0  0  0  0
  -27.2634  -33.3607   26.2183 H   0  0  0  0  0  0
  -28.3746  -32.7086   25.0251 H   0  0  0  0  0  0
  -28.0859  -31.8479   26.5279 H   0  0  0  0  0  0
  -28.2612  -38.0109   24.7482 H   0  0  0  0  0  0
  -28.1058  -36.2645   24.6269 H   0  0  0  0  0  0
  -27.2319  -37.1454   25.8863 H   0  0  0  0  0  0
  -20.9294  -29.8762   21.6960 H   0  0  0  0  0  0
  -26.0195  -38.2882   24.1413 H   0  0  0  0  0  0
  -31.6322  -19.5274   21.3084 H   0  0  0  0  0  0
  -27.8822  -18.6657   23.2941 H   0  0  0  0  0  0
  -31.9503  -17.1211   20.8754 H   0  0  0  0  0  0
  -28.2119  -16.2782   22.8901 H   0  0  0  0  0  0
  -30.5248  -23.5473   20.1046 H   0  0  0  0  0  0
  -28.8488  -24.0470   20.0924 H   0  0  0  0  0  0
  -29.4839  -27.3848   21.6352 H   0  0  0  0  0  0
  -28.3387  -26.1102   22.0102 H   0  0  0  0  0  0
  -32.0193  -24.9584   21.1182 H   0  0  0  0  0  0
  -29.5300  -14.5765   22.2158 H   0  0  0  0  0  0
  -30.0276  -21.3267   20.8818 H   0  0  0  0  0  0
  -29.0613  -20.2348   24.6072 H   0  0  0  0  0  0
  -28.9122  -21.9309   24.1879 H   0  0  0  0  0  0
  1 25  1  0  0  0
  1 30  2  0  0  0
  1 83  1  0  0  0
  2  3  1  0  0  0
  2 25  1  0  0  0
  2 87  1  0  0  0
  2 88  1  0  0  0
  3  4  1  0  0  0
  3 89  1  0  0  0
  3 90  1  0  0  0
  4  5  1  0  0  0
  4 91  1  0  0  0
  4 92  1  0  0  0
  5  6  1  0  0  0
  5 26  1  0  0  0
  5 93  1  0  0  0
  6 25  1  0  0  0
  6 94  1  0  0  0
  6 95  1  0  0  0
  7  8  2  0  0  0
  7 26  1  0  0  0
  7 29  1  0  0  0
  8  9  1  0  0  0
  8 22  1  0  0  0
  9 10  1  0  0  0
  9 27  2  0  0  0
 10 11  2  0  0  0
 10 15  1  0  0  0
 11 12  1  0  0  0
 11 96  1  0  0  0
 12 13  2  0  0  0
 12 97  1  0  0  0
 13 14  1  0  0  0
 13 31  1  0  0  0
 14 15  2  0  0  0
 14 98  1  0  0  0
 15 99  1  0  0  0
 16 17  2  0  0  0
 16 21  1  0  0  0
 16 31  1  0  0  0
 17 18  1  0  0  0
 17100  1  0  0  0
 18 19  2  0  0  0
 18101  1  0  0  0
 19 20  1  0  0  0
 19 24  1  0  0  0
 20 21  2  0  0  0
 20102  1  0  0  0
 21 23  1  0  0  0
 22 28  1  0  0  0
 22 32  2  0  0  0
 26 27  1  0  0  0
 28103  1  0  0  0
 28104  1  0  0  0
 29105  1  0  0  0
 29106  1  0  0  0
 33 34  1  0  0  0
 33 66  1  0  0  0
 33 70  2  0  0  0
 34 36  1  0  0  0
 34 59  1  0  0  0
 34107  1  0  0  0
 35 44  2  0  0  0
 35 45  1  0  0  0
 35 68  1  0  0  0
 36 56  1  0  0  0
 36108  1  0  0  0
 37 39  1  0  0  0
 37 47  1  0  0  0
 37 66  1  0  0  0
 37109  1  0  0  0
 38 43  2  0  0  0
 38 46  1  0  0  0
 38 47  1  0  0  0
 39 64  1  0  0  0
 39 67  2  0  0  0
 40 52  1  0  0  0
 40 53  2  0  0  0
 40 58  1  0  0  0
 41110  1  0  0  0
 41111  1  0  0  0
 41112  1  0  0  0
 41 48  1  0  0  0
 42 43  1  0  0  0
 42 66  1  0  0  0
 42113  1  0  0  0
 42114  1  0  0  0
 43 44  1  0  0  0
 44115  1  0  0  0
 45 46  2  0  0  0
 45116  1  0  0  0
 46117  1  0  0  0
 47118  1  0  0  0
 47119  1  0  0  0
 48 56  1  0  0  0
 48 65  1  0  0  0
 48120  1  0  0  0
 49 50  1  0  0  0
 49 53  1  0  0  0
 49 64  1  0  0  0
 49121  1  0  0  0
 50 51  1  0  0  0
 50122  1  0  0  0
 50123  1  0  0  0
 51 52  1  0  0  0
 51124  1  0  0  0
 51125  1  0  0  0
 52126  1  0  0  0
 52127  1  0  0  0
 53 54  1  0  0  0
 54 55  2  0  0  0
 54128  1  0  0  0
 55 57  1  0  0  0
 55129  1  0  0  0
 56 69  2  0  0  0
 57 58  2  0  0  0
 57130  1  0  0  0
 58131  1  0  0  0
 59 60  1  0  0  0
 59 61  1  0  0  0
 59 62  1  0  0  0
 60132  1  0  0  0
 60133  1  0  0  0
 60134  1  0  0  0
 61135  1  0  0  0
 61136  1  0  0  0
 61137  1  0  0  0
 62138  1  0  0  0
 62139  1  0  0  0
 62140  1  0  0  0
 63 65  1  0  0  0
 63141  1  0  0  0
 63142  1  0  0  0
 63143  1  0  0  0
 64144  1  0  0  0
 65145  1  0  0  0
 68 81  1  0  0  0
 71 73  2  0  0  0
 71 75  1  0  0  0
 71146  1  0  0  0
 72 74  1  0  0  0
 72 75  2  0  0  0
 72147  1  0  0  0
 73 76  1  0  0  0
 73148  1  0  0  0
 74 76  2  0  0  0
 74149  1  0  0  0
 75 77  1  0  0  0
 76 83  1  0  0  0
 77 84  1  0  0  0
 77 85  2  0  0  0
 78 80  1  0  0  0
 78 81  1  0  0  0
 78 82  2  0  0  0
 79 80  1  0  0  0
 79 84  1  0  0  0
 79 86  2  0  0  0
 80150  1  0  0  0
 80151  1  0  0  0
 81152  1  0  0  0
 81153  1  0  0  0
 82154  1  0  0  0
 83155  1  0  0  0
 84156  1  0  0  0
 85157  1  0  0  0
 85158  1  0  0  0
M  CHG  1  85   1
M  ISO  4   1 100  68 101  81 101  83 100
M  END
> <chiral flag>
0

> <version>
0

> <s_m_source_file>
/data/baiqing/PycharmProjects/Reinvent-master-3.2/result/LINK_invent/BTK/process_docking_weight1_custom_product_contain_oxygen_bond_distance_aromatic_linkinvent_7_9_3/rearranged_h_0077.sdf

> <i_m_source_file_index>
13

> <r_mmod_Potential_Energy-OPLS-2005>
-312.20166015625

> <r_mmod_Stretch_Energy-OPLS-2005>
37.1218528747559

> <r_mmod_Bend_Energy-OPLS-2005>
108.53157043457

> <r_mmod_Torsional_Energy-OPLS-2005>
224.987854003906

> <r_mmod_Improper_Torsional_Energy-OPLS-2005>
4.4923038482666

> <r_mmod_Van_der_Waal_Energy-OPLS-2005>
165.556869506836

> <r_mmod_Electrostatic_Energy-OPLS-2005>
-387.368377685547

> <r_mmod_Solvation_Energy-OPLS-2005>
-473.269805908203

> <b_mmod_Minimization_Converged-OPLS-2005>
0

> <r_mmod_RMS_Derivative-OPLS-2005>
3.06687641143799

$$$$
13
                    3D
 Structure written by MMmdl.
158166  0  0  1  0            999 V2000
  -30.6486  -14.5461   20.5321 C   0  0  0  0  0  0
  -30.4378  -12.3416   19.4260 C   0  0  0  0  0  0
  -29.5019  -12.5038   18.2083 C   0  0  0  0  0  0
  -28.0231  -12.3509   18.6211 C   0  0  0  0  0  0
  -27.6588  -13.2025   19.8662 C   0  0  2  0  0  0
  -28.7044  -13.0068   20.9885 C   0  0  0  0  0  0
  -25.2591  -13.8143   20.5665 C   0  0  0  0  0  0
  -24.1842  -13.0429   20.9175 C   0  0  0  0  0  0
  -24.6389  -11.6894   20.8724 C   0  0  0  0  0  0
  -23.9053  -10.4286   21.0394 C   0  0  0  0  0  0
  -24.3613   -9.4206   21.9174 C   0  0  0  0  0  0
  -23.6293   -8.2241   22.0749 C   0  0  0  0  0  0
  -22.4275   -8.0278   21.3543 C   0  0  0  0  0  0
  -21.9902   -9.0246   20.4642 C   0  0  0  0  0  0
  -22.7224  -10.2127   20.3046 C   0  0  0  0  0  0
  -21.6853   -6.0728   22.5276 C   0  0  0  0  0  0
  -21.4015   -6.5635   23.8209 C   0  0  0  0  0  0
  -21.3660   -5.6788   24.9172 C   0  0  0  0  0  0
  -21.6043   -4.3051   24.7222 C   0  0  0  0  0  0
  -21.8823   -3.8142   23.4345 C   0  0  0  0  0  0
  -21.9196   -4.6956   22.3401 C   0  0  0  0  0  0
  -22.7868  -13.5236   21.1844 C   0  0  0  0  0  0
  -22.1664   -4.2143   21.0976 F   0  0  0  0  0  0
  -21.5631   -3.4536   25.7736 F   0  0  0  0  0  0
  -30.0288  -13.3347   20.4319 N   0  0  0  0  0  0
  -26.3013  -12.9298   20.3320 N   0  0  0  0  0  0
  -25.9313  -11.6466   20.5743 N   0  0  0  0  0  0
  -22.0512  -12.8229   22.0402 N   0  0  0  0  0  0
  -25.4318  -15.1859   20.4061 N   0  0  0  0  0  0
  -31.8073  -14.7368   20.1504 O   0  0  0  0  0  0
  -21.6645   -6.8871   21.4238 O   0  0  0  0  0  0
  -22.3554  -14.5544   20.6694 O   0  0  0  0  0  0
  -24.6196  -31.8650   23.2082 C   0  0  0  0  0  0
  -25.9071  -32.4807   23.8386 C   0  0  1  0  0  0
  -27.2365  -27.3970   20.0868 C   0  0  0  0  0  0
  -25.5913  -33.8609   24.2312 N   0  0  0  0  0  0
  -23.4093  -30.4902   21.5500 C   0  0  2  0  0  0
  -24.8551  -28.9536   20.1157 C   0  0  0  0  0  0
  -22.7438  -29.4649   22.4973 C   0  0  0  0  0  0
  -18.0276  -28.1377   22.8492 C   0  0  0  0  0  0
  -24.1487  -36.7310   23.2639 C   0  0  0  0  0  0
  -25.9445  -30.8179   21.3685 C   0  0  0  0  0  0
  -26.0216  -29.4509   20.7109 C   0  0  0  0  0  0
  -27.2142  -28.6805   20.6945 C   0  0  0  0  0  0
  -26.0362  -26.9188   19.5076 C   0  0  0  0  0  0
  -24.8588  -27.6866   19.5123 C   0  0  0  0  0  0
  -23.6200  -29.8254   20.1648 C   0  0  0  0  0  0
  -25.4110  -36.3104   24.0333 C   0  0  1  0  0  0
  -20.5874  -28.3673   23.1306 C   0  0  2  0  0  0
  -20.6766  -26.9406   22.5414 C   0  0  0  0  0  0
  -19.5744  -26.6383   21.5213 C   0  0  0  0  0  0
  -18.1924  -26.7921   22.1625 C   0  0  0  0  0  0
  -19.1527  -28.8840   23.2895 C   0  0  0  0  0  0
  -18.9451  -30.1445   23.8907 C   0  0  0  0  0  0
  -17.6453  -30.6583   24.0567 C   0  0  0  0  0  0
  -25.9041  -34.9470   23.5117 C   0  0  0  0  0  0
  -16.5345  -29.9085   23.6330 C   0  0  0  0  0  0
  -16.7264  -28.6501   23.0351 C   0  0  0  0  0  0
  -26.4484  -31.6599   25.0731 C   0  0  0  0  0  0
  -25.3741  -31.3719   26.1474 C   0  0  0  0  0  0
  -27.0317  -30.3033   24.6139 C   0  0  0  0  0  0
  -27.6051  -32.4329   25.7494 C   0  0  0  0  0  0
  -27.5579  -37.1812   24.8466 C   0  0  0  0  0  0
  -21.4161  -29.3039   22.3713 N   0  0  0  0  0  0
  -26.4294  -37.3791   23.9406 N   0  0  0  0  0  0
  -24.6763  -31.0723   22.0999 N   0  0  0  0  0  0
  -23.4194  -28.8185   23.3023 O   0  0  0  0  0  0
  -28.3806  -26.6042   20.1008 O   0  0  0  0  0  0
  -26.5606  -34.8925   22.4682 O   0  0  0  0  0  0
  -23.5377  -32.1416   23.7453 O   0  0  0  0  0  0
  -31.1552  -19.0610   21.4779 C   0  0  0  0  0  0
  -31.1215  -17.6458   21.3812 C   0  0  0  0  0  0
  -28.9354  -17.7997   20.3533 C   0  0  0  0  0  0
  -30.0848  -19.8750   21.0197 C   0  0  0  0  0  0
  -29.9925  -16.9894   20.8398 C   0  0  0  0  0  0
  -28.9798  -19.2164   20.4259 C   0  0  0  0  0  0
  -28.5332  -25.6627   19.0973 C   0  0  0  0  0  0
  -30.0938  -21.3717   21.3081 C   0  0  0  0  0  0
  -29.0605  -24.4098   19.1836 C   0  0  0  0  0  0
  -29.1099  -23.5540   17.9266 C   0  0  0  0  0  0
  -31.0491  -24.3141   20.6880 C   0  0  0  0  0  0
  -29.6382  -23.7394   20.4484 C   0  0  2  0  0  0
  -29.8182  -15.5600   20.8809 N   0  0  0  0  0  0
  -29.6699  -22.2469   20.3645 N   0  0  0  0  0  0
  -30.5270  -21.7564   22.3970 O   0  0  0  0  0  0
  -27.9244  -19.9298   19.9611 F   0  0  0  0  0  0
  -31.4786  -12.4666   19.1224 H   0  0  0  0  0  0
  -30.3634  -11.3339   19.8378 H   0  0  0  0  0  0
  -29.7528  -11.7701   17.4413 H   0  0  0  0  0  0
  -29.6547  -13.4840   17.7542 H   0  0  0  0  0  0
  -27.8460  -11.2955   18.8319 H   0  0  0  0  0  0
  -27.3704  -12.6071   17.7858 H   0  0  0  0  0  0
  -27.6910  -14.2443   19.5483 H   0  0  0  0  0  0
  -28.6975  -11.9734   21.3389 H   0  0  0  0  0  0
  -28.4620  -13.6131   21.8628 H   0  0  0  0  0  0
  -25.2758   -9.5690   22.4745 H   0  0  0  0  0  0
  -24.0005   -7.4634   22.7466 H   0  0  0  0  0  0
  -21.0833   -8.8755   19.8952 H   0  0  0  0  0  0
  -22.3672  -10.9664   19.6157 H   0  0  0  0  0  0
  -21.2007   -7.6143   23.9709 H   0  0  0  0  0  0
  -21.1480   -6.0519   25.9073 H   0  0  0  0  0  0
  -22.0604   -2.7604   23.2846 H   0  0  0  0  0  0
  -22.4132  -11.9892   22.4792 H   0  0  0  0  0  0
  -21.1130  -13.1249   22.2610 H   0  0  0  0  0  0
  -24.6626  -15.8392   20.5078 H   0  0  0  0  0  0
  -26.2724  -15.6203   20.0501 H   0  0  0  0  0  0
  -26.7142  -32.5503   23.1145 H   0  0  0  0  0  0
  -25.0068  -33.9768   25.0461 H   0  0  0  0  0  0
  -22.7001  -31.3088   21.4107 H   0  0  0  0  0  0
  -23.3742  -35.9651   23.3313 H   0  0  0  0  0  0
  -24.3578  -36.8914   22.2050 H   0  0  0  0  0  0
  -23.7248  -37.6521   23.6648 H   0  0  0  0  0  0
  -26.0659  -31.5844   20.6020 H   0  0  0  0  0  0
  -26.8289  -30.8666   21.9921 H   0  0  0  0  0  0
  -28.1136  -29.0608   21.1584 H   0  0  0  0  0  0
  -25.9900  -25.9368   19.0591 H   0  0  0  0  0  0
  -23.9598  -27.2911   19.0598 H   0  0  0  0  0  0
  -23.7341  -30.6014   19.4071 H   0  0  0  0  0  0
  -22.7419  -29.2502   19.8645 H   0  0  0  0  0  0
  -25.1291  -36.1961   25.0826 H   0  0  0  0  0  0
  -20.9967  -28.3235   24.1427 H   0  0  0  0  0  0
  -20.5668  -26.2285   23.3606 H   0  0  0  0  0  0
  -21.6637  -26.7445   22.1207 H   0  0  0  0  0  0
  -19.6909  -25.6296   21.1236 H   0  0  0  0  0  0
  -19.6678  -27.3199   20.6748 H   0  0  0  0  0  0
  -17.4198  -26.6673   21.4023 H   0  0  0  0  0  0
  -18.0324  -26.0055   22.9013 H   0  0  0  0  0  0
  -19.7928  -30.7258   24.2282 H   0  0  0  0  0  0
  -17.5009  -31.6266   24.5162 H   0  0  0  0  0  0
  -15.5346  -30.2990   23.7643 H   0  0  0  0  0  0
  -15.8664  -28.0820   22.7064 H   0  0  0  0  0  0
  -24.5905  -30.7079   25.7812 H   0  0  0  0  0  0
  -24.8947  -32.2882   26.4932 H   0  0  0  0  0  0
  -25.8084  -30.8878   27.0229 H   0  0  0  0  0  0
  -26.2872  -29.6795   24.1180 H   0  0  0  0  0  0
  -27.4055  -29.7275   25.4615 H   0  0  0  0  0  0
  -27.8724  -30.4338   23.9321 H   0  0  0  0  0  0
  -27.2660  -33.3615   26.2096 H   0  0  0  0  0  0
  -28.3845  -32.6912   25.0314 H   0  0  0  0  0  0
  -28.0740  -31.8445   26.5389 H   0  0  0  0  0  0
  -28.2610  -38.0098   24.7502 H   0  0  0  0  0  0
  -28.1062  -36.2630   24.6301 H   0  0  0  0  0  0
  -27.2300  -37.1477   25.8871 H   0  0  0  0  0  0
  -20.9327  -29.8774   21.6942 H   0  0  0  0  0  0
  -26.0178  -38.2869   24.1398 H   0  0  0  0  0  0
  -32.0078  -19.5296   21.9499 H   0  0  0  0  0  0
  -31.9451  -17.0699   21.7808 H   0  0  0  0  0  0
  -28.0532  -17.3386   19.9344 H   0  0  0  0  0  0
  -28.1691  -26.0453   18.1526 H   0  0  0  0  0  0
  -28.7975  -24.1159   17.0455 H   0  0  0  0  0  0
  -28.4464  -22.6933   18.0145 H   0  0  0  0  0  0
  -30.1252  -23.1991   17.7465 H   0  0  0  0  0  0
  -31.0249  -25.4045   20.7111 H   0  0  0  0  0  0
  -31.7396  -24.0181   19.8975 H   0  0  0  0  0  0
  -31.4730  -23.9951   21.6389 H   0  0  0  0  0  0
  -29.0014  -24.0210   21.2891 H   0  0  0  0  0  0
  -28.8740  -15.2469   21.0445 H   0  0  0  0  0  0
  -29.3159  -21.8403   19.5094 H   0  0  0  0  0  0
  1 25  1  0  0  0
  1 30  2  0  0  0
  1 83  1  0  0  0
  2  3  1  0  0  0
  2 25  1  0  0  0
  2 87  1  0  0  0
  2 88  1  0  0  0
  3  4  1  0  0  0
  3 89  1  0  0  0
  3 90  1  0  0  0
  4  5  1  0  0  0
  4 91  1  0  0  0
  4 92  1  0  0  0
  5  6  1  0  0  0
  5 26  1  0  0  0
  5 93  1  0  0  0
  6 25  1  0  0  0
  6 94  1  0  0  0
  6 95  1  0  0  0
  7  8  2  0  0  0
  7 26  1  0  0  0
  7 29  1  0  0  0
  8  9  1  0  0  0
  8 22  1  0  0  0
  9 10  1  0  0  0
  9 27  2  0  0  0
 10 11  2  0  0  0
 10 15  1  0  0  0
 11 12  1  0  0  0
 11 96  1  0  0  0
 12 13  2  0  0  0
 12 97  1  0  0  0
 13 14  1  0  0  0
 13 31  1  0  0  0
 14 15  2  0  0  0
 14 98  1  0  0  0
 15 99  1  0  0  0
 16 17  2  0  0  0
 16 21  1  0  0  0
 16 31  1  0  0  0
 17 18  1  0  0  0
 17100  1  0  0  0
 18 19  2  0  0  0
 18101  1  0  0  0
 19 20  1  0  0  0
 19 24  1  0  0  0
 20 21  2  0  0  0
 20102  1  0  0  0
 21 23  1  0  0  0
 22 28  1  0  0  0
 22 32  2  0  0  0
 26 27  1  0  0  0
 28103  1  0  0  0
 28104  1  0  0  0
 29105  1  0  0  0
 29106  1  0  0  0
 33 34  1  0  0  0
 33 66  1  0  0  0
 33 70  2  0  0  0
 34 36  1  0  0  0
 34 59  1  0  0  0
 34107  1  0  0  0
 35 44  2  0  0  0
 35 45  1  0  0  0
 35 68  1  0  0  0
 36 56  1  0  0  0
 36108  1  0  0  0
 37 39  1  0  0  0
 37 47  1  0  0  0
 37 66  1  0  0  0
 37109  1  0  0  0
 38 43  2  0  0  0
 38 46  1  0  0  0
 38 47  1  0  0  0
 39 64  1  0  0  0
 39 67  2  0  0  0
 40 52  1  0  0  0
 40 53  2  0  0  0
 40 58  1  0  0  0
 41110  1  0  0  0
 41111  1  0  0  0
 41112  1  0  0  0
 41 48  1  0  0  0
 42 43  1  0  0  0
 42 66  1  0  0  0
 42113  1  0  0  0
 42114  1  0  0  0
 43 44  1  0  0  0
 44115  1  0  0  0
 45 46  2  0  0  0
 45116  1  0  0  0
 46117  1  0  0  0
 47118  1  0  0  0
 47119  1  0  0  0
 48 56  1  0  0  0
 48 65  1  0  0  0
 48120  1  0  0  0
 49 50  1  0  0  0
 49 53  1  0  0  0
 49 64  1  0  0  0
 49121  1  0  0  0
 50 51  1  0  0  0
 50122  1  0  0  0
 50123  1  0  0  0
 51 52  1  0  0  0
 51124  1  0  0  0
 51125  1  0  0  0
 52126  1  0  0  0
 52127  1  0  0  0
 53 54  1  0  0  0
 54 55  2  0  0  0
 54128  1  0  0  0
 55 57  1  0  0  0
 55129  1  0  0  0
 56 69  2  0  0  0
 57 58  2  0  0  0
 57130  1  0  0  0
 58131  1  0  0  0
 59 60  1  0  0  0
 59 61  1  0  0  0
 59 62  1  0  0  0
 60132  1  0  0  0
 60133  1  0  0  0
 60134  1  0  0  0
 61135  1  0  0  0
 61136  1  0  0  0
 61137  1  0  0  0
 62138  1  0  0  0
 62139  1  0  0  0
 62140  1  0  0  0
 63 65  1  0  0  0
 63141  1  0  0  0
 63142  1  0  0  0
 63143  1  0  0  0
 64144  1  0  0  0
 65145  1  0  0  0
 68 77  1  0  0  0
 71 72  2  0  0  0
 71 74  1  0  0  0
 71146  1  0  0  0
 72 75  1  0  0  0
 72147  1  0  0  0
 73 75  2  0  0  0
 73 76  1  0  0  0
 73148  1  0  0  0
 74 76  2  0  0  0
 74 78  1  0  0  0
 75 83  1  0  0  0
 76 86  1  0  0  0
 77 79  2  0  0  0
 77149  1  0  0  0
 78 84  1  0  0  0
 78 85  2  0  0  0
 79 80  1  0  0  0
 79 82  1  0  0  0
 80150  1  0  0  0
 80151  1  0  0  0
 80152  1  0  0  0
 81153  1  0  0  0
 81154  1  0  0  0
 81155  1  0  0  0
 81 82  1  0  0  0
 82 84  1  0  0  0
 82156  1  0  0  0
 83157  1  0  0  0
 84158  1  0  0  0
M  ISO  4   1 100  68 101  77 101  83 100
M  END
> <chiral flag>
0

> <version>
0

> <s_m_source_file>
/data/baiqing/PycharmProjects/Reinvent-master-3.2/result/LINK_invent/BTK/process_docking_weight1_custom_product_contain_oxygen_bond_distance_aromatic_linkinvent_7_9_3/rearranged_h_0077.sdf

> <i_m_source_file_index>
14

> <r_mmod_Potential_Energy-OPLS-2005>
-24.16383934021

> <r_mmod_Stretch_Energy-OPLS-2005>
49.2398834228516

> <r_mmod_Bend_Energy-OPLS-2005>
113.687576293945

> <r_mmod_Torsional_Energy-OPLS-2005>
234.442718505859

> <r_mmod_Improper_Torsional_Energy-OPLS-2005>
6.34193658828735

> <r_mmod_Van_der_Waal_Energy-OPLS-2005>
155.277481079102

> <r_mmod_Electrostatic_Energy-OPLS-2005>
-392.947540283203

> <r_mmod_Solvation_Energy-OPLS-2005>
-213.536758422852

> <b_mmod_Minimization_Converged-OPLS-2005>
0

> <r_mmod_RMS_Derivative-OPLS-2005>
0.696820020675659

$$$$
14
                    3D
 Structure written by MMmdl.
161169  0  0  1  0            999 V2000
  -30.6161  -14.4889   20.5924 C   0  0  0  0  0  0
  -30.4277  -12.3158   19.4135 C   0  0  0  0  0  0
  -29.4948  -12.5389   18.1996 C   0  0  0  0  0  0
  -28.0175  -12.3672   18.6138 C   0  0  0  0  0  0
  -27.6599  -13.1940   19.8775 C   0  0  2  0  0  0
  -28.6945  -12.9417   20.9951 C   0  0  0  0  0  0
  -25.2608  -13.8152   20.5636 C   0  0  0  0  0  0
  -24.1835  -13.0427   20.9180 C   0  0  0  0  0  0
  -24.6392  -11.6907   20.8726 C   0  0  0  0  0  0
  -23.9071  -10.4291   21.0414 C   0  0  0  0  0  0
  -24.3635   -9.4187   21.9175 C   0  0  0  0  0  0
  -23.6267   -8.2241   22.0752 C   0  0  0  0  0  0
  -22.4223   -8.0317   21.3581 C   0  0  0  0  0  0
  -21.9897   -9.0287   20.4652 C   0  0  0  0  0  0
  -22.7264  -10.2143   20.3043 C   0  0  0  0  0  0
  -21.6833   -6.0727   22.5293 C   0  0  0  0  0  0
  -21.4017   -6.5635   23.8231 C   0  0  0  0  0  0
  -21.3647   -5.6807   24.9201 C   0  0  0  0  0  0
  -21.6046   -4.3065   24.7272 C   0  0  0  0  0  0
  -21.8811   -3.8145   23.4399 C   0  0  0  0  0  0
  -21.9187   -4.6951   22.3441 C   0  0  0  0  0  0
  -22.7869  -13.5240   21.1872 C   0  0  0  0  0  0
  -22.1674   -4.2118   21.1023 F   0  0  0  0  0  0
  -21.5603   -3.4560   25.7797 F   0  0  0  0  0  0
  -30.0216  -13.2763   20.4509 N   0  0  0  0  0  0
  -26.3005  -12.9277   20.3338 N   0  0  0  0  0  0
  -25.9307  -11.6443   20.5753 N   0  0  0  0  0  0
  -22.0552  -12.8136   22.0431 N   0  0  0  0  0  0
  -25.4339  -15.1823   20.3971 N   0  0  0  0  0  0
  -31.7568  -14.7393   20.1842 O   0  0  0  0  0  0
  -21.6623   -6.8879   21.4248 O   0  0  0  0  0  0
  -22.3545  -14.5548   20.6766 O   0  0  0  0  0  0
  -24.6204  -31.8651   23.2077 C   0  0  0  0  0  0
  -25.9057  -32.4812   23.8424 C   0  0  1  0  0  0
  -27.2165  -27.4093   20.0683 C   0  0  0  0  0  0
  -25.5850  -33.8609   24.2324 N   0  0  0  0  0  0
  -23.4089  -30.4975   21.5493 C   0  0  2  0  0  0
  -24.8511  -28.9729   20.1015 C   0  0  0  0  0  0
  -22.7460  -29.4692   22.4965 C   0  0  0  0  0  0
  -18.0313  -28.1340   22.8501 C   0  0  0  0  0  0
  -24.1455  -36.7321   23.2647 C   0  0  0  0  0  0
  -25.9494  -30.8166   21.3732 C   0  0  0  0  0  0
  -26.0192  -29.4568   20.7088 C   0  0  0  0  0  0
  -27.2070  -28.6789   20.7011 C   0  0  0  0  0  0
  -26.0433  -26.9849   19.3980 C   0  0  0  0  0  0
  -24.8602  -27.7374   19.4424 C   0  0  0  0  0  0
  -23.6106  -29.8335   20.1655 C   0  0  0  0  0  0
  -25.4083  -36.3120   24.0340 C   0  0  1  0  0  0
  -20.5904  -28.3694   23.1314 C   0  0  2  0  0  0
  -20.6793  -26.9401   22.5492 C   0  0  0  0  0  0
  -19.5820  -26.6356   21.5240 C   0  0  0  0  0  0
  -18.1973  -26.7906   22.1600 C   0  0  0  0  0  0
  -19.1549  -28.8829   23.2895 C   0  0  0  0  0  0
  -18.9439  -30.1442   23.8897 C   0  0  0  0  0  0
  -17.6434  -30.6584   24.0510 C   0  0  0  0  0  0
  -25.9022  -34.9477   23.5163 C   0  0  0  0  0  0
  -16.5342  -29.9037   23.6292 C   0  0  0  0  0  0
  -16.7292  -28.6440   23.0323 C   0  0  0  0  0  0
  -26.4440  -31.6587   25.0774 C   0  0  0  0  0  0
  -25.3674  -31.3747   26.1519 C   0  0  0  0  0  0
  -27.0297  -30.3023   24.6159 C   0  0  0  0  0  0
  -27.6009  -32.4341   25.7515 C   0  0  0  0  0  0
  -27.5560  -37.1822   24.8468 C   0  0  0  0  0  0
  -21.4174  -29.3078   22.3721 N   0  0  0  0  0  0
  -26.4283  -37.3800   23.9394 N   0  0  0  0  0  0
  -24.6795  -31.0757   22.0983 N   0  0  0  0  0  0
  -23.4262  -28.8229   23.2977 O   0  0  0  0  0  0
  -28.3026  -26.5434   20.1377 O   0  0  0  0  0  0
  -26.5646  -34.8928   22.4751 O   0  0  0  0  0  0
  -23.5387  -32.1391   23.7456 O   0  0  0  0  0  0
  -30.5693  -16.9949   22.6916 C   0  0  0  0  0  0
  -30.6039  -18.2943   23.2118 C   0  0  0  0  0  0
  -29.4589  -17.8622   20.7022 C   0  0  0  0  0  0
  -29.4715  -19.1938   21.2095 C   0  0  0  0  0  0
  -29.9953  -16.7696   21.4286 C   0  0  0  0  0  0
  -30.0133  -19.3737   22.5197 C   0  0  0  0  0  0
  -27.9482  -25.2331   20.4409 C   0  0  0  0  0  0
  -28.8141  -20.3140   20.3927 C   0  0  0  0  0  0
  -28.6537  -24.0915   20.2326 C   0  0  0  0  0  0
  -26.8504  -22.6017   21.4469 C   0  0  0  0  0  0
  -30.0798  -24.1132   19.7109 C   0  0  0  0  0  0
  -28.0129  -22.6881   20.4303 C   0  0  2  0  0  0
  -29.9181  -20.5664   23.2342 N   0  0  0  0  0  0
  -25.6372  -22.9028   21.0050 N   0  0  0  0  0  0
  -29.7545  -15.4401   21.0095 N   0  0  0  0  0  0
  -28.9424  -21.5984   20.8001 N   0  0  0  0  0  0
  -28.1314  -20.0289   19.4046 O   0  0  0  0  0  0
  -27.0320  -22.2436   22.6110 O   0  0  0  0  0  0
  -31.4753  -12.4273   19.1252 H   0  0  0  0  0  0
  -30.3247  -11.2961   19.7918 H   0  0  0  0  0  0
  -29.7504  -11.8543   17.3904 H   0  0  0  0  0  0
  -29.6359  -13.5496   17.8022 H   0  0  0  0  0  0
  -27.8467  -11.3055   18.7991 H   0  0  0  0  0  0
  -27.3575  -12.6347   17.7877 H   0  0  0  0  0  0
  -27.7109  -14.2460   19.5880 H   0  0  0  0  0  0
  -28.6854  -11.8965   21.3028 H   0  0  0  0  0  0
  -28.4464  -13.5007   21.8973 H   0  0  0  0  0  0
  -25.2772   -9.5591   22.4770 H   0  0  0  0  0  0
  -23.9982   -7.4589   22.7408 H   0  0  0  0  0  0
  -21.0854   -8.8822   19.8924 H   0  0  0  0  0  0
  -22.3762  -10.9706   19.6174 H   0  0  0  0  0  0
  -21.2032   -7.6147   23.9748 H   0  0  0  0  0  0
  -21.1465   -6.0531   25.9109 H   0  0  0  0  0  0
  -22.0586   -2.7591   23.2924 H   0  0  0  0  0  0
  -22.4209  -11.9768   22.4734 H   0  0  0  0  0  0
  -21.1234  -13.1134   22.2843 H   0  0  0  0  0  0
  -24.6591  -15.8320   20.4810 H   0  0  0  0  0  0
  -26.2664  -15.6089   20.0088 H   0  0  0  0  0  0
  -26.7169  -32.5450   23.1239 H   0  0  0  0  0  0
  -24.9872  -33.9735   25.0382 H   0  0  0  0  0  0
  -22.7009  -31.3201   21.4129 H   0  0  0  0  0  0
  -23.3706  -35.9679   23.3368 H   0  0  0  0  0  0
  -24.3568  -36.8863   22.2058 H   0  0  0  0  0  0
  -23.7213  -37.6536   23.6633 H   0  0  0  0  0  0
  -26.0761  -31.5804   20.6055 H   0  0  0  0  0  0
  -26.8347  -30.8566   21.9993 H   0  0  0  0  0  0
  -28.0991  -29.0412   21.1922 H   0  0  0  0  0  0
  -26.0221  -26.0531   18.8494 H   0  0  0  0  0  0
  -23.9714  -27.3699   18.9496 H   0  0  0  0  0  0
  -23.7012  -30.6018   19.3970 H   0  0  0  0  0  0
  -22.7333  -29.2471   19.8855 H   0  0  0  0  0  0
  -25.1268  -36.2042   25.0846 H   0  0  0  0  0  0
  -21.0051  -28.3299   24.1420 H   0  0  0  0  0  0
  -20.5611  -26.2324   23.3707 H   0  0  0  0  0  0
  -21.6686  -26.7409   22.1392 H   0  0  0  0  0  0
  -19.7052  -25.6296   21.1187 H   0  0  0  0  0  0
  -19.6804  -27.3241   20.6812 H   0  0  0  0  0  0
  -17.4300  -26.6746   21.3940 H   0  0  0  0  0  0
  -18.0186  -26.0070   22.8951 H   0  0  0  0  0  0
  -19.7865  -30.7272   24.2302 H   0  0  0  0  0  0
  -17.5014  -31.6321   24.5041 H   0  0  0  0  0  0
  -15.5359  -30.2921   23.7612 H   0  0  0  0  0  0
  -15.8721  -28.0736   22.6991 H   0  0  0  0  0  0
  -24.5825  -30.7117   25.7871 H   0  0  0  0  0  0
  -24.8902  -32.2941   26.4919 H   0  0  0  0  0  0
  -25.7985  -30.8948   27.0316 H   0  0  0  0  0  0
  -26.2920  -29.6825   24.1056 H   0  0  0  0  0  0
  -27.3920  -29.7191   25.4628 H   0  0  0  0  0  0
  -27.8800  -30.4363   23.9475 H   0  0  0  0  0  0
  -27.2592  -33.3636   26.2095 H   0  0  0  0  0  0
  -28.3778  -32.6909   25.0303 H   0  0  0  0  0  0
  -28.0724  -31.8477   26.5403 H   0  0  0  0  0  0
  -28.2641  -38.0055   24.7468 H   0  0  0  0  0  0
  -28.0999  -36.2601   24.6392 H   0  0  0  0  0  0
  -27.2287  -37.1575   25.8871 H   0  0  0  0  0  0
  -20.9302  -29.8859   21.6999 H   0  0  0  0  0  0
  -26.0188  -38.2898   24.1357 H   0  0  0  0  0  0
  -30.8982  -16.1834   23.3283 H   0  0  0  0  0  0
  -31.0092  -18.4278   24.2053 H   0  0  0  0  0  0
  -28.9616  -17.6632   19.7645 H   0  0  0  0  0  0
  -26.9539  -25.1860   20.8601 H   0  0  0  0  0  0
  -30.5297  -25.0995   19.8220 H   0  0  0  0  0  0
  -30.0805  -23.8500   18.6514 H   0  0  0  0  0  0
  -30.7161  -23.4105   20.2511 H   0  0  0  0  0  0
  -27.6008  -22.4555   19.4459 H   0  0  0  0  0  0
  -30.1739  -20.4858   24.2120 H   0  0  0  0  0  0
  -29.0066  -21.0194   23.1676 H   0  0  0  0  0  0
  -25.4927  -23.1531   20.0366 H   0  0  0  0  0  0
  -24.8439  -22.8686   21.6268 H   0  0  0  0  0  0
  -28.8060  -15.1136   21.1424 H   0  0  0  0  0  0
  -29.5191  -21.7490   21.6233 H   0  0  0  0  0  0
  1 25  1  0  0  0
  1 30  2  0  0  0
  1 85  1  0  0  0
  2  3  1  0  0  0
  2 25  1  0  0  0
  2 89  1  0  0  0
  2 90  1  0  0  0
  3  4  1  0  0  0
  3 91  1  0  0  0
  3 92  1  0  0  0
  4  5  1  0  0  0
  4 93  1  0  0  0
  4 94  1  0  0  0
  5  6  1  0  0  0
  5 26  1  0  0  0
  5 95  1  0  0  0
  6 25  1  0  0  0
  6 96  1  0  0  0
  6 97  1  0  0  0
  7  8  2  0  0  0
  7 26  1  0  0  0
  7 29  1  0  0  0
  8  9  1  0  0  0
  8 22  1  0  0  0
  9 10  1  0  0  0
  9 27  2  0  0  0
 10 11  2  0  0  0
 10 15  1  0  0  0
 11 12  1  0  0  0
 11 98  1  0  0  0
 12 13  2  0  0  0
 12 99  1  0  0  0
 13 14  1  0  0  0
 13 31  1  0  0  0
 14 15  2  0  0  0
 14100  1  0  0  0
 15101  1  0  0  0
 16 17  2  0  0  0
 16 21  1  0  0  0
 16 31  1  0  0  0
 17 18  1  0  0  0
 17102  1  0  0  0
 18 19  2  0  0  0
 18103  1  0  0  0
 19 20  1  0  0  0
 19 24  1  0  0  0
 20 21  2  0  0  0
 20104  1  0  0  0
 21 23  1  0  0  0
 22 28  1  0  0  0
 22 32  2  0  0  0
 26 27  1  0  0  0
 28105  1  0  0  0
 28106  1  0  0  0
 29107  1  0  0  0
 29108  1  0  0  0
 33 34  1  0  0  0
 33 66  1  0  0  0
 33 70  2  0  0  0
 34 36  1  0  0  0
 34 59  1  0  0  0
 34109  1  0  0  0
 35 44  2  0  0  0
 35 45  1  0  0  0
 35 68  1  0  0  0
 36 56  1  0  0  0
 36110  1  0  0  0
 37 39  1  0  0  0
 37 47  1  0  0  0
 37 66  1  0  0  0
 37111  1  0  0  0
 38 43  2  0  0  0
 38 46  1  0  0  0
 38 47  1  0  0  0
 39 64  1  0  0  0
 39 67  2  0  0  0
 40 52  1  0  0  0
 40 53  2  0  0  0
 40 58  1  0  0  0
 41112  1  0  0  0
 41113  1  0  0  0
 41114  1  0  0  0
 41 48  1  0  0  0
 42 43  1  0  0  0
 42 66  1  0  0  0
 42115  1  0  0  0
 42116  1  0  0  0
 43 44  1  0  0  0
 44117  1  0  0  0
 45 46  2  0  0  0
 45118  1  0  0  0
 46119  1  0  0  0
 47120  1  0  0  0
 47121  1  0  0  0
 48 56  1  0  0  0
 48 65  1  0  0  0
 48122  1  0  0  0
 49 50  1  0  0  0
 49 53  1  0  0  0
 49 64  1  0  0  0
 49123  1  0  0  0
 50 51  1  0  0  0
 50124  1  0  0  0
 50125  1  0  0  0
 51 52  1  0  0  0
 51126  1  0  0  0
 51127  1  0  0  0
 52128  1  0  0  0
 52129  1  0  0  0
 53 54  1  0  0  0
 54 55  2  0  0  0
 54130  1  0  0  0
 55 57  1  0  0  0
 55131  1  0  0  0
 56 69  2  0  0  0
 57 58  2  0  0  0
 57132  1  0  0  0
 58133  1  0  0  0
 59 60  1  0  0  0
 59 61  1  0  0  0
 59 62  1  0  0  0
 60134  1  0  0  0
 60135  1  0  0  0
 60136  1  0  0  0
 61137  1  0  0  0
 61138  1  0  0  0
 61139  1  0  0  0
 62140  1  0  0  0
 62141  1  0  0  0
 62142  1  0  0  0
 63 65  1  0  0  0
 63143  1  0  0  0
 63144  1  0  0  0
 63145  1  0  0  0
 64146  1  0  0  0
 65147  1  0  0  0
 68 77  1  0  0  0
 71 72  2  0  0  0
 71 75  1  0  0  0
 71148  1  0  0  0
 72 76  1  0  0  0
 72149  1  0  0  0
 73 74  1  0  0  0
 73 75  2  0  0  0
 73150  1  0  0  0
 74 76  2  0  0  0
 74 78  1  0  0  0
 75 85  1  0  0  0
 76 83  1  0  0  0
 77 79  2  0  0  0
 77151  1  0  0  0
 78 86  1  0  0  0
 78 87  2  0  0  0
 79 81  1  0  0  0
 79 82  1  0  0  0
 80 82  1  0  0  0
 80 84  1  0  0  0
 80 88  2  0  0  0
 81152  1  0  0  0
 81153  1  0  0  0
 81154  1  0  0  0
 82 86  1  0  0  0
 82155  1  0  0  0
 83156  1  0  0  0
 83157  1  0  0  0
 84158  1  0  0  0
 84159  1  0  0  0
 85160  1  0  0  0
 86161  1  0  0  0
M  ISO  4   1 100  68 101  77 101  85 100
M  END
> <chiral flag>
0

> <version>
0

> <s_m_source_file>
/data/baiqing/PycharmProjects/Reinvent-master-3.2/result/LINK_invent/BTK/process_docking_weight1_custom_product_contain_oxygen_bond_distance_aromatic_linkinvent_7_9_3/rearranged_h_0077.sdf

> <i_m_source_file_index>
15

> <r_mmod_Potential_Energy-OPLS-2005>
-199.817901611328

> <r_mmod_Stretch_Energy-OPLS-2005>
48.08251953125

> <r_mmod_Bend_Energy-OPLS-2005>
111.245178222656

> <r_mmod_Torsional_Energy-OPLS-2005>
257.324005126953

> <r_mmod_Improper_Torsional_Energy-OPLS-2005>
15.2171726226807

> <r_mmod_Van_der_Waal_Energy-OPLS-2005>
184.327194213867

> <r_mmod_Electrostatic_Energy-OPLS-2005>
-589.751831054688

> <r_mmod_Solvation_Energy-OPLS-2005>
-251.549194335938

> <b_mmod_Minimization_Converged-OPLS-2005>
0

> <r_mmod_RMS_Derivative-OPLS-2005>
8.14223289489746

$$$$
15
                    3D
 Structure written by MMmdl.
159168  0  0  1  0            999 V2000
  -30.6880  -14.4347   20.5339 C   0  0  0  0  0  0
  -30.4213  -12.2684   19.4219 C   0  0  0  0  0  0
  -29.4969  -12.4965   18.2068 C   0  0  0  0  0  0
  -28.0159  -12.3602   18.6169 C   0  0  0  0  0  0
  -27.6632  -13.1963   19.8759 C   0  0  2  0  0  0
  -28.7057  -12.9712   20.9940 C   0  0  0  0  0  0
  -25.2583  -13.8104   20.5711 C   0  0  0  0  0  0
  -24.1833  -13.0388   20.9172 C   0  0  0  0  0  0
  -24.6398  -11.6866   20.8725 C   0  0  0  0  0  0
  -23.9049  -10.4263   21.0399 C   0  0  0  0  0  0
  -24.3610   -9.4183   21.9175 C   0  0  0  0  0  0
  -23.6283   -8.2225   22.0748 C   0  0  0  0  0  0
  -22.4256   -8.0271   21.3548 C   0  0  0  0  0  0
  -21.9892   -9.0236   20.4644 C   0  0  0  0  0  0
  -22.7222  -10.2110   20.3048 C   0  0  0  0  0  0
  -21.6850   -6.0726   22.5270 C   0  0  0  0  0  0
  -21.4022   -6.5635   23.8203 C   0  0  0  0  0  0
  -21.3653   -5.6786   24.9163 C   0  0  0  0  0  0
  -21.6047   -4.3048   24.7217 C   0  0  0  0  0  0
  -21.8820   -3.8140   23.4337 C   0  0  0  0  0  0
  -21.9199   -4.6957   22.3396 C   0  0  0  0  0  0
  -22.7856  -13.5193   21.1835 C   0  0  0  0  0  0
  -22.1665   -4.2145   21.0971 F   0  0  0  0  0  0
  -21.5625   -3.4534   25.7731 F   0  0  0  0  0  0
  -30.0417  -13.2470   20.4462 N   0  0  0  0  0  0
  -26.3037  -12.9285   20.3387 N   0  0  0  0  0  0
  -25.9324  -11.6441   20.5769 N   0  0  0  0  0  0
  -22.0521  -12.8195   22.0420 N   0  0  0  0  0  0
  -25.4208  -15.1813   20.4189 N   0  0  0  0  0  0
  -31.8299  -14.6282   20.1049 O   0  0  0  0  0  0
  -21.6634   -6.8861   21.4228 O   0  0  0  0  0  0
  -22.3530  -14.5499   20.6688 O   0  0  0  0  0  0
  -24.6127  -31.8723   23.2172 C   0  0  0  0  0  0
  -25.9034  -32.4859   23.8458 C   0  0  1  0  0  0
  -27.2353  -27.4809   20.0875 C   0  0  0  0  0  0
  -25.5883  -33.8653   24.2401 N   0  0  0  0  0  0
  -23.3942  -30.4969   21.5601 C   0  0  2  0  0  0
  -24.8390  -28.9679   20.1278 C   0  0  0  0  0  0
  -22.7386  -29.4672   22.5048 C   0  0  0  0  0  0
  -18.0245  -28.1386   22.8499 C   0  0  0  0  0  0
  -24.1457  -36.7320   23.2630 C   0  0  0  0  0  0
  -25.9172  -30.8552   21.3580 C   0  0  0  0  0  0
  -25.9970  -29.4884   20.7163 C   0  0  0  0  0  0
  -27.1986  -28.7514   20.6939 C   0  0  0  0  0  0
  -26.0559  -26.9565   19.5134 C   0  0  0  0  0  0
  -24.8598  -27.6966   19.5294 C   0  0  0  0  0  0
  -23.5990  -29.8328   20.1736 C   0  0  0  0  0  0
  -25.4079  -36.3135   24.0350 C   0  0  1  0  0  0
  -20.5839  -28.3653   23.1355 C   0  0  2  0  0  0
  -20.6729  -26.9400   22.5440 C   0  0  0  0  0  0
  -19.5705  -26.6392   21.5217 C   0  0  0  0  0  0
  -18.1884  -26.7932   22.1620 C   0  0  0  0  0  0
  -19.1500  -28.8837   23.2914 C   0  0  0  0  0  0
  -18.9416  -30.1440   23.8946 C   0  0  0  0  0  0
  -17.6428  -30.6596   24.0575 C   0  0  0  0  0  0
  -25.9003  -34.9488   23.5169 C   0  0  0  0  0  0
  -16.5329  -29.9107   23.6326 C   0  0  0  0  0  0
  -16.7233  -28.6519   23.0356 C   0  0  0  0  0  0
  -26.4480  -31.6644   25.0780 C   0  0  0  0  0  0
  -25.3774  -31.3767   26.1556 C   0  0  0  0  0  0
  -27.0264  -30.3079   24.6110 C   0  0  0  0  0  0
  -27.6075  -32.4346   25.7549 C   0  0  0  0  0  0
  -27.5573  -37.1814   24.8458 C   0  0  0  0  0  0
  -21.4113  -29.3031   22.3789 N   0  0  0  0  0  0
  -26.4272  -37.3823   23.9441 N   0  0  0  0  0  0
  -24.6617  -31.0851   22.1062 N   0  0  0  0  0  0
  -23.4185  -28.8180   23.3037 O   0  0  0  0  0  0
  -28.4274  -26.8203   19.9773 O   0  0  0  0  0  0
  -26.5547  -34.8913   22.4716 O   0  0  0  0  0  0
  -23.5325  -32.1432   23.7588 O   0  0  0  0  0  0
  -26.3072  -20.0344   17.3013 C   0  0  0  0  0  0
  -26.8427  -18.8563   17.8467 C   0  0  0  0  0  0
  -26.7801  -21.2895   17.7293 C   0  0  0  0  0  0
  -28.3004  -20.2015   19.2481 C   0  0  0  0  0  0
  -27.8633  -18.9296   18.8197 C   0  0  0  0  0  0
  -27.7744  -21.4060   18.7303 C   0  0  0  0  0  0
  -28.3532  -24.4405   20.0353 C   0  0  0  0  0  0
  -28.5810  -23.1085   20.5089 C   0  0  0  0  0  0
  -28.5742  -25.6279   20.6219 C   0  0  0  0  0  0
  -30.8253  -18.3358   19.1049 C   0  0  0  0  0  0
  -28.4260  -17.6727   19.4034 C   0  0  0  0  0  0
  -29.8908  -17.5996   19.7499 C   0  0  0  0  0  0
  -27.8222  -23.9359   18.7119 C   0  0  0  0  0  0
  -32.3238  -18.3510   19.3705 C   0  0  0  0  0  0
  -30.3549  -16.7276   20.7692 N   0  0  0  0  0  0
  -29.8337  -15.6066   20.9591 N   0  0  0  0  0  0
  -28.2550  -22.6363   19.2409 N   0  0  0  0  0  0
  -28.8386  -22.6605   21.6059 O   0  0  0  0  0  0
  -27.6662  -16.7158   19.5602 O   0  0  0  0  0  0
  -31.4697  -12.3497   19.1273 H   0  0  0  0  0  0
  -30.2977  -11.2573   19.8111 H   0  0  0  0  0  0
  -29.7304  -11.7796   17.4185 H   0  0  0  0  0  0
  -29.6743  -13.4859   17.7822 H   0  0  0  0  0  0
  -27.8237  -11.3059   18.8122 H   0  0  0  0  0  0
  -27.3659  -12.6386   17.7867 H   0  0  0  0  0  0
  -27.7091  -14.2410   19.5810 H   0  0  0  0  0  0
  -28.6677  -11.9390   21.3458 H   0  0  0  0  0  0
  -28.4862  -13.5871   21.8681 H   0  0  0  0  0  0
  -25.2759   -9.5659   22.4736 H   0  0  0  0  0  0
  -23.9995   -7.4615   22.7467 H   0  0  0  0  0  0
  -21.0826   -8.8762   19.8949 H   0  0  0  0  0  0
  -22.3695  -10.9655   19.6156 H   0  0  0  0  0  0
  -21.2024   -7.6147   23.9704 H   0  0  0  0  0  0
  -21.1472   -6.0520   25.9069 H   0  0  0  0  0  0
  -22.0614   -2.7604   23.2842 H   0  0  0  0  0  0
  -22.4159  -11.9854   22.4790 H   0  0  0  0  0  0
  -21.1149  -13.1218   22.2667 H   0  0  0  0  0  0
  -24.6563  -15.8350   20.5318 H   0  0  0  0  0  0
  -26.2883  -15.6352   20.1264 H   0  0  0  0  0  0
  -26.7107  -32.5617   23.1249 H   0  0  0  0  0  0
  -25.0145  -33.9861   25.0612 H   0  0  0  0  0  0
  -22.6806  -31.3122   21.4270 H   0  0  0  0  0  0
  -23.3708  -35.9661   23.3337 H   0  0  0  0  0  0
  -24.3553  -36.8869   22.2030 H   0  0  0  0  0  0
  -23.7156  -37.6525   23.6600 H   0  0  0  0  0  0
  -26.0031  -31.6133   20.5791 H   0  0  0  0  0  0
  -26.8157  -30.9248   21.9587 H   0  0  0  0  0  0
  -28.1017  -29.1635   21.1230 H   0  0  0  0  0  0
  -26.0579  -25.9952   19.0316 H   0  0  0  0  0  0
  -23.9649  -27.2944   19.0730 H   0  0  0  0  0  0
  -23.7134  -30.6071   19.4145 H   0  0  0  0  0  0
  -22.7229  -29.2531   19.8779 H   0  0  0  0  0  0
  -25.1223  -36.2030   25.0836 H   0  0  0  0  0  0
  -20.9920  -28.3193   24.1474 H   0  0  0  0  0  0
  -20.5599  -26.2247   23.3609 H   0  0  0  0  0  0
  -21.6600  -26.7422   22.1250 H   0  0  0  0  0  0
  -19.6842  -25.6295   21.1230 H   0  0  0  0  0  0
  -19.6646  -27.3212   20.6766 H   0  0  0  0  0  0
  -17.4159  -26.6687   21.4035 H   0  0  0  0  0  0
  -18.0277  -26.0072   22.9018 H   0  0  0  0  0  0
  -19.7904  -30.7229   24.2343 H   0  0  0  0  0  0
  -17.4992  -31.6287   24.5150 H   0  0  0  0  0  0
  -15.5335  -30.3032   23.7615 H   0  0  0  0  0  0
  -15.8623  -28.0855   22.7071 H   0  0  0  0  0  0
  -24.5954  -30.7084   25.7944 H   0  0  0  0  0  0
  -24.8998  -32.2938   26.5019 H   0  0  0  0  0  0
  -25.8178  -30.8969   27.0301 H   0  0  0  0  0  0
  -26.2809  -29.6921   24.1066 H   0  0  0  0  0  0
  -27.3909  -29.7234   25.4566 H   0  0  0  0  0  0
  -27.8706  -30.4397   23.9336 H   0  0  0  0  0  0
  -27.2712  -33.3621   26.2202 H   0  0  0  0  0  0
  -28.3876  -32.6934   25.0384 H   0  0  0  0  0  0
  -28.0747  -31.8407   26.5409 H   0  0  0  0  0  0
  -28.2600  -38.0112   24.7547 H   0  0  0  0  0  0
  -28.1058  -36.2643   24.6243 H   0  0  0  0  0  0
  -27.2320  -37.1442   25.8869 H   0  0  0  0  0  0
  -20.9241  -29.8805   21.7086 H   0  0  0  0  0  0
  -26.0157  -38.2892   24.1508 H   0  0  0  0  0  0
  -25.5209  -19.9838   16.5615 H   0  0  0  0  0  0
  -26.4645  -17.8960   17.5186 H   0  0  0  0  0  0
  -26.3312  -22.1681   17.2902 H   0  0  0  0  0  0
  -29.0588  -20.2605   20.0151 H   0  0  0  0  0  0
  -28.9953  -25.7417   21.6109 H   0  0  0  0  0  0
  -30.5206  -18.9934   18.3035 H   0  0  0  0  0  0
  -28.3574  -24.2112   17.8017 H   0  0  0  0  0  0
  -26.7428  -23.9854   18.5614 H   0  0  0  0  0  0
  -32.6301  -17.6638   20.1606 H   0  0  0  0  0  0
  -32.6333  -19.3536   19.6652 H   0  0  0  0  0  0
  -32.8699  -18.0796   18.4671 H   0  0  0  0  0  0
  1 25  1  0  0  0
  1 30  2  0  0  0
  1 86  1  0  0  0
  2  3  1  0  0  0
  2 25  1  0  0  0
  2 90  1  0  0  0
  2 91  1  0  0  0
  3  4  1  0  0  0
  3 92  1  0  0  0
  3 93  1  0  0  0
  4  5  1  0  0  0
  4 94  1  0  0  0
  4 95  1  0  0  0
  5  6  1  0  0  0
  5 26  1  0  0  0
  5 96  1  0  0  0
  6 25  1  0  0  0
  6 97  1  0  0  0
  6 98  1  0  0  0
  7  8  2  0  0  0
  7 26  1  0  0  0
  7 29  1  0  0  0
  8  9  1  0  0  0
  8 22  1  0  0  0
  9 10  1  0  0  0
  9 27  2  0  0  0
 10 11  2  0  0  0
 10 15  1  0  0  0
 11 12  1  0  0  0
 11 99  1  0  0  0
 12 13  2  0  0  0
 12100  1  0  0  0
 13 14  1  0  0  0
 13 31  1  0  0  0
 14 15  2  0  0  0
 14101  1  0  0  0
 15102  1  0  0  0
 16 17  2  0  0  0
 16 21  1  0  0  0
 16 31  1  0  0  0
 17 18  1  0  0  0
 17103  1  0  0  0
 18 19  2  0  0  0
 18104  1  0  0  0
 19 20  1  0  0  0
 19 24  1  0  0  0
 20 21  2  0  0  0
 20105  1  0  0  0
 21 23  1  0  0  0
 22 28  1  0  0  0
 22 32  2  0  0  0
 26 27  1  0  0  0
 28106  1  0  0  0
 28107  1  0  0  0
 29108  1  0  0  0
 29109  1  0  0  0
 33 34  1  0  0  0
 33 66  1  0  0  0
 33 70  2  0  0  0
 34 36  1  0  0  0
 34 59  1  0  0  0
 34110  1  0  0  0
 35 44  2  0  0  0
 35 45  1  0  0  0
 35 68  1  0  0  0
 36 56  1  0  0  0
 36111  1  0  0  0
 37 39  1  0  0  0
 37 47  1  0  0  0
 37 66  1  0  0  0
 37112  1  0  0  0
 38 43  2  0  0  0
 38 46  1  0  0  0
 38 47  1  0  0  0
 39 64  1  0  0  0
 39 67  2  0  0  0
 40 52  1  0  0  0
 40 53  2  0  0  0
 40 58  1  0  0  0
 41113  1  0  0  0
 41114  1  0  0  0
 41115  1  0  0  0
 41 48  1  0  0  0
 42 43  1  0  0  0
 42 66  1  0  0  0
 42116  1  0  0  0
 42117  1  0  0  0
 43 44  1  0  0  0
 44118  1  0  0  0
 45 46  2  0  0  0
 45119  1  0  0  0
 46120  1  0  0  0
 47121  1  0  0  0
 47122  1  0  0  0
 48 56  1  0  0  0
 48 65  1  0  0  0
 48123  1  0  0  0
 49 50  1  0  0  0
 49 53  1  0  0  0
 49 64  1  0  0  0
 49124  1  0  0  0
 50 51  1  0  0  0
 50125  1  0  0  0
 50126  1  0  0  0
 51 52  1  0  0  0
 51127  1  0  0  0
 51128  1  0  0  0
 52129  1  0  0  0
 52130  1  0  0  0
 53 54  1  0  0  0
 54 55  2  0  0  0
 54131  1  0  0  0
 55 57  1  0  0  0
 55132  1  0  0  0
 56 69  2  0  0  0
 57 58  2  0  0  0
 57133  1  0  0  0
 58134  1  0  0  0
 59 60  1  0  0  0
 59 61  1  0  0  0
 59 62  1  0  0  0
 60135  1  0  0  0
 60136  1  0  0  0
 60137  1  0  0  0
 61138  1  0  0  0
 61139  1  0  0  0
 61140  1  0  0  0
 62141  1  0  0  0
 62142  1  0  0  0
 62143  1  0  0  0
 63 65  1  0  0  0
 63144  1  0  0  0
 63145  1  0  0  0
 63146  1  0  0  0
 64147  1  0  0  0
 65148  1  0  0  0
 68 79  1  0  0  0
 71 72  2  0  0  0
 71 73  1  0  0  0
 71149  1  0  0  0
 72 75  1  0  0  0
 72150  1  0  0  0
 73 76  2  0  0  0
 73151  1  0  0  0
 74 75  2  0  0  0
 74 76  1  0  0  0
 74152  1  0  0  0
 75 81  1  0  0  0
 76 87  1  0  0  0
 77 78  1  0  0  0
 77 79  2  0  0  0
 77 83  1  0  0  0
 78 87  1  0  0  0
 78 88  2  0  0  0
 79153  1  0  0  0
 80 82  2  0  0  0
 80 84  1  0  0  0
 80154  1  0  0  0
 81 82  1  0  0  0
 81 89  2  0  0  0
 82 85  1  0  0  0
 83 87  1  0  0  0
 83155  1  0  0  0
 83156  1  0  0  0
 84157  1  0  0  0
 84158  1  0  0  0
 84159  1  0  0  0
 85 86  2  0  0  0
M  ISO  4   1 100  68 101  79 101  86 100
M  END
> <chiral flag>
0

> <version>
0

> <s_m_source_file>
/data/baiqing/PycharmProjects/Reinvent-master-3.2/result/LINK_invent/BTK/process_docking_weight1_custom_product_contain_oxygen_bond_distance_aromatic_linkinvent_7_9_3/rearranged_h_0077.sdf

> <i_m_source_file_index>
16

> <r_mmod_Potential_Energy-OPLS-2005>
193.096618652344

> <r_mmod_Stretch_Energy-OPLS-2005>
37.1481895446777

> <r_mmod_Bend_Energy-OPLS-2005>
173.547256469727

> <r_mmod_Torsional_Energy-OPLS-2005>
237.207626342773

> <r_mmod_Improper_Torsional_Energy-OPLS-2005>
8.83372688293457

> <r_mmod_Van_der_Waal_Energy-OPLS-2005>
162.29426574707

> <r_mmod_Electrostatic_Energy-OPLS-2005>
-250.221389770508

> <r_mmod_Solvation_Energy-OPLS-2005>
-186.788757324219

> <b_mmod_Minimization_Converged-OPLS-2005>
0

> <r_mmod_RMS_Derivative-OPLS-2005>
3.73900389671326

$$$$
16
                    3D
 Structure written by MMmdl.
155164  0  0  1  0            999 V2000
  -30.6689  -14.6723   20.5852 C   0  0  0  0  0  0
  -30.4313  -12.4420   19.4615 C   0  0  0  0  0  0
  -29.5038  -12.5287   18.2292 C   0  0  0  0  0  0
  -28.0299  -12.3516   18.6385 C   0  0  0  0  0  0
  -27.6474  -13.2285   19.8577 C   0  0  2  0  0  0
  -28.6865  -13.1068   20.9906 C   0  0  0  0  0  0
  -25.2511  -13.8187   20.5681 C   0  0  0  0  0  0
  -24.1794  -13.0435   20.9180 C   0  0  0  0  0  0
  -24.6388  -11.6913   20.8725 C   0  0  0  0  0  0
  -23.9074  -10.4291   21.0397 C   0  0  0  0  0  0
  -24.3626   -9.4210   21.9176 C   0  0  0  0  0  0
  -23.6297   -8.2248   22.0756 C   0  0  0  0  0  0
  -22.4279   -8.0278   21.3545 C   0  0  0  0  0  0
  -21.9914   -9.0246   20.4639 C   0  0  0  0  0  0
  -22.7244  -10.2127   20.3044 C   0  0  0  0  0  0
  -21.6855   -6.0742   22.5284 C   0  0  0  0  0  0
  -21.4022   -6.5644   23.8218 C   0  0  0  0  0  0
  -21.3654   -5.6789   24.9173 C   0  0  0  0  0  0
  -21.6044   -4.3057   24.7222 C   0  0  0  0  0  0
  -21.8819   -3.8152   23.4340 C   0  0  0  0  0  0
  -21.9195   -4.6972   22.3398 C   0  0  0  0  0  0
  -22.7818  -13.5218   21.1849 C   0  0  0  0  0  0
  -22.1657   -4.2162   21.0975 F   0  0  0  0  0  0
  -21.5623   -3.4533   25.7731 F   0  0  0  0  0  0
  -30.0064  -13.4684   20.4434 N   0  0  0  0  0  0
  -26.2951  -12.9401   20.3282 N   0  0  0  0  0  0
  -25.9321  -11.6548   20.5729 N   0  0  0  0  0  0
  -22.0467  -12.8191   22.0399 N   0  0  0  0  0  0
  -25.4204  -15.1912   20.4130 N   0  0  0  0  0  0
  -31.7606  -14.8437   20.0317 O   0  0  0  0  0  0
  -21.6638   -6.8881   21.4244 O   0  0  0  0  0  0
  -22.3489  -14.5518   20.6699 O   0  0  0  0  0  0
  -24.6282  -31.8585   23.2033 C   0  0  0  0  0  0
  -25.9113  -32.4782   23.8370 C   0  0  1  0  0  0
  -27.2233  -27.2927   20.1208 C   0  0  0  0  0  0
  -25.5932  -33.8581   24.2298 N   0  0  0  0  0  0
  -23.4241  -30.4847   21.5449 C   0  0  2  0  0  0
  -24.8727  -28.9437   20.1079 C   0  0  0  0  0  0
  -22.7490  -29.4619   22.4907 C   0  0  0  0  0  0
  -18.0293  -28.1385   22.8494 C   0  0  0  0  0  0
  -24.1480  -36.7294   23.2639 C   0  0  0  0  0  0
  -25.9677  -30.7840   21.3780 C   0  0  0  0  0  0
  -26.0429  -29.4082   20.7227 C   0  0  0  0  0  0
  -27.2192  -28.5928   20.7261 C   0  0  0  0  0  0
  -26.0299  -26.9101   19.4578 C   0  0  0  0  0  0
  -24.8701  -27.7013   19.4639 C   0  0  0  0  0  0
  -23.6417  -29.8240   20.1587 C   0  0  0  0  0  0
  -25.4102  -36.3087   24.0341 C   0  0  1  0  0  0
  -20.5900  -28.3695   23.1267 C   0  0  2  0  0  0
  -20.6775  -26.9420   22.5402 C   0  0  0  0  0  0
  -19.5752  -26.6390   21.5207 C   0  0  0  0  0  0
  -18.1932  -26.7933   22.1622 C   0  0  0  0  0  0
  -19.1549  -28.8857   23.2877 C   0  0  0  0  0  0
  -18.9476  -30.1457   23.8891 C   0  0  0  0  0  0
  -17.6473  -30.6587   24.0574 C   0  0  0  0  0  0
  -25.9044  -34.9455   23.5117 C   0  0  0  0  0  0
  -16.5362  -29.9088   23.6331 C   0  0  0  0  0  0
  -16.7286  -28.6510   23.0362 C   0  0  0  0  0  0
  -26.4485  -31.6594   25.0742 C   0  0  0  0  0  0
  -25.3729  -31.3766   26.1482 C   0  0  0  0  0  0
  -27.0307  -30.3008   24.6182 C   0  0  0  0  0  0
  -27.6058  -32.4312   25.7510 C   0  0  0  0  0  0
  -27.5567  -37.1798   24.8457 C   0  0  0  0  0  0
  -21.4205  -29.3068   22.3671 N   0  0  0  0  0  0
  -26.4264  -37.3792   23.9424 N   0  0  0  0  0  0
  -24.6924  -31.0584   22.0994 N   0  0  0  0  0  0
  -23.4207  -28.8148   23.2985 O   0  0  0  0  0  0
  -28.3076  -26.3860   20.1990 O   0  0  0  0  0  0
  -26.5603  -34.8924   22.4671 O   0  0  0  0  0  0
  -23.5438  -32.1384   23.7360 O   0  0  0  0  0  0
  -29.0184  -19.3535   21.8131 C   0  0  0  0  0  0
  -30.3046  -19.2384   19.7973 C   0  0  0  0  0  0
  -29.1610  -17.9404   21.9683 C   0  0  0  0  0  0
  -30.4391  -17.8168   19.9517 C   0  0  0  0  0  0
  -29.6089  -20.0607   20.7344 C   0  0  0  0  0  0
  -29.9030  -17.1121   21.0698 C   0  0  0  0  0  0
  -30.1916  -23.7239   20.7477 C   0  0  0  0  0  0
  -28.9141  -23.7447   20.3556 C   0  0  0  0  0  0
  -30.6164  -22.3432   20.9356 C   0  0  0  0  0  0
  -28.4999  -22.3260   20.3012 C   0  0  0  0  0  0
  -30.1620  -15.3484   22.8171 C   0  0  0  0  0  0
  -27.9755  -24.9459   19.9627 C   0  0  0  0  0  0
  -29.5659  -21.5407   20.6425 N   0  0  0  0  0  0
  -30.1152  -15.6660   21.3793 N   0  0  0  0  0  0
  -31.7330  -21.9583   21.3035 O   0  0  0  0  0  0
  -27.3810  -21.8979   19.9950 O   0  0  0  0  0  0
  -31.4712  -12.5685   19.1559 H   0  0  0  0  0  0
  -30.3792  -11.4498   19.9140 H   0  0  0  0  0  0
  -29.7807  -11.7702   17.4959 H   0  0  0  0  0  0
  -29.6343  -13.4933   17.7359 H   0  0  0  0  0  0
  -27.8756  -11.2983   18.8771 H   0  0  0  0  0  0
  -27.3724  -12.5693   17.7955 H   0  0  0  0  0  0
  -27.6600  -14.2618   19.5105 H   0  0  0  0  0  0
  -28.7096  -12.0912   21.3882 H   0  0  0  0  0  0
  -28.3823  -13.7411   21.8204 H   0  0  0  0  0  0
  -25.2780   -9.5689   22.4736 H   0  0  0  0  0  0
  -24.0011   -7.4649   22.7484 H   0  0  0  0  0  0
  -21.0851   -8.8752   19.8948 H   0  0  0  0  0  0
  -22.3697  -10.9649   19.6135 H   0  0  0  0  0  0
  -21.2017   -7.6151   23.9725 H   0  0  0  0  0  0
  -21.1469   -6.0513   25.9076 H   0  0  0  0  0  0
  -22.0601   -2.7618   23.2826 H   0  0  0  0  0  0
  -22.4096  -11.9833   22.4749 H   0  0  0  0  0  0
  -21.1084  -13.1197   22.2625 H   0  0  0  0  0  0
  -24.6582  -15.8469   20.5425 H   0  0  0  0  0  0
  -26.2805  -15.6362   20.1181 H   0  0  0  0  0  0
  -26.7184  -32.5447   23.1131 H   0  0  0  0  0  0
  -25.0139  -33.9734   25.0481 H   0  0  0  0  0  0
  -22.7197  -31.3071   21.4023 H   0  0  0  0  0  0
  -23.3749  -35.9614   23.3283 H   0  0  0  0  0  0
  -24.3601  -36.8926   22.2058 H   0  0  0  0  0  0
  -23.7208  -37.6487   23.6661 H   0  0  0  0  0  0
  -26.0946  -31.5432   20.6048 H   0  0  0  0  0  0
  -26.8505  -30.8418   22.0031 H   0  0  0  0  0  0
  -28.1062  -28.9428   21.2353 H   0  0  0  0  0  0
  -25.9446  -25.9726   18.9308 H   0  0  0  0  0  0
  -23.9806  -27.3426   18.9631 H   0  0  0  0  0  0
  -23.7660  -30.6006   19.4036 H   0  0  0  0  0  0
  -22.7627  -29.2539   19.8534 H   0  0  0  0  0  0
  -25.1288  -36.1944   25.0835 H   0  0  0  0  0  0
  -21.0002  -28.3249   24.1383 H   0  0  0  0  0  0
  -20.5646  -26.2328   23.3617 H   0  0  0  0  0  0
  -21.6645  -26.7426   22.1216 H   0  0  0  0  0  0
  -19.6911  -25.6301   21.1237 H   0  0  0  0  0  0
  -19.6670  -27.3198   20.6735 H   0  0  0  0  0  0
  -17.4216  -26.6712   21.4004 H   0  0  0  0  0  0
  -18.0312  -26.0059   22.9001 H   0  0  0  0  0  0
  -19.7950  -30.7278   24.2237 H   0  0  0  0  0  0
  -17.5045  -31.6257   24.5199 H   0  0  0  0  0  0
  -15.5367  -30.3006   23.7636 H   0  0  0  0  0  0
  -15.8695  -28.0825   22.7071 H   0  0  0  0  0  0
  -24.5923  -30.7060   25.7876 H   0  0  0  0  0  0
  -24.8878  -32.2943   26.4825 H   0  0  0  0  0  0
  -25.8075  -30.9051   27.0302 H   0  0  0  0  0  0
  -26.2866  -29.6793   24.1185 H   0  0  0  0  0  0
  -27.3987  -29.7250   25.4678 H   0  0  0  0  0  0
  -27.8757  -30.4313   23.9423 H   0  0  0  0  0  0
  -27.2703  -33.3676   26.1990 H   0  0  0  0  0  0
  -28.3920  -32.6742   25.0356 H   0  0  0  0  0  0
  -28.0642  -31.8473   26.5503 H   0  0  0  0  0  0
  -28.2571  -38.0108   24.7530 H   0  0  0  0  0  0
  -28.1067  -36.2638   24.6230 H   0  0  0  0  0  0
  -27.2315  -37.1407   25.8869 H   0  0  0  0  0  0
  -20.9381  -29.8852   21.6934 H   0  0  0  0  0  0
  -26.0142  -38.2859   24.1448 H   0  0  0  0  0  0
  -28.4688  -19.8997   22.5678 H   0  0  0  0  0  0
  -30.7767  -19.7097   18.9473 H   0  0  0  0  0  0
  -28.6900  -17.5041   22.8373 H   0  0  0  0  0  0
  -31.0139  -17.2822   19.2077 H   0  0  0  0  0  0
  -30.8233  -24.5871   20.8860 H   0  0  0  0  0  0
  -30.7894  -16.0725   23.3400 H   0  0  0  0  0  0
  -30.5830  -14.3645   23.0417 H   0  0  0  0  0  0
  -29.1671  -15.3781   23.2606 H   0  0  0  0  0  0
  -27.0420  -24.7297   20.4823 H   0  0  0  0  0  0
  -27.7867  -24.8179   18.8965 H   0  0  0  0  0  0
  1 25  1  0  0  0
  1 30  2  0  0  0
  1 84  1  0  0  0
  2  3  1  0  0  0
  2 25  1  0  0  0
  2 87  1  0  0  0
  2 88  1  0  0  0
  3  4  1  0  0  0
  3 89  1  0  0  0
  3 90  1  0  0  0
  4  5  1  0  0  0
  4 91  1  0  0  0
  4 92  1  0  0  0
  5  6  1  0  0  0
  5 26  1  0  0  0
  5 93  1  0  0  0
  6 25  1  0  0  0
  6 94  1  0  0  0
  6 95  1  0  0  0
  7  8  2  0  0  0
  7 26  1  0  0  0
  7 29  1  0  0  0
  8  9  1  0  0  0
  8 22  1  0  0  0
  9 10  1  0  0  0
  9 27  2  0  0  0
 10 11  2  0  0  0
 10 15  1  0  0  0
 11 12  1  0  0  0
 11 96  1  0  0  0
 12 13  2  0  0  0
 12 97  1  0  0  0
 13 14  1  0  0  0
 13 31  1  0  0  0
 14 15  2  0  0  0
 14 98  1  0  0  0
 15 99  1  0  0  0
 16 17  2  0  0  0
 16 21  1  0  0  0
 16 31  1  0  0  0
 17 18  1  0  0  0
 17100  1  0  0  0
 18 19  2  0  0  0
 18101  1  0  0  0
 19 20  1  0  0  0
 19 24  1  0  0  0
 20 21  2  0  0  0
 20102  1  0  0  0
 21 23  1  0  0  0
 22 28  1  0  0  0
 22 32  2  0  0  0
 26 27  1  0  0  0
 28103  1  0  0  0
 28104  1  0  0  0
 29105  1  0  0  0
 29106  1  0  0  0
 33 34  1  0  0  0
 33 66  1  0  0  0
 33 70  2  0  0  0
 34 36  1  0  0  0
 34 59  1  0  0  0
 34107  1  0  0  0
 35 44  2  0  0  0
 35 45  1  0  0  0
 35 68  1  0  0  0
 36 56  1  0  0  0
 36108  1  0  0  0
 37 39  1  0  0  0
 37 47  1  0  0  0
 37 66  1  0  0  0
 37109  1  0  0  0
 38 43  2  0  0  0
 38 46  1  0  0  0
 38 47  1  0  0  0
 39 64  1  0  0  0
 39 67  2  0  0  0
 40 52  1  0  0  0
 40 53  2  0  0  0
 40 58  1  0  0  0
 41110  1  0  0  0
 41111  1  0  0  0
 41112  1  0  0  0
 41 48  1  0  0  0
 42 43  1  0  0  0
 42 66  1  0  0  0
 42113  1  0  0  0
 42114  1  0  0  0
 43 44  1  0  0  0
 44115  1  0  0  0
 45 46  2  0  0  0
 45116  1  0  0  0
 46117  1  0  0  0
 47118  1  0  0  0
 47119  1  0  0  0
 48 56  1  0  0  0
 48 65  1  0  0  0
 48120  1  0  0  0
 49 50  1  0  0  0
 49 53  1  0  0  0
 49 64  1  0  0  0
 49121  1  0  0  0
 50 51  1  0  0  0
 50122  1  0  0  0
 50123  1  0  0  0
 51 52  1  0  0  0
 51124  1  0  0  0
 51125  1  0  0  0
 52126  1  0  0  0
 52127  1  0  0  0
 53 54  1  0  0  0
 54 55  2  0  0  0
 54128  1  0  0  0
 55 57  1  0  0  0
 55129  1  0  0  0
 56 69  2  0  0  0
 57 58  2  0  0  0
 57130  1  0  0  0
 58131  1  0  0  0
 59 60  1  0  0  0
 59 61  1  0  0  0
 59 62  1  0  0  0
 60132  1  0  0  0
 60133  1  0  0  0
 60134  1  0  0  0
 61135  1  0  0  0
 61136  1  0  0  0
 61137  1  0  0  0
 62138  1  0  0  0
 62139  1  0  0  0
 62140  1  0  0  0
 63 65  1  0  0  0
 63141  1  0  0  0
 63142  1  0  0  0
 63143  1  0  0  0
 64144  1  0  0  0
 65145  1  0  0  0
 68 82  1  0  0  0
 71 73  2  0  0  0
 71 75  1  0  0  0
 71146  1  0  0  0
 72 74  1  0  0  0
 72 75  2  0  0  0
 72147  1  0  0  0
 73 76  1  0  0  0
 73148  1  0  0  0
 74 76  2  0  0  0
 74149  1  0  0  0
 75 83  1  0  0  0
 76 84  1  0  0  0
 77 78  2  0  0  0
 77 79  1  0  0  0
 77150  1  0  0  0
 78 80  1  0  0  0
 78 82  1  0  0  0
 79 83  1  0  0  0
 79 85  2  0  0  0
 80 83  1  0  0  0
 80 86  2  0  0  0
 81 84  1  0  0  0
 81151  1  0  0  0
 81152  1  0  0  0
 81153  1  0  0  0
 82154  1  0  0  0
 82155  1  0  0  0
M  ISO  4   1 100  68 101  82 101  84 100
M  END
> <chiral flag>
0

> <version>
0

> <s_m_source_file>
/data/baiqing/PycharmProjects/Reinvent-master-3.2/result/LINK_invent/BTK/process_docking_weight1_custom_product_contain_oxygen_bond_distance_aromatic_linkinvent_7_9_3/rearranged_h_0077.sdf

> <i_m_source_file_index>
17

> <r_mmod_Potential_Energy-OPLS-2005>
287.699737548828

> <r_mmod_Stretch_Energy-OPLS-2005>
101.756286621094

> <r_mmod_Bend_Energy-OPLS-2005>
197.528198242188

> <r_mmod_Torsional_Energy-OPLS-2005>
318.267700195312

> <r_mmod_Improper_Torsional_Energy-OPLS-2005>
3.13877701759338

> <r_mmod_Van_der_Waal_Energy-OPLS-2005>
151.636688232422

> <r_mmod_Electrostatic_Energy-OPLS-2005>
-325.194030761719

> <r_mmod_Solvation_Energy-OPLS-2005>
-222.823806762695

> <b_mmod_Minimization_Converged-OPLS-2005>
0

> <r_mmod_RMS_Derivative-OPLS-2005>
2.55566811561584

$$$$
17
                    3D
 Structure written by MMmdl.
156165  0  0  1  0            999 V2000
  -30.6477  -14.8098   20.4671 C   0  0  0  0  0  0
  -30.4125  -12.4936   19.5121 C   0  0  0  0  0  0
  -29.5121  -12.5373   18.2578 C   0  0  0  0  0  0
  -28.0395  -12.3430   18.6569 C   0  0  0  0  0  0
  -27.6324  -13.2472   19.8484 C   0  0  2  0  0  0
  -28.6720  -13.2352   20.9950 C   0  0  0  0  0  0
  -25.2369  -13.8201   20.5667 C   0  0  0  0  0  0
  -24.1726  -13.0398   20.9247 C   0  0  0  0  0  0
  -24.6396  -11.6904   20.8770 C   0  0  0  0  0  0
  -23.9093  -10.4274   21.0414 C   0  0  0  0  0  0
  -24.3653   -9.4184   21.9177 C   0  0  0  0  0  0
  -23.6320   -8.2232   22.0743 C   0  0  0  0  0  0
  -22.4287   -8.0292   21.3561 C   0  0  0  0  0  0
  -21.9939   -9.0249   20.4642 C   0  0  0  0  0  0
  -22.7283  -10.2112   20.3048 C   0  0  0  0  0  0
  -21.6844   -6.0750   22.5289 C   0  0  0  0  0  0
  -21.4005   -6.5639   23.8224 C   0  0  0  0  0  0
  -21.3652   -5.6792   24.9173 C   0  0  0  0  0  0
  -21.6046   -4.3059   24.7226 C   0  0  0  0  0  0
  -21.8819   -3.8151   23.4343 C   0  0  0  0  0  0
  -21.9193   -4.6977   22.3402 C   0  0  0  0  0  0
  -22.7743  -13.5137   21.1902 C   0  0  0  0  0  0
  -22.1658   -4.2163   21.0987 F   0  0  0  0  0  0
  -21.5622   -3.4542   25.7732 F   0  0  0  0  0  0
  -29.9821  -13.5885   20.4290 N   0  0  0  0  0  0
  -26.2864  -12.9482   20.3259 N   0  0  0  0  0  0
  -25.9331  -11.6597   20.5762 N   0  0  0  0  0  0
  -22.0427  -12.8117   22.0473 N   0  0  0  0  0  0
  -25.3757  -15.1940   20.3997 N   0  0  0  0  0  0
  -31.7718  -14.8765   19.9594 O   0  0  0  0  0  0
  -21.6638   -6.8897   21.4256 O   0  0  0  0  0  0
  -22.3406  -14.5457   20.6776 O   0  0  0  0  0  0
  -24.6374  -31.8482   23.1919 C   0  0  0  0  0  0
  -25.9202  -32.4702   23.8260 C   0  0  1  0  0  0
  -27.2290  -27.2103   20.1199 C   0  0  0  0  0  0
  -25.5967  -33.8506   24.2197 N   0  0  0  0  0  0
  -23.4369  -30.4655   21.5403 C   0  0  2  0  0  0
  -24.8869  -28.9050   20.1036 C   0  0  0  0  0  0
  -22.7522  -29.4550   22.4937 C   0  0  0  0  0  0
  -18.0272  -28.1421   22.8509 C   0  0  0  0  0  0
  -24.1453  -36.7179   23.2640 C   0  0  0  0  0  0
  -25.9867  -30.7405   21.3830 C   0  0  0  0  0  0
  -26.0599  -29.3623   20.7167 C   0  0  0  0  0  0
  -27.2288  -28.5245   20.7185 C   0  0  0  0  0  0
  -26.0293  -26.8331   19.4767 C   0  0  0  0  0  0
  -24.8788  -27.6514   19.4705 C   0  0  0  0  0  0
  -23.6562  -29.7945   20.1589 C   0  0  0  0  0  0
  -25.4105  -36.3019   24.0327 C   0  0  1  0  0  0
  -20.5881  -28.3686   23.1310 C   0  0  2  0  0  0
  -20.6748  -26.9409   22.5453 C   0  0  0  0  0  0
  -19.5734  -26.6407   21.5250 C   0  0  0  0  0  0
  -18.1908  -26.7976   22.1658 C   0  0  0  0  0  0
  -19.1530  -28.8883   23.2888 C   0  0  0  0  0  0
  -18.9467  -30.1495   23.8884 C   0  0  0  0  0  0
  -17.6455  -30.6615   24.0575 C   0  0  0  0  0  0
  -25.9081  -34.9403   23.5067 C   0  0  0  0  0  0
  -16.5345  -29.9116   23.6343 C   0  0  0  0  0  0
  -16.7256  -28.6542   23.0367 C   0  0  0  0  0  0
  -26.4515  -31.6555   25.0680 C   0  0  0  0  0  0
  -25.3682  -31.3806   26.1356 C   0  0  0  0  0  0
  -27.0353  -30.2940   24.6249 C   0  0  0  0  0  0
  -27.6084  -32.4269   25.7472 C   0  0  0  0  0  0
  -27.5555  -37.1745   24.8484 C   0  0  0  0  0  0
  -21.4229  -29.3007   22.3674 N   0  0  0  0  0  0
  -26.4253  -37.3748   23.9446 N   0  0  0  0  0  0
  -24.7059  -31.0394   22.0937 N   0  0  0  0  0  0
  -23.4176  -28.8125   23.3086 O   0  0  0  0  0  0
  -28.2689  -26.2437   20.2645 O   0  0  0  0  0  0
  -26.5673  -34.8902   22.4646 O   0  0  0  0  0  0
  -23.5526  -32.1337   23.7196 O   0  0  0  0  0  0
  -27.3320  -18.3460   19.6976 C   0  0  0  0  0  0
  -28.1439  -17.2556   20.0762 C   0  0  0  0  0  0
  -27.7916  -19.6768   19.7646 C   0  0  0  0  0  0
  -29.9102  -18.8198   20.5933 C   0  0  0  0  0  0
  -29.4549  -17.4181   20.5653 C   0  0  0  0  0  0
  -29.1030  -19.9839   20.1864 C   0  0  0  0  0  0
  -29.1459  -23.0102   18.2733 C   0  0  0  0  0  0
  -28.7582  -23.7643   19.4548 C   0  0  0  0  0  0
  -28.9058  -23.3597   16.9954 C   0  0  0  0  0  0
  -28.4672  -25.1484   19.3627 C   0  0  0  0  0  0
  -30.1008  -16.1332   21.2293 C   0  0  0  0  0  0
  -29.8057  -21.6799   18.6235 C   0  0  0  0  0  0
  -28.8763  -22.6572   20.5796 C   0  0  0  0  0  0
  -30.2469  -16.1703   22.4870 N   0  0  0  0  0  0
  -29.5422  -21.3779   20.0390 N   0  0  0  0  0  0
  -31.4624  -12.5703   19.2253 H   0  0  0  0  0  0
  -30.3201  -11.5265   20.0116 H   0  0  0  0  0  0
  -29.8123  -11.7722   17.5410 H   0  0  0  0  0  0
  -29.6329  -13.4976   17.7547 H   0  0  0  0  0  0
  -27.9004  -11.2953   18.9220 H   0  0  0  0  0  0
  -27.3876  -12.5300   17.8029 H   0  0  0  0  0  0
  -27.6054  -14.2524   19.4372 H   0  0  0  0  0  0
  -28.7102  -12.2535   21.4688 H   0  0  0  0  0  0
  -28.3826  -13.9389   21.7765 H   0  0  0  0  0  0
  -25.2795   -9.5638   22.4762 H   0  0  0  0  0  0
  -24.0005   -7.4610   22.7464 H   0  0  0  0  0  0
  -21.0868   -8.8810   19.8950 H   0  0  0  0  0  0
  -22.3776  -10.9665   19.6166 H   0  0  0  0  0  0
  -21.2002   -7.6152   23.9728 H   0  0  0  0  0  0
  -21.1463   -6.0519   25.9079 H   0  0  0  0  0  0
  -22.0611   -2.7621   23.2843 H   0  0  0  0  0  0
  -22.4065  -11.9780   22.4845 H   0  0  0  0  0  0
  -21.1042  -13.1102   22.2712 H   0  0  0  0  0  0
  -24.5815  -15.8148   20.5172 H   0  0  0  0  0  0
  -26.1716  -15.6571   19.9848 H   0  0  0  0  0  0
  -26.7259  -32.5334   23.0981 H   0  0  0  0  0  0
  -25.0007  -33.9598   25.0269 H   0  0  0  0  0  0
  -22.7335  -31.2872   21.3909 H   0  0  0  0  0  0
  -23.3757  -35.9468   23.3328 H   0  0  0  0  0  0
  -24.3487  -36.8756   22.2038 H   0  0  0  0  0  0
  -23.7157  -37.6366   23.6631 H   0  0  0  0  0  0
  -26.1383  -31.5048   20.6213 H   0  0  0  0  0  0
  -26.8614  -30.7834   22.0212 H   0  0  0  0  0  0
  -28.1180  -28.8577   21.2367 H   0  0  0  0  0  0
  -25.9443  -25.8555   19.0233 H   0  0  0  0  0  0
  -23.9762  -27.2928   18.9931 H   0  0  0  0  0  0
  -23.7672  -30.5656   19.3963 H   0  0  0  0  0  0
  -22.7761  -29.2219   19.8673 H   0  0  0  0  0  0
  -25.1289  -36.1826   25.0821 H   0  0  0  0  0  0
  -20.9943  -28.3294   24.1448 H   0  0  0  0  0  0
  -20.5642  -26.2317   23.3655 H   0  0  0  0  0  0
  -21.6617  -26.7428   22.1262 H   0  0  0  0  0  0
  -19.6870  -25.6323   21.1263 H   0  0  0  0  0  0
  -19.6682  -27.3235   20.6791 H   0  0  0  0  0  0
  -17.4177  -26.6718   21.4050 H   0  0  0  0  0  0
  -18.0285  -26.0141   22.9069 H   0  0  0  0  0  0
  -19.7937  -30.7338   24.2239 H   0  0  0  0  0  0
  -17.5011  -31.6302   24.5190 H   0  0  0  0  0  0
  -15.5353  -30.3024   23.7699 H   0  0  0  0  0  0
  -15.8648  -28.0869   22.7096 H   0  0  0  0  0  0
  -24.5935  -30.7054   25.7731 H   0  0  0  0  0  0
  -24.8774  -32.3005   26.4550 H   0  0  0  0  0  0
  -25.7945  -30.9175   27.0258 H   0  0  0  0  0  0
  -26.2970  -29.6712   24.1173 H   0  0  0  0  0  0
  -27.3896  -29.7194   25.4829 H   0  0  0  0  0  0
  -27.8915  -30.4171   23.9593 H   0  0  0  0  0  0
  -27.2755  -33.3675   26.1883 H   0  0  0  0  0  0
  -28.4015  -32.6633   25.0352 H   0  0  0  0  0  0
  -28.0585  -31.8432   26.5517 H   0  0  0  0  0  0
  -28.2615  -38.0004   24.7529 H   0  0  0  0  0  0
  -28.1001  -36.2546   24.6315 H   0  0  0  0  0  0
  -27.2255  -37.1410   25.8877 H   0  0  0  0  0  0
  -20.9452  -29.8626   21.6773 H   0  0  0  0  0  0
  -26.0114  -38.2796   24.1518 H   0  0  0  0  0  0
  -26.3250  -18.1635   19.3522 H   0  0  0  0  0  0
  -27.7241  -16.2674   20.0602 H   0  0  0  0  0  0
  -27.1267  -20.4644   19.4410 H   0  0  0  0  0  0
  -30.9100  -19.0054   20.9586 H   0  0  0  0  0  0
  -28.4061  -24.2718   16.7111 H   0  0  0  0  0  0
  -29.2078  -22.7062   16.1881 H   0  0  0  0  0  0
  -28.4843  -25.5862   18.3779 H   0  0  0  0  0  0
  -30.8821  -21.7518   18.4520 H   0  0  0  0  0  0
  -29.4340  -20.9040   17.9507 H   0  0  0  0  0  0
  -27.8868  -22.4245   20.9775 H   0  0  0  0  0  0
  -29.4727  -23.0538   21.4019 H   0  0  0  0  0  0
  -29.9037  -17.0468   22.8625 H   0  0  0  0  0  0
  1 25  1  0  0  0
  1 30  2  0  0  0
  1 81  1  0  0  0
  2  3  1  0  0  0
  2 25  1  0  0  0
  2 86  1  0  0  0
  2 87  1  0  0  0
  3  4  1  0  0  0
  3 88  1  0  0  0
  3 89  1  0  0  0
  4  5  1  0  0  0
  4 90  1  0  0  0
  4 91  1  0  0  0
  5  6  1  0  0  0
  5 26  1  0  0  0
  5 92  1  0  0  0
  6 25  1  0  0  0
  6 93  1  0  0  0
  6 94  1  0  0  0
  7  8  2  0  0  0
  7 26  1  0  0  0
  7 29  1  0  0  0
  8  9  1  0  0  0
  8 22  1  0  0  0
  9 10  1  0  0  0
  9 27  2  0  0  0
 10 11  2  0  0  0
 10 15  1  0  0  0
 11 12  1  0  0  0
 11 95  1  0  0  0
 12 13  2  0  0  0
 12 96  1  0  0  0
 13 14  1  0  0  0
 13 31  1  0  0  0
 14 15  2  0  0  0
 14 97  1  0  0  0
 15 98  1  0  0  0
 16 17  2  0  0  0
 16 21  1  0  0  0
 16 31  1  0  0  0
 17 18  1  0  0  0
 17 99  1  0  0  0
 18 19  2  0  0  0
 18100  1  0  0  0
 19 20  1  0  0  0
 19 24  1  0  0  0
 20 21  2  0  0  0
 20101  1  0  0  0
 21 23  1  0  0  0
 22 28  1  0  0  0
 22 32  2  0  0  0
 26 27  1  0  0  0
 28102  1  0  0  0
 28103  1  0  0  0
 29104  1  0  0  0
 29105  1  0  0  0
 33 34  1  0  0  0
 33 66  1  0  0  0
 33 70  2  0  0  0
 34 36  1  0  0  0
 34 59  1  0  0  0
 34106  1  0  0  0
 35 44  2  0  0  0
 35 45  1  0  0  0
 35 68  1  0  0  0
 36 56  1  0  0  0
 36107  1  0  0  0
 37 39  1  0  0  0
 37 47  1  0  0  0
 37 66  1  0  0  0
 37108  1  0  0  0
 38 43  2  0  0  0
 38 46  1  0  0  0
 38 47  1  0  0  0
 39 64  1  0  0  0
 39 67  2  0  0  0
 40 52  1  0  0  0
 40 53  2  0  0  0
 40 58  1  0  0  0
 41109  1  0  0  0
 41110  1  0  0  0
 41111  1  0  0  0
 41 48  1  0  0  0
 42 43  1  0  0  0
 42 66  1  0  0  0
 42112  1  0  0  0
 42113  1  0  0  0
 43 44  1  0  0  0
 44114  1  0  0  0
 45 46  2  0  0  0
 45115  1  0  0  0
 46116  1  0  0  0
 47117  1  0  0  0
 47118  1  0  0  0
 48 56  1  0  0  0
 48 65  1  0  0  0
 48119  1  0  0  0
 49 50  1  0  0  0
 49 53  1  0  0  0
 49 64  1  0  0  0
 49120  1  0  0  0
 50 51  1  0  0  0
 50121  1  0  0  0
 50122  1  0  0  0
 51 52  1  0  0  0
 51123  1  0  0  0
 51124  1  0  0  0
 52125  1  0  0  0
 52126  1  0  0  0
 53 54  1  0  0  0
 54 55  2  0  0  0
 54127  1  0  0  0
 55 57  1  0  0  0
 55128  1  0  0  0
 56 69  2  0  0  0
 57 58  2  0  0  0
 57129  1  0  0  0
 58130  1  0  0  0
 59 60  1  0  0  0
 59 61  1  0  0  0
 59 62  1  0  0  0
 60131  1  0  0  0
 60132  1  0  0  0
 60133  1  0  0  0
 61134  1  0  0  0
 61135  1  0  0  0
 61136  1  0  0  0
 62137  1  0  0  0
 62138  1  0  0  0
 62139  1  0  0  0
 63 65  1  0  0  0
 63140  1  0  0  0
 63141  1  0  0  0
 63142  1  0  0  0
 64143  1  0  0  0
 65144  1  0  0  0
 68 80  1  0  0  0
 71 72  2  0  0  0
 71 73  1  0  0  0
 71145  1  0  0  0
 72 75  1  0  0  0
 72146  1  0  0  0
 73 76  2  0  0  0
 73147  1  0  0  0
 74 75  2  0  0  0
 74 76  1  0  0  0
 74148  1  0  0  0
 75 81  1  0  0  0
 76 85  1  0  0  0
 77 78  1  0  0  0
 77 79  2  0  0  0
 77 82  1  0  0  0
 78 80  2  0  0  0
 78 83  1  0  0  0
 79149  1  0  0  0
 79150  1  0  0  0
 80151  1  0  0  0
 81 84  2  0  0  0
 82 85  1  0  0  0
 82152  1  0  0  0
 82153  1  0  0  0
 83 85  1  0  0  0
 83154  1  0  0  0
 83155  1  0  0  0
 84156  1  0  0  0
M  ISO  4   1 100  68 101  80 101  81 100
M  END
> <chiral flag>
0

> <version>
0

> <s_m_source_file>
/data/baiqing/PycharmProjects/Reinvent-master-3.2/result/LINK_invent/BTK/process_docking_weight1_custom_product_contain_oxygen_bond_distance_aromatic_linkinvent_7_9_3/rearranged_h_0077.sdf

> <i_m_source_file_index>
18

> <r_mmod_Potential_Energy-OPLS-2005>
566.654602050781

> <r_mmod_Stretch_Energy-OPLS-2005>
170.465286254883

> <r_mmod_Bend_Energy-OPLS-2005>
311.155670166016

> <r_mmod_Torsional_Energy-OPLS-2005>
269.644439697266

> <r_mmod_Improper_Torsional_Energy-OPLS-2005>
11.0110397338867

> <r_mmod_Van_der_Waal_Energy-OPLS-2005>
132.727493286133

> <r_mmod_Electrostatic_Energy-OPLS-2005>
-231.597030639648

> <r_mmod_Solvation_Energy-OPLS-2005>
-223.222763061523

> <b_mmod_Minimization_Converged-OPLS-2005>
0

> <r_mmod_RMS_Derivative-OPLS-2005>
4.09840726852417

$$$$
18
                    3D
 Structure written by MMmdl.
157166  0  0  1  0            999 V2000
  -30.5822  -14.7037   20.4774 C   0  0  0  0  0  0
  -30.4484  -12.4305   19.4537 C   0  0  0  0  0  0
  -29.5129  -12.5109   18.2256 C   0  0  0  0  0  0
  -28.0365  -12.3365   18.6386 C   0  0  0  0  0  0
  -27.6504  -13.2165   19.8563 C   0  0  2  0  0  0
  -28.6969  -13.0954   20.9865 C   0  0  0  0  0  0
  -25.2562  -13.8174   20.5664 C   0  0  0  0  0  0
  -24.1835  -13.0441   20.9197 C   0  0  0  0  0  0
  -24.6396  -11.6910   20.8738 C   0  0  0  0  0  0
  -23.9059  -10.4296   21.0407 C   0  0  0  0  0  0
  -24.3613   -9.4211   21.9181 C   0  0  0  0  0  0
  -23.6292   -8.2244   22.0753 C   0  0  0  0  0  0
  -22.4274   -8.0278   21.3542 C   0  0  0  0  0  0
  -21.9905   -9.0254   20.4647 C   0  0  0  0  0  0
  -22.7229  -10.2136   20.3058 C   0  0  0  0  0  0
  -21.6854   -6.0733   22.5278 C   0  0  0  0  0  0
  -21.4013   -6.5636   23.8211 C   0  0  0  0  0  0
  -21.3662   -5.6790   24.9174 C   0  0  0  0  0  0
  -21.6044   -4.3052   24.7223 C   0  0  0  0  0  0
  -21.8820   -3.8144   23.4344 C   0  0  0  0  0  0
  -21.9194   -4.6962   22.3400 C   0  0  0  0  0  0
  -22.7856  -13.5237   21.1864 C   0  0  0  0  0  0
  -22.1664   -4.2149   21.0978 F   0  0  0  0  0  0
  -21.5629   -3.4534   25.7734 F   0  0  0  0  0  0
  -30.0043  -13.4587   20.4167 N   0  0  0  0  0  0
  -26.2979  -12.9344   20.3279 N   0  0  0  0  0  0
  -25.9322  -11.6502   20.5741 N   0  0  0  0  0  0
  -22.0493  -12.8230   22.0419 N   0  0  0  0  0  0
  -25.4252  -15.1898   20.4059 N   0  0  0  0  0  0
  -31.7620  -14.8761   20.1560 O   0  0  0  0  0  0
  -21.6639   -6.8874   21.4238 O   0  0  0  0  0  0
  -22.3539  -14.5541   20.6710 O   0  0  0  0  0  0
  -24.6311  -31.8573   23.1979 C   0  0  0  0  0  0
  -25.9140  -32.4760   23.8328 C   0  0  1  0  0  0
  -27.2279  -27.2818   20.1092 C   0  0  0  0  0  0
  -25.5947  -33.8562   24.2266 N   0  0  0  0  0  0
  -23.4258  -30.4800   21.5431 C   0  0  2  0  0  0
  -24.8699  -28.9273   20.1138 C   0  0  0  0  0  0
  -22.7496  -29.4619   22.4930 C   0  0  0  0  0  0
  -18.0288  -28.1383   22.8480 C   0  0  0  0  0  0
  -24.1500  -36.7289   23.2631 C   0  0  0  0  0  0
  -25.9703  -30.7768   21.3709 C   0  0  0  0  0  0
  -26.0439  -29.4003   20.7129 C   0  0  0  0  0  0
  -27.2234  -28.5905   20.6982 C   0  0  0  0  0  0
  -26.0122  -26.8573   19.5239 C   0  0  0  0  0  0
  -24.8571  -27.6610   19.5124 C   0  0  0  0  0  0
  -23.6415  -29.8135   20.1599 C   0  0  0  0  0  0
  -25.4121  -36.3072   24.0324 C   0  0  1  0  0  0
  -20.5892  -28.3699   23.1277 C   0  0  2  0  0  0
  -20.6783  -26.9422   22.5409 C   0  0  0  0  0  0
  -19.5762  -26.6386   21.5212 C   0  0  0  0  0  0
  -18.1939  -26.7925   22.1621 C   0  0  0  0  0  0
  -19.1540  -28.8856   23.2873 C   0  0  0  0  0  0
  -18.9462  -30.1457   23.8892 C   0  0  0  0  0  0
  -17.6463  -30.6588   24.0557 C   0  0  0  0  0  0
  -25.9062  -34.9444   23.5096 C   0  0  0  0  0  0
  -16.5353  -29.9083   23.6329 C   0  0  0  0  0  0
  -16.7274  -28.6500   23.0348 C   0  0  0  0  0  0
  -26.4502  -31.6561   25.0705 C   0  0  0  0  0  0
  -25.3725  -31.3709   26.1426 C   0  0  0  0  0  0
  -27.0314  -30.2969   24.6163 C   0  0  0  0  0  0
  -27.6079  -32.4267   25.7476 C   0  0  0  0  0  0
  -27.5589  -37.1799   24.8458 C   0  0  0  0  0  0
  -21.4205  -29.3050   22.3670 N   0  0  0  0  0  0
  -26.4295  -37.3771   23.9406 N   0  0  0  0  0  0
  -24.6953  -31.0548   22.0944 N   0  0  0  0  0  0
  -23.4205  -28.8173   23.3031 O   0  0  0  0  0  0
  -28.3515  -26.4209   20.1620 O   0  0  0  0  0  0
  -26.5634  -34.8918   22.4665 O   0  0  0  0  0  0
  -23.5466  -32.1396   23.7282 O   0  0  0  0  0  0
  -30.5701  -19.4947   21.1347 C   0  0  0  0  0  0
  -30.7235  -18.0668   21.1425 C   0  0  0  0  0  0
  -28.5376  -19.2911   19.8834 C   0  0  0  0  0  0
  -29.4695  -20.1644   20.5134 C   0  0  0  0  0  0
  -29.7574  -17.2053   20.5554 C   0  0  0  0  0  0
  -28.6644  -17.8652   19.9267 C   0  0  0  0  0  0
  -28.7161  -23.9296   20.2639 C   0  0  0  0  0  0
  -29.1093  -23.7563   21.6412 C   0  0  0  0  0  0
  -28.8009  -22.5442   19.6862 C   0  0  0  0  0  0
  -29.0343  -24.6822   22.6136 C   0  0  0  0  0  0
  -28.3795  -25.1106   19.5975 C   0  0  0  0  0  0
  -29.5868  -22.3370   21.8707 C   0  0  0  0  0  0
  -28.1762  -25.1588   18.0861 C   0  0  0  0  0  0
  -29.2736  -21.6368   20.6195 N   0  0  0  0  0  0
  -29.7071  -15.7406   20.7058 N   0  0  0  0  0  0
  -28.4989  -22.2129   18.5345 O   0  0  0  0  0  0
  -27.6857  -17.1033   19.3786 F   0  0  0  0  0  0
  -31.4857  -12.5795   19.1480 H   0  0  0  0  0  0
  -30.4068  -11.4399   19.9092 H   0  0  0  0  0  0
  -29.7881  -11.7516   17.4921 H   0  0  0  0  0  0
  -29.6405  -13.4742   17.7295 H   0  0  0  0  0  0
  -27.8848  -11.2844   18.8826 H   0  0  0  0  0  0
  -27.3797  -12.5508   17.7951 H   0  0  0  0  0  0
  -27.6576  -14.2458   19.4979 H   0  0  0  0  0  0
  -28.7250  -12.0787   21.3812 H   0  0  0  0  0  0
  -28.4348  -13.7351   21.8309 H   0  0  0  0  0  0
  -25.2757   -9.5692   22.4755 H   0  0  0  0  0  0
  -24.0006   -7.4634   22.7467 H   0  0  0  0  0  0
  -21.0837   -8.8773   19.8953 H   0  0  0  0  0  0
  -22.3686  -10.9676   19.6171 H   0  0  0  0  0  0
  -21.2006   -7.6145   23.9716 H   0  0  0  0  0  0
  -21.1483   -6.0517   25.9078 H   0  0  0  0  0  0
  -22.0599   -2.7607   23.2840 H   0  0  0  0  0  0
  -22.4105  -11.9890   22.4805 H   0  0  0  0  0  0
  -21.1116  -13.1272   22.2629 H   0  0  0  0  0  0
  -24.6486  -15.8330   20.5081 H   0  0  0  0  0  0
  -26.2531  -15.6375   20.0292 H   0  0  0  0  0  0
  -26.7207  -32.5417   23.1071 H   0  0  0  0  0  0
  -25.0090  -33.9702   25.0412 H   0  0  0  0  0  0
  -22.7216  -31.3020   21.3978 H   0  0  0  0  0  0
  -23.3762  -35.9619   23.3272 H   0  0  0  0  0  0
  -24.3609  -36.8934   22.2053 H   0  0  0  0  0  0
  -23.7255  -37.6484   23.6669 H   0  0  0  0  0  0
  -26.1017  -31.5369   20.5991 H   0  0  0  0  0  0
  -26.8510  -30.8297   21.9992 H   0  0  0  0  0  0
  -28.1256  -28.9512   21.1719 H   0  0  0  0  0  0
  -25.9178  -25.8738   19.0920 H   0  0  0  0  0  0
  -23.9512  -27.2820   19.0592 H   0  0  0  0  0  0
  -23.7667  -30.5890   19.4035 H   0  0  0  0  0  0
  -22.7591  -29.2475   19.8563 H   0  0  0  0  0  0
  -25.1298  -36.1917   25.0814 H   0  0  0  0  0  0
  -20.9981  -28.3271   24.1399 H   0  0  0  0  0  0
  -20.5692  -26.2309   23.3607 H   0  0  0  0  0  0
  -21.6654  -26.7457   22.1204 H   0  0  0  0  0  0
  -19.6932  -25.6296   21.1249 H   0  0  0  0  0  0
  -19.6702  -27.3187   20.6736 H   0  0  0  0  0  0
  -17.4213  -26.6661   21.4017 H   0  0  0  0  0  0
  -18.0347  -26.0067   22.9019 H   0  0  0  0  0  0
  -19.7936  -30.7269   24.2267 H   0  0  0  0  0  0
  -17.5015  -31.6269   24.5155 H   0  0  0  0  0  0
  -15.5354  -30.2980   23.7661 H   0  0  0  0  0  0
  -15.8672  -28.0820   22.7065 H   0  0  0  0  0  0
  -24.5930  -30.7020   25.7760 H   0  0  0  0  0  0
  -24.8875  -32.2868   26.4809 H   0  0  0  0  0  0
  -25.8051  -30.8930   27.0227 H   0  0  0  0  0  0
  -26.2871  -29.6736   24.1188 H   0  0  0  0  0  0
  -27.3988  -29.7213   25.4668 H   0  0  0  0  0  0
  -27.8764  -30.4217   23.9388 H   0  0  0  0  0  0
  -27.2721  -33.3577   26.2053 H   0  0  0  0  0  0
  -28.3899  -32.6800   25.0305 H   0  0  0  0  0  0
  -28.0730  -31.8374   26.5387 H   0  0  0  0  0  0
  -28.2583  -38.0118   24.7526 H   0  0  0  0  0  0
  -28.1113  -36.2651   24.6250 H   0  0  0  0  0  0
  -27.2318  -37.1406   25.8864 H   0  0  0  0  0  0
  -20.9393  -29.8761   21.6864 H   0  0  0  0  0  0
  -26.0172  -38.2847   24.1402 H   0  0  0  0  0  0
  -31.3223  -20.0826   21.6417 H   0  0  0  0  0  0
  -31.5669  -17.6358   21.6629 H   0  0  0  0  0  0
  -27.6633  -19.7086   19.4060 H   0  0  0  0  0  0
  -28.6683  -25.6823   22.4369 H   0  0  0  0  0  0
  -29.3405  -24.4458   23.6227 H   0  0  0  0  0  0
  -29.0629  -21.8775   22.7096 H   0  0  0  0  0  0
  -30.6586  -22.3248   22.0707 H   0  0  0  0  0  0
  -29.0480  -24.7477   17.5765 H   0  0  0  0  0  0
  -28.0451  -26.1783   17.7226 H   0  0  0  0  0  0
  -27.3049  -24.5742   17.7896 H   0  0  0  0  0  0
  -28.7648  -15.3975   20.8081 H   0  0  0  0  0  0
  1 25  1  0  0  0
  1 30  2  0  0  0
  1 85  1  0  0  0
  2  3  1  0  0  0
  2 25  1  0  0  0
  2 88  1  0  0  0
  2 89  1  0  0  0
  3  4  1  0  0  0
  3 90  1  0  0  0
  3 91  1  0  0  0
  4  5  1  0  0  0
  4 92  1  0  0  0
  4 93  1  0  0  0
  5  6  1  0  0  0
  5 26  1  0  0  0
  5 94  1  0  0  0
  6 25  1  0  0  0
  6 95  1  0  0  0
  6 96  1  0  0  0
  7  8  2  0  0  0
  7 26  1  0  0  0
  7 29  1  0  0  0
  8  9  1  0  0  0
  8 22  1  0  0  0
  9 10  1  0  0  0
  9 27  2  0  0  0
 10 11  2  0  0  0
 10 15  1  0  0  0
 11 12  1  0  0  0
 11 97  1  0  0  0
 12 13  2  0  0  0
 12 98  1  0  0  0
 13 14  1  0  0  0
 13 31  1  0  0  0
 14 15  2  0  0  0
 14 99  1  0  0  0
 15100  1  0  0  0
 16 17  2  0  0  0
 16 21  1  0  0  0
 16 31  1  0  0  0
 17 18  1  0  0  0
 17101  1  0  0  0
 18 19  2  0  0  0
 18102  1  0  0  0
 19 20  1  0  0  0
 19 24  1  0  0  0
 20 21  2  0  0  0
 20103  1  0  0  0
 21 23  1  0  0  0
 22 28  1  0  0  0
 22 32  2  0  0  0
 26 27  1  0  0  0
 28104  1  0  0  0
 28105  1  0  0  0
 29106  1  0  0  0
 29107  1  0  0  0
 33 34  1  0  0  0
 33 66  1  0  0  0
 33 70  2  0  0  0
 34 36  1  0  0  0
 34 59  1  0  0  0
 34108  1  0  0  0
 35 44  2  0  0  0
 35 45  1  0  0  0
 35 68  1  0  0  0
 36 56  1  0  0  0
 36109  1  0  0  0
 37 39  1  0  0  0
 37 47  1  0  0  0
 37 66  1  0  0  0
 37110  1  0  0  0
 38 43  2  0  0  0
 38 46  1  0  0  0
 38 47  1  0  0  0
 39 64  1  0  0  0
 39 67  2  0  0  0
 40 52  1  0  0  0
 40 53  2  0  0  0
 40 58  1  0  0  0
 41111  1  0  0  0
 41112  1  0  0  0
 41113  1  0  0  0
 41 48  1  0  0  0
 42 43  1  0  0  0
 42 66  1  0  0  0
 42114  1  0  0  0
 42115  1  0  0  0
 43 44  1  0  0  0
 44116  1  0  0  0
 45 46  2  0  0  0
 45117  1  0  0  0
 46118  1  0  0  0
 47119  1  0  0  0
 47120  1  0  0  0
 48 56  1  0  0  0
 48 65  1  0  0  0
 48121  1  0  0  0
 49 50  1  0  0  0
 49 53  1  0  0  0
 49 64  1  0  0  0
 49122  1  0  0  0
 50 51  1  0  0  0
 50123  1  0  0  0
 50124  1  0  0  0
 51 52  1  0  0  0
 51125  1  0  0  0
 51126  1  0  0  0
 52127  1  0  0  0
 52128  1  0  0  0
 53 54  1  0  0  0
 54 55  2  0  0  0
 54129  1  0  0  0
 55 57  1  0  0  0
 55130  1  0  0  0
 56 69  2  0  0  0
 57 58  2  0  0  0
 57131  1  0  0  0
 58132  1  0  0  0
 59 60  1  0  0  0
 59 61  1  0  0  0
 59 62  1  0  0  0
 60133  1  0  0  0
 60134  1  0  0  0
 60135  1  0  0  0
 61136  1  0  0  0
 61137  1  0  0  0
 61138  1  0  0  0
 62139  1  0  0  0
 62140  1  0  0  0
 62141  1  0  0  0
 63 65  1  0  0  0
 63142  1  0  0  0
 63143  1  0  0  0
 63144  1  0  0  0
 64145  1  0  0  0
 65146  1  0  0  0
 68 81  1  0  0  0
 71 72  2  0  0  0
 71 74  1  0  0  0
 71147  1  0  0  0
 72 75  1  0  0  0
 72148  1  0  0  0
 73 74  2  0  0  0
 73 76  1  0  0  0
 73149  1  0  0  0
 74 84  1  0  0  0
 75 76  2  0  0  0
 75 85  1  0  0  0
 76 87  1  0  0  0
 77 78  1  0  0  0
 77 79  1  0  0  0
 77 81  2  0  0  0
 78 80  2  0  0  0
 78 82  1  0  0  0
 79 84  1  0  0  0
 79 86  2  0  0  0
 80150  1  0  0  0
 80151  1  0  0  0
 81 83  1  0  0  0
 82 84  1  0  0  0
 82152  1  0  0  0
 82153  1  0  0  0
 83154  1  0  0  0
 83155  1  0  0  0
 83156  1  0  0  0
 85157  1  0  0  0
M  ISO  4   1 100  68 101  81 101  85 100
M  END
> <chiral flag>
0

> <version>
0

> <s_m_source_file>
/data/baiqing/PycharmProjects/Reinvent-master-3.2/result/LINK_invent/BTK/process_docking_weight1_custom_product_contain_oxygen_bond_distance_aromatic_linkinvent_7_9_3/rearranged_h_0077.sdf

> <i_m_source_file_index>
19

> <r_mmod_Potential_Energy-OPLS-2005>
271.223541259766

> <r_mmod_Stretch_Energy-OPLS-2005>
101.055526733398

> <r_mmod_Bend_Energy-OPLS-2005>
198.337432861328

> <r_mmod_Torsional_Energy-OPLS-2005>
289.755554199219

> <r_mmod_Improper_Torsional_Energy-OPLS-2005>
7.06820297241211

> <r_mmod_Van_der_Waal_Energy-OPLS-2005>
139.978454589844

> <r_mmod_Electrostatic_Energy-OPLS-2005>
-337.326049804688

> <r_mmod_Solvation_Energy-OPLS-2005>
-197.328399658203

> <b_mmod_Minimization_Converged-OPLS-2005>
0

> <r_mmod_RMS_Derivative-OPLS-2005>
0.797719180583954

$$$$
19
                    3D
 Structure written by MMmdl.
175184  0  0  1  0            999 V2000
  -30.7506  -14.3904   20.6822 C   0  0  0  0  0  0
  -30.4214  -12.3064   19.3888 C   0  0  0  0  0  0
  -29.4840  -12.5272   18.1871 C   0  0  0  0  0  0
  -28.0081  -12.3781   18.6054 C   0  0  0  0  0  0
  -27.6640  -13.2008   19.8743 C   0  0  2  0  0  0
  -28.7028  -12.9409   20.9852 C   0  0  0  0  0  0
  -25.2601  -13.8148   20.5663 C   0  0  0  0  0  0
  -24.1841  -13.0434   20.9153 C   0  0  0  0  0  0
  -24.6385  -11.6898   20.8711 C   0  0  0  0  0  0
  -23.9047  -10.4289   21.0390 C   0  0  0  0  0  0
  -24.3606   -9.4210   21.9172 C   0  0  0  0  0  0
  -23.6284   -8.2244   22.0748 C   0  0  0  0  0  0
  -22.4263   -8.0276   21.3543 C   0  0  0  0  0  0
  -21.9896   -9.0247   20.4644 C   0  0  0  0  0  0
  -22.7220  -10.2127   20.3042 C   0  0  0  0  0  0
  -21.6854   -6.0729   22.5279 C   0  0  0  0  0  0
  -21.4016   -6.5632   23.8213 C   0  0  0  0  0  0
  -21.3656   -5.6786   24.9174 C   0  0  0  0  0  0
  -21.6042   -4.3048   24.7226 C   0  0  0  0  0  0
  -21.8821   -3.8140   23.4348 C   0  0  0  0  0  0
  -21.9195   -4.6957   22.3403 C   0  0  0  0  0  0
  -22.7867  -13.5243   21.1827 C   0  0  0  0  0  0
  -22.1664   -4.2144   21.0982 F   0  0  0  0  0  0
  -21.5624   -3.4532   25.7737 F   0  0  0  0  0  0
  -30.0409  -13.2550   20.4456 N   0  0  0  0  0  0
  -26.3031  -12.9309   20.3347 N   0  0  0  0  0  0
  -25.9308  -11.6469   20.5732 N   0  0  0  0  0  0
  -22.0506  -12.8238   22.0384 N   0  0  0  0  0  0
  -25.4344  -15.1865   20.4095 N   0  0  0  0  0  0
  -31.7939  -14.6633   20.0827 O   0  0  0  0  0  0
  -21.6633   -6.8871   21.4239 O   0  0  0  0  0  0
  -22.3557  -14.5553   20.6682 O   0  0  0  0  0  0
  -24.6141  -31.8693   23.2113 C   0  0  0  0  0  0
  -25.9042  -32.4828   23.8401 C   0  0  1  0  0  0
  -27.2340  -27.4432   20.0777 C   0  0  0  0  0  0
  -25.5906  -33.8625   24.2334 N   0  0  0  0  0  0
  -23.4001  -30.4944   21.5532 C   0  0  2  0  0  0
  -24.8421  -28.9607   20.1185 C   0  0  0  0  0  0
  -22.7402  -29.4669   22.5008 C   0  0  0  0  0  0
  -18.0269  -28.1378   22.8492 C   0  0  0  0  0  0
  -24.1483  -36.7304   23.2634 C   0  0  0  0  0  0
  -25.9292  -30.8357   21.3633 C   0  0  0  0  0  0
  -26.0036  -29.4707   20.7098 C   0  0  0  0  0  0
  -27.1993  -28.7186   20.6874 C   0  0  0  0  0  0
  -26.0419  -26.9373   19.5039 C   0  0  0  0  0  0
  -24.8549  -27.6917   19.5175 C   0  0  0  0  0  0
  -23.6062  -29.8285   20.1675 C   0  0  0  0  0  0
  -25.4102  -36.3111   24.0341 C   0  0  1  0  0  0
  -20.5857  -28.3658   23.1330 C   0  0  2  0  0  0
  -20.6760  -26.9398   22.5420 C   0  0  0  0  0  0
  -19.5742  -26.6391   21.5212 C   0  0  0  0  0  0
  -18.1919  -26.7927   22.1619 C   0  0  0  0  0  0
  -19.1517  -28.8833   23.2909 C   0  0  0  0  0  0
  -18.9447  -30.1440   23.8917 C   0  0  0  0  0  0
  -17.6451  -30.6584   24.0568 C   0  0  0  0  0  0
  -25.9038  -34.9481   23.5134 C   0  0  0  0  0  0
  -16.5341  -29.9088   23.6325 C   0  0  0  0  0  0
  -16.7259  -28.6506   23.0345 C   0  0  0  0  0  0
  -26.4472  -31.6605   25.0727 C   0  0  0  0  0  0
  -25.3745  -31.3710   26.1483 C   0  0  0  0  0  0
  -27.0293  -30.3051   24.6089 C   0  0  0  0  0  0
  -27.6060  -32.4319   25.7476 C   0  0  0  0  0  0
  -27.5594  -37.1784   24.8448 C   0  0  0  0  0  0
  -21.4133  -29.3032   22.3744 N   0  0  0  0  0  0
  -26.4277  -37.3808   23.9438 N   0  0  0  0  0  0
  -24.6662  -31.0806   22.1007 N   0  0  0  0  0  0
  -23.4182  -28.8208   23.3041 O   0  0  0  0  0  0
  -28.4320  -26.7540   20.0623 O   0  0  0  0  0  0
  -26.5602  -34.8933   22.4694 O   0  0  0  0  0  0
  -23.5339  -32.1440   23.7518 O   0  0  0  0  0  0
  -29.8078  -18.6962   22.2092 C   0  0  0  0  0  0
  -31.3524  -17.8998   20.5271 C   0  0  0  0  0  0
  -29.8136  -19.9750   21.6152 C   0  0  0  0  0  0
  -31.3703  -19.1808   19.9383 C   0  0  0  0  0  0
  -30.6071  -17.6395   21.7001 C   0  0  0  0  0  0
  -30.6224  -20.2484   20.4885 C   0  0  0  0  0  0
  -30.4856  -23.7915   19.4646 C   0  0  0  0  0  0
  -31.8539  -23.4618   19.1744 C   0  0  0  0  0  0
  -29.8385  -22.5741   19.9529 C   0  0  0  0  0  0
  -32.8177  -24.3111   18.7732 C   0  0  0  0  0  0
  -29.9089  -25.0043   19.2708 C   0  0  0  0  0  0
  -32.0616  -22.0012   19.4093 C   0  0  0  0  0  0
  -32.5422  -14.7506   23.6188 C   0  0  0  0  0  0
  -29.9003  -16.2492   23.7303 C   0  0  0  0  0  0
  -28.4708  -25.4470   19.4823 C   0  0  0  0  0  0
  -32.9013  -17.2794   23.6215 C   0  0  0  0  0  0
  -32.2830  -16.0731   22.8538 C   0  0  2  0  0  0
  -30.7713  -16.2868   22.4466 C   0  0  2  0  0  0
  -30.7713  -21.5779   19.9627 N   0  0  0  0  0  0
  -30.2432  -15.1539   21.6645 N   0  0  0  0  0  0
  -34.3684  -17.1911   23.7517 N   0  3  0  0  0  0
  -28.6531  -22.4399   20.2745 O   0  0  0  0  0  0
  -31.4628  -12.4179   19.0815 H   0  0  0  0  0  0
  -30.3315  -11.2842   19.7601 H   0  0  0  0  0  0
  -29.7200  -11.8203   17.3908 H   0  0  0  0  0  0
  -29.6492  -13.5225   17.7712 H   0  0  0  0  0  0
  -27.8179  -11.3197   18.7875 H   0  0  0  0  0  0
  -27.3532  -12.6659   17.7822 H   0  0  0  0  0  0
  -27.7216  -14.2550   19.6012 H   0  0  0  0  0  0
  -28.6756  -11.8919   21.2845 H   0  0  0  0  0  0
  -28.4408  -13.4961   21.8859 H   0  0  0  0  0  0
  -25.2753   -9.5688   22.4737 H   0  0  0  0  0  0
  -23.9997   -7.4638   22.7467 H   0  0  0  0  0  0
  -21.0826   -8.8760   19.8956 H   0  0  0  0  0  0
  -22.3675  -10.9658   19.6142 H   0  0  0  0  0  0
  -21.2009   -7.6139   23.9712 H   0  0  0  0  0  0
  -21.1472   -6.0513   25.9075 H   0  0  0  0  0  0
  -22.0601   -2.7604   23.2845 H   0  0  0  0  0  0
  -22.4112  -11.9888   22.4760 H   0  0  0  0  0  0
  -21.1126  -13.1274   22.2594 H   0  0  0  0  0  0
  -24.6722  -15.8463   20.5201 H   0  0  0  0  0  0
  -26.2980  -15.6250   20.1135 H   0  0  0  0  0  0
  -26.7110  -32.5537   23.1165 H   0  0  0  0  0  0
  -25.0075  -33.9793   25.0489 H   0  0  0  0  0  0
  -22.6887  -31.3113   21.4172 H   0  0  0  0  0  0
  -23.3765  -35.9614   23.3264 H   0  0  0  0  0  0
  -24.3592  -36.8948   22.2056 H   0  0  0  0  0  0
  -23.7201  -37.6486   23.6659 H   0  0  0  0  0  0
  -26.0443  -31.6033   20.5966 H   0  0  0  0  0  0
  -26.8163  -30.8853   21.9827 H   0  0  0  0  0  0
  -28.0993  -29.1163   21.1350 H   0  0  0  0  0  0
  -25.9971  -25.9646   19.0380 H   0  0  0  0  0  0
  -23.9581  -27.2899   19.0667 H   0  0  0  0  0  0
  -23.7165  -30.6035   19.4080 H   0  0  0  0  0  0
  -22.7292  -29.2501   19.8718 H   0  0  0  0  0  0
  -25.1265  -36.1968   25.0830 H   0  0  0  0  0  0
  -20.9950  -28.3215   24.1449 H   0  0  0  0  0  0
  -20.5666  -26.2262   23.3600 H   0  0  0  0  0  0
  -21.6633  -26.7447   22.1215 H   0  0  0  0  0  0
  -19.6904  -25.6307   21.1231 H   0  0  0  0  0  0
  -19.6690  -27.3215   20.6752 H   0  0  0  0  0  0
  -17.4193  -26.6682   21.4013 H   0  0  0  0  0  0
  -18.0314  -26.0065   22.9011 H   0  0  0  0  0  0
  -19.7924  -30.7248   24.2302 H   0  0  0  0  0  0
  -17.5008  -31.6265   24.5169 H   0  0  0  0  0  0
  -15.5342  -30.2997   23.7639 H   0  0  0  0  0  0
  -15.8659  -28.0833   22.7047 H   0  0  0  0  0  0
  -24.5904  -30.7074   25.7821 H   0  0  0  0  0  0
  -24.8953  -32.2867   26.4956 H   0  0  0  0  0  0
  -25.8105  -30.8858   27.0224 H   0  0  0  0  0  0
  -26.2823  -29.6824   24.1153 H   0  0  0  0  0  0
  -27.4082  -29.7280   25.4534 H   0  0  0  0  0  0
  -27.8654  -30.4379   23.9219 H   0  0  0  0  0  0
  -27.2690  -33.3609   26.2086 H   0  0  0  0  0  0
  -28.3839  -32.6894   25.0276 H   0  0  0  0  0  0
  -28.0760  -31.8423   26.5358 H   0  0  0  0  0  0
  -28.2546  -38.0149   24.7608 H   0  0  0  0  0  0
  -28.1152  -36.2688   24.6112 H   0  0  0  0  0  0
  -27.2340  -37.1249   25.8854 H   0  0  0  0  0  0
  -20.9290  -29.8752   21.6970 H   0  0  0  0  0  0
  -26.0161  -38.2868   24.1506 H   0  0  0  0  0  0
  -29.2068  -18.5776   23.0977 H   0  0  0  0  0  0
  -31.9763  -17.1331   20.0945 H   0  0  0  0  0  0
  -29.2307  -20.7573   22.0807 H   0  0  0  0  0  0
  -31.9958  -19.3325   19.0705 H   0  0  0  0  0  0
  -32.6386  -25.3650   18.6210 H   0  0  0  0  0  0
  -33.8223  -23.9575   18.5895 H   0  0  0  0  0  0
  -30.5199  -25.7937   18.8621 H   0  0  0  0  0  0
  -32.8731  -21.8280   20.1176 H   0  0  0  0  0  0
  -32.2824  -21.4990   18.4670 H   0  0  0  0  0  0
  -33.6078  -14.5327   23.6854 H   0  0  0  0  0  0
  -32.0871  -13.8885   23.1336 H   0  0  0  0  0  0
  -32.1606  -14.7901   24.6388 H   0  0  0  0  0  0
  -30.1823  -17.0175   24.4498 H   0  0  0  0  0  0
  -29.9687  -15.2932   24.2495 H   0  0  0  0  0  0
  -28.8422  -16.3894   23.5029 H   0  0  0  0  0  0
  -27.9038  -24.7600   20.1072 H   0  0  0  0  0  0
  -28.0206  -25.4559   18.4892 H   0  0  0  0  0  0
  -32.4658  -17.3654   24.6174 H   0  0  0  0  0  0
  -32.6901  -18.2208   23.1150 H   0  0  0  0  0  0
  -32.8529  -16.0019   21.9283 H   0  0  0  0  0  0
  -29.3624  -14.8041   22.0057 H   0  0  0  0  0  0
  -34.6383  -16.3909   24.2947 H   0  0  0  0  0  0
  -34.7161  -18.0106   24.2182 H   0  0  0  0  0  0
  -34.8087  -17.1373   22.8503 H   0  0  0  0  0  0
  1 25  1  0  0  0
  1 30  2  0  0  0
  1 90  1  0  0  0
  2  3  1  0  0  0
  2 25  1  0  0  0
  2 93  1  0  0  0
  2 94  1  0  0  0
  3  4  1  0  0  0
  3 95  1  0  0  0
  3 96  1  0  0  0
  4  5  1  0  0  0
  4 97  1  0  0  0
  4 98  1  0  0  0
  5  6  1  0  0  0
  5 26  1  0  0  0
  5 99  1  0  0  0
  6 25  1  0  0  0
  6100  1  0  0  0
  6101  1  0  0  0
  7  8  2  0  0  0
  7 26  1  0  0  0
  7 29  1  0  0  0
  8  9  1  0  0  0
  8 22  1  0  0  0
  9 10  1  0  0  0
  9 27  2  0  0  0
 10 11  2  0  0  0
 10 15  1  0  0  0
 11 12  1  0  0  0
 11102  1  0  0  0
 12 13  2  0  0  0
 12103  1  0  0  0
 13 14  1  0  0  0
 13 31  1  0  0  0
 14 15  2  0  0  0
 14104  1  0  0  0
 15105  1  0  0  0
 16 17  2  0  0  0
 16 21  1  0  0  0
 16 31  1  0  0  0
 17 18  1  0  0  0
 17106  1  0  0  0
 18 19  2  0  0  0
 18107  1  0  0  0
 19 20  1  0  0  0
 19 24  1  0  0  0
 20 21  2  0  0  0
 20108  1  0  0  0
 21 23  1  0  0  0
 22 28  1  0  0  0
 22 32  2  0  0  0
 26 27  1  0  0  0
 28109  1  0  0  0
 28110  1  0  0  0
 29111  1  0  0  0
 29112  1  0  0  0
 33 34  1  0  0  0
 33 66  1  0  0  0
 33 70  2  0  0  0
 34 36  1  0  0  0
 34 59  1  0  0  0
 34113  1  0  0  0
 35 44  2  0  0  0
 35 45  1  0  0  0
 35 68  1  0  0  0
 36 56  1  0  0  0
 36114  1  0  0  0
 37 39  1  0  0  0
 37 47  1  0  0  0
 37 66  1  0  0  0
 37115  1  0  0  0
 38 43  2  0  0  0
 38 46  1  0  0  0
 38 47  1  0  0  0
 39 64  1  0  0  0
 39 67  2  0  0  0
 40 52  1  0  0  0
 40 53  2  0  0  0
 40 58  1  0  0  0
 41116  1  0  0  0
 41117  1  0  0  0
 41118  1  0  0  0
 41 48  1  0  0  0
 42 43  1  0  0  0
 42 66  1  0  0  0
 42119  1  0  0  0
 42120  1  0  0  0
 43 44  1  0  0  0
 44121  1  0  0  0
 45 46  2  0  0  0
 45122  1  0  0  0
 46123  1  0  0  0
 47124  1  0  0  0
 47125  1  0  0  0
 48 56  1  0  0  0
 48 65  1  0  0  0
 48126  1  0  0  0
 49 50  1  0  0  0
 49 53  1  0  0  0
 49 64  1  0  0  0
 49127  1  0  0  0
 50 51  1  0  0  0
 50128  1  0  0  0
 50129  1  0  0  0
 51 52  1  0  0  0
 51130  1  0  0  0
 51131  1  0  0  0
 52132  1  0  0  0
 52133  1  0  0  0
 53 54  1  0  0  0
 54 55  2  0  0  0
 54134  1  0  0  0
 55 57  1  0  0  0
 55135  1  0  0  0
 56 69  2  0  0  0
 57 58  2  0  0  0
 57136  1  0  0  0
 58137  1  0  0  0
 59 60  1  0  0  0
 59 61  1  0  0  0
 59 62  1  0  0  0
 60138  1  0  0  0
 60139  1  0  0  0
 60140  1  0  0  0
 61141  1  0  0  0
 61142  1  0  0  0
 61143  1  0  0  0
 62144  1  0  0  0
 62145  1  0  0  0
 62146  1  0  0  0
 63 65  1  0  0  0
 63147  1  0  0  0
 63148  1  0  0  0
 63149  1  0  0  0
 64150  1  0  0  0
 65151  1  0  0  0
 68 85  1  0  0  0
 71 73  2  0  0  0
 71 75  1  0  0  0
 71152  1  0  0  0
 72 74  1  0  0  0
 72 75  2  0  0  0
 72153  1  0  0  0
 73 76  1  0  0  0
 73154  1  0  0  0
 74 76  2  0  0  0
 74155  1  0  0  0
 75 88  1  0  0  0
 76 89  1  0  0  0
 77 78  1  0  0  0
 77 79  1  0  0  0
 77 81  2  0  0  0
 78 80  2  0  0  0
 78 82  1  0  0  0
 79 89  1  0  0  0
 79 92  2  0  0  0
 80156  1  0  0  0
 80157  1  0  0  0
 81 85  1  0  0  0
 81158  1  0  0  0
 82 89  1  0  0  0
 82159  1  0  0  0
 82160  1  0  0  0
 83161  1  0  0  0
 83162  1  0  0  0
 83163  1  0  0  0
 83 87  1  0  0  0
 84164  1  0  0  0
 84165  1  0  0  0
 84166  1  0  0  0
 84 88  1  0  0  0
 85167  1  0  0  0
 85168  1  0  0  0
 86 87  1  0  0  0
 86 91  1  0  0  0
 86169  1  0  0  0
 86170  1  0  0  0
 87 88  1  0  0  0
 87171  1  0  0  0
 88 90  1  0  0  0
 90172  1  0  0  0
 91173  1  0  0  0
 91174  1  0  0  0
 91175  1  0  0  0
M  CHG  1  91   1
M  ISO  4   1 100  68 101  85 101  90 100
M  END
> <chiral flag>
0

> <version>
0

> <s_m_source_file>
/data/baiqing/PycharmProjects/Reinvent-master-3.2/result/LINK_invent/BTK/process_docking_weight1_custom_product_contain_oxygen_bond_distance_aromatic_linkinvent_7_9_3/rearranged_h_0077.sdf

> <i_m_source_file_index>
20

> <r_mmod_Potential_Energy-OPLS-2005>
-181.258758544922

> <r_mmod_Stretch_Energy-OPLS-2005>
47.066104888916

> <r_mmod_Bend_Energy-OPLS-2005>
175.674392700195

> <r_mmod_Torsional_Energy-OPLS-2005>
256.553771972656

> <r_mmod_Improper_Torsional_Energy-OPLS-2005>
2.63348174095154

> <r_mmod_Van_der_Waal_Energy-OPLS-2005>
178.890426635742

> <r_mmod_Electrostatic_Energy-OPLS-2005>
-367.155578613281

> <r_mmod_Solvation_Energy-OPLS-2005>
-483.423522949219

> <b_mmod_Minimization_Converged-OPLS-2005>
0

> <r_mmod_RMS_Derivative-OPLS-2005>
0.796332657337189

$$$$
20
                    3D
 Structure written by MMmdl.
152160  0  0  1  0            999 V2000
  -30.6870  -14.4712   20.5703 C   0  0  0  0  0  0
  -30.4237  -12.3072   19.4129 C   0  0  0  0  0  0
  -29.4928  -12.5111   18.1991 C   0  0  0  0  0  0
  -28.0140  -12.3710   18.6121 C   0  0  0  0  0  0
  -27.6616  -13.2023   19.8746 C   0  0  2  0  0  0
  -28.7039  -12.9704   20.9923 C   0  0  0  0  0  0
  -25.2607  -13.8156   20.5691 C   0  0  0  0  0  0
  -24.1843  -13.0443   20.9170 C   0  0  0  0  0  0
  -24.6379  -11.6906   20.8722 C   0  0  0  0  0  0
  -23.9044  -10.4298   21.0399 C   0  0  0  0  0  0
  -24.3602   -9.4218   21.9180 C   0  0  0  0  0  0
  -23.6282   -8.2252   22.0754 C   0  0  0  0  0  0
  -22.4265   -8.0283   21.3543 C   0  0  0  0  0  0
  -21.9885   -9.0261   20.4648 C   0  0  0  0  0  0
  -22.7213  -10.2141   20.3056 C   0  0  0  0  0  0
  -21.6856   -6.0722   22.5273 C   0  0  0  0  0  0
  -21.4015   -6.5626   23.8209 C   0  0  0  0  0  0
  -21.3660   -5.6784   24.9170 C   0  0  0  0  0  0
  -21.6046   -4.3046   24.7228 C   0  0  0  0  0  0
  -21.8822   -3.8132   23.4353 C   0  0  0  0  0  0
  -21.9197   -4.6946   22.3404 C   0  0  0  0  0  0
  -22.7870  -13.5257   21.1838 C   0  0  0  0  0  0
  -22.1668   -4.2123   21.0981 F   0  0  0  0  0  0
  -21.5630   -3.4540   25.7748 F   0  0  0  0  0  0
  -30.0345  -13.2840   20.4417 N   0  0  0  0  0  0
  -26.3020  -12.9305   20.3347 N   0  0  0  0  0  0
  -25.9301  -11.6472   20.5730 N   0  0  0  0  0  0
  -22.0493  -12.8270   22.0396 N   0  0  0  0  0  0
  -25.4370  -15.1883   20.4162 N   0  0  0  0  0  0
  -31.8129  -14.6602   20.0993 O   0  0  0  0  0  0
  -21.6640   -6.8871   21.4238 O   0  0  0  0  0  0
  -22.3567  -14.5564   20.6686 O   0  0  0  0  0  0
  -24.6147  -31.8674   23.2091 C   0  0  0  0  0  0
  -25.9043  -32.4816   23.8393 C   0  0  1  0  0  0
  -27.2405  -27.4423   20.0962 C   0  0  0  0  0  0
  -25.5906  -33.8611   24.2332 N   0  0  0  0  0  0
  -23.4036  -30.4881   21.5495 C   0  0  2  0  0  0
  -24.8523  -28.9516   20.1164 C   0  0  0  0  0  0
  -22.7423  -29.4640   22.4996 C   0  0  0  0  0  0
  -18.0278  -28.1370   22.8488 C   0  0  0  0  0  0
  -24.1483  -36.7311   23.2633 C   0  0  0  0  0  0
  -25.9318  -30.8337   21.3624 C   0  0  0  0  0  0
  -26.0113  -29.4678   20.7113 C   0  0  0  0  0  0
  -27.2115  -28.7208   20.6963 C   0  0  0  0  0  0
  -26.0678  -26.9341   19.5013 C   0  0  0  0  0  0
  -24.8744  -27.6829   19.5085 C   0  0  0  0  0  0
  -23.6131  -29.8174   20.1653 C   0  0  0  0  0  0
  -25.4097  -36.3104   24.0339 C   0  0  1  0  0  0
  -20.5865  -28.3651   23.1319 C   0  0  2  0  0  0
  -20.6762  -26.9386   22.5420 C   0  0  0  0  0  0
  -19.5741  -26.6369   21.5213 C   0  0  0  0  0  0
  -18.1918  -26.7918   22.1620 C   0  0  0  0  0  0
  -19.1526  -28.8832   23.2895 C   0  0  0  0  0  0
  -18.9451  -30.1442   23.8899 C   0  0  0  0  0  0
  -17.6452  -30.6571   24.0565 C   0  0  0  0  0  0
  -25.9034  -34.9469   23.5135 C   0  0  0  0  0  0
  -16.5345  -29.9073   23.6323 C   0  0  0  0  0  0
  -16.7268  -28.6493   23.0339 C   0  0  0  0  0  0
  -26.4470  -31.6588   25.0717 C   0  0  0  0  0  0
  -25.3750  -31.3715   26.1489 C   0  0  0  0  0  0
  -27.0271  -30.3019   24.6089 C   0  0  0  0  0  0
  -27.6066  -32.4291   25.7467 C   0  0  0  0  0  0
  -27.5584  -37.1791   24.8448 C   0  0  0  0  0  0
  -21.4153  -29.3015   22.3733 N   0  0  0  0  0  0
  -26.4280  -37.3790   23.9422 N   0  0  0  0  0  0
  -24.6682  -31.0774   22.0989 N   0  0  0  0  0  0
  -23.4196  -28.8187   23.3042 O   0  0  0  0  0  0
  -28.3973  -26.6976   20.0686 O   0  0  0  0  0  0
  -26.5590  -34.8922   22.4693 O   0  0  0  0  0  0
  -23.5344  -32.1427   23.7485 O   0  0  0  0  0  0
  -29.1304  -19.0940   21.4954 C   0  0  0  0  0  0
  -31.5062  -18.9141   21.0360 C   0  0  0  0  0  0
  -29.0139  -17.6877   21.4097 C   0  0  0  0  0  0
  -31.3908  -17.5100   20.9505 C   0  0  0  0  0  0
  -30.3830  -19.7229   21.3209 C   0  0  0  0  0  0
  -30.1401  -16.8734   21.1459 C   0  0  0  0  0  0
  -29.7827  -22.2070   20.6838 C   0  0  0  0  0  0
  -28.8420  -24.2700   20.2474 C   0  0  0  0  0  0
  -30.5647  -21.2282   21.5605 C   0  0  0  0  0  0
  -28.4000  -25.5681   20.9579 C   0  0  0  0  0  0
  -29.4570  -23.3698   21.1137 N   0  0  0  0  0  0
  -29.9493  -15.4533   21.1309 N   0  0  0  0  0  0
  -28.6257  -24.1316   19.0399 O   0  0  0  0  0  0
  -31.4678  -12.4081   19.1108 H   0  0  0  0  0  0
  -30.3248  -11.2938   19.8043 H   0  0  0  0  0  0
  -29.7301  -11.7902   17.4156 H   0  0  0  0  0  0
  -29.6600  -13.4990   17.7655 H   0  0  0  0  0  0
  -27.8205  -11.3137   18.7985 H   0  0  0  0  0  0
  -27.3652  -12.6556   17.7827 H   0  0  0  0  0  0
  -27.7073  -14.2518   19.5846 H   0  0  0  0  0  0
  -28.6827  -11.9294   21.3180 H   0  0  0  0  0  0
  -28.4637  -13.5531   21.8824 H   0  0  0  0  0  0
  -25.2750   -9.5699   22.4749 H   0  0  0  0  0  0
  -23.9998   -7.4647   22.7476 H   0  0  0  0  0  0
  -21.0808   -8.8787   19.8962 H   0  0  0  0  0  0
  -22.3673  -10.9686   19.6169 H   0  0  0  0  0  0
  -21.2003   -7.6135   23.9705 H   0  0  0  0  0  0
  -21.1478   -6.0512   25.9070 H   0  0  0  0  0  0
  -22.0598   -2.7591   23.2870 H   0  0  0  0  0  0
  -22.4090  -11.9934   22.4805 H   0  0  0  0  0  0
  -21.1116  -13.1321   22.2584 H   0  0  0  0  0  0
  -24.6772  -15.8487   20.5413 H   0  0  0  0  0  0
  -26.2912  -15.6250   20.0936 H   0  0  0  0  0  0
  -26.7121  -32.5529   23.1164 H   0  0  0  0  0  0
  -25.0069  -33.9768   25.0492 H   0  0  0  0  0  0
  -22.6920  -31.3040   21.4087 H   0  0  0  0  0  0
  -23.3742  -35.9644   23.3277 H   0  0  0  0  0  0
  -24.3598  -36.8945   22.2054 H   0  0  0  0  0  0
  -23.7229  -37.6508   23.6659 H   0  0  0  0  0  0
  -26.0465  -31.5986   20.5930 H   0  0  0  0  0  0
  -26.8184  -30.8859   21.9826 H   0  0  0  0  0  0
  -28.1100  -29.1160   21.1502 H   0  0  0  0  0  0
  -26.0813  -25.9618   19.0287 H   0  0  0  0  0  0
  -23.9836  -27.2796   19.0467 H   0  0  0  0  0  0
  -23.7207  -30.5904   19.4037 H   0  0  0  0  0  0
  -22.7367  -29.2364   19.8703 H   0  0  0  0  0  0
  -25.1265  -36.1967   25.0829 H   0  0  0  0  0  0
  -20.9949  -28.3209   24.1444 H   0  0  0  0  0  0
  -20.5650  -26.2257   23.3606 H   0  0  0  0  0  0
  -21.6638  -26.7418   22.1224 H   0  0  0  0  0  0
  -19.6897  -25.6285   21.1224 H   0  0  0  0  0  0
  -19.6673  -27.3196   20.6756 H   0  0  0  0  0  0
  -17.4191  -26.6675   21.4017 H   0  0  0  0  0  0
  -18.0305  -26.0056   22.9008 H   0  0  0  0  0  0
  -19.7929  -30.7262   24.2253 H   0  0  0  0  0  0
  -17.5004  -31.6251   24.5168 H   0  0  0  0  0  0
  -15.5344  -30.2971   23.7633 H   0  0  0  0  0  0
  -15.8675  -28.0815   22.7036 H   0  0  0  0  0  0
  -24.5901  -30.7077   25.7851 H   0  0  0  0  0  0
  -24.8974  -32.2882   26.4957 H   0  0  0  0  0  0
  -25.8117  -30.8875   27.0233 H   0  0  0  0  0  0
  -26.2795  -29.6798   24.1150 H   0  0  0  0  0  0
  -27.4041  -29.7239   25.4537 H   0  0  0  0  0  0
  -27.8641  -30.4324   23.9224 H   0  0  0  0  0  0
  -27.2710  -33.3584   26.2082 H   0  0  0  0  0  0
  -28.3851  -32.6856   25.0270 H   0  0  0  0  0  0
  -28.0756  -31.8387   26.5350 H   0  0  0  0  0  0
  -28.2572  -38.0120   24.7558 H   0  0  0  0  0  0
  -28.1112  -36.2660   24.6180 H   0  0  0  0  0  0
  -27.2329  -37.1335   25.8856 H   0  0  0  0  0  0
  -20.9314  -29.8749   21.6967 H   0  0  0  0  0  0
  -26.0166  -38.2860   24.1464 H   0  0  0  0  0  0
  -28.2556  -19.6841   21.7318 H   0  0  0  0  0  0
  -32.4830  -19.3637   20.9162 H   0  0  0  0  0  0
  -28.0423  -17.2388   21.5675 H   0  0  0  0  0  0
  -32.2886  -16.9413   20.7625 H   0  0  0  0  0  0
  -29.5600  -21.8403   19.6760 H   0  0  0  0  0  0
  -31.6222  -21.4773   21.4628 H   0  0  0  0  0  0
  -30.3150  -21.4234   22.6039 H   0  0  0  0  0  0
  -29.0902  -25.7913   21.7727 H   0  0  0  0  0  0
  -27.4251  -25.3933   21.4176 H   0  0  0  0  0  0
  -29.0469  -15.1360   21.4493 H   0  0  0  0  0  0
  1 25  1  0  0  0
  1 30  2  0  0  0
  1 82  1  0  0  0
  2  3  1  0  0  0
  2 25  1  0  0  0
  2 84  1  0  0  0
  2 85  1  0  0  0
  3  4  1  0  0  0
  3 86  1  0  0  0
  3 87  1  0  0  0
  4  5  1  0  0  0
  4 88  1  0  0  0
  4 89  1  0  0  0
  5  6  1  0  0  0
  5 26  1  0  0  0
  5 90  1  0  0  0
  6 25  1  0  0  0
  6 91  1  0  0  0
  6 92  1  0  0  0
  7  8  2  0  0  0
  7 26  1  0  0  0
  7 29  1  0  0  0
  8  9  1  0  0  0
  8 22  1  0  0  0
  9 10  1  0  0  0
  9 27  2  0  0  0
 10 11  2  0  0  0
 10 15  1  0  0  0
 11 12  1  0  0  0
 11 93  1  0  0  0
 12 13  2  0  0  0
 12 94  1  0  0  0
 13 14  1  0  0  0
 13 31  1  0  0  0
 14 15  2  0  0  0
 14 95  1  0  0  0
 15 96  1  0  0  0
 16 17  2  0  0  0
 16 21  1  0  0  0
 16 31  1  0  0  0
 17 18  1  0  0  0
 17 97  1  0  0  0
 18 19  2  0  0  0
 18 98  1  0  0  0
 19 20  1  0  0  0
 19 24  1  0  0  0
 20 21  2  0  0  0
 20 99  1  0  0  0
 21 23  1  0  0  0
 22 28  1  0  0  0
 22 32  2  0  0  0
 26 27  1  0  0  0
 28100  1  0  0  0
 28101  1  0  0  0
 29102  1  0  0  0
 29103  1  0  0  0
 33 34  1  0  0  0
 33 66  1  0  0  0
 33 70  2  0  0  0
 34 36  1  0  0  0
 34 59  1  0  0  0
 34104  1  0  0  0
 35 44  2  0  0  0
 35 45  1  0  0  0
 35 68  1  0  0  0
 36 56  1  0  0  0
 36105  1  0  0  0
 37 39  1  0  0  0
 37 47  1  0  0  0
 37 66  1  0  0  0
 37106  1  0  0  0
 38 43  2  0  0  0
 38 46  1  0  0  0
 38 47  1  0  0  0
 39 64  1  0  0  0
 39 67  2  0  0  0
 40 52  1  0  0  0
 40 53  2  0  0  0
 40 58  1  0  0  0
 41107  1  0  0  0
 41108  1  0  0  0
 41109  1  0  0  0
 41 48  1  0  0  0
 42 43  1  0  0  0
 42 66  1  0  0  0
 42110  1  0  0  0
 42111  1  0  0  0
 43 44  1  0  0  0
 44112  1  0  0  0
 45 46  2  0  0  0
 45113  1  0  0  0
 46114  1  0  0  0
 47115  1  0  0  0
 47116  1  0  0  0
 48 56  1  0  0  0
 48 65  1  0  0  0
 48117  1  0  0  0
 49 50  1  0  0  0
 49 53  1  0  0  0
 49 64  1  0  0  0
 49118  1  0  0  0
 50 51  1  0  0  0
 50119  1  0  0  0
 50120  1  0  0  0
 51 52  1  0  0  0
 51121  1  0  0  0
 51122  1  0  0  0
 52123  1  0  0  0
 52124  1  0  0  0
 53 54  1  0  0  0
 54 55  2  0  0  0
 54125  1  0  0  0
 55 57  1  0  0  0
 55126  1  0  0  0
 56 69  2  0  0  0
 57 58  2  0  0  0
 57127  1  0  0  0
 58128  1  0  0  0
 59 60  1  0  0  0
 59 61  1  0  0  0
 59 62  1  0  0  0
 60129  1  0  0  0
 60130  1  0  0  0
 60131  1  0  0  0
 61132  1  0  0  0
 61133  1  0  0  0
 61134  1  0  0  0
 62135  1  0  0  0
 62136  1  0  0  0
 62137  1  0  0  0
 63 65  1  0  0  0
 63138  1  0  0  0
 63139  1  0  0  0
 63140  1  0  0  0
 64141  1  0  0  0
 65142  1  0  0  0
 68 80  1  0  0  0
 71 73  2  0  0  0
 71 75  1  0  0  0
 71143  1  0  0  0
 72 74  1  0  0  0
 72 75  2  0  0  0
 72144  1  0  0  0
 73 76  1  0  0  0
 73145  1  0  0  0
 74 76  2  0  0  0
 74146  1  0  0  0
 75 79  1  0  0  0
 76 82  1  0  0  0
 77 79  1  0  0  0
 77 81  2  0  0  0
 77147  1  0  0  0
 78 80  1  0  0  0
 78 81  1  0  0  0
 78 83  2  0  0  0
 79148  1  0  0  0
 79149  1  0  0  0
 80150  1  0  0  0
 80151  1  0  0  0
 82152  1  0  0  0
M  ISO  4   1 100  68 101  80 101  82 100
M  END
> <chiral flag>
0

> <version>
0

> <s_m_source_file>
/data/baiqing/PycharmProjects/Reinvent-master-3.2/result/LINK_invent/BTK/process_docking_weight1_custom_product_contain_oxygen_bond_distance_aromatic_linkinvent_7_9_3/rearranged_h_0077.sdf

> <i_m_source_file_index>
21

> <r_mmod_Potential_Energy-OPLS-2005>
-15.5472393035889

> <r_mmod_Stretch_Energy-OPLS-2005>
38.541316986084

> <r_mmod_Bend_Energy-OPLS-2005>
104.753868103027

> <r_mmod_Torsional_Energy-OPLS-2005>
233.381988525391

> <r_mmod_Improper_Torsional_Energy-OPLS-2005>
3.8620765209198

> <r_mmod_Van_der_Waal_Energy-OPLS-2005>
157.131881713867

> <r_mmod_Electrostatic_Energy-OPLS-2005>
-354.319122314453

> <r_mmod_Solvation_Energy-OPLS-2005>
-210.458053588867

> <b_mmod_Minimization_Converged-OPLS-2005>
0

> <r_mmod_RMS_Derivative-OPLS-2005>
1.4487818479538

$$$$
21
                    3D
 Structure written by MMmdl.
151160  0  0  1  0            999 V2000
  -30.7011  -14.5582   20.4893 C   0  0  0  0  0  0
  -30.4185  -12.3475   19.4299 C   0  0  0  0  0  0
  -29.4940  -12.4977   18.2054 C   0  0  0  0  0  0
  -28.0114  -12.3922   18.6187 C   0  0  0  0  0  0
  -27.6568  -13.2324   19.8769 C   0  0  2  0  0  0
  -28.7124  -13.0652   20.9926 C   0  0  0  0  0  0
  -25.2572  -13.8221   20.5795 C   0  0  0  0  0  0
  -24.1843  -13.0463   20.9242 C   0  0  0  0  0  0
  -24.6426  -11.6938   20.8756 C   0  0  0  0  0  0
  -23.9097  -10.4307   21.0399 C   0  0  0  0  0  0
  -24.3628   -9.4224   21.9183 C   0  0  0  0  0  0
  -23.6304   -8.2254   22.0741 C   0  0  0  0  0  0
  -22.4272   -8.0283   21.3543 C   0  0  0  0  0  0
  -21.9940   -9.0266   20.4644 C   0  0  0  0  0  0
  -22.7270  -10.2149   20.3063 C   0  0  0  0  0  0
  -21.6862   -6.0736   22.5272 C   0  0  0  0  0  0
  -21.4025   -6.5636   23.8205 C   0  0  0  0  0  0
  -21.3650   -5.6781   24.9161 C   0  0  0  0  0  0
  -21.6042   -4.3043   24.7214 C   0  0  0  0  0  0
  -21.8829   -3.8145   23.4332 C   0  0  0  0  0  0
  -21.9203   -4.6968   22.3393 C   0  0  0  0  0  0
  -22.7864  -13.5249   21.1865 C   0  0  0  0  0  0
  -22.1667   -4.2151   21.0971 F   0  0  0  0  0  0
  -21.5620   -3.4527   25.7724 F   0  0  0  0  0  0
  -30.0253  -13.3744   20.4132 N   0  0  0  0  0  0
  -26.3034  -12.9436   20.3461 N   0  0  0  0  0  0
  -25.9364  -11.6573   20.5809 N   0  0  0  0  0  0
  -22.0476  -12.8227   22.0383 N   0  0  0  0  0  0
  -25.4276  -15.1957   20.4244 N   0  0  0  0  0  0
  -31.8839  -14.6132   20.1369 O   0  0  0  0  0  0
  -21.6638   -6.8874   21.4225 O   0  0  0  0  0  0
  -22.3576  -14.5569   20.6705 O   0  0  0  0  0  0
  -24.6175  -31.8621   23.2099 C   0  0  0  0  0  0
  -25.9051  -32.4797   23.8376 C   0  0  1  0  0  0
  -27.2285  -27.3799   20.0878 C   0  0  0  0  0  0
  -25.5898  -33.8594   24.2286 N   0  0  0  0  0  0
  -23.4071  -30.4880   21.5504 C   0  0  2  0  0  0
  -24.8527  -28.9476   20.1155 C   0  0  0  0  0  0
  -22.7416  -29.4611   22.4948 C   0  0  0  0  0  0
  -18.0270  -28.1373   22.8471 C   0  0  0  0  0  0
  -24.1494  -36.7298   23.2638 C   0  0  0  0  0  0
  -25.9448  -30.8088   21.3735 C   0  0  0  0  0  0
  -26.0174  -29.4395   20.7160 C   0  0  0  0  0  0
  -27.2036  -28.6611   20.7024 C   0  0  0  0  0  0
  -26.0423  -26.9212   19.4721 C   0  0  0  0  0  0
  -24.8620  -27.6857   19.4984 C   0  0  0  0  0  0
  -23.6227  -29.8272   20.1637 C   0  0  0  0  0  0
  -25.4121  -36.3079   24.0316 C   0  0  1  0  0  0
  -20.5848  -28.3655   23.1288 C   0  0  2  0  0  0
  -20.6774  -26.9396   22.5374 C   0  0  0  0  0  0
  -19.5717  -26.6299   21.5220 C   0  0  0  0  0  0
  -18.1898  -26.7872   22.1679 C   0  0  0  0  0  0
  -19.1524  -28.8834   23.2878 C   0  0  0  0  0  0
  -18.9474  -30.1455   23.8852 C   0  0  0  0  0  0
  -17.6480  -30.6603   24.0536 C   0  0  0  0  0  0
  -25.9046  -34.9454   23.5094 C   0  0  0  0  0  0
  -16.5358  -29.9102   23.6340 C   0  0  0  0  0  0
  -16.7245  -28.6520   23.0361 C   0  0  0  0  0  0
  -26.4472  -31.6590   25.0728 C   0  0  0  0  0  0
  -25.3752  -31.3689   26.1483 C   0  0  0  0  0  0
  -27.0328  -30.3029   24.6146 C   0  0  0  0  0  0
  -27.6018  -32.4335   25.7512 C   0  0  0  0  0  0
  -27.5574  -37.1817   24.8469 C   0  0  0  0  0  0
  -21.4119  -29.3062   22.3767 N   0  0  0  0  0  0
  -26.4295  -37.3783   23.9399 N   0  0  0  0  0  0
  -24.6747  -31.0700   22.1013 N   0  0  0  0  0  0
  -23.4192  -28.8065   23.2913 O   0  0  0  0  0  0
  -28.3876  -26.6121   20.1387 O   0  0  0  0  0  0
  -26.5623  -34.8912   22.4666 O   0  0  0  0  0  0
  -23.5340  -32.1342   23.7499 O   0  0  0  0  0  0
  -28.2114  -18.1845   21.5551 C   0  0  0  0  0  0
  -27.6284  -19.4981   21.5292 C   0  0  0  0  0  0
  -29.3925  -18.0908   20.8743 C   0  0  0  0  0  0
  -28.3427  -20.4809   20.8553 C   0  0  0  0  0  0
  -26.9261  -23.8116   20.7317 C   0  0  0  0  0  0
  -28.0795  -24.0531   20.1139 C   0  0  0  0  0  0
  -26.8720  -22.4175   21.0966 C   0  0  0  0  0  0
  -28.8134  -22.7878   20.0899 C   0  0  0  0  0  0
  -30.3847  -16.9797   20.6729 C   0  0  0  0  0  0
  -28.5227  -25.3567   19.4062 C   0  0  0  0  0  0
  -28.0282  -21.8321   20.6807 N   0  0  0  0  0  0
  -29.9693  -15.6803   20.7597 N   0  0  0  0  0  0
  -25.9198  -21.8739   21.6653 O   0  0  0  0  0  0
  -29.9482  -22.6212   19.6300 O   0  0  0  0  0  0
  -31.5475  -17.3106   20.4080 O   0  0  0  0  0  0
  -29.8025  -19.6834   20.2320 S   0  0  0  0  0  0
  -31.4580  -12.4461   19.1106 H   0  0  0  0  0  0
  -30.3309  -11.3483   19.8617 H   0  0  0  0  0  0
  -29.7212  -11.7296   17.4641 H   0  0  0  0  0  0
  -29.6802  -13.4559   17.7172 H   0  0  0  0  0  0
  -27.8009  -11.3418   18.8119 H   0  0  0  0  0  0
  -27.3727  -12.6836   17.7852 H   0  0  0  0  0  0
  -27.6765  -14.2765   19.5671 H   0  0  0  0  0  0
  -28.7106  -12.0397   21.3718 H   0  0  0  0  0  0
  -28.4949  -13.7001   21.8524 H   0  0  0  0  0  0
  -25.2749   -9.5680   22.4796 H   0  0  0  0  0  0
  -23.9992   -7.4640   22.7474 H   0  0  0  0  0  0
  -21.0873   -8.8809   19.8954 H   0  0  0  0  0  0
  -22.3726  -10.9699   19.6199 H   0  0  0  0  0  0
  -21.2018   -7.6143   23.9709 H   0  0  0  0  0  0
  -21.1463   -6.0505   25.9065 H   0  0  0  0  0  0
  -22.0620   -2.7610   23.2829 H   0  0  0  0  0  0
  -22.4070  -11.9908   22.4810 H   0  0  0  0  0  0
  -21.1094  -13.1288   22.2525 H   0  0  0  0  0  0
  -24.6568  -15.8460   20.5363 H   0  0  0  0  0  0
  -26.2617  -15.6315   20.0523 H   0  0  0  0  0  0
  -26.7113  -32.5501   23.1112 H   0  0  0  0  0  0
  -25.0100  -33.9767   25.0459 H   0  0  0  0  0  0
  -22.6955  -31.3049   21.4162 H   0  0  0  0  0  0
  -23.3753  -35.9640   23.3323 H   0  0  0  0  0  0
  -24.3564  -36.8921   22.2053 H   0  0  0  0  0  0
  -23.7286  -37.6511   23.6666 H   0  0  0  0  0  0
  -26.0780  -31.5742   20.6078 H   0  0  0  0  0  0
  -26.8228  -30.8484   22.0061 H   0  0  0  0  0  0
  -28.1009  -29.0375   21.1727 H   0  0  0  0  0  0
  -25.9986  -25.9631   18.9789 H   0  0  0  0  0  0
  -23.9644  -27.2958   19.0372 H   0  0  0  0  0  0
  -23.7498  -30.6103   19.4142 H   0  0  0  0  0  0
  -22.7412  -29.2632   19.8555 H   0  0  0  0  0  0
  -25.1320  -36.1902   25.0814 H   0  0  0  0  0  0
  -20.9902  -28.3236   24.1422 H   0  0  0  0  0  0
  -20.5713  -26.2229   23.3526 H   0  0  0  0  0  0
  -21.6643  -26.7522   22.1105 H   0  0  0  0  0  0
  -19.6892  -25.6190   21.1288 H   0  0  0  0  0  0
  -19.6647  -27.3077   20.6717 H   0  0  0  0  0  0
  -17.4140  -26.6532   21.4112 H   0  0  0  0  0  0
  -18.0292  -26.0074   22.9161 H   0  0  0  0  0  0
  -19.7956  -30.7283   24.2201 H   0  0  0  0  0  0
  -17.5087  -31.6299   24.5134 H   0  0  0  0  0  0
  -15.5385  -30.3039   23.7734 H   0  0  0  0  0  0
  -15.8643  -28.0848   22.7091 H   0  0  0  0  0  0
  -24.5919  -30.7034   25.7832 H   0  0  0  0  0  0
  -24.8950  -32.2844   26.4939 H   0  0  0  0  0  0
  -25.8109  -30.8857   27.0233 H   0  0  0  0  0  0
  -26.2881  -29.6781   24.1203 H   0  0  0  0  0  0
  -27.4099  -29.7256   25.4591 H   0  0  0  0  0  0
  -27.8703  -30.4351   23.9303 H   0  0  0  0  0  0
  -27.2595  -33.3610   26.2096 H   0  0  0  0  0  0
  -28.3825  -32.6930   25.0363 H   0  0  0  0  0  0
  -28.0674  -31.8469   26.5437 H   0  0  0  0  0  0
  -28.2595  -38.0104   24.7490 H   0  0  0  0  0  0
  -28.1054  -36.2634   24.6314 H   0  0  0  0  0  0
  -27.2281  -37.1508   25.8868 H   0  0  0  0  0  0
  -20.9226  -29.8915   21.7151 H   0  0  0  0  0  0
  -26.0151  -38.2841   24.1416 H   0  0  0  0  0  0
  -27.7542  -17.3615   22.0856 H   0  0  0  0  0  0
  -26.6874  -19.6509   22.0355 H   0  0  0  0  0  0
  -26.1275  -24.5201   20.8874 H   0  0  0  0  0  0
  -28.0549  -25.4051   18.4228 H   0  0  0  0  0  0
  -29.5868  -25.2539   19.1896 H   0  0  0  0  0  0
  -28.9957  -15.5399   20.9683 H   0  0  0  0  0  0
  1 25  1  0  0  0
  1 30  2  0  0  0
  1 82  1  0  0  0
  2  3  1  0  0  0
  2 25  1  0  0  0
  2 87  1  0  0  0
  2 88  1  0  0  0
  3  4  1  0  0  0
  3 89  1  0  0  0
  3 90  1  0  0  0
  4  5  1  0  0  0
  4 91  1  0  0  0
  4 92  1  0  0  0
  5  6  1  0  0  0
  5 26  1  0  0  0
  5 93  1  0  0  0
  6 25  1  0  0  0
  6 94  1  0  0  0
  6 95  1  0  0  0
  7  8  2  0  0  0
  7 26  1  0  0  0
  7 29  1  0  0  0
  8  9  1  0  0  0
  8 22  1  0  0  0
  9 10  1  0  0  0
  9 27  2  0  0  0
 10 11  2  0  0  0
 10 15  1  0  0  0
 11 12  1  0  0  0
 11 96  1  0  0  0
 12 13  2  0  0  0
 12 97  1  0  0  0
 13 14  1  0  0  0
 13 31  1  0  0  0
 14 15  2  0  0  0
 14 98  1  0  0  0
 15 99  1  0  0  0
 16 17  2  0  0  0
 16 21  1  0  0  0
 16 31  1  0  0  0
 17 18  1  0  0  0
 17100  1  0  0  0
 18 19  2  0  0  0
 18101  1  0  0  0
 19 20  1  0  0  0
 19 24  1  0  0  0
 20 21  2  0  0  0
 20102  1  0  0  0
 21 23  1  0  0  0
 22 28  1  0  0  0
 22 32  2  0  0  0
 26 27  1  0  0  0
 28103  1  0  0  0
 28104  1  0  0  0
 29105  1  0  0  0
 29106  1  0  0  0
 33 34  1  0  0  0
 33 66  1  0  0  0
 33 70  2  0  0  0
 34 36  1  0  0  0
 34 59  1  0  0  0
 34107  1  0  0  0
 35 44  2  0  0  0
 35 45  1  0  0  0
 35 68  1  0  0  0
 36 56  1  0  0  0
 36108  1  0  0  0
 37 39  1  0  0  0
 37 47  1  0  0  0
 37 66  1  0  0  0
 37109  1  0  0  0
 38 43  2  0  0  0
 38 46  1  0  0  0
 38 47  1  0  0  0
 39 64  1  0  0  0
 39 67  2  0  0  0
 40 52  1  0  0  0
 40 53  2  0  0  0
 40 58  1  0  0  0
 41110  1  0  0  0
 41111  1  0  0  0
 41112  1  0  0  0
 41 48  1  0  0  0
 42 43  1  0  0  0
 42 66  1  0  0  0
 42113  1  0  0  0
 42114  1  0  0  0
 43 44  1  0  0  0
 44115  1  0  0  0
 45 46  2  0  0  0
 45116  1  0  0  0
 46117  1  0  0  0
 47118  1  0  0  0
 47119  1  0  0  0
 48 56  1  0  0  0
 48 65  1  0  0  0
 48120  1  0  0  0
 49 50  1  0  0  0
 49 53  1  0  0  0
 49 64  1  0  0  0
 49121  1  0  0  0
 50 51  1  0  0  0
 50122  1  0  0  0
 50123  1  0  0  0
 51 52  1  0  0  0
 51124  1  0  0  0
 51125  1  0  0  0
 52126  1  0  0  0
 52127  1  0  0  0
 53 54  1  0  0  0
 54 55  2  0  0  0
 54128  1  0  0  0
 55 57  1  0  0  0
 55129  1  0  0  0
 56 69  2  0  0  0
 57 58  2  0  0  0
 57130  1  0  0  0
 58131  1  0  0  0
 59 60  1  0  0  0
 59 61  1  0  0  0
 59 62  1  0  0  0
 60132  1  0  0  0
 60133  1  0  0  0
 60134  1  0  0  0
 61135  1  0  0  0
 61136  1  0  0  0
 61137  1  0  0  0
 62138  1  0  0  0
 62139  1  0  0  0
 62140  1  0  0  0
 63 65  1  0  0  0
 63141  1  0  0  0
 63142  1  0  0  0
 63143  1  0  0  0
 64144  1  0  0  0
 65145  1  0  0  0
 68 80  1  0  0  0
 71 72  1  0  0  0
 71 73  2  0  0  0
 71146  1  0  0  0
 72 74  2  0  0  0
 72147  1  0  0  0
 73 79  1  0  0  0
 73 86  1  0  0  0
 74 81  1  0  0  0
 74 86  1  0  0  0
 75 76  2  0  0  0
 75 77  1  0  0  0
 75148  1  0  0  0
 76 78  1  0  0  0
 76 80  1  0  0  0
 77 81  1  0  0  0
 77 83  2  0  0  0
 78 81  1  0  0  0
 78 84  2  0  0  0
 79 82  1  0  0  0
 79 85  2  0  0  0
 80149  1  0  0  0
 80150  1  0  0  0
 82151  1  0  0  0
M  ISO  4   1 100  68 101  80 101  82 100
M  END
> <chiral flag>
0

> <version>
0

> <s_m_source_file>
/data/baiqing/PycharmProjects/Reinvent-master-3.2/result/LINK_invent/BTK/process_docking_weight1_custom_product_contain_oxygen_bond_distance_aromatic_linkinvent_7_9_3/rearranged_h_0077.sdf

> <i_m_source_file_index>
22

> <r_mmod_Potential_Energy-OPLS-2005>
-136.978134155273

> <r_mmod_Stretch_Energy-OPLS-2005>
57.5532035827637

> <r_mmod_Bend_Energy-OPLS-2005>
172.310836791992

> <r_mmod_Torsional_Energy-OPLS-2005>
215.937393188477

> <r_mmod_Improper_Torsional_Energy-OPLS-2005>
5.30684280395508

> <r_mmod_Van_der_Waal_Energy-OPLS-2005>
144.827453613281

> <r_mmod_Electrostatic_Energy-OPLS-2005>
-507.708404541016

> <r_mmod_Solvation_Energy-OPLS-2005>
-253.75325012207

> <b_mmod_Minimization_Converged-OPLS-2005>
0

> <r_mmod_RMS_Derivative-OPLS-2005>
4.24845457077026

$$$$
22
                    3D
 Structure written by MMmdl.
164173  0  0  1  0            999 V2000
  -30.6051  -14.7182   20.3803 C   0  0  0  0  0  0
  -30.4363  -12.4061   19.4757 C   0  0  0  0  0  0
  -29.5073  -12.3909   18.2399 C   0  0  0  0  0  0
  -28.0276  -12.2767   18.6583 C   0  0  0  0  0  0
  -27.6352  -13.2053   19.8425 C   0  0  2  0  0  0
  -28.6866  -13.1707   20.9701 C   0  0  0  0  0  0
  -25.2529  -13.8123   20.5717 C   0  0  0  0  0  0
  -24.1781  -13.0418   20.9224 C   0  0  0  0  0  0
  -24.6328  -11.6882   20.8780 C   0  0  0  0  0  0
  -23.9013  -10.4271   21.0429 C   0  0  0  0  0  0
  -24.3582   -9.4191   21.9200 C   0  0  0  0  0  0
  -23.6273   -8.2223   22.0757 C   0  0  0  0  0  0
  -22.4262   -8.0251   21.3538 C   0  0  0  0  0  0
  -21.9888   -9.0227   20.4649 C   0  0  0  0  0  0
  -22.7199  -10.2115   20.3069 C   0  0  0  0  0  0
  -21.6848   -6.0714   22.5283 C   0  0  0  0  0  0
  -21.4006   -6.5623   23.8212 C   0  0  0  0  0  0
  -21.3671   -5.6779   24.9180 C   0  0  0  0  0  0
  -21.6054   -4.3041   24.7231 C   0  0  0  0  0  0
  -21.8819   -3.8132   23.4353 C   0  0  0  0  0  0
  -21.9187   -4.6944   22.3406 C   0  0  0  0  0  0
  -22.7811  -13.5243   21.1867 C   0  0  0  0  0  0
  -22.1654   -4.2128   21.0981 F   0  0  0  0  0  0
  -21.5647   -3.4523   25.7744 F   0  0  0  0  0  0
  -29.9822  -13.4934   20.3644 N   0  0  0  0  0  0
  -26.2904  -12.9263   20.3309 N   0  0  0  0  0  0
  -25.9248  -11.6439   20.5831 N   0  0  0  0  0  0
  -22.0439  -12.8256   22.0419 N   0  0  0  0  0  0
  -25.4298  -15.1835   20.4137 N   0  0  0  0  0  0
  -31.8332  -14.7868   20.2691 O   0  0  0  0  0  0
  -21.6632   -6.8845   21.4236 O   0  0  0  0  0  0
  -22.3518  -14.5538   20.6683 O   0  0  0  0  0  0
  -24.6275  -31.8592   23.2008 C   0  0  0  0  0  0
  -25.9126  -32.4774   23.8332 C   0  0  1  0  0  0
  -27.2204  -27.2987   20.1354 C   0  0  0  0  0  0
  -25.5923  -33.8567   24.2274 N   0  0  0  0  0  0
  -23.4220  -30.4806   21.5449 C   0  0  2  0  0  0
  -24.8689  -28.9280   20.1146 C   0  0  0  0  0  0
  -22.7484  -29.4620   22.4951 C   0  0  0  0  0  0
  -18.0288  -28.1387   22.8497 C   0  0  0  0  0  0
  -24.1486  -36.7285   23.2639 C   0  0  0  0  0  0
  -25.9636  -30.7844   21.3743 C   0  0  0  0  0  0
  -26.0375  -29.4066   20.7224 C   0  0  0  0  0  0
  -27.2178  -28.6029   20.7227 C   0  0  0  0  0  0
  -26.0346  -26.8756   19.4998 C   0  0  0  0  0  0
  -24.8698  -27.6683   19.4941 C   0  0  0  0  0  0
  -23.6367  -29.8114   20.1608 C   0  0  0  0  0  0
  -25.4112  -36.3083   24.0333 C   0  0  1  0  0  0
  -20.5887  -28.3692   23.1302 C   0  0  2  0  0  0
  -20.6786  -26.9415   22.5427 C   0  0  0  0  0  0
  -19.5758  -26.6390   21.5236 C   0  0  0  0  0  0
  -18.1929  -26.7928   22.1637 C   0  0  0  0  0  0
  -19.1539  -28.8856   23.2892 C   0  0  0  0  0  0
  -18.9454  -30.1458   23.8901 C   0  0  0  0  0  0
  -17.6456  -30.6582   24.0565 C   0  0  0  0  0  0
  -25.9054  -34.9449   23.5110 C   0  0  0  0  0  0
  -16.5348  -29.9077   23.6336 C   0  0  0  0  0  0
  -16.7276  -28.6499   23.0350 C   0  0  0  0  0  0
  -26.4494  -31.6573   25.0694 C   0  0  0  0  0  0
  -25.3728  -31.3719   26.1422 C   0  0  0  0  0  0
  -27.0345  -30.2987   24.6169 C   0  0  0  0  0  0
  -27.6054  -32.4309   25.7466 C   0  0  0  0  0  0
  -27.5580  -37.1794   24.8462 C   0  0  0  0  0  0
  -21.4195  -29.3035   22.3683 N   0  0  0  0  0  0
  -26.4293  -37.3776   23.9410 N   0  0  0  0  0  0
  -24.6897  -31.0584   22.0972 N   0  0  0  0  0  0
  -23.4199  -28.8181   23.3053 O   0  0  0  0  0  0
  -28.3301  -26.4374   20.1471 O   0  0  0  0  0  0
  -26.5631  -34.8925   22.4676 O   0  0  0  0  0  0
  -23.5433  -32.1403   23.7330 O   0  0  0  0  0  0
  -30.7557  -19.4009   20.7079 C   0  0  0  0  0  0
  -28.4145  -19.3054   20.1985 C   0  0  0  0  0  0
  -30.8410  -17.9736   20.7049 C   0  0  0  0  0  0
  -28.4983  -17.8772   20.1901 C   0  0  0  0  0  0
  -29.5621  -20.1211   20.3870 C   0  0  0  0  0  0
  -29.7219  -17.1659   20.3804 C   0  0  0  0  0  0
  -30.2878  -24.2895   19.4226 C   0  0  0  0  0  0
  -29.0220  -24.0171   20.0949 C   0  0  0  0  0  0
  -30.7520  -23.2508   18.5338 C   0  0  0  0  0  0
  -28.7494  -22.5761   20.4969 C   0  0  0  0  0  0
  -31.2886  -23.5197   17.3299 C   0  0  0  0  0  0
  -31.0562  -25.3470   19.7781 C   0  0  0  0  0  0
  -28.1637  -25.0542   20.4297 C   0  0  0  0  0  0
  -30.6492  -21.8301   19.0264 C   0  0  0  0  0  0
  -32.4746  -25.6724   19.3381 C   0  0  0  0  0  0
  -29.7362  -15.7816   18.4269 C   0  0  0  0  0  0
  -29.6084  -21.5661   20.0432 N   0  0  0  0  0  0
  -29.8396  -15.7780   19.9001 N   0  0  0  0  0  0
  -27.7997  -22.2833   21.2328 O   0  0  0  0  0  0
  -31.4761  -12.5325   19.1693 H   0  0  0  0  0  0
  -30.3905  -11.4515   20.0009 H   0  0  0  0  0  0
  -29.7681  -11.5456   17.6026 H   0  0  0  0  0  0
  -29.6573  -13.2686   17.6182 H   0  0  0  0  0  0
  -27.8662  -11.2374   18.9469 H   0  0  0  0  0  0
  -27.3764  -12.4533   17.8022 H   0  0  0  0  0  0
  -27.6057  -14.2171   19.4486 H   0  0  0  0  0  0
  -28.7165  -12.1893   21.4459 H   0  0  0  0  0  0
  -28.4369  -13.8940   21.7500 H   0  0  0  0  0  0
  -25.2728   -9.5674   22.4776 H   0  0  0  0  0  0
  -23.9984   -7.4618   22.7479 H   0  0  0  0  0  0
  -21.0820   -8.8742   19.8958 H   0  0  0  0  0  0
  -22.3658  -10.9651   19.6181 H   0  0  0  0  0  0
  -21.1982   -7.6131   23.9705 H   0  0  0  0  0  0
  -21.1508   -6.0515   25.9083 H   0  0  0  0  0  0
  -22.0586   -2.7592   23.2865 H   0  0  0  0  0  0
  -22.4040  -11.9935   22.4845 H   0  0  0  0  0  0
  -21.1066  -13.1308   22.2608 H   0  0  0  0  0  0
  -24.6758  -15.8489   20.5416 H   0  0  0  0  0  0
  -26.2963  -15.6115   20.1178 H   0  0  0  0  0  0
  -26.7183  -32.5452   23.1073 H   0  0  0  0  0  0
  -25.0041  -33.9697   25.0399 H   0  0  0  0  0  0
  -22.7168  -31.3010   21.3999 H   0  0  0  0  0  0
  -23.3758  -35.9607   23.3297 H   0  0  0  0  0  0
  -24.3582  -36.8910   22.2056 H   0  0  0  0  0  0
  -23.7233  -37.6481   23.6662 H   0  0  0  0  0  0
  -26.0946  -31.5459   20.6031 H   0  0  0  0  0  0
  -26.8441  -30.8357   22.0028 H   0  0  0  0  0  0
  -28.1181  -28.9651   21.1996 H   0  0  0  0  0  0
  -26.0000  -25.9096   19.0167 H   0  0  0  0  0  0
  -23.9760  -27.2951   19.0123 H   0  0  0  0  0  0
  -23.7538  -30.5870   19.4024 H   0  0  0  0  0  0
  -22.7565  -29.2383   19.8627 H   0  0  0  0  0  0
  -25.1293  -36.1929   25.0827 H   0  0  0  0  0  0
  -20.9976  -28.3271   24.1428 H   0  0  0  0  0  0
  -20.5727  -26.2293   23.3623 H   0  0  0  0  0  0
  -21.6648  -26.7472   22.1194 H   0  0  0  0  0  0
  -19.6922  -25.6308   21.1244 H   0  0  0  0  0  0
  -19.6688  -27.3224   20.6784 H   0  0  0  0  0  0
  -17.4213  -26.6701   21.4016 H   0  0  0  0  0  0
  -18.0297  -26.0056   22.9015 H   0  0  0  0  0  0
  -19.7923  -30.7277   24.2264 H   0  0  0  0  0  0
  -17.5003  -31.6262   24.5162 H   0  0  0  0  0  0
  -15.5343  -30.2982   23.7650 H   0  0  0  0  0  0
  -15.8675  -28.0823   22.7060 H   0  0  0  0  0  0
  -24.5901  -30.7064   25.7757 H   0  0  0  0  0  0
  -24.8907  -32.2883   26.4836 H   0  0  0  0  0  0
  -25.8040  -30.8906   27.0205 H   0  0  0  0  0  0
  -26.2919  -29.6723   24.1208 H   0  0  0  0  0  0
  -27.4044  -29.7256   25.4681 H   0  0  0  0  0  0
  -27.8784  -30.4252   23.9388 H   0  0  0  0  0  0
  -27.2656  -33.3610   26.2036 H   0  0  0  0  0  0
  -28.3860  -32.6874   25.0291 H   0  0  0  0  0  0
  -28.0724  -31.8439   26.5387 H   0  0  0  0  0  0
  -28.2601  -38.0091   24.7527 H   0  0  0  0  0  0
  -28.1074  -36.2625   24.6261 H   0  0  0  0  0  0
  -27.2298  -37.1411   25.8865 H   0  0  0  0  0  0
  -20.9381  -29.8702   21.6836 H   0  0  0  0  0  0
  -26.0176  -38.2849   24.1415 H   0  0  0  0  0  0
  -31.6734  -19.9464   20.8776 H   0  0  0  0  0  0
  -27.4723  -19.7703   19.9437 H   0  0  0  0  0  0
  -31.8103  -17.5127   20.8401 H   0  0  0  0  0  0
  -27.6115  -17.3239   19.9152 H   0  0  0  0  0  0
  -31.3679  -24.5335   16.9617 H   0  0  0  0  0  0
  -31.6473  -22.7315   16.6837 H   0  0  0  0  0  0
  -30.6773  -26.0430   20.5123 H   0  0  0  0  0  0
  -27.2416  -24.8700   20.9654 H   0  0  0  0  0  0
  -31.6325  -21.5782   19.4208 H   0  0  0  0  0  0
  -30.4738  -21.1695   18.1757 H   0  0  0  0  0  0
  -32.4845  -26.6030   18.7733 H   0  0  0  0  0  0
  -32.9412  -24.8990   18.7318 H   0  0  0  0  0  0
  -33.1057  -25.8057   20.2178 H   0  0  0  0  0  0
  -28.7945  -15.3592   18.0819 H   0  0  0  0  0  0
  -30.5530  -15.2419   17.9433 H   0  0  0  0  0  0
  -29.7864  -16.7891   18.0101 H   0  0  0  0  0  0
  1 25  1  0  0  0
  1 30  2  0  0  0
  1 88  1  0  0  0
  2  3  1  0  0  0
  2 25  1  0  0  0
  2 90  1  0  0  0
  2 91  1  0  0  0
  3  4  1  0  0  0
  3 92  1  0  0  0
  3 93  1  0  0  0
  4  5  1  0  0  0
  4 94  1  0  0  0
  4 95  1  0  0  0
  5  6  1  0  0  0
  5 26  1  0  0  0
  5 96  1  0  0  0
  6 25  1  0  0  0
  6 97  1  0  0  0
  6 98  1  0  0  0
  7  8  2  0  0  0
  7 26  1  0  0  0
  7 29  1  0  0  0
  8  9  1  0  0  0
  8 22  1  0  0  0
  9 10  1  0  0  0
  9 27  2  0  0  0
 10 11  2  0  0  0
 10 15  1  0  0  0
 11 12  1  0  0  0
 11 99  1  0  0  0
 12 13  2  0  0  0
 12100  1  0  0  0
 13 14  1  0  0  0
 13 31  1  0  0  0
 14 15  2  0  0  0
 14101  1  0  0  0
 15102  1  0  0  0
 16 17  2  0  0  0
 16 21  1  0  0  0
 16 31  1  0  0  0
 17 18  1  0  0  0
 17103  1  0  0  0
 18 19  2  0  0  0
 18104  1  0  0  0
 19 20  1  0  0  0
 19 24  1  0  0  0
 20 21  2  0  0  0
 20105  1  0  0  0
 21 23  1  0  0  0
 22 28  1  0  0  0
 22 32  2  0  0  0
 26 27  1  0  0  0
 28106  1  0  0  0
 28107  1  0  0  0
 29108  1  0  0  0
 29109  1  0  0  0
 33 34  1  0  0  0
 33 66  1  0  0  0
 33 70  2  0  0  0
 34 36  1  0  0  0
 34 59  1  0  0  0
 34110  1  0  0  0
 35 44  2  0  0  0
 35 45  1  0  0  0
 35 68  1  0  0  0
 36 56  1  0  0  0
 36111  1  0  0  0
 37 39  1  0  0  0
 37 47  1  0  0  0
 37 66  1  0  0  0
 37112  1  0  0  0
 38 43  2  0  0  0
 38 46  1  0  0  0
 38 47  1  0  0  0
 39 64  1  0  0  0
 39 67  2  0  0  0
 40 52  1  0  0  0
 40 53  2  0  0  0
 40 58  1  0  0  0
 41113  1  0  0  0
 41114  1  0  0  0
 41115  1  0  0  0
 41 48  1  0  0  0
 42 43  1  0  0  0
 42 66  1  0  0  0
 42116  1  0  0  0
 42117  1  0  0  0
 43 44  1  0  0  0
 44118  1  0  0  0
 45 46  2  0  0  0
 45119  1  0  0  0
 46120  1  0  0  0
 47121  1  0  0  0
 47122  1  0  0  0
 48 56  1  0  0  0
 48 65  1  0  0  0
 48123  1  0  0  0
 49 50  1  0  0  0
 49 53  1  0  0  0
 49 64  1  0  0  0
 49124  1  0  0  0
 50 51  1  0  0  0
 50125  1  0  0  0
 50126  1  0  0  0
 51 52  1  0  0  0
 51127  1  0  0  0
 51128  1  0  0  0
 52129  1  0  0  0
 52130  1  0  0  0
 53 54  1  0  0  0
 54 55  2  0  0  0
 54131  1  0  0  0
 55 57  1  0  0  0
 55132  1  0  0  0
 56 69  2  0  0  0
 57 58  2  0  0  0
 57133  1  0  0  0
 58134  1  0  0  0
 59 60  1  0  0  0
 59 61  1  0  0  0
 59 62  1  0  0  0
 60135  1  0  0  0
 60136  1  0  0  0
 60137  1  0  0  0
 61138  1  0  0  0
 61139  1  0  0  0
 61140  1  0  0  0
 62141  1  0  0  0
 62142  1  0  0  0
 62143  1  0  0  0
 63 65  1  0  0  0
 63144  1  0  0  0
 63145  1  0  0  0
 63146  1  0  0  0
 64147  1  0  0  0
 65148  1  0  0  0
 68 83  1  0  0  0
 71 73  2  0  0  0
 71 75  1  0  0  0
 71149  1  0  0  0
 72 74  1  0  0  0
 72 75  2  0  0  0
 72150  1  0  0  0
 73 76  1  0  0  0
 73151  1  0  0  0
 74 76  2  0  0  0
 74152  1  0  0  0
 75 87  1  0  0  0
 76 88  1  0  0  0
 77 78  1  0  0  0
 77 79  1  0  0  0
 77 82  2  0  0  0
 78 80  1  0  0  0
 78 83  2  0  0  0
 79 81  2  0  0  0
 79 84  1  0  0  0
 80 87  1  0  0  0
 80 89  2  0  0  0
 81153  1  0  0  0
 81154  1  0  0  0
 82 85  1  0  0  0
 82155  1  0  0  0
 83156  1  0  0  0
 84 87  1  0  0  0
 84157  1  0  0  0
 84158  1  0  0  0
 85159  1  0  0  0
 85160  1  0  0  0
 85161  1  0  0  0
 86 88  1  0  0  0
 86162  1  0  0  0
 86163  1  0  0  0
 86164  1  0  0  0
M  ISO  4   1 100  68 101  83 101  88 100
M  END
> <chiral flag>
0

> <version>
0

> <s_m_source_file>
/data/baiqing/PycharmProjects/Reinvent-master-3.2/result/LINK_invent/BTK/process_docking_weight1_custom_product_contain_oxygen_bond_distance_aromatic_linkinvent_7_9_3/rearranged_h_0077.sdf

> <i_m_source_file_index>
23

> <r_mmod_Potential_Energy-OPLS-2005>
549.800170898438

> <r_mmod_Stretch_Energy-OPLS-2005>
105.404327392578

> <r_mmod_Bend_Energy-OPLS-2005>
171.462371826172

> <r_mmod_Torsional_Energy-OPLS-2005>
447.422180175781

> <r_mmod_Improper_Torsional_Energy-OPLS-2005>
29.8287887573242

> <r_mmod_Van_der_Waal_Energy-OPLS-2005>
173.73957824707

> <r_mmod_Electrostatic_Energy-OPLS-2005>
-266.571502685547

> <r_mmod_Solvation_Energy-OPLS-2005>
-191.577301025391

> <b_mmod_Minimization_Converged-OPLS-2005>
0

> <r_mmod_RMS_Derivative-OPLS-2005>
2.37395811080933

$$$$
23
                    3D
 Structure written by MMmdl.
156164  0  0  1  0            999 V2000
  -30.3971  -15.2934   20.3927 C   0  0  0  0  0  0
  -30.4462  -12.8269   19.5433 C   0  0  0  0  0  0
  -29.5425  -12.5928   18.3024 C   0  0  0  0  0  0
  -28.0948  -12.2983   18.7305 C   0  0  0  0  0  0
  -27.6158  -13.2724   19.8342 C   0  0  2  0  0  0
  -28.6447  -13.4375   20.9744 C   0  0  0  0  0  0
  -25.2401  -13.8231   20.5746 C   0  0  0  0  0  0
  -24.1741  -13.0427   20.9237 C   0  0  0  0  0  0
  -24.6395  -11.6922   20.8770 C   0  0  0  0  0  0
  -23.9096  -10.4283   21.0417 C   0  0  0  0  0  0
  -24.3645   -9.4195   21.9187 C   0  0  0  0  0  0
  -23.6306   -8.2242   22.0756 C   0  0  0  0  0  0
  -22.4290   -8.0283   21.3545 C   0  0  0  0  0  0
  -21.9935   -9.0261   20.4648 C   0  0  0  0  0  0
  -22.7271  -10.2136   20.3057 C   0  0  0  0  0  0
  -21.6857   -6.0743   22.5277 C   0  0  0  0  0  0
  -21.4012   -6.5641   23.8212 C   0  0  0  0  0  0
  -21.3665   -5.6791   24.9172 C   0  0  0  0  0  0
  -21.6046   -4.3055   24.7220 C   0  0  0  0  0  0
  -21.8813   -3.8146   23.4341 C   0  0  0  0  0  0
  -21.9194   -4.6968   22.3400 C   0  0  0  0  0  0
  -22.7766  -13.5192   21.1891 C   0  0  0  0  0  0
  -22.1660   -4.2154   21.0983 F   0  0  0  0  0  0
  -21.5627   -3.4541   25.7734 F   0  0  0  0  0  0
  -29.8801  -13.9604   20.3665 N   0  0  0  0  0  0
  -26.2836  -12.9506   20.3266 N   0  0  0  0  0  0
  -25.9334  -11.6613   20.5747 N   0  0  0  0  0  0
  -22.0445  -12.8171   22.0464 N   0  0  0  0  0  0
  -25.4030  -15.1965   20.4170 N   0  0  0  0  0  0
  -31.6056  -15.3392   20.1126 O   0  0  0  0  0  0
  -21.6639   -6.8891   21.4246 O   0  0  0  0  0  0
  -22.3452  -14.5505   20.6741 O   0  0  0  0  0  0
  -24.6611  -31.8215   23.1662 C   0  0  0  0  0  0
  -25.9283  -32.4580   23.8136 C   0  0  1  0  0  0
  -27.2283  -26.9176   20.2039 C   0  0  0  0  0  0
  -25.5956  -33.8399   24.2037 N   0  0  0  0  0  0
  -23.4790  -30.4301   21.5135 C   0  0  2  0  0  0
  -24.9347  -28.8095   20.1136 C   0  0  0  0  0  0
  -22.7655  -29.4427   22.4747 C   0  0  0  0  0  0
  -18.0322  -28.1433   22.8447 C   0  0  0  0  0  0
  -24.1490  -36.7206   23.2658 C   0  0  0  0  0  0
  -26.0473  -30.6248   21.4012 C   0  0  0  0  0  0
  -26.1129  -29.2108   20.7552 C   0  0  0  0  0  0
  -27.2463  -28.2830   20.7798 C   0  0  0  0  0  0
  -26.0261  -26.6685   19.5038 C   0  0  0  0  0  0
  -24.9161  -27.5588   19.4706 C   0  0  0  0  0  0
  -23.7221  -29.7406   20.1415 C   0  0  0  0  0  0
  -25.4131  -36.2953   24.0297 C   0  0  1  0  0  0
  -20.5949  -28.3762   23.1190 C   0  0  2  0  0  0
  -20.6824  -26.9451   22.5403 C   0  0  0  0  0  0
  -19.5801  -26.6388   21.5228 C   0  0  0  0  0  0
  -18.1962  -26.7963   22.1608 C   0  0  0  0  0  0
  -19.1586  -28.8913   23.2813 C   0  0  0  0  0  0
  -18.9509  -30.1502   23.8855 C   0  0  0  0  0  0
  -17.6508  -30.6616   24.0564 C   0  0  0  0  0  0
  -25.9097  -34.9346   23.4980 C   0  0  0  0  0  0
  -16.5393  -29.9117   23.6362 C   0  0  0  0  0  0
  -16.7308  -28.6546   23.0359 C   0  0  0  0  0  0
  -26.4550  -31.6543   25.0668 C   0  0  0  0  0  0
  -25.3663  -31.3816   26.1315 C   0  0  0  0  0  0
  -27.0460  -30.2913   24.6398 C   0  0  0  0  0  0
  -27.6043  -32.4355   25.7463 C   0  0  0  0  0  0
  -27.5553  -37.1762   24.8471 C   0  0  0  0  0  0
  -21.4320  -29.3044   22.3522 N   0  0  0  0  0  0
  -26.4266  -37.3696   23.9410 N   0  0  0  0  0  0
  -24.7498  -30.9865   22.0810 N   0  0  0  0  0  0
  -23.4199  -28.8004   23.2992 O   0  0  0  0  0  0
  -28.2746  -25.8556   20.2881 O   0  0  0  0  0  0
  -26.5717  -34.8879   22.4577 O   0  0  0  0  0  0
  -23.5669  -32.1181   23.6736 O   0  0  0  0  0  0
  -28.2071  -20.4211   21.1195 C   0  0  0  0  0  0
  -28.4186  -18.9424   21.1408 C   0  0  0  0  0  0
  -30.2694  -19.1634   19.8337 C   0  0  0  0  0  0
  -28.9954  -21.4548   20.4499 C   0  0  0  0  0  0
  -29.4781  -18.1405   20.5181 C   0  0  0  0  0  0
  -30.0479  -20.6512   19.7953 C   0  0  0  0  0  0
  -28.9035  -23.1989   20.6020 C   0  0  0  0  0  0
  -30.8420  -22.5640   22.2655 C   0  0  0  0  0  0
  -29.4258  -24.4950   22.7750 C   0  0  0  0  0  0
  -31.0656  -24.5748   20.8385 C   0  0  0  0  0  0
  -30.0308  -23.6998   21.5854 C   0  0  0  0  0  0
  -28.0497  -24.2359   20.1410 N   0  0  0  0  0  0
  -29.5559  -16.5055   20.5915 N   0  0  0  0  0  0
  -30.9671  -21.3504   19.0869 F   0  0  0  0  0  0
  -31.4622  -13.0476   19.2135 H   0  0  0  0  0  0
  -30.5259  -11.9176   20.1416 H   0  0  0  0  0  0
  -29.9311  -11.7744   17.6947 H   0  0  0  0  0  0
  -29.5582  -13.4814   17.6691 H   0  0  0  0  0  0
  -28.0668  -11.2777   19.1148 H   0  0  0  0  0  0
  -27.4220  -12.3220   17.8726 H   0  0  0  0  0  0
  -27.5362  -14.2410   19.3389 H   0  0  0  0  0  0
  -28.8145  -12.4943   21.4950 H   0  0  0  0  0  0
  -28.2752  -14.1417   21.7226 H   0  0  0  0  0  0
  -25.2793   -9.5666   22.4761 H   0  0  0  0  0  0
  -24.0009   -7.4632   22.7475 H   0  0  0  0  0  0
  -21.0859   -8.8784   19.8960 H   0  0  0  0  0  0
  -22.3729  -10.9674   19.6164 H   0  0  0  0  0  0
  -21.2008   -7.6150   23.9719 H   0  0  0  0  0  0
  -21.1490   -6.0523   25.9077 H   0  0  0  0  0  0
  -22.0596   -2.7612   23.2839 H   0  0  0  0  0  0
  -22.4081  -11.9822   22.4816 H   0  0  0  0  0  0
  -21.1069  -13.1196   22.2707 H   0  0  0  0  0  0
  -24.6226  -15.8392   20.4996 H   0  0  0  0  0  0
  -26.2345  -15.6370   20.0477 H   0  0  0  0  0  0
  -26.7351  -32.5108   23.0861 H   0  0  0  0  0  0
  -25.0089  -33.9477   25.0169 H   0  0  0  0  0  0
  -22.7936  -31.2626   21.3378 H   0  0  0  0  0  0
  -23.3745  -35.9542   23.3305 H   0  0  0  0  0  0
  -24.3583  -36.8851   22.2079 H   0  0  0  0  0  0
  -23.7258  -37.6392   23.6719 H   0  0  0  0  0  0
  -26.2254  -31.3592   20.6150 H   0  0  0  0  0  0
  -26.9106  -30.6906   22.0517 H   0  0  0  0  0  0
  -28.1356  -28.5889   21.3115 H   0  0  0  0  0  0
  -25.9206  -25.7136   19.0084 H   0  0  0  0  0  0
  -24.0232  -27.2455   18.9492 H   0  0  0  0  0  0
  -23.8804  -30.5068   19.3825 H   0  0  0  0  0  0
  -22.8330  -29.1963   19.8198 H   0  0  0  0  0  0
  -25.1341  -36.1740   25.0788 H   0  0  0  0  0  0
  -21.0043  -28.3379   24.1312 H   0  0  0  0  0  0
  -20.5745  -26.2383   23.3638 H   0  0  0  0  0  0
  -21.6689  -26.7447   22.1193 H   0  0  0  0  0  0
  -19.6977  -25.6287   21.1294 H   0  0  0  0  0  0
  -19.6761  -27.3177   20.6739 H   0  0  0  0  0  0
  -17.4251  -26.6697   21.3996 H   0  0  0  0  0  0
  -18.0335  -26.0126   22.9013 H   0  0  0  0  0  0
  -19.7993  -30.7329   24.2185 H   0  0  0  0  0  0
  -17.5077  -31.6291   24.5184 H   0  0  0  0  0  0
  -15.5403  -30.3034   23.7719 H   0  0  0  0  0  0
  -15.8689  -28.0879   22.7101 H   0  0  0  0  0  0
  -24.5873  -30.7138   25.7629 H   0  0  0  0  0  0
  -24.8825  -32.3027   26.4557 H   0  0  0  0  0  0
  -25.7869  -30.9111   27.0204 H   0  0  0  0  0  0
  -26.3126  -29.6588   24.1389 H   0  0  0  0  0  0
  -27.4011  -29.7281   25.5035 H   0  0  0  0  0  0
  -27.9045  -30.4132   23.9799 H   0  0  0  0  0  0
  -27.2622  -33.3715   26.1882 H   0  0  0  0  0  0
  -28.3925  -32.6807   25.0341 H   0  0  0  0  0  0
  -28.0631  -31.8591   26.5501 H   0  0  0  0  0  0
  -28.2572  -38.0056   24.7481 H   0  0  0  0  0  0
  -28.1038  -36.2572   24.6335 H   0  0  0  0  0  0
  -27.2268  -37.1460   25.8876 H   0  0  0  0  0  0
  -20.9567  -29.8717   21.6647 H   0  0  0  0  0  0
  -26.0100  -38.2737   24.1424 H   0  0  0  0  0  0
  -27.3745  -20.7832   21.7058 H   0  0  0  0  0  0
  -27.6889  -18.3872   21.7139 H   0  0  0  0  0  0
  -31.1240  -18.8044   19.2770 H   0  0  0  0  0  0
  -30.2061  -21.8672   22.8132 H   0  0  0  0  0  0
  -31.5440  -22.9668   22.9968 H   0  0  0  0  0  0
  -31.4544  -21.9997   21.5648 H   0  0  0  0  0  0
  -28.6683  -23.9138   23.3015 H   0  0  0  0  0  0
  -28.9705  -25.4394   22.4934 H   0  0  0  0  0  0
  -30.1889  -24.7587   23.5084 H   0  0  0  0  0  0
  -31.5417  -24.0213   20.0276 H   0  0  0  0  0  0
  -31.8613  -24.8995   21.5101 H   0  0  0  0  0  0
  -30.6434  -25.4815   20.4089 H   0  0  0  0  0  0
  -28.6612  -16.1517   20.8960 H   0  0  0  0  0  0
  1 25  1  0  0  0
  1 30  2  0  0  0
  1 83  1  0  0  0
  2  3  1  0  0  0
  2 25  1  0  0  0
  2 85  1  0  0  0
  2 86  1  0  0  0
  3  4  1  0  0  0
  3 87  1  0  0  0
  3 88  1  0  0  0
  4  5  1  0  0  0
  4 89  1  0  0  0
  4 90  1  0  0  0
  5  6  1  0  0  0
  5 26  1  0  0  0
  5 91  1  0  0  0
  6 25  1  0  0  0
  6 92  1  0  0  0
  6 93  1  0  0  0
  7  8  2  0  0  0
  7 26  1  0  0  0
  7 29  1  0  0  0
  8  9  1  0  0  0
  8 22  1  0  0  0
  9 10  1  0  0  0
  9 27  2  0  0  0
 10 11  2  0  0  0
 10 15  1  0  0  0
 11 12  1  0  0  0
 11 94  1  0  0  0
 12 13  2  0  0  0
 12 95  1  0  0  0
 13 14  1  0  0  0
 13 31  1  0  0  0
 14 15  2  0  0  0
 14 96  1  0  0  0
 15 97  1  0  0  0
 16 17  2  0  0  0
 16 21  1  0  0  0
 16 31  1  0  0  0
 17 18  1  0  0  0
 17 98  1  0  0  0
 18 19  2  0  0  0
 18 99  1  0  0  0
 19 20  1  0  0  0
 19 24  1  0  0  0
 20 21  2  0  0  0
 20100  1  0  0  0
 21 23  1  0  0  0
 22 28  1  0  0  0
 22 32  2  0  0  0
 26 27  1  0  0  0
 28101  1  0  0  0
 28102  1  0  0  0
 29103  1  0  0  0
 29104  1  0  0  0
 33 34  1  0  0  0
 33 66  1  0  0  0
 33 70  2  0  0  0
 34 36  1  0  0  0
 34 59  1  0  0  0
 34105  1  0  0  0
 35 44  2  0  0  0
 35 45  1  0  0  0
 35 68  1  0  0  0
 36 56  1  0  0  0
 36106  1  0  0  0
 37 39  1  0  0  0
 37 47  1  0  0  0
 37 66  1  0  0  0
 37107  1  0  0  0
 38 43  2  0  0  0
 38 46  1  0  0  0
 38 47  1  0  0  0
 39 64  1  0  0  0
 39 67  2  0  0  0
 40 52  1  0  0  0
 40 53  2  0  0  0
 40 58  1  0  0  0
 41108  1  0  0  0
 41109  1  0  0  0
 41110  1  0  0  0
 41 48  1  0  0  0
 42 43  1  0  0  0
 42 66  1  0  0  0
 42111  1  0  0  0
 42112  1  0  0  0
 43 44  1  0  0  0
 44113  1  0  0  0
 45 46  2  0  0  0
 45114  1  0  0  0
 46115  1  0  0  0
 47116  1  0  0  0
 47117  1  0  0  0
 48 56  1  0  0  0
 48 65  1  0  0  0
 48118  1  0  0  0
 49 50  1  0  0  0
 49 53  1  0  0  0
 49 64  1  0  0  0
 49119  1  0  0  0
 50 51  1  0  0  0
 50120  1  0  0  0
 50121  1  0  0  0
 51 52  1  0  0  0
 51122  1  0  0  0
 51123  1  0  0  0
 52124  1  0  0  0
 52125  1  0  0  0
 53 54  1  0  0  0
 54 55  2  0  0  0
 54126  1  0  0  0
 55 57  1  0  0  0
 55127  1  0  0  0
 56 69  2  0  0  0
 57 58  2  0  0  0
 57128  1  0  0  0
 58129  1  0  0  0
 59 60  1  0  0  0
 59 61  1  0  0  0
 59 62  1  0  0  0
 60130  1  0  0  0
 60131  1  0  0  0
 60132  1  0  0  0
 61133  1  0  0  0
 61134  1  0  0  0
 61135  1  0  0  0
 62136  1  0  0  0
 62137  1  0  0  0
 62138  1  0  0  0
 63 65  1  0  0  0
 63139  1  0  0  0
 63140  1  0  0  0
 63141  1  0  0  0
 64142  1  0  0  0
 65143  1  0  0  0
 68 82  1  0  0  0
 71 72  2  0  0  0
 71 74  1  0  0  0
 71144  1  0  0  0
 72 75  1  0  0  0
 72145  1  0  0  0
 73 75  2  0  0  0
 73 76  1  0  0  0
 73146  1  0  0  0
 74 76  2  0  0  0
 74 77  1  0  0  0
 75 83  1  0  0  0
 76 84  1  0  0  0
 77 81  1  0  0  0
 77 82  2  0  0  0
 78147  1  0  0  0
 78148  1  0  0  0
 78149  1  0  0  0
 78 81  1  0  0  0
 79 81  1  0  0  0
 79150  1  0  0  0
 79151  1  0  0  0
 79152  1  0  0  0
 80 81  1  0  0  0
 80153  1  0  0  0
 80154  1  0  0  0
 80155  1  0  0  0
 83156  1  0  0  0
M  ISO  4   1 100  68 101  82 101  83 100
M  END
> <chiral flag>
0

> <version>
0

> <s_m_source_file>
/data/baiqing/PycharmProjects/Reinvent-master-3.2/result/LINK_invent/BTK/process_docking_weight1_custom_product_contain_oxygen_bond_distance_aromatic_linkinvent_7_9_3/rearranged_h_0077.sdf

> <i_m_source_file_index>
24

> <r_mmod_Potential_Energy-OPLS-2005>
1308.43627929688

> <r_mmod_Stretch_Energy-OPLS-2005>
567.392333984375

> <r_mmod_Bend_Energy-OPLS-2005>
439.333648681641

> <r_mmod_Torsional_Energy-OPLS-2005>
213.746292114258

> <r_mmod_Improper_Torsional_Energy-OPLS-2005>
4.86584329605103

> <r_mmod_Van_der_Waal_Energy-OPLS-2005>
141.958999633789

> <r_mmod_Electrostatic_Energy-OPLS-2005>
-322.578277587891

> <r_mmod_Solvation_Energy-OPLS-2005>
-212.413162231445

> <b_mmod_Minimization_Converged-OPLS-2005>
0

> <r_mmod_RMS_Derivative-OPLS-2005>
2.6841185092926

$$$$
24
                    3D
 Structure written by MMmdl.
161169  0  0  1  0            999 V2000
  -30.5953  -14.5363   20.6182 C   0  0  0  0  0  0
  -30.4520  -12.3694   19.4201 C   0  0  0  0  0  0
  -29.5147  -12.5332   18.2006 C   0  0  0  0  0  0
  -28.0307  -12.3719   18.6019 C   0  0  0  0  0  0
  -27.6621  -13.1939   19.8676 C   0  0  2  0  0  0
  -28.6907  -12.9338   20.9879 C   0  0  0  0  0  0
  -25.2570  -13.8065   20.5546 C   0  0  0  0  0  0
  -24.1818  -13.0395   20.9089 C   0  0  0  0  0  0
  -24.6339  -11.6863   20.8639 C   0  0  0  0  0  0
  -23.9007  -10.4257   21.0348 C   0  0  0  0  0  0
  -24.3582   -9.4201   21.9152 C   0  0  0  0  0  0
  -23.6257   -8.2241   22.0764 C   0  0  0  0  0  0
  -22.4240   -8.0256   21.3564 C   0  0  0  0  0  0
  -21.9862   -9.0217   20.4668 C   0  0  0  0  0  0
  -22.7169  -10.2076   20.3033 C   0  0  0  0  0  0
  -21.6833   -6.0682   22.5255 C   0  0  0  0  0  0
  -21.4027   -6.5605   23.8168 C   0  0  0  0  0  0
  -21.3667   -5.6759   24.9132 C   0  0  0  0  0  0
  -21.6039   -4.3027   24.7188 C   0  0  0  0  0  0
  -21.8829   -3.8114   23.4321 C   0  0  0  0  0  0
  -21.9208   -4.6933   22.3374 C   0  0  0  0  0  0
  -22.7834  -13.5262   21.1732 C   0  0  0  0  0  0
  -22.1665   -4.2132   21.0953 F   0  0  0  0  0  0
  -21.5648   -3.4506   25.7710 F   0  0  0  0  0  0
  -30.0196  -13.3096   20.4682 N   0  0  0  0  0  0
  -26.3008  -12.9229   20.3196 N   0  0  0  0  0  0
  -25.9260  -11.6415   20.5575 N   0  0  0  0  0  0
  -22.0475  -12.8319   22.0307 N   0  0  0  0  0  0
  -25.4334  -15.1773   20.3957 N   0  0  0  0  0  0
  -31.6808  -14.8283   20.1005 O   0  0  0  0  0  0
  -21.6656   -6.8835   21.4216 O   0  0  0  0  0  0
  -22.3543  -14.5555   20.6554 O   0  0  0  0  0  0
  -24.6274  -31.8612   23.2084 C   0  0  0  0  0  0
  -25.9176  -32.4743   23.8315 C   0  0  1  0  0  0
  -27.1970  -27.3617   20.0741 C   0  0  0  0  0  0
  -25.6000  -33.8536   24.2242 N   0  0  0  0  0  0
  -23.4050  -30.4958   21.5544 C   0  0  2  0  0  0
  -24.8344  -28.9464   20.1332 C   0  0  0  0  0  0
  -22.7421  -29.4673   22.4999 C   0  0  0  0  0  0
  -18.0282  -28.1366   22.8480 C   0  0  0  0  0  0
  -24.1487  -36.7254   23.2633 C   0  0  0  0  0  0
  -25.9476  -30.8008   21.3713 C   0  0  0  0  0  0
  -26.0120  -29.4344   20.7103 C   0  0  0  0  0  0
  -27.1986  -28.6521   20.6787 C   0  0  0  0  0  0
  -25.9660  -26.8793   19.5715 C   0  0  0  0  0  0
  -24.8046  -27.6609   19.5760 C   0  0  0  0  0  0
  -23.6140  -29.8340   20.1703 C   0  0  0  0  0  0
  -25.4126  -36.3049   24.0324 C   0  0  1  0  0  0
  -20.5869  -28.3664   23.1320 C   0  0  2  0  0  0
  -20.6773  -26.9391   22.5423 C   0  0  0  0  0  0
  -19.5751  -26.6384   21.5203 C   0  0  0  0  0  0
  -18.1930  -26.7919   22.1610 C   0  0  0  0  0  0
  -19.1538  -28.8836   23.2879 C   0  0  0  0  0  0
  -18.9489  -30.1443   23.8875 C   0  0  0  0  0  0
  -17.6502  -30.6584   24.0566 C   0  0  0  0  0  0
  -25.9067  -34.9435   23.5059 C   0  0  0  0  0  0
  -16.5376  -29.9093   23.6329 C   0  0  0  0  0  0
  -16.7283  -28.6508   23.0339 C   0  0  0  0  0  0
  -26.4541  -31.6594   25.0710 C   0  0  0  0  0  0
  -25.3796  -31.3820   26.1463 C   0  0  0  0  0  0
  -27.0360  -30.3006   24.6208 C   0  0  0  0  0  0
  -27.6030  -32.4376   25.7523 C   0  0  0  0  0  0
  -27.5572  -37.1792   24.8475 C   0  0  0  0  0  0
  -21.4147  -29.3043   22.3749 N   0  0  0  0  0  0
  -26.4274  -37.3784   23.9407 N   0  0  0  0  0  0
  -24.6780  -31.0710   22.0987 N   0  0  0  0  0  0
  -23.4193  -28.8206   23.3053 O   0  0  0  0  0  0
  -28.3476  -26.5764   19.9976 O   0  0  0  0  0  0
  -26.5618  -34.8925   22.4619 O   0  0  0  0  0  0
  -23.5473  -32.1375   23.7505 O   0  0  0  0  0  0
  -29.5833  -19.0278   22.3358 C   0  0  0  0  0  0
  -29.9388  -17.6555   22.3592 C   0  0  0  0  0  0
  -28.6734  -18.7642   20.1069 C   0  0  0  0  0  0
  -28.9213  -19.6050   21.2246 C   0  0  0  0  0  0
  -29.6872  -16.8141   21.2506 C   0  0  0  0  0  0
  -29.0487  -17.3896   20.1235 C   0  0  0  0  0  0
  -28.4552  -21.0250   21.2919 C   0  0  0  0  0  0
  -28.1702  -23.2937   20.1740 C   0  0  0  0  0  0
  -28.4356  -23.4142   17.6795 C   0  0  0  0  0  0
  -30.3580  -23.9943   19.1702 C   0  0  0  0  0  0
  -28.4421  -25.6470   18.8733 C   0  0  0  0  0  0
  -28.8260  -24.1094   19.0149 C   0  0  0  0  0  0
  -29.8801  -15.3964   21.3829 N   0  0  0  0  0  0
  -28.5829  -21.8905   20.2517 N   0  0  0  0  0  0
  -27.9286  -21.4470   22.4499 N   0  3  0  0  0  0
  -27.3979  -23.7937   20.9983 O   0  0  0  0  0  0
  -28.7201  -16.6034   19.0699 F   0  0  0  0  0  0
  -31.4894  -12.5415   19.1264 H   0  0  0  0  0  0
  -30.4154  -11.3496   19.8013 H   0  0  0  0  0  0
  -29.7748  -11.8135   17.4214 H   0  0  0  0  0  0
  -29.6587  -13.5178   17.7500 H   0  0  0  0  0  0
  -27.8401  -11.3110   18.7733 H   0  0  0  0  0  0
  -27.3914  -12.6631   17.7671 H   0  0  0  0  0  0
  -27.7174  -14.2473   19.5927 H   0  0  0  0  0  0
  -28.6863  -11.8759   21.2540 H   0  0  0  0  0  0
  -28.4102  -13.4457   21.9107 H   0  0  0  0  0  0
  -25.2758   -9.5694   22.4687 H   0  0  0  0  0  0
  -23.9985   -7.4642   22.7504 H   0  0  0  0  0  0
  -21.0791   -8.8710   19.8980 H   0  0  0  0  0  0
  -22.3647  -10.9591   19.6120 H   0  0  0  0  0  0
  -21.2037   -7.6118   23.9663 H   0  0  0  0  0  0
  -21.1476   -6.0494   25.9026 H   0  0  0  0  0  0
  -22.0627   -2.7596   23.2799 H   0  0  0  0  0  0
  -22.4077  -12.0070   22.4860 H   0  0  0  0  0  0
  -21.1073  -13.1346   22.2380 H   0  0  0  0  0  0
  -24.6647  -15.8304   20.4947 H   0  0  0  0  0  0
  -26.2786  -15.6092   20.0430 H   0  0  0  0  0  0
  -26.7220  -32.5403   23.1014 H   0  0  0  0  0  0
  -25.0149  -33.9593   25.0392 H   0  0  0  0  0  0
  -22.6940  -31.3127   21.4183 H   0  0  0  0  0  0
  -23.3733  -35.9599   23.3330 H   0  0  0  0  0  0
  -24.3541  -36.8850   22.2035 H   0  0  0  0  0  0
  -23.7270  -37.6478   23.6630 H   0  0  0  0  0  0
  -26.0979  -31.5705   20.6135 H   0  0  0  0  0  0
  -26.8208  -30.8237   22.0102 H   0  0  0  0  0  0
  -28.1094  -29.0424   21.1110 H   0  0  0  0  0  0
  -25.8548  -25.8710   19.1966 H   0  0  0  0  0  0
  -23.8823  -27.2470   19.1939 H   0  0  0  0  0  0
  -23.7545  -30.6063   19.4136 H   0  0  0  0  0  0
  -22.7283  -29.2786   19.8547 H   0  0  0  0  0  0
  -25.1311  -36.1853   25.0819 H   0  0  0  0  0  0
  -20.9905  -28.3253   24.1464 H   0  0  0  0  0  0
  -20.5675  -26.2259   23.3608 H   0  0  0  0  0  0
  -21.6654  -26.7428   22.1226 H   0  0  0  0  0  0
  -19.6892  -25.6303   21.1216 H   0  0  0  0  0  0
  -19.6701  -27.3200   20.6738 H   0  0  0  0  0  0
  -17.4182  -26.6642   21.4029 H   0  0  0  0  0  0
  -18.0347  -26.0080   22.9026 H   0  0  0  0  0  0
  -19.7984  -30.7253   24.2211 H   0  0  0  0  0  0
  -17.5083  -31.6263   24.5168 H   0  0  0  0  0  0
  -15.5387  -30.2998   23.7687 H   0  0  0  0  0  0
  -15.8663  -28.0839   22.7049 H   0  0  0  0  0  0
  -24.5878  -30.7229   25.7875 H   0  0  0  0  0  0
  -24.9094  -32.3048   26.4901 H   0  0  0  0  0  0
  -25.8167  -30.9005   27.0222 H   0  0  0  0  0  0
  -26.2918  -29.6787   24.1202 H   0  0  0  0  0  0
  -27.3978  -29.7277   25.4758 H   0  0  0  0  0  0
  -27.8853  -30.4228   23.9468 H   0  0  0  0  0  0
  -27.2491  -33.3623   26.2106 H   0  0  0  0  0  0
  -28.3871  -32.7053   25.0422 H   0  0  0  0  0  0
  -28.0644  -31.8512   26.5478 H   0  0  0  0  0  0
  -28.2625  -38.0054   24.7491 H   0  0  0  0  0  0
  -28.1021  -36.2591   24.6330 H   0  0  0  0  0  0
  -27.2261  -37.1509   25.8869 H   0  0  0  0  0  0
  -20.9302  -29.8818   21.7015 H   0  0  0  0  0  0
  -26.0144  -38.2839   24.1442 H   0  0  0  0  0  0
  -29.7977  -19.6315   23.2078 H   0  0  0  0  0  0
  -30.3789  -17.2487   23.2566 H   0  0  0  0  0  0
  -28.1424  -19.1469   19.2485 H   0  0  0  0  0  0
  -28.4934  -22.3255   17.7198 H   0  0  0  0  0  0
  -29.0919  -23.7318   16.8670 H   0  0  0  0  0  0
  -27.4118  -23.6515   17.3769 H   0  0  0  0  0  0
  -30.6990  -22.9587   19.1684 H   0  0  0  0  0  0
  -30.7085  -24.4534   20.0928 H   0  0  0  0  0  0
  -30.8756  -24.4761   18.3390 H   0  0  0  0  0  0
  -27.6146  -25.7383   18.1740 H   0  0  0  0  0  0
  -29.2340  -26.0964   18.2700 H   0  0  0  0  0  0
  -29.1328  -14.9347   21.8772 H   0  0  0  0  0  0
  -29.1123  -21.4830   19.4958 H   0  0  0  0  0  0
  -27.7873  -20.8160   23.2242 H   0  0  0  0  0  0
  -27.6175  -22.4076   22.5239 H   0  0  0  0  0  0
  1 25  1  0  0  0
  1 30  2  0  0  0
  1 83  1  0  0  0
  2  3  1  0  0  0
  2 25  1  0  0  0
  2 88  1  0  0  0
  2 89  1  0  0  0
  3  4  1  0  0  0
  3 90  1  0  0  0
  3 91  1  0  0  0
  4  5  1  0  0  0
  4 92  1  0  0  0
  4 93  1  0  0  0
  5  6  1  0  0  0
  5 26  1  0  0  0
  5 94  1  0  0  0
  6 25  1  0  0  0
  6 95  1  0  0  0
  6 96  1  0  0  0
  7  8  2  0  0  0
  7 26  1  0  0  0
  7 29  1  0  0  0
  8  9  1  0  0  0
  8 22  1  0  0  0
  9 10  1  0  0  0
  9 27  2  0  0  0
 10 11  2  0  0  0
 10 15  1  0  0  0
 11 12  1  0  0  0
 11 97  1  0  0  0
 12 13  2  0  0  0
 12 98  1  0  0  0
 13 14  1  0  0  0
 13 31  1  0  0  0
 14 15  2  0  0  0
 14 99  1  0  0  0
 15100  1  0  0  0
 16 17  2  0  0  0
 16 21  1  0  0  0
 16 31  1  0  0  0
 17 18  1  0  0  0
 17101  1  0  0  0
 18 19  2  0  0  0
 18102  1  0  0  0
 19 20  1  0  0  0
 19 24  1  0  0  0
 20 21  2  0  0  0
 20103  1  0  0  0
 21 23  1  0  0  0
 22 28  1  0  0  0
 22 32  2  0  0  0
 26 27  1  0  0  0
 28104  1  0  0  0
 28105  1  0  0  0
 29106  1  0  0  0
 29107  1  0  0  0
 33 34  1  0  0  0
 33 66  1  0  0  0
 33 70  2  0  0  0
 34 36  1  0  0  0
 34 59  1  0  0  0
 34108  1  0  0  0
 35 44  2  0  0  0
 35 45  1  0  0  0
 35 68  1  0  0  0
 36 56  1  0  0  0
 36109  1  0  0  0
 37 39  1  0  0  0
 37 47  1  0  0  0
 37 66  1  0  0  0
 37110  1  0  0  0
 38 43  2  0  0  0
 38 46  1  0  0  0
 38 47  1  0  0  0
 39 64  1  0  0  0
 39 67  2  0  0  0
 40 52  1  0  0  0
 40 53  2  0  0  0
 40 58  1  0  0  0
 41111  1  0  0  0
 41112  1  0  0  0
 41113  1  0  0  0
 41 48  1  0  0  0
 42 43  1  0  0  0
 42 66  1  0  0  0
 42114  1  0  0  0
 42115  1  0  0  0
 43 44  1  0  0  0
 44116  1  0  0  0
 45 46  2  0  0  0
 45117  1  0  0  0
 46118  1  0  0  0
 47119  1  0  0  0
 47120  1  0  0  0
 48 56  1  0  0  0
 48 65  1  0  0  0
 48121  1  0  0  0
 49 50  1  0  0  0
 49 53  1  0  0  0
 49 64  1  0  0  0
 49122  1  0  0  0
 50 51  1  0  0  0
 50123  1  0  0  0
 50124  1  0  0  0
 51 52  1  0  0  0
 51125  1  0  0  0
 51126  1  0  0  0
 52127  1  0  0  0
 52128  1  0  0  0
 53 54  1  0  0  0
 54 55  2  0  0  0
 54129  1  0  0  0
 55 57  1  0  0  0
 55130  1  0  0  0
 56 69  2  0  0  0
 57 58  2  0  0  0
 57131  1  0  0  0
 58132  1  0  0  0
 59 60  1  0  0  0
 59 61  1  0  0  0
 59 62  1  0  0  0
 60133  1  0  0  0
 60134  1  0  0  0
 60135  1  0  0  0
 61136  1  0  0  0
 61137  1  0  0  0
 61138  1  0  0  0
 62139  1  0  0  0
 62140  1  0  0  0
 62141  1  0  0  0
 63 65  1  0  0  0
 63142  1  0  0  0
 63143  1  0  0  0
 63144  1  0  0  0
 64145  1  0  0  0
 65146  1  0  0  0
 68 81  1  0  0  0
 71 72  2  0  0  0
 71 74  1  0  0  0
 71147  1  0  0  0
 72 75  1  0  0  0
 72148  1  0  0  0
 73 74  2  0  0  0
 73 76  1  0  0  0
 73149  1  0  0  0
 74 77  1  0  0  0
 75 76  2  0  0  0
 75 83  1  0  0  0
 76 87  1  0  0  0
 77 84  1  0  0  0
 77 85  2  0  0  0
 78 82  1  0  0  0
 78 84  1  0  0  0
 78 86  2  0  0  0
 79150  1  0  0  0
 79151  1  0  0  0
 79152  1  0  0  0
 79 82  1  0  0  0
 80 82  1  0  0  0
 80153  1  0  0  0
 80154  1  0  0  0
 80155  1  0  0  0
 81 82  1  0  0  0
 81156  1  0  0  0
 81157  1  0  0  0
 83158  1  0  0  0
 84159  1  0  0  0
 85160  1  0  0  0
 85161  1  0  0  0
M  CHG  1  85   1
M  ISO  4   1 100  68 101  81 101  83 100
M  END
> <chiral flag>
0

> <version>
0

> <s_m_source_file>
/data/baiqing/PycharmProjects/Reinvent-master-3.2/result/LINK_invent/BTK/process_docking_weight1_custom_product_contain_oxygen_bond_distance_aromatic_linkinvent_7_9_3/rearranged_h_0077.sdf

> <i_m_source_file_index>
25

> <r_mmod_Potential_Energy-OPLS-2005>
-285.136016845703

> <r_mmod_Stretch_Energy-OPLS-2005>
57.2864418029785

> <r_mmod_Bend_Energy-OPLS-2005>
144.127639770508

> <r_mmod_Torsional_Energy-OPLS-2005>
263.212585449219

> <r_mmod_Improper_Torsional_Energy-OPLS-2005>
5.70606231689453

> <r_mmod_Van_der_Waal_Energy-OPLS-2005>
170.771286010742

> <r_mmod_Electrostatic_Energy-OPLS-2005>
-500.994293212891

> <r_mmod_Solvation_Energy-OPLS-2005>
-456.866943359375

> <b_mmod_Minimization_Converged-OPLS-2005>
0

> <r_mmod_RMS_Derivative-OPLS-2005>
6.24357318878174

$$$$
25
                    3D
 Structure written by MMmdl.
159168  0  0  1  0            999 V2000
  -30.5896  -14.6962   20.4900 C   0  0  0  0  0  0
  -30.4445  -12.4264   19.4589 C   0  0  0  0  0  0
  -29.5119  -12.5156   18.2291 C   0  0  0  0  0  0
  -28.0361  -12.3399   18.6410 C   0  0  0  0  0  0
  -27.6509  -13.2173   19.8612 C   0  0  2  0  0  0
  -28.6959  -13.0914   20.9927 C   0  0  0  0  0  0
  -25.2555  -13.8163   20.5685 C   0  0  0  0  0  0
  -24.1823  -13.0435   20.9193 C   0  0  0  0  0  0
  -24.6389  -11.6905   20.8737 C   0  0  0  0  0  0
  -23.9057  -10.4290   21.0405 C   0  0  0  0  0  0
  -24.3609   -9.4206   21.9182 C   0  0  0  0  0  0
  -23.6285   -8.2243   22.0753 C   0  0  0  0  0  0
  -22.4266   -8.0281   21.3547 C   0  0  0  0  0  0
  -21.9898   -9.0253   20.4647 C   0  0  0  0  0  0
  -22.7228  -10.2131   20.3053 C   0  0  0  0  0  0
  -21.6853   -6.0728   22.5276 C   0  0  0  0  0  0
  -21.4015   -6.5634   23.8208 C   0  0  0  0  0  0
  -21.3659   -5.6789   24.9173 C   0  0  0  0  0  0
  -21.6044   -4.3052   24.7225 C   0  0  0  0  0  0
  -21.8821   -3.8141   23.4347 C   0  0  0  0  0  0
  -21.9193   -4.6955   22.3400 C   0  0  0  0  0  0
  -22.7849  -13.5234   21.1853 C   0  0  0  0  0  0
  -22.1662   -4.2140   21.0978 F   0  0  0  0  0  0
  -21.5628   -3.4536   25.7740 F   0  0  0  0  0  0
  -30.0061  -13.4532   20.4280 N   0  0  0  0  0  0
  -26.2975  -12.9341   20.3308 N   0  0  0  0  0  0
  -25.9315  -11.6500   20.5749 N   0  0  0  0  0  0
  -22.0485  -12.8232   22.0410 N   0  0  0  0  0  0
  -25.4278  -15.1881   20.4095 N   0  0  0  0  0  0
  -31.7563  -14.8703   20.1230 O   0  0  0  0  0  0
  -21.6639   -6.8871   21.4237 O   0  0  0  0  0  0
  -22.3539  -14.5543   20.6698 O   0  0  0  0  0  0
  -24.6285  -31.8571   23.2002 C   0  0  0  0  0  0
  -25.9121  -32.4763   23.8341 C   0  0  1  0  0  0
  -27.2243  -27.2926   20.1328 C   0  0  0  0  0  0
  -25.5929  -33.8562   24.2270 N   0  0  0  0  0  0
  -23.4237  -30.4789   21.5429 C   0  0  2  0  0  0
  -24.8724  -28.9282   20.1127 C   0  0  0  0  0  0
  -22.7487  -29.4603   22.4927 C   0  0  0  0  0  0
  -18.0287  -28.1378   22.8481 C   0  0  0  0  0  0
  -24.1490  -36.7286   23.2640 C   0  0  0  0  0  0
  -25.9663  -30.7804   21.3753 C   0  0  0  0  0  0
  -26.0418  -29.4045   20.7201 C   0  0  0  0  0  0
  -27.2225  -28.5996   20.7171 C   0  0  0  0  0  0
  -26.0371  -26.8780   19.4914 C   0  0  0  0  0  0
  -24.8734  -27.6713   19.4875 C   0  0  0  0  0  0
  -23.6410  -29.8115   20.1595 C   0  0  0  0  0  0
  -25.4114  -36.3072   24.0327 C   0  0  1  0  0  0
  -20.5889  -28.3685   23.1275 C   0  0  2  0  0  0
  -20.6781  -26.9404   22.5406 C   0  0  0  0  0  0
  -19.5756  -26.6379   21.5208 C   0  0  0  0  0  0
  -18.1934  -26.7922   22.1618 C   0  0  0  0  0  0
  -19.1539  -28.8850   23.2873 C   0  0  0  0  0  0
  -18.9464  -30.1453   23.8886 C   0  0  0  0  0  0
  -17.6464  -30.6584   24.0557 C   0  0  0  0  0  0
  -25.9053  -34.9442   23.5100 C   0  0  0  0  0  0
  -16.5356  -29.9079   23.6330 C   0  0  0  0  0  0
  -16.7273  -28.6497   23.0352 C   0  0  0  0  0  0
  -26.4502  -31.6575   25.0717 C   0  0  0  0  0  0
  -25.3734  -31.3720   26.1446 C   0  0  0  0  0  0
  -27.0343  -30.2993   24.6184 C   0  0  0  0  0  0
  -27.6063  -32.4308   25.7488 C   0  0  0  0  0  0
  -27.5577  -37.1797   24.8464 C   0  0  0  0  0  0
  -21.4199  -29.3035   22.3670 N   0  0  0  0  0  0
  -26.4291  -37.3769   23.9407 N   0  0  0  0  0  0
  -24.6916  -31.0563   22.0960 N   0  0  0  0  0  0
  -23.4198  -28.8146   23.3019 O   0  0  0  0  0  0
  -28.3312  -26.4232   20.1545 O   0  0  0  0  0  0
  -26.5621  -34.8912   22.4667 O   0  0  0  0  0  0
  -23.5443  -32.1379   23.7315 O   0  0  0  0  0  0
  -30.3226  -19.5437   21.1495 C   0  0  0  0  0  0
  -30.5236  -18.1308   21.2977 C   0  0  0  0  0  0
  -28.8122  -17.7652   19.6978 C   0  0  0  0  0  0
  -28.6280  -19.1800   19.5302 C   0  0  0  0  0  0
  -29.3708  -20.1734   20.2791 C   0  0  0  0  0  0
  -29.7617  -17.1839   20.5707 C   0  0  0  0  0  0
  -29.5811  -22.7561   21.0836 C   0  0  0  0  0  0
  -27.5996  -19.5563   18.5044 C   0  0  0  0  0  0
  -28.3049  -22.4736   19.4855 C   0  0  0  0  0  0
  -28.9927  -23.7873   20.0194 C   0  0  2  0  0  0
  -30.1396  -24.3680   19.1841 C   0  0  0  0  0  0
  -28.1194  -25.0080   20.6009 C   0  0  0  0  0  0
  -29.2742  -21.6675   20.2462 N   0  0  0  0  0  0
  -26.3577  -19.1738   18.7714 N   0  0  0  0  0  0
  -29.7468  -15.7333   20.8256 N   0  0  0  0  0  0
  -30.0663  -22.8013   22.1950 O   0  0  0  0  0  0
  -27.8968  -20.1342   17.4609 O   0  0  0  0  0  0
  -31.4834  -12.5660   19.1557 H   0  0  0  0  0  0
  -30.3944  -11.4344   19.9104 H   0  0  0  0  0  0
  -29.7853  -11.7605   17.4908 H   0  0  0  0  0  0
  -29.6423  -13.4826   17.7403 H   0  0  0  0  0  0
  -27.8841  -11.2872   18.8824 H   0  0  0  0  0  0
  -27.3795  -12.5554   17.7971 H   0  0  0  0  0  0
  -27.6614  -14.2485   19.5086 H   0  0  0  0  0  0
  -28.7210  -12.0722   21.3808 H   0  0  0  0  0  0
  -28.4316  -13.7243   21.8419 H   0  0  0  0  0  0
  -25.2749   -9.5686   22.4762 H   0  0  0  0  0  0
  -23.9993   -7.4631   22.7473 H   0  0  0  0  0  0
  -21.0826   -8.8770   19.8952 H   0  0  0  0  0  0
  -22.3682  -10.9670   19.6165 H   0  0  0  0  0  0
  -21.2009   -7.6143   23.9706 H   0  0  0  0  0  0
  -21.1478   -6.0522   25.9075 H   0  0  0  0  0  0
  -22.0600   -2.7602   23.2853 H   0  0  0  0  0  0
  -22.4090  -11.9892   22.4805 H   0  0  0  0  0  0
  -21.1105  -13.1265   22.2604 H   0  0  0  0  0  0
  -24.6583  -15.8406   20.5113 H   0  0  0  0  0  0
  -26.2698  -15.6200   20.0546 H   0  0  0  0  0  0
  -26.7184  -32.5425   23.1084 H   0  0  0  0  0  0
  -25.0086  -33.9703   25.0421 H   0  0  0  0  0  0
  -22.7186  -31.2997   21.3978 H   0  0  0  0  0  0
  -23.3751  -35.9621   23.3304 H   0  0  0  0  0  0
  -24.3585  -36.8905   22.2054 H   0  0  0  0  0  0
  -23.7248  -37.6489   23.6662 H   0  0  0  0  0  0
  -26.1008  -31.5418   20.6059 H   0  0  0  0  0  0
  -26.8456  -30.8302   22.0059 H   0  0  0  0  0  0
  -28.1202  -28.9613   21.1988 H   0  0  0  0  0  0
  -25.9983  -25.9206   18.9913 H   0  0  0  0  0  0
  -23.9798  -27.3038   19.0018 H   0  0  0  0  0  0
  -23.7621  -30.5869   19.4023 H   0  0  0  0  0  0
  -22.7609  -29.2418   19.8565 H   0  0  0  0  0  0
  -25.1294  -36.1924   25.0821 H   0  0  0  0  0  0
  -20.9974  -28.3260   24.1397 H   0  0  0  0  0  0
  -20.5677  -26.2289   23.3605 H   0  0  0  0  0  0
  -21.6650  -26.7436   22.1198 H   0  0  0  0  0  0
  -19.6920  -25.6289   21.1239 H   0  0  0  0  0  0
  -19.6696  -27.3184   20.6734 H   0  0  0  0  0  0
  -17.4203  -26.6662   21.4023 H   0  0  0  0  0  0
  -18.0340  -26.0065   22.9015 H   0  0  0  0  0  0
  -19.7941  -30.7272   24.2249 H   0  0  0  0  0  0
  -17.5019  -31.6265   24.5160 H   0  0  0  0  0  0
  -15.5355  -30.2979   23.7661 H   0  0  0  0  0  0
  -15.8671  -28.0812   22.7071 H   0  0  0  0  0  0
  -24.5898  -30.7083   25.7774 H   0  0  0  0  0  0
  -24.8944  -32.2889   26.4886 H   0  0  0  0  0  0
  -25.8060  -30.8880   27.0211 H   0  0  0  0  0  0
  -26.2914  -29.6737   24.1222 H   0  0  0  0  0  0
  -27.4048  -29.7261   25.4693 H   0  0  0  0  0  0
  -27.8785  -30.4273   23.9403 H   0  0  0  0  0  0
  -27.2678  -33.3612   26.2060 H   0  0  0  0  0  0
  -28.3878  -32.6857   25.0315 H   0  0  0  0  0  0
  -28.0725  -31.8430   26.5407 H   0  0  0  0  0  0
  -28.2597  -38.0091   24.7505 H   0  0  0  0  0  0
  -28.1069  -36.2622   24.6298 H   0  0  0  0  0  0
  -27.2293  -37.1456   25.8867 H   0  0  0  0  0  0
  -20.9381  -29.8749   21.6870 H   0  0  0  0  0  0
  -26.0171  -38.2845   24.1400 H   0  0  0  0  0  0
  -30.9407  -20.1818   21.7648 H   0  0  0  0  0  0
  -31.2469  -17.7827   22.0216 H   0  0  0  0  0  0
  -28.1862  -17.0982   19.1211 H   0  0  0  0  0  0
  -28.3808  -22.3855   18.4025 H   0  0  0  0  0  0
  -27.2761  -22.3405   19.8303 H   0  0  0  0  0  0
  -30.8107  -23.5933   18.8108 H   0  0  0  0  0  0
  -30.7424  -25.0654   19.7668 H   0  0  0  0  0  0
  -29.7595  -24.9092   18.3176 H   0  0  0  0  0  0
  -28.2651  -25.0463   21.6811 H   0  0  0  0  0  0
  -27.0696  -24.7365   20.5057 H   0  0  0  0  0  0
  -26.1513  -18.6954   19.6356 H   0  0  0  0  0  0
  -25.6135  -19.3652   18.1173 H   0  0  0  0  0  0
  -28.8347  -15.3796   21.0696 H   0  0  0  0  0  0
  1 25  1  0  0  0
  1 30  2  0  0  0
  1 85  1  0  0  0
  2  3  1  0  0  0
  2 25  1  0  0  0
  2 88  1  0  0  0
  2 89  1  0  0  0
  3  4  1  0  0  0
  3 90  1  0  0  0
  3 91  1  0  0  0
  4  5  1  0  0  0
  4 92  1  0  0  0
  4 93  1  0  0  0
  5  6  1  0  0  0
  5 26  1  0  0  0
  5 94  1  0  0  0
  6 25  1  0  0  0
  6 95  1  0  0  0
  6 96  1  0  0  0
  7  8  2  0  0  0
  7 26  1  0  0  0
  7 29  1  0  0  0
  8  9  1  0  0  0
  8 22  1  0  0  0
  9 10  1  0  0  0
  9 27  2  0  0  0
 10 11  2  0  0  0
 10 15  1  0  0  0
 11 12  1  0  0  0
 11 97  1  0  0  0
 12 13  2  0  0  0
 12 98  1  0  0  0
 13 14  1  0  0  0
 13 31  1  0  0  0
 14 15  2  0  0  0
 14 99  1  0  0  0
 15100  1  0  0  0
 16 17  2  0  0  0
 16 21  1  0  0  0
 16 31  1  0  0  0
 17 18  1  0  0  0
 17101  1  0  0  0
 18 19  2  0  0  0
 18102  1  0  0  0
 19 20  1  0  0  0
 19 24  1  0  0  0
 20 21  2  0  0  0
 20103  1  0  0  0
 21 23  1  0  0  0
 22 28  1  0  0  0
 22 32  2  0  0  0
 26 27  1  0  0  0
 28104  1  0  0  0
 28105  1  0  0  0
 29106  1  0  0  0
 29107  1  0  0  0
 33 34  1  0  0  0
 33 66  1  0  0  0
 33 70  2  0  0  0
 34 36  1  0  0  0
 34 59  1  0  0  0
 34108  1  0  0  0
 35 44  2  0  0  0
 35 45  1  0  0  0
 35 68  1  0  0  0
 36 56  1  0  0  0
 36109  1  0  0  0
 37 39  1  0  0  0
 37 47  1  0  0  0
 37 66  1  0  0  0
 37110  1  0  0  0
 38 43  2  0  0  0
 38 46  1  0  0  0
 38 47  1  0  0  0
 39 64  1  0  0  0
 39 67  2  0  0  0
 40 52  1  0  0  0
 40 53  2  0  0  0
 40 58  1  0  0  0
 41111  1  0  0  0
 41112  1  0  0  0
 41113  1  0  0  0
 41 48  1  0  0  0
 42 43  1  0  0  0
 42 66  1  0  0  0
 42114  1  0  0  0
 42115  1  0  0  0
 43 44  1  0  0  0
 44116  1  0  0  0
 45 46  2  0  0  0
 45117  1  0  0  0
 46118  1  0  0  0
 47119  1  0  0  0
 47120  1  0  0  0
 48 56  1  0  0  0
 48 65  1  0  0  0
 48121  1  0  0  0
 49 50  1  0  0  0
 49 53  1  0  0  0
 49 64  1  0  0  0
 49122  1  0  0  0
 50 51  1  0  0  0
 50123  1  0  0  0
 50124  1  0  0  0
 51 52  1  0  0  0
 51125  1  0  0  0
 51126  1  0  0  0
 52127  1  0  0  0
 52128  1  0  0  0
 53 54  1  0  0  0
 54 55  2  0  0  0
 54129  1  0  0  0
 55 57  1  0  0  0
 55130  1  0  0  0
 56 69  2  0  0  0
 57 58  2  0  0  0
 57131  1  0  0  0
 58132  1  0  0  0
 59 60  1  0  0  0
 59 61  1  0  0  0
 59 62  1  0  0  0
 60133  1  0  0  0
 60134  1  0  0  0
 60135  1  0  0  0
 61136  1  0  0  0
 61137  1  0  0  0
 61138  1  0  0  0
 62139  1  0  0  0
 62140  1  0  0  0
 62141  1  0  0  0
 63 65  1  0  0  0
 63142  1  0  0  0
 63143  1  0  0  0
 63144  1  0  0  0
 64145  1  0  0  0
 65146  1  0  0  0
 68 82  1  0  0  0
 71 72  2  0  0  0
 71 75  1  0  0  0
 71147  1  0  0  0
 72 76  1  0  0  0
 72148  1  0  0  0
 73 74  1  0  0  0
 73 76  2  0  0  0
 73149  1  0  0  0
 74 75  2  0  0  0
 74 78  1  0  0  0
 75 83  1  0  0  0
 76 85  1  0  0  0
 77 80  1  0  0  0
 77 83  1  0  0  0
 77 86  2  0  0  0
 78 84  1  0  0  0
 78 87  2  0  0  0
 79 80  1  0  0  0
 79 83  1  0  0  0
 79150  1  0  0  0
 79151  1  0  0  0
 80 81  1  0  0  0
 80 82  1  0  0  0
 81152  1  0  0  0
 81153  1  0  0  0
 81154  1  0  0  0
 82155  1  0  0  0
 82156  1  0  0  0
 84157  1  0  0  0
 84158  1  0  0  0
 85159  1  0  0  0
M  ISO  4   1 100  68 101  82 101  85 100
M  END
> <chiral flag>
0

> <version>
0

> <s_m_source_file>
/data/baiqing/PycharmProjects/Reinvent-master-3.2/result/LINK_invent/BTK/process_docking_weight1_custom_product_contain_oxygen_bond_distance_aromatic_linkinvent_7_9_3/rearranged_h_0077.sdf

> <i_m_source_file_index>
26

> <r_mmod_Potential_Energy-OPLS-2005>
69.6576080322266

> <r_mmod_Stretch_Energy-OPLS-2005>
103.724815368652

> <r_mmod_Bend_Energy-OPLS-2005>
193.762908935547

> <r_mmod_Torsional_Energy-OPLS-2005>
302.320404052734

> <r_mmod_Improper_Torsional_Energy-OPLS-2005>
7.31074714660645

> <r_mmod_Van_der_Waal_Energy-OPLS-2005>
138.214324951172

> <r_mmod_Electrostatic_Energy-OPLS-2005>
-477.606079101562

> <r_mmod_Solvation_Energy-OPLS-2005>
-262.979461669922

> <b_mmod_Minimization_Converged-OPLS-2005>
0

> <r_mmod_RMS_Derivative-OPLS-2005>
0.855023086071014

$$$$
26
                    3D
 Structure written by MMmdl.
168176  0  0  1  0            999 V2000
  -30.6669  -14.5144   20.5041 C   0  0  0  0  0  0
  -30.4321  -12.3058   19.4524 C   0  0  0  0  0  0
  -29.5151  -12.4779   18.2218 C   0  0  0  0  0  0
  -28.0310  -12.3474   18.6233 C   0  0  0  0  0  0
  -27.6633  -13.2048   19.8652 C   0  0  2  0  0  0
  -28.7015  -13.0173   20.9979 C   0  0  0  0  0  0
  -25.2635  -13.8163   20.5679 C   0  0  0  0  0  0
  -24.1857  -13.0471   20.9177 C   0  0  0  0  0  0
  -24.6396  -11.6926   20.8748 C   0  0  0  0  0  0
  -23.9058  -10.4317   21.0430 C   0  0  0  0  0  0
  -24.3614   -9.4237   21.9199 C   0  0  0  0  0  0
  -23.6306   -8.2261   22.0755 C   0  0  0  0  0  0
  -22.4284   -8.0290   21.3547 C   0  0  0  0  0  0
  -21.9916   -9.0271   20.4660 C   0  0  0  0  0  0
  -22.7239  -10.2155   20.3080 C   0  0  0  0  0  0
  -21.6847   -6.0751   22.5280 C   0  0  0  0  0  0
  -21.4011   -6.5650   23.8218 C   0  0  0  0  0  0
  -21.3653   -5.6791   24.9168 C   0  0  0  0  0  0
  -21.6045   -4.3058   24.7222 C   0  0  0  0  0  0
  -21.8813   -3.8156   23.4341 C   0  0  0  0  0  0
  -21.9196   -4.6979   22.3401 C   0  0  0  0  0  0
  -22.7877  -13.5302   21.1814 C   0  0  0  0  0  0
  -22.1671   -4.2176   21.0978 F   0  0  0  0  0  0
  -21.5638   -3.4537   25.7732 F   0  0  0  0  0  0
  -30.0318  -13.3135   20.4468 N   0  0  0  0  0  0
  -26.3041  -12.9322   20.3297 N   0  0  0  0  0  0
  -25.9325  -11.6496   20.5747 N   0  0  0  0  0  0
  -22.0470  -12.8321   22.0353 N   0  0  0  0  0  0
  -25.4445  -15.1862   20.4084 N   0  0  0  0  0  0
  -31.8250  -14.6773   20.1070 O   0  0  0  0  0  0
  -21.6645   -6.8887   21.4235 O   0  0  0  0  0  0
  -22.3597  -14.5608   20.6625 O   0  0  0  0  0  0
  -24.6228  -31.8681   23.2100 C   0  0  0  0  0  0
  -25.9106  -32.4819   23.8391 C   0  0  1  0  0  0
  -27.2173  -27.4078   20.0947 C   0  0  0  0  0  0
  -25.5953  -33.8610   24.2323 N   0  0  0  0  0  0
  -23.4078  -30.4935   21.5560 C   0  0  2  0  0  0
  -24.8480  -28.9588   20.1173 C   0  0  0  0  0  0
  -22.7433  -29.4663   22.5012 C   0  0  0  0  0  0
  -18.0264  -28.1388   22.8469 C   0  0  0  0  0  0
  -24.1476  -36.7318   23.2636 C   0  0  0  0  0  0
  -25.9395  -30.8253   21.3641 C   0  0  0  0  0  0
  -26.0128  -29.4574   20.7138 C   0  0  0  0  0  0
  -27.2040  -28.6894   20.6984 C   0  0  0  0  0  0
  -26.0402  -26.9433   19.4743 C   0  0  0  0  0  0
  -24.8567  -27.7010   19.4940 C   0  0  0  0  0  0
  -23.6146  -29.8345   20.1674 C   0  0  0  0  0  0
  -25.4097  -36.3111   24.0331 C   0  0  1  0  0  0
  -20.5859  -28.3680   23.1309 C   0  0  2  0  0  0
  -20.6750  -26.9414   22.5412 C   0  0  0  0  0  0
  -19.5726  -26.6392   21.5205 C   0  0  0  0  0  0
  -18.1906  -26.7928   22.1618 C   0  0  0  0  0  0
  -19.1522  -28.8851   23.2876 C   0  0  0  0  0  0
  -18.9457  -30.1448   23.8885 C   0  0  0  0  0  0
  -17.6463  -30.6588   24.0573 C   0  0  0  0  0  0
  -25.9039  -34.9474   23.5118 C   0  0  0  0  0  0
  -16.5352  -29.9089   23.6330 C   0  0  0  0  0  0
  -16.7259  -28.6523   23.0328 C   0  0  0  0  0  0
  -26.4522  -31.6590   25.0716 C   0  0  0  0  0  0
  -25.3811  -31.3691   26.1489 C   0  0  0  0  0  0
  -27.0333  -30.3033   24.6058 C   0  0  0  0  0  0
  -27.6090  -32.4332   25.7474 C   0  0  0  0  0  0
  -27.5564  -37.1800   24.8462 C   0  0  0  0  0  0
  -21.4168  -29.3062   22.3748 N   0  0  0  0  0  0
  -26.4268  -37.3814   23.9421 N   0  0  0  0  0  0
  -24.6759  -31.0755   22.1039 N   0  0  0  0  0  0
  -23.4199  -28.8212   23.3064 O   0  0  0  0  0  0
  -28.3525  -26.6176   20.1011 O   0  0  0  0  0  0
  -26.5598  -34.8938   22.4672 O   0  0  0  0  0  0
  -23.5411  -32.1449   23.7492 O   0  0  0  0  0  0
  -29.7310  -17.8786   17.8554 C   0  0  0  0  0  0
  -29.6844  -19.1445   18.4693 C   0  0  0  0  0  0
  -29.8162  -16.7123   18.6358 C   0  0  0  0  0  0
  -29.7317  -18.0670   20.6642 C   0  0  0  0  0  0
  -29.6838  -19.2627   19.8803 C   0  0  0  0  0  0
  -29.8317  -16.7864   20.0488 C   0  0  0  0  0  0
  -29.7155  -20.6202   20.4915 C   0  0  0  0  0  0
  -29.3576  -23.0451   20.0637 C   0  0  0  0  0  0
  -31.8642  -23.1466   19.9565 C   0  0  0  0  0  0
  -33.0390  -24.0271   20.3637 C   0  0  0  0  0  0
  -26.8631  -23.3209   19.7438 C   0  0  0  0  0  0
  -28.5455  -24.4842   18.2588 C   0  0  0  0  0  0
  -28.1969  -25.2947   20.6805 C   0  0  0  0  0  0
  -28.2363  -24.0453   19.7057 C   0  0  0  0  0  0
  -29.8905  -15.5756   20.8201 N   0  0  0  0  0  0
  -30.5662  -23.6289   20.3369 N   0  3  0  0  0  0
  -30.3846  -20.7912   21.6397 N   0  3  0  0  0  0
  -29.1100  -21.6923   19.9029 N   0  0  0  0  0  0
  -32.0063  -22.1223   19.2820 O   0  0  0  0  0  0
  -31.4827  -12.3951   19.1685 H   0  0  0  0  0  0
  -30.3288  -11.3064   19.8777 H   0  0  0  0  0  0
  -29.7677  -11.7343   17.4650 H   0  0  0  0  0  0
  -29.6882  -13.4507   17.7604 H   0  0  0  0  0  0
  -27.8372  -11.2936   18.8318 H   0  0  0  0  0  0
  -27.3897  -12.6112   17.7816 H   0  0  0  0  0  0
  -27.7009  -14.2456   19.5417 H   0  0  0  0  0  0
  -28.6794  -11.9947   21.3779 H   0  0  0  0  0  0
  -28.4681  -13.6517   21.8529 H   0  0  0  0  0  0
  -25.2775   -9.5728   22.4761 H   0  0  0  0  0  0
  -24.0042   -7.4657   22.7469 H   0  0  0  0  0  0
  -21.0851   -8.8777   19.8977 H   0  0  0  0  0  0
  -22.3704  -10.9677   19.6179 H   0  0  0  0  0  0
  -21.1983   -7.6157   23.9723 H   0  0  0  0  0  0
  -21.1485   -6.0522   25.9070 H   0  0  0  0  0  0
  -22.0600   -2.7633   23.2818 H   0  0  0  0  0  0
  -22.4050  -12.0023   22.4832 H   0  0  0  0  0  0
  -21.1072  -13.1375   22.2466 H   0  0  0  0  0  0
  -24.6841  -15.8503   20.5054 H   0  0  0  0  0  0
  -26.2995  -15.6119   20.0737 H   0  0  0  0  0  0
  -26.7181  -32.5531   23.1149 H   0  0  0  0  0  0
  -25.0123  -33.9767   25.0486 H   0  0  0  0  0  0
  -22.6989  -31.3135   21.4245 H   0  0  0  0  0  0
  -23.3735  -35.9654   23.3293 H   0  0  0  0  0  0
  -24.3582  -36.8954   22.2056 H   0  0  0  0  0  0
  -23.7224  -37.6508   23.6675 H   0  0  0  0  0  0
  -26.0462  -31.5880   20.5913 H   0  0  0  0  0  0
  -26.8316  -30.8856   21.9749 H   0  0  0  0  0  0
  -28.1044  -29.0663   21.1639 H   0  0  0  0  0  0
  -26.0275  -26.0010   18.9550 H   0  0  0  0  0  0
  -23.9670  -27.3137   19.0183 H   0  0  0  0  0  0
  -23.7340  -30.6186   19.4184 H   0  0  0  0  0  0
  -22.7331  -29.2682   19.8627 H   0  0  0  0  0  0
  -25.1265  -36.1964   25.0824 H   0  0  0  0  0  0
  -20.9913  -28.3234   24.1444 H   0  0  0  0  0  0
  -20.5641  -26.2292   23.3601 H   0  0  0  0  0  0
  -21.6627  -26.7447   22.1229 H   0  0  0  0  0  0
  -19.6890  -25.6308   21.1224 H   0  0  0  0  0  0
  -19.6657  -27.3210   20.6740 H   0  0  0  0  0  0
  -17.4178  -26.6673   21.4018 H   0  0  0  0  0  0
  -18.0301  -26.0067   22.9015 H   0  0  0  0  0  0
  -19.7941  -30.7259   24.2240 H   0  0  0  0  0  0
  -17.5034  -31.6260   24.5192 H   0  0  0  0  0  0
  -15.5351  -30.3014   23.7644 H   0  0  0  0  0  0
  -15.8656  -28.0859   22.7016 H   0  0  0  0  0  0
  -24.5974  -30.7034   25.7848 H   0  0  0  0  0  0
  -24.9016  -32.2843   26.4970 H   0  0  0  0  0  0
  -25.8209  -30.8851   27.0217 H   0  0  0  0  0  0
  -26.2823  -29.6786   24.1197 H   0  0  0  0  0  0
  -27.4204  -29.7279   25.4470 H   0  0  0  0  0  0
  -27.8630  -30.4335   23.9105 H   0  0  0  0  0  0
  -27.2677  -33.3627   26.2037 H   0  0  0  0  0  0
  -28.3888  -32.6905   25.0297 H   0  0  0  0  0  0
  -28.0765  -31.8480   26.5399 H   0  0  0  0  0  0
  -28.2590  -38.0090   24.7533 H   0  0  0  0  0  0
  -28.1048  -36.2630   24.6250 H   0  0  0  0  0  0
  -27.2306  -37.1420   25.8871 H   0  0  0  0  0  0
  -20.9338  -29.8813   21.6987 H   0  0  0  0  0  0
  -26.0149  -38.2877   24.1470 H   0  0  0  0  0  0
  -29.7233  -17.8021   16.7764 H   0  0  0  0  0  0
  -29.6736  -20.0178   17.8309 H   0  0  0  0  0  0
  -29.8652  -15.7604   18.1286 H   0  0  0  0  0  0
  -29.7281  -18.1302   21.7436 H   0  0  0  0  0  0
  -33.8137  -23.9893   19.5978 H   0  0  0  0  0  0
  -33.4625  -23.6813   21.3074 H   0  0  0  0  0  0
  -32.7345  -25.0681   20.4784 H   0  0  0  0  0  0
  -26.7751  -22.5352   18.9929 H   0  0  0  0  0  0
  -26.0320  -23.9957   19.5519 H   0  0  0  0  0  0
  -26.6722  -22.8845   20.7254 H   0  0  0  0  0  0
  -28.6314  -23.6203   17.6007 H   0  0  0  0  0  0
  -29.4888  -25.0281   18.1979 H   0  0  0  0  0  0
  -27.7684  -25.1283   17.8502 H   0  0  0  0  0  0
  -28.9748  -25.2096   21.4365 H   0  0  0  0  0  0
  -27.2878  -25.2584   21.2855 H   0  0  0  0  0  0
  -29.0554  -15.3535   21.3410 H   0  0  0  0  0  0
  -30.4861  -24.5487   20.7463 H   0  0  0  0  0  0
  -30.9217  -20.0258   22.0128 H   0  0  0  0  0  0
  -30.2308  -21.6001   22.2179 H   0  0  0  0  0  0
  -28.3231  -21.4378   19.3259 H   0  0  0  0  0  0
  1 25  1  0  0  0
  1 30  2  0  0  0
  1 85  1  0  0  0
  2  3  1  0  0  0
  2 25  1  0  0  0
  2 90  1  0  0  0
  2 91  1  0  0  0
  3  4  1  0  0  0
  3 92  1  0  0  0
  3 93  1  0  0  0
  4  5  1  0  0  0
  4 94  1  0  0  0
  4 95  1  0  0  0
  5  6  1  0  0  0
  5 26  1  0  0  0
  5 96  1  0  0  0
  6 25  1  0  0  0
  6 97  1  0  0  0
  6 98  1  0  0  0
  7  8  2  0  0  0
  7 26  1  0  0  0
  7 29  1  0  0  0
  8  9  1  0  0  0
  8 22  1  0  0  0
  9 10  1  0  0  0
  9 27  2  0  0  0
 10 11  2  0  0  0
 10 15  1  0  0  0
 11 12  1  0  0  0
 11 99  1  0  0  0
 12 13  2  0  0  0
 12100  1  0  0  0
 13 14  1  0  0  0
 13 31  1  0  0  0
 14 15  2  0  0  0
 14101  1  0  0  0
 15102  1  0  0  0
 16 17  2  0  0  0
 16 21  1  0  0  0
 16 31  1  0  0  0
 17 18  1  0  0  0
 17103  1  0  0  0
 18 19  2  0  0  0
 18104  1  0  0  0
 19 20  1  0  0  0
 19 24  1  0  0  0
 20 21  2  0  0  0
 20105  1  0  0  0
 21 23  1  0  0  0
 22 28  1  0  0  0
 22 32  2  0  0  0
 26 27  1  0  0  0
 28106  1  0  0  0
 28107  1  0  0  0
 29108  1  0  0  0
 29109  1  0  0  0
 33 34  1  0  0  0
 33 66  1  0  0  0
 33 70  2  0  0  0
 34 36  1  0  0  0
 34 59  1  0  0  0
 34110  1  0  0  0
 35 44  2  0  0  0
 35 45  1  0  0  0
 35 68  1  0  0  0
 36 56  1  0  0  0
 36111  1  0  0  0
 37 39  1  0  0  0
 37 47  1  0  0  0
 37 66  1  0  0  0
 37112  1  0  0  0
 38 43  2  0  0  0
 38 46  1  0  0  0
 38 47  1  0  0  0
 39 64  1  0  0  0
 39 67  2  0  0  0
 40 52  1  0  0  0
 40 53  2  0  0  0
 40 58  1  0  0  0
 41113  1  0  0  0
 41114  1  0  0  0
 41115  1  0  0  0
 41 48  1  0  0  0
 42 43  1  0  0  0
 42 66  1  0  0  0
 42116  1  0  0  0
 42117  1  0  0  0
 43 44  1  0  0  0
 44118  1  0  0  0
 45 46  2  0  0  0
 45119  1  0  0  0
 46120  1  0  0  0
 47121  1  0  0  0
 47122  1  0  0  0
 48 56  1  0  0  0
 48 65  1  0  0  0
 48123  1  0  0  0
 49 50  1  0  0  0
 49 53  1  0  0  0
 49 64  1  0  0  0
 49124  1  0  0  0
 50 51  1  0  0  0
 50125  1  0  0  0
 50126  1  0  0  0
 51 52  1  0  0  0
 51127  1  0  0  0
 51128  1  0  0  0
 52129  1  0  0  0
 52130  1  0  0  0
 53 54  1  0  0  0
 54 55  2  0  0  0
 54131  1  0  0  0
 55 57  1  0  0  0
 55132  1  0  0  0
 56 69  2  0  0  0
 57 58  2  0  0  0
 57133  1  0  0  0
 58134  1  0  0  0
 59 60  1  0  0  0
 59 61  1  0  0  0
 59 62  1  0  0  0
 60135  1  0  0  0
 60136  1  0  0  0
 60137  1  0  0  0
 61138  1  0  0  0
 61139  1  0  0  0
 61140  1  0  0  0
 62141  1  0  0  0
 62142  1  0  0  0
 62143  1  0  0  0
 63 65  1  0  0  0
 63144  1  0  0  0
 63145  1  0  0  0
 63146  1  0  0  0
 64147  1  0  0  0
 65148  1  0  0  0
 68 83  1  0  0  0
 71 72  2  0  0  0
 71 73  1  0  0  0
 71149  1  0  0  0
 72 75  1  0  0  0
 72150  1  0  0  0
 73 76  2  0  0  0
 73151  1  0  0  0
 74 75  2  0  0  0
 74 76  1  0  0  0
 74152  1  0  0  0
 75 77  1  0  0  0
 76 85  1  0  0  0
 77 87  2  0  0  0
 77 88  1  0  0  0
 78 84  1  0  0  0
 78 86  2  0  0  0
 78 88  1  0  0  0
 79 80  1  0  0  0
 79 86  1  0  0  0
 79 89  2  0  0  0
 80153  1  0  0  0
 80154  1  0  0  0
 80155  1  0  0  0
 81156  1  0  0  0
 81157  1  0  0  0
 81158  1  0  0  0
 81 84  1  0  0  0
 82 84  1  0  0  0
 82159  1  0  0  0
 82160  1  0  0  0
 82161  1  0  0  0
 83 84  1  0  0  0
 83162  1  0  0  0
 83163  1  0  0  0
 85164  1  0  0  0
 86165  1  0  0  0
 87166  1  0  0  0
 87167  1  0  0  0
 88168  1  0  0  0
M  CHG  2  86   1  87   1
M  ISO  4   1 100  68 101  83 101  85 100
M  END
> <chiral flag>
0

> <version>
0

> <s_m_source_file>
/data/baiqing/PycharmProjects/Reinvent-master-3.2/result/LINK_invent/BTK/process_docking_weight1_custom_product_contain_oxygen_bond_distance_aromatic_linkinvent_7_9_3/rearranged_h_0077.sdf

> <i_m_source_file_index>
27

> <r_mmod_Potential_Energy-OPLS-2005>
-379.679138183594

> <r_mmod_Stretch_Energy-OPLS-2005>
56.4981918334961

> <r_mmod_Bend_Energy-OPLS-2005>
126.179656982422

> <r_mmod_Torsional_Energy-OPLS-2005>
323.377014160156

> <r_mmod_Improper_Torsional_Energy-OPLS-2005>
9.85036563873291

> <r_mmod_Van_der_Waal_Energy-OPLS-2005>
164.062744140625

> <r_mmod_Electrostatic_Energy-OPLS-2005>
-75.1938781738281

> <r_mmod_Solvation_Energy-OPLS-2005>
-1005.12554931641

> <b_mmod_Minimization_Converged-OPLS-2005>
0

> <r_mmod_RMS_Derivative-OPLS-2005>
3.3329222202301

$$$$
27
                    3D
 Structure written by MMmdl.
159168  0  0  1  0            999 V2000
  -30.6492  -14.6661   20.5876 C   0  0  0  0  0  0
  -30.4351  -12.4362   19.4570 C   0  0  0  0  0  0
  -29.5075  -12.5351   18.2260 C   0  0  0  0  0  0
  -28.0324  -12.3549   18.6326 C   0  0  0  0  0  0
  -27.6501  -13.2232   19.8584 C   0  0  2  0  0  0
  -28.6870  -13.0782   20.9886 C   0  0  0  0  0  0
  -25.2544  -13.8184   20.5681 C   0  0  0  0  0  0
  -24.1816  -13.0439   20.9180 C   0  0  0  0  0  0
  -24.6395  -11.6913   20.8721 C   0  0  0  0  0  0
  -23.9067  -10.4295   21.0396 C   0  0  0  0  0  0
  -24.3620   -9.4213   21.9177 C   0  0  0  0  0  0
  -23.6296   -8.2248   22.0751 C   0  0  0  0  0  0
  -22.4276   -8.0284   21.3544 C   0  0  0  0  0  0
  -21.9910   -9.0255   20.4645 C   0  0  0  0  0  0
  -22.7238  -10.2134   20.3051 C   0  0  0  0  0  0
  -21.6853   -6.0740   22.5281 C   0  0  0  0  0  0
  -21.4013   -6.5642   23.8215 C   0  0  0  0  0  0
  -21.3661   -5.6795   24.9177 C   0  0  0  0  0  0
  -21.6044   -4.3058   24.7227 C   0  0  0  0  0  0
  -21.8818   -3.8150   23.4347 C   0  0  0  0  0  0
  -21.9192   -4.6967   22.3403 C   0  0  0  0  0  0
  -22.7841  -13.5226   21.1861 C   0  0  0  0  0  0
  -22.1660   -4.2152   21.0981 F   0  0  0  0  0  0
  -21.5630   -3.4541   25.7739 F   0  0  0  0  0  0
  -30.0059  -13.4518   20.4476 N   0  0  0  0  0  0
  -26.2966  -12.9375   20.3273 N   0  0  0  0  0  0
  -25.9320  -11.6521   20.5711 N   0  0  0  0  0  0
  -22.0492  -12.8213   22.0422 N   0  0  0  0  0  0
  -25.4264  -15.1909   20.4144 N   0  0  0  0  0  0
  -31.7363  -14.8575   20.0313 O   0  0  0  0  0  0
  -21.6639   -6.8881   21.4243 O   0  0  0  0  0  0
  -22.3519  -14.5534   20.6720 O   0  0  0  0  0  0
  -24.6297  -31.8567   23.1995 C   0  0  0  0  0  0
  -25.9132  -32.4761   23.8334 C   0  0  1  0  0  0
  -27.2262  -27.2867   20.1049 C   0  0  0  0  0  0
  -25.5933  -33.8562   24.2260 N   0  0  0  0  0  0
  -23.4244  -30.4803   21.5431 C   0  0  2  0  0  0
  -24.8693  -28.9311   20.1079 C   0  0  0  0  0  0
  -22.7490  -29.4613   22.4923 C   0  0  0  0  0  0
  -18.0291  -28.1393   22.8488 C   0  0  0  0  0  0
  -24.1487  -36.7281   23.2639 C   0  0  0  0  0  0
  -25.9686  -30.7758   21.3757 C   0  0  0  0  0  0
  -26.0396  -29.4013   20.7145 C   0  0  0  0  0  0
  -27.2153  -28.5892   20.7057 C   0  0  0  0  0  0
  -26.0217  -26.8708   19.4898 C   0  0  0  0  0  0
  -24.8642  -27.6725   19.4896 C   0  0  0  0  0  0
  -23.6394  -29.8151   20.1582 C   0  0  0  0  0  0
  -25.4115  -36.3072   24.0326 C   0  0  1  0  0  0
  -20.5893  -28.3698   23.1276 C   0  0  2  0  0  0
  -20.6777  -26.9419   22.5411 C   0  0  0  0  0  0
  -19.5752  -26.6391   21.5213 C   0  0  0  0  0  0
  -18.1933  -26.7936   22.1627 C   0  0  0  0  0  0
  -19.1544  -28.8863   23.2878 C   0  0  0  0  0  0
  -18.9465  -30.1463   23.8898 C   0  0  0  0  0  0
  -17.6464  -30.6592   24.0566 C   0  0  0  0  0  0
  -25.9055  -34.9442   23.5095 C   0  0  0  0  0  0
  -16.5355  -29.9090   23.6333 C   0  0  0  0  0  0
  -16.7277  -28.6508   23.0356 C   0  0  0  0  0  0
  -26.4501  -31.6585   25.0721 C   0  0  0  0  0  0
  -25.3725  -31.3736   26.1443 C   0  0  0  0  0  0
  -27.0346  -30.3002   24.6205 C   0  0  0  0  0  0
  -27.6056  -32.4325   25.7494 C   0  0  0  0  0  0
  -27.5580  -37.1796   24.8465 C   0  0  0  0  0  0
  -21.4199  -29.3044   22.3664 N   0  0  0  0  0  0
  -26.4290  -37.3772   23.9412 N   0  0  0  0  0  0
  -24.6933  -31.0551   22.0960 N   0  0  0  0  0  0
  -23.4200  -28.8156   23.3015 O   0  0  0  0  0  0
  -28.3556  -26.4430   20.1879 O   0  0  0  0  0  0
  -26.5628  -34.8917   22.4665 O   0  0  0  0  0  0
  -23.5453  -32.1381   23.7306 O   0  0  0  0  0  0
  -28.6743  -19.1910   21.8875 C   0  0  0  0  0  0
  -30.0179  -19.2886   19.9196 C   0  0  0  0  0  0
  -28.9279  -17.7954   21.9947 C   0  0  0  0  0  0
  -30.2763  -17.8703   20.0283 C   0  0  0  0  0  0
  -29.2383  -20.0154   20.8744 C   0  0  0  0  0  0
  -29.7689  -17.0716   21.1012 C   0  0  0  0  0  0
  -28.6457  -23.6638   21.6159 C   0  0  0  0  0  0
  -28.6947  -23.8138   20.2945 C   0  0  0  0  0  0
  -28.8692  -22.2706   21.9914 C   0  0  0  0  0  0
  -28.9859  -22.4152   19.6944 C   0  0  0  0  0  0
  -29.6970  -25.3650   18.5381 C   0  0  0  0  0  0
  -30.1345  -15.3071   22.8308 C   0  0  0  0  0  0
  -28.4956  -25.1449   19.4631 C   0  0  2  0  0  0
  -29.0228  -21.4949   20.8741 N   0  0  0  0  0  0
  -30.0781  -15.6400   21.3941 N   0  0  0  0  0  0
  -28.9304  -21.8702   23.1576 O   0  0  0  0  0  0
  -31.4753  -12.5674   19.1545 H   0  0  0  0  0  0
  -30.3827  -11.4385   19.8957 H   0  0  0  0  0  0
  -29.7841  -11.7869   17.4820 H   0  0  0  0  0  0
  -29.6384  -13.5065   17.7465 H   0  0  0  0  0  0
  -27.8782  -11.3004   18.8644 H   0  0  0  0  0  0
  -27.3772  -12.5804   17.7904 H   0  0  0  0  0  0
  -27.6698  -14.2612   19.5251 H   0  0  0  0  0  0
  -28.7109  -12.0530   21.3603 H   0  0  0  0  0  0
  -28.3806  -13.6875   21.8347 H   0  0  0  0  0  0
  -25.2767   -9.5691   22.4748 H   0  0  0  0  0  0
  -24.0009   -7.4638   22.7469 H   0  0  0  0  0  0
  -21.0842   -8.8773   19.8951 H   0  0  0  0  0  0
  -22.3697  -10.9672   19.6158 H   0  0  0  0  0  0
  -21.2003   -7.6150   23.9719 H   0  0  0  0  0  0
  -21.1483   -6.0525   25.9079 H   0  0  0  0  0  0
  -22.0595   -2.7612   23.2847 H   0  0  0  0  0  0
  -22.4111  -11.9867   22.4798 H   0  0  0  0  0  0
  -21.1112  -13.1234   22.2641 H   0  0  0  0  0  0
  -24.6665  -15.8507   20.5395 H   0  0  0  0  0  0
  -26.2916  -15.6326   20.1293 H   0  0  0  0  0  0
  -26.7197  -32.5414   23.1074 H   0  0  0  0  0  0
  -25.0075  -33.9700   25.0403 H   0  0  0  0  0  0
  -22.7200  -31.3025   21.3992 H   0  0  0  0  0  0
  -23.3751  -35.9612   23.3301 H   0  0  0  0  0  0
  -24.3576  -36.8904   22.2054 H   0  0  0  0  0  0
  -23.7239  -37.6481   23.6660 H   0  0  0  0  0  0
  -26.1075  -31.5393   20.6092 H   0  0  0  0  0  0
  -26.8463  -30.8213   22.0089 H   0  0  0  0  0  0
  -28.1122  -28.9454   21.1931 H   0  0  0  0  0  0
  -25.9126  -25.9029   19.0307 H   0  0  0  0  0  0
  -23.9627  -27.3013   19.0214 H   0  0  0  0  0  0
  -23.7613  -30.5914   19.4020 H   0  0  0  0  0  0
  -22.7581  -29.2469   19.8553 H   0  0  0  0  0  0
  -25.1297  -36.1917   25.0818 H   0  0  0  0  0  0
  -20.9990  -28.3277   24.1396 H   0  0  0  0  0  0
  -20.5678  -26.2310   23.3615 H   0  0  0  0  0  0
  -21.6645  -26.7446   22.1206 H   0  0  0  0  0  0
  -19.6909  -25.6301   21.1247 H   0  0  0  0  0  0
  -19.6686  -27.3198   20.6740 H   0  0  0  0  0  0
  -17.4202  -26.6686   21.4031 H   0  0  0  0  0  0
  -18.0331  -26.0081   22.9027 H   0  0  0  0  0  0
  -19.7939  -30.7281   24.2270 H   0  0  0  0  0  0
  -17.5017  -31.6273   24.5168 H   0  0  0  0  0  0
  -15.5356  -30.2992   23.7655 H   0  0  0  0  0  0
  -15.8677  -28.0824   22.7075 H   0  0  0  0  0  0
  -24.5905  -30.7078   25.7773 H   0  0  0  0  0  0
  -24.8909  -32.2907   26.4848 H   0  0  0  0  0  0
  -25.8045  -30.8931   27.0230 H   0  0  0  0  0  0
  -26.2928  -29.6752   24.1219 H   0  0  0  0  0  0
  -27.4015  -29.7265   25.4726 H   0  0  0  0  0  0
  -27.8809  -30.4275   23.9451 H   0  0  0  0  0  0
  -27.2663  -33.3625   26.2067 H   0  0  0  0  0  0
  -28.3868  -32.6889   25.0324 H   0  0  0  0  0  0
  -28.0722  -31.8455   26.5417 H   0  0  0  0  0  0
  -28.2595  -38.0095   24.7521 H   0  0  0  0  0  0
  -28.1079  -36.2629   24.6278 H   0  0  0  0  0  0
  -27.2301  -37.1431   25.8868 H   0  0  0  0  0  0
  -20.9383  -29.8763   21.6867 H   0  0  0  0  0  0
  -26.0166  -38.2844   24.1419 H   0  0  0  0  0  0
  -28.0279  -19.6253   22.6361 H   0  0  0  0  0  0
  -30.4727  -19.8302   19.1021 H   0  0  0  0  0  0
  -28.4568  -17.2876   22.8226 H   0  0  0  0  0  0
  -30.9196  -17.4114   19.2910 H   0  0  0  0  0  0
  -28.4593  -24.4614   22.3192 H   0  0  0  0  0  0
  -29.9417  -22.4086   19.1698 H   0  0  0  0  0  0
  -28.1981  -22.1209   19.0005 H   0  0  0  0  0  0
  -29.8569  -24.5116   17.8790 H   0  0  0  0  0  0
  -30.6109  -25.5230   19.1111 H   0  0  0  0  0  0
  -29.5451  -26.2396   17.9053 H   0  0  0  0  0  0
  -29.1367  -15.2366   23.2631 H   0  0  0  0  0  0
  -30.6812  -16.0773   23.3769 H   0  0  0  0  0  0
  -30.6404  -14.3628   23.0470 H   0  0  0  0  0  0
  -27.6582  -24.9449   18.8033 H   0  0  0  0  0  0
  1 25  1  0  0  0
  1 30  2  0  0  0
  1 85  1  0  0  0
  2  3  1  0  0  0
  2 25  1  0  0  0
  2 87  1  0  0  0
  2 88  1  0  0  0
  3  4  1  0  0  0
  3 89  1  0  0  0
  3 90  1  0  0  0
  4  5  1  0  0  0
  4 91  1  0  0  0
  4 92  1  0  0  0
  5  6  1  0  0  0
  5 26  1  0  0  0
  5 93  1  0  0  0
  6 25  1  0  0  0
  6 94  1  0  0  0
  6 95  1  0  0  0
  7  8  2  0  0  0
  7 26  1  0  0  0
  7 29  1  0  0  0
  8  9  1  0  0  0
  8 22  1  0  0  0
  9 10  1  0  0  0
  9 27  2  0  0  0
 10 11  2  0  0  0
 10 15  1  0  0  0
 11 12  1  0  0  0
 11 96  1  0  0  0
 12 13  2  0  0  0
 12 97  1  0  0  0
 13 14  1  0  0  0
 13 31  1  0  0  0
 14 15  2  0  0  0
 14 98  1  0  0  0
 15 99  1  0  0  0
 16 17  2  0  0  0
 16 21  1  0  0  0
 16 31  1  0  0  0
 17 18  1  0  0  0
 17100  1  0  0  0
 18 19  2  0  0  0
 18101  1  0  0  0
 19 20  1  0  0  0
 19 24  1  0  0  0
 20 21  2  0  0  0
 20102  1  0  0  0
 21 23  1  0  0  0
 22 28  1  0  0  0
 22 32  2  0  0  0
 26 27  1  0  0  0
 28103  1  0  0  0
 28104  1  0  0  0
 29105  1  0  0  0
 29106  1  0  0  0
 33 34  1  0  0  0
 33 66  1  0  0  0
 33 70  2  0  0  0
 34 36  1  0  0  0
 34 59  1  0  0  0
 34107  1  0  0  0
 35 44  2  0  0  0
 35 45  1  0  0  0
 35 68  1  0  0  0
 36 56  1  0  0  0
 36108  1  0  0  0
 37 39  1  0  0  0
 37 47  1  0  0  0
 37 66  1  0  0  0
 37109  1  0  0  0
 38 43  2  0  0  0
 38 46  1  0  0  0
 38 47  1  0  0  0
 39 64  1  0  0  0
 39 67  2  0  0  0
 40 52  1  0  0  0
 40 53  2  0  0  0
 40 58  1  0  0  0
 41110  1  0  0  0
 41111  1  0  0  0
 41112  1  0  0  0
 41 48  1  0  0  0
 42 43  1  0  0  0
 42 66  1  0  0  0
 42113  1  0  0  0
 42114  1  0  0  0
 43 44  1  0  0  0
 44115  1  0  0  0
 45 46  2  0  0  0
 45116  1  0  0  0
 46117  1  0  0  0
 47118  1  0  0  0
 47119  1  0  0  0
 48 56  1  0  0  0
 48 65  1  0  0  0
 48120  1  0  0  0
 49 50  1  0  0  0
 49 53  1  0  0  0
 49 64  1  0  0  0
 49121  1  0  0  0
 50 51  1  0  0  0
 50122  1  0  0  0
 50123  1  0  0  0
 51 52  1  0  0  0
 51124  1  0  0  0
 51125  1  0  0  0
 52126  1  0  0  0
 52127  1  0  0  0
 53 54  1  0  0  0
 54 55  2  0  0  0
 54128  1  0  0  0
 55 57  1  0  0  0
 55129  1  0  0  0
 56 69  2  0  0  0
 57 58  2  0  0  0
 57130  1  0  0  0
 58131  1  0  0  0
 59 60  1  0  0  0
 59 61  1  0  0  0
 59 62  1  0  0  0
 60132  1  0  0  0
 60133  1  0  0  0
 60134  1  0  0  0
 61135  1  0  0  0
 61136  1  0  0  0
 61137  1  0  0  0
 62138  1  0  0  0
 62139  1  0  0  0
 62140  1  0  0  0
 63 65  1  0  0  0
 63141  1  0  0  0
 63142  1  0  0  0
 63143  1  0  0  0
 64144  1  0  0  0
 65145  1  0  0  0
 68 83  1  0  0  0
 71 73  2  0  0  0
 71 75  1  0  0  0
 71146  1  0  0  0
 72 74  1  0  0  0
 72 75  2  0  0  0
 72147  1  0  0  0
 73 76  1  0  0  0
 73148  1  0  0  0
 74 76  2  0  0  0
 74149  1  0  0  0
 75 84  1  0  0  0
 76 85  1  0  0  0
 77 78  2  0  0  0
 77 79  1  0  0  0
 77150  1  0  0  0
 78 80  1  0  0  0
 78 83  1  0  0  0
 79 84  1  0  0  0
 79 86  2  0  0  0
 80 84  1  0  0  0
 80151  1  0  0  0
 80152  1  0  0  0
 81153  1  0  0  0
 81154  1  0  0  0
 81155  1  0  0  0
 81 83  1  0  0  0
 82 85  1  0  0  0
 82156  1  0  0  0
 82157  1  0  0  0
 82158  1  0  0  0
 83159  1  0  0  0
M  ISO  4   1 100  68 101  83 101  85 100
M  END
> <chiral flag>
0

> <version>
0

> <s_m_source_file>
/data/baiqing/PycharmProjects/Reinvent-master-3.2/result/LINK_invent/BTK/process_docking_weight1_custom_product_contain_oxygen_bond_distance_aromatic_linkinvent_7_9_3/rearranged_h_0077.sdf

> <i_m_source_file_index>
28

> <r_mmod_Potential_Energy-OPLS-2005>
341.863403320312

> <r_mmod_Stretch_Energy-OPLS-2005>
109.195755004883

> <r_mmod_Bend_Energy-OPLS-2005>
218.82502746582

> <r_mmod_Torsional_Energy-OPLS-2005>
312.438201904297

> <r_mmod_Improper_Torsional_Energy-OPLS-2005>
2.937579870224

> <r_mmod_Van_der_Waal_Energy-OPLS-2005>
149.558395385742

> <r_mmod_Electrostatic_Energy-OPLS-2005>
-310.890197753906

> <r_mmod_Solvation_Energy-OPLS-2005>
-198.735717773438

> <b_mmod_Minimization_Converged-OPLS-2005>
0

> <r_mmod_RMS_Derivative-OPLS-2005>
0.431010484695435

$$$$
28
                    3D
 Structure written by MMmdl.
161170  0  0  1  0            999 V2000
  -30.6993  -14.5370   20.4643 C   0  0  0  0  0  0
  -30.4149  -12.3205   19.4485 C   0  0  0  0  0  0
  -29.5026  -12.4757   18.2151 C   0  0  0  0  0  0
  -28.0209  -12.3541   18.6211 C   0  0  0  0  0  0
  -27.6514  -13.2209   19.8568 C   0  0  2  0  0  0
  -28.6969  -13.0859   20.9857 C   0  0  0  0  0  0
  -25.2546  -13.8180   20.5708 C   0  0  0  0  0  0
  -24.1814  -13.0439   20.9210 C   0  0  0  0  0  0
  -24.6398  -11.6910   20.8740 C   0  0  0  0  0  0
  -23.9070  -10.4289   21.0413 C   0  0  0  0  0  0
  -24.3628   -9.4209   21.9187 C   0  0  0  0  0  0
  -23.6304   -8.2242   22.0752 C   0  0  0  0  0  0
  -22.4279   -8.0294   21.3549 C   0  0  0  0  0  0
  -21.9911   -9.0264   20.4652 C   0  0  0  0  0  0
  -22.7245  -10.2140   20.3067 C   0  0  0  0  0  0
  -21.6853   -6.0751   22.5288 C   0  0  0  0  0  0
  -21.4019   -6.5654   23.8229 C   0  0  0  0  0  0
  -21.3653   -5.6802   24.9188 C   0  0  0  0  0  0
  -21.6043   -4.3066   24.7233 C   0  0  0  0  0  0
  -21.8813   -3.8156   23.4353 C   0  0  0  0  0  0
  -21.9192   -4.6975   22.3412 C   0  0  0  0  0  0
  -22.7833  -13.5228   21.1857 C   0  0  0  0  0  0
  -22.1664   -4.2165   21.0982 F   0  0  0  0  0  0
  -21.5617   -3.4551   25.7741 F   0  0  0  0  0  0
  -30.0183  -13.3606   20.4109 N   0  0  0  0  0  0
  -26.2984  -12.9383   20.3310 N   0  0  0  0  0  0
  -25.9329  -11.6527   20.5744 N   0  0  0  0  0  0
  -22.0461  -12.8234   22.0403 N   0  0  0  0  0  0
  -25.4196  -15.1910   20.4125 N   0  0  0  0  0  0
  -31.8990  -14.6047   20.1918 O   0  0  0  0  0  0
  -21.6642   -6.8898   21.4248 O   0  0  0  0  0  0
  -22.3509  -14.5527   20.6688 O   0  0  0  0  0  0
  -24.6145  -31.8674   23.2109 C   0  0  0  0  0  0
  -25.9045  -32.4816   23.8385 C   0  0  1  0  0  0
  -27.2250  -27.4269   20.1114 C   0  0  0  0  0  0
  -25.5910  -33.8608   24.2331 N   0  0  0  0  0  0
  -23.4022  -30.4912   21.5512 C   0  0  2  0  0  0
  -24.8506  -28.9574   20.1144 C   0  0  0  0  0  0
  -22.7401  -29.4647   22.4994 C   0  0  0  0  0  0
  -18.0277  -28.1357   22.8485 C   0  0  0  0  0  0
  -24.1493  -36.7305   23.2624 C   0  0  0  0  0  0
  -25.9309  -30.8346   21.3627 C   0  0  0  0  0  0
  -26.0107  -29.4667   20.7142 C   0  0  0  0  0  0
  -27.2053  -28.7079   20.7120 C   0  0  0  0  0  0
  -26.0541  -26.9351   19.5020 C   0  0  0  0  0  0
  -24.8675  -27.6913   19.5042 C   0  0  0  0  0  0
  -23.6112  -29.8234   20.1646 C   0  0  0  0  0  0
  -25.4104  -36.3099   24.0338 C   0  0  1  0  0  0
  -20.5863  -28.3638   23.1320 C   0  0  2  0  0  0
  -20.6761  -26.9378   22.5407 C   0  0  0  0  0  0
  -19.5741  -26.6384   21.5188 C   0  0  0  0  0  0
  -18.1924  -26.7907   22.1605 C   0  0  0  0  0  0
  -19.1524  -28.8820   23.2907 C   0  0  0  0  0  0
  -18.9445  -30.1425   23.8909 C   0  0  0  0  0  0
  -17.6444  -30.6555   24.0561 C   0  0  0  0  0  0
  -25.9037  -34.9463   23.5128 C   0  0  0  0  0  0
  -16.5345  -29.9055   23.6314 C   0  0  0  0  0  0
  -16.7263  -28.6479   23.0338 C   0  0  0  0  0  0
  -26.4476  -31.6578   25.0703 C   0  0  0  0  0  0
  -25.3765  -31.3716   26.1475 C   0  0  0  0  0  0
  -27.0259  -30.3007   24.6052 C   0  0  0  0  0  0
  -27.6085  -32.4268   25.7442 C   0  0  0  0  0  0
  -27.5599  -37.1796   24.8444 C   0  0  0  0  0  0
  -21.4128  -29.3017   22.3737 N   0  0  0  0  0  0
  -26.4284  -37.3795   23.9423 N   0  0  0  0  0  0
  -24.6674  -31.0787   22.1000 N   0  0  0  0  0  0
  -23.4166  -28.8181   23.3041 O   0  0  0  0  0  0
  -28.3464  -26.6316   20.1051 O   0  0  0  0  0  0
  -26.5585  -34.8915   22.4685 O   0  0  0  0  0  0
  -23.5345  -32.1418   23.7509 O   0  0  0  0  0  0
  -28.7921  -18.9194   19.5548 C   0  0  0  0  0  0
  -28.3521  -20.2443   19.7757 C   0  0  0  0  0  0
  -29.6344  -20.3331   21.7855 C   0  0  0  0  0  0
  -29.7244  -18.2876   20.4155 C   0  0  0  0  0  0
  -28.7914  -21.0185   20.8743 C   0  0  0  0  0  0
  -30.1054  -19.0031   21.5853 C   0  0  0  0  0  0
  -28.4688  -24.3887   21.0328 C   0  0  0  0  0  0
  -28.6242  -23.3688   22.0361 C   0  0  0  0  0  0
  -28.4461  -25.7380   21.1492 C   0  0  0  0  0  0
  -28.3820  -23.3417   19.9368 C   0  0  0  0  0  0
  -30.5885  -16.9099   18.4274 C   0  0  0  0  0  0
  -31.3677  -19.0843   23.7420 C   0  0  0  0  0  0
  -30.4449  -16.9770   19.9696 C   0  0  2  0  0  0
  -28.4002  -22.3886   21.0648 N   0  0  0  0  0  0
  -30.9742  -18.4021   22.5137 N   0  0  0  0  0  0
  -29.9558  -15.6733   20.4990 N   0  0  0  0  0  0
  -28.9619  -23.4202   23.2022 O   0  0  0  0  0  0
  -31.4631  -12.3968   19.1555 H   0  0  0  0  0  0
  -30.3003  -11.3318   19.8951 H   0  0  0  0  0  0
  -29.7458  -11.7155   17.4718 H   0  0  0  0  0  0
  -29.6828  -13.4397   17.7359 H   0  0  0  0  0  0
  -27.8316  -11.3019   18.8352 H   0  0  0  0  0  0
  -27.3805  -12.6133   17.7774 H   0  0  0  0  0  0
  -27.6666  -14.2567   19.5189 H   0  0  0  0  0  0
  -28.6784  -12.0830   21.4135 H   0  0  0  0  0  0
  -28.4737  -13.7713   21.8041 H   0  0  0  0  0  0
  -25.2781   -9.5687   22.4758 H   0  0  0  0  0  0
  -24.0037   -7.4626   22.7453 H   0  0  0  0  0  0
  -21.0849   -8.8776   19.8949 H   0  0  0  0  0  0
  -22.3711  -10.9677   19.6175 H   0  0  0  0  0  0
  -21.2021   -7.6170   23.9733 H   0  0  0  0  0  0
  -21.1468   -6.0539   25.9090 H   0  0  0  0  0  0
  -22.0590   -2.7617   23.2854 H   0  0  0  0  0  0
  -22.4073  -11.9944   22.4891 H   0  0  0  0  0  0
  -21.1055  -13.1235   22.2512 H   0  0  0  0  0  0
  -24.6499  -15.8413   20.5344 H   0  0  0  0  0  0
  -26.2620  -15.6403   20.0772 H   0  0  0  0  0  0
  -26.7124  -32.5525   23.1156 H   0  0  0  0  0  0
  -25.0110  -33.9760   25.0514 H   0  0  0  0  0  0
  -22.6890  -31.3070   21.4132 H   0  0  0  0  0  0
  -23.3763  -35.9625   23.3242 H   0  0  0  0  0  0
  -24.3628  -36.8954   22.2051 H   0  0  0  0  0  0
  -23.7219  -37.6489   23.6661 H   0  0  0  0  0  0
  -26.0412  -31.6004   20.5931 H   0  0  0  0  0  0
  -26.8186  -30.8907   21.9810 H   0  0  0  0  0  0
  -28.1024  -29.0928   21.1761 H   0  0  0  0  0  0
  -26.0642  -25.9598   19.0354 H   0  0  0  0  0  0
  -23.9757  -27.2942   19.0383 H   0  0  0  0  0  0
  -23.7146  -30.5972   19.4031 H   0  0  0  0  0  0
  -22.7347  -29.2414   19.8729 H   0  0  0  0  0  0
  -25.1280  -36.1956   25.0827 H   0  0  0  0  0  0
  -20.9953  -28.3195   24.1441 H   0  0  0  0  0  0
  -20.5639  -26.2233   23.3583 H   0  0  0  0  0  0
  -21.6639  -26.7410   22.1218 H   0  0  0  0  0  0
  -19.6896  -25.6297   21.1196 H   0  0  0  0  0  0
  -19.6676  -27.3211   20.6739 H   0  0  0  0  0  0
  -17.4188  -26.6647   21.4019 H   0  0  0  0  0  0
  -18.0339  -26.0041   22.8995 H   0  0  0  0  0  0
  -19.7918  -30.7256   24.2273 H   0  0  0  0  0  0
  -17.4990  -31.6233   24.5154 H   0  0  0  0  0  0
  -15.5344  -30.2957   23.7627 H   0  0  0  0  0  0
  -15.8661  -28.0801   22.7037 H   0  0  0  0  0  0
  -24.5876  -30.7125   25.7836 H   0  0  0  0  0  0
  -24.9035  -32.2888   26.4988 H   0  0  0  0  0  0
  -25.8121  -30.8819   27.0192 H   0  0  0  0  0  0
  -26.2758  -29.6800   24.1126 H   0  0  0  0  0  0
  -27.4045  -29.7220   25.4492 H   0  0  0  0  0  0
  -27.8607  -30.4316   23.9164 H   0  0  0  0  0  0
  -27.2755  -33.3594   26.2007 H   0  0  0  0  0  0
  -28.3894  -32.6759   25.0250 H   0  0  0  0  0  0
  -28.0726  -31.8369   26.5358 H   0  0  0  0  0  0
  -28.2570  -38.0144   24.7584 H   0  0  0  0  0  0
  -28.1148  -36.2688   24.6143 H   0  0  0  0  0  0
  -27.2344  -37.1294   25.8850 H   0  0  0  0  0  0
  -20.9262  -29.8767   21.7002 H   0  0  0  0  0  0
  -26.0168  -38.2858   24.1466 H   0  0  0  0  0  0
  -28.4447  -18.4221   18.6617 H   0  0  0  0  0  0
  -27.6728  -20.6836   19.0573 H   0  0  0  0  0  0
  -29.9549  -20.8844   22.6559 H   0  0  0  0  0  0
  -28.5318  -26.2395   22.1045 H   0  0  0  0  0  0
  -29.2498  -23.2349   19.2844 H   0  0  0  0  0  0
  -27.4566  -23.2865   19.3641 H   0  0  0  0  0  0
  -31.0010  -17.8400   18.0321 H   0  0  0  0  0  0
  -29.6357  -16.7277   17.9320 H   0  0  0  0  0  0
  -31.2663  -16.1174   18.1117 H   0  0  0  0  0  0
  -31.9941  -18.4311   24.3523 H   0  0  0  0  0  0
  -30.4975  -19.3612   24.3406 H   0  0  0  0  0  0
  -31.9421  -19.9878   23.5272 H   0  0  0  0  0  0
  -31.4665  -17.0947   20.3343 H   0  0  0  0  0  0
  -31.1786  -17.4095   22.4310 H   0  0  0  0  0  0
  -28.9700  -15.5824   20.6843 H   0  0  0  0  0  0
  1 25  1  0  0  0
  1 30  2  0  0  0
  1 86  1  0  0  0
  2  3  1  0  0  0
  2 25  1  0  0  0
  2 88  1  0  0  0
  2 89  1  0  0  0
  3  4  1  0  0  0
  3 90  1  0  0  0
  3 91  1  0  0  0
  4  5  1  0  0  0
  4 92  1  0  0  0
  4 93  1  0  0  0
  5  6  1  0  0  0
  5 26  1  0  0  0
  5 94  1  0  0  0
  6 25  1  0  0  0
  6 95  1  0  0  0
  6 96  1  0  0  0
  7  8  2  0  0  0
  7 26  1  0  0  0
  7 29  1  0  0  0
  8  9  1  0  0  0
  8 22  1  0  0  0
  9 10  1  0  0  0
  9 27  2  0  0  0
 10 11  2  0  0  0
 10 15  1  0  0  0
 11 12  1  0  0  0
 11 97  1  0  0  0
 12 13  2  0  0  0
 12 98  1  0  0  0
 13 14  1  0  0  0
 13 31  1  0  0  0
 14 15  2  0  0  0
 14 99  1  0  0  0
 15100  1  0  0  0
 16 17  2  0  0  0
 16 21  1  0  0  0
 16 31  1  0  0  0
 17 18  1  0  0  0
 17101  1  0  0  0
 18 19  2  0  0  0
 18102  1  0  0  0
 19 20  1  0  0  0
 19 24  1  0  0  0
 20 21  2  0  0  0
 20103  1  0  0  0
 21 23  1  0  0  0
 22 28  1  0  0  0
 22 32  2  0  0  0
 26 27  1  0  0  0
 28104  1  0  0  0
 28105  1  0  0  0
 29106  1  0  0  0
 29107  1  0  0  0
 33 34  1  0  0  0
 33 66  1  0  0  0
 33 70  2  0  0  0
 34 36  1  0  0  0
 34 59  1  0  0  0
 34108  1  0  0  0
 35 44  2  0  0  0
 35 45  1  0  0  0
 35 68  1  0  0  0
 36 56  1  0  0  0
 36109  1  0  0  0
 37 39  1  0  0  0
 37 47  1  0  0  0
 37 66  1  0  0  0
 37110  1  0  0  0
 38 43  2  0  0  0
 38 46  1  0  0  0
 38 47  1  0  0  0
 39 64  1  0  0  0
 39 67  2  0  0  0
 40 52  1  0  0  0
 40 53  2  0  0  0
 40 58  1  0  0  0
 41111  1  0  0  0
 41112  1  0  0  0
 41113  1  0  0  0
 41 48  1  0  0  0
 42 43  1  0  0  0
 42 66  1  0  0  0
 42114  1  0  0  0
 42115  1  0  0  0
 43 44  1  0  0  0
 44116  1  0  0  0
 45 46  2  0  0  0
 45117  1  0  0  0
 46118  1  0  0  0
 47119  1  0  0  0
 47120  1  0  0  0
 48 56  1  0  0  0
 48 65  1  0  0  0
 48121  1  0  0  0
 49 50  1  0  0  0
 49 53  1  0  0  0
 49 64  1  0  0  0
 49122  1  0  0  0
 50 51  1  0  0  0
 50123  1  0  0  0
 50124  1  0  0  0
 51 52  1  0  0  0
 51125  1  0  0  0
 51126  1  0  0  0
 52127  1  0  0  0
 52128  1  0  0  0
 53 54  1  0  0  0
 54 55  2  0  0  0
 54129  1  0  0  0
 55 57  1  0  0  0
 55130  1  0  0  0
 56 69  2  0  0  0
 57 58  2  0  0  0
 57131  1  0  0  0
 58132  1  0  0  0
 59 60  1  0  0  0
 59 61  1  0  0  0
 59 62  1  0  0  0
 60133  1  0  0  0
 60134  1  0  0  0
 60135  1  0  0  0
 61136  1  0  0  0
 61137  1  0  0  0
 61138  1  0  0  0
 62139  1  0  0  0
 62140  1  0  0  0
 62141  1  0  0  0
 63 65  1  0  0  0
 63142  1  0  0  0
 63143  1  0  0  0
 63144  1  0  0  0
 64145  1  0  0  0
 65146  1  0  0  0
 68 79  1  0  0  0
 71 72  2  0  0  0
 71 74  1  0  0  0
 71147  1  0  0  0
 72 75  1  0  0  0
 72148  1  0  0  0
 73 75  2  0  0  0
 73 76  1  0  0  0
 73149  1  0  0  0
 74 76  2  0  0  0
 74 83  1  0  0  0
 75 84  1  0  0  0
 76 85  1  0  0  0
 77 78  1  0  0  0
 77 79  2  0  0  0
 77 80  1  0  0  0
 78 84  1  0  0  0
 78 87  2  0  0  0
 79150  1  0  0  0
 80 84  1  0  0  0
 80151  1  0  0  0
 80152  1  0  0  0
 81153  1  0  0  0
 81154  1  0  0  0
 81155  1  0  0  0
 81 83  1  0  0  0
 82 85  1  0  0  0
 82156  1  0  0  0
 82157  1  0  0  0
 82158  1  0  0  0
 83 86  1  0  0  0
 83159  1  0  0  0
 85160  1  0  0  0
 86161  1  0  0  0
M  ISO  4   1 100  68 101  79 101  86 100
M  END
> <chiral flag>
0

> <version>
0

> <s_m_source_file>
/data/baiqing/PycharmProjects/Reinvent-master-3.2/result/LINK_invent/BTK/process_docking_weight1_custom_product_contain_oxygen_bond_distance_aromatic_linkinvent_7_9_3/rearranged_h_0077.sdf

> <i_m_source_file_index>
29

> <r_mmod_Potential_Energy-OPLS-2005>
83.5802993774414

> <r_mmod_Stretch_Energy-OPLS-2005>
45.8036766052246

> <r_mmod_Bend_Energy-OPLS-2005>
178.930847167969

> <r_mmod_Torsional_Energy-OPLS-2005>
246.960021972656

> <r_mmod_Improper_Torsional_Energy-OPLS-2005>
14.4706954956055

> <r_mmod_Van_der_Waal_Energy-OPLS-2005>
148.642623901367

> <r_mmod_Electrostatic_Energy-OPLS-2005>
-350.262817382812

> <r_mmod_Solvation_Energy-OPLS-2005>
-227.605209350586

> <b_mmod_Minimization_Converged-OPLS-2005>
0

> <r_mmod_RMS_Derivative-OPLS-2005>
2.75956749916077

$$$$
29
                    3D
 Structure written by MMmdl.
160169  0  0  1  0            999 V2000
  -30.6763  -14.6510   20.4993 C   0  0  0  0  0  0
  -30.4183  -12.4030   19.4609 C   0  0  0  0  0  0
  -29.4985  -12.4978   18.2263 C   0  0  0  0  0  0
  -28.0258  -12.3331   18.6441 C   0  0  0  0  0  0
  -27.6443  -13.2280   19.8539 C   0  0  2  0  0  0
  -28.6897  -13.1409   20.9884 C   0  0  0  0  0  0
  -25.2523  -13.8199   20.5698 C   0  0  0  0  0  0
  -24.1807  -13.0448   20.9209 C   0  0  0  0  0  0
  -24.6396  -11.6923   20.8760 C   0  0  0  0  0  0
  -23.9076  -10.4297   21.0417 C   0  0  0  0  0  0
  -24.3628   -9.4209   21.9190 C   0  0  0  0  0  0
  -23.6302   -8.2245   22.0756 C   0  0  0  0  0  0
  -22.4281   -8.0287   21.3548 C   0  0  0  0  0  0
  -21.9922   -9.0261   20.4649 C   0  0  0  0  0  0
  -22.7251  -10.2139   20.3062 C   0  0  0  0  0  0
  -21.6853   -6.0746   22.5282 C   0  0  0  0  0  0
  -21.4011   -6.5646   23.8217 C   0  0  0  0  0  0
  -21.3657   -5.6796   24.9177 C   0  0  0  0  0  0
  -21.6043   -4.3061   24.7224 C   0  0  0  0  0  0
  -21.8818   -3.8156   23.4345 C   0  0  0  0  0  0
  -21.9192   -4.6973   22.3404 C   0  0  0  0  0  0
  -22.7829  -13.5232   21.1866 C   0  0  0  0  0  0
  -22.1661   -4.2161   21.0982 F   0  0  0  0  0  0
  -21.5628   -3.4542   25.7737 F   0  0  0  0  0  0
  -29.9988  -13.4611   20.4067 N   0  0  0  0  0  0
  -26.2952  -12.9400   20.3309 N   0  0  0  0  0  0
  -25.9328  -11.6545   20.5778 N   0  0  0  0  0  0
  -22.0477  -12.8218   22.0419 N   0  0  0  0  0  0
  -25.4220  -15.1919   20.4096 N   0  0  0  0  0  0
  -31.8504  -14.7130   20.1264 O   0  0  0  0  0  0
  -21.6642   -6.8887   21.4244 O   0  0  0  0  0  0
  -22.3512  -14.5540   20.6716 O   0  0  0  0  0  0
  -24.6259  -31.8595   23.2019 C   0  0  0  0  0  0
  -25.9108  -32.4778   23.8352 C   0  0  1  0  0  0
  -27.2208  -27.3254   20.1225 C   0  0  0  0  0  0
  -25.5924  -33.8579   24.2280 N   0  0  0  0  0  0
  -23.4204  -30.4818   21.5441 C   0  0  2  0  0  0
  -24.8692  -28.9376   20.1085 C   0  0  0  0  0  0
  -22.7478  -29.4618   22.4937 C   0  0  0  0  0  0
  -18.0284  -28.1389   22.8484 C   0  0  0  0  0  0
  -24.1490  -36.7290   23.2637 C   0  0  0  0  0  0
  -25.9604  -30.7926   21.3719 C   0  0  0  0  0  0
  -26.0371  -29.4201   20.7151 C   0  0  0  0  0  0
  -27.2208  -28.6246   20.7140 C   0  0  0  0  0  0
  -26.0389  -26.8931   19.4884 C   0  0  0  0  0  0
  -24.8712  -27.6794   19.4847 C   0  0  0  0  0  0
  -23.6350  -29.8151   20.1593 C   0  0  0  0  0  0
  -25.4112  -36.3080   24.0332 C   0  0  1  0  0  0
  -20.5885  -28.3693   23.1285 C   0  0  2  0  0  0
  -20.6774  -26.9415   22.5413 C   0  0  0  0  0  0
  -19.5749  -26.6384   21.5217 C   0  0  0  0  0  0
  -18.1924  -26.7931   22.1623 C   0  0  0  0  0  0
  -19.1537  -28.8857   23.2881 C   0  0  0  0  0  0
  -18.9461  -30.1459   23.8899 C   0  0  0  0  0  0
  -17.6462  -30.6591   24.0565 C   0  0  0  0  0  0
  -25.9051  -34.9452   23.5105 C   0  0  0  0  0  0
  -16.5351  -29.9089   23.6335 C   0  0  0  0  0  0
  -16.7271  -28.6506   23.0353 C   0  0  0  0  0  0
  -26.4494  -31.6585   25.0720 C   0  0  0  0  0  0
  -25.3732  -31.3735   26.1454 C   0  0  0  0  0  0
  -27.0318  -30.3001   24.6165 C   0  0  0  0  0  0
  -27.6068  -32.4310   25.7474 C   0  0  0  0  0  0
  -27.5587  -37.1787   24.8459 C   0  0  0  0  0  0
  -21.4191  -29.3041   22.3681 N   0  0  0  0  0  0
  -26.4286  -37.3779   23.9422 N   0  0  0  0  0  0
  -24.6876  -31.0608   22.0966 N   0  0  0  0  0  0
  -23.4199  -28.8159   23.3018 O   0  0  0  0  0  0
  -28.2946  -26.4312   20.1642 O   0  0  0  0  0  0
  -26.5616  -34.8917   22.4671 O   0  0  0  0  0  0
  -23.5423  -32.1390   23.7347 O   0  0  0  0  0  0
  -31.6257  -19.7493   21.4418 C   0  0  0  0  0  0
  -31.7861  -17.3207   21.5173 C   0  0  0  0  0  0
  -29.7395  -18.3923   20.7356 C   0  0  0  0  0  0
  -32.3585  -18.5833   21.7422 C   0  0  0  0  0  0
  -30.2941  -19.7223   20.9474 C   0  0  0  0  0  0
  -30.4841  -17.1706   20.9916 C   0  0  0  0  0  0
  -27.8512  -22.7059   21.0355 C   0  0  0  0  0  0
  -28.5529  -23.8150   20.6781 C   0  0  0  0  0  0
  -28.3022  -21.2940   20.9140 C   0  0  0  0  0  0
  -33.7664  -18.6716   22.2590 C   0  0  0  0  0  0
  -29.9093  -23.5919   20.0556 C   0  0  0  0  0  0
  -30.5357  -22.2353   20.5114 C   0  0  0  0  0  0
  -28.0676  -25.2698   21.0468 C   0  0  0  0  0  0
  -29.6400  -21.0501   20.7148 N   0  0  0  0  0  0
  -34.0330  -19.6758   23.0832 N   0  0  0  0  0  0
  -29.9704  -15.8022   20.7924 N   0  0  0  0  0  0
  -27.4877  -20.3728   21.0218 O   0  0  0  0  0  0
  -34.6121  -17.8242   21.9767 O   0  0  0  0  0  0
  -31.4624  -12.4965   19.1577 H   0  0  0  0  0  0
  -30.3344  -11.4213   19.9300 H   0  0  0  0  0  0
  -29.7667  -11.7349   17.4943 H   0  0  0  0  0  0
  -29.6370  -13.4604   17.7323 H   0  0  0  0  0  0
  -27.8752  -11.2835   18.9002 H   0  0  0  0  0  0
  -27.3663  -12.5359   17.7996 H   0  0  0  0  0  0
  -27.6472  -14.2533   19.4829 H   0  0  0  0  0  0
  -28.7048  -12.1421   21.4270 H   0  0  0  0  0  0
  -28.4390  -13.8266   21.7994 H   0  0  0  0  0  0
  -25.2772   -9.5686   22.4765 H   0  0  0  0  0  0
  -24.0013   -7.4636   22.7473 H   0  0  0  0  0  0
  -21.0855   -8.8783   19.8954 H   0  0  0  0  0  0
  -22.3714  -10.9683   19.6174 H   0  0  0  0  0  0
  -21.2000   -7.6152   23.9724 H   0  0  0  0  0  0
  -21.1477   -6.0526   25.9080 H   0  0  0  0  0  0
  -22.0597   -2.7619   23.2842 H   0  0  0  0  0  0
  -22.4092  -11.9876   22.4801 H   0  0  0  0  0  0
  -21.1097  -13.1239   22.2630 H   0  0  0  0  0  0
  -24.6541  -15.8459   20.5157 H   0  0  0  0  0  0
  -26.2678  -15.6306   20.0690 H   0  0  0  0  0  0
  -26.7177  -32.5448   23.1103 H   0  0  0  0  0  0
  -25.0087  -33.9728   25.0437 H   0  0  0  0  0  0
  -22.7137  -31.3018   21.3995 H   0  0  0  0  0  0
  -23.3764  -35.9608   23.3268 H   0  0  0  0  0  0
  -24.3594  -36.8944   22.2059 H   0  0  0  0  0  0
  -23.7225  -37.6475   23.6677 H   0  0  0  0  0  0
  -26.0891  -31.5552   20.6026 H   0  0  0  0  0  0
  -26.8417  -30.8431   21.9999 H   0  0  0  0  0  0
  -28.1157  -28.9839   21.2022 H   0  0  0  0  0  0
  -26.0129  -25.9198   19.0186 H   0  0  0  0  0  0
  -23.9763  -27.3036   19.0079 H   0  0  0  0  0  0
  -23.7498  -30.5906   19.4010 H   0  0  0  0  0  0
  -22.7559  -29.2416   19.8599 H   0  0  0  0  0  0
  -25.1288  -36.1925   25.0822 H   0  0  0  0  0  0
  -20.9977  -28.3267   24.1406 H   0  0  0  0  0  0
  -20.5686  -26.2300   23.3613 H   0  0  0  0  0  0
  -21.6643  -26.7448   22.1197 H   0  0  0  0  0  0
  -19.6915  -25.6295   21.1245 H   0  0  0  0  0  0
  -19.6691  -27.3199   20.6751 H   0  0  0  0  0  0
  -17.4198  -26.6686   21.4020 H   0  0  0  0  0  0
  -18.0318  -26.0075   22.9017 H   0  0  0  0  0  0
  -19.7939  -30.7275   24.2266 H   0  0  0  0  0  0
  -17.5013  -31.6272   24.5165 H   0  0  0  0  0  0
  -15.5350  -30.2991   23.7667 H   0  0  0  0  0  0
  -15.8667  -28.0829   22.7071 H   0  0  0  0  0  0
  -24.5887  -30.7104   25.7788 H   0  0  0  0  0  0
  -24.8945  -32.2909   26.4893 H   0  0  0  0  0  0
  -25.8053  -30.8896   27.0222 H   0  0  0  0  0  0
  -26.2874  -29.6758   24.1205 H   0  0  0  0  0  0
  -27.4032  -29.7255   25.4660 H   0  0  0  0  0  0
  -27.8744  -30.4282   23.9365 H   0  0  0  0  0  0
  -27.2705  -33.3637   26.2014 H   0  0  0  0  0  0
  -28.3891  -32.6823   25.0299 H   0  0  0  0  0  0
  -28.0711  -31.8447   26.5413 H   0  0  0  0  0  0
  -28.2575  -38.0113   24.7545 H   0  0  0  0  0  0
  -28.1111  -36.2647   24.6225 H   0  0  0  0  0  0
  -27.2310  -37.1363   25.8860 H   0  0  0  0  0  0
  -20.9367  -29.8763   21.6891 H   0  0  0  0  0  0
  -26.0165  -38.2847   24.1448 H   0  0  0  0  0  0
  -32.1321  -20.6833   21.6215 H   0  0  0  0  0  0
  -32.3809  -16.4544   21.7682 H   0  0  0  0  0  0
  -28.7347  -18.3008   20.3500 H   0  0  0  0  0  0
  -26.8964  -22.8550   21.5177 H   0  0  0  0  0  0
  -30.5755  -24.4146   20.3180 H   0  0  0  0  0  0
  -29.7930  -23.6167   18.9714 H   0  0  0  0  0  0
  -30.9960  -22.4473   21.4770 H   0  0  0  0  0  0
  -31.3437  -21.9736   19.8264 H   0  0  0  0  0  0
  -28.5763  -25.5195   21.9784 H   0  0  0  0  0  0
  -27.0137  -25.1979   21.3242 H   0  0  0  0  0  0
  -33.3072  -20.3277   23.3387 H   0  0  0  0  0  0
  -34.9572  -19.7794   23.4756 H   0  0  0  0  0  0
  -28.9727  -15.6838   20.8784 H   0  0  0  0  0  0
  1 25  1  0  0  0
  1 30  2  0  0  0
  1 86  1  0  0  0
  2  3  1  0  0  0
  2 25  1  0  0  0
  2 89  1  0  0  0
  2 90  1  0  0  0
  3  4  1  0  0  0
  3 91  1  0  0  0
  3 92  1  0  0  0
  4  5  1  0  0  0
  4 93  1  0  0  0
  4 94  1  0  0  0
  5  6  1  0  0  0
  5 26  1  0  0  0
  5 95  1  0  0  0
  6 25  1  0  0  0
  6 96  1  0  0  0
  6 97  1  0  0  0
  7  8  2  0  0  0
  7 26  1  0  0  0
  7 29  1  0  0  0
  8  9  1  0  0  0
  8 22  1  0  0  0
  9 10  1  0  0  0
  9 27  2  0  0  0
 10 11  2  0  0  0
 10 15  1  0  0  0
 11 12  1  0  0  0
 11 98  1  0  0  0
 12 13  2  0  0  0
 12 99  1  0  0  0
 13 14  1  0  0  0
 13 31  1  0  0  0
 14 15  2  0  0  0
 14100  1  0  0  0
 15101  1  0  0  0
 16 17  2  0  0  0
 16 21  1  0  0  0
 16 31  1  0  0  0
 17 18  1  0  0  0
 17102  1  0  0  0
 18 19  2  0  0  0
 18103  1  0  0  0
 19 20  1  0  0  0
 19 24  1  0  0  0
 20 21  2  0  0  0
 20104  1  0  0  0
 21 23  1  0  0  0
 22 28  1  0  0  0
 22 32  2  0  0  0
 26 27  1  0  0  0
 28105  1  0  0  0
 28106  1  0  0  0
 29107  1  0  0  0
 29108  1  0  0  0
 33 34  1  0  0  0
 33 66  1  0  0  0
 33 70  2  0  0  0
 34 36  1  0  0  0
 34 59  1  0  0  0
 34109  1  0  0  0
 35 44  2  0  0  0
 35 45  1  0  0  0
 35 68  1  0  0  0
 36 56  1  0  0  0
 36110  1  0  0  0
 37 39  1  0  0  0
 37 47  1  0  0  0
 37 66  1  0  0  0
 37111  1  0  0  0
 38 43  2  0  0  0
 38 46  1  0  0  0
 38 47  1  0  0  0
 39 64  1  0  0  0
 39 67  2  0  0  0
 40 52  1  0  0  0
 40 53  2  0  0  0
 40 58  1  0  0  0
 41112  1  0  0  0
 41113  1  0  0  0
 41114  1  0  0  0
 41 48  1  0  0  0
 42 43  1  0  0  0
 42 66  1  0  0  0
 42115  1  0  0  0
 42116  1  0  0  0
 43 44  1  0  0  0
 44117  1  0  0  0
 45 46  2  0  0  0
 45118  1  0  0  0
 46119  1  0  0  0
 47120  1  0  0  0
 47121  1  0  0  0
 48 56  1  0  0  0
 48 65  1  0  0  0
 48122  1  0  0  0
 49 50  1  0  0  0
 49 53  1  0  0  0
 49 64  1  0  0  0
 49123  1  0  0  0
 50 51  1  0  0  0
 50124  1  0  0  0
 50125  1  0  0  0
 51 52  1  0  0  0
 51126  1  0  0  0
 51127  1  0  0  0
 52128  1  0  0  0
 52129  1  0  0  0
 53 54  1  0  0  0
 54 55  2  0  0  0
 54130  1  0  0  0
 55 57  1  0  0  0
 55131  1  0  0  0
 56 69  2  0  0  0
 57 58  2  0  0  0
 57132  1  0  0  0
 58133  1  0  0  0
 59 60  1  0  0  0
 59 61  1  0  0  0
 59 62  1  0  0  0
 60134  1  0  0  0
 60135  1  0  0  0
 60136  1  0  0  0
 61137  1  0  0  0
 61138  1  0  0  0
 61139  1  0  0  0
 62140  1  0  0  0
 62141  1  0  0  0
 62142  1  0  0  0
 63 65  1  0  0  0
 63143  1  0  0  0
 63144  1  0  0  0
 63145  1  0  0  0
 64146  1  0  0  0
 65147  1  0  0  0
 68 83  1  0  0  0
 71 74  2  0  0  0
 71 75  1  0  0  0
 71148  1  0  0  0
 72 74  1  0  0  0
 72 76  2  0  0  0
 72149  1  0  0  0
 73 75  2  0  0  0
 73 76  1  0  0  0
 73150  1  0  0  0
 74 80  1  0  0  0
 75 84  1  0  0  0
 76 86  1  0  0  0
 77 78  2  0  0  0
 77 79  1  0  0  0
 77151  1  0  0  0
 78 81  1  0  0  0
 78 83  1  0  0  0
 79 84  1  0  0  0
 79 87  2  0  0  0
 80 85  1  0  0  0
 80 88  2  0  0  0
 81 82  1  0  0  0
 81152  1  0  0  0
 81153  1  0  0  0
 82 84  1  0  0  0
 82154  1  0  0  0
 82155  1  0  0  0
 83156  1  0  0  0
 83157  1  0  0  0
 85158  1  0  0  0
 85159  1  0  0  0
 86160  1  0  0  0
M  ISO  4   1 100  68 101  83 101  86 100
M  END
> <chiral flag>
0

> <version>
0

> <s_m_source_file>
/data/baiqing/PycharmProjects/Reinvent-master-3.2/result/LINK_invent/BTK/process_docking_weight1_custom_product_contain_oxygen_bond_distance_aromatic_linkinvent_7_9_3/rearranged_h_0077.sdf

> <i_m_source_file_index>
30

> <r_mmod_Potential_Energy-OPLS-2005>
38.7116737365723

> <r_mmod_Stretch_Energy-OPLS-2005>
99.4940795898438

> <r_mmod_Bend_Energy-OPLS-2005>
159.413986206055

> <r_mmod_Torsional_Energy-OPLS-2005>
299.150787353516

> <r_mmod_Improper_Torsional_Energy-OPLS-2005>
5.88041830062866

> <r_mmod_Van_der_Waal_Energy-OPLS-2005>
173.66242980957

> <r_mmod_Electrostatic_Energy-OPLS-2005>
-491.904663085938

> <r_mmod_Solvation_Energy-OPLS-2005>
-261.863159179688

> <b_mmod_Minimization_Converged-OPLS-2005>
0

> <r_mmod_RMS_Derivative-OPLS-2005>
0.730859637260437

$$$$
30
                    3D
 Structure written by MMmdl.
149157  0  0  1  0            999 V2000
  -30.5960  -14.6835   20.4932 C   0  0  0  0  0  0
  -30.4450  -12.4185   19.4592 C   0  0  0  0  0  0
  -29.5126  -12.5137   18.2295 C   0  0  0  0  0  0
  -28.0359  -12.3430   18.6402 C   0  0  0  0  0  0
  -27.6532  -13.2175   19.8634 C   0  0  2  0  0  0
  -28.6979  -13.0818   20.9944 C   0  0  0  0  0  0
  -25.2564  -13.8168   20.5685 C   0  0  0  0  0  0
  -24.1831  -13.0436   20.9194 C   0  0  0  0  0  0
  -24.6398  -11.6906   20.8740 C   0  0  0  0  0  0
  -23.9066  -10.4290   21.0406 C   0  0  0  0  0  0
  -24.3617   -9.4206   21.9184 C   0  0  0  0  0  0
  -23.6292   -8.2243   22.0753 C   0  0  0  0  0  0
  -22.4274   -8.0281   21.3545 C   0  0  0  0  0  0
  -21.9909   -9.0255   20.4647 C   0  0  0  0  0  0
  -22.7238  -10.2133   20.3056 C   0  0  0  0  0  0
  -21.6853   -6.0736   22.5279 C   0  0  0  0  0  0
  -21.4013   -6.5639   23.8213 C   0  0  0  0  0  0
  -21.3660   -5.6792   24.9176 C   0  0  0  0  0  0
  -21.6045   -4.3056   24.7226 C   0  0  0  0  0  0
  -21.8819   -3.8147   23.4347 C   0  0  0  0  0  0
  -21.9192   -4.6964   22.3403 C   0  0  0  0  0  0
  -22.7853  -13.5232   21.1855 C   0  0  0  0  0  0
  -22.1661   -4.2150   21.0980 F   0  0  0  0  0  0
  -21.5630   -3.4539   25.7739 F   0  0  0  0  0  0
  -30.0101  -13.4421   20.4328 N   0  0  0  0  0  0
  -26.2990  -12.9348   20.3315 N   0  0  0  0  0  0
  -25.9328  -11.6504   20.5755 N   0  0  0  0  0  0
  -22.0492  -12.8227   22.0411 N   0  0  0  0  0  0
  -25.4280  -15.1890   20.4094 N   0  0  0  0  0  0
  -31.7563  -14.8562   20.1058 O   0  0  0  0  0  0
  -21.6639   -6.8879   21.4241 O   0  0  0  0  0  0
  -22.3542  -14.5539   20.6702 O   0  0  0  0  0  0
  -24.6273  -31.8583   23.2012 C   0  0  0  0  0  0
  -25.9114  -32.4772   23.8348 C   0  0  1  0  0  0
  -27.2274  -27.3031   20.1262 C   0  0  0  0  0  0
  -25.5925  -33.8573   24.2273 N   0  0  0  0  0  0
  -23.4231  -30.4805   21.5432 C   0  0  2  0  0  0
  -24.8726  -28.9310   20.1120 C   0  0  0  0  0  0
  -22.7482  -29.4616   22.4925 C   0  0  0  0  0  0
  -18.0288  -28.1385   22.8487 C   0  0  0  0  0  0
  -24.1489  -36.7291   23.2637 C   0  0  0  0  0  0
  -25.9652  -30.7829   21.3766 C   0  0  0  0  0  0
  -26.0408  -29.4074   20.7220 C   0  0  0  0  0  0
  -27.2220  -28.6039   20.7221 C   0  0  0  0  0  0
  -26.0407  -26.8858   19.4849 C   0  0  0  0  0  0
  -24.8744  -27.6753   19.4844 C   0  0  0  0  0  0
  -23.6406  -29.8129   20.1594 C   0  0  0  0  0  0
  -25.4114  -36.3081   24.0328 C   0  0  1  0  0  0
  -20.5890  -28.3694   23.1276 C   0  0  2  0  0  0
  -20.6776  -26.9414   22.5409 C   0  0  0  0  0  0
  -19.5752  -26.6385   21.5211 C   0  0  0  0  0  0
  -18.1933  -26.7928   22.1624 C   0  0  0  0  0  0
  -19.1540  -28.8856   23.2878 C   0  0  0  0  0  0
  -18.9463  -30.1457   23.8896 C   0  0  0  0  0  0
  -17.6462  -30.6588   24.0563 C   0  0  0  0  0  0
  -25.9055  -34.9449   23.5104 C   0  0  0  0  0  0
  -16.5354  -29.9086   23.6328 C   0  0  0  0  0  0
  -16.7275  -28.6502   23.0354 C   0  0  0  0  0  0
  -26.4495  -31.6586   25.0723 C   0  0  0  0  0  0
  -25.3727  -31.3724   26.1448 C   0  0  0  0  0  0
  -27.0340  -30.3007   24.6189 C   0  0  0  0  0  0
  -27.6055  -32.4322   25.7495 C   0  0  0  0  0  0
  -27.5584  -37.1795   24.8459 C   0  0  0  0  0  0
  -21.4194  -29.3044   22.3666 N   0  0  0  0  0  0
  -26.4289  -37.3780   23.9414 N   0  0  0  0  0  0
  -24.6905  -31.0577   22.0972 N   0  0  0  0  0  0
  -23.4196  -28.8158   23.3015 O   0  0  0  0  0  0
  -28.3280  -26.4274   20.1468 O   0  0  0  0  0  0
  -26.5626  -34.8920   22.4672 O   0  0  0  0  0  0
  -23.5431  -32.1388   23.7328 O   0  0  0  0  0  0
  -30.7071  -19.3871   19.9810 C   0  0  0  0  0  0
  -28.5500  -19.3504   21.0195 C   0  0  0  0  0  0
  -30.8134  -17.9623   20.1118 C   0  0  0  0  0  0
  -28.6553  -17.9303   21.1505 C   0  0  0  0  0  0
  -29.5753  -20.1366   20.4240 C   0  0  0  0  0  0
  -29.7813  -17.1826   20.7025 C   0  0  0  0  0  0
  -28.9449  -23.9855   20.1961 C   0  0  0  0  0  0
  -28.1091  -25.0570   20.4423 C   0  0  0  0  0  0
  -28.6037  -22.5690   20.5568 C   0  0  0  0  0  0
  -29.5409  -21.6069   20.2437 N   0  0  0  0  0  0
  -29.7660  -15.7171   20.8655 N   0  0  0  0  0  0
  -27.5413  -22.2683   21.1055 O   0  0  0  0  0  0
  -31.4845  -12.5560   19.1565 H   0  0  0  0  0  0
  -30.3938  -11.4247   19.9068 H   0  0  0  0  0  0
  -29.7847  -11.7590   17.4905 H   0  0  0  0  0  0
  -29.6465  -13.4807   17.7415 H   0  0  0  0  0  0
  -27.8798  -11.2900   18.8775 H   0  0  0  0  0  0
  -27.3804  -12.5642   17.7969 H   0  0  0  0  0  0
  -27.6678  -14.2510   19.5170 H   0  0  0  0  0  0
  -28.7199  -12.0598   21.3757 H   0  0  0  0  0  0
  -28.4350  -13.7092   21.8473 H   0  0  0  0  0  0
  -25.2761   -9.5684   22.4758 H   0  0  0  0  0  0
  -24.0002   -7.4634   22.7471 H   0  0  0  0  0  0
  -21.0840   -8.8774   19.8954 H   0  0  0  0  0  0
  -22.3696  -10.9673   19.6166 H   0  0  0  0  0  0
  -21.2003   -7.6146   23.9718 H   0  0  0  0  0  0
  -21.1484   -6.0522   25.9079 H   0  0  0  0  0  0
  -22.0597   -2.7609   23.2847 H   0  0  0  0  0  0
  -22.4102  -11.9888   22.4804 H   0  0  0  0  0  0
  -21.1111  -13.1261   22.2613 H   0  0  0  0  0  0
  -24.6571  -15.8405   20.5092 H   0  0  0  0  0  0
  -26.2684  -15.6249   20.0518 H   0  0  0  0  0  0
  -26.7181  -32.5440   23.1096 H   0  0  0  0  0  0
  -25.0065  -33.9717   25.0413 H   0  0  0  0  0  0
  -22.7180  -31.3015   21.3974 H   0  0  0  0  0  0
  -23.3757  -35.9617   23.3287 H   0  0  0  0  0  0
  -24.3585  -36.8926   22.2054 H   0  0  0  0  0  0
  -23.7234  -37.6486   23.6667 H   0  0  0  0  0  0
  -26.0986  -31.5437   20.6064 H   0  0  0  0  0  0
  -26.8446  -30.8336   22.0068 H   0  0  0  0  0  0
  -28.1185  -28.9624   21.2082 H   0  0  0  0  0  0
  -26.0060  -25.9229   18.9952 H   0  0  0  0  0  0
  -23.9809  -27.3054   19.0004 H   0  0  0  0  0  0
  -23.7617  -30.5883   19.4022 H   0  0  0  0  0  0
  -22.7606  -29.2426   19.8565 H   0  0  0  0  0  0
  -25.1292  -36.1930   25.0820 H   0  0  0  0  0  0
  -20.9985  -28.3270   24.1395 H   0  0  0  0  0  0
  -20.5673  -26.2305   23.3612 H   0  0  0  0  0  0
  -21.6645  -26.7440   22.1202 H   0  0  0  0  0  0
  -19.6914  -25.6294   21.1244 H   0  0  0  0  0  0
  -19.6689  -27.3192   20.6739 H   0  0  0  0  0  0
  -17.4202  -26.6674   21.4028 H   0  0  0  0  0  0
  -18.0336  -26.0069   22.9020 H   0  0  0  0  0  0
  -19.7939  -30.7271   24.2267 H   0  0  0  0  0  0
  -17.5017  -31.6269   24.5163 H   0  0  0  0  0  0
  -15.5355  -30.2989   23.7651 H   0  0  0  0  0  0
  -15.8675  -28.0820   22.7073 H   0  0  0  0  0  0
  -24.5906  -30.7070   25.7773 H   0  0  0  0  0  0
  -24.8915  -32.2889   26.4872 H   0  0  0  0  0  0
  -25.8052  -30.8901   27.0224 H   0  0  0  0  0  0
  -26.2916  -29.6757   24.1213 H   0  0  0  0  0  0
  -27.4029  -29.7267   25.4700 H   0  0  0  0  0  0
  -27.8790  -30.4288   23.9421 H   0  0  0  0  0  0
  -27.2666  -33.3620   26.2075 H   0  0  0  0  0  0
  -28.3865  -32.6885   25.0323 H   0  0  0  0  0  0
  -28.0724  -31.8445   26.5410 H   0  0  0  0  0  0
  -28.2580  -38.0113   24.7542 H   0  0  0  0  0  0
  -28.1104  -36.2649   24.6238 H   0  0  0  0  0  0
  -27.2309  -37.1384   25.8862 H   0  0  0  0  0  0
  -20.9374  -29.8767   21.6873 H   0  0  0  0  0  0
  -26.0169  -38.2850   24.1437 H   0  0  0  0  0  0
  -31.5311  -19.9114   19.5177 H   0  0  0  0  0  0
  -27.6514  -19.8209   21.3890 H   0  0  0  0  0  0
  -31.7052  -17.4765   19.7421 H   0  0  0  0  0  0
  -27.8280  -17.4082   21.6105 H   0  0  0  0  0  0
  -29.8927  -24.1819   19.7171 H   0  0  0  0  0  0
  -27.1524  -24.9057   20.9261 H   0  0  0  0  0  0
  -30.3643  -21.9896   19.8002 H   0  0  0  0  0  0
  -28.8935  -15.3631   21.2264 H   0  0  0  0  0  0
  1 25  1  0  0  0
  1 30  2  0  0  0
  1 81  1  0  0  0
  2  3  1  0  0  0
  2 25  1  0  0  0
  2 83  1  0  0  0
  2 84  1  0  0  0
  3  4  1  0  0  0
  3 85  1  0  0  0
  3 86  1  0  0  0
  4  5  1  0  0  0
  4 87  1  0  0  0
  4 88  1  0  0  0
  5  6  1  0  0  0
  5 26  1  0  0  0
  5 89  1  0  0  0
  6 25  1  0  0  0
  6 90  1  0  0  0
  6 91  1  0  0  0
  7  8  2  0  0  0
  7 26  1  0  0  0
  7 29  1  0  0  0
  8  9  1  0  0  0
  8 22  1  0  0  0
  9 10  1  0  0  0
  9 27  2  0  0  0
 10 11  2  0  0  0
 10 15  1  0  0  0
 11 12  1  0  0  0
 11 92  1  0  0  0
 12 13  2  0  0  0
 12 93  1  0  0  0
 13 14  1  0  0  0
 13 31  1  0  0  0
 14 15  2  0  0  0
 14 94  1  0  0  0
 15 95  1  0  0  0
 16 17  2  0  0  0
 16 21  1  0  0  0
 16 31  1  0  0  0
 17 18  1  0  0  0
 17 96  1  0  0  0
 18 19  2  0  0  0
 18 97  1  0  0  0
 19 20  1  0  0  0
 19 24  1  0  0  0
 20 21  2  0  0  0
 20 98  1  0  0  0
 21 23  1  0  0  0
 22 28  1  0  0  0
 22 32  2  0  0  0
 26 27  1  0  0  0
 28 99  1  0  0  0
 28100  1  0  0  0
 29101  1  0  0  0
 29102  1  0  0  0
 33 34  1  0  0  0
 33 66  1  0  0  0
 33 70  2  0  0  0
 34 36  1  0  0  0
 34 59  1  0  0  0
 34103  1  0  0  0
 35 44  2  0  0  0
 35 45  1  0  0  0
 35 68  1  0  0  0
 36 56  1  0  0  0
 36104  1  0  0  0
 37 39  1  0  0  0
 37 47  1  0  0  0
 37 66  1  0  0  0
 37105  1  0  0  0
 38 43  2  0  0  0
 38 46  1  0  0  0
 38 47  1  0  0  0
 39 64  1  0  0  0
 39 67  2  0  0  0
 40 52  1  0  0  0
 40 53  2  0  0  0
 40 58  1  0  0  0
 41106  1  0  0  0
 41107  1  0  0  0
 41108  1  0  0  0
 41 48  1  0  0  0
 42 43  1  0  0  0
 42 66  1  0  0  0
 42109  1  0  0  0
 42110  1  0  0  0
 43 44  1  0  0  0
 44111  1  0  0  0
 45 46  2  0  0  0
 45112  1  0  0  0
 46113  1  0  0  0
 47114  1  0  0  0
 47115  1  0  0  0
 48 56  1  0  0  0
 48 65  1  0  0  0
 48116  1  0  0  0
 49 50  1  0  0  0
 49 53  1  0  0  0
 49 64  1  0  0  0
 49117  1  0  0  0
 50 51  1  0  0  0
 50118  1  0  0  0
 50119  1  0  0  0
 51 52  1  0  0  0
 51120  1  0  0  0
 51121  1  0  0  0
 52122  1  0  0  0
 52123  1  0  0  0
 53 54  1  0  0  0
 54 55  2  0  0  0
 54124  1  0  0  0
 55 57  1  0  0  0
 55125  1  0  0  0
 56 69  2  0  0  0
 57 58  2  0  0  0
 57126  1  0  0  0
 58127  1  0  0  0
 59 60  1  0  0  0
 59 61  1  0  0  0
 59 62  1  0  0  0
 60128  1  0  0  0
 60129  1  0  0  0
 60130  1  0  0  0
 61131  1  0  0  0
 61132  1  0  0  0
 61133  1  0  0  0
 62134  1  0  0  0
 62135  1  0  0  0
 62136  1  0  0  0
 63 65  1  0  0  0
 63137  1  0  0  0
 63138  1  0  0  0
 63139  1  0  0  0
 64140  1  0  0  0
 65141  1  0  0  0
 68 78  1  0  0  0
 71 73  2  0  0  0
 71 75  1  0  0  0
 71142  1  0  0  0
 72 74  1  0  0  0
 72 75  2  0  0  0
 72143  1  0  0  0
 73 76  1  0  0  0
 73144  1  0  0  0
 74 76  2  0  0  0
 74145  1  0  0  0
 75 80  1  0  0  0
 76 81  1  0  0  0
 77 78  2  0  0  0
 77 79  1  0  0  0
 77146  1  0  0  0
 78147  1  0  0  0
 79 80  1  0  0  0
 79 82  2  0  0  0
 80148  1  0  0  0
 81149  1  0  0  0
M  ISO  4   1 100  68 101  78 101  81 100
M  END
> <chiral flag>
0

> <version>
0

> <s_m_source_file>
/data/baiqing/PycharmProjects/Reinvent-master-3.2/result/LINK_invent/BTK/process_docking_weight1_custom_product_contain_oxygen_bond_distance_aromatic_linkinvent_7_9_3/rearranged_h_0077.sdf

> <i_m_source_file_index>
31

> <r_mmod_Potential_Energy-OPLS-2005>
11.3707761764526

> <r_mmod_Stretch_Energy-OPLS-2005>
87.9112396240234

> <r_mmod_Bend_Energy-OPLS-2005>
146.262603759766

> <r_mmod_Torsional_Energy-OPLS-2005>
214.702743530273

> <r_mmod_Improper_Torsional_Energy-OPLS-2005>
3.73163509368896

> <r_mmod_Van_der_Waal_Energy-OPLS-2005>
143.300109863281

> <r_mmod_Electrostatic_Energy-OPLS-2005>
-419.176147460938

> <r_mmod_Solvation_Energy-OPLS-2005>
-225.779449462891

> <b_mmod_Minimization_Converged-OPLS-2005>
0

> <r_mmod_RMS_Derivative-OPLS-2005>
0.261982887983322

$$$$
31
                    3D
 Structure written by MMmdl.
152160  0  0  1  0            999 V2000
  -30.7024  -14.5289   20.5407 C   0  0  0  0  0  0
  -30.4190  -12.3323   19.4402 C   0  0  0  0  0  0
  -29.4964  -12.4984   18.2154 C   0  0  0  0  0  0
  -28.0194  -12.3529   18.6285 C   0  0  0  0  0  0
  -27.6562  -13.2145   19.8682 C   0  0  2  0  0  0
  -28.7000  -13.0481   20.9964 C   0  0  0  0  0  0
  -25.2561  -13.8175   20.5679 C   0  0  0  0  0  0
  -24.1828  -13.0443   20.9187 C   0  0  0  0  0  0
  -24.6393  -11.6911   20.8741 C   0  0  0  0  0  0
  -23.9064  -10.4295   21.0404 C   0  0  0  0  0  0
  -24.3614   -9.4209   21.9182 C   0  0  0  0  0  0
  -23.6289   -8.2244   22.0756 C   0  0  0  0  0  0
  -22.4274   -8.0279   21.3544 C   0  0  0  0  0  0
  -21.9906   -9.0253   20.4649 C   0  0  0  0  0  0
  -22.7234  -10.2133   20.3056 C   0  0  0  0  0  0
  -21.6853   -6.0731   22.5277 C   0  0  0  0  0  0
  -21.4017   -6.5636   23.8211 C   0  0  0  0  0  0
  -21.3659   -5.6789   24.9173 C   0  0  0  0  0  0
  -21.6043   -4.3053   24.7225 C   0  0  0  0  0  0
  -21.8819   -3.8144   23.4347 C   0  0  0  0  0  0
  -21.9194   -4.6959   22.3402 C   0  0  0  0  0  0
  -22.7848  -13.5232   21.1846 C   0  0  0  0  0  0
  -22.1659   -4.2140   21.0982 F   0  0  0  0  0  0
  -21.5627   -3.4539   25.7740 F   0  0  0  0  0  0
  -30.0253  -13.3486   20.4334 N   0  0  0  0  0  0
  -26.3000  -12.9355   20.3347 N   0  0  0  0  0  0
  -25.9323  -11.6511   20.5774 N   0  0  0  0  0  0
  -22.0493  -12.8225   22.0406 N   0  0  0  0  0  0
  -25.4278  -15.1894   20.4074 N   0  0  0  0  0  0
  -31.8482  -14.6500   20.1008 O   0  0  0  0  0  0
  -21.6641   -6.8873   21.4240 O   0  0  0  0  0  0
  -22.3530  -14.5537   20.6693 O   0  0  0  0  0  0
  -24.6184  -31.8663   23.2082 C   0  0  0  0  0  0
  -25.9060  -32.4821   23.8393 C   0  0  1  0  0  0
  -27.2242  -27.3961   20.1046 C   0  0  0  0  0  0
  -25.5902  -33.8619   24.2328 N   0  0  0  0  0  0
  -23.4100  -30.4914   21.5483 C   0  0  2  0  0  0
  -24.8584  -28.9609   20.1065 C   0  0  0  0  0  0
  -22.7446  -29.4654   22.4955 C   0  0  0  0  0  0
  -18.0279  -28.1391   22.8491 C   0  0  0  0  0  0
  -24.1487  -36.7307   23.2639 C   0  0  0  0  0  0
  -25.9449  -30.8202   21.3703 C   0  0  0  0  0  0
  -26.0223  -29.4538   20.7133 C   0  0  0  0  0  0
  -27.2118  -28.6784   20.7114 C   0  0  0  0  0  0
  -26.0488  -26.9436   19.4650 C   0  0  0  0  0  0
  -24.8687  -27.7069   19.4755 C   0  0  0  0  0  0
  -23.6214  -29.8304   20.1607 C   0  0  0  0  0  0
  -25.4111  -36.3112   24.0339 C   0  0  1  0  0  0
  -20.5879  -28.3684   23.1303 C   0  0  2  0  0  0
  -20.6774  -26.9417   22.5413 C   0  0  0  0  0  0
  -19.5748  -26.6397   21.5211 C   0  0  0  0  0  0
  -18.1927  -26.7934   22.1626 C   0  0  0  0  0  0
  -19.1532  -28.8854   23.2894 C   0  0  0  0  0  0
  -18.9459  -30.1458   23.8908 C   0  0  0  0  0  0
  -17.6462  -30.6594   24.0570 C   0  0  0  0  0  0
  -25.9038  -34.9476   23.5133 C   0  0  0  0  0  0
  -16.5351  -29.9098   23.6329 C   0  0  0  0  0  0
  -16.7269  -28.6516   23.0348 C   0  0  0  0  0  0
  -26.4475  -31.6605   25.0729 C   0  0  0  0  0  0
  -25.3735  -31.3711   26.1472 C   0  0  0  0  0  0
  -27.0306  -30.3047   24.6113 C   0  0  0  0  0  0
  -27.6053  -32.4324   25.7487 C   0  0  0  0  0  0
  -27.5586  -37.1814   24.8470 C   0  0  0  0  0  0
  -21.4168  -29.3039   22.3699 N   0  0  0  0  0  0
  -26.4300  -37.3796   23.9408 N   0  0  0  0  0  0
  -24.6760  -31.0743   22.0997 N   0  0  0  0  0  0
  -23.4204  -28.8193   23.3008 O   0  0  0  0  0  0
  -28.3141  -26.5398   20.1722 O   0  0  0  0  0  0
  -26.5602  -34.8926   22.4697 O   0  0  0  0  0  0
  -23.5366  -32.1424   23.7456 O   0  0  0  0  0  0
  -32.0539  -18.7795   21.1899 C   0  0  0  0  0  0
  -31.0534  -19.7697   21.1620 C   0  0  0  0  0  0
  -31.7177  -17.4128   21.1334 C   0  0  0  0  0  0
  -29.3680  -18.0135   21.0083 C   0  0  0  0  0  0
  -29.6914  -19.4066   21.0728 C   0  0  0  0  0  0
  -30.3677  -16.9969   21.0269 C   0  0  0  0  0  0
  -28.0140  -25.2760   20.6766 C   0  0  0  0  0  0
  -28.5988  -20.4630   21.1713 C   0  0  0  0  0  0
  -28.6867  -24.1110   20.4715 C   0  0  0  0  0  0
  -28.1351  -22.8615   21.0411 C   0  0  0  0  0  0
  -29.9904  -15.5984   20.9874 N   0  0  0  0  0  0
  -28.8947  -21.7513   20.8372 N   0  0  0  0  0  0
  -27.4797  -20.0870   21.5398 O   0  0  0  0  0  0
  -27.0613  -22.8372   21.6559 O   0  0  0  0  0  0
  -29.8178  -24.0843   19.7506 O   0  0  0  0  0  0
  -31.4641  -12.4190   19.1386 H   0  0  0  0  0  0
  -30.3165  -11.3324   19.8654 H   0  0  0  0  0  0
  -29.7446  -11.7581   17.4535 H   0  0  0  0  0  0
  -29.6578  -13.4759   17.7578 H   0  0  0  0  0  0
  -27.8435  -11.2988   18.8470 H   0  0  0  0  0  0
  -27.3658  -12.6018   17.7914 H   0  0  0  0  0  0
  -27.6851  -14.2541   19.5413 H   0  0  0  0  0  0
  -28.6866  -12.0285   21.3839 H   0  0  0  0  0  0
  -28.4602  -13.6903   21.8449 H   0  0  0  0  0  0
  -25.2762   -9.5680   22.4753 H   0  0  0  0  0  0
  -23.9997   -7.4637   22.7478 H   0  0  0  0  0  0
  -21.0835   -8.8770   19.8958 H   0  0  0  0  0  0
  -22.3693  -10.9667   19.6161 H   0  0  0  0  0  0
  -21.2012   -7.6145   23.9708 H   0  0  0  0  0  0
  -21.1478   -6.0524   25.9073 H   0  0  0  0  0  0
  -22.0599   -2.7606   23.2853 H   0  0  0  0  0  0
  -22.4109  -11.9885   22.4786 H   0  0  0  0  0  0
  -21.1116  -13.1249   22.2619 H   0  0  0  0  0  0
  -24.6600  -15.8443   20.5114 H   0  0  0  0  0  0
  -26.2748  -15.6266   20.0670 H   0  0  0  0  0  0
  -26.7133  -32.5523   23.1157 H   0  0  0  0  0  0
  -25.0053  -33.9774   25.0475 H   0  0  0  0  0  0
  -22.6992  -31.3091   21.4107 H   0  0  0  0  0  0
  -23.3750  -35.9642   23.3315 H   0  0  0  0  0  0
  -24.3576  -36.8902   22.2051 H   0  0  0  0  0  0
  -23.7239  -37.6517   23.6639 H   0  0  0  0  0  0
  -26.0660  -31.5866   20.6032 H   0  0  0  0  0  0
  -26.8297  -30.8707   21.9930 H   0  0  0  0  0  0
  -28.1025  -29.0408   21.2046 H   0  0  0  0  0  0
  -26.0354  -25.9765   18.9825 H   0  0  0  0  0  0
  -23.9777  -27.3236   18.9963 H   0  0  0  0  0  0
  -23.7338  -30.6090   19.4052 H   0  0  0  0  0  0
  -22.7440  -29.2547   19.8600 H   0  0  0  0  0  0
  -25.1293  -36.1978   25.0833 H   0  0  0  0  0  0
  -20.9971  -28.3253   24.1423 H   0  0  0  0  0  0
  -20.5681  -26.2295   23.3606 H   0  0  0  0  0  0
  -21.6646  -26.7461   22.1205 H   0  0  0  0  0  0
  -19.6903  -25.6307   21.1238 H   0  0  0  0  0  0
  -19.6680  -27.3212   20.6744 H   0  0  0  0  0  0
  -17.4199  -26.6685   21.4026 H   0  0  0  0  0  0
  -18.0323  -26.0079   22.9027 H   0  0  0  0  0  0
  -19.7933  -30.7271   24.2283 H   0  0  0  0  0  0
  -17.5015  -31.6266   24.5181 H   0  0  0  0  0  0
  -15.5352  -30.3007   23.7638 H   0  0  0  0  0  0
  -15.8669  -28.0836   22.7057 H   0  0  0  0  0  0
  -24.5907  -30.7060   25.7808 H   0  0  0  0  0  0
  -24.8918  -32.2863   26.4925 H   0  0  0  0  0  0
  -25.8080  -30.8878   27.0230 H   0  0  0  0  0  0
  -26.2853  -29.6811   24.1161 H   0  0  0  0  0  0
  -27.4073  -29.7280   25.4570 H   0  0  0  0  0  0
  -27.8694  -30.4372   23.9274 H   0  0  0  0  0  0
  -27.2679  -33.3620   26.2082 H   0  0  0  0  0  0
  -28.3845  -32.6890   25.0299 H   0  0  0  0  0  0
  -28.0740  -31.8433   26.5379 H   0  0  0  0  0  0
  -28.2625  -38.0093   24.7513 H   0  0  0  0  0  0
  -28.1063  -36.2627   24.6311 H   0  0  0  0  0  0
  -27.2299  -37.1482   25.8872 H   0  0  0  0  0  0
  -20.9331  -29.8778   21.6935 H   0  0  0  0  0  0
  -26.0190  -38.2877   24.1397 H   0  0  0  0  0  0
  -33.0918  -19.0700   21.2776 H   0  0  0  0  0  0
  -31.3477  -20.8068   21.2457 H   0  0  0  0  0  0
  -32.5241  -16.6967   21.1898 H   0  0  0  0  0  0
  -28.3271  -17.7232   20.9594 H   0  0  0  0  0  0
  -27.1150  -25.2975   21.2824 H   0  0  0  0  0  0
  -29.0326  -15.3899   21.2229 H   0  0  0  0  0  0
  -29.7867  -21.9276   20.4028 H   0  0  0  0  0  0
  -29.9863  -24.9777   19.4788 H   0  0  0  0  0  0
  1 25  1  0  0  0
  1 30  2  0  0  0
  1 81  1  0  0  0
  2  3  1  0  0  0
  2 25  1  0  0  0
  2 86  1  0  0  0
  2 87  1  0  0  0
  3  4  1  0  0  0
  3 88  1  0  0  0
  3 89  1  0  0  0
  4  5  1  0  0  0
  4 90  1  0  0  0
  4 91  1  0  0  0
  5  6  1  0  0  0
  5 26  1  0  0  0
  5 92  1  0  0  0
  6 25  1  0  0  0
  6 93  1  0  0  0
  6 94  1  0  0  0
  7  8  2  0  0  0
  7 26  1  0  0  0
  7 29  1  0  0  0
  8  9  1  0  0  0
  8 22  1  0  0  0
  9 10  1  0  0  0
  9 27  2  0  0  0
 10 11  2  0  0  0
 10 15  1  0  0  0
 11 12  1  0  0  0
 11 95  1  0  0  0
 12 13  2  0  0  0
 12 96  1  0  0  0
 13 14  1  0  0  0
 13 31  1  0  0  0
 14 15  2  0  0  0
 14 97  1  0  0  0
 15 98  1  0  0  0
 16 17  2  0  0  0
 16 21  1  0  0  0
 16 31  1  0  0  0
 17 18  1  0  0  0
 17 99  1  0  0  0
 18 19  2  0  0  0
 18100  1  0  0  0
 19 20  1  0  0  0
 19 24  1  0  0  0
 20 21  2  0  0  0
 20101  1  0  0  0
 21 23  1  0  0  0
 22 28  1  0  0  0
 22 32  2  0  0  0
 26 27  1  0  0  0
 28102  1  0  0  0
 28103  1  0  0  0
 29104  1  0  0  0
 29105  1  0  0  0
 33 34  1  0  0  0
 33 66  1  0  0  0
 33 70  2  0  0  0
 34 36  1  0  0  0
 34 59  1  0  0  0
 34106  1  0  0  0
 35 44  2  0  0  0
 35 45  1  0  0  0
 35 68  1  0  0  0
 36 56  1  0  0  0
 36107  1  0  0  0
 37 39  1  0  0  0
 37 47  1  0  0  0
 37 66  1  0  0  0
 37108  1  0  0  0
 38 43  2  0  0  0
 38 46  1  0  0  0
 38 47  1  0  0  0
 39 64  1  0  0  0
 39 67  2  0  0  0
 40 52  1  0  0  0
 40 53  2  0  0  0
 40 58  1  0  0  0
 41109  1  0  0  0
 41110  1  0  0  0
 41111  1  0  0  0
 41 48  1  0  0  0
 42 43  1  0  0  0
 42 66  1  0  0  0
 42112  1  0  0  0
 42113  1  0  0  0
 43 44  1  0  0  0
 44114  1  0  0  0
 45 46  2  0  0  0
 45115  1  0  0  0
 46116  1  0  0  0
 47117  1  0  0  0
 47118  1  0  0  0
 48 56  1  0  0  0
 48 65  1  0  0  0
 48119  1  0  0  0
 49 50  1  0  0  0
 49 53  1  0  0  0
 49 64  1  0  0  0
 49120  1  0  0  0
 50 51  1  0  0  0
 50121  1  0  0  0
 50122  1  0  0  0
 51 52  1  0  0  0
 51123  1  0  0  0
 51124  1  0  0  0
 52125  1  0  0  0
 52126  1  0  0  0
 53 54  1  0  0  0
 54 55  2  0  0  0
 54127  1  0  0  0
 55 57  1  0  0  0
 55128  1  0  0  0
 56 69  2  0  0  0
 57 58  2  0  0  0
 57129  1  0  0  0
 58130  1  0  0  0
 59 60  1  0  0  0
 59 61  1  0  0  0
 59 62  1  0  0  0
 60131  1  0  0  0
 60132  1  0  0  0
 60133  1  0  0  0
 61134  1  0  0  0
 61135  1  0  0  0
 61136  1  0  0  0
 62137  1  0  0  0
 62138  1  0  0  0
 62139  1  0  0  0
 63 65  1  0  0  0
 63140  1  0  0  0
 63141  1  0  0  0
 63142  1  0  0  0
 64143  1  0  0  0
 65144  1  0  0  0
 68 77  1  0  0  0
 71 72  2  0  0  0
 71 73  1  0  0  0
 71145  1  0  0  0
 72 75  1  0  0  0
 72146  1  0  0  0
 73 76  2  0  0  0
 73147  1  0  0  0
 74 75  2  0  0  0
 74 76  1  0  0  0
 74148  1  0  0  0
 75 78  1  0  0  0
 76 81  1  0  0  0
 77 79  2  0  0  0
 77149  1  0  0  0
 78 82  1  0  0  0
 78 83  2  0  0  0
 79 80  1  0  0  0
 79 85  1  0  0  0
 80 82  1  0  0  0
 80 84  2  0  0  0
 81150  1  0  0  0
 82151  1  0  0  0
 85152  1  0  0  0
M  ISO  4   1 100  68 101  77 101  81 100
M  END
> <chiral flag>
0

> <version>
0

> <s_m_source_file>
/data/baiqing/PycharmProjects/Reinvent-master-3.2/result/LINK_invent/BTK/process_docking_weight1_custom_product_contain_oxygen_bond_distance_aromatic_linkinvent_7_9_3/rearranged_h_0077.sdf

> <i_m_source_file_index>
32

> <r_mmod_Potential_Energy-OPLS-2005>
-205.175643920898

> <r_mmod_Stretch_Energy-OPLS-2005>
51.0612640380859

> <r_mmod_Bend_Energy-OPLS-2005>
105.611999511719

> <r_mmod_Torsional_Energy-OPLS-2005>
215.506256103516

> <r_mmod_Improper_Torsional_Energy-OPLS-2005>
4.6236252784729

> <r_mmod_Van_der_Waal_Energy-OPLS-2005>
173.690811157227

> <r_mmod_Electrostatic_Energy-OPLS-2005>
-530.527587890625

> <r_mmod_Solvation_Energy-OPLS-2005>
-251.445129394531

> <b_mmod_Minimization_Converged-OPLS-2005>
0

> <r_mmod_RMS_Derivative-OPLS-2005>
0.895522236824036

$$$$
32
                    3D
 Structure written by MMmdl.
165174  0  0  1  0            999 V2000
  -30.6621  -14.5729   20.4033 C   0  0  0  0  0  0
  -30.4158  -12.3274   19.4490 C   0  0  0  0  0  0
  -29.4916  -12.4717   18.2199 C   0  0  0  0  0  0
  -28.0141  -12.3374   18.6364 C   0  0  0  0  0  0
  -27.6479  -13.2183   19.8606 C   0  0  2  0  0  0
  -28.6984  -13.0947   20.9888 C   0  0  0  0  0  0
  -25.2527  -13.8182   20.5694 C   0  0  0  0  0  0
  -24.1806  -13.0439   20.9206 C   0  0  0  0  0  0
  -24.6380  -11.6913   20.8758 C   0  0  0  0  0  0
  -23.9056  -10.4291   21.0407 C   0  0  0  0  0  0
  -24.3604   -9.4199   21.9182 C   0  0  0  0  0  0
  -23.6278   -8.2231   22.0751 C   0  0  0  0  0  0
  -22.4263   -8.0265   21.3534 C   0  0  0  0  0  0
  -21.9898   -9.0244   20.4645 C   0  0  0  0  0  0
  -22.7227  -10.2124   20.3051 C   0  0  0  0  0  0
  -21.6863   -6.0709   22.5261 C   0  0  0  0  0  0
  -21.4027   -6.5622   23.8194 C   0  0  0  0  0  0
  -21.3657   -5.6778   24.9164 C   0  0  0  0  0  0
  -21.6049   -4.3039   24.7223 C   0  0  0  0  0  0
  -21.8815   -3.8123   23.4344 C   0  0  0  0  0  0
  -21.9200   -4.6937   22.3400 C   0  0  0  0  0  0
  -22.7826  -13.5220   21.1846 C   0  0  0  0  0  0
  -22.1664   -4.2117   21.0977 F   0  0  0  0  0  0
  -21.5626   -3.4528   25.7739 F   0  0  0  0  0  0
  -30.0190  -13.3715   20.4079 N   0  0  0  0  0  0
  -26.2964  -12.9369   20.3370 N   0  0  0  0  0  0
  -25.9312  -11.6519   20.5810 N   0  0  0  0  0  0
  -22.0483  -12.8220   22.0410 N   0  0  0  0  0  0
  -25.4215  -15.1897   20.4062 N   0  0  0  0  0  0
  -31.8631  -14.6683   20.1418 O   0  0  0  0  0  0
  -21.6637   -6.8850   21.4218 O   0  0  0  0  0  0
  -22.3502  -14.5512   20.6670 O   0  0  0  0  0  0
  -24.6134  -31.8645   23.1989 C   0  0  0  0  0  0
  -25.8992  -32.4817   23.8318 C   0  0  1  0  0  0
  -27.2396  -27.4053   20.1241 C   0  0  0  0  0  0
  -25.5874  -33.8612   24.2274 N   0  0  0  0  0  0
  -23.4047  -30.4859   21.5366 C   0  0  2  0  0  0
  -24.8568  -28.9475   20.1032 C   0  0  0  0  0  0
  -22.7409  -29.4665   22.4901 C   0  0  0  0  0  0
  -18.0293  -28.1398   22.8494 C   0  0  0  0  0  0
  -24.1489  -36.7278   23.2645 C   0  0  0  0  0  0
  -25.9315  -30.8397   21.3394 C   0  0  0  0  0  0
  -26.0163  -29.4728   20.6821 C   0  0  0  0  0  0
  -27.2164  -28.7239   20.6596 C   0  0  0  0  0  0
  -26.0667  -26.9105   19.5218 C   0  0  0  0  0  0
  -24.8795  -27.6737   19.5070 C   0  0  0  0  0  0
  -23.6166  -29.8126   20.1537 C   0  0  0  0  0  0
  -25.4113  -36.3087   24.0347 C   0  0  1  0  0  0
  -20.5893  -28.3677   23.1301 C   0  0  2  0  0  0
  -20.6781  -26.9413   22.5407 C   0  0  0  0  0  0
  -19.5773  -26.6411   21.5201 C   0  0  0  0  0  0
  -18.1950  -26.7964   22.1621 C   0  0  0  0  0  0
  -19.1553  -28.8856   23.2910 C   0  0  0  0  0  0
  -18.9492  -30.1461   23.8930 C   0  0  0  0  0  0
  -17.6500  -30.6615   24.0588 C   0  0  0  0  0  0
  -25.9033  -34.9477   23.5090 C   0  0  0  0  0  0
  -16.5379  -29.9132   23.6336 C   0  0  0  0  0  0
  -16.7294  -28.6560   23.0327 C   0  0  0  0  0  0
  -26.4450  -31.6571   25.0617 C   0  0  0  0  0  0
  -25.3767  -31.3662   26.1396 C   0  0  0  0  0  0
  -27.0251  -30.3026   24.5898 C   0  0  0  0  0  0
  -27.6002  -32.4268   25.7428 C   0  0  0  0  0  0
  -27.5586  -37.1804   24.8499 C   0  0  0  0  0  0
  -21.4135  -29.3064   22.3697 N   0  0  0  0  0  0
  -26.4293  -37.3792   23.9453 N   0  0  0  0  0  0
  -24.6687  -31.0767   22.0856 N   0  0  0  0  0  0
  -23.4172  -28.8223   23.2968 O   0  0  0  0  0  0
  -28.3237  -26.5415   20.2565 O   0  0  0  0  0  0
  -26.5595  -34.8948   22.4653 O   0  0  0  0  0  0
  -23.5340  -32.1350   23.7422 O   0  0  0  0  0  0
  -30.7416  -19.1410   20.4442 C   0  0  0  0  0  0
  -28.4014  -18.7454   19.9707 C   0  0  0  0  0  0
  -30.4294  -20.4474   20.8843 C   0  0  0  0  0  0
  -28.0847  -20.0676   20.3981 C   0  0  0  0  0  0
  -29.7333  -18.2526   20.0033 C   0  0  0  0  0  0
  -29.0943  -20.9254   20.9039 C   0  0  0  0  0  0
  -28.2417  -24.6616   21.8685 C   0  0  0  0  0  0
  -28.9830  -22.0483   22.9882 C   0  0  0  0  0  0
  -28.4383  -25.9768   21.5239 C   0  0  0  0  0  0
  -27.9765  -24.3078   23.3252 C   0  0  0  0  0  0
  -28.2097  -23.3779   20.9868 C   0  0  0  0  0  0
  -28.9973  -23.3123   23.8340 C   0  0  0  0  0  0
  -28.7931  -27.0268   22.5740 C   0  0  0  0  0  0
  -29.5508  -16.6255   18.0539 C   0  0  0  0  0  0
  -30.1350  -16.8526   19.4645 C   0  0  2  0  0  0
  -28.7930  -22.1394   21.6386 N   0  0  0  0  0  0
  -29.8546  -15.6642   20.3195 N   0  0  0  0  0  0
  -29.1603  -20.9814   23.5894 O   0  0  0  0  0  0
  -31.4615  -12.4108   19.1448 H   0  0  0  0  0  0
  -30.3114  -11.3395   19.8971 H   0  0  0  0  0  0
  -29.7353  -11.7183   17.4705 H   0  0  0  0  0  0
  -29.6504  -13.4379   17.7424 H   0  0  0  0  0  0
  -27.8350  -11.2881   18.8710 H   0  0  0  0  0  0
  -27.3593  -12.5733   17.7971 H   0  0  0  0  0  0
  -27.6584  -14.2480   19.5043 H   0  0  0  0  0  0
  -28.6853  -12.0938   21.4231 H   0  0  0  0  0  0
  -28.4782  -13.7858   21.8046 H   0  0  0  0  0  0
  -25.2746   -9.5669   22.4767 H   0  0  0  0  0  0
  -23.9978   -7.4621   22.7477 H   0  0  0  0  0  0
  -21.0824   -8.8753   19.8968 H   0  0  0  0  0  0
  -22.3670  -10.9651   19.6158 H   0  0  0  0  0  0
  -21.2025   -7.6133   23.9684 H   0  0  0  0  0  0
  -21.1489   -6.0520   25.9066 H   0  0  0  0  0  0
  -22.0603   -2.7582   23.2856 H   0  0  0  0  0  0
  -22.4113  -11.9885   22.4793 H   0  0  0  0  0  0
  -21.1097  -13.1230   22.2628 H   0  0  0  0  0  0
  -24.6492  -15.8394   20.5078 H   0  0  0  0  0  0
  -26.2625  -15.6296   20.0576 H   0  0  0  0  0  0
  -26.7070  -32.5563   23.1102 H   0  0  0  0  0  0
  -25.0058  -33.9785   25.0438 H   0  0  0  0  0  0
  -22.6953  -31.3020   21.3931 H   0  0  0  0  0  0
  -23.3776  -35.9587   23.3325 H   0  0  0  0  0  0
  -24.3593  -36.8846   22.2055 H   0  0  0  0  0  0
  -23.7212  -37.6476   23.6641 H   0  0  0  0  0  0
  -26.0252  -31.6053   20.5678 H   0  0  0  0  0  0
  -26.8220  -30.9026   21.9527 H   0  0  0  0  0  0
  -28.1035  -29.1512   21.1007 H   0  0  0  0  0  0
  -26.0614  -25.9114   19.1044 H   0  0  0  0  0  0
  -23.9825  -27.2632   19.0656 H   0  0  0  0  0  0
  -23.7313  -30.5854   19.3917 H   0  0  0  0  0  0
  -22.7420  -29.2335   19.8533 H   0  0  0  0  0  0
  -25.1304  -36.1903   25.0840 H   0  0  0  0  0  0
  -21.0030  -28.3263   24.1391 H   0  0  0  0  0  0
  -20.5669  -26.2291   23.3585 H   0  0  0  0  0  0
  -21.6656  -26.7448   22.1206 H   0  0  0  0  0  0
  -19.6916  -25.6314   21.1231 H   0  0  0  0  0  0
  -19.6742  -27.3230   20.6746 H   0  0  0  0  0  0
  -17.4223  -26.6716   21.4028 H   0  0  0  0  0  0
  -18.0367  -26.0097   22.9019 H   0  0  0  0  0  0
  -19.7969  -30.7281   24.2305 H   0  0  0  0  0  0
  -17.5065  -31.6292   24.5195 H   0  0  0  0  0  0
  -15.5384  -30.3063   23.7632 H   0  0  0  0  0  0
  -15.8694  -28.0909   22.6986 H   0  0  0  0  0  0
  -24.5959  -30.6950   25.7806 H   0  0  0  0  0  0
  -24.8941  -32.2803   26.4853 H   0  0  0  0  0  0
  -25.8194  -30.8895   27.0144 H   0  0  0  0  0  0
  -26.2752  -29.6810   24.0983 H   0  0  0  0  0  0
  -27.4084  -29.7186   25.4270 H   0  0  0  0  0  0
  -27.8555  -30.4383   23.8955 H   0  0  0  0  0  0
  -27.2614  -33.3589   26.1983 H   0  0  0  0  0  0
  -28.3881  -32.6762   25.0305 H   0  0  0  0  0  0
  -28.0567  -31.8360   26.5373 H   0  0  0  0  0  0
  -28.2618  -38.0095   24.7540 H   0  0  0  0  0  0
  -28.1061  -36.2631   24.6322 H   0  0  0  0  0  0
  -27.2323  -37.1418   25.8906 H   0  0  0  0  0  0
  -20.9253  -29.8808   21.6967 H   0  0  0  0  0  0
  -26.0155  -38.2853   24.1479 H   0  0  0  0  0  0
  -31.7745  -18.8199   20.4632 H   0  0  0  0  0  0
  -27.6030  -18.1094   19.6137 H   0  0  0  0  0  0
  -31.2257  -21.0658   21.2759 H   0  0  0  0  0  0
  -27.0549  -20.3920   20.3995 H   0  0  0  0  0  0
  -26.9830  -23.8581   23.3759 H   0  0  0  0  0  0
  -27.9184  -25.1609   23.9984 H   0  0  0  0  0  0
  -28.7068  -23.5707   20.0348 H   0  0  0  0  0  0
  -27.1686  -23.1614   20.7515 H   0  0  0  0  0  0
  -29.9998  -23.7392   23.8078 H   0  0  0  0  0  0
  -28.7851  -23.0588   24.8725 H   0  0  0  0  0  0
  -29.4138  -26.6031   23.3633 H   0  0  0  0  0  0
  -27.9025  -27.4587   23.0315 H   0  0  0  0  0  0
  -29.4061  -27.8129   22.1312 H   0  0  0  0  0  0
  -29.8049  -17.4481   17.3846 H   0  0  0  0  0  0
  -28.4641  -16.5403   18.0604 H   0  0  0  0  0  0
  -29.9516  -15.7209   17.5953 H   0  0  0  0  0  0
  -31.2161  -16.9076   19.3150 H   0  0  0  0  0  0
  -28.8900  -15.5173   20.5673 H   0  0  0  0  0  0
  1 25  1  0  0  0
  1 30  2  0  0  0
  1 87  1  0  0  0
  2  3  1  0  0  0
  2 25  1  0  0  0
  2 89  1  0  0  0
  2 90  1  0  0  0
  3  4  1  0  0  0
  3 91  1  0  0  0
  3 92  1  0  0  0
  4  5  1  0  0  0
  4 93  1  0  0  0
  4 94  1  0  0  0
  5  6  1  0  0  0
  5 26  1  0  0  0
  5 95  1  0  0  0
  6 25  1  0  0  0
  6 96  1  0  0  0
  6 97  1  0  0  0
  7  8  2  0  0  0
  7 26  1  0  0  0
  7 29  1  0  0  0
  8  9  1  0  0  0
  8 22  1  0  0  0
  9 10  1  0  0  0
  9 27  2  0  0  0
 10 11  2  0  0  0
 10 15  1  0  0  0
 11 12  1  0  0  0
 11 98  1  0  0  0
 12 13  2  0  0  0
 12 99  1  0  0  0
 13 14  1  0  0  0
 13 31  1  0  0  0
 14 15  2  0  0  0
 14100  1  0  0  0
 15101  1  0  0  0
 16 17  2  0  0  0
 16 21  1  0  0  0
 16 31  1  0  0  0
 17 18  1  0  0  0
 17102  1  0  0  0
 18 19  2  0  0  0
 18103  1  0  0  0
 19 20  1  0  0  0
 19 24  1  0  0  0
 20 21  2  0  0  0
 20104  1  0  0  0
 21 23  1  0  0  0
 22 28  1  0  0  0
 22 32  2  0  0  0
 26 27  1  0  0  0
 28105  1  0  0  0
 28106  1  0  0  0
 29107  1  0  0  0
 29108  1  0  0  0
 33 34  1  0  0  0
 33 66  1  0  0  0
 33 70  2  0  0  0
 34 36  1  0  0  0
 34 59  1  0  0  0
 34109  1  0  0  0
 35 44  2  0  0  0
 35 45  1  0  0  0
 35 68  1  0  0  0
 36 56  1  0  0  0
 36110  1  0  0  0
 37 39  1  0  0  0
 37 47  1  0  0  0
 37 66  1  0  0  0
 37111  1  0  0  0
 38 43  2  0  0  0
 38 46  1  0  0  0
 38 47  1  0  0  0
 39 64  1  0  0  0
 39 67  2  0  0  0
 40 52  1  0  0  0
 40 53  2  0  0  0
 40 58  1  0  0  0
 41112  1  0  0  0
 41113  1  0  0  0
 41114  1  0  0  0
 41 48  1  0  0  0
 42 43  1  0  0  0
 42 66  1  0  0  0
 42115  1  0  0  0
 42116  1  0  0  0
 43 44  1  0  0  0
 44117  1  0  0  0
 45 46  2  0  0  0
 45118  1  0  0  0
 46119  1  0  0  0
 47120  1  0  0  0
 47121  1  0  0  0
 48 56  1  0  0  0
 48 65  1  0  0  0
 48122  1  0  0  0
 49 50  1  0  0  0
 49 53  1  0  0  0
 49 64  1  0  0  0
 49123  1  0  0  0
 50 51  1  0  0  0
 50124  1  0  0  0
 50125  1  0  0  0
 51 52  1  0  0  0
 51126  1  0  0  0
 51127  1  0  0  0
 52128  1  0  0  0
 52129  1  0  0  0
 53 54  1  0  0  0
 54 55  2  0  0  0
 54130  1  0  0  0
 55 57  1  0  0  0
 55131  1  0  0  0
 56 69  2  0  0  0
 57 58  2  0  0  0
 57132  1  0  0  0
 58133  1  0  0  0
 59 60  1  0  0  0
 59 61  1  0  0  0
 59 62  1  0  0  0
 60134  1  0  0  0
 60135  1  0  0  0
 60136  1  0  0  0
 61137  1  0  0  0
 61138  1  0  0  0
 61139  1  0  0  0
 62140  1  0  0  0
 62141  1  0  0  0
 62142  1  0  0  0
 63 65  1  0  0  0
 63143  1  0  0  0
 63144  1  0  0  0
 63145  1  0  0  0
 64146  1  0  0  0
 65147  1  0  0  0
 68 79  1  0  0  0
 71 73  2  0  0  0
 71 75  1  0  0  0
 71148  1  0  0  0
 72 74  1  0  0  0
 72 75  2  0  0  0
 72149  1  0  0  0
 73 76  1  0  0  0
 73150  1  0  0  0
 74 76  2  0  0  0
 74151  1  0  0  0
 75 85  1  0  0  0
 76 86  1  0  0  0
 77 79  2  0  0  0
 77 80  1  0  0  0
 77 81  1  0  0  0
 78 82  1  0  0  0
 78 86  1  0  0  0
 78 88  2  0  0  0
 79 83  1  0  0  0
 80 82  1  0  0  0
 80152  1  0  0  0
 80153  1  0  0  0
 81 86  1  0  0  0
 81154  1  0  0  0
 81155  1  0  0  0
 82156  1  0  0  0
 82157  1  0  0  0
 83158  1  0  0  0
 83159  1  0  0  0
 83160  1  0  0  0
 84161  1  0  0  0
 84162  1  0  0  0
 84163  1  0  0  0
 84 85  1  0  0  0
 85 87  1  0  0  0
 85164  1  0  0  0
 87165  1  0  0  0
M  ISO  4   1 100  68 101  79 101  87 100
M  END
> <chiral flag>
0

> <version>
0

> <s_m_source_file>
/data/baiqing/PycharmProjects/Reinvent-master-3.2/result/LINK_invent/BTK/process_docking_weight1_custom_product_contain_oxygen_bond_distance_aromatic_linkinvent_7_9_3/rearranged_h_0077.sdf

> <i_m_source_file_index>
33

> <r_mmod_Potential_Energy-OPLS-2005>
147.103469848633

> <r_mmod_Stretch_Energy-OPLS-2005>
62.8743705749512

> <r_mmod_Bend_Energy-OPLS-2005>
120.693634033203

> <r_mmod_Torsional_Energy-OPLS-2005>
346.997375488281

> <r_mmod_Improper_Torsional_Energy-OPLS-2005>
13.9047164916992

> <r_mmod_Van_der_Waal_Energy-OPLS-2005>
165.925003051758

> <r_mmod_Electrostatic_Energy-OPLS-2005>
-387.066131591797

> <r_mmod_Solvation_Energy-OPLS-2005>
-215.62744140625

> <b_mmod_Minimization_Converged-OPLS-2005>
0

> <r_mmod_RMS_Derivative-OPLS-2005>
4.22489881515503

$$$$
33
                    3D
 Structure written by MMmdl.
157166  0  0  1  0            999 V2000
  -30.6197  -14.7759   20.5597 C   0  0  0  0  0  0
  -30.4387  -12.4967   19.4850 C   0  0  0  0  0  0
  -29.5175  -12.5415   18.2439 C   0  0  0  0  0  0
  -28.0439  -12.3437   18.6471 C   0  0  0  0  0  0
  -27.6446  -13.2310   19.8521 C   0  0  2  0  0  0
  -28.6782  -13.1358   20.9889 C   0  0  0  0  0  0
  -25.2520  -13.8195   20.5674 C   0  0  0  0  0  0
  -24.1804  -13.0437   20.9160 C   0  0  0  0  0  0
  -24.6390  -11.6913   20.8695 C   0  0  0  0  0  0
  -23.9062  -10.4292   21.0371 C   0  0  0  0  0  0
  -24.3611   -9.4215   21.9156 C   0  0  0  0  0  0
  -23.6281   -8.2258   22.0740 C   0  0  0  0  0  0
  -22.4265   -8.0287   21.3540 C   0  0  0  0  0  0
  -21.9894   -9.0257   20.4646 C   0  0  0  0  0  0
  -22.7221  -10.2133   20.3040 C   0  0  0  0  0  0
  -21.6858   -6.0727   22.5273 C   0  0  0  0  0  0
  -21.4021   -6.5632   23.8207 C   0  0  0  0  0  0
  -21.3661   -5.6790   24.9171 C   0  0  0  0  0  0
  -21.6047   -4.3051   24.7226 C   0  0  0  0  0  0
  -21.8818   -3.8134   23.4348 C   0  0  0  0  0  0
  -21.9193   -4.6951   22.3401 C   0  0  0  0  0  0
  -22.7838  -13.5224   21.1854 C   0  0  0  0  0  0
  -22.1660   -4.2128   21.0979 F   0  0  0  0  0  0
  -21.5621   -3.4539   25.7742 F   0  0  0  0  0  0
  -29.9892  -13.5400   20.4468 N   0  0  0  0  0  0
  -26.2938  -12.9392   20.3240 N   0  0  0  0  0  0
  -25.9316  -11.6536   20.5690 N   0  0  0  0  0  0
  -22.0503  -12.8220   22.0433 N   0  0  0  0  0  0
  -25.4231  -15.1924   20.4160 N   0  0  0  0  0  0
  -31.7223  -14.9278   20.0209 O   0  0  0  0  0  0
  -21.6641   -6.8870   21.4238 O   0  0  0  0  0  0
  -22.3517  -14.5529   20.6704 O   0  0  0  0  0  0
  -24.6352  -31.8507   23.1958 C   0  0  0  0  0  0
  -25.9159  -32.4734   23.8313 C   0  0  1  0  0  0
  -27.2255  -27.2302   20.1153 C   0  0  0  0  0  0
  -25.5931  -33.8535   24.2236 N   0  0  0  0  0  0
  -23.4340  -30.4734   21.5401 C   0  0  2  0  0  0
  -24.8820  -28.9171   20.1066 C   0  0  0  0  0  0
  -22.7523  -29.4576   22.4894 C   0  0  0  0  0  0
  -18.0297  -28.1388   22.8488 C   0  0  0  0  0  0
  -24.1487  -36.7270   23.2645 C   0  0  0  0  0  0
  -25.9839  -30.7526   21.3815 C   0  0  0  0  0  0
  -26.0563  -29.3741   20.7177 C   0  0  0  0  0  0
  -27.2282  -28.5433   20.7119 C   0  0  0  0  0  0
  -26.0157  -26.8419   19.4958 C   0  0  0  0  0  0
  -24.8688  -27.6603   19.4834 C   0  0  0  0  0  0
  -23.6542  -29.8081   20.1562 C   0  0  0  0  0  0
  -25.4114  -36.3057   24.0332 C   0  0  1  0  0  0
  -20.5904  -28.3699   23.1264 C   0  0  2  0  0  0
  -20.6781  -26.9411   22.5411 C   0  0  0  0  0  0
  -19.5753  -26.6378   21.5217 C   0  0  0  0  0  0
  -18.1936  -26.7930   22.1630 C   0  0  0  0  0  0
  -19.1552  -28.8863   23.2869 C   0  0  0  0  0  0
  -18.9472  -30.1465   23.8887 C   0  0  0  0  0  0
  -17.6468  -30.6589   24.0562 C   0  0  0  0  0  0
  -25.9058  -34.9426   23.5087 C   0  0  0  0  0  0
  -16.5359  -29.9085   23.6332 C   0  0  0  0  0  0
  -16.7283  -28.6502   23.0355 C   0  0  0  0  0  0
  -26.4514  -31.6580   25.0721 C   0  0  0  0  0  0
  -25.3732  -31.3739   26.1439 C   0  0  0  0  0  0
  -27.0387  -30.2999   24.6242 C   0  0  0  0  0  0
  -27.6063  -32.4339   25.7482 C   0  0  0  0  0  0
  -27.5579  -37.1787   24.8467 C   0  0  0  0  0  0
  -21.4225  -29.3034   22.3642 N   0  0  0  0  0  0
  -26.4287  -37.3761   23.9416 N   0  0  0  0  0  0
  -24.7037  -31.0440   22.0949 N   0  0  0  0  0  0
  -23.4205  -28.8117   23.3011 O   0  0  0  0  0  0
  -28.3040  -26.3004   20.2075 O   0  0  0  0  0  0
  -26.5636  -34.8905   22.4661 O   0  0  0  0  0  0
  -23.5492  -32.1341   23.7230 O   0  0  0  0  0  0
  -29.7692  -19.7269   21.7051 C   0  0  0  0  0  0
  -29.2197  -19.2557   19.4838 C   0  0  0  0  0  0
  -30.0435  -18.3345   21.9286 C   0  0  0  0  0  0
  -29.4725  -17.8422   19.6978 C   0  0  0  0  0  0
  -29.3235  -20.2958   20.4757 C   0  0  0  0  0  0
  -29.8758  -17.2945   20.9552 C   0  0  0  0  0  0
  -28.6417  -23.7595   19.8176 C   0  0  0  0  0  0
  -28.8728  -22.9830   21.0443 C   0  0  0  0  0  0
  -28.9832  -15.9686   23.5165 C   0  0  0  0  0  0
  -29.9137  -15.4910   22.6694 C   0  0  0  0  0  0
  -28.3933  -25.0894   19.4372 C   0  0  0  0  0  0
  -28.8081  -22.4381   19.0087 C   0  0  0  0  0  0
  -28.3352  -25.3924   17.9457 C   0  0  0  0  0  0
  -29.0224  -21.7608   20.3046 N   0  0  0  0  0  0
  -30.0406  -15.8197   21.3010 N   0  0  0  0  0  0
  -28.9148  -23.3209   22.2096 O   0  0  0  0  0  0
  -31.4775  -12.6353   19.1824 H   0  0  0  0  0  0
  -30.4030  -11.5113   19.9530 H   0  0  0  0  0  0
  -29.8122  -11.7767   17.5246 H   0  0  0  0  0  0
  -29.6323  -13.5011   17.7378 H   0  0  0  0  0  0
  -27.9072  -11.2916   18.9004 H   0  0  0  0  0  0
  -27.3891  -12.5395   17.7973 H   0  0  0  0  0  0
  -27.6491  -14.2610   19.4941 H   0  0  0  0  0  0
  -28.7266  -12.1196   21.3831 H   0  0  0  0  0  0
  -28.3417  -13.7519   21.8179 H   0  0  0  0  0  0
  -25.2761   -9.5690   22.4720 H   0  0  0  0  0  0
  -23.9982   -7.4659   22.7474 H   0  0  0  0  0  0
  -21.0810   -8.8779   19.8973 H   0  0  0  0  0  0
  -22.3663  -10.9666   19.6150 H   0  0  0  0  0  0
  -21.2020   -7.6144   23.9705 H   0  0  0  0  0  0
  -21.1483   -6.0520   25.9072 H   0  0  0  0  0  0
  -22.0592   -2.7593   23.2864 H   0  0  0  0  0  0
  -22.4128  -11.9877   22.4804 H   0  0  0  0  0  0
  -21.1131  -13.1255   22.2675 H   0  0  0  0  0  0
  -24.6614  -15.8497   20.5406 H   0  0  0  0  0  0
  -26.2927  -15.6380   20.1490 H   0  0  0  0  0  0
  -26.7217  -32.5368   23.1042 H   0  0  0  0  0  0
  -25.0072  -33.9660   25.0377 H   0  0  0  0  0  0
  -22.7324  -31.2975   21.3933 H   0  0  0  0  0  0
  -23.3748  -35.9604   23.3311 H   0  0  0  0  0  0
  -24.3576  -36.8888   22.2058 H   0  0  0  0  0  0
  -23.7237  -37.6471   23.6664 H   0  0  0  0  0  0
  -26.1314  -31.5153   20.6155 H   0  0  0  0  0  0
  -26.8572  -30.7968   22.0210 H   0  0  0  0  0  0
  -28.1244  -28.8851   21.2104 H   0  0  0  0  0  0
  -25.9248  -25.8671   19.0400 H   0  0  0  0  0  0
  -23.9682  -27.3013   19.0046 H   0  0  0  0  0  0
  -23.7810  -30.5854   19.4023 H   0  0  0  0  0  0
  -22.7708  -29.2466   19.8476 H   0  0  0  0  0  0
  -25.1295  -36.1905   25.0826 H   0  0  0  0  0  0
  -21.0000  -28.3284   24.1384 H   0  0  0  0  0  0
  -20.5677  -26.2310   23.3621 H   0  0  0  0  0  0
  -21.6649  -26.7424   22.1209 H   0  0  0  0  0  0
  -19.6911  -25.6286   21.1254 H   0  0  0  0  0  0
  -19.6690  -27.3184   20.6745 H   0  0  0  0  0  0
  -17.4203  -26.6681   21.4035 H   0  0  0  0  0  0
  -18.0332  -26.0074   22.9026 H   0  0  0  0  0  0
  -19.7947  -30.7288   24.2250 H   0  0  0  0  0  0
  -17.5019  -31.6267   24.5167 H   0  0  0  0  0  0
  -15.5359  -30.2981   23.7658 H   0  0  0  0  0  0
  -15.8686  -28.0816   22.7074 H   0  0  0  0  0  0
  -24.5899  -30.7097   25.7760 H   0  0  0  0  0  0
  -24.8931  -32.2913   26.4858 H   0  0  0  0  0  0
  -25.8043  -30.8911   27.0220 H   0  0  0  0  0  0
  -26.2996  -29.6718   24.1254 H   0  0  0  0  0  0
  -27.4054  -29.7290   25.4783 H   0  0  0  0  0  0
  -27.8871  -30.4277   23.9517 H   0  0  0  0  0  0
  -27.2669  -33.3644   26.2039 H   0  0  0  0  0  0
  -28.3867  -32.6895   25.0302 H   0  0  0  0  0  0
  -28.0738  -31.8484   26.5408 H   0  0  0  0  0  0
  -28.2599  -38.0081   24.7512 H   0  0  0  0  0  0
  -28.1073  -36.2614   24.6294 H   0  0  0  0  0  0
  -27.2301  -37.1436   25.8871 H   0  0  0  0  0  0
  -20.9421  -29.8752   21.6836 H   0  0  0  0  0  0
  -26.0165  -38.2836   24.1415 H   0  0  0  0  0  0
  -29.9130  -20.3934   22.5439 H   0  0  0  0  0  0
  -28.9032  -19.5462   18.4923 H   0  0  0  0  0  0
  -30.3826  -18.0794   22.9219 H   0  0  0  0  0  0
  -29.3179  -17.1698   18.8666 H   0  0  0  0  0  0
  -28.9790  -15.6645   24.5543 H   0  0  0  0  0  0
  -28.2150  -16.6584   23.1982 H   0  0  0  0  0  0
  -30.6633  -14.7935   23.0270 H   0  0  0  0  0  0
  -29.6850  -22.3563   18.3638 H   0  0  0  0  0  0
  -27.9260  -22.0544   18.4926 H   0  0  0  0  0  0
  -29.2718  -25.0973   17.4710 H   0  0  0  0  0  0
  -28.1854  -26.4506   17.7336 H   0  0  0  0  0  0
  -27.5284  -24.8308   17.4727 H   0  0  0  0  0  0
  1 25  1  0  0  0
  1 30  2  0  0  0
  1 85  1  0  0  0
  2  3  1  0  0  0
  2 25  1  0  0  0
  2 87  1  0  0  0
  2 88  1  0  0  0
  3  4  1  0  0  0
  3 89  1  0  0  0
  3 90  1  0  0  0
  4  5  1  0  0  0
  4 91  1  0  0  0
  4 92  1  0  0  0
  5  6  1  0  0  0
  5 26  1  0  0  0
  5 93  1  0  0  0
  6 25  1  0  0  0
  6 94  1  0  0  0
  6 95  1  0  0  0
  7  8  2  0  0  0
  7 26  1  0  0  0
  7 29  1  0  0  0
  8  9  1  0  0  0
  8 22  1  0  0  0
  9 10  1  0  0  0
  9 27  2  0  0  0
 10 11  2  0  0  0
 10 15  1  0  0  0
 11 12  1  0  0  0
 11 96  1  0  0  0
 12 13  2  0  0  0
 12 97  1  0  0  0
 13 14  1  0  0  0
 13 31  1  0  0  0
 14 15  2  0  0  0
 14 98  1  0  0  0
 15 99  1  0  0  0
 16 17  2  0  0  0
 16 21  1  0  0  0
 16 31  1  0  0  0
 17 18  1  0  0  0
 17100  1  0  0  0
 18 19  2  0  0  0
 18101  1  0  0  0
 19 20  1  0  0  0
 19 24  1  0  0  0
 20 21  2  0  0  0
 20102  1  0  0  0
 21 23  1  0  0  0
 22 28  1  0  0  0
 22 32  2  0  0  0
 26 27  1  0  0  0
 28103  1  0  0  0
 28104  1  0  0  0
 29105  1  0  0  0
 29106  1  0  0  0
 33 34  1  0  0  0
 33 66  1  0  0  0
 33 70  2  0  0  0
 34 36  1  0  0  0
 34 59  1  0  0  0
 34107  1  0  0  0
 35 44  2  0  0  0
 35 45  1  0  0  0
 35 68  1  0  0  0
 36 56  1  0  0  0
 36108  1  0  0  0
 37 39  1  0  0  0
 37 47  1  0  0  0
 37 66  1  0  0  0
 37109  1  0  0  0
 38 43  2  0  0  0
 38 46  1  0  0  0
 38 47  1  0  0  0
 39 64  1  0  0  0
 39 67  2  0  0  0
 40 52  1  0  0  0
 40 53  2  0  0  0
 40 58  1  0  0  0
 41110  1  0  0  0
 41111  1  0  0  0
 41112  1  0  0  0
 41 48  1  0  0  0
 42 43  1  0  0  0
 42 66  1  0  0  0
 42113  1  0  0  0
 42114  1  0  0  0
 43 44  1  0  0  0
 44115  1  0  0  0
 45 46  2  0  0  0
 45116  1  0  0  0
 46117  1  0  0  0
 47118  1  0  0  0
 47119  1  0  0  0
 48 56  1  0  0  0
 48 65  1  0  0  0
 48120  1  0  0  0
 49 50  1  0  0  0
 49 53  1  0  0  0
 49 64  1  0  0  0
 49121  1  0  0  0
 50 51  1  0  0  0
 50122  1  0  0  0
 50123  1  0  0  0
 51 52  1  0  0  0
 51124  1  0  0  0
 51125  1  0  0  0
 52126  1  0  0  0
 52127  1  0  0  0
 53 54  1  0  0  0
 54 55  2  0  0  0
 54128  1  0  0  0
 55 57  1  0  0  0
 55129  1  0  0  0
 56 69  2  0  0  0
 57 58  2  0  0  0
 57130  1  0  0  0
 58131  1  0  0  0
 59 60  1  0  0  0
 59 61  1  0  0  0
 59 62  1  0  0  0
 60132  1  0  0  0
 60133  1  0  0  0
 60134  1  0  0  0
 61135  1  0  0  0
 61136  1  0  0  0
 61137  1  0  0  0
 62138  1  0  0  0
 62139  1  0  0  0
 62140  1  0  0  0
 63 65  1  0  0  0
 63141  1  0  0  0
 63142  1  0  0  0
 63143  1  0  0  0
 64144  1  0  0  0
 65145  1  0  0  0
 68 81  1  0  0  0
 71 73  2  0  0  0
 71 75  1  0  0  0
 71146  1  0  0  0
 72 74  1  0  0  0
 72 75  2  0  0  0
 72147  1  0  0  0
 73 76  1  0  0  0
 73148  1  0  0  0
 74 76  2  0  0  0
 74149  1  0  0  0
 75 84  1  0  0  0
 76 85  1  0  0  0
 77 78  1  0  0  0
 77 81  2  0  0  0
 77 82  1  0  0  0
 78 84  1  0  0  0
 78 86  2  0  0  0
 79 80  2  0  0  0
 79150  1  0  0  0
 79151  1  0  0  0
 80 85  1  0  0  0
 80152  1  0  0  0
 81 83  1  0  0  0
 82 84  1  0  0  0
 82153  1  0  0  0
 82154  1  0  0  0
 83155  1  0  0  0
 83156  1  0  0  0
 83157  1  0  0  0
M  ISO  4   1 100  68 101  81 101  85 100
M  END
> <chiral flag>
0

> <version>
0

> <s_m_source_file>
/data/baiqing/PycharmProjects/Reinvent-master-3.2/result/LINK_invent/BTK/process_docking_weight1_custom_product_contain_oxygen_bond_distance_aromatic_linkinvent_7_9_3/rearranged_h_0077.sdf

> <i_m_source_file_index>
34

> <r_mmod_Potential_Energy-OPLS-2005>
499.074676513672

> <r_mmod_Stretch_Energy-OPLS-2005>
146.21728515625

> <r_mmod_Bend_Energy-OPLS-2005>
274.317901611328

> <r_mmod_Torsional_Energy-OPLS-2005>
309.19970703125

> <r_mmod_Improper_Torsional_Energy-OPLS-2005>
2.97191596031189

> <r_mmod_Van_der_Waal_Energy-OPLS-2005>
151.861526489258

> <r_mmod_Electrostatic_Energy-OPLS-2005>
-277.517700195312

> <r_mmod_Solvation_Energy-OPLS-2005>
-209.658325195312

> <b_mmod_Minimization_Converged-OPLS-2005>
0

> <r_mmod_RMS_Derivative-OPLS-2005>
1.2600314617157

$$$$
34
                    3D
 Structure written by MMmdl.
150158  0  0  1  0            999 V2000
  -30.5395  -14.6376   20.6230 C   0  0  0  0  0  0
  -30.4478  -12.4222   19.4325 C   0  0  0  0  0  0
  -29.5051  -12.5529   18.2115 C   0  0  0  0  0  0
  -28.0220  -12.3834   18.6077 C   0  0  0  0  0  0
  -27.6509  -13.1988   19.8747 C   0  0  2  0  0  0
  -28.6865  -12.9612   20.9901 C   0  0  0  0  0  0
  -25.2502  -13.8055   20.5521 C   0  0  0  0  0  0
  -24.1762  -13.0393   20.9148 C   0  0  0  0  0  0
  -24.6338  -11.6882   20.8742 C   0  0  0  0  0  0
  -23.9026  -10.4286   21.0419 C   0  0  0  0  0  0
  -24.3605   -9.4231   21.9206 C   0  0  0  0  0  0
  -23.6305   -8.2258   22.0772 C   0  0  0  0  0  0
  -22.4282   -8.0299   21.3553 C   0  0  0  0  0  0
  -21.9907   -9.0273   20.4640 C   0  0  0  0  0  0
  -22.7215  -10.2154   20.3061 C   0  0  0  0  0  0
  -21.6883   -6.0766   22.5279 C   0  0  0  0  0  0
  -21.4024   -6.5668   23.8210 C   0  0  0  0  0  0
  -21.3655   -5.6805   24.9162 C   0  0  0  0  0  0
  -21.6043   -4.3064   24.7208 C   0  0  0  0  0  0
  -21.8830   -3.8166   23.4330 C   0  0  0  0  0  0
  -21.9201   -4.6989   22.3397 C   0  0  0  0  0  0
  -22.7801  -13.5247   21.1822 C   0  0  0  0  0  0
  -22.1680   -4.2180   21.0974 F   0  0  0  0  0  0
  -21.5617   -3.4545   25.7717 F   0  0  0  0  0  0
  -29.9969  -13.3834   20.4614 N   0  0  0  0  0  0
  -26.2933  -12.9218   20.3284 N   0  0  0  0  0  0
  -25.9254  -11.6405   20.5755 N   0  0  0  0  0  0
  -22.0463  -12.8251   22.0393 N   0  0  0  0  0  0
  -25.4239  -15.1707   20.3645 N   0  0  0  0  0  0
  -31.6283  -14.9101   20.1118 O   0  0  0  0  0  0
  -21.6659   -6.8890   21.4238 O   0  0  0  0  0  0
  -22.3512  -14.5579   20.6692 O   0  0  0  0  0  0
  -24.6247  -31.8619   23.1998 C   0  0  0  0  0  0
  -25.9086  -32.4791   23.8358 C   0  0  1  0  0  0
  -27.2328  -27.3022   20.1287 C   0  0  0  0  0  0
  -25.5922  -33.8593   24.2291 N   0  0  0  0  0  0
  -23.4244  -30.4765   21.5437 C   0  0  2  0  0  0
  -24.8780  -28.9256   20.1177 C   0  0  0  0  0  0
  -22.7526  -29.4582   22.4962 C   0  0  0  0  0  0
  -18.0299  -28.1409   22.8487 C   0  0  0  0  0  0
  -24.1489  -36.7273   23.2616 C   0  0  0  0  0  0
  -25.9687  -30.7761   21.3864 C   0  0  0  0  0  0
  -26.0433  -29.3998   20.7337 C   0  0  0  0  0  0
  -27.2238  -28.5945   20.7399 C   0  0  0  0  0  0
  -26.0490  -26.8810   19.4871 C   0  0  0  0  0  0
  -24.8819  -27.6698   19.4874 C   0  0  0  0  0  0
  -23.6489  -29.8092   20.1596 C   0  0  0  0  0  0
  -25.4112  -36.3072   24.0317 C   0  0  1  0  0  0
  -20.5898  -28.3702   23.1314 C   0  0  2  0  0  0
  -20.6793  -26.9442   22.5428 C   0  0  0  0  0  0
  -19.5740  -26.6404   21.5252 C   0  0  0  0  0  0
  -18.1917  -26.7935   22.1668 C   0  0  0  0  0  0
  -19.1547  -28.8887   23.2873 C   0  0  0  0  0  0
  -18.9467  -30.1498   23.8879 C   0  0  0  0  0  0
  -17.6464  -30.6602   24.0571 C   0  0  0  0  0  0
  -25.9069  -34.9452   23.5113 C   0  0  0  0  0  0
  -16.5360  -29.9094   23.6341 C   0  0  0  0  0  0
  -16.7289  -28.6523   23.0333 C   0  0  0  0  0  0
  -26.4441  -31.6598   25.0762 C   0  0  0  0  0  0
  -25.3634  -31.3815   26.1487 C   0  0  0  0  0  0
  -27.0257  -30.2985   24.6278 C   0  0  0  0  0  0
  -27.6031  -32.4320   25.7516 C   0  0  0  0  0  0
  -27.5607  -37.1765   24.8429 C   0  0  0  0  0  0
  -21.4247  -29.3036   22.3726 N   0  0  0  0  0  0
  -26.4266  -37.3805   23.9462 N   0  0  0  0  0  0
  -24.6900  -31.0574   22.0987 N   0  0  0  0  0  0
  -23.4228  -28.8133   23.3059 O   0  0  0  0  0  0
  -28.3272  -26.4246   20.1299 O   0  0  0  0  0  0
  -26.5643  -34.8922   22.4684 O   0  0  0  0  0  0
  -23.5405  -32.1467   23.7295 O   0  0  0  0  0  0
  -27.8167  -18.4905   22.1764 C   0  0  0  0  0  0
  -29.8765  -19.1779   20.1675 C   0  0  0  0  0  0
  -28.4283  -17.2897   22.1560 C   0  0  0  0  0  0
  -30.1167  -17.8220   20.2892 C   0  0  0  0  0  0
  -28.0177  -19.6621   21.5389 C   0  0  0  0  0  0
  -28.9844  -20.0805   20.6925 C   0  0  0  0  0  0
  -29.4782  -16.8080   21.2186 C   0  0  0  0  0  0
  -28.8123  -23.9480   20.2296 C   0  0  0  0  0  0
  -28.1046  -25.0901   20.5470 C   0  0  0  0  0  0
  -28.4645  -22.6206   20.8258 C   0  0  0  0  0  0
  -29.6933  -15.5203   21.3413 N   0  0  0  0  0  0
  -29.0840  -21.4907   20.3147 N   0  0  0  0  0  0
  -27.6774  -22.5606   21.7742 O   0  0  0  0  0  0
  -31.4809  -12.6075   19.1309 H   0  0  0  0  0  0
  -30.4267  -11.4034   19.8231 H   0  0  0  0  0  0
  -29.7690  -11.8263   17.4402 H   0  0  0  0  0  0
  -29.6446  -13.5373   17.7581 H   0  0  0  0  0  0
  -27.8312  -11.3228   18.7801 H   0  0  0  0  0  0
  -27.3762  -12.6729   17.7758 H   0  0  0  0  0  0
  -27.6937  -14.2534   19.6055 H   0  0  0  0  0  0
  -28.7072  -11.9028   21.2534 H   0  0  0  0  0  0
  -28.3994  -13.4731   21.9117 H   0  0  0  0  0  0
  -25.2763   -9.5763   22.4754 H   0  0  0  0  0  0
  -24.0051   -7.4673   22.7495 H   0  0  0  0  0  0
  -21.0846   -8.8807   19.8928 H   0  0  0  0  0  0
  -22.3703  -10.9712   19.6174 H   0  0  0  0  0  0
  -21.2033   -7.6179   23.9714 H   0  0  0  0  0  0
  -21.1451   -6.0536   25.9063 H   0  0  0  0  0  0
  -22.0599   -2.7634   23.2814 H   0  0  0  0  0  0
  -22.4135  -11.9920   22.4741 H   0  0  0  0  0  0
  -21.1110  -13.1275   22.2724 H   0  0  0  0  0  0
  -24.6173  -15.7820   20.3101 H   0  0  0  0  0  0
  -26.2193  -15.5128   19.8390 H   0  0  0  0  0  0
  -26.7169  -32.5484   23.1128 H   0  0  0  0  0  0
  -25.0048  -33.9750   25.0418 H   0  0  0  0  0  0
  -22.7181  -31.2952   21.3933 H   0  0  0  0  0  0
  -23.3784  -35.9567   23.3209 H   0  0  0  0  0  0
  -24.3615  -36.8966   22.2048 H   0  0  0  0  0  0
  -23.7192  -37.6440   23.6673 H   0  0  0  0  0  0
  -26.1162  -31.5354   20.6168 H   0  0  0  0  0  0
  -26.8443  -30.8269   22.0230 H   0  0  0  0  0  0
  -28.1164  -28.9414   21.2435 H   0  0  0  0  0  0
  -26.0258  -25.9149   18.9984 H   0  0  0  0  0  0
  -23.9931  -27.2974   18.9986 H   0  0  0  0  0  0
  -23.7834  -30.5873   19.4050 H   0  0  0  0  0  0
  -22.7691  -29.2396   19.8467 H   0  0  0  0  0  0
  -25.1271  -36.1893   25.0799 H   0  0  0  0  0  0
  -20.9969  -28.3253   24.1437 H   0  0  0  0  0  0
  -20.5752  -26.2332   23.3630 H   0  0  0  0  0  0
  -21.6648  -26.7497   22.1188 H   0  0  0  0  0  0
  -19.6898  -25.6317   21.1265 H   0  0  0  0  0  0
  -19.6620  -27.3242   20.6784 H   0  0  0  0  0  0
  -17.4205  -26.6700   21.4051 H   0  0  0  0  0  0
  -18.0276  -26.0105   22.9085 H   0  0  0  0  0  0
  -19.7948  -30.7321   24.2211 H   0  0  0  0  0  0
  -17.5019  -31.6264   24.5203 H   0  0  0  0  0  0
  -15.5352  -30.2985   23.7672 H   0  0  0  0  0  0
  -15.8695  -28.0847   22.7011 H   0  0  0  0  0  0
  -24.5800  -30.7155   25.7849 H   0  0  0  0  0  0
  -24.8805  -32.3002   26.4818 H   0  0  0  0  0  0
  -25.7902  -30.9074   27.0330 H   0  0  0  0  0  0
  -26.2832  -29.6808   24.1213 H   0  0  0  0  0  0
  -27.3796  -29.7201   25.4824 H   0  0  0  0  0  0
  -27.8782  -30.4230   23.9607 H   0  0  0  0  0  0
  -27.2660  -33.3649   26.2053 H   0  0  0  0  0  0
  -28.3829  -32.6847   25.0314 H   0  0  0  0  0  0
  -28.0694  -31.8467   26.5457 H   0  0  0  0  0  0
  -28.2478  -38.0214   24.7734 H   0  0  0  0  0  0
  -28.1251  -36.2778   24.5899 H   0  0  0  0  0  0
  -27.2388  -37.0964   25.8832 H   0  0  0  0  0  0
  -20.9468  -29.8772   21.6932 H   0  0  0  0  0  0
  -26.0118  -38.2837   24.1623 H   0  0  0  0  0  0
  -26.9751  -18.5256   22.8520 H   0  0  0  0  0  0
  -30.5745  -19.6422   19.4873 H   0  0  0  0  0  0
  -28.0472  -16.5728   22.8745 H   0  0  0  0  0  0
  -30.9079  -17.4424   19.6562 H   0  0  0  0  0  0
  -27.1765  -20.3243   21.6502 H   0  0  0  0  0  0
  -29.6581  -24.0144   19.5582 H   0  0  0  0  0  0
  -27.2536  -25.0354   21.2127 H   0  0  0  0  0  0
  -29.7304  -21.6718   19.5594 H   0  0  0  0  0  0
  1 25  1  0  0  0
  1 30  2  0  0  0
  1 81  1  0  0  0
  2  3  1  0  0  0
  2 25  1  0  0  0
  2 84  1  0  0  0
  2 85  1  0  0  0
  3  4  1  0  0  0
  3 86  1  0  0  0
  3 87  1  0  0  0
  4  5  1  0  0  0
  4 88  1  0  0  0
  4 89  1  0  0  0
  5  6  1  0  0  0
  5 26  1  0  0  0
  5 90  1  0  0  0
  6 25  1  0  0  0
  6 91  1  0  0  0
  6 92  1  0  0  0
  7  8  2  0  0  0
  7 26  1  0  0  0
  7 29  1  0  0  0
  8  9  1  0  0  0
  8 22  1  0  0  0
  9 10  1  0  0  0
  9 27  2  0  0  0
 10 11  2  0  0  0
 10 15  1  0  0  0
 11 12  1  0  0  0
 11 93  1  0  0  0
 12 13  2  0  0  0
 12 94  1  0  0  0
 13 14  1  0  0  0
 13 31  1  0  0  0
 14 15  2  0  0  0
 14 95  1  0  0  0
 15 96  1  0  0  0
 16 17  2  0  0  0
 16 21  1  0  0  0
 16 31  1  0  0  0
 17 18  1  0  0  0
 17 97  1  0  0  0
 18 19  2  0  0  0
 18 98  1  0  0  0
 19 20  1  0  0  0
 19 24  1  0  0  0
 20 21  2  0  0  0
 20 99  1  0  0  0
 21 23  1  0  0  0
 22 28  1  0  0  0
 22 32  2  0  0  0
 26 27  1  0  0  0
 28100  1  0  0  0
 28101  1  0  0  0
 29102  1  0  0  0
 29103  1  0  0  0
 33 34  1  0  0  0
 33 66  1  0  0  0
 33 70  2  0  0  0
 34 36  1  0  0  0
 34 59  1  0  0  0
 34104  1  0  0  0
 35 44  2  0  0  0
 35 45  1  0  0  0
 35 68  1  0  0  0
 36 56  1  0  0  0
 36105  1  0  0  0
 37 39  1  0  0  0
 37 47  1  0  0  0
 37 66  1  0  0  0
 37106  1  0  0  0
 38 43  2  0  0  0
 38 46  1  0  0  0
 38 47  1  0  0  0
 39 64  1  0  0  0
 39 67  2  0  0  0
 40 52  1  0  0  0
 40 53  2  0  0  0
 40 58  1  0  0  0
 41107  1  0  0  0
 41108  1  0  0  0
 41109  1  0  0  0
 41 48  1  0  0  0
 42 43  1  0  0  0
 42 66  1  0  0  0
 42110  1  0  0  0
 42111  1  0  0  0
 43 44  1  0  0  0
 44112  1  0  0  0
 45 46  2  0  0  0
 45113  1  0  0  0
 46114  1  0  0  0
 47115  1  0  0  0
 47116  1  0  0  0
 48 56  1  0  0  0
 48 65  1  0  0  0
 48117  1  0  0  0
 49 50  1  0  0  0
 49 53  1  0  0  0
 49 64  1  0  0  0
 49118  1  0  0  0
 50 51  1  0  0  0
 50119  1  0  0  0
 50120  1  0  0  0
 51 52  1  0  0  0
 51121  1  0  0  0
 51122  1  0  0  0
 52123  1  0  0  0
 52124  1  0  0  0
 53 54  1  0  0  0
 54 55  2  0  0  0
 54125  1  0  0  0
 55 57  1  0  0  0
 55126  1  0  0  0
 56 69  2  0  0  0
 57 58  2  0  0  0
 57127  1  0  0  0
 58128  1  0  0  0
 59 60  1  0  0  0
 59 61  1  0  0  0
 59 62  1  0  0  0
 60129  1  0  0  0
 60130  1  0  0  0
 60131  1  0  0  0
 61132  1  0  0  0
 61133  1  0  0  0
 61134  1  0  0  0
 62135  1  0  0  0
 62136  1  0  0  0
 62137  1  0  0  0
 63 65  1  0  0  0
 63138  1  0  0  0
 63139  1  0  0  0
 63140  1  0  0  0
 64141  1  0  0  0
 65142  1  0  0  0
 68 79  1  0  0  0
 71 73  2  0  0  0
 71 75  1  0  0  0
 71143  1  0  0  0
 72 74  2  0  0  0
 72 76  1  0  0  0
 72144  1  0  0  0
 73 77  1  0  0  0
 73145  1  0  0  0
 74 77  1  0  0  0
 74146  1  0  0  0
 75 76  2  0  0  0
 75147  1  0  0  0
 76 82  1  0  0  0
 77 81  2  0  0  0
 78 79  2  0  0  0
 78 80  1  0  0  0
 78148  1  0  0  0
 79149  1  0  0  0
 80 82  1  0  0  0
 80 83  2  0  0  0
 82150  1  0  0  0
M  ISO  4   1 100  68 101  79 101  81 100
M  END
> <chiral flag>
0

> <version>
0

> <s_m_source_file>
/data/baiqing/PycharmProjects/Reinvent-master-3.2/result/LINK_invent/BTK/process_docking_weight1_custom_product_contain_oxygen_bond_distance_aromatic_linkinvent_7_9_3/rearranged_h_0077.sdf

> <i_m_source_file_index>
35

> <r_mmod_Potential_Energy-OPLS-2005>
31.9183979034424

> <r_mmod_Stretch_Energy-OPLS-2005>
90.5070877075195

> <r_mmod_Bend_Energy-OPLS-2005>
195.924331665039

> <r_mmod_Torsional_Energy-OPLS-2005>
118.353439331055

> <r_mmod_Improper_Torsional_Energy-OPLS-2005>
5.00482988357544

> <r_mmod_Van_der_Waal_Energy-OPLS-2005>
152.784622192383

> <r_mmod_Electrostatic_Energy-OPLS-2005>
-388.734527587891

> <r_mmod_Solvation_Energy-OPLS-2005>
-200.514938354492

> <b_mmod_Minimization_Converged-OPLS-2005>
0

> <r_mmod_RMS_Derivative-OPLS-2005>
6.0102071762085

$$$$
35
                    3D
 Structure written by MMmdl.
149157  0  0  1  0            999 V2000
  -30.5860  -14.8176   20.4625 C   0  0  0  0  0  0
  -30.4347  -12.5085   19.4732 C   0  0  0  0  0  0
  -29.5115  -12.5171   18.2349 C   0  0  0  0  0  0
  -28.0420  -12.3193   18.6537 C   0  0  0  0  0  0
  -27.6336  -13.2330   19.8398 C   0  0  2  0  0  0
  -28.6777  -13.2076   20.9755 C   0  0  0  0  0  0
  -25.2476  -13.8182   20.5667 C   0  0  0  0  0  0
  -24.1782  -13.0429   20.9208 C   0  0  0  0  0  0
  -24.6389  -11.6911   20.8751 C   0  0  0  0  0  0
  -23.9065  -10.4287   21.0406 C   0  0  0  0  0  0
  -24.3614   -9.4202   21.9182 C   0  0  0  0  0  0
  -23.6291   -8.2241   22.0760 C   0  0  0  0  0  0
  -22.4278   -8.0272   21.3548 C   0  0  0  0  0  0
  -21.9905   -9.0243   20.4652 C   0  0  0  0  0  0
  -22.7233  -10.2123   20.3052 C   0  0  0  0  0  0
  -21.6851   -6.0728   22.5278 C   0  0  0  0  0  0
  -21.4016   -6.5638   23.8211 C   0  0  0  0  0  0
  -21.3660   -5.6795   24.9178 C   0  0  0  0  0  0
  -21.6039   -4.3059   24.7230 C   0  0  0  0  0  0
  -21.8820   -3.8146   23.4357 C   0  0  0  0  0  0
  -21.9195   -4.6957   22.3409 C   0  0  0  0  0  0
  -22.7808  -13.5207   21.1873 C   0  0  0  0  0  0
  -22.1662   -4.2143   21.0986 F   0  0  0  0  0  0
  -21.5628   -3.4541   25.7744 F   0  0  0  0  0  0
  -29.9672  -13.5839   20.3835 N   0  0  0  0  0  0
  -26.2896  -12.9393   20.3223 N   0  0  0  0  0  0
  -25.9305  -11.6537   20.5727 N   0  0  0  0  0  0
  -22.0463  -12.8194   22.0435 N   0  0  0  0  0  0
  -25.4138  -15.1907   20.4062 N   0  0  0  0  0  0
  -31.7899  -14.8910   20.1936 O   0  0  0  0  0  0
  -21.6647   -6.8870   21.4242 O   0  0  0  0  0  0
  -22.3494  -14.5516   20.6722 O   0  0  0  0  0  0
  -24.6356  -31.8515   23.1963 C   0  0  0  0  0  0
  -25.9171  -32.4737   23.8316 C   0  0  1  0  0  0
  -27.2229  -27.2251   20.1484 C   0  0  0  0  0  0
  -25.5946  -33.8536   24.2235 N   0  0  0  0  0  0
  -23.4342  -30.4705   21.5406 C   0  0  2  0  0  0
  -24.8815  -28.9043   20.1198 C   0  0  0  0  0  0
  -22.7513  -29.4569   22.4917 C   0  0  0  0  0  0
  -18.0279  -28.1395   22.8494 C   0  0  0  0  0  0
  -24.1481  -36.7265   23.2643 C   0  0  0  0  0  0
  -25.9817  -30.7530   21.3793 C   0  0  0  0  0  0
  -26.0542  -29.3679   20.7303 C   0  0  0  0  0  0
  -27.2303  -28.5434   20.7296 C   0  0  0  0  0  0
  -26.0264  -26.8289   19.5182 C   0  0  0  0  0  0
  -24.8727  -27.6423   19.5029 C   0  0  0  0  0  0
  -23.6566  -29.7997   20.1587 C   0  0  0  0  0  0
  -25.4117  -36.3055   24.0325 C   0  0  1  0  0  0
  -20.5889  -28.3694   23.1279 C   0  0  2  0  0  0
  -20.6770  -26.9410   22.5414 C   0  0  0  0  0  0
  -19.5737  -26.6386   21.5219 C   0  0  0  0  0  0
  -18.1920  -26.7933   22.1646 C   0  0  0  0  0  0
  -19.1535  -28.8867   23.2877 C   0  0  0  0  0  0
  -18.9455  -30.1473   23.8885 C   0  0  0  0  0  0
  -17.6454  -30.6595   24.0563 C   0  0  0  0  0  0
  -25.9062  -34.9426   23.5079 C   0  0  0  0  0  0
  -16.5348  -29.9091   23.6339 C   0  0  0  0  0  0
  -16.7267  -28.6511   23.0361 C   0  0  0  0  0  0
  -26.4521  -31.6581   25.0719 C   0  0  0  0  0  0
  -25.3733  -31.3779   26.1437 C   0  0  0  0  0  0
  -27.0344  -30.2986   24.6223 C   0  0  0  0  0  0
  -27.6078  -32.4311   25.7482 C   0  0  0  0  0  0
  -27.5566  -37.1802   24.8479 C   0  0  0  0  0  0
  -21.4210  -29.3038   22.3670 N   0  0  0  0  0  0
  -26.4291  -37.3760   23.9401 N   0  0  0  0  0  0
  -24.7037  -31.0440   22.0956 N   0  0  0  0  0  0
  -23.4185  -28.8109   23.3037 O   0  0  0  0  0  0
  -28.3162  -26.3219   20.1017 O   0  0  0  0  0  0
  -26.5622  -34.8915   22.4638 O   0  0  0  0  0  0
  -23.5496  -32.1345   23.7244 O   0  0  0  0  0  0
  -31.7030  -19.0292   21.8449 C   0  0  0  0  0  0
  -30.9318  -20.1413   21.4512 C   0  0  0  0  0  0
  -31.3254  -17.7078   21.5318 C   0  0  0  0  0  0
  -29.3627  -18.6037   20.4066 C   0  0  0  0  0  0
  -29.7354  -19.9956   20.7138 C   0  0  0  0  0  0
  -30.1492  -17.4214   20.8034 C   0  0  0  0  0  0
  -28.7862  -23.7975   20.1511 C   0  0  0  0  0  0
  -28.2439  -24.9918   20.6445 C   0  0  0  0  0  0
  -28.8696  -22.4779   20.9098 C   0  0  0  0  0  0
  -29.0912  -21.2710   20.2326 N   0  0  0  0  0  0
  -29.7977  -15.9746   20.5795 N   0  0  0  0  0  0
  -28.7588  -22.4493   22.1375 O   0  0  0  0  0  0
  -31.4722  -12.6501   19.1659 H   0  0  0  0  0  0
  -30.3994  -11.5412   19.9760 H   0  0  0  0  0  0
  -29.8110  -11.7368   17.5332 H   0  0  0  0  0  0
  -29.6176  -13.4645   17.7038 H   0  0  0  0  0  0
  -27.9200  -11.2722   18.9354 H   0  0  0  0  0  0
  -27.3795  -12.4823   17.8032 H   0  0  0  0  0  0
  -27.6140  -14.2452   19.4365 H   0  0  0  0  0  0
  -28.7354  -12.2207   21.4358 H   0  0  0  0  0  0
  -28.3977  -13.9027   21.7689 H   0  0  0  0  0  0
  -25.2760   -9.5688   22.4759 H   0  0  0  0  0  0
  -24.0007   -7.4631   22.7474 H   0  0  0  0  0  0
  -21.0840   -8.8747   19.8955 H   0  0  0  0  0  0
  -22.3678  -10.9656   19.6162 H   0  0  0  0  0  0
  -21.2006   -7.6146   23.9709 H   0  0  0  0  0  0
  -21.1478   -6.0531   25.9078 H   0  0  0  0  0  0
  -22.0597   -2.7606   23.2858 H   0  0  0  0  0  0
  -22.4094  -11.9861   22.4821 H   0  0  0  0  0  0
  -21.1076  -13.1219   22.2646 H   0  0  0  0  0  0
  -24.6359  -15.8350   20.4994 H   0  0  0  0  0  0
  -26.2484  -15.6321   20.0440 H   0  0  0  0  0  0
  -26.7216  -32.5373   23.1034 H   0  0  0  0  0  0
  -25.0123  -33.9661   25.0404 H   0  0  0  0  0  0
  -22.7334  -31.2956   21.3926 H   0  0  0  0  0  0
  -23.3735  -35.9609   23.3351 H   0  0  0  0  0  0
  -24.3559  -36.8834   22.2045 H   0  0  0  0  0  0
  -23.7251  -37.6493   23.6633 H   0  0  0  0  0  0
  -26.1181  -31.5082   20.6040 H   0  0  0  0  0  0
  -26.8595  -30.8105   22.0112 H   0  0  0  0  0  0
  -28.1344  -28.9006   21.2006 H   0  0  0  0  0  0
  -25.9829  -25.8620   19.0361 H   0  0  0  0  0  0
  -23.9750  -27.2803   19.0198 H   0  0  0  0  0  0
  -23.7892  -30.5749   19.4034 H   0  0  0  0  0  0
  -22.7730  -29.2389   19.8511 H   0  0  0  0  0  0
  -25.1304  -36.1896   25.0821 H   0  0  0  0  0  0
  -20.9981  -28.3248   24.1406 H   0  0  0  0  0  0
  -20.5667  -26.2292   23.3613 H   0  0  0  0  0  0
  -21.6633  -26.7425   22.1214 H   0  0  0  0  0  0
  -19.6886  -25.6290   21.1257 H   0  0  0  0  0  0
  -19.6675  -27.3191   20.6742 H   0  0  0  0  0  0
  -17.4192  -26.6677   21.4052 H   0  0  0  0  0  0
  -18.0326  -26.0077   22.9048 H   0  0  0  0  0  0
  -19.7927  -30.7299   24.2244 H   0  0  0  0  0  0
  -17.5005  -31.6273   24.5165 H   0  0  0  0  0  0
  -15.5346  -30.2990   23.7674 H   0  0  0  0  0  0
  -15.8670  -28.0828   22.7079 H   0  0  0  0  0  0
  -24.5859  -30.7174   25.7778 H   0  0  0  0  0  0
  -24.8981  -32.2976   26.4857 H   0  0  0  0  0  0
  -25.8029  -30.8941   27.0215 H   0  0  0  0  0  0
  -26.2916  -29.6747   24.1235 H   0  0  0  0  0  0
  -27.3991  -29.7246   25.4751 H   0  0  0  0  0  0
  -27.8821  -30.4247   23.9483 H   0  0  0  0  0  0
  -27.2713  -33.3659   26.1977 H   0  0  0  0  0  0
  -28.3940  -32.6781   25.0333 H   0  0  0  0  0  0
  -28.0679  -31.8467   26.5459 H   0  0  0  0  0  0
  -28.2634  -38.0051   24.7461 H   0  0  0  0  0  0
  -28.1002  -36.2577   24.6385 H   0  0  0  0  0  0
  -27.2268  -37.1553   25.8882 H   0  0  0  0  0  0
  -20.9393  -29.8792   21.6904 H   0  0  0  0  0  0
  -26.0158  -38.2834   24.1386 H   0  0  0  0  0  0
  -32.6173  -19.1948   22.3979 H   0  0  0  0  0  0
  -31.2984  -21.1280   21.6981 H   0  0  0  0  0  0
  -31.9603  -16.9056   21.8815 H   0  0  0  0  0  0
  -28.4523  -18.4407   19.8477 H   0  0  0  0  0  0
  -29.2531  -23.8297   19.1774 H   0  0  0  0  0  0
  -27.7325  -25.0023   21.5975 H   0  0  0  0  0  0
  -28.9127  -21.3104   19.2387 H   0  0  0  0  0  0
  -28.8083  -15.7850   20.5410 H   0  0  0  0  0  0
  1 25  1  0  0  0
  1 30  2  0  0  0
  1 81  1  0  0  0
  2  3  1  0  0  0
  2 25  1  0  0  0
  2 83  1  0  0  0
  2 84  1  0  0  0
  3  4  1  0  0  0
  3 85  1  0  0  0
  3 86  1  0  0  0
  4  5  1  0  0  0
  4 87  1  0  0  0
  4 88  1  0  0  0
  5  6  1  0  0  0
  5 26  1  0  0  0
  5 89  1  0  0  0
  6 25  1  0  0  0
  6 90  1  0  0  0
  6 91  1  0  0  0
  7  8  2  0  0  0
  7 26  1  0  0  0
  7 29  1  0  0  0
  8  9  1  0  0  0
  8 22  1  0  0  0
  9 10  1  0  0  0
  9 27  2  0  0  0
 10 11  2  0  0  0
 10 15  1  0  0  0
 11 12  1  0  0  0
 11 92  1  0  0  0
 12 13  2  0  0  0
 12 93  1  0  0  0
 13 14  1  0  0  0
 13 31  1  0  0  0
 14 15  2  0  0  0
 14 94  1  0  0  0
 15 95  1  0  0  0
 16 17  2  0  0  0
 16 21  1  0  0  0
 16 31  1  0  0  0
 17 18  1  0  0  0
 17 96  1  0  0  0
 18 19  2  0  0  0
 18 97  1  0  0  0
 19 20  1  0  0  0
 19 24  1  0  0  0
 20 21  2  0  0  0
 20 98  1  0  0  0
 21 23  1  0  0  0
 22 28  1  0  0  0
 22 32  2  0  0  0
 26 27  1  0  0  0
 28 99  1  0  0  0
 28100  1  0  0  0
 29101  1  0  0  0
 29102  1  0  0  0
 33 34  1  0  0  0
 33 66  1  0  0  0
 33 70  2  0  0  0
 34 36  1  0  0  0
 34 59  1  0  0  0
 34103  1  0  0  0
 35 44  2  0  0  0
 35 45  1  0  0  0
 35 68  1  0  0  0
 36 56  1  0  0  0
 36104  1  0  0  0
 37 39  1  0  0  0
 37 47  1  0  0  0
 37 66  1  0  0  0
 37105  1  0  0  0
 38 43  2  0  0  0
 38 46  1  0  0  0
 38 47  1  0  0  0
 39 64  1  0  0  0
 39 67  2  0  0  0
 40 52  1  0  0  0
 40 53  2  0  0  0
 40 58  1  0  0  0
 41106  1  0  0  0
 41107  1  0  0  0
 41108  1  0  0  0
 41 48  1  0  0  0
 42 43  1  0  0  0
 42 66  1  0  0  0
 42109  1  0  0  0
 42110  1  0  0  0
 43 44  1  0  0  0
 44111  1  0  0  0
 45 46  2  0  0  0
 45112  1  0  0  0
 46113  1  0  0  0
 47114  1  0  0  0
 47115  1  0  0  0
 48 56  1  0  0  0
 48 65  1  0  0  0
 48116  1  0  0  0
 49 50  1  0  0  0
 49 53  1  0  0  0
 49 64  1  0  0  0
 49117  1  0  0  0
 50 51  1  0  0  0
 50118  1  0  0  0
 50119  1  0  0  0
 51 52  1  0  0  0
 51120  1  0  0  0
 51121  1  0  0  0
 52122  1  0  0  0
 52123  1  0  0  0
 53 54  1  0  0  0
 54 55  2  0  0  0
 54124  1  0  0  0
 55 57  1  0  0  0
 55125  1  0  0  0
 56 69  2  0  0  0
 57 58  2  0  0  0
 57126  1  0  0  0
 58127  1  0  0  0
 59 60  1  0  0  0
 59 61  1  0  0  0
 59 62  1  0  0  0
 60128  1  0  0  0
 60129  1  0  0  0
 60130  1  0  0  0
 61131  1  0  0  0
 61132  1  0  0  0
 61133  1  0  0  0
 62134  1  0  0  0
 62135  1  0  0  0
 62136  1  0  0  0
 63 65  1  0  0  0
 63137  1  0  0  0
 63138  1  0  0  0
 63139  1  0  0  0
 64140  1  0  0  0
 65141  1  0  0  0
 68 78  1  0  0  0
 71 72  2  0  0  0
 71 73  1  0  0  0
 71142  1  0  0  0
 72 75  1  0  0  0
 72143  1  0  0  0
 73 76  2  0  0  0
 73144  1  0  0  0
 74 75  2  0  0  0
 74 76  1  0  0  0
 74145  1  0  0  0
 75 80  1  0  0  0
 76 81  1  0  0  0
 77 78  2  0  0  0
 77 79  1  0  0  0
 77146  1  0  0  0
 78147  1  0  0  0
 79 80  1  0  0  0
 79 82  2  0  0  0
 80148  1  0  0  0
 81149  1  0  0  0
M  ISO  4   1 100  68 101  78 101  81 100
M  END
> <chiral flag>
0

> <version>
0

> <s_m_source_file>
/data/baiqing/PycharmProjects/Reinvent-master-3.2/result/LINK_invent/BTK/process_docking_weight1_custom_product_contain_oxygen_bond_distance_aromatic_linkinvent_7_9_3/rearranged_h_0077.sdf

> <i_m_source_file_index>
36

> <r_mmod_Potential_Energy-OPLS-2005>
225.721710205078

> <r_mmod_Stretch_Energy-OPLS-2005>
150.955795288086

> <r_mmod_Bend_Energy-OPLS-2005>
168.483627319336

> <r_mmod_Torsional_Energy-OPLS-2005>
266.281341552734

> <r_mmod_Improper_Torsional_Energy-OPLS-2005>
8.213942527771

> <r_mmod_Van_der_Waal_Energy-OPLS-2005>
133.450607299805

> <r_mmod_Electrostatic_Energy-OPLS-2005>
-381.644805908203

> <r_mmod_Solvation_Energy-OPLS-2005>
-232.530303955078

> <b_mmod_Minimization_Converged-OPLS-2005>
0

> <r_mmod_RMS_Derivative-OPLS-2005>
2.62025117874146

$$$$
36
                    3D
 Structure written by MMmdl.
160169  0  0  1  0            999 V2000
  -30.5972  -14.7477   20.4185 C   0  0  0  0  0  0
  -30.4221  -12.4483   19.4696 C   0  0  0  0  0  0
  -29.5003  -12.5109   18.2310 C   0  0  0  0  0  0
  -28.0248  -12.3447   18.6428 C   0  0  0  0  0  0
  -27.6397  -13.2356   19.8545 C   0  0  2  0  0  0
  -28.6848  -13.1637   20.9880 C   0  0  0  0  0  0
  -25.2501  -13.8219   20.5728 C   0  0  0  0  0  0
  -24.1790  -13.0452   20.9189 C   0  0  0  0  0  0
  -24.6380  -11.6913   20.8748 C   0  0  0  0  0  0
  -23.9050  -10.4290   21.0411 C   0  0  0  0  0  0
  -24.3600   -9.4211   21.9193 C   0  0  0  0  0  0
  -23.6282   -8.2255   22.0775 C   0  0  0  0  0  0
  -22.4264   -8.0297   21.3567 C   0  0  0  0  0  0
  -21.9897   -9.0257   20.4656 C   0  0  0  0  0  0
  -22.7229  -10.2125   20.3059 C   0  0  0  0  0  0
  -21.6874   -6.0734   22.5273 C   0  0  0  0  0  0
  -21.4024   -6.5636   23.8208 C   0  0  0  0  0  0
  -21.3656   -5.6795   24.9171 C   0  0  0  0  0  0
  -21.6047   -4.3061   24.7230 C   0  0  0  0  0  0
  -21.8818   -3.8153   23.4352 C   0  0  0  0  0  0
  -21.9190   -4.6960   22.3398 C   0  0  0  0  0  0
  -22.7806  -13.5236   21.1844 C   0  0  0  0  0  0
  -22.1665   -4.2138   21.0980 F   0  0  0  0  0  0
  -21.5608   -3.4541   25.7744 F   0  0  0  0  0  0
  -29.9889  -13.5119   20.4074 N   0  0  0  0  0  0
  -26.2930  -12.9439   20.3315 N   0  0  0  0  0  0
  -25.9318  -11.6560   20.5767 N   0  0  0  0  0  0
  -22.0442  -12.8222   22.0387 N   0  0  0  0  0  0
  -25.4157  -15.1963   20.4157 N   0  0  0  0  0  0
  -31.7737  -14.8501   20.0565 O   0  0  0  0  0  0
  -21.6662   -6.8877   21.4240 O   0  0  0  0  0  0
  -22.3482  -14.5532   20.6710 O   0  0  0  0  0  0
  -24.6352  -31.8523   23.1970 C   0  0  0  0  0  0
  -25.9154  -32.4736   23.8310 C   0  0  1  0  0  0
  -27.2173  -27.2394   20.1238 C   0  0  0  0  0  0
  -25.5926  -33.8551   24.2229 N   0  0  0  0  0  0
  -23.4312  -30.4779   21.5429 C   0  0  2  0  0  0
  -24.8784  -28.9254   20.1081 C   0  0  0  0  0  0
  -22.7506  -29.4593   22.4909 C   0  0  0  0  0  0
  -18.0287  -28.1408   22.8490 C   0  0  0  0  0  0
  -24.1498  -36.7268   23.2652 C   0  0  0  0  0  0
  -25.9799  -30.7580   21.3816 C   0  0  0  0  0  0
  -26.0515  -29.3801   20.7222 C   0  0  0  0  0  0
  -27.2218  -28.5486   20.7235 C   0  0  0  0  0  0
  -26.0218  -26.8721   19.4614 C   0  0  0  0  0  0
  -24.8683  -27.6793   19.4690 C   0  0  0  0  0  0
  -23.6498  -29.8146   20.1593 C   0  0  0  0  0  0
  -25.4133  -36.3067   24.0324 C   0  0  1  0  0  0
  -20.5886  -28.3712   23.1268 C   0  0  2  0  0  0
  -20.6775  -26.9433   22.5412 C   0  0  0  0  0  0
  -19.5752  -26.6399   21.5225 C   0  0  0  0  0  0
  -18.1934  -26.7942   22.1628 C   0  0  0  0  0  0
  -19.1544  -28.8880   23.2865 C   0  0  0  0  0  0
  -18.9472  -30.1489   23.8880 C   0  0  0  0  0  0
  -17.6468  -30.6607   24.0585 C   0  0  0  0  0  0
  -25.9075  -34.9434   23.5088 C   0  0  0  0  0  0
  -16.5354  -29.9112   23.6337 C   0  0  0  0  0  0
  -16.7279  -28.6523   23.0367 C   0  0  0  0  0  0
  -26.4522  -31.6565   25.0699 C   0  0  0  0  0  0
  -25.3727  -31.3663   26.1391 C   0  0  0  0  0  0
  -27.0413  -30.2996   24.6185 C   0  0  0  0  0  0
  -27.6082  -32.4309   25.7460 C   0  0  0  0  0  0
  -27.5594  -37.1781   24.8470 C   0  0  0  0  0  0
  -21.4212  -29.3038   22.3639 N   0  0  0  0  0  0
  -26.4301  -37.3769   23.9419 N   0  0  0  0  0  0
  -24.7017  -31.0464   22.0962 N   0  0  0  0  0  0
  -23.4174  -28.8145   23.3033 O   0  0  0  0  0  0
  -28.2988  -26.3180   20.2044 O   0  0  0  0  0  0
  -26.5653  -34.8908   22.4663 O   0  0  0  0  0  0
  -23.5495  -32.1383   23.7224 O   0  0  0  0  0  0
  -29.6529  -19.7417   18.6424 C   0  0  0  0  0  0
  -29.5752  -18.4966   20.7258 C   0  0  0  0  0  0
  -29.9995  -17.3016   18.6530 C   0  0  0  0  0  0
  -29.4870  -19.7912   20.0442 C   0  0  0  0  0  0
  -29.8979  -18.5287   17.9570 C   0  0  0  0  0  0
  -29.8439  -17.2267   20.0582 C   0  0  0  0  0  0
  -28.7837  -22.3317   20.0808 C   0  0  0  0  0  0
  -28.8457  -23.6271   20.5908 C   0  0  0  0  0  0
  -29.6189  -23.7497   21.8339 C   0  0  0  0  0  0
  -29.6537  -24.8835   22.5580 C   0  0  0  0  0  0
  -30.4329  -22.5522   22.3282 C   0  0  0  0  0  0
  -29.7809  -21.1840   22.0350 C   0  0  0  0  0  0
  -28.0552  -24.8503   19.9107 C   0  0  0  0  0  0
  -29.2939  -21.1048   20.6584 N   0  0  0  0  0  0
  -30.0360  -18.5458   16.5668 N   0  0  0  0  0  0
  -29.8393  -15.8794   20.7051 N   0  0  0  0  0  0
  -31.4617  -12.5605   19.1605 H   0  0  0  0  0  0
  -30.3527  -11.4708   19.9470 H   0  0  0  0  0  0
  -29.7735  -11.7385   17.5108 H   0  0  0  0  0  0
  -29.6337  -13.4657   17.7195 H   0  0  0  0  0  0
  -27.8707  -11.2939   18.8871 H   0  0  0  0  0  0
  -27.3682  -12.5519   17.7980 H   0  0  0  0  0  0
  -27.6377  -14.2616   19.4879 H   0  0  0  0  0  0
  -28.7124  -12.1644   21.4256 H   0  0  0  0  0  0
  -28.4263  -13.8469   21.7986 H   0  0  0  0  0  0
  -25.2738   -9.5708   22.4762 H   0  0  0  0  0  0
  -23.9993   -7.4654   22.7507 H   0  0  0  0  0  0
  -21.0837   -8.8763   19.8958 H   0  0  0  0  0  0
  -22.3689  -10.9657   19.6163 H   0  0  0  0  0  0
  -21.2032   -7.6144   23.9699 H   0  0  0  0  0  0
  -21.1488   -6.0540   25.9067 H   0  0  0  0  0  0
  -22.0595   -2.7608   23.2873 H   0  0  0  0  0  0
  -22.4064  -11.9872   22.4749 H   0  0  0  0  0  0
  -21.1051  -13.1237   22.2582 H   0  0  0  0  0  0
  -24.6465  -15.8468   20.5324 H   0  0  0  0  0  0
  -26.2613  -15.6403   20.0803 H   0  0  0  0  0  0
  -26.7217  -32.5380   23.1052 H   0  0  0  0  0  0
  -25.0042  -33.9693   25.0350 H   0  0  0  0  0  0
  -22.7313  -31.3034   21.3969 H   0  0  0  0  0  0
  -23.3788  -35.9575   23.3293 H   0  0  0  0  0  0
  -24.3590  -36.8924   22.2073 H   0  0  0  0  0  0
  -23.7217  -37.6441   23.6700 H   0  0  0  0  0  0
  -26.1243  -31.5179   20.6129 H   0  0  0  0  0  0
  -26.8547  -30.8054   22.0174 H   0  0  0  0  0  0
  -28.1119  -28.8879   21.2317 H   0  0  0  0  0  0
  -25.9357  -25.9327   18.9357 H   0  0  0  0  0  0
  -23.9703  -27.3300   18.9777 H   0  0  0  0  0  0
  -23.7780  -30.5943   19.4072 H   0  0  0  0  0  0
  -22.7664  -29.2537   19.8496 H   0  0  0  0  0  0
  -25.1312  -36.1924   25.0809 H   0  0  0  0  0  0
  -20.9981  -28.3325   24.1390 H   0  0  0  0  0  0
  -20.5707  -26.2333   23.3631 H   0  0  0  0  0  0
  -21.6649  -26.7468   22.1210 H   0  0  0  0  0  0
  -19.6923  -25.6315   21.1259 H   0  0  0  0  0  0
  -19.6695  -27.3209   20.6762 H   0  0  0  0  0  0
  -17.4199  -26.6730   21.4031 H   0  0  0  0  0  0
  -18.0301  -26.0089   22.9024 H   0  0  0  0  0  0
  -19.7953  -30.7330   24.2235 H   0  0  0  0  0  0
  -17.5019  -31.6282   24.5220 H   0  0  0  0  0  0
  -15.5360  -30.3025   23.7664 H   0  0  0  0  0  0
  -15.8680  -28.0857   22.7077 H   0  0  0  0  0  0
  -24.5953  -30.6979   25.7661 H   0  0  0  0  0  0
  -24.8863  -32.2811   26.4780 H   0  0  0  0  0  0
  -25.8032  -30.8846   27.0178 H   0  0  0  0  0  0
  -26.3018  -29.6679   24.1253 H   0  0  0  0  0  0
  -27.4185  -29.7300   25.4684 H   0  0  0  0  0  0
  -27.8831  -30.4308   23.9389 H   0  0  0  0  0  0
  -27.2731  -33.3658   26.1953 H   0  0  0  0  0  0
  -28.3919  -32.6771   25.0285 H   0  0  0  0  0  0
  -28.0708  -31.8462   26.5427 H   0  0  0  0  0  0
  -28.2578  -38.0108   24.7572 H   0  0  0  0  0  0
  -28.1122  -36.2638   24.6256 H   0  0  0  0  0  0
  -27.2294  -37.1378   25.8863 H   0  0  0  0  0  0
  -20.9420  -29.8765   21.6842 H   0  0  0  0  0  0
  -26.0182  -38.2828   24.1468 H   0  0  0  0  0  0
  -29.6087  -20.6636   18.0807 H   0  0  0  0  0  0
  -29.4251  -18.4710   21.7942 H   0  0  0  0  0  0
  -30.1671  -16.3944   18.0886 H   0  0  0  0  0  0
  -28.1969  -22.1577   19.1896 H   0  0  0  0  0  0
  -29.1090  -25.7733   22.2965 H   0  0  0  0  0  0
  -30.2438  -24.9407   23.4648 H   0  0  0  0  0  0
  -30.6188  -22.6265   23.4000 H   0  0  0  0  0  0
  -31.4102  -22.5870   21.8438 H   0  0  0  0  0  0
  -28.9387  -21.0215   22.7090 H   0  0  0  0  0  0
  -30.5151  -20.4036   22.2446 H   0  0  0  0  0  0
  -27.0260  -24.6063   20.1695 H   0  0  0  0  0  0
  -28.1345  -24.7239   18.8293 H   0  0  0  0  0  0
  -29.7500  -19.3726   16.0482 H   0  0  0  0  0  0
  -29.8905  -17.6879   16.0423 H   0  0  0  0  0  0
  -29.0089  -15.6840   21.2454 H   0  0  0  0  0  0
  1 25  1  0  0  0
  1 30  2  0  0  0
  1 86  1  0  0  0
  2  3  1  0  0  0
  2 25  1  0  0  0
  2 87  1  0  0  0
  2 88  1  0  0  0
  3  4  1  0  0  0
  3 89  1  0  0  0
  3 90  1  0  0  0
  4  5  1  0  0  0
  4 91  1  0  0  0
  4 92  1  0  0  0
  5  6  1  0  0  0
  5 26  1  0  0  0
  5 93  1  0  0  0
  6 25  1  0  0  0
  6 94  1  0  0  0
  6 95  1  0  0  0
  7  8  2  0  0  0
  7 26  1  0  0  0
  7 29  1  0  0  0
  8  9  1  0  0  0
  8 22  1  0  0  0
  9 10  1  0  0  0
  9 27  2  0  0  0
 10 11  2  0  0  0
 10 15  1  0  0  0
 11 12  1  0  0  0
 11 96  1  0  0  0
 12 13  2  0  0  0
 12 97  1  0  0  0
 13 14  1  0  0  0
 13 31  1  0  0  0
 14 15  2  0  0  0
 14 98  1  0  0  0
 15 99  1  0  0  0
 16 17  2  0  0  0
 16 21  1  0  0  0
 16 31  1  0  0  0
 17 18  1  0  0  0
 17100  1  0  0  0
 18 19  2  0  0  0
 18101  1  0  0  0
 19 20  1  0  0  0
 19 24  1  0  0  0
 20 21  2  0  0  0
 20102  1  0  0  0
 21 23  1  0  0  0
 22 28  1  0  0  0
 22 32  2  0  0  0
 26 27  1  0  0  0
 28103  1  0  0  0
 28104  1  0  0  0
 29105  1  0  0  0
 29106  1  0  0  0
 33 34  1  0  0  0
 33 66  1  0  0  0
 33 70  2  0  0  0
 34 36  1  0  0  0
 34 59  1  0  0  0
 34107  1  0  0  0
 35 44  2  0  0  0
 35 45  1  0  0  0
 35 68  1  0  0  0
 36 56  1  0  0  0
 36108  1  0  0  0
 37 39  1  0  0  0
 37 47  1  0  0  0
 37 66  1  0  0  0
 37109  1  0  0  0
 38 43  2  0  0  0
 38 46  1  0  0  0
 38 47  1  0  0  0
 39 64  1  0  0  0
 39 67  2  0  0  0
 40 52  1  0  0  0
 40 53  2  0  0  0
 40 58  1  0  0  0
 41110  1  0  0  0
 41111  1  0  0  0
 41112  1  0  0  0
 41 48  1  0  0  0
 42 43  1  0  0  0
 42 66  1  0  0  0
 42113  1  0  0  0
 42114  1  0  0  0
 43 44  1  0  0  0
 44115  1  0  0  0
 45 46  2  0  0  0
 45116  1  0  0  0
 46117  1  0  0  0
 47118  1  0  0  0
 47119  1  0  0  0
 48 56  1  0  0  0
 48 65  1  0  0  0
 48120  1  0  0  0
 49 50  1  0  0  0
 49 53  1  0  0  0
 49 64  1  0  0  0
 49121  1  0  0  0
 50 51  1  0  0  0
 50122  1  0  0  0
 50123  1  0  0  0
 51 52  1  0  0  0
 51124  1  0  0  0
 51125  1  0  0  0
 52126  1  0  0  0
 52127  1  0  0  0
 53 54  1  0  0  0
 54 55  2  0  0  0
 54128  1  0  0  0
 55 57  1  0  0  0
 55129  1  0  0  0
 56 69  2  0  0  0
 57 58  2  0  0  0
 57130  1  0  0  0
 58131  1  0  0  0
 59 60  1  0  0  0
 59 61  1  0  0  0
 59 62  1  0  0  0
 60132  1  0  0  0
 60133  1  0  0  0
 60134  1  0  0  0
 61135  1  0  0  0
 61136  1  0  0  0
 61137  1  0  0  0
 62138  1  0  0  0
 62139  1  0  0  0
 62140  1  0  0  0
 63 65  1  0  0  0
 63141  1  0  0  0
 63142  1  0  0  0
 63143  1  0  0  0
 64144  1  0  0  0
 65145  1  0  0  0
 68 83  1  0  0  0
 71 74  2  0  0  0
 71 75  1  0  0  0
 71146  1  0  0  0
 72 74  1  0  0  0
 72 76  2  0  0  0
 72147  1  0  0  0
 73 75  2  0  0  0
 73 76  1  0  0  0
 73148  1  0  0  0
 74 84  1  0  0  0
 75 85  1  0  0  0
 76 86  1  0  0  0
 77 78  2  0  0  0
 77 84  1  0  0  0
 77149  1  0  0  0
 78 79  1  0  0  0
 78 83  1  0  0  0
 79 80  2  0  0  0
 79 81  1  0  0  0
 80150  1  0  0  0
 80151  1  0  0  0
 81 82  1  0  0  0
 81152  1  0  0  0
 81153  1  0  0  0
 82 84  1  0  0  0
 82154  1  0  0  0
 82155  1  0  0  0
 83156  1  0  0  0
 83157  1  0  0  0
 85158  1  0  0  0
 85159  1  0  0  0
 86160  1  0  0  0
M  ISO  4   1 100  68 101  83 101  86 100
M  END
> <chiral flag>
0

> <version>
0

> <s_m_source_file>
/data/baiqing/PycharmProjects/Reinvent-master-3.2/result/LINK_invent/BTK/process_docking_weight1_custom_product_contain_oxygen_bond_distance_aromatic_linkinvent_7_9_3/rearranged_h_0077.sdf

> <i_m_source_file_index>
37

> <r_mmod_Potential_Energy-OPLS-2005>
313.915740966797

> <r_mmod_Stretch_Energy-OPLS-2005>
137.244613647461

> <r_mmod_Bend_Energy-OPLS-2005>
174.878341674805

> <r_mmod_Torsional_Energy-OPLS-2005>
248.896575927734

> <r_mmod_Improper_Torsional_Energy-OPLS-2005>
7.48316049575806

> <r_mmod_Van_der_Waal_Energy-OPLS-2005>
158.258056640625

> <r_mmod_Electrostatic_Energy-OPLS-2005>
-280.474517822266

> <r_mmod_Solvation_Energy-OPLS-2005>
-226.648910522461

> <b_mmod_Minimization_Converged-OPLS-2005>
0

> <r_mmod_RMS_Derivative-OPLS-2005>
3.69595623016357

$$$$
37
                    3D
 Structure written by MMmdl.
160169  0  0  1  0            999 V2000
  -30.6472  -14.7018   20.5824 C   0  0  0  0  0  0
  -30.4316  -12.4568   19.4677 C   0  0  0  0  0  0
  -29.5082  -12.5371   18.2327 C   0  0  0  0  0  0
  -28.0356  -12.3463   18.6397 C   0  0  0  0  0  0
  -27.6454  -13.2275   19.8533 C   0  0  2  0  0  0
  -28.6799  -13.1157   20.9893 C   0  0  0  0  0  0
  -25.2522  -13.8189   20.5677 C   0  0  0  0  0  0
  -24.1802  -13.0439   20.9180 C   0  0  0  0  0  0
  -24.6388  -11.6916   20.8719 C   0  0  0  0  0  0
  -23.9064  -10.4293   21.0397 C   0  0  0  0  0  0
  -24.3618   -9.4213   21.9180 C   0  0  0  0  0  0
  -23.6295   -8.2248   22.0753 C   0  0  0  0  0  0
  -22.4276   -8.0284   21.3546 C   0  0  0  0  0  0
  -21.9911   -9.0252   20.4645 C   0  0  0  0  0  0
  -22.7234  -10.2134   20.3051 C   0  0  0  0  0  0
  -21.6854   -6.0742   22.5281 C   0  0  0  0  0  0
  -21.4016   -6.5647   23.8216 C   0  0  0  0  0  0
  -21.3660   -5.6798   24.9177 C   0  0  0  0  0  0
  -21.6044   -4.3060   24.7227 C   0  0  0  0  0  0
  -21.8819   -3.8154   23.4348 C   0  0  0  0  0  0
  -21.9193   -4.6970   22.3404 C   0  0  0  0  0  0
  -22.7828  -13.5225   21.1865 C   0  0  0  0  0  0
  -22.1659   -4.2156   21.0982 F   0  0  0  0  0  0
  -21.5627   -3.4544   25.7741 F   0  0  0  0  0  0
  -29.9990  -13.4859   20.4457 N   0  0  0  0  0  0
  -26.2940  -12.9386   20.3246 N   0  0  0  0  0  0
  -25.9314  -11.6532   20.5708 N   0  0  0  0  0  0
  -22.0486  -12.8202   22.0424 N   0  0  0  0  0  0
  -25.4247  -15.1913   20.4143 N   0  0  0  0  0  0
  -31.7296  -14.8834   20.0145 O   0  0  0  0  0  0
  -21.6642   -6.8884   21.4244 O   0  0  0  0  0  0
  -22.3502  -14.5532   20.6726 O   0  0  0  0  0  0
  -24.6304  -31.8549   23.1973 C   0  0  0  0  0  0
  -25.9133  -32.4748   23.8318 C   0  0  1  0  0  0
  -27.2281  -27.2742   20.1142 C   0  0  0  0  0  0
  -25.5933  -33.8551   24.2248 N   0  0  0  0  0  0
  -23.4263  -30.4773   21.5412 C   0  0  2  0  0  0
  -24.8721  -28.9226   20.1095 C   0  0  0  0  0  0
  -22.7494  -29.4602   22.4914 C   0  0  0  0  0  0
  -18.0291  -28.1388   22.8489 C   0  0  0  0  0  0
  -24.1492  -36.7282   23.2639 C   0  0  0  0  0  0
  -25.9708  -30.7714   21.3737 C   0  0  0  0  0  0
  -26.0431  -29.3949   20.7147 C   0  0  0  0  0  0
  -27.2203  -28.5821   20.7062 C   0  0  0  0  0  0
  -26.0236  -26.8553   19.5051 C   0  0  0  0  0  0
  -24.8663  -27.6597   19.4964 C   0  0  0  0  0  0
  -23.6426  -29.8093   20.1576 C   0  0  0  0  0  0
  -25.4115  -36.3068   24.0330 C   0  0  1  0  0  0
  -20.5893  -28.3698   23.1272 C   0  0  2  0  0  0
  -20.6779  -26.9417   22.5412 C   0  0  0  0  0  0
  -19.5754  -26.6384   21.5215 C   0  0  0  0  0  0
  -18.1932  -26.7930   22.1627 C   0  0  0  0  0  0
  -19.1544  -28.8860   23.2876 C   0  0  0  0  0  0
  -18.9466  -30.1463   23.8891 C   0  0  0  0  0  0
  -17.6465  -30.6591   24.0565 C   0  0  0  0  0  0
  -25.9058  -34.9439   23.5093 C   0  0  0  0  0  0
  -16.5356  -29.9088   23.6332 C   0  0  0  0  0  0
  -16.7278  -28.6506   23.0353 C   0  0  0  0  0  0
  -26.4501  -31.6566   25.0704 C   0  0  0  0  0  0
  -25.3728  -31.3721   26.1431 C   0  0  0  0  0  0
  -27.0340  -30.2977   24.6186 C   0  0  0  0  0  0
  -27.6058  -32.4300   25.7480 C   0  0  0  0  0  0
  -27.5587  -37.1787   24.8457 C   0  0  0  0  0  0
  -21.4200  -29.3043   22.3658 N   0  0  0  0  0  0
  -26.4286  -37.3771   23.9420 N   0  0  0  0  0  0
  -24.6953  -31.0522   22.0941 N   0  0  0  0  0  0
  -23.4197  -28.8152   23.3017 O   0  0  0  0  0  0
  -28.3475  -26.4114   20.1915 O   0  0  0  0  0  0
  -26.5637  -34.8920   22.4665 O   0  0  0  0  0  0
  -23.5457  -32.1367   23.7279 O   0  0  0  0  0  0
  -29.4852  -19.2408   19.7846 C   0  0  0  0  0  0
  -29.5238  -19.4506   22.1503 C   0  0  0  0  0  0
  -29.7420  -17.8181   19.9095 C   0  0  0  0  0  0
  -29.7674  -18.0527   22.2726 C   0  0  0  0  0  0
  -29.3616  -20.1265   20.9080 C   0  0  0  0  0  0
  -29.8941  -17.1523   21.1700 C   0  0  0  0  0  0
  -28.6452  -23.9149   20.3934 C   0  0  0  0  0  0
  -28.8183  -23.7863   21.8167 C   0  0  0  0  0  0
  -28.8206  -22.5063   19.8722 C   0  0  0  0  0  0
  -28.7179  -24.7670   22.7326 C   0  0  0  0  0  0
  -28.3922  -25.0832   19.6671 C   0  0  0  0  0  0
  -29.1156  -22.3511   22.1712 C   0  0  0  0  0  0
  -28.3181  -25.1033   18.1464 C   0  0  0  0  0  0
  -30.1856  -15.2774   22.8343 C   0  0  0  0  0  0
  -29.1033  -21.6102   20.8981 N   0  0  0  0  0  0
  -30.1104  -15.6801   21.4151 N   0  0  0  0  0  0
  -28.7311  -22.1573   18.6905 O   0  0  0  0  0  0
  -31.4722  -12.5838   19.1655 H   0  0  0  0  0  0
  -30.3776  -11.4660   19.9215 H   0  0  0  0  0  0
  -29.7936  -11.7850   17.4961 H   0  0  0  0  0  0
  -29.6306  -13.5062   17.7463 H   0  0  0  0  0  0
  -27.8928  -11.2933   18.8856 H   0  0  0  0  0  0
  -27.3780  -12.5528   17.7943 H   0  0  0  0  0  0
  -27.6556  -14.2596   19.5018 H   0  0  0  0  0  0
  -28.7075  -12.1023   21.3914 H   0  0  0  0  0  0
  -28.3656  -13.7540   21.8129 H   0  0  0  0  0  0
  -25.2766   -9.5696   22.4750 H   0  0  0  0  0  0
  -24.0010   -7.4645   22.7473 H   0  0  0  0  0  0
  -21.0844   -8.8765   19.8950 H   0  0  0  0  0  0
  -22.3686  -10.9671   19.6159 H   0  0  0  0  0  0
  -21.2007   -7.6155   23.9719 H   0  0  0  0  0  0
  -21.1481   -6.0530   25.9079 H   0  0  0  0  0  0
  -22.0597   -2.7617   23.2848 H   0  0  0  0  0  0
  -22.4110  -11.9855   22.4791 H   0  0  0  0  0  0
  -21.1107  -13.1220   22.2658 H   0  0  0  0  0  0
  -24.6664  -15.8529   20.5399 H   0  0  0  0  0  0
  -26.2921  -15.6319   20.1331 H   0  0  0  0  0  0
  -26.7196  -32.5403   23.1058 H   0  0  0  0  0  0
  -25.0066  -33.9684   25.0386 H   0  0  0  0  0  0
  -22.7226  -31.2997   21.3955 H   0  0  0  0  0  0
  -23.3770  -35.9594   23.3259 H   0  0  0  0  0  0
  -24.3588  -36.8949   22.2060 H   0  0  0  0  0  0
  -23.7219  -37.6459   23.6691 H   0  0  0  0  0  0
  -26.1067  -31.5335   20.6053 H   0  0  0  0  0  0
  -26.8494  -30.8203   22.0054 H   0  0  0  0  0  0
  -28.1192  -28.9380   21.1903 H   0  0  0  0  0  0
  -25.9480  -25.8770   19.0562 H   0  0  0  0  0  0
  -23.9651  -27.2862   19.0296 H   0  0  0  0  0  0
  -23.7657  -30.5852   19.4010 H   0  0  0  0  0  0
  -22.7605  -29.2425   19.8544 H   0  0  0  0  0  0
  -25.1289  -36.1912   25.0820 H   0  0  0  0  0  0
  -20.9990  -28.3283   24.1391 H   0  0  0  0  0  0
  -20.5681  -26.2308   23.3613 H   0  0  0  0  0  0
  -21.6646  -26.7445   22.1208 H   0  0  0  0  0  0
  -19.6919  -25.6295   21.1243 H   0  0  0  0  0  0
  -19.6689  -27.3194   20.6741 H   0  0  0  0  0  0
  -17.4203  -26.6682   21.4026 H   0  0  0  0  0  0
  -18.0335  -26.0070   22.9021 H   0  0  0  0  0  0
  -19.7942  -30.7282   24.2252 H   0  0  0  0  0  0
  -17.5020  -31.6269   24.5174 H   0  0  0  0  0  0
  -15.5355  -30.2991   23.7655 H   0  0  0  0  0  0
  -15.8679  -28.0826   22.7063 H   0  0  0  0  0  0
  -24.5883  -30.7096   25.7754 H   0  0  0  0  0  0
  -24.8949  -32.2898   26.4868 H   0  0  0  0  0  0
  -25.8043  -30.8874   27.0199 H   0  0  0  0  0  0
  -26.2914  -29.6720   24.1218 H   0  0  0  0  0  0
  -27.4025  -29.7240   25.4699 H   0  0  0  0  0  0
  -27.8794  -30.4236   23.9419 H   0  0  0  0  0  0
  -27.2671  -33.3609   26.2041 H   0  0  0  0  0  0
  -28.3883  -32.6838   25.0317 H   0  0  0  0  0  0
  -28.0710  -31.8430   26.5410 H   0  0  0  0  0  0
  -28.2569  -38.0122   24.7561 H   0  0  0  0  0  0
  -28.1123  -36.2654   24.6211 H   0  0  0  0  0  0
  -27.2316  -37.1358   25.8862 H   0  0  0  0  0  0
  -20.9383  -29.8756   21.6857 H   0  0  0  0  0  0
  -26.0164  -38.2838   24.1451 H   0  0  0  0  0  0
  -29.3829  -19.6477   18.7885 H   0  0  0  0  0  0
  -29.4579  -19.9984   23.0783 H   0  0  0  0  0  0
  -29.8118  -17.2358   19.0015 H   0  0  0  0  0  0
  -29.8531  -17.6983   23.2880 H   0  0  0  0  0  0
  -28.4915  -25.7895   22.4737 H   0  0  0  0  0  0
  -28.8599  -24.5552   23.7830 H   0  0  0  0  0  0
  -28.3476  -21.9758   22.8487 H   0  0  0  0  0  0
  -30.0906  -22.2768   22.6554 H   0  0  0  0  0  0
  -29.2359  -24.6994   17.7184 H   0  0  0  0  0  0
  -28.1974  -26.1151   17.7590 H   0  0  0  0  0  0
  -27.4807  -24.5009   17.7927 H   0  0  0  0  0  0
  -29.2568  -15.5199   23.3517 H   0  0  0  0  0  0
  -31.0094  -15.7902   23.3323 H   0  0  0  0  0  0
  -30.3605  -14.2115   23.0000 H   0  0  0  0  0  0
  1 25  1  0  0  0
  1 30  2  0  0  0
  1 86  1  0  0  0
  2  3  1  0  0  0
  2 25  1  0  0  0
  2 88  1  0  0  0
  2 89  1  0  0  0
  3  4  1  0  0  0
  3 90  1  0  0  0
  3 91  1  0  0  0
  4  5  1  0  0  0
  4 92  1  0  0  0
  4 93  1  0  0  0
  5  6  1  0  0  0
  5 26  1  0  0  0
  5 94  1  0  0  0
  6 25  1  0  0  0
  6 95  1  0  0  0
  6 96  1  0  0  0
  7  8  2  0  0  0
  7 26  1  0  0  0
  7 29  1  0  0  0
  8  9  1  0  0  0
  8 22  1  0  0  0
  9 10  1  0  0  0
  9 27  2  0  0  0
 10 11  2  0  0  0
 10 15  1  0  0  0
 11 12  1  0  0  0
 11 97  1  0  0  0
 12 13  2  0  0  0
 12 98  1  0  0  0
 13 14  1  0  0  0
 13 31  1  0  0  0
 14 15  2  0  0  0
 14 99  1  0  0  0
 15100  1  0  0  0
 16 17  2  0  0  0
 16 21  1  0  0  0
 16 31  1  0  0  0
 17 18  1  0  0  0
 17101  1  0  0  0
 18 19  2  0  0  0
 18102  1  0  0  0
 19 20  1  0  0  0
 19 24  1  0  0  0
 20 21  2  0  0  0
 20103  1  0  0  0
 21 23  1  0  0  0
 22 28  1  0  0  0
 22 32  2  0  0  0
 26 27  1  0  0  0
 28104  1  0  0  0
 28105  1  0  0  0
 29106  1  0  0  0
 29107  1  0  0  0
 33 34  1  0  0  0
 33 66  1  0  0  0
 33 70  2  0  0  0
 34 36  1  0  0  0
 34 59  1  0  0  0
 34108  1  0  0  0
 35 44  2  0  0  0
 35 45  1  0  0  0
 35 68  1  0  0  0
 36 56  1  0  0  0
 36109  1  0  0  0
 37 39  1  0  0  0
 37 47  1  0  0  0
 37 66  1  0  0  0
 37110  1  0  0  0
 38 43  2  0  0  0
 38 46  1  0  0  0
 38 47  1  0  0  0
 39 64  1  0  0  0
 39 67  2  0  0  0
 40 52  1  0  0  0
 40 53  2  0  0  0
 40 58  1  0  0  0
 41111  1  0  0  0
 41112  1  0  0  0
 41113  1  0  0  0
 41 48  1  0  0  0
 42 43  1  0  0  0
 42 66  1  0  0  0
 42114  1  0  0  0
 42115  1  0  0  0
 43 44  1  0  0  0
 44116  1  0  0  0
 45 46  2  0  0  0
 45117  1  0  0  0
 46118  1  0  0  0
 47119  1  0  0  0
 47120  1  0  0  0
 48 56  1  0  0  0
 48 65  1  0  0  0
 48121  1  0  0  0
 49 50  1  0  0  0
 49 53  1  0  0  0
 49 64  1  0  0  0
 49122  1  0  0  0
 50 51  1  0  0  0
 50123  1  0  0  0
 50124  1  0  0  0
 51 52  1  0  0  0
 51125  1  0  0  0
 51126  1  0  0  0
 52127  1  0  0  0
 52128  1  0  0  0
 53 54  1  0  0  0
 54 55  2  0  0  0
 54129  1  0  0  0
 55 57  1  0  0  0
 55130  1  0  0  0
 56 69  2  0  0  0
 57 58  2  0  0  0
 57131  1  0  0  0
 58132  1  0  0  0
 59 60  1  0  0  0
 59 61  1  0  0  0
 59 62  1  0  0  0
 60133  1  0  0  0
 60134  1  0  0  0
 60135  1  0  0  0
 61136  1  0  0  0
 61137  1  0  0  0
 61138  1  0  0  0
 62139  1  0  0  0
 62140  1  0  0  0
 62141  1  0  0  0
 63 65  1  0  0  0
 63142  1  0  0  0
 63143  1  0  0  0
 63144  1  0  0  0
 64145  1  0  0  0
 65146  1  0  0  0
 68 81  1  0  0  0
 71 73  2  0  0  0
 71 75  1  0  0  0
 71147  1  0  0  0
 72 74  1  0  0  0
 72 75  2  0  0  0
 72148  1  0  0  0
 73 76  1  0  0  0
 73149  1  0  0  0
 74 76  2  0  0  0
 74150  1  0  0  0
 75 85  1  0  0  0
 76 86  1  0  0  0
 77 78  1  0  0  0
 77 79  1  0  0  0
 77 81  2  0  0  0
 78 80  2  0  0  0
 78 82  1  0  0  0
 79 85  1  0  0  0
 79 87  2  0  0  0
 80151  1  0  0  0
 80152  1  0  0  0
 81 83  1  0  0  0
 82 85  1  0  0  0
 82153  1  0  0  0
 82154  1  0  0  0
 83155  1  0  0  0
 83156  1  0  0  0
 83157  1  0  0  0
 84 86  1  0  0  0
 84158  1  0  0  0
 84159  1  0  0  0
 84160  1  0  0  0
M  ISO  4   1 100  68 101  81 101  86 100
M  END
> <chiral flag>
0

> <version>
0

> <s_m_source_file>
/data/baiqing/PycharmProjects/Reinvent-master-3.2/result/LINK_invent/BTK/process_docking_weight1_custom_product_contain_oxygen_bond_distance_aromatic_linkinvent_7_9_3/rearranged_h_0077.sdf

> <i_m_source_file_index>
38

> <r_mmod_Potential_Energy-OPLS-2005>
489.254333496094

> <r_mmod_Stretch_Energy-OPLS-2005>
130.246109008789

> <r_mmod_Bend_Energy-OPLS-2005>
227.116226196289

> <r_mmod_Torsional_Energy-OPLS-2005>
314.086639404297

> <r_mmod_Improper_Torsional_Energy-OPLS-2005>
3.35581421852112

> <r_mmod_Van_der_Waal_Energy-OPLS-2005>
158.293853759766

> <r_mmod_Electrostatic_Energy-OPLS-2005>
-223.826629638672

> <r_mmod_Solvation_Energy-OPLS-2005>
-190.098327636719

> <b_mmod_Minimization_Converged-OPLS-2005>
0

> <r_mmod_RMS_Derivative-OPLS-2005>
0.702008128166199

$$$$
38
                    3D
 Structure written by MMmdl.
157166  0  0  1  0            999 V2000
  -30.7447  -14.5224   20.5127 C   0  0  0  0  0  0
  -30.3984  -12.3258   19.4433 C   0  0  0  0  0  0
  -29.4870  -12.4849   18.2126 C   0  0  0  0  0  0
  -28.0110  -12.3490   18.6284 C   0  0  0  0  0  0
  -27.6470  -13.2257   19.8581 C   0  0  2  0  0  0
  -28.6941  -13.1017   20.9878 C   0  0  0  0  0  0
  -25.2520  -13.8201   20.5699 C   0  0  0  0  0  0
  -24.1798  -13.0446   20.9188 C   0  0  0  0  0  0
  -24.6386  -11.6924   20.8744 C   0  0  0  0  0  0
  -23.9066  -10.4298   21.0404 C   0  0  0  0  0  0
  -24.3618   -9.4212   21.9181 C   0  0  0  0  0  0
  -23.6294   -8.2246   22.0753 C   0  0  0  0  0  0
  -22.4275   -8.0283   21.3545 C   0  0  0  0  0  0
  -21.9910   -9.0256   20.4646 C   0  0  0  0  0  0
  -22.7239  -10.2135   20.3053 C   0  0  0  0  0  0
  -21.6855   -6.0735   22.5278 C   0  0  0  0  0  0
  -21.4017   -6.5639   23.8212 C   0  0  0  0  0  0
  -21.3660   -5.6792   24.9174 C   0  0  0  0  0  0
  -21.6044   -4.3055   24.7224 C   0  0  0  0  0  0
  -21.8819   -3.8146   23.4346 C   0  0  0  0  0  0
  -21.9194   -4.6962   22.3402 C   0  0  0  0  0  0
  -22.7819  -13.5226   21.1853 C   0  0  0  0  0  0
  -22.1661   -4.2148   21.0979 F   0  0  0  0  0  0
  -21.5629   -3.4538   25.7738 F   0  0  0  0  0  0
  -30.0131  -13.3754   20.4055 N   0  0  0  0  0  0
  -26.2961  -12.9409   20.3339 N   0  0  0  0  0  0
  -25.9320  -11.6551   20.5781 N   0  0  0  0  0  0
  -22.0470  -12.8216   22.0413 N   0  0  0  0  0  0
  -25.4205  -15.1924   20.4131 N   0  0  0  0  0  0
  -31.9211  -14.5312   20.1429 O   0  0  0  0  0  0
  -21.6642   -6.8878   21.4240 O   0  0  0  0  0  0
  -22.3497  -14.5531   20.6705 O   0  0  0  0  0  0
  -24.6172  -31.8657   23.2078 C   0  0  0  0  0  0
  -25.9054  -32.4808   23.8381 C   0  0  1  0  0  0
  -27.2253  -27.4131   20.1053 C   0  0  0  0  0  0
  -25.5901  -33.8606   24.2320 N   0  0  0  0  0  0
  -23.4067  -30.4890   21.5484 C   0  0  2  0  0  0
  -24.8543  -28.9563   20.1075 C   0  0  0  0  0  0
  -22.7432  -29.4642   22.4969 C   0  0  0  0  0  0
  -18.0279  -28.1376   22.8493 C   0  0  0  0  0  0
  -24.1487  -36.7311   23.2639 C   0  0  0  0  0  0
  -25.9372  -30.8286   21.3617 C   0  0  0  0  0  0
  -26.0166  -29.4640   20.7036 C   0  0  0  0  0  0
  -27.2111  -28.7026   20.6936 C   0  0  0  0  0  0
  -26.0520  -26.9288   19.4947 C   0  0  0  0  0  0
  -24.8687  -27.6910   19.4947 C   0  0  0  0  0  0
  -23.6154  -29.8229   20.1619 C   0  0  0  0  0  0
  -25.4108  -36.3106   24.0339 C   0  0  1  0  0  0
  -20.5872  -28.3666   23.1311 C   0  0  2  0  0  0
  -20.6765  -26.9398   22.5417 C   0  0  0  0  0  0
  -19.5744  -26.6382   21.5213 C   0  0  0  0  0  0
  -18.1924  -26.7922   22.1626 C   0  0  0  0  0  0
  -19.1528  -28.8839   23.2899 C   0  0  0  0  0  0
  -18.9454  -30.1445   23.8907 C   0  0  0  0  0  0
  -17.6454  -30.6582   24.0565 C   0  0  0  0  0  0
  -25.9035  -34.9468   23.5129 C   0  0  0  0  0  0
  -16.5346  -29.9082   23.6324 C   0  0  0  0  0  0
  -16.7267  -28.6499   23.0346 C   0  0  0  0  0  0
  -26.4474  -31.6586   25.0712 C   0  0  0  0  0  0
  -25.3740  -31.3695   26.1463 C   0  0  0  0  0  0
  -27.0303  -30.3026   24.6088 C   0  0  0  0  0  0
  -27.6051  -32.4303   25.7476 C   0  0  0  0  0  0
  -27.5579  -37.1813   24.8467 C   0  0  0  0  0  0
  -21.4154  -29.3030   22.3715 N   0  0  0  0  0  0
  -26.4295  -37.3789   23.9406 N   0  0  0  0  0  0
  -24.6721  -31.0749   22.0979 N   0  0  0  0  0  0
  -23.4195  -28.8186   23.3020 O   0  0  0  0  0  0
  -28.3249  -26.5780   20.1650 O   0  0  0  0  0  0
  -26.5598  -34.8924   22.4692 O   0  0  0  0  0  0
  -23.5358  -32.1411   23.7464 O   0  0  0  0  0  0
  -30.4387  -19.1544   19.8667 C   0  0  0  0  0  0
  -29.9209  -20.4634   19.7573 C   0  0  0  0  0  0
  -28.2558  -19.9204   21.3817 C   0  0  0  0  0  0
  -29.8933  -18.1926   20.7511 C   0  0  0  0  0  0
  -28.8371  -20.9137   20.5430 C   0  0  0  0  0  0
  -28.7495  -18.5885   21.5013 C   0  0  0  0  0  0
  -28.3691  -24.2479   20.8960 C   0  0  0  0  0  0
  -28.6148  -23.4290   19.7323 C   0  0  0  0  0  0
  -30.6845  -16.9012   20.9334 C   0  0  0  0  0  0
  -28.2645  -25.5838   21.1339 C   0  0  0  0  0  0
  -28.3054  -23.0108   21.7747 C   0  0  0  0  0  0
  -28.0576  -26.1294   22.5408 C   0  0  0  0  0  0
  -28.3710  -22.2754   20.5042 N   0  0  0  0  0  0
  -28.0988  -17.7336   22.3991 N   0  0  0  0  0  0
  -30.0886  -15.6805   20.8082 N   0  0  0  0  0  0
  -29.0232  -23.6936   18.6204 O   0  0  0  0  0  0
  -31.8950  -17.0478   21.1537 O   0  0  0  0  0  0
  -31.4459  -12.3760   19.1412 H   0  0  0  0  0  0
  -30.2704  -11.3390   19.8912 H   0  0  0  0  0  0
  -29.7332  -11.7346   17.4600 H   0  0  0  0  0  0
  -29.6552  -13.4565   17.7455 H   0  0  0  0  0  0
  -27.8325  -11.2978   18.8576 H   0  0  0  0  0  0
  -27.3585  -12.5894   17.7880 H   0  0  0  0  0  0
  -27.6623  -14.2589   19.5107 H   0  0  0  0  0  0
  -28.6789  -12.1000   21.4202 H   0  0  0  0  0  0
  -28.4667  -13.7887   21.8045 H   0  0  0  0  0  0
  -25.2761   -9.5691   22.4757 H   0  0  0  0  0  0
  -24.0005   -7.4638   22.7472 H   0  0  0  0  0  0
  -21.0841   -8.8773   19.8951 H   0  0  0  0  0  0
  -22.3694  -10.9674   19.6162 H   0  0  0  0  0  0
  -21.2010   -7.6148   23.9716 H   0  0  0  0  0  0
  -21.1481   -6.0522   25.9077 H   0  0  0  0  0  0
  -22.0598   -2.7609   23.2847 H   0  0  0  0  0  0
  -22.4093  -11.9880   22.4802 H   0  0  0  0  0  0
  -21.1088  -13.1237   22.2623 H   0  0  0  0  0  0
  -24.6616  -15.8496   20.5552 H   0  0  0  0  0  0
  -26.2888  -15.6456   20.1585 H   0  0  0  0  0  0
  -26.7127  -32.5519   23.1145 H   0  0  0  0  0  0
  -25.0061  -33.9760   25.0472 H   0  0  0  0  0  0
  -22.6959  -31.3063   21.4092 H   0  0  0  0  0  0
  -23.3741  -35.9653   23.3318 H   0  0  0  0  0  0
  -24.3580  -36.8907   22.2050 H   0  0  0  0  0  0
  -23.7249  -37.6526   23.6641 H   0  0  0  0  0  0
  -26.0521  -31.5966   20.5957 H   0  0  0  0  0  0
  -26.8236  -30.8798   21.9822 H   0  0  0  0  0  0
  -28.1057  -29.0800   21.1685 H   0  0  0  0  0  0
  -26.0509  -25.9471   19.0424 H   0  0  0  0  0  0
  -23.9752  -27.2942   19.0326 H   0  0  0  0  0  0
  -23.7228  -30.5987   19.4028 H   0  0  0  0  0  0
  -22.7395  -29.2429   19.8662 H   0  0  0  0  0  0
  -25.1284  -36.1972   25.0834 H   0  0  0  0  0  0
  -20.9966  -28.3230   24.1431 H   0  0  0  0  0  0
  -20.5665  -26.2270   23.3605 H   0  0  0  0  0  0
  -21.6637  -26.7434   22.1210 H   0  0  0  0  0  0
  -19.6901  -25.6297   21.1231 H   0  0  0  0  0  0
  -19.6681  -27.3201   20.6749 H   0  0  0  0  0  0
  -17.4192  -26.6675   21.4027 H   0  0  0  0  0  0
  -18.0322  -26.0060   22.9019 H   0  0  0  0  0  0
  -19.7930  -30.7261   24.2277 H   0  0  0  0  0  0
  -17.5009  -31.6263   24.5165 H   0  0  0  0  0  0
  -15.5348  -30.2987   23.7641 H   0  0  0  0  0  0
  -15.8667  -28.0824   22.7050 H   0  0  0  0  0  0
  -24.5911  -30.7045   25.7798 H   0  0  0  0  0  0
  -24.8937  -32.2853   26.4919 H   0  0  0  0  0  0
  -25.8098  -30.8856   27.0213 H   0  0  0  0  0  0
  -26.2851  -29.6791   24.1133 H   0  0  0  0  0  0
  -27.4064  -29.7252   25.4542 H   0  0  0  0  0  0
  -27.8687  -30.4339   23.9243 H   0  0  0  0  0  0
  -27.2671  -33.3587   26.2089 H   0  0  0  0  0  0
  -28.3845  -32.6886   25.0295 H   0  0  0  0  0  0
  -28.0738  -31.8404   26.5363 H   0  0  0  0  0  0
  -28.2613  -38.0094   24.7497 H   0  0  0  0  0  0
  -28.1061  -36.2627   24.6314 H   0  0  0  0  0  0
  -27.2299  -37.1490   25.8872 H   0  0  0  0  0  0
  -20.9312  -29.8758   21.6943 H   0  0  0  0  0  0
  -26.0187  -38.2872   24.1389 H   0  0  0  0  0  0
  -31.3111  -18.8983   19.2814 H   0  0  0  0  0  0
  -30.4097  -21.1507   19.0803 H   0  0  0  0  0  0
  -27.4039  -20.2095   21.9811 H   0  0  0  0  0  0
  -27.3787  -22.8151   22.3160 H   0  0  0  0  0  0
  -29.1703  -22.8185   22.4129 H   0  0  0  0  0  0
  -26.9980  -26.2982   22.7360 H   0  0  0  0  0  0
  -28.5885  -27.0723   22.6739 H   0  0  0  0  0  0
  -28.4330  -25.4342   23.2918 H   0  0  0  0  0  0
  -27.3997  -18.1328   23.0185 H   0  0  0  0  0  0
  -28.6151  -16.9867   22.8512 H   0  0  0  0  0  0
  -29.0830  -15.6614   20.8291 H   0  0  0  0  0  0
  1 25  1  0  0  0
  1 30  2  0  0  0
  1 85  1  0  0  0
  2  3  1  0  0  0
  2 25  1  0  0  0
  2 88  1  0  0  0
  2 89  1  0  0  0
  3  4  1  0  0  0
  3 90  1  0  0  0
  3 91  1  0  0  0
  4  5  1  0  0  0
  4 92  1  0  0  0
  4 93  1  0  0  0
  5  6  1  0  0  0
  5 26  1  0  0  0
  5 94  1  0  0  0
  6 25  1  0  0  0
  6 95  1  0  0  0
  6 96  1  0  0  0
  7  8  2  0  0  0
  7 26  1  0  0  0
  7 29  1  0  0  0
  8  9  1  0  0  0
  8 22  1  0  0  0
  9 10  1  0  0  0
  9 27  2  0  0  0
 10 11  2  0  0  0
 10 15  1  0  0  0
 11 12  1  0  0  0
 11 97  1  0  0  0
 12 13  2  0  0  0
 12 98  1  0  0  0
 13 14  1  0  0  0
 13 31  1  0  0  0
 14 15  2  0  0  0
 14 99  1  0  0  0
 15100  1  0  0  0
 16 17  2  0  0  0
 16 21  1  0  0  0
 16 31  1  0  0  0
 17 18  1  0  0  0
 17101  1  0  0  0
 18 19  2  0  0  0
 18102  1  0  0  0
 19 20  1  0  0  0
 19 24  1  0  0  0
 20 21  2  0  0  0
 20103  1  0  0  0
 21 23  1  0  0  0
 22 28  1  0  0  0
 22 32  2  0  0  0
 26 27  1  0  0  0
 28104  1  0  0  0
 28105  1  0  0  0
 29106  1  0  0  0
 29107  1  0  0  0
 33 34  1  0  0  0
 33 66  1  0  0  0
 33 70  2  0  0  0
 34 36  1  0  0  0
 34 59  1  0  0  0
 34108  1  0  0  0
 35 44  2  0  0  0
 35 45  1  0  0  0
 35 68  1  0  0  0
 36 56  1  0  0  0
 36109  1  0  0  0
 37 39  1  0  0  0
 37 47  1  0  0  0
 37 66  1  0  0  0
 37110  1  0  0  0
 38 43  2  0  0  0
 38 46  1  0  0  0
 38 47  1  0  0  0
 39 64  1  0  0  0
 39 67  2  0  0  0
 40 52  1  0  0  0
 40 53  2  0  0  0
 40 58  1  0  0  0
 41111  1  0  0  0
 41112  1  0  0  0
 41113  1  0  0  0
 41 48  1  0  0  0
 42 43  1  0  0  0
 42 66  1  0  0  0
 42114  1  0  0  0
 42115  1  0  0  0
 43 44  1  0  0  0
 44116  1  0  0  0
 45 46  2  0  0  0
 45117  1  0  0  0
 46118  1  0  0  0
 47119  1  0  0  0
 47120  1  0  0  0
 48 56  1  0  0  0
 48 65  1  0  0  0
 48121  1  0  0  0
 49 50  1  0  0  0
 49 53  1  0  0  0
 49 64  1  0  0  0
 49122  1  0  0  0
 50 51  1  0  0  0
 50123  1  0  0  0
 50124  1  0  0  0
 51 52  1  0  0  0
 51125  1  0  0  0
 51126  1  0  0  0
 52127  1  0  0  0
 52128  1  0  0  0
 53 54  1  0  0  0
 54 55  2  0  0  0
 54129  1  0  0  0
 55 57  1  0  0  0
 55130  1  0  0  0
 56 69  2  0  0  0
 57 58  2  0  0  0
 57131  1  0  0  0
 58132  1  0  0  0
 59 60  1  0  0  0
 59 61  1  0  0  0
 59 62  1  0  0  0
 60133  1  0  0  0
 60134  1  0  0  0
 60135  1  0  0  0
 61136  1  0  0  0
 61137  1  0  0  0
 61138  1  0  0  0
 62139  1  0  0  0
 62140  1  0  0  0
 62141  1  0  0  0
 63 65  1  0  0  0
 63142  1  0  0  0
 63143  1  0  0  0
 63144  1  0  0  0
 64145  1  0  0  0
 65146  1  0  0  0
 68 80  1  0  0  0
 71 72  2  0  0  0
 71 74  1  0  0  0
 71147  1  0  0  0
 72 75  1  0  0  0
 72148  1  0  0  0
 73 75  2  0  0  0
 73 76  1  0  0  0
 73149  1  0  0  0
 74 76  2  0  0  0
 74 79  1  0  0  0
 75 83  1  0  0  0
 76 84  1  0  0  0
 77 78  1  0  0  0
 77 80  2  0  0  0
 77 81  1  0  0  0
 78 83  1  0  0  0
 78 86  2  0  0  0
 79 85  1  0  0  0
 79 87  2  0  0  0
 80 82  1  0  0  0
 81 83  1  0  0  0
 81150  1  0  0  0
 81151  1  0  0  0
 82152  1  0  0  0
 82153  1  0  0  0
 82154  1  0  0  0
 84155  1  0  0  0
 84156  1  0  0  0
 85157  1  0  0  0
M  ISO  4   1 100  68 101  80 101  85 100
M  END
> <chiral flag>
0

> <version>
0

> <s_m_source_file>
/data/baiqing/PycharmProjects/Reinvent-master-3.2/result/LINK_invent/BTK/process_docking_weight1_custom_product_contain_oxygen_bond_distance_aromatic_linkinvent_7_9_3/rearranged_h_0077.sdf

> <i_m_source_file_index>
39

> <r_mmod_Potential_Energy-OPLS-2005>
163.358688354492

> <r_mmod_Stretch_Energy-OPLS-2005>
47.5224914550781

> <r_mmod_Bend_Energy-OPLS-2005>
179.275787353516

> <r_mmod_Torsional_Energy-OPLS-2005>
275.558654785156

> <r_mmod_Improper_Torsional_Energy-OPLS-2005>
14.6203622817993

> <r_mmod_Van_der_Waal_Energy-OPLS-2005>
150.413848876953

> <r_mmod_Electrostatic_Energy-OPLS-2005>
-296.093383789062

> <r_mmod_Solvation_Energy-OPLS-2005>
-237.924667358398

> <b_mmod_Minimization_Converged-OPLS-2005>
0

> <r_mmod_RMS_Derivative-OPLS-2005>
0.484592646360397

$$$$
39
                    3D
 Structure written by MMmdl.
163172  0  0  1  0            999 V2000
  -30.6431  -14.5481   20.5535 C   0  0  0  0  0  0
  -30.4395  -12.3488   19.4269 C   0  0  0  0  0  0
  -29.5020  -12.5082   18.2096 C   0  0  0  0  0  0
  -28.0231  -12.3564   18.6224 C   0  0  0  0  0  0
  -27.6601  -13.2036   19.8712 C   0  0  2  0  0  0
  -28.7037  -12.9959   20.9920 C   0  0  0  0  0  0
  -25.2593  -13.8148   20.5671 C   0  0  0  0  0  0
  -24.1842  -13.0433   20.9174 C   0  0  0  0  0  0
  -24.6391  -11.6897   20.8733 C   0  0  0  0  0  0
  -23.9055  -10.4289   21.0407 C   0  0  0  0  0  0
  -24.3610   -9.4204   21.9184 C   0  0  0  0  0  0
  -23.6286   -8.2241   22.0753 C   0  0  0  0  0  0
  -22.4269   -8.0280   21.3543 C   0  0  0  0  0  0
  -21.9901   -9.0254   20.4647 C   0  0  0  0  0  0
  -22.7227  -10.2133   20.3056 C   0  0  0  0  0  0
  -21.6852   -6.0735   22.5279 C   0  0  0  0  0  0
  -21.4013   -6.5639   23.8211 C   0  0  0  0  0  0
  -21.3658   -5.6792   24.9174 C   0  0  0  0  0  0
  -21.6045   -4.3055   24.7223 C   0  0  0  0  0  0
  -21.8820   -3.8146   23.4345 C   0  0  0  0  0  0
  -21.9192   -4.6963   22.3401 C   0  0  0  0  0  0
  -22.7867  -13.5239   21.1840 C   0  0  0  0  0  0
  -22.1660   -4.2148   21.0979 F   0  0  0  0  0  0
  -21.5629   -3.4538   25.7736 F   0  0  0  0  0  0
  -30.0267  -13.3354   20.4389 N   0  0  0  0  0  0
  -26.3018  -12.9305   20.3341 N   0  0  0  0  0  0
  -25.9316  -11.6470   20.5757 N   0  0  0  0  0  0
  -22.0504  -12.8239   22.0401 N   0  0  0  0  0  0
  -25.4326  -15.1866   20.4078 N   0  0  0  0  0  0
  -31.7824  -14.7574   20.1241 O   0  0  0  0  0  0
  -21.6636   -6.8877   21.4239 O   0  0  0  0  0  0
  -22.3556  -14.5546   20.6688 O   0  0  0  0  0  0
  -24.6187  -31.8645   23.2063 C   0  0  0  0  0  0
  -25.9064  -32.4804   23.8373 C   0  0  1  0  0  0
  -27.2358  -27.3917   20.1126 C   0  0  0  0  0  0
  -25.5906  -33.8603   24.2306 N   0  0  0  0  0  0
  -23.4096  -30.4859   21.5474 C   0  0  2  0  0  0
  -24.8580  -28.9409   20.1199 C   0  0  0  0  0  0
  -22.7432  -29.4642   22.4975 C   0  0  0  0  0  0
  -18.0277  -28.1380   22.8490 C   0  0  0  0  0  0
  -24.1488  -36.7308   23.2637 C   0  0  0  0  0  0
  -25.9421  -30.8167   21.3658 C   0  0  0  0  0  0
  -26.0204  -29.4455   20.7179 C   0  0  0  0  0  0
  -27.2147  -28.6797   20.7076 C   0  0  0  0  0  0
  -26.0556  -26.9086   19.5107 C   0  0  0  0  0  0
  -24.8717  -27.6726   19.5128 C   0  0  0  0  0  0
  -23.6221  -29.8139   20.1644 C   0  0  0  0  0  0
  -25.4110  -36.3100   24.0333 C   0  0  1  0  0  0
  -20.5870  -28.3674   23.1308 C   0  0  2  0  0  0
  -20.6768  -26.9406   22.5416 C   0  0  0  0  0  0
  -19.5747  -26.6386   21.5213 C   0  0  0  0  0  0
  -18.1926  -26.7926   22.1624 C   0  0  0  0  0  0
  -19.1527  -28.8843   23.2895 C   0  0  0  0  0  0
  -18.9453  -30.1449   23.8908 C   0  0  0  0  0  0
  -17.6455  -30.6586   24.0566 C   0  0  0  0  0  0
  -25.9041  -34.9467   23.5118 C   0  0  0  0  0  0
  -16.5346  -29.9087   23.6328 C   0  0  0  0  0  0
  -16.7266  -28.6503   23.0348 C   0  0  0  0  0  0
  -26.4482  -31.6593   25.0714 C   0  0  0  0  0  0
  -25.3742  -31.3706   26.1458 C   0  0  0  0  0  0
  -27.0318  -30.3032   24.6112 C   0  0  0  0  0  0
  -27.6054  -32.4317   25.7478 C   0  0  0  0  0  0
  -27.5582  -37.1804   24.8462 C   0  0  0  0  0  0
  -21.4156  -29.3035   22.3709 N   0  0  0  0  0  0
  -26.4292  -37.3789   23.9410 N   0  0  0  0  0  0
  -24.6751  -31.0711   22.0980 N   0  0  0  0  0  0
  -23.4183  -28.8191   23.3039 O   0  0  0  0  0  0
  -28.3875  -26.6242   20.0640 O   0  0  0  0  0  0
  -26.5606  -34.8924   22.4683 O   0  0  0  0  0  0
  -23.5369  -32.1414   23.7433 O   0  0  0  0  0  0
  -30.4969  -18.8200   22.7151 C   0  0  0  0  0  0
  -29.9985  -19.2938   20.4002 C   0  0  0  0  0  0
  -30.3837  -17.4331   22.4784 C   0  0  0  0  0  0
  -29.8894  -17.8924   20.1557 C   0  0  0  0  0  0
  -30.3054  -19.7895   21.6935 C   0  0  0  0  0  0
  -30.0947  -16.9423   21.1916 C   0  0  0  0  0  0
  -28.3659  -25.3448   20.6071 C   0  0  0  0  0  0
  -29.0675  -24.2970   20.0978 C   0  0  0  0  0  0
  -29.0780  -22.9736   20.7779 C   0  0  0  0  0  0
  -32.5670  -22.7228   21.7997 C   0  0  0  0  0  0
  -32.1329  -21.3421   22.2146 C   0  0  0  0  0  0
  -31.5827  -23.0585   20.6954 C   0  0  0  0  0  0
  -30.5970  -21.2909   22.0304 C   0  0  2  0  0  0
  -29.9473  -21.6870   23.3866 C   0  0  0  0  0  0
  -30.3056  -22.3938   21.0304 N   0  0  0  0  0  0
  -29.8456  -15.5377   21.0262 N   0  0  0  0  0  0
  -28.0293  -22.4336   21.1404 O   0  0  0  0  0  0
  -29.7425  -24.4757   18.9510 O   0  0  0  0  0  0
  -31.4794  -12.4804   19.1226 H   0  0  0  0  0  0
  -30.3727  -11.3395   19.8360 H   0  0  0  0  0  0
  -29.7523  -11.7734   17.4431 H   0  0  0  0  0  0
  -29.6550  -13.4879   17.7541 H   0  0  0  0  0  0
  -27.8447  -11.3004   18.8284 H   0  0  0  0  0  0
  -27.3704  -12.6165   17.7882 H   0  0  0  0  0  0
  -27.6976  -14.2485   19.5631 H   0  0  0  0  0  0
  -28.6996  -11.9573   21.3260 H   0  0  0  0  0  0
  -28.4549  -13.5842   21.8765 H   0  0  0  0  0  0
  -25.2760   -9.5678   22.4752 H   0  0  0  0  0  0
  -23.9996   -7.4632   22.7471 H   0  0  0  0  0  0
  -21.0832   -8.8772   19.8955 H   0  0  0  0  0  0
  -22.3688  -10.9671   19.6161 H   0  0  0  0  0  0
  -21.2006   -7.6148   23.9715 H   0  0  0  0  0  0
  -21.1480   -6.0523   25.9077 H   0  0  0  0  0  0
  -22.0600   -2.7608   23.2847 H   0  0  0  0  0  0
  -22.4114  -11.9901   22.4793 H   0  0  0  0  0  0
  -21.1123  -13.1272   22.2602 H   0  0  0  0  0  0
  -24.6674  -15.8433   20.5176 H   0  0  0  0  0  0
  -26.2851  -15.6252   20.0827 H   0  0  0  0  0  0
  -26.7136  -32.5507   23.1134 H   0  0  0  0  0  0
  -25.0062  -33.9758   25.0454 H   0  0  0  0  0  0
  -22.7005  -31.3037   21.4038 H   0  0  0  0  0  0
  -23.3745  -35.9645   23.3305 H   0  0  0  0  0  0
  -24.3582  -36.8918   22.2051 H   0  0  0  0  0  0
  -23.7245  -37.6515   23.6650 H   0  0  0  0  0  0
  -26.0588  -31.5785   20.5937 H   0  0  0  0  0  0
  -26.8283  -30.8728   21.9863 H   0  0  0  0  0  0
  -28.1158  -29.0672   21.1619 H   0  0  0  0  0  0
  -26.0555  -25.9379   19.0351 H   0  0  0  0  0  0
  -23.9792  -27.2785   19.0465 H   0  0  0  0  0  0
  -23.7360  -30.5866   19.4034 H   0  0  0  0  0  0
  -22.7448  -29.2365   19.8668 H   0  0  0  0  0  0
  -25.1286  -36.1960   25.0826 H   0  0  0  0  0  0
  -20.9962  -28.3244   24.1428 H   0  0  0  0  0  0
  -20.5675  -26.2281   23.3606 H   0  0  0  0  0  0
  -21.6639  -26.7449   22.1207 H   0  0  0  0  0  0
  -19.6911  -25.6300   21.1233 H   0  0  0  0  0  0
  -19.6687  -27.3205   20.6750 H   0  0  0  0  0  0
  -17.4197  -26.6675   21.4026 H   0  0  0  0  0  0
  -18.0328  -26.0065   22.9019 H   0  0  0  0  0  0
  -19.7930  -30.7261   24.2283 H   0  0  0  0  0  0
  -17.5011  -31.6267   24.5166 H   0  0  0  0  0  0
  -15.5348  -30.2993   23.7645 H   0  0  0  0  0  0
  -15.8665  -28.0828   22.7056 H   0  0  0  0  0  0
  -24.5914  -30.7056   25.7792 H   0  0  0  0  0  0
  -24.8936  -32.2864   26.4910 H   0  0  0  0  0  0
  -25.8090  -30.8870   27.0215 H   0  0  0  0  0  0
  -26.2869  -29.6786   24.1168 H   0  0  0  0  0  0
  -27.4083  -29.7277   25.4578 H   0  0  0  0  0  0
  -27.8706  -30.4344   23.9271 H   0  0  0  0  0  0
  -27.2671  -33.3606   26.2082 H   0  0  0  0  0  0
  -28.3849  -32.6896   25.0297 H   0  0  0  0  0  0
  -28.0741  -31.8427   26.5372 H   0  0  0  0  0  0
  -28.2596  -38.0105   24.7519 H   0  0  0  0  0  0
  -28.1082  -36.2638   24.6274 H   0  0  0  0  0  0
  -27.2302  -37.1436   25.8865 H   0  0  0  0  0  0
  -20.9324  -29.8750   21.6920 H   0  0  0  0  0  0
  -26.0178  -38.2864   24.1417 H   0  0  0  0  0  0
  -30.7662  -19.1241   23.7149 H   0  0  0  0  0  0
  -29.8625  -19.9853   19.5806 H   0  0  0  0  0  0
  -30.5202  -16.7464   23.3025 H   0  0  0  0  0  0
  -29.6324  -17.5523   19.1621 H   0  0  0  0  0  0
  -27.7567  -25.2824   21.5005 H   0  0  0  0  0  0
  -33.6060  -22.7631   21.4704 H   0  0  0  0  0  0
  -32.4494  -23.4167   22.6335 H   0  0  0  0  0  0
  -32.4694  -21.0744   23.2172 H   0  0  0  0  0  0
  -32.6154  -20.6397   21.5314 H   0  0  0  0  0  0
  -31.9315  -22.6778   19.7345 H   0  0  0  0  0  0
  -31.5385  -24.1451   20.6284 H   0  0  0  0  0  0
  -30.3676  -21.1523   24.2367 H   0  0  0  0  0  0
  -28.8748  -21.4931   23.3923 H   0  0  0  0  0  0
  -30.0913  -22.7464   23.6022 H   0  0  0  0  0  0
  -28.9450  -15.2172   21.3485 H   0  0  0  0  0  0
  -29.5955  -25.3754   18.6871 H   0  0  0  0  0  0
  1 25  1  0  0  0
  1 30  2  0  0  0
  1 86  1  0  0  0
  2  3  1  0  0  0
  2 25  1  0  0  0
  2 89  1  0  0  0
  2 90  1  0  0  0
  3  4  1  0  0  0
  3 91  1  0  0  0
  3 92  1  0  0  0
  4  5  1  0  0  0
  4 93  1  0  0  0
  4 94  1  0  0  0
  5  6  1  0  0  0
  5 26  1  0  0  0
  5 95  1  0  0  0
  6 25  1  0  0  0
  6 96  1  0  0  0
  6 97  1  0  0  0
  7  8  2  0  0  0
  7 26  1  0  0  0
  7 29  1  0  0  0
  8  9  1  0  0  0
  8 22  1  0  0  0
  9 10  1  0  0  0
  9 27  2  0  0  0
 10 11  2  0  0  0
 10 15  1  0  0  0
 11 12  1  0  0  0
 11 98  1  0  0  0
 12 13  2  0  0  0
 12 99  1  0  0  0
 13 14  1  0  0  0
 13 31  1  0  0  0
 14 15  2  0  0  0
 14100  1  0  0  0
 15101  1  0  0  0
 16 17  2  0  0  0
 16 21  1  0  0  0
 16 31  1  0  0  0
 17 18  1  0  0  0
 17102  1  0  0  0
 18 19  2  0  0  0
 18103  1  0  0  0
 19 20  1  0  0  0
 19 24  1  0  0  0
 20 21  2  0  0  0
 20104  1  0  0  0
 21 23  1  0  0  0
 22 28  1  0  0  0
 22 32  2  0  0  0
 26 27  1  0  0  0
 28105  1  0  0  0
 28106  1  0  0  0
 29107  1  0  0  0
 29108  1  0  0  0
 33 34  1  0  0  0
 33 66  1  0  0  0
 33 70  2  0  0  0
 34 36  1  0  0  0
 34 59  1  0  0  0
 34109  1  0  0  0
 35 44  2  0  0  0
 35 45  1  0  0  0
 35 68  1  0  0  0
 36 56  1  0  0  0
 36110  1  0  0  0
 37 39  1  0  0  0
 37 47  1  0  0  0
 37 66  1  0  0  0
 37111  1  0  0  0
 38 43  2  0  0  0
 38 46  1  0  0  0
 38 47  1  0  0  0
 39 64  1  0  0  0
 39 67  2  0  0  0
 40 52  1  0  0  0
 40 53  2  0  0  0
 40 58  1  0  0  0
 41112  1  0  0  0
 41113  1  0  0  0
 41114  1  0  0  0
 41 48  1  0  0  0
 42 43  1  0  0  0
 42 66  1  0  0  0
 42115  1  0  0  0
 42116  1  0  0  0
 43 44  1  0  0  0
 44117  1  0  0  0
 45 46  2  0  0  0
 45118  1  0  0  0
 46119  1  0  0  0
 47120  1  0  0  0
 47121  1  0  0  0
 48 56  1  0  0  0
 48 65  1  0  0  0
 48122  1  0  0  0
 49 50  1  0  0  0
 49 53  1  0  0  0
 49 64  1  0  0  0
 49123  1  0  0  0
 50 51  1  0  0  0
 50124  1  0  0  0
 50125  1  0  0  0
 51 52  1  0  0  0
 51126  1  0  0  0
 51127  1  0  0  0
 52128  1  0  0  0
 52129  1  0  0  0
 53 54  1  0  0  0
 54 55  2  0  0  0
 54130  1  0  0  0
 55 57  1  0  0  0
 55131  1  0  0  0
 56 69  2  0  0  0
 57 58  2  0  0  0
 57132  1  0  0  0
 58133  1  0  0  0
 59 60  1  0  0  0
 59 61  1  0  0  0
 59 62  1  0  0  0
 60134  1  0  0  0
 60135  1  0  0  0
 60136  1  0  0  0
 61137  1  0  0  0
 61138  1  0  0  0
 61139  1  0  0  0
 62140  1  0  0  0
 62141  1  0  0  0
 62142  1  0  0  0
 63 65  1  0  0  0
 63143  1  0  0  0
 63144  1  0  0  0
 63145  1  0  0  0
 64146  1  0  0  0
 65147  1  0  0  0
 68 77  1  0  0  0
 71 73  2  0  0  0
 71 75  1  0  0  0
 71148  1  0  0  0
 72 74  1  0  0  0
 72 75  2  0  0  0
 72149  1  0  0  0
 73 76  1  0  0  0
 73150  1  0  0  0
 74 76  2  0  0  0
 74151  1  0  0  0
 75 83  1  0  0  0
 76 86  1  0  0  0
 77 78  2  0  0  0
 77152  1  0  0  0
 78 79  1  0  0  0
 78 88  1  0  0  0
 79 85  1  0  0  0
 79 87  2  0  0  0
 80 81  1  0  0  0
 80 82  1  0  0  0
 80153  1  0  0  0
 80154  1  0  0  0
 81 83  1  0  0  0
 81155  1  0  0  0
 81156  1  0  0  0
 82 85  1  0  0  0
 82157  1  0  0  0
 82158  1  0  0  0
 83 84  1  0  0  0
 83 85  1  0  0  0
 84159  1  0  0  0
 84160  1  0  0  0
 84161  1  0  0  0
 86162  1  0  0  0
 88163  1  0  0  0
M  ISO  4   1 100  68 101  77 101  86 100
M  END
> <chiral flag>
0

> <version>
0

> <s_m_source_file>
/data/baiqing/PycharmProjects/Reinvent-master-3.2/result/LINK_invent/BTK/process_docking_weight1_custom_product_contain_oxygen_bond_distance_aromatic_linkinvent_7_9_3/rearranged_h_0077.sdf

> <i_m_source_file_index>
40

> <r_mmod_Potential_Energy-OPLS-2005>
165.697189331055

> <r_mmod_Stretch_Energy-OPLS-2005>
62.6150436401367

> <r_mmod_Bend_Energy-OPLS-2005>
148.275238037109

> <r_mmod_Torsional_Energy-OPLS-2005>
337.527374267578

> <r_mmod_Improper_Torsional_Energy-OPLS-2005>
6.30089855194092

> <r_mmod_Van_der_Waal_Energy-OPLS-2005>
158.636367797852

> <r_mmod_Electrostatic_Energy-OPLS-2005>
-351.985198974609

> <r_mmod_Solvation_Energy-OPLS-2005>
-217.279602050781

> <b_mmod_Minimization_Converged-OPLS-2005>
0

> <r_mmod_RMS_Derivative-OPLS-2005>
0.358909338712692

$$$$
40
                    3D
 Structure written by MMmdl.
161170  0  0  1  0            999 V2000
  -30.4343  -14.7401   20.6066 C   0  0  0  0  0  0
  -30.4489  -12.4795   19.4975 C   0  0  0  0  0  0
  -29.5111  -12.4570   18.2767 C   0  0  0  0  0  0
  -28.0531  -12.2326   18.7087 C   0  0  0  0  0  0
  -27.6334  -13.1586   19.8714 C   0  0  2  0  0  0
  -28.6437  -13.0249   21.0181 C   0  0  0  0  0  0
  -25.2422  -13.7937   20.5534 C   0  0  0  0  0  0
  -24.1696  -13.0241   20.9218 C   0  0  0  0  0  0
  -24.6282  -11.6740   20.8860 C   0  0  0  0  0  0
  -23.8985  -10.4173   21.0481 C   0  0  0  0  0  0
  -24.3540   -9.4103   21.9246 C   0  0  0  0  0  0
  -23.6224   -8.2140   22.0768 C   0  0  0  0  0  0
  -22.4220   -8.0218   21.3547 C   0  0  0  0  0  0
  -21.9856   -9.0192   20.4655 C   0  0  0  0  0  0
  -22.7184  -10.2079   20.3096 C   0  0  0  0  0  0
  -21.6800   -6.0689   22.5292 C   0  0  0  0  0  0
  -21.3990   -6.5610   23.8217 C   0  0  0  0  0  0
  -21.3662   -5.6775   24.9180 C   0  0  0  0  0  0
  -21.6024   -4.3034   24.7243 C   0  0  0  0  0  0
  -21.8830   -3.8126   23.4371 C   0  0  0  0  0  0
  -21.9170   -4.6926   22.3416 C   0  0  0  0  0  0
  -22.7805  -13.5213   21.1872 C   0  0  0  0  0  0
  -22.1650   -4.2110   21.0989 F   0  0  0  0  0  0
  -21.5634   -3.4530   25.7763 F   0  0  0  0  0  0
  -29.9244  -13.4694   20.4660 N   0  0  0  0  0  0
  -26.2774  -12.9026   20.3278 N   0  0  0  0  0  0
  -25.9115  -11.6236   20.5798 N   0  0  0  0  0  0
  -22.0364  -12.8208   22.0413 N   0  0  0  0  0  0
  -25.4157  -15.1560   20.3876 N   0  0  0  0  0  0
  -31.5906  -14.9462   20.2011 O   0  0  0  0  0  0
  -21.6572   -6.8824   21.4264 O   0  0  0  0  0  0
  -22.3487  -14.5502   20.6708 O   0  0  0  0  0  0
  -24.6345  -31.8303   23.1805 C   0  0  0  0  0  0
  -25.9014  -32.4575   23.8349 C   0  0  1  0  0  0
  -27.0527  -27.0370   20.2119 C   0  0  0  0  0  0
  -25.5819  -33.8398   24.2142 N   0  0  0  0  0  0
  -23.4574  -30.4205   21.5346 C   0  0  2  0  0  0
  -24.9074  -28.8961   20.0595 C   0  0  0  0  0  0
  -22.7815  -29.4135   22.5018 C   0  0  0  0  0  0
  -18.0167  -28.1338   22.8874 C   0  0  0  0  0  0
  -24.1414  -36.7340   23.2641 C   0  0  0  0  0  0
  -25.9942  -30.6344   21.4313 C   0  0  0  0  0  0
  -26.0504  -29.2613   20.7860 C   0  0  0  0  0  0
  -27.1391  -28.3208   20.8924 C   0  0  0  0  0  0
  -26.0215  -26.8964   19.2579 C   0  0  0  0  0  0
  -24.9358  -27.7709   19.2334 C   0  0  0  0  0  0
  -23.6804  -29.7909   20.1235 C   0  0  0  0  0  0
  -25.4095  -36.3090   24.0285 C   0  0  1  0  0  0
  -20.5674  -28.3289   23.1246 C   0  0  2  0  0  0
  -20.6350  -26.9339   22.4776 C   0  0  0  0  0  0
  -19.5249  -26.6629   21.4755 C   0  0  0  0  0  0
  -18.1729  -26.8043   22.1773 C   0  0  0  0  0  0
  -19.1580  -28.8737   23.3124 C   0  0  0  0  0  0
  -18.9946  -30.1391   23.9070 C   0  0  0  0  0  0
  -17.7040  -30.6700   24.0788 C   0  0  0  0  0  0
  -25.9102  -34.9399   23.5084 C   0  0  0  0  0  0
  -16.5847  -29.9270   23.6724 C   0  0  0  0  0  0
  -16.7289  -28.6530   23.1002 C   0  0  0  0  0  0
  -26.4455  -31.6653   25.0835 C   0  0  0  0  0  0
  -25.3729  -31.3864   26.1598 C   0  0  0  0  0  0
  -27.0300  -30.3083   24.6435 C   0  0  0  0  0  0
  -27.6113  -32.4443   25.7515 C   0  0  0  0  0  0
  -27.5592  -37.1781   24.8447 C   0  0  0  0  0  0
  -21.4371  -29.2713   22.3996 N   0  0  0  0  0  0
  -26.4284  -37.3865   23.9402 N   0  0  0  0  0  0
  -24.7146  -30.9973   22.0989 N   0  0  0  0  0  0
  -23.4543  -28.7644   23.3051 O   0  0  0  0  0  0
  -27.8009  -25.8688   20.5458 O   0  0  0  0  0  0
  -26.5773  -34.9062   22.4661 O   0  0  0  0  0  0
  -23.5533  -32.1220   23.7046 O   0  0  0  0  0  0
  -26.7701  -18.9732   22.9679 C   0  0  0  0  0  0
  -27.6386  -18.0186   22.3746 C   0  0  0  0  0  0
  -26.7808  -20.3386   22.5864 C   0  0  0  0  0  0
  -28.5073  -19.8320   21.0222 C   0  0  0  0  0  0
  -28.5061  -18.3888   21.3379 C   0  0  0  0  0  0
  -27.6966  -20.8966   21.6324 C   0  0  0  0  0  0
  -27.2670  -23.5741   22.1109 C   0  0  0  0  0  0
  -27.8582  -23.1161   20.1484 C   0  0  0  0  0  0
  -27.1072  -24.4376   20.7191 C   0  0  1  0  0  0
  -25.5277  -24.5064   20.6172 C   0  0  0  0  0  0
  -30.6258  -17.8437   20.0170 C   0  0  0  0  0  0
  -28.3279  -17.0940   19.2950 C   0  0  0  0  0  0
  -29.2810  -17.2437   20.4942 C   0  0  0  0  0  0
  -27.6717  -22.4076   21.4083 N   0  0  0  0  0  0
  -29.5278  -15.7629   20.9640 N   0  0  0  0  0  0
  -26.8929  -23.6288   23.2476 O   0  0  0  0  0  0
  -31.4552  -12.7257   19.1558 H   0  0  0  0  0  0
  -30.5319  -11.5015   19.9524 H   0  0  0  0  0  0
  -29.8164  -11.6688   17.5940 H   0  0  0  0  0  0
  -29.5723  -13.3805   17.7029 H   0  0  0  0  0  0
  -27.9982  -11.2014   19.0482 H   0  0  0  0  0  0
  -27.3642  -12.2717   17.8682 H   0  0  0  0  0  0
  -27.6536  -14.1750   19.4817 H   0  0  0  0  0  0
  -28.7071  -11.9989   21.3583 H   0  0  0  0  0  0
  -28.3431  -13.6034   21.8800 H   0  0  0  0  0  0
  -25.2682   -9.5537   22.4820 H   0  0  0  0  0  0
  -23.9907   -7.4509   22.7473 H   0  0  0  0  0  0
  -21.0774   -8.8689   19.8970 H   0  0  0  0  0  0
  -22.3636  -10.9595   19.6191 H   0  0  0  0  0  0
  -21.1988   -7.6118   23.9702 H   0  0  0  0  0  0
  -21.1476   -6.0514   25.9075 H   0  0  0  0  0  0
  -22.0616   -2.7589   23.2867 H   0  0  0  0  0  0
  -22.3948  -11.9901   22.4877 H   0  0  0  0  0  0
  -21.1018  -13.1309   22.2693 H   0  0  0  0  0  0
  -24.6100  -15.7716   20.3844 H   0  0  0  0  0  0
  -26.2096  -15.5416   19.8895 H   0  0  0  0  0  0
  -26.6859  -32.5205   23.0981 H   0  0  0  0  0  0
  -24.9871  -33.9489   25.0245 H   0  0  0  0  0  0
  -22.7492  -31.2282   21.3896 H   0  0  0  0  0  0
  -23.3753  -35.9609   23.3249 H   0  0  0  0  0  0
  -24.3526  -36.9019   22.2086 H   0  0  0  0  0  0
  -23.7050  -37.6492   23.6689 H   0  0  0  0  0  0
  -26.1531  -31.3450   20.6351 H   0  0  0  0  0  0
  -26.8787  -30.7134   22.0531 H   0  0  0  0  0  0
  -27.9204  -28.4386   21.6481 H   0  0  0  0  0  0
  -25.9973  -26.0098   18.6239 H   0  0  0  0  0  0
  -24.1389  -27.5546   18.5381 H   0  0  0  0  0  0
  -23.7749  -30.5751   19.3471 H   0  0  0  0  0  0
  -22.8021  -29.1966   19.8462 H   0  0  0  0  0  0
  -25.1187  -36.2102   25.0791 H   0  0  0  0  0  0
  -21.0028  -28.2093   24.1125 H   0  0  0  0  0  0
  -20.5942  -26.1728   23.2755 H   0  0  0  0  0  0
  -21.5801  -26.8225   21.9819 H   0  0  0  0  0  0
  -19.6209  -25.6631   21.0516 H   0  0  0  0  0  0
  -19.5593  -27.4612   20.7139 H   0  0  0  0  0  0
  -17.3589  -26.6990   21.4638 H   0  0  0  0  0  0
  -18.0727  -25.9827   22.8944 H   0  0  0  0  0  0
  -19.8706  -30.6952   24.1941 H   0  0  0  0  0  0
  -17.6245  -31.6809   24.4667 H   0  0  0  0  0  0
  -15.6127  -30.3476   23.7759 H   0  0  0  0  0  0
  -15.8606  -28.1051   22.7562 H   0  0  0  0  0  0
  -24.5919  -30.7110   25.7974 H   0  0  0  0  0  0
  -24.8934  -32.3085   26.4988 H   0  0  0  0  0  0
  -25.8106  -30.9140   27.0441 H   0  0  0  0  0  0
  -26.2888  -29.6787   24.1491 H   0  0  0  0  0  0
  -27.3918  -29.7333   25.4966 H   0  0  0  0  0  0
  -27.8852  -30.4230   23.9774 H   0  0  0  0  0  0
  -27.2803  -33.3824   26.2064 H   0  0  0  0  0  0
  -28.4043  -32.6886   25.0371 H   0  0  0  0  0  0
  -28.0812  -31.8660   26.5537 H   0  0  0  0  0  0
  -28.2578  -38.0150   24.7683 H   0  0  0  0  0  0
  -28.1125  -36.2666   24.6024 H   0  0  0  0  0  0
  -27.2321  -37.1191   25.8874 H   0  0  0  0  0  0
  -20.9525  -29.7895   21.6775 H   0  0  0  0  0  0
  -26.0176  -38.2918   24.1614 H   0  0  0  0  0  0
  -26.0404  -18.6245   23.7088 H   0  0  0  0  0  0
  -27.5230  -16.9777   22.6449 H   0  0  0  0  0  0
  -26.0722  -20.9723   23.1115 H   0  0  0  0  0  0
  -29.2083  -20.1805   20.2847 H   0  0  0  0  0  0
  -27.3329  -22.6852   19.2838 H   0  0  0  0  0  0
  -28.9376  -23.1147   19.9119 H   0  0  0  0  0  0
  -25.0117  -23.6736   21.1007 H   0  0  0  0  0  0
  -25.1698  -24.4026   19.5764 H   0  0  0  0  0  0
  -25.0999  -25.4118   21.0685 H   0  0  0  0  0  0
  -30.4586  -18.6888   19.3394 H   0  0  0  0  0  0
  -31.2702  -17.1393   19.4887 H   0  0  0  0  0  0
  -31.2027  -18.1921   20.8746 H   0  0  0  0  0  0
  -28.1141  -18.0581   18.8156 H   0  0  0  0  0  0
  -27.3688  -16.7075   19.6539 H   0  0  0  0  0  0
  -28.6920  -16.4204   18.5088 H   0  0  0  0  0  0
  -28.6963  -15.3483   21.3694 H   0  0  0  0  0  0
  1 25  1  0  0  0
  1 30  2  0  0  0
  1 85  1  0  0  0
  2  3  1  0  0  0
  2 25  1  0  0  0
  2 87  1  0  0  0
  2 88  1  0  0  0
  3  4  1  0  0  0
  3 89  1  0  0  0
  3 90  1  0  0  0
  4  5  1  0  0  0
  4 91  1  0  0  0
  4 92  1  0  0  0
  5  6  1  0  0  0
  5 26  1  0  0  0
  5 93  1  0  0  0
  6 25  1  0  0  0
  6 94  1  0  0  0
  6 95  1  0  0  0
  7  8  2  0  0  0
  7 26  1  0  0  0
  7 29  1  0  0  0
  8  9  1  0  0  0
  8 22  1  0  0  0
  9 10  1  0  0  0
  9 27  2  0  0  0
 10 11  2  0  0  0
 10 15  1  0  0  0
 11 12  1  0  0  0
 11 96  1  0  0  0
 12 13  2  0  0  0
 12 97  1  0  0  0
 13 14  1  0  0  0
 13 31  1  0  0  0
 14 15  2  0  0  0
 14 98  1  0  0  0
 15 99  1  0  0  0
 16 17  2  0  0  0
 16 21  1  0  0  0
 16 31  1  0  0  0
 17 18  1  0  0  0
 17100  1  0  0  0
 18 19  2  0  0  0
 18101  1  0  0  0
 19 20  1  0  0  0
 19 24  1  0  0  0
 20 21  2  0  0  0
 20102  1  0  0  0
 21 23  1  0  0  0
 22 28  1  0  0  0
 22 32  2  0  0  0
 26 27  1  0  0  0
 28103  1  0  0  0
 28104  1  0  0  0
 29105  1  0  0  0
 29106  1  0  0  0
 33 34  1  0  0  0
 33 66  1  0  0  0
 33 70  2  0  0  0
 34 36  1  0  0  0
 34 59  1  0  0  0
 34107  1  0  0  0
 35 44  2  0  0  0
 35 45  1  0  0  0
 35 68  1  0  0  0
 36 56  1  0  0  0
 36108  1  0  0  0
 37 39  1  0  0  0
 37 47  1  0  0  0
 37 66  1  0  0  0
 37109  1  0  0  0
 38 43  2  0  0  0
 38 46  1  0  0  0
 38 47  1  0  0  0
 39 64  1  0  0  0
 39 67  2  0  0  0
 40 52  1  0  0  0
 40 53  2  0  0  0
 40 58  1  0  0  0
 41110  1  0  0  0
 41111  1  0  0  0
 41112  1  0  0  0
 41 48  1  0  0  0
 42 43  1  0  0  0
 42 66  1  0  0  0
 42113  1  0  0  0
 42114  1  0  0  0
 43 44  1  0  0  0
 44115  1  0  0  0
 45 46  2  0  0  0
 45116  1  0  0  0
 46117  1  0  0  0
 47118  1  0  0  0
 47119  1  0  0  0
 48 56  1  0  0  0
 48 65  1  0  0  0
 48120  1  0  0  0
 49 50  1  0  0  0
 49 53  1  0  0  0
 49 64  1  0  0  0
 49121  1  0  0  0
 50 51  1  0  0  0
 50122  1  0  0  0
 50123  1  0  0  0
 51 52  1  0  0  0
 51124  1  0  0  0
 51125  1  0  0  0
 52126  1  0  0  0
 52127  1  0  0  0
 53 54  1  0  0  0
 54 55  2  0  0  0
 54128  1  0  0  0
 55 57  1  0  0  0
 55129  1  0  0  0
 56 69  2  0  0  0
 57 58  2  0  0  0
 57130  1  0  0  0
 58131  1  0  0  0
 59 60  1  0  0  0
 59 61  1  0  0  0
 59 62  1  0  0  0
 60132  1  0  0  0
 60133  1  0  0  0
 60134  1  0  0  0
 61135  1  0  0  0
 61136  1  0  0  0
 61137  1  0  0  0
 62138  1  0  0  0
 62139  1  0  0  0
 62140  1  0  0  0
 63 65  1  0  0  0
 63141  1  0  0  0
 63142  1  0  0  0
 63143  1  0  0  0
 64144  1  0  0  0
 65145  1  0  0  0
 68 79  1  0  0  0
 71 72  2  0  0  0
 71 73  1  0  0  0
 71146  1  0  0  0
 72 75  1  0  0  0
 72147  1  0  0  0
 73 76  2  0  0  0
 73148  1  0  0  0
 74 75  2  0  0  0
 74 76  1  0  0  0
 74149  1  0  0  0
 75 83  1  0  0  0
 76 84  1  0  0  0
 77 79  1  0  0  0
 77 84  1  0  0  0
 77 86  2  0  0  0
 78 79  1  0  0  0
 78 84  1  0  0  0
 78150  1  0  0  0
 78151  1  0  0  0
 79 80  1  0  0  0
 80152  1  0  0  0
 80153  1  0  0  0
 80154  1  0  0  0
 81155  1  0  0  0
 81156  1  0  0  0
 81157  1  0  0  0
 81 83  1  0  0  0
 82 83  1  0  0  0
 82158  1  0  0  0
 82159  1  0  0  0
 82160  1  0  0  0
 83 85  1  0  0  0
 85161  1  0  0  0
M  ISO  4   1 100  68 101  79 101  85 100
M  END
> <chiral flag>
0

> <version>
0

> <s_m_source_file>
/data/baiqing/PycharmProjects/Reinvent-master-3.2/result/LINK_invent/BTK/process_docking_weight1_custom_product_contain_oxygen_bond_distance_aromatic_linkinvent_7_9_3/rearranged_h_0077.sdf

> <i_m_source_file_index>
41

> <r_mmod_Potential_Energy-OPLS-2005>
663.724609375

> <r_mmod_Stretch_Energy-OPLS-2005>
229.919082641602

> <r_mmod_Bend_Energy-OPLS-2005>
291.891571044922

> <r_mmod_Torsional_Energy-OPLS-2005>
286.293853759766

> <r_mmod_Improper_Torsional_Energy-OPLS-2005>
18.181604385376

> <r_mmod_Van_der_Waal_Energy-OPLS-2005>
162.15559387207

> <r_mmod_Electrostatic_Energy-OPLS-2005>
-401.939605712891

> <r_mmod_Solvation_Energy-OPLS-2005>
-218.195785522461

> <b_mmod_Minimization_Converged-OPLS-2005>
0

> <r_mmod_RMS_Derivative-OPLS-2005>
46.2532157897949

$$$$
41
                    3D
 Structure written by MMmdl.
166174  0  0  1  0            999 V2000
  -30.7444  -14.3787   20.6706 C   0  0  0  0  0  0
  -30.4211  -12.2881   19.3984 C   0  0  0  0  0  0
  -29.4902  -12.5051   18.1909 C   0  0  0  0  0  0
  -28.0124  -12.3630   18.6057 C   0  0  0  0  0  0
  -27.6633  -13.1961   19.8661 C   0  0  2  0  0  0
  -28.6966  -12.9364   20.9824 C   0  0  0  0  0  0
  -25.2610  -13.8142   20.5608 C   0  0  0  0  0  0
  -24.1854  -13.0439   20.9141 C   0  0  0  0  0  0
  -24.6396  -11.6901   20.8718 C   0  0  0  0  0  0
  -23.9056  -10.4299   21.0411 C   0  0  0  0  0  0
  -24.3616   -9.4210   21.9179 C   0  0  0  0  0  0
  -23.6290   -8.2249   22.0750 C   0  0  0  0  0  0
  -22.4269   -8.0293   21.3542 C   0  0  0  0  0  0
  -21.9908   -9.0266   20.4638 C   0  0  0  0  0  0
  -22.7237  -10.2145   20.3053 C   0  0  0  0  0  0
  -21.6856   -6.0747   22.5282 C   0  0  0  0  0  0
  -21.4012   -6.5642   23.8219 C   0  0  0  0  0  0
  -21.3657   -5.6789   24.9174 C   0  0  0  0  0  0
  -21.6051   -4.3056   24.7221 C   0  0  0  0  0  0
  -21.8814   -3.8151   23.4340 C   0  0  0  0  0  0
  -21.9195   -4.6974   22.3400 C   0  0  0  0  0  0
  -22.7887  -13.5249   21.1824 C   0  0  0  0  0  0
  -22.1663   -4.2164   21.0978 F   0  0  0  0  0  0
  -21.5635   -3.4534   25.7732 F   0  0  0  0  0  0
  -30.0392  -13.2423   20.4459 N   0  0  0  0  0  0
  -26.3022  -12.9291   20.3264 N   0  0  0  0  0  0
  -25.9302  -11.6461   20.5707 N   0  0  0  0  0  0
  -22.0536  -12.8255   22.0395 N   0  0  0  0  0  0
  -25.4362  -15.1845   20.3998 N   0  0  0  0  0  0
  -31.7976  -14.6567   20.0872 O   0  0  0  0  0  0
  -21.6638   -6.8887   21.4243 O   0  0  0  0  0  0
  -22.3560  -14.5557   20.6688 O   0  0  0  0  0  0
  -24.6100  -31.8707   23.2107 C   0  0  0  0  0  0
  -25.9009  -32.4837   23.8387 C   0  0  1  0  0  0
  -27.2402  -27.4706   20.0673 C   0  0  0  0  0  0
  -25.5861  -33.8633   24.2318 N   0  0  0  0  0  0
  -23.3974  -30.4981   21.5472 C   0  0  2  0  0  0
  -24.8435  -28.9686   20.1077 C   0  0  0  0  0  0
  -22.7382  -29.4735   22.4968 C   0  0  0  0  0  0
  -18.0288  -28.1370   22.8491 C   0  0  0  0  0  0
  -24.1486  -36.7297   23.2636 C   0  0  0  0  0  0
  -25.9245  -30.8452   21.3597 C   0  0  0  0  0  0
  -26.0011  -29.4833   20.7053 C   0  0  0  0  0  0
  -27.1998  -28.7373   20.6902 C   0  0  0  0  0  0
  -26.0634  -26.9660   19.4658 C   0  0  0  0  0  0
  -24.8661  -27.7060   19.4902 C   0  0  0  0  0  0
  -23.6023  -29.8281   20.1617 C   0  0  0  0  0  0
  -25.4110  -36.3111   24.0330 C   0  0  1  0  0  0
  -20.5870  -28.3656   23.1241 C   0  0  2  0  0  0
  -20.6790  -26.9469   22.5151 C   0  0  0  0  0  0
  -19.5640  -26.6361   21.5139 C   0  0  0  0  0  0
  -18.1856  -26.7934   22.1598 C   0  0  0  0  0  0
  -19.1539  -28.8815   23.2887 C   0  0  0  0  0  0
  -18.9502  -30.1430   23.8892 C   0  0  0  0  0  0
  -17.6524  -30.6610   24.0535 C   0  0  0  0  0  0
  -25.9033  -34.9478   23.5125 C   0  0  0  0  0  0
  -16.5409  -29.9124   23.6304 C   0  0  0  0  0  0
  -16.7297  -28.6516   23.0366 C   0  0  0  0  0  0
  -26.4447  -31.6595   25.0697 C   0  0  0  0  0  0
  -25.3718  -31.3683   26.1441 C   0  0  0  0  0  0
  -27.0277  -30.3041   24.6056 C   0  0  0  0  0  0
  -27.6034  -32.4307   25.7449 C   0  0  0  0  0  0
  -27.5580  -37.1813   24.8469 C   0  0  0  0  0  0
  -21.4105  -29.3149   22.3752 N   0  0  0  0  0  0
  -26.4300  -37.3789   23.9397 N   0  0  0  0  0  0
  -24.6618  -31.0857   22.0966 N   0  0  0  0  0  0
  -23.4182  -28.8240   23.2968 O   0  0  0  0  0  0
  -28.4098  -26.7461   20.1201 O   0  0  0  0  0  0
  -26.5619  -34.8922   22.4709 O   0  0  0  0  0  0
  -23.5301  -32.1434   23.7541 O   0  0  0  0  0  0
  -24.9513  -21.0274   22.4258 C   0  0  0  0  0  0
  -25.5039  -19.7691   22.7253 C   0  0  0  0  0  0
  -25.6945  -21.9665   21.6881 C   0  0  0  0  0  0
  -27.5320  -20.3686   21.5171 C   0  0  0  0  0  0
  -26.8005  -19.4274   22.2824 C   0  0  0  0  0  0
  -26.9988  -21.6470   21.2405 C   0  0  0  0  0  0
  -28.6681  -25.7942   19.1678 C   0  0  0  0  0  0
  -27.3595  -18.0692   22.6148 C   0  0  0  0  0  0
  -28.4028  -24.4722   19.2787 C   0  0  0  0  0  0
  -27.7248  -23.8919   20.4460 C   0  0  0  0  0  0
  -31.8738  -16.1315   23.0946 C   0  0  0  0  0  0
  -31.0049  -17.4965   21.1636 C   0  0  0  0  0  0
  -29.4678  -16.8468   23.1519 C   0  0  0  0  0  0
  -30.6387  -16.4209   22.2184 C   0  0  0  0  0  0
  -27.7736  -22.5457   20.4565 N   0  0  0  0  0  0
  -28.6920  -17.9723   22.6432 N   0  0  0  0  0  0
  -30.1924  -15.1723   21.5953 N   0  0  0  0  0  0
  -26.6150  -17.1408   22.9314 O   0  0  0  0  0  0
  -27.1747  -24.5363   21.3421 O   0  0  0  0  0  0
  -28.7408  -23.6730   18.2498 O   0  0  0  0  0  0
  -31.4659  -12.3907   19.1005 H   0  0  0  0  0  0
  -30.3181  -11.2704   19.7778 H   0  0  0  0  0  0
  -29.7252  -11.7871   17.4046 H   0  0  0  0  0  0
  -29.6618  -13.4931   17.7603 H   0  0  0  0  0  0
  -27.8259  -11.3068   18.8040 H   0  0  0  0  0  0
  -27.3589  -12.6326   17.7754 H   0  0  0  0  0  0
  -27.7216  -14.2474   19.5822 H   0  0  0  0  0  0
  -28.6637  -11.8880   21.2831 H   0  0  0  0  0  0
  -28.4284  -13.4922   21.8806 H   0  0  0  0  0  0
  -25.2772   -9.5697   22.4729 H   0  0  0  0  0  0
  -24.0010   -7.4645   22.7474 H   0  0  0  0  0  0
  -21.0837   -8.8778   19.8947 H   0  0  0  0  0  0
  -22.3693  -10.9678   19.6155 H   0  0  0  0  0  0
  -21.1995   -7.6148   23.9725 H   0  0  0  0  0  0
  -21.1485   -6.0517   25.9080 H   0  0  0  0  0  0
  -22.0595   -2.7614   23.2832 H   0  0  0  0  0  0
  -22.4162  -11.9905   22.4762 H   0  0  0  0  0  0
  -21.1158  -13.1276   22.2611 H   0  0  0  0  0  0
  -24.6993  -15.8528   20.5959 H   0  0  0  0  0  0
  -26.3155  -15.6227   20.1560 H   0  0  0  0  0  0
  -26.7079  -32.5555   23.1152 H   0  0  0  0  0  0
  -24.9941  -33.9800   25.0410 H   0  0  0  0  0  0
  -22.6855  -31.3147   21.4064 H   0  0  0  0  0  0
  -23.3740  -35.9641   23.3336 H   0  0  0  0  0  0
  -24.3574  -36.8886   22.2045 H   0  0  0  0  0  0
  -23.7263  -37.6519   23.6635 H   0  0  0  0  0  0
  -26.0402  -31.6185   20.5986 H   0  0  0  0  0  0
  -26.8098  -30.8922   21.9812 H   0  0  0  0  0  0
  -28.0921  -29.1282   21.1591 H   0  0  0  0  0  0
  -26.0531  -25.9987   18.9843 H   0  0  0  0  0  0
  -23.9749  -27.3019   19.0298 H   0  0  0  0  0  0
  -23.7015  -30.5985   19.3954 H   0  0  0  0  0  0
  -22.7287  -29.2389   19.8749 H   0  0  0  0  0  0
  -25.1297  -36.1968   25.0825 H   0  0  0  0  0  0
  -20.9977  -28.3093   24.1348 H   0  0  0  0  0  0
  -21.6504  -26.7726   22.0515 H   0  0  0  0  0  0
  -20.6075  -26.2177   23.3234 H   0  0  0  0  0  0
  -19.6813  -25.6243   21.1258 H   0  0  0  0  0  0
  -19.6451  -27.3095   20.6585 H   0  0  0  0  0  0
  -17.4139  -26.6817   21.3972 H   0  0  0  0  0  0
  -18.0134  -25.9996   22.8890 H   0  0  0  0  0  0
  -19.8010  -30.7209   24.2256 H   0  0  0  0  0  0
  -17.5134  -31.6339   24.5060 H   0  0  0  0  0  0
  -15.5424  -30.3067   23.7567 H   0  0  0  0  0  0
  -15.8683  -28.0850   22.7075 H   0  0  0  0  0  0
  -24.5889  -30.7040   25.7756 H   0  0  0  0  0  0
  -24.8901  -32.2829   26.4901 H   0  0  0  0  0  0
  -25.8061  -30.8823   27.0183 H   0  0  0  0  0  0
  -26.2797  -29.6775   24.1175 H   0  0  0  0  0  0
  -27.4123  -29.7301   25.4498 H   0  0  0  0  0  0
  -27.8591  -30.4362   23.9132 H   0  0  0  0  0  0
  -27.2655  -33.3582   26.2071 H   0  0  0  0  0  0
  -28.3793  -32.6911   25.0243 H   0  0  0  0  0  0
  -28.0732  -31.8399   26.5318 H   0  0  0  0  0  0
  -28.2620  -38.0088   24.7497 H   0  0  0  0  0  0
  -28.1056  -36.2627   24.6319 H   0  0  0  0  0  0
  -27.2293  -37.1487   25.8872 H   0  0  0  0  0  0
  -20.9172  -29.8971   21.7119 H   0  0  0  0  0  0
  -26.0179  -38.2862   24.1400 H   0  0  0  0  0  0
  -23.9553  -21.2704   22.7681 H   0  0  0  0  0  0
  -24.9247  -19.0596   23.2989 H   0  0  0  0  0  0
  -25.2429  -22.9242   21.4711 H   0  0  0  0  0  0
  -28.5131  -20.1139   21.1433 H   0  0  0  0  0  0
  -29.1350  -26.2318   18.2973 H   0  0  0  0  0  0
  -32.2287  -17.0430   23.5798 H   0  0  0  0  0  0
  -32.7072  -15.7354   22.5136 H   0  0  0  0  0  0
  -31.6482  -15.4129   23.8827 H   0  0  0  0  0  0
  -31.1719  -18.4724   21.6240 H   0  0  0  0  0  0
  -30.2277  -17.6132   20.4069 H   0  0  0  0  0  0
  -31.9279  -17.2455   20.6417 H   0  0  0  0  0  0
  -28.8165  -16.0005   23.3874 H   0  0  0  0  0  0
  -29.8585  -17.1679   24.1181 H   0  0  0  0  0  0
  -28.4711  -22.1240   19.8587 H   0  0  0  0  0  0
  -29.2136  -18.7877   22.3630 H   0  0  0  0  0  0
  -29.3132  -14.8246   21.9477 H   0  0  0  0  0  0
  -28.2430  -22.8700   18.3356 H   0  0  0  0  0  0
  1 25  1  0  0  0
  1 30  2  0  0  0
  1 87  1  0  0  0
  2  3  1  0  0  0
  2 25  1  0  0  0
  2 91  1  0  0  0
  2 92  1  0  0  0
  3  4  1  0  0  0
  3 93  1  0  0  0
  3 94  1  0  0  0
  4  5  1  0  0  0
  4 95  1  0  0  0
  4 96  1  0  0  0
  5  6  1  0  0  0
  5 26  1  0  0  0
  5 97  1  0  0  0
  6 25  1  0  0  0
  6 98  1  0  0  0
  6 99  1  0  0  0
  7  8  2  0  0  0
  7 26  1  0  0  0
  7 29  1  0  0  0
  8  9  1  0  0  0
  8 22  1  0  0  0
  9 10  1  0  0  0
  9 27  2  0  0  0
 10 11  2  0  0  0
 10 15  1  0  0  0
 11 12  1  0  0  0
 11100  1  0  0  0
 12 13  2  0  0  0
 12101  1  0  0  0
 13 14  1  0  0  0
 13 31  1  0  0  0
 14 15  2  0  0  0
 14102  1  0  0  0
 15103  1  0  0  0
 16 17  2  0  0  0
 16 21  1  0  0  0
 16 31  1  0  0  0
 17 18  1  0  0  0
 17104  1  0  0  0
 18 19  2  0  0  0
 18105  1  0  0  0
 19 20  1  0  0  0
 19 24  1  0  0  0
 20 21  2  0  0  0
 20106  1  0  0  0
 21 23  1  0  0  0
 22 28  1  0  0  0
 22 32  2  0  0  0
 26 27  1  0  0  0
 28107  1  0  0  0
 28108  1  0  0  0
 29109  1  0  0  0
 29110  1  0  0  0
 33 34  1  0  0  0
 33 66  1  0  0  0
 33 70  2  0  0  0
 34 36  1  0  0  0
 34 59  1  0  0  0
 34111  1  0  0  0
 35 44  2  0  0  0
 35 45  1  0  0  0
 35 68  1  0  0  0
 36 56  1  0  0  0
 36112  1  0  0  0
 37 39  1  0  0  0
 37 47  1  0  0  0
 37 66  1  0  0  0
 37113  1  0  0  0
 38 43  2  0  0  0
 38 46  1  0  0  0
 38 47  1  0  0  0
 39 64  1  0  0  0
 39 67  2  0  0  0
 40 52  1  0  0  0
 40 53  2  0  0  0
 40 58  1  0  0  0
 41114  1  0  0  0
 41115  1  0  0  0
 41116  1  0  0  0
 41 48  1  0  0  0
 42 43  1  0  0  0
 42 66  1  0  0  0
 42117  1  0  0  0
 42118  1  0  0  0
 43 44  1  0  0  0
 44119  1  0  0  0
 45 46  2  0  0  0
 45120  1  0  0  0
 46121  1  0  0  0
 47122  1  0  0  0
 47123  1  0  0  0
 48 56  1  0  0  0
 48 65  1  0  0  0
 48124  1  0  0  0
 49 50  1  0  0  0
 49 53  1  0  0  0
 49 64  1  0  0  0
 49125  1  0  0  0
 50 51  1  0  0  0
 50126  1  0  0  0
 50127  1  0  0  0
 51 52  1  0  0  0
 51128  1  0  0  0
 51129  1  0  0  0
 52130  1  0  0  0
 52131  1  0  0  0
 53 54  1  0  0  0
 54 55  2  0  0  0
 54132  1  0  0  0
 55 57  1  0  0  0
 55133  1  0  0  0
 56 69  2  0  0  0
 57 58  2  0  0  0
 57134  1  0  0  0
 58135  1  0  0  0
 59 60  1  0  0  0
 59 61  1  0  0  0
 59 62  1  0  0  0
 60136  1  0  0  0
 60137  1  0  0  0
 60138  1  0  0  0
 61139  1  0  0  0
 61140  1  0  0  0
 61141  1  0  0  0
 62142  1  0  0  0
 62143  1  0  0  0
 62144  1  0  0  0
 63 65  1  0  0  0
 63145  1  0  0  0
 63146  1  0  0  0
 63147  1  0  0  0
 64148  1  0  0  0
 65149  1  0  0  0
 68 77  1  0  0  0
 71 72  2  0  0  0
 71 73  1  0  0  0
 71150  1  0  0  0
 72 75  1  0  0  0
 72151  1  0  0  0
 73 76  2  0  0  0
 73152  1  0  0  0
 74 75  2  0  0  0
 74 76  1  0  0  0
 74153  1  0  0  0
 75 78  1  0  0  0
 76 85  1  0  0  0
 77 79  2  0  0  0
 77154  1  0  0  0
 78 86  1  0  0  0
 78 88  2  0  0  0
 79 80  1  0  0  0
 79 90  1  0  0  0
 80 85  1  0  0  0
 80 89  2  0  0  0
 81155  1  0  0  0
 81156  1  0  0  0
 81157  1  0  0  0
 81 84  1  0  0  0
 82 84  1  0  0  0
 82158  1  0  0  0
 82159  1  0  0  0
 82160  1  0  0  0
 83 84  1  0  0  0
 83 86  1  0  0  0
 83161  1  0  0  0
 83162  1  0  0  0
 84 87  1  0  0  0
 85163  1  0  0  0
 86164  1  0  0  0
 87165  1  0  0  0
 90166  1  0  0  0
M  ISO  4   1 100  68 101  77 101  87 100
M  END
> <chiral flag>
0

> <version>
0

> <s_m_source_file>
/data/baiqing/PycharmProjects/Reinvent-master-3.2/result/LINK_invent/BTK/process_docking_weight1_custom_product_contain_oxygen_bond_distance_aromatic_linkinvent_7_9_3/rearranged_h_0077.sdf

> <i_m_source_file_index>
42

> <r_mmod_Potential_Energy-OPLS-2005>
-189.613861083984

> <r_mmod_Stretch_Energy-OPLS-2005>
35.4975318908691

> <r_mmod_Bend_Energy-OPLS-2005>
112.000862121582

> <r_mmod_Torsional_Energy-OPLS-2005>
245.015441894531

> <r_mmod_Improper_Torsional_Energy-OPLS-2005>
2.85135936737061

> <r_mmod_Van_der_Waal_Energy-OPLS-2005>
173.246887207031

> <r_mmod_Electrostatic_Energy-OPLS-2005>
-507.939361572266

> <r_mmod_Solvation_Energy-OPLS-2005>
-258.852874755859

> <b_mmod_Minimization_Converged-OPLS-2005>
0

> <r_mmod_RMS_Derivative-OPLS-2005>
4.01649713516235

$$$$
42
                    3D
 Structure written by MMmdl.
155164  0  0  1  0            999 V2000
  -30.6073  -14.7590   20.3905 C   0  0  0  0  0  0
  -30.4359  -12.4579   19.4491 C   0  0  0  0  0  0
  -29.4887  -12.4641   18.2272 C   0  0  0  0  0  0
  -28.0235  -12.2653   18.6629 C   0  0  0  0  0  0
  -27.6251  -13.1920   19.8366 C   0  0  2  0  0  0
  -28.6852  -13.1772   20.9557 C   0  0  0  0  0  0
  -25.2525  -13.8111   20.5737 C   0  0  0  0  0  0
  -24.1765  -13.0413   20.9257 C   0  0  0  0  0  0
  -24.6289  -11.6863   20.8827 C   0  0  0  0  0  0
  -23.8961  -10.4267   21.0440 C   0  0  0  0  0  0
  -24.3545   -9.4200   21.9224 C   0  0  0  0  0  0
  -23.6244   -8.2211   22.0790 C   0  0  0  0  0  0
  -22.4227   -8.0256   21.3554 C   0  0  0  0  0  0
  -21.9849   -9.0216   20.4643 C   0  0  0  0  0  0
  -22.7156  -10.2105   20.3061 C   0  0  0  0  0  0
  -21.6838   -6.0707   22.5262 C   0  0  0  0  0  0
  -21.4010   -6.5635   23.8195 C   0  0  0  0  0  0
  -21.3650   -5.6785   24.9175 C   0  0  0  0  0  0
  -21.6045   -4.3042   24.7203 C   0  0  0  0  0  0
  -21.8837   -3.8131   23.4328 C   0  0  0  0  0  0
  -21.9199   -4.6945   22.3394 C   0  0  0  0  0  0
  -22.7798  -13.5242   21.1845 C   0  0  0  0  0  0
  -22.1668   -4.2152   21.0954 F   0  0  0  0  0  0
  -21.5625   -3.4527   25.7712 F   0  0  0  0  0  0
  -29.9773  -13.5318   20.3553 N   0  0  0  0  0  0
  -26.2855  -12.9194   20.3305 N   0  0  0  0  0  0
  -25.9216  -11.6390   20.5813 N   0  0  0  0  0  0
  -22.0385  -12.8288   22.0407 N   0  0  0  0  0  0
  -25.4381  -15.1795   20.4093 N   0  0  0  0  0  0
  -31.8351  -14.8244   20.2732 O   0  0  0  0  0  0
  -21.6631   -6.8824   21.4215 O   0  0  0  0  0  0
  -22.3515  -14.5531   20.6654 O   0  0  0  0  0  0
  -24.6365  -31.8551   23.2066 C   0  0  0  0  0  0
  -25.9184  -32.4752   23.8404 C   0  0  1  0  0  0
  -27.2052  -27.2110   20.1332 C   0  0  0  0  0  0
  -25.5982  -33.8563   24.2312 N   0  0  0  0  0  0
  -23.4364  -30.4867   21.5448 C   0  0  2  0  0  0
  -24.8892  -28.9475   20.1004 C   0  0  0  0  0  0
  -22.7551  -29.4623   22.4862 C   0  0  0  0  0  0
  -18.0315  -28.1372   22.8459 C   0  0  0  0  0  0
  -24.1499  -36.7277   23.2651 C   0  0  0  0  0  0
  -25.9957  -30.7394   21.4168 C   0  0  0  0  0  0
  -26.0586  -29.3670   20.7433 C   0  0  0  0  0  0
  -27.2144  -28.5089   20.7666 C   0  0  0  0  0  0
  -26.0258  -26.9252   19.3974 C   0  0  0  0  0  0
  -24.8844  -27.7372   19.4074 C   0  0  0  0  0  0
  -23.6620  -29.8413   20.1563 C   0  0  0  0  0  0
  -25.4124  -36.3077   24.0336 C   0  0  1  0  0  0
  -20.5918  -28.3713   23.1215 C   0  0  2  0  0  0
  -20.6795  -26.9417   22.5378 C   0  0  0  0  0  0
  -19.5759  -26.6370   21.5190 C   0  0  0  0  0  0
  -18.1943  -26.7913   22.1608 C   0  0  0  0  0  0
  -19.1557  -28.8851   23.2849 C   0  0  0  0  0  0
  -18.9488  -30.1451   23.8882 C   0  0  0  0  0  0
  -17.6477  -30.6580   24.0552 C   0  0  0  0  0  0
  -25.9049  -34.9433   23.5116 C   0  0  0  0  0  0
  -16.5371  -29.9066   23.6335 C   0  0  0  0  0  0
  -16.7296  -28.6476   23.0366 C   0  0  0  0  0  0
  -26.4522  -31.6591   25.0814 C   0  0  0  0  0  0
  -25.3729  -31.3751   26.1528 C   0  0  0  0  0  0
  -27.0436  -30.2988   24.6445 C   0  0  0  0  0  0
  -27.6055  -32.4373   25.7576 C   0  0  0  0  0  0
  -27.5573  -37.1824   24.8480 C   0  0  0  0  0  0
  -21.4240  -29.3060   22.3587 N   0  0  0  0  0  0
  -26.4318  -37.3755   23.9377 N   0  0  0  0  0  0
  -24.7079  -31.0465   22.1080 N   0  0  0  0  0  0
  -23.4208  -28.8116   23.2947 O   0  0  0  0  0  0
  -28.2249  -26.2037   20.2470 O   0  0  0  0  0  0
  -26.5609  -34.8894   22.4684 O   0  0  0  0  0  0
  -23.5499  -32.1419   23.7312 O   0  0  0  0  0  0
  -30.1549  -18.6154   22.8761 C   0  0  0  0  0  0
  -30.1761  -17.4288   22.1231 C   0  0  0  0  0  0
  -29.8128  -19.8525   22.2888 C   0  0  0  0  0  0
  -29.4906  -18.7397   20.1946 C   0  0  0  0  0  0
  -29.8446  -17.4311   20.7528 C   0  0  0  0  0  0
  -29.4531  -20.0053   20.9282 C   0  0  0  0  0  0
  -28.0384  -22.2659   20.9572 C   0  0  0  0  0  0
  -29.6783  -22.4813   19.8444 C   0  0  0  0  0  0
  -29.7568  -16.0701   19.9969 C   0  0  0  0  0  0
  -28.2834  -23.2095   19.7253 C   0  0  0  0  0  0
  -27.5116  -22.5966   18.5103 C   0  0  0  0  0  0
  -27.8751  -24.8212   19.7073 C   0  0  0  0  0  0
  -29.0400  -16.0322   18.9466 N   0  0  0  0  0  0
  -29.0408  -21.3675   20.4837 N   0  0  0  0  0  0
  -27.2869  -22.2137   21.9108 O   0  0  0  0  0  0
  -30.8313  -22.6722   19.5074 O   0  0  0  0  0  0
  -31.4635  -12.6209   19.1221 H   0  0  0  0  0  0
  -30.4186  -11.4879   19.9535 H   0  0  0  0  0  0
  -29.7653  -11.6752   17.5299 H   0  0  0  0  0  0
  -29.5916  -13.4048   17.6874 H   0  0  0  0  0  0
  -27.9167  -11.2275   18.9760 H   0  0  0  0  0  0
  -27.3480  -12.3980   17.8158 H   0  0  0  0  0  0
  -27.5698  -14.1799   19.4069 H   0  0  0  0  0  0
  -28.7364  -12.1892   21.4205 H   0  0  0  0  0  0
  -28.4245  -13.8766   21.7504 H   0  0  0  0  0  0
  -25.2646   -9.5721   22.4840 H   0  0  0  0  0  0
  -23.9964   -7.4606   22.7515 H   0  0  0  0  0  0
  -21.0810   -8.8695   19.8915 H   0  0  0  0  0  0
  -22.3595  -10.9660   19.6176 H   0  0  0  0  0  0
  -21.2012   -7.6137   23.9711 H   0  0  0  0  0  0
  -21.1449   -6.0507   25.9078 H   0  0  0  0  0  0
  -22.0623   -2.7595   23.2825 H   0  0  0  0  0  0
  -22.3962  -11.9947   22.4831 H   0  0  0  0  0  0
  -21.1001  -13.1384   22.2497 H   0  0  0  0  0  0
  -24.6912  -15.8566   20.5114 H   0  0  0  0  0  0
  -26.3043  -15.5824   20.0709 H   0  0  0  0  0  0
  -26.7243  -32.5363   23.1129 H   0  0  0  0  0  0
  -25.0181  -33.9704   25.0494 H   0  0  0  0  0  0
  -22.7373  -31.3135   21.4054 H   0  0  0  0  0  0
  -23.3754  -35.9632   23.3383 H   0  0  0  0  0  0
  -24.3563  -36.8822   22.2052 H   0  0  0  0  0  0
  -23.7276  -37.6502   23.6628 H   0  0  0  0  0  0
  -26.1827  -31.5085   20.6668 H   0  0  0  0  0  0
  -26.8514  -30.7554   22.0783 H   0  0  0  0  0  0
  -28.0899  -28.8135   21.3252 H   0  0  0  0  0  0
  -25.9181  -26.0363   18.7947 H   0  0  0  0  0  0
  -24.0131  -27.4267   18.8497 H   0  0  0  0  0  0
  -23.7931  -30.6293   19.4139 H   0  0  0  0  0  0
  -22.7785  -29.2843   19.8371 H   0  0  0  0  0  0
  -25.1321  -36.1956   25.0835 H   0  0  0  0  0  0
  -21.0046  -28.3304   24.1326 H   0  0  0  0  0  0
  -20.5675  -26.2333   23.3596 H   0  0  0  0  0  0
  -21.6663  -26.7414   22.1174 H   0  0  0  0  0  0
  -19.6925  -25.6278   21.1224 H   0  0  0  0  0  0
  -19.6692  -27.3177   20.6710 H   0  0  0  0  0  0
  -17.4216  -26.6675   21.4021 H   0  0  0  0  0  0
  -18.0358  -26.0056   22.9000 H   0  0  0  0  0  0
  -19.7969  -30.7267   24.2249 H   0  0  0  0  0  0
  -17.5041  -31.6255   24.5161 H   0  0  0  0  0  0
  -15.5374  -30.2964   23.7665 H   0  0  0  0  0  0
  -15.8701  -28.0787   22.7105 H   0  0  0  0  0  0
  -24.5891  -30.7125   25.7833 H   0  0  0  0  0  0
  -24.8951  -32.2929   26.4972 H   0  0  0  0  0  0
  -25.8035  -30.8888   27.0302 H   0  0  0  0  0  0
  -26.3092  -29.6666   24.1441 H   0  0  0  0  0  0
  -27.4011  -29.7329   25.5059 H   0  0  0  0  0  0
  -27.9024  -30.4221   23.9846 H   0  0  0  0  0  0
  -27.2629  -33.3655   26.2178 H   0  0  0  0  0  0
  -28.3842  -32.6988   25.0392 H   0  0  0  0  0  0
  -28.0788  -31.8522   26.5480 H   0  0  0  0  0  0
  -28.2661  -38.0040   24.7414 H   0  0  0  0  0  0
  -28.0996  -36.2574   24.6481 H   0  0  0  0  0  0
  -27.2265  -37.1675   25.8874 H   0  0  0  0  0  0
  -20.9423  -29.8825   21.6808 H   0  0  0  0  0  0
  -26.0217  -38.2864   24.1258 H   0  0  0  0  0  0
  -30.3795  -18.5818   23.9320 H   0  0  0  0  0  0
  -30.4093  -16.5035   22.6295 H   0  0  0  0  0  0
  -29.8072  -20.7213   22.9308 H   0  0  0  0  0  0
  -29.1959  -18.7798   19.1550 H   0  0  0  0  0  0
  -28.1316  -21.9233   17.9161 H   0  0  0  0  0  0
  -27.1281  -23.3343   17.8082 H   0  0  0  0  0  0
  -26.6397  -22.0198   18.8256 H   0  0  0  0  0  0
  -26.8497  -24.7082   20.0545 H   0  0  0  0  0  0
  -27.8600  -25.0911   18.6531 H   0  0  0  0  0  0
  -28.5830  -16.9134   18.7494 H   0  0  0  0  0  0
  1 25  1  0  0  0
  1 30  2  0  0  0
  1 79  1  0  0  0
  2  3  1  0  0  0
  2 25  1  0  0  0
  2 87  1  0  0  0
  2 88  1  0  0  0
  3  4  1  0  0  0
  3 89  1  0  0  0
  3 90  1  0  0  0
  4  5  1  0  0  0
  4 91  1  0  0  0
  4 92  1  0  0  0
  5  6  1  0  0  0
  5 26  1  0  0  0
  5 93  1  0  0  0
  6 25  1  0  0  0
  6 94  1  0  0  0
  6 95  1  0  0  0
  7  8  2  0  0  0
  7 26  1  0  0  0
  7 29  1  0  0  0
  8  9  1  0  0  0
  8 22  1  0  0  0
  9 10  1  0  0  0
  9 27  2  0  0  0
 10 11  2  0  0  0
 10 15  1  0  0  0
 11 12  1  0  0  0
 11 96  1  0  0  0
 12 13  2  0  0  0
 12 97  1  0  0  0
 13 14  1  0  0  0
 13 31  1  0  0  0
 14 15  2  0  0  0
 14 98  1  0  0  0
 15 99  1  0  0  0
 16 17  2  0  0  0
 16 21  1  0  0  0
 16 31  1  0  0  0
 17 18  1  0  0  0
 17100  1  0  0  0
 18 19  2  0  0  0
 18101  1  0  0  0
 19 20  1  0  0  0
 19 24  1  0  0  0
 20 21  2  0  0  0
 20102  1  0  0  0
 21 23  1  0  0  0
 22 28  1  0  0  0
 22 32  2  0  0  0
 26 27  1  0  0  0
 28103  1  0  0  0
 28104  1  0  0  0
 29105  1  0  0  0
 29106  1  0  0  0
 33 34  1  0  0  0
 33 66  1  0  0  0
 33 70  2  0  0  0
 34 36  1  0  0  0
 34 59  1  0  0  0
 34107  1  0  0  0
 35 44  2  0  0  0
 35 45  1  0  0  0
 35 68  1  0  0  0
 36 56  1  0  0  0
 36108  1  0  0  0
 37 39  1  0  0  0
 37 47  1  0  0  0
 37 66  1  0  0  0
 37109  1  0  0  0
 38 43  2  0  0  0
 38 46  1  0  0  0
 38 47  1  0  0  0
 39 64  1  0  0  0
 39 67  2  0  0  0
 40 52  1  0  0  0
 40 53  2  0  0  0
 40 58  1  0  0  0
 41110  1  0  0  0
 41111  1  0  0  0
 41112  1  0  0  0
 41 48  1  0  0  0
 42 43  1  0  0  0
 42 66  1  0  0  0
 42113  1  0  0  0
 42114  1  0  0  0
 43 44  1  0  0  0
 44115  1  0  0  0
 45 46  2  0  0  0
 45116  1  0  0  0
 46117  1  0  0  0
 47118  1  0  0  0
 47119  1  0  0  0
 48 56  1  0  0  0
 48 65  1  0  0  0
 48120  1  0  0  0
 49 50  1  0  0  0
 49 53  1  0  0  0
 49 64  1  0  0  0
 49121  1  0  0  0
 50 51  1  0  0  0
 50122  1  0  0  0
 50123  1  0  0  0
 51 52  1  0  0  0
 51124  1  0  0  0
 51125  1  0  0  0
 52126  1  0  0  0
 52127  1  0  0  0
 53 54  1  0  0  0
 54 55  2  0  0  0
 54128  1  0  0  0
 55 57  1  0  0  0
 55129  1  0  0  0
 56 69  2  0  0  0
 57 58  2  0  0  0
 57130  1  0  0  0
 58131  1  0  0  0
 59 60  1  0  0  0
 59 61  1  0  0  0
 59 62  1  0  0  0
 60132  1  0  0  0
 60133  1  0  0  0
 60134  1  0  0  0
 61135  1  0  0  0
 61136  1  0  0  0
 61137  1  0  0  0
 62138  1  0  0  0
 62139  1  0  0  0
 62140  1  0  0  0
 63 65  1  0  0  0
 63141  1  0  0  0
 63142  1  0  0  0
 63143  1  0  0  0
 64144  1  0  0  0
 65145  1  0  0  0
 68 82  1  0  0  0
 71 72  2  0  0  0
 71 73  1  0  0  0
 71146  1  0  0  0
 72 75  1  0  0  0
 72147  1  0  0  0
 73 76  2  0  0  0
 73148  1  0  0  0
 74 75  2  0  0  0
 74 76  1  0  0  0
 74149  1  0  0  0
 75 79  1  0  0  0
 76 84  1  0  0  0
 77 80  1  0  0  0
 77 84  1  0  0  0
 77 85  2  0  0  0
 78 80  1  0  0  0
 78 84  1  0  0  0
 78 86  2  0  0  0
 79 83  2  0  0  0
 80 81  1  0  0  0
 80 82  1  0  0  0
 81150  1  0  0  0
 81151  1  0  0  0
 81152  1  0  0  0
 82153  1  0  0  0
 82154  1  0  0  0
 83155  1  0  0  0
M  ISO  4   1 100  68 101  79 100  82 101
M  END
> <chiral flag>
0

> <version>
0

> <s_m_source_file>
/data/baiqing/PycharmProjects/Reinvent-master-3.2/result/LINK_invent/BTK/process_docking_weight1_custom_product_contain_oxygen_bond_distance_aromatic_linkinvent_7_9_3/rearranged_h_0077.sdf

> <i_m_source_file_index>
43

> <r_mmod_Potential_Energy-OPLS-2005>
534.643737792969

> <r_mmod_Stretch_Energy-OPLS-2005>
160.525253295898

> <r_mmod_Bend_Energy-OPLS-2005>
320.512664794922

> <r_mmod_Torsional_Energy-OPLS-2005>
240.110366821289

> <r_mmod_Improper_Torsional_Energy-OPLS-2005>
18.5481758117676

> <r_mmod_Van_der_Waal_Energy-OPLS-2005>
165.579956054688

> <r_mmod_Electrostatic_Energy-OPLS-2005>
-273.042205810547

> <r_mmod_Solvation_Energy-OPLS-2005>
-225.550262451172

> <b_mmod_Minimization_Converged-OPLS-2005>
0

> <r_mmod_RMS_Derivative-OPLS-2005>
6.97738122940063

$$$$
43
                    3D
 Structure written by MMmdl.
162171  0  0  1  0            999 V2000
  -30.7098  -14.6169   20.5423 C   0  0  0  0  0  0
  -30.4234  -12.3861   19.4589 C   0  0  0  0  0  0
  -29.5120  -12.5086   18.2221 C   0  0  0  0  0  0
  -28.0307  -12.3611   18.6203 C   0  0  0  0  0  0
  -27.6507  -13.2344   19.8526 C   0  0  2  0  0  0
  -28.6943  -13.1145   20.9860 C   0  0  0  0  0  0
  -25.2503  -13.8243   20.5599 C   0  0  0  0  0  0
  -24.1809  -13.0460   20.9135 C   0  0  0  0  0  0
  -24.6467  -11.6926   20.8766 C   0  0  0  0  0  0
  -23.9169  -10.4305   21.0402 C   0  0  0  0  0  0
  -24.3698   -9.4172   21.9156 C   0  0  0  0  0  0
  -23.6316   -8.2247   22.0757 C   0  0  0  0  0  0
  -22.4299   -8.0309   21.3543 C   0  0  0  0  0  0
  -21.9962   -9.0296   20.4665 C   0  0  0  0  0  0
  -22.7329  -10.2136   20.3041 C   0  0  0  0  0  0
  -21.6855   -6.0741   22.5284 C   0  0  0  0  0  0
  -21.4019   -6.5659   23.8211 C   0  0  0  0  0  0
  -21.3649   -5.6784   24.9179 C   0  0  0  0  0  0
  -21.6064   -4.3054   24.7220 C   0  0  0  0  0  0
  -21.8803   -3.8146   23.4344 C   0  0  0  0  0  0
  -21.9192   -4.6965   22.3392 C   0  0  0  0  0  0
  -22.7814  -13.5219   21.1739 C   0  0  0  0  0  0
  -22.1634   -4.2161   21.0950 F   0  0  0  0  0  0
  -21.5652   -3.4528   25.7726 F   0  0  0  0  0  0
  -30.0084  -13.4409   20.4153 N   0  0  0  0  0  0
  -26.2972  -12.9444   20.3230 N   0  0  0  0  0  0
  -25.9369  -11.6562   20.5691 N   0  0  0  0  0  0
  -22.0483  -12.8273   22.0371 N   0  0  0  0  0  0
  -25.4193  -15.1952   20.4002 N   0  0  0  0  0  0
  -31.8756  -14.6958   20.1485 O   0  0  0  0  0  0
  -21.6662   -6.8890   21.4232 O   0  0  0  0  0  0
  -22.3442  -14.5478   20.6543 O   0  0  0  0  0  0
  -24.6248  -31.8593   23.2016 C   0  0  0  0  0  0
  -25.9047  -32.4823   23.8386 C   0  0  1  0  0  0
  -27.2509  -27.3121   20.1534 C   0  0  0  0  0  0
  -25.5852  -33.8612   24.2327 N   0  0  0  0  0  0
  -23.4261  -30.4771   21.5408 C   0  0  2  0  0  0
  -24.8781  -28.9188   20.1243 C   0  0  0  0  0  0
  -22.7523  -29.4596   22.4951 C   0  0  0  0  0  0
  -18.0292  -28.1381   22.8482 C   0  0  0  0  0  0
  -24.1469  -36.7300   23.2646 C   0  0  0  0  0  0
  -25.9644  -30.7956   21.3656 C   0  0  0  0  0  0
  -26.0429  -29.4138   20.7230 C   0  0  0  0  0  0
  -27.2299  -28.6255   20.7185 C   0  0  0  0  0  0
  -26.0603  -26.8599   19.5379 C   0  0  0  0  0  0
  -24.8866  -27.6437   19.5273 C   0  0  0  0  0  0
  -23.6464  -29.8009   20.1589 C   0  0  0  0  0  0
  -25.4100  -36.3126   24.0353 C   0  0  1  0  0  0
  -20.5889  -28.3698   23.1277 C   0  0  2  0  0  0
  -20.6782  -26.9425   22.5423 C   0  0  0  0  0  0
  -19.5756  -26.6377   21.5222 C   0  0  0  0  0  0
  -18.1929  -26.7925   22.1619 C   0  0  0  0  0  0
  -19.1553  -28.8850   23.2861 C   0  0  0  0  0  0
  -18.9471  -30.1430   23.8907 C   0  0  0  0  0  0
  -17.6479  -30.6584   24.0547 C   0  0  0  0  0  0
  -25.9032  -34.9482   23.5163 C   0  0  0  0  0  0
  -16.5363  -29.9103   23.6290 C   0  0  0  0  0  0
  -16.7276  -28.6499   23.0350 C   0  0  0  0  0  0
  -26.4445  -31.6601   25.0734 C   0  0  0  0  0  0
  -25.3661  -31.3724   26.1458 C   0  0  0  0  0  0
  -27.0288  -30.3074   24.6104 C   0  0  0  0  0  0
  -27.6061  -32.4302   25.7478 C   0  0  0  0  0  0
  -27.5593  -37.1811   24.8476 C   0  0  0  0  0  0
  -21.4237  -29.3037   22.3690 N   0  0  0  0  0  0
  -26.4296  -37.3816   23.9426 N   0  0  0  0  0  0
  -24.6919  -31.0608   22.0940 N   0  0  0  0  0  0
  -23.4252  -28.8124   23.3029 O   0  0  0  0  0  0
  -28.4108  -26.5229   20.1927 O   0  0  0  0  0  0
  -26.5623  -34.8930   22.4745 O   0  0  0  0  0  0
  -23.5397  -32.1372   23.7307 O   0  0  0  0  0  0
  -31.9795  -19.3513   22.3387 C   0  0  0  0  0  0
  -31.7315  -16.9304   22.2611 C   0  0  0  0  0  0
  -30.2088  -18.3617   20.9847 C   0  0  0  0  0  0
  -32.4260  -18.0723   22.7178 C   0  0  0  0  0  0
  -30.9037  -19.5478   21.4313 C   0  0  0  0  0  0
  -30.6387  -17.0284   21.3722 C   0  0  0  0  0  0
  -30.2994  -23.1243   20.2346 C   0  0  0  0  0  0
  -31.6631  -22.8319   19.8569 C   0  0  0  0  0  0
  -29.7895  -21.8667   20.8568 C   0  0  0  0  0  0
  -32.4891  -23.5998   19.1205 C   0  0  0  0  0  0
  -29.7253  -24.3690   20.0228 C   0  0  0  0  0  0
  -32.0540  -21.4841   20.3609 C   0  0  0  0  0  0
  -28.3478  -25.0415   20.2772 C   0  0  0  0  0  0
  -33.7037  -17.9562   23.5528 C   0  0  1  0  0  0
  -30.8005  -20.9119   20.8692 N   0  0  0  0  0  0
  -34.1984  -16.6071   23.7517 N   0  0  0  0  0  0
  -30.0429  -15.7622   20.9164 N   0  0  0  0  0  0
  -28.6485  -21.6780   21.2912 O   0  0  0  0  0  0
  -34.6653  -18.6132   22.9129 F   0  0  0  0  0  0
  -31.4740  -12.4709   19.1688 H   0  0  0  0  0  0
  -30.3278  -11.3903   19.9078 H   0  0  0  0  0  0
  -29.7797  -11.7553   17.4794 H   0  0  0  0  0  0
  -29.6737  -13.4742   17.7451 H   0  0  0  0  0  0
  -27.8433  -11.3100   18.8382 H   0  0  0  0  0  0
  -27.3944  -12.6092   17.7700 H   0  0  0  0  0  0
  -27.6648  -14.2707   19.5073 H   0  0  0  0  0  0
  -28.6929  -12.1003   21.3983 H   0  0  0  0  0  0
  -28.4448  -13.7793   21.8105 H   0  0  0  0  0  0
  -25.2832   -9.5668   22.4714 H   0  0  0  0  0  0
  -24.0042   -7.4653   22.7494 H   0  0  0  0  0  0
  -21.0875   -8.8825   19.8982 H   0  0  0  0  0  0
  -22.3782  -10.9677   19.6167 H   0  0  0  0  0  0
  -21.2010   -7.6154   23.9732 H   0  0  0  0  0  0
  -21.1478   -6.0512   25.9087 H   0  0  0  0  0  0
  -22.0603   -2.7615   23.2830 H   0  0  0  0  0  0
  -22.4074  -11.9950   22.4841 H   0  0  0  0  0  0
  -21.1090  -13.1254   22.2526 H   0  0  0  0  0  0
  -24.6606  -15.8537   20.5301 H   0  0  0  0  0  0
  -26.2764  -15.6351   20.0891 H   0  0  0  0  0  0
  -26.7143  -32.5497   23.1168 H   0  0  0  0  0  0
  -24.9974  -33.9733   25.0468 H   0  0  0  0  0  0
  -22.7171  -31.2934   21.3898 H   0  0  0  0  0  0
  -23.3765  -35.9605   23.3310 H   0  0  0  0  0  0
  -24.3597  -36.8907   22.2073 H   0  0  0  0  0  0
  -23.7173  -37.6485   23.6651 H   0  0  0  0  0  0
  -26.0784  -31.5384   20.5759 H   0  0  0  0  0  0
  -26.8513  -30.8686   21.9805 H   0  0  0  0  0  0
  -28.1280  -29.0104   21.1830 H   0  0  0  0  0  0
  -26.0087  -25.8898   19.0668 H   0  0  0  0  0  0
  -23.9878  -27.2538   19.0662 H   0  0  0  0  0  0
  -23.7841  -30.5722   19.4006 H   0  0  0  0  0  0
  -22.7671  -29.2308   19.8564 H   0  0  0  0  0  0
  -25.1273  -36.2042   25.0859 H   0  0  0  0  0  0
  -20.9951  -28.3271   24.1395 H   0  0  0  0  0  0
  -20.5682  -26.2319   23.3634 H   0  0  0  0  0  0
  -21.6652  -26.7466   22.1208 H   0  0  0  0  0  0
  -19.6937  -25.6293   21.1231 H   0  0  0  0  0  0
  -19.6678  -27.3183   20.6745 H   0  0  0  0  0  0
  -17.4228  -26.6661   21.3996 H   0  0  0  0  0  0
  -18.0317  -26.0065   22.9009 H   0  0  0  0  0  0
  -19.7952  -30.7209   24.2317 H   0  0  0  0  0  0
  -17.5046  -31.6266   24.5149 H   0  0  0  0  0  0
  -15.5363  -30.3033   23.7566 H   0  0  0  0  0  0
  -15.8670  -28.0792   22.7114 H   0  0  0  0  0  0
  -24.5857  -30.7069   25.7800 H   0  0  0  0  0  0
  -24.8761  -32.2828   26.4904 H   0  0  0  0  0  0
  -25.7908  -30.8918   27.0256 H   0  0  0  0  0  0
  -26.2855  -29.6871   24.1113 H   0  0  0  0  0  0
  -27.4073  -29.7324   25.4550 H   0  0  0  0  0  0
  -27.8661  -30.4515   23.9287 H   0  0  0  0  0  0
  -27.2804  -33.3663   26.2047 H   0  0  0  0  0  0
  -28.3846  -32.6752   25.0235 H   0  0  0  0  0  0
  -28.0748  -31.8391   26.5363 H   0  0  0  0  0  0
  -28.2621  -38.0098   24.7545 H   0  0  0  0  0  0
  -28.1049  -36.2634   24.6264 H   0  0  0  0  0  0
  -27.2294  -37.1441   25.8866 H   0  0  0  0  0  0
  -20.9461  -29.8793   21.6892 H   0  0  0  0  0  0
  -26.0193  -38.2891   24.1448 H   0  0  0  0  0  0
  -32.5404  -20.1927   22.7137 H   0  0  0  0  0  0
  -32.0538  -15.9520   22.5829 H   0  0  0  0  0  0
  -29.3939  -18.4668   20.2791 H   0  0  0  0  0  0
  -32.2075  -24.5589   18.7172 H   0  0  0  0  0  0
  -33.4923  -23.2693   18.8876 H   0  0  0  0  0  0
  -30.3585  -25.0895   19.5336 H   0  0  0  0  0  0
  -32.8027  -21.6187   21.1441 H   0  0  0  0  0  0
  -32.4870  -20.8619   19.5755 H   0  0  0  0  0  0
  -27.9682  -24.7195   21.2478 H   0  0  0  0  0  0
  -27.6750  -24.6408   19.5202 H   0  0  0  0  0  0
  -33.5856  -18.4601   24.5129 H   0  0  0  0  0  0
  -35.2053  -16.6112   23.6390 H   0  0  0  0  0  0
  -33.8712  -16.0440   22.9760 H   0  0  0  0  0  0
  -29.0355  -15.7102   20.9303 H   0  0  0  0  0  0
  1 25  1  0  0  0
  1 30  2  0  0  0
  1 87  1  0  0  0
  2  3  1  0  0  0
  2 25  1  0  0  0
  2 90  1  0  0  0
  2 91  1  0  0  0
  3  4  1  0  0  0
  3 92  1  0  0  0
  3 93  1  0  0  0
  4  5  1  0  0  0
  4 94  1  0  0  0
  4 95  1  0  0  0
  5  6  1  0  0  0
  5 26  1  0  0  0
  5 96  1  0  0  0
  6 25  1  0  0  0
  6 97  1  0  0  0
  6 98  1  0  0  0
  7  8  2  0  0  0
  7 26  1  0  0  0
  7 29  1  0  0  0
  8  9  1  0  0  0
  8 22  1  0  0  0
  9 10  1  0  0  0
  9 27  2  0  0  0
 10 11  2  0  0  0
 10 15  1  0  0  0
 11 12  1  0  0  0
 11 99  1  0  0  0
 12 13  2  0  0  0
 12100  1  0  0  0
 13 14  1  0  0  0
 13 31  1  0  0  0
 14 15  2  0  0  0
 14101  1  0  0  0
 15102  1  0  0  0
 16 17  2  0  0  0
 16 21  1  0  0  0
 16 31  1  0  0  0
 17 18  1  0  0  0
 17103  1  0  0  0
 18 19  2  0  0  0
 18104  1  0  0  0
 19 20  1  0  0  0
 19 24  1  0  0  0
 20 21  2  0  0  0
 20105  1  0  0  0
 21 23  1  0  0  0
 22 28  1  0  0  0
 22 32  2  0  0  0
 26 27  1  0  0  0
 28106  1  0  0  0
 28107  1  0  0  0
 29108  1  0  0  0
 29109  1  0  0  0
 33 34  1  0  0  0
 33 66  1  0  0  0
 33 70  2  0  0  0
 34 36  1  0  0  0
 34 59  1  0  0  0
 34110  1  0  0  0
 35 44  2  0  0  0
 35 45  1  0  0  0
 35 68  1  0  0  0
 36 56  1  0  0  0
 36111  1  0  0  0
 37 39  1  0  0  0
 37 47  1  0  0  0
 37 66  1  0  0  0
 37112  1  0  0  0
 38 43  2  0  0  0
 38 46  1  0  0  0
 38 47  1  0  0  0
 39 64  1  0  0  0
 39 67  2  0  0  0
 40 52  1  0  0  0
 40 53  2  0  0  0
 40 58  1  0  0  0
 41113  1  0  0  0
 41114  1  0  0  0
 41115  1  0  0  0
 41 48  1  0  0  0
 42 43  1  0  0  0
 42 66  1  0  0  0
 42116  1  0  0  0
 42117  1  0  0  0
 43 44  1  0  0  0
 44118  1  0  0  0
 45 46  2  0  0  0
 45119  1  0  0  0
 46120  1  0  0  0
 47121  1  0  0  0
 47122  1  0  0  0
 48 56  1  0  0  0
 48 65  1  0  0  0
 48123  1  0  0  0
 49 50  1  0  0  0
 49 53  1  0  0  0
 49 64  1  0  0  0
 49124  1  0  0  0
 50 51  1  0  0  0
 50125  1  0  0  0
 50126  1  0  0  0
 51 52  1  0  0  0
 51127  1  0  0  0
 51128  1  0  0  0
 52129  1  0  0  0
 52130  1  0  0  0
 53 54  1  0  0  0
 54 55  2  0  0  0
 54131  1  0  0  0
 55 57  1  0  0  0
 55132  1  0  0  0
 56 69  2  0  0  0
 57 58  2  0  0  0
 57133  1  0  0  0
 58134  1  0  0  0
 59 60  1  0  0  0
 59 61  1  0  0  0
 59 62  1  0  0  0
 60135  1  0  0  0
 60136  1  0  0  0
 60137  1  0  0  0
 61138  1  0  0  0
 61139  1  0  0  0
 61140  1  0  0  0
 62141  1  0  0  0
 62142  1  0  0  0
 62143  1  0  0  0
 63 65  1  0  0  0
 63144  1  0  0  0
 63145  1  0  0  0
 63146  1  0  0  0
 64147  1  0  0  0
 65148  1  0  0  0
 68 83  1  0  0  0
 71 74  2  0  0  0
 71 75  1  0  0  0
 71149  1  0  0  0
 72 74  1  0  0  0
 72 76  2  0  0  0
 72150  1  0  0  0
 73 75  2  0  0  0
 73 76  1  0  0  0
 73151  1  0  0  0
 74 84  1  0  0  0
 75 85  1  0  0  0
 76 87  1  0  0  0
 77 78  1  0  0  0
 77 79  1  0  0  0
 77 81  2  0  0  0
 78 80  2  0  0  0
 78 82  1  0  0  0
 79 85  1  0  0  0
 79 88  2  0  0  0
 80152  1  0  0  0
 80153  1  0  0  0
 81 83  1  0  0  0
 81154  1  0  0  0
 82 85  1  0  0  0
 82155  1  0  0  0
 82156  1  0  0  0
 83157  1  0  0  0
 83158  1  0  0  0
 84 86  1  0  0  0
 84 89  1  0  0  0
 84159  1  0  0  0
 86160  1  0  0  0
 86161  1  0  0  0
 87162  1  0  0  0
M  ISO  4   1 100  68 101  83 101  87 100
M  END
> <chiral flag>
0

> <version>
0

> <s_m_source_file>
/data/baiqing/PycharmProjects/Reinvent-master-3.2/result/LINK_invent/BTK/process_docking_weight1_custom_product_contain_oxygen_bond_distance_aromatic_linkinvent_7_9_3/rearranged_h_0077.sdf

> <i_m_source_file_index>
44

> <r_mmod_Potential_Energy-OPLS-2005>
205.963897705078

> <r_mmod_Stretch_Energy-OPLS-2005>
97.8998794555664

> <r_mmod_Bend_Energy-OPLS-2005>
222.82275390625

> <r_mmod_Torsional_Energy-OPLS-2005>
304.956848144531

> <r_mmod_Improper_Torsional_Energy-OPLS-2005>
6.2778148651123

> <r_mmod_Van_der_Waal_Energy-OPLS-2005>
148.61083984375

> <r_mmod_Electrostatic_Energy-OPLS-2005>
-396.22314453125

> <r_mmod_Solvation_Energy-OPLS-2005>
-224.137802124023

> <b_mmod_Minimization_Converged-OPLS-2005>
0

> <r_mmod_RMS_Derivative-OPLS-2005>
7.22653675079346

$$$$
44
                    3D
 Structure written by MMmdl.
158167  0  0  1  0            999 V2000
  -30.6073  -14.6647   20.4920 C   0  0  0  0  0  0
  -30.4417  -12.4062   19.4552 C   0  0  0  0  0  0
  -29.5095  -12.5038   18.2266 C   0  0  0  0  0  0
  -28.0339  -12.3342   18.6400 C   0  0  0  0  0  0
  -27.6503  -13.2132   19.8591 C   0  0  2  0  0  0
  -28.6949  -13.0819   20.9901 C   0  0  0  0  0  0
  -25.2554  -13.8163   20.5678 C   0  0  0  0  0  0
  -24.1822  -13.0437   20.9205 C   0  0  0  0  0  0
  -24.6380  -11.6902   20.8744 C   0  0  0  0  0  0
  -23.9042  -10.4293   21.0406 C   0  0  0  0  0  0
  -24.3606   -9.4206   21.9179 C   0  0  0  0  0  0
  -23.6285   -8.2242   22.0744 C   0  0  0  0  0  0
  -22.4267   -8.0281   21.3535 C   0  0  0  0  0  0
  -21.9890   -9.0256   20.4644 C   0  0  0  0  0  0
  -22.7213  -10.2138   20.3057 C   0  0  0  0  0  0
  -21.6853   -6.0729   22.5271 C   0  0  0  0  0  0
  -21.4020   -6.5632   23.8207 C   0  0  0  0  0  0
  -21.3661   -5.6785   24.9170 C   0  0  0  0  0  0
  -21.6046   -4.3047   24.7220 C   0  0  0  0  0  0
  -21.8823   -3.8136   23.4340 C   0  0  0  0  0  0
  -21.9198   -4.6956   22.3394 C   0  0  0  0  0  0
  -22.7846  -13.5240   21.1864 C   0  0  0  0  0  0
  -22.1660   -4.2136   21.0971 F   0  0  0  0  0  0
  -21.5630   -3.4536   25.7733 F   0  0  0  0  0  0
  -30.0085  -13.4317   20.4257 N   0  0  0  0  0  0
  -26.2965  -12.9329   20.3288 N   0  0  0  0  0  0
  -25.9303  -11.6492   20.5752 N   0  0  0  0  0  0
  -22.0481  -12.8247   22.0426 N   0  0  0  0  0  0
  -25.4266  -15.1892   20.4087 N   0  0  0  0  0  0
  -31.7784  -14.8215   20.1318 O   0  0  0  0  0  0
  -21.6635   -6.8873   21.4233 O   0  0  0  0  0  0
  -22.3537  -14.5540   20.6707 O   0  0  0  0  0  0
  -24.6270  -31.8592   23.2023 C   0  0  0  0  0  0
  -25.9115  -32.4772   23.8351 C   0  0  1  0  0  0
  -27.2234  -27.3110   20.1151 C   0  0  0  0  0  0
  -25.5928  -33.8573   24.2270 N   0  0  0  0  0  0
  -23.4212  -30.4843   21.5442 C   0  0  2  0  0  0
  -24.8679  -28.9420   20.1091 C   0  0  0  0  0  0
  -22.7480  -29.4622   22.4911 C   0  0  0  0  0  0
  -18.0294  -28.1395   22.8467 C   0  0  0  0  0  0
  -24.1490  -36.7298   23.2634 C   0  0  0  0  0  0
  -25.9647  -30.7877   21.3757 C   0  0  0  0  0  0
  -26.0383  -29.4161   20.7151 C   0  0  0  0  0  0
  -27.2189  -28.6124   20.7093 C   0  0  0  0  0  0
  -26.0286  -26.8992   19.4770 C   0  0  0  0  0  0
  -24.8654  -27.6887   19.4816 C   0  0  0  0  0  0
  -23.6366  -29.8226   20.1588 C   0  0  0  0  0  0
  -25.4110  -36.3073   24.0322 C   0  0  1  0  0  0
  -20.5892  -28.3696   23.1266 C   0  0  2  0  0  0
  -20.6778  -26.9413   22.5411 C   0  0  0  0  0  0
  -19.5764  -26.6385   21.5201 C   0  0  0  0  0  0
  -18.1940  -26.7936   22.1605 C   0  0  0  0  0  0
  -19.1546  -28.8859   23.2866 C   0  0  0  0  0  0
  -18.9466  -30.1455   23.8897 C   0  0  0  0  0  0
  -17.6471  -30.6585   24.0570 C   0  0  0  0  0  0
  -25.9054  -34.9446   23.5097 C   0  0  0  0  0  0
  -16.5360  -29.9093   23.6328 C   0  0  0  0  0  0
  -16.7285  -28.6513   23.0336 C   0  0  0  0  0  0
  -26.4491  -31.6594   25.0732 C   0  0  0  0  0  0
  -25.3723  -31.3789   26.1469 C   0  0  0  0  0  0
  -27.0310  -30.2995   24.6218 C   0  0  0  0  0  0
  -27.6059  -32.4328   25.7487 C   0  0  0  0  0  0
  -27.5585  -37.1788   24.8446 C   0  0  0  0  0  0
  -21.4192  -29.3046   22.3650 N   0  0  0  0  0  0
  -26.4280  -37.3771   23.9417 N   0  0  0  0  0  0
  -24.6896  -31.0601   22.0975 N   0  0  0  0  0  0
  -23.4199  -28.8156   23.2986 O   0  0  0  0  0  0
  -28.3311  -26.4438   20.1796 O   0  0  0  0  0  0
  -26.5622  -34.8915   22.4664 O   0  0  0  0  0  0
  -23.5433  -32.1392   23.7349 O   0  0  0  0  0  0
  -28.7438  -19.4136   20.7047 C   0  0  0  0  0  0
  -31.1216  -19.3263   20.4698 C   0  0  0  0  0  0
  -28.7162  -17.9834   20.7604 C   0  0  0  0  0  0
  -31.0978  -17.8989   20.5163 C   0  0  0  0  0  0
  -29.9546  -20.1478   20.5848 C   0  0  0  0  0  0
  -29.8886  -17.1769   20.6790 C   0  0  0  0  0  0
  -29.0323  -22.5708   20.2821 C   0  0  0  0  0  0
  -29.1528  -23.9397   20.4296 C   0  0  0  0  0  0
  -31.2126  -23.4681   21.8000 C   0  0  0  0  0  0
  -31.7885  -23.6985   22.9914 C   0  0  0  0  0  0
  -30.3921  -24.5319   21.0830 C   0  0  0  0  0  0
  -31.3112  -22.1148   21.1054 C   0  0  0  0  0  0
  -28.0836  -24.9920   19.9679 C   0  0  0  0  0  0
  -30.0173  -21.5992   20.6323 N   0  0  0  0  0  0
  -29.7739  -15.7157   20.7931 N   0  0  0  0  0  0
  -31.4807  -12.5428   19.1495 H   0  0  0  0  0  0
  -30.3896  -11.4127   19.9046 H   0  0  0  0  0  0
  -29.7783  -11.7465   17.4890 H   0  0  0  0  0  0
  -29.6460  -13.4702   17.7379 H   0  0  0  0  0  0
  -27.8828  -11.2820   18.8852 H   0  0  0  0  0  0
  -27.3772  -12.5460   17.7956 H   0  0  0  0  0  0
  -27.6633  -14.2442   19.5059 H   0  0  0  0  0  0
  -28.7112  -12.0628   21.3798 H   0  0  0  0  0  0
  -28.4364  -13.7198   21.8367 H   0  0  0  0  0  0
  -25.2761   -9.5686   22.4740 H   0  0  0  0  0  0
  -23.9997   -7.4636   22.7470 H   0  0  0  0  0  0
  -21.0808   -8.8791   19.8959 H   0  0  0  0  0  0
  -22.3675  -10.9687   19.6174 H   0  0  0  0  0  0
  -21.2012   -7.6141   23.9707 H   0  0  0  0  0  0
  -21.1477   -6.0513   25.9072 H   0  0  0  0  0  0
  -22.0598   -2.7596   23.2850 H   0  0  0  0  0  0
  -22.4093  -11.9925   22.4844 H   0  0  0  0  0  0
  -21.1103  -13.1302   22.2627 H   0  0  0  0  0  0
  -24.6570  -15.8411   20.5149 H   0  0  0  0  0  0
  -26.2564  -15.6201   20.0222 H   0  0  0  0  0  0
  -26.7188  -32.5436   23.1105 H   0  0  0  0  0  0
  -25.0048  -33.9714   25.0394 H   0  0  0  0  0  0
  -22.7149  -31.3047   21.4016 H   0  0  0  0  0  0
  -23.3741  -35.9640   23.3273 H   0  0  0  0  0  0
  -24.3588  -36.8951   22.2055 H   0  0  0  0  0  0
  -23.7253  -37.6498   23.6671 H   0  0  0  0  0  0
  -26.1004  -31.5521   20.6091 H   0  0  0  0  0  0
  -26.8438  -30.8330   22.0071 H   0  0  0  0  0  0
  -28.1151  -28.9692   21.1975 H   0  0  0  0  0  0
  -25.9587  -25.9464   18.9744 H   0  0  0  0  0  0
  -23.9696  -27.3197   19.0009 H   0  0  0  0  0  0
  -23.7583  -30.6015   19.4052 H   0  0  0  0  0  0
  -22.7563  -29.2542   19.8523 H   0  0  0  0  0  0
  -25.1286  -36.1915   25.0811 H   0  0  0  0  0  0
  -20.9985  -28.3293   24.1385 H   0  0  0  0  0  0
  -20.5650  -26.2316   23.3620 H   0  0  0  0  0  0
  -21.6655  -26.7421   22.1232 H   0  0  0  0  0  0
  -19.6926  -25.6292   21.1241 H   0  0  0  0  0  0
  -19.6717  -27.3188   20.6726 H   0  0  0  0  0  0
  -17.4208  -26.6671   21.4012 H   0  0  0  0  0  0
  -18.0345  -26.0088   22.9011 H   0  0  0  0  0  0
  -19.7944  -30.7262   24.2277 H   0  0  0  0  0  0
  -17.5028  -31.6262   24.5183 H   0  0  0  0  0  0
  -15.5366  -30.2999   23.7647 H   0  0  0  0  0  0
  -15.8686  -28.0846   22.7037 H   0  0  0  0  0  0
  -24.5890  -30.7126   25.7840 H   0  0  0  0  0  0
  -24.8928  -32.2985   26.4839 H   0  0  0  0  0  0
  -25.8046  -30.9026   27.0277 H   0  0  0  0  0  0
  -26.2889  -29.6764   24.1214 H   0  0  0  0  0  0
  -27.3944  -29.7246   25.4747 H   0  0  0  0  0  0
  -27.8794  -30.4249   23.9485 H   0  0  0  0  0  0
  -27.2661  -33.3609   26.2098 H   0  0  0  0  0  0
  -28.3845  -32.6922   25.0300 H   0  0  0  0  0  0
  -28.0753  -31.8440   26.5380 H   0  0  0  0  0  0
  -28.2576  -38.0109   24.7513 H   0  0  0  0  0  0
  -28.1104  -36.2644   24.6216 H   0  0  0  0  0  0
  -27.2319  -37.1378   25.8851 H   0  0  0  0  0  0
  -20.9358  -29.8791   21.6887 H   0  0  0  0  0  0
  -26.0156  -38.2837   24.1449 H   0  0  0  0  0  0
  -27.8093  -19.9476   20.7932 H   0  0  0  0  0  0
  -32.0923  -19.7830   20.3437 H   0  0  0  0  0  0
  -27.7549  -17.5045   20.8788 H   0  0  0  0  0  0
  -32.0358  -17.3681   20.4422 H   0  0  0  0  0  0
  -28.1524  -22.1448   19.8172 H   0  0  0  0  0  0
  -31.7004  -24.6555   23.4853 H   0  0  0  0  0  0
  -32.3588  -22.9323   23.4974 H   0  0  0  0  0  0
  -30.0966  -25.3070   21.7917 H   0  0  0  0  0  0
  -31.0023  -25.0074   20.3141 H   0  0  0  0  0  0
  -31.7852  -21.4218   21.8022 H   0  0  0  0  0  0
  -31.9790  -22.2191   20.2490 H   0  0  0  0  0  0
  -27.1638  -24.7056   20.4790 H   0  0  0  0  0  0
  -27.9177  -24.8261   18.9023 H   0  0  0  0  0  0
  -28.8519  -15.3948   21.0457 H   0  0  0  0  0  0
  1 25  1  0  0  0
  1 30  2  0  0  0
  1 85  1  0  0  0
  2  3  1  0  0  0
  2 25  1  0  0  0
  2 86  1  0  0  0
  2 87  1  0  0  0
  3  4  1  0  0  0
  3 88  1  0  0  0
  3 89  1  0  0  0
  4  5  1  0  0  0
  4 90  1  0  0  0
  4 91  1  0  0  0
  5  6  1  0  0  0
  5 26  1  0  0  0
  5 92  1  0  0  0
  6 25  1  0  0  0
  6 93  1  0  0  0
  6 94  1  0  0  0
  7  8  2  0  0  0
  7 26  1  0  0  0
  7 29  1  0  0  0
  8  9  1  0  0  0
  8 22  1  0  0  0
  9 10  1  0  0  0
  9 27  2  0  0  0
 10 11  2  0  0  0
 10 15  1  0  0  0
 11 12  1  0  0  0
 11 95  1  0  0  0
 12 13  2  0  0  0
 12 96  1  0  0  0
 13 14  1  0  0  0
 13 31  1  0  0  0
 14 15  2  0  0  0
 14 97  1  0  0  0
 15 98  1  0  0  0
 16 17  2  0  0  0
 16 21  1  0  0  0
 16 31  1  0  0  0
 17 18  1  0  0  0
 17 99  1  0  0  0
 18 19  2  0  0  0
 18100  1  0  0  0
 19 20  1  0  0  0
 19 24  1  0  0  0
 20 21  2  0  0  0
 20101  1  0  0  0
 21 23  1  0  0  0
 22 28  1  0  0  0
 22 32  2  0  0  0
 26 27  1  0  0  0
 28102  1  0  0  0
 28103  1  0  0  0
 29104  1  0  0  0
 29105  1  0  0  0
 33 34  1  0  0  0
 33 66  1  0  0  0
 33 70  2  0  0  0
 34 36  1  0  0  0
 34 59  1  0  0  0
 34106  1  0  0  0
 35 44  2  0  0  0
 35 45  1  0  0  0
 35 68  1  0  0  0
 36 56  1  0  0  0
 36107  1  0  0  0
 37 39  1  0  0  0
 37 47  1  0  0  0
 37 66  1  0  0  0
 37108  1  0  0  0
 38 43  2  0  0  0
 38 46  1  0  0  0
 38 47  1  0  0  0
 39 64  1  0  0  0
 39 67  2  0  0  0
 40 52  1  0  0  0
 40 53  2  0  0  0
 40 58  1  0  0  0
 41109  1  0  0  0
 41110  1  0  0  0
 41111  1  0  0  0
 41 48  1  0  0  0
 42 43  1  0  0  0
 42 66  1  0  0  0
 42112  1  0  0  0
 42113  1  0  0  0
 43 44  1  0  0  0
 44114  1  0  0  0
 45 46  2  0  0  0
 45115  1  0  0  0
 46116  1  0  0  0
 47117  1  0  0  0
 47118  1  0  0  0
 48 56  1  0  0  0
 48 65  1  0  0  0
 48119  1  0  0  0
 49 50  1  0  0  0
 49 53  1  0  0  0
 49 64  1  0  0  0
 49120  1  0  0  0
 50 51  1  0  0  0
 50121  1  0  0  0
 50122  1  0  0  0
 51 52  1  0  0  0
 51123  1  0  0  0
 51124  1  0  0  0
 52125  1  0  0  0
 52126  1  0  0  0
 53 54  1  0  0  0
 54 55  2  0  0  0
 54127  1  0  0  0
 55 57  1  0  0  0
 55128  1  0  0  0
 56 69  2  0  0  0
 57 58  2  0  0  0
 57129  1  0  0  0
 58130  1  0  0  0
 59 60  1  0  0  0
 59 61  1  0  0  0
 59 62  1  0  0  0
 60131  1  0  0  0
 60132  1  0  0  0
 60133  1  0  0  0
 61134  1  0  0  0
 61135  1  0  0  0
 61136  1  0  0  0
 62137  1  0  0  0
 62138  1  0  0  0
 62139  1  0  0  0
 63 65  1  0  0  0
 63140  1  0  0  0
 63141  1  0  0  0
 63142  1  0  0  0
 64143  1  0  0  0
 65144  1  0  0  0
 68 83  1  0  0  0
 71 73  2  0  0  0
 71 75  1  0  0  0
 71145  1  0  0  0
 72 74  1  0  0  0
 72 75  2  0  0  0
 72146  1  0  0  0
 73 76  1  0  0  0
 73147  1  0  0  0
 74 76  2  0  0  0
 74148  1  0  0  0
 75 84  1  0  0  0
 76 85  1  0  0  0
 77 78  2  0  0  0
 77 84  1  0  0  0
 77149  1  0  0  0
 78 81  1  0  0  0
 78 83  1  0  0  0
 79 80  2  0  0  0
 79 81  1  0  0  0
 79 82  1  0  0  0
 80150  1  0  0  0
 80151  1  0  0  0
 81152  1  0  0  0
 81153  1  0  0  0
 82 84  1  0  0  0
 82154  1  0  0  0
 82155  1  0  0  0
 83156  1  0  0  0
 83157  1  0  0  0
 85158  1  0  0  0
M  ISO  4   1 100  68 101  83 101  85 100
M  END
> <chiral flag>
0

> <version>
0

> <s_m_source_file>
/data/baiqing/PycharmProjects/Reinvent-master-3.2/result/LINK_invent/BTK/process_docking_weight1_custom_product_contain_oxygen_bond_distance_aromatic_linkinvent_7_9_3/rearranged_h_0077.sdf

> <i_m_source_file_index>
45

> <r_mmod_Potential_Energy-OPLS-2005>
60.5733642578125

> <r_mmod_Stretch_Energy-OPLS-2005>
86.8625793457031

> <r_mmod_Bend_Energy-OPLS-2005>
137.63134765625

> <r_mmod_Torsional_Energy-OPLS-2005>
202.953948974609

> <r_mmod_Improper_Torsional_Energy-OPLS-2005>
4.78746795654297

> <r_mmod_Van_der_Waal_Energy-OPLS-2005>
163.049179077148

> <r_mmod_Electrostatic_Energy-OPLS-2005>
-380.784637451172

> <r_mmod_Solvation_Energy-OPLS-2005>
-210.455032348633

> <b_mmod_Minimization_Converged-OPLS-2005>
0

> <r_mmod_RMS_Derivative-OPLS-2005>
1.45104670524597

$$$$
45
                    3D
 Structure written by MMmdl.
171180  0  0  1  0            999 V2000
  -30.6246  -14.7581   20.4615 C   0  0  0  0  0  0
  -30.4272  -12.4644   19.4739 C   0  0  0  0  0  0
  -29.5083  -12.5127   18.2338 C   0  0  0  0  0  0
  -28.0339  -12.3373   18.6461 C   0  0  0  0  0  0
  -27.6391  -13.2381   19.8475 C   0  0  2  0  0  0
  -28.6848  -13.1875   20.9824 C   0  0  0  0  0  0
  -25.2496  -13.8207   20.5706 C   0  0  0  0  0  0
  -24.1797  -13.0441   20.9211 C   0  0  0  0  0  0
  -24.6402  -11.6916   20.8745 C   0  0  0  0  0  0
  -23.9086  -10.4287   21.0403 C   0  0  0  0  0  0
  -24.3636   -9.4207   21.9183 C   0  0  0  0  0  0
  -23.6302   -8.2246   22.0755 C   0  0  0  0  0  0
  -22.4286   -8.0284   21.3541 C   0  0  0  0  0  0
  -21.9921   -9.0261   20.4655 C   0  0  0  0  0  0
  -22.7255  -10.2133   20.3061 C   0  0  0  0  0  0
  -21.6853   -6.0742   22.5285 C   0  0  0  0  0  0
  -21.4013   -6.5644   23.8216 C   0  0  0  0  0  0
  -21.3660   -5.6796   24.9176 C   0  0  0  0  0  0
  -21.6047   -4.3060   24.7229 C   0  0  0  0  0  0
  -21.8816   -3.8151   23.4347 C   0  0  0  0  0  0
  -21.9191   -4.6967   22.3405 C   0  0  0  0  0  0
  -22.7820  -13.5221   21.1865 C   0  0  0  0  0  0
  -22.1661   -4.2156   21.0982 F   0  0  0  0  0  0
  -21.5628   -3.4546   25.7739 F   0  0  0  0  0  0
  -29.9828  -13.5384   20.3944 N   0  0  0  0  0  0
  -26.2933  -12.9424   20.3278 N   0  0  0  0  0  0
  -25.9336  -11.6561   20.5753 N   0  0  0  0  0  0
  -22.0478  -12.8207   22.0429 N   0  0  0  0  0  0
  -25.4171  -15.1926   20.4106 N   0  0  0  0  0  0
  -31.8161  -14.8152   20.1462 O   0  0  0  0  0  0
  -21.6641   -6.8888   21.4244 O   0  0  0  0  0  0
  -22.3503  -14.5529   20.6711 O   0  0  0  0  0  0
  -24.6308  -31.8526   23.1945 C   0  0  0  0  0  0
  -25.9145  -32.4737   23.8299 C   0  0  1  0  0  0
  -27.2337  -27.2645   20.1345 C   0  0  0  0  0  0
  -25.5958  -33.8542   24.2245 N   0  0  0  0  0  0
  -23.4273  -30.4728   21.5343 C   0  0  2  0  0  0
  -24.8777  -28.9113   20.1067 C   0  0  0  0  0  0
  -22.7482  -29.4613   22.4888 C   0  0  0  0  0  0
  -18.0289  -28.1372   22.8484 C   0  0  0  0  0  0
  -24.1494  -36.7274   23.2637 C   0  0  0  0  0  0
  -25.9695  -30.7668   21.3734 C   0  0  0  0  0  0
  -26.0429  -29.3887   20.7169 C   0  0  0  0  0  0
  -27.2177  -28.5756   20.7201 C   0  0  0  0  0  0
  -26.0442  -26.8433   19.5024 C   0  0  0  0  0  0
  -24.8822  -27.6466   19.4923 C   0  0  0  0  0  0
  -23.6472  -29.7971   20.1526 C   0  0  0  0  0  0
  -25.4120  -36.3063   24.0318 C   0  0  1  0  0  0
  -20.5890  -28.3700   23.1253 C   0  0  2  0  0  0
  -20.6778  -26.9412   22.5418 C   0  0  0  0  0  0
  -19.5762  -26.6374   21.5210 C   0  0  0  0  0  0
  -18.1933  -26.7926   22.1605 C   0  0  0  0  0  0
  -19.1542  -28.8852   23.2863 C   0  0  0  0  0  0
  -18.9473  -30.1457   23.8881 C   0  0  0  0  0  0
  -17.6473  -30.6582   24.0571 C   0  0  0  0  0  0
  -25.9061  -34.9428   23.5075 C   0  0  0  0  0  0
  -16.5360  -29.9082   23.6329 C   0  0  0  0  0  0
  -16.7276  -28.6492   23.0362 C   0  0  0  0  0  0
  -26.4518  -31.6575   25.0700 C   0  0  0  0  0  0
  -25.3756  -31.3728   26.1446 C   0  0  0  0  0  0
  -27.0382  -30.2990   24.6221 C   0  0  0  0  0  0
  -27.6082  -32.4332   25.7437 C   0  0  0  0  0  0
  -27.5576  -37.1781   24.8449 C   0  0  0  0  0  0
  -21.4194  -29.3050   22.3637 N   0  0  0  0  0  0
  -26.4275  -37.3785   23.9421 N   0  0  0  0  0  0
  -24.6946  -31.0513   22.0903 N   0  0  0  0  0  0
  -23.4187  -28.8180   23.3006 O   0  0  0  0  0  0
  -28.3681  -26.4303   20.2385 O   0  0  0  0  0  0
  -26.5630  -34.8906   22.4641 O   0  0  0  0  0  0
  -23.5469  -32.1337   23.7261 O   0  0  0  0  0  0
  -29.3802  -18.5091   20.5395 C   0  0  0  0  0  0
  -31.6097  -17.7004   20.9885 C   0  0  0  0  0  0
  -29.7892  -19.9168   20.6179 C   0  0  0  0  0  0
  -31.1803  -20.1436   20.8769 C   0  0  0  0  0  0
  -30.2710  -17.3635   20.7007 C   0  0  0  0  0  0
  -32.0477  -19.0335   21.0771 C   0  0  0  0  0  0
  -33.1530  -23.8837   21.5044 C   0  0  0  0  0  0
  -32.1773  -23.3930   22.4703 C   0  0  0  0  0  0
  -34.0690  -24.8157   21.8294 C   0  0  0  0  0  0
  -31.6501  -24.1966   23.4113 C   0  0  0  0  0  0
  -28.7503  -21.0974   20.5306 C   0  0  0  0  0  0
  -33.1397  -23.2737   20.1132 C   0  0  0  0  0  0
  -31.7266  -21.9427   22.3723 C   0  0  0  0  0  0
  -32.8899  -21.7587   20.1717 C   0  0  0  0  0  0
  -29.9613  -25.0858   19.1596 C   0  0  0  0  0  0
  -28.3155  -23.7194   20.6068 C   0  0  0  0  0  0
  -28.5234  -25.0431   19.6848 C   0  0  1  0  0  0
  -31.7151  -21.4479   20.9942 N   0  0  0  0  0  0
  -29.8706  -15.9193   20.6521 N   0  0  0  0  0  0
  -29.1132  -22.4268   20.3595 N   0  0  0  0  0  0
  -27.5549  -20.8170   20.6404 O   0  0  0  0  0  0
  -33.3487  -19.2308   21.4061 F   0  0  0  0  0  0
  -31.4704  -12.5759   19.1732 H   0  0  0  0  0  0
  -30.3650  -11.4909   19.9646 H   0  0  0  0  0  0
  -29.7927  -11.7370   17.5212 H   0  0  0  0  0  0
  -29.6360  -13.4653   17.7166 H   0  0  0  0  0  0
  -27.8881  -11.2880   18.9048 H   0  0  0  0  0  0
  -27.3791  -12.5342   17.7959 H   0  0  0  0  0  0
  -27.6278  -14.2575   19.4616 H   0  0  0  0  0  0
  -28.7245  -12.1961   21.4355 H   0  0  0  0  0  0
  -28.4223  -13.8798   21.7840 H   0  0  0  0  0  0
  -25.2784   -9.5674   22.4755 H   0  0  0  0  0  0
  -24.0012   -7.4637   22.7462 H   0  0  0  0  0  0
  -21.0858   -8.8773   19.8968 H   0  0  0  0  0  0
  -22.3712  -10.9667   19.6167 H   0  0  0  0  0  0
  -21.2003   -7.6151   23.9719 H   0  0  0  0  0  0
  -21.1486   -6.0530   25.9079 H   0  0  0  0  0  0
  -22.0596   -2.7618   23.2843 H   0  0  0  0  0  0
  -22.4112  -11.9871   22.4811 H   0  0  0  0  0  0
  -21.1094  -13.1214   22.2640 H   0  0  0  0  0  0
  -24.6455  -15.8418   20.5188 H   0  0  0  0  0  0
  -26.2564  -15.6351   20.0598 H   0  0  0  0  0  0
  -26.7216  -32.5404   23.1042 H   0  0  0  0  0  0
  -25.0156  -33.9658   25.0430 H   0  0  0  0  0  0
  -22.7240  -31.2938   21.3786 H   0  0  0  0  0  0
  -23.3768  -35.9593   23.3268 H   0  0  0  0  0  0
  -24.3587  -36.8940   22.2057 H   0  0  0  0  0  0
  -23.7215  -37.6446   23.6692 H   0  0  0  0  0  0
  -26.1098  -31.5303   20.6080 H   0  0  0  0  0  0
  -26.8454  -30.8134   22.0079 H   0  0  0  0  0  0
  -28.1091  -28.9350   21.2144 H   0  0  0  0  0  0
  -25.9803  -25.8680   19.0447 H   0  0  0  0  0  0
  -23.9844  -27.2709   19.0206 H   0  0  0  0  0  0
  -23.7711  -30.5670   19.3903 H   0  0  0  0  0  0
  -22.7683  -29.2273   19.8485 H   0  0  0  0  0  0
  -25.1306  -36.1887   25.0809 H   0  0  0  0  0  0
  -20.9975  -28.3293   24.1369 H   0  0  0  0  0  0
  -20.5659  -26.2305   23.3629 H   0  0  0  0  0  0
  -21.6645  -26.7423   22.1214 H   0  0  0  0  0  0
  -19.6925  -25.6280   21.1243 H   0  0  0  0  0  0
  -19.6708  -27.3174   20.6735 H   0  0  0  0  0  0
  -17.4214  -26.6699   21.3994 H   0  0  0  0  0  0
  -18.0314  -26.0044   22.8968 H   0  0  0  0  0  0
  -19.7955  -30.7288   24.2216 H   0  0  0  0  0  0
  -17.5029  -31.6252   24.5201 H   0  0  0  0  0  0
  -15.5367  -30.3004   23.7643 H   0  0  0  0  0  0
  -15.8667  -28.0813   22.7096 H   0  0  0  0  0  0
  -24.5961  -30.7024   25.7810 H   0  0  0  0  0  0
  -24.8908  -32.2886   26.4854 H   0  0  0  0  0  0
  -25.8115  -30.8955   27.0237 H   0  0  0  0  0  0
  -26.2964  -29.6700   24.1295 H   0  0  0  0  0  0
  -27.4085  -29.7317   25.4771 H   0  0  0  0  0  0
  -27.8836  -30.4241   23.9446 H   0  0  0  0  0  0
  -27.2714  -33.3663   26.1966 H   0  0  0  0  0  0
  -28.3896  -32.6858   25.0248 H   0  0  0  0  0  0
  -28.0755  -31.8490   26.5377 H   0  0  0  0  0  0
  -28.2590  -38.0092   24.7567 H   0  0  0  0  0  0
  -28.1088  -36.2637   24.6200 H   0  0  0  0  0  0
  -27.2303  -37.1330   25.8852 H   0  0  0  0  0  0
  -20.9369  -29.8773   21.6851 H   0  0  0  0  0  0
  -26.0147  -38.2841   24.1503 H   0  0  0  0  0  0
  -28.3329  -18.3086   20.3607 H   0  0  0  0  0  0
  -32.3467  -16.9371   21.1784 H   0  0  0  0  0  0
  -34.1231  -25.2479   22.8179 H   0  0  0  0  0  0
  -34.7973  -25.1608   21.1095 H   0  0  0  0  0  0
  -31.9249  -25.2376   23.4980 H   0  0  0  0  0  0
  -30.9239  -23.8219   24.1187 H   0  0  0  0  0  0
  -34.0813  -23.4711   19.5990 H   0  0  0  0  0  0
  -32.3651  -23.7552   19.5224 H   0  0  0  0  0  0
  -30.7306  -21.8446   22.8074 H   0  0  0  0  0  0
  -32.3979  -21.3319   22.9791 H   0  0  0  0  0  0
  -33.7811  -21.2947   20.5953 H   0  0  0  0  0  0
  -32.7705  -21.3580   19.1629 H   0  0  0  0  0  0
  -30.1015  -25.9125   18.4624 H   0  0  0  0  0  0
  -30.2227  -24.1705   18.6294 H   0  0  0  0  0  0
  -30.6642  -25.2258   19.9816 H   0  0  0  0  0  0
  -27.2518  -23.4812   20.6235 H   0  0  0  0  0  0
  -28.5524  -24.0075   21.6314 H   0  0  0  0  0  0
  -27.8995  -24.9333   18.7996 H   0  0  0  0  0  0
  -28.8830  -15.7432   20.7565 H   0  0  0  0  0  0
  -30.1222  -22.5403   20.3015 H   0  0  0  0  0  0
  1 25  1  0  0  0
  1 30  2  0  0  0
  1 89  1  0  0  0
  2  3  1  0  0  0
  2 25  1  0  0  0
  2 93  1  0  0  0
  2 94  1  0  0  0
  3  4  1  0  0  0
  3 95  1  0  0  0
  3 96  1  0  0  0
  4  5  1  0  0  0
  4 97  1  0  0  0
  4 98  1  0  0  0
  5  6  1  0  0  0
  5 26  1  0  0  0
  5 99  1  0  0  0
  6 25  1  0  0  0
  6100  1  0  0  0
  6101  1  0  0  0
  7  8  2  0  0  0
  7 26  1  0  0  0
  7 29  1  0  0  0
  8  9  1  0  0  0
  8 22  1  0  0  0
  9 10  1  0  0  0
  9 27  2  0  0  0
 10 11  2  0  0  0
 10 15  1  0  0  0
 11 12  1  0  0  0
 11102  1  0  0  0
 12 13  2  0  0  0
 12103  1  0  0  0
 13 14  1  0  0  0
 13 31  1  0  0  0
 14 15  2  0  0  0
 14104  1  0  0  0
 15105  1  0  0  0
 16 17  2  0  0  0
 16 21  1  0  0  0
 16 31  1  0  0  0
 17 18  1  0  0  0
 17106  1  0  0  0
 18 19  2  0  0  0
 18107  1  0  0  0
 19 20  1  0  0  0
 19 24  1  0  0  0
 20 21  2  0  0  0
 20108  1  0  0  0
 21 23  1  0  0  0
 22 28  1  0  0  0
 22 32  2  0  0  0
 26 27  1  0  0  0
 28109  1  0  0  0
 28110  1  0  0  0
 29111  1  0  0  0
 29112  1  0  0  0
 33 34  1  0  0  0
 33 66  1  0  0  0
 33 70  2  0  0  0
 34 36  1  0  0  0
 34 59  1  0  0  0
 34113  1  0  0  0
 35 44  2  0  0  0
 35 45  1  0  0  0
 35 68  1  0  0  0
 36 56  1  0  0  0
 36114  1  0  0  0
 37 39  1  0  0  0
 37 47  1  0  0  0
 37 66  1  0  0  0
 37115  1  0  0  0
 38 43  2  0  0  0
 38 46  1  0  0  0
 38 47  1  0  0  0
 39 64  1  0  0  0
 39 67  2  0  0  0
 40 52  1  0  0  0
 40 53  2  0  0  0
 40 58  1  0  0  0
 41116  1  0  0  0
 41117  1  0  0  0
 41118  1  0  0  0
 41 48  1  0  0  0
 42 43  1  0  0  0
 42 66  1  0  0  0
 42119  1  0  0  0
 42120  1  0  0  0
 43 44  1  0  0  0
 44121  1  0  0  0
 45 46  2  0  0  0
 45122  1  0  0  0
 46123  1  0  0  0
 47124  1  0  0  0
 47125  1  0  0  0
 48 56  1  0  0  0
 48 65  1  0  0  0
 48126  1  0  0  0
 49 50  1  0  0  0
 49 53  1  0  0  0
 49 64  1  0  0  0
 49127  1  0  0  0
 50 51  1  0  0  0
 50128  1  0  0  0
 50129  1  0  0  0
 51 52  1  0  0  0
 51130  1  0  0  0
 51131  1  0  0  0
 52132  1  0  0  0
 52133  1  0  0  0
 53 54  1  0  0  0
 54 55  2  0  0  0
 54134  1  0  0  0
 55 57  1  0  0  0
 55135  1  0  0  0
 56 69  2  0  0  0
 57 58  2  0  0  0
 57136  1  0  0  0
 58137  1  0  0  0
 59 60  1  0  0  0
 59 61  1  0  0  0
 59 62  1  0  0  0
 60138  1  0  0  0
 60139  1  0  0  0
 60140  1  0  0  0
 61141  1  0  0  0
 61142  1  0  0  0
 61143  1  0  0  0
 62144  1  0  0  0
 62145  1  0  0  0
 62146  1  0  0  0
 63 65  1  0  0  0
 63147  1  0  0  0
 63148  1  0  0  0
 63149  1  0  0  0
 64150  1  0  0  0
 65151  1  0  0  0
 68 87  1  0  0  0
 71 73  2  0  0  0
 71 75  1  0  0  0
 71152  1  0  0  0
 72 75  2  0  0  0
 72 76  1  0  0  0
 72153  1  0  0  0
 73 74  1  0  0  0
 73 81  1  0  0  0
 74 76  2  0  0  0
 74 88  1  0  0  0
 75 89  1  0  0  0
 76 92  1  0  0  0
 77 78  1  0  0  0
 77 79  2  0  0  0
 77 82  1  0  0  0
 78 80  2  0  0  0
 78 83  1  0  0  0
 79154  1  0  0  0
 79155  1  0  0  0
 80156  1  0  0  0
 80157  1  0  0  0
 81 90  1  0  0  0
 81 91  2  0  0  0
 82 84  1  0  0  0
 82158  1  0  0  0
 82159  1  0  0  0
 83 88  1  0  0  0
 83160  1  0  0  0
 83161  1  0  0  0
 84 88  1  0  0  0
 84162  1  0  0  0
 84163  1  0  0  0
 85164  1  0  0  0
 85165  1  0  0  0
 85166  1  0  0  0
 85 87  1  0  0  0
 86 87  1  0  0  0
 86 90  1  0  0  0
 86167  1  0  0  0
 86168  1  0  0  0
 87169  1  0  0  0
 89170  1  0  0  0
 90171  1  0  0  0
M  ISO  4   1 100  68 101  87 101  89 100
M  END
> <chiral flag>
0

> <version>
0

> <s_m_source_file>
/data/baiqing/PycharmProjects/Reinvent-master-3.2/result/LINK_invent/BTK/process_docking_weight1_custom_product_contain_oxygen_bond_distance_aromatic_linkinvent_7_9_3/rearranged_h_0077.sdf

> <i_m_source_file_index>
46

> <r_mmod_Potential_Energy-OPLS-2005>
193.235946655273

> <r_mmod_Stretch_Energy-OPLS-2005>
138.344375610352

> <r_mmod_Bend_Energy-OPLS-2005>
201.485946655273

> <r_mmod_Torsional_Energy-OPLS-2005>
272.584564208984

> <r_mmod_Improper_Torsional_Energy-OPLS-2005>
9.97075176239014

> <r_mmod_Van_der_Waal_Energy-OPLS-2005>
156.565063476562

> <r_mmod_Electrostatic_Energy-OPLS-2005>
-457.853759765625

> <r_mmod_Solvation_Energy-OPLS-2005>
-213.408599853516

> <b_mmod_Minimization_Converged-OPLS-2005>
0

> <r_mmod_RMS_Derivative-OPLS-2005>
2.26246166229248

$$$$
46
                    3D
 Structure written by MMmdl.
160169  0  0  1  0            999 V2000
  -29.5761  -15.8718   20.2132 C   0  0  0  0  0  0
  -30.2872  -13.2997   19.5596 C   0  0  0  0  0  0
  -29.5144  -12.6954   18.3515 C   0  0  0  0  0  0
  -28.1010  -12.2500   18.7716 C   0  0  0  0  0  0
  -27.4985  -13.2471   19.7858 C   0  0  2  0  0  0
  -28.4363  -13.5897   20.9330 C   0  0  0  0  0  0
  -25.1963  -13.8024   20.5888 C   0  0  0  0  0  0
  -24.1330  -13.0280   20.9418 C   0  0  0  0  0  0
  -24.5969  -11.6781   20.8851 C   0  0  0  0  0  0
  -23.8804  -10.4180   21.0473 C   0  0  0  0  0  0
  -24.3484   -9.4164   21.9229 C   0  0  0  0  0  0
  -23.6228   -8.2184   22.0773 C   0  0  0  0  0  0
  -22.4208   -8.0223   21.3544 C   0  0  0  0  0  0
  -21.9783   -9.0166   20.4637 C   0  0  0  0  0  0
  -22.7041  -10.2055   20.3063 C   0  0  0  0  0  0
  -21.6840   -6.0698   22.5293 C   0  0  0  0  0  0
  -21.4005   -6.5618   23.8229 C   0  0  0  0  0  0
  -21.3654   -5.6768   24.9191 C   0  0  0  0  0  0
  -21.6038   -4.3033   24.7230 C   0  0  0  0  0  0
  -21.8819   -3.8126   23.4352 C   0  0  0  0  0  0
  -21.9186   -4.6932   22.3416 C   0  0  0  0  0  0
  -22.7413  -13.5164   21.2013 C   0  0  0  0  0  0
  -22.1652   -4.2118   21.1001 F   0  0  0  0  0  0
  -21.5622   -3.4550   25.7760 F   0  0  0  0  0  0
  -29.4487  -14.3986   20.2632 N   0  0  0  0  0  0
  -26.2079  -12.9127   20.2935 N   0  0  0  0  0  0
  -25.8816  -11.6287   20.5552 N   0  0  0  0  0  0
  -22.0031  -12.8195   22.0529 N   0  0  0  0  0  0
  -25.3912  -15.1742   20.4665 N   0  0  0  0  0  0
  -30.8288  -16.0270   20.0272 O   0  0  0  0  0  0
  -21.6596   -6.8812   21.4237 O   0  0  0  0  0  0
  -22.3296  -14.5519   20.6810 O   0  0  0  0  0  0
  -24.6620  -31.5319   22.6511 C   0  0  0  0  0  0
  -25.8291  -32.3192   23.5447 C   0  0  1  0  0  0
  -26.4435  -28.1036   21.5936 C   0  0  0  0  0  0
  -25.4304  -33.7054   23.9544 N   0  0  0  0  0  0
  -24.3689  -29.2659   20.5726 C   0  0  2  0  0  0
  -25.8535  -28.9958   19.2801 C   0  0  0  0  0  0
  -23.5500  -27.6352   22.7804 C   0  0  0  0  0  0
  -18.2044  -28.1627   22.7383 C   0  0  0  0  0  0
  -24.1366  -36.6761   23.2822 C   0  0  0  0  0  0
  -26.0805  -31.1107   20.6880 C   0  0  0  0  0  0
  -26.6583  -29.7994   20.1732 C   0  0  0  0  0  0
  -27.3499  -29.0558   21.1297 C   0  0  0  0  0  0
  -26.3966  -27.1479   20.5198 C   0  0  0  0  0  0
  -26.0120  -27.6193   19.2651 C   0  0  0  0  0  0
  -24.4721  -29.3007   19.0986 C   0  0  0  0  0  0
  -25.4074  -36.2128   24.0160 C   0  0  1  0  0  0
  -20.7471  -27.7674   23.5973 C   0  0  2  0  0  0
  -20.2287  -26.3862   23.2530 C   0  0  0  0  0  0
  -19.5758  -26.2604   21.8704 C   0  0  0  0  0  0
  -18.2269  -26.9415   21.8636 C   0  0  0  0  0  0
  -19.4220  -28.7116   23.2967 C   0  0  0  0  0  0
  -19.2110  -29.9709   23.9417 C   0  0  0  0  0  0
  -17.9227  -30.5784   24.0752 C   0  0  0  0  0  0
  -25.8847  -34.8622   23.4239 C   0  0  0  0  0  0
  -16.7645  -29.9378   23.6047 C   0  0  0  0  0  0
  -16.9181  -28.7302   22.9276 C   0  0  0  0  0  0
  -26.3731  -31.6237   24.9040 C   0  0  0  0  0  0
  -25.2814  -31.3639   25.9705 C   0  0  0  0  0  0
  -27.0691  -30.2855   24.6165 C   0  0  0  0  0  0
  -27.4680  -32.4879   25.6099 C   0  0  0  0  0  0
  -27.5418  -37.1335   24.8403 C   0  0  0  0  0  0
  -22.0865  -27.3806   22.9157 N   0  0  0  0  0  0
  -26.4038  -37.3092   23.9435 N   0  0  0  0  0  0
  -24.7937  -30.8505   21.3170 N   0  0  0  0  0  0
  -23.7765  -28.0610   23.9106 O   0  0  0  0  0  0
  -25.2814  -28.8607   22.3279 O   0  0  0  0  0  0
  -26.6382  -34.8725   22.4546 O   0  0  0  0  0  0
  -23.5727  -31.6527   23.2430 O   0  0  0  0  0  0
  -24.3771  -20.5749   21.6531 C   0  0  0  0  0  0
  -25.4817  -19.7551   21.2254 C   0  0  0  0  0  0
  -23.9864  -21.8924   21.2117 C   0  0  0  0  0  0
  -25.8816  -21.6499   19.7999 C   0  0  0  0  0  0
  -26.4238  -20.1044   20.2323 C   0  0  0  0  0  0
  -24.6407  -22.7081   20.2426 C   0  0  0  0  0  0
  -22.1217  -26.4258   19.5369 C   0  0  0  0  0  0
  -22.6908  -27.3088   20.4730 C   0  0  0  0  0  0
  -22.6695  -24.9004   19.3269 C   0  0  0  0  0  0
  -27.7939  -18.7853   19.9587 C   0  0  0  0  0  0
  -23.7917  -25.8588   20.7063 C   0  0  0  0  0  0
  -20.9013  -26.8488   18.7379 C   0  0  0  0  0  0
  -22.5750  -29.2975   21.6540 C   0  0  0  0  0  0
  -23.8331  -24.3661   20.0087 N   0  0  0  0  0  0
  -28.2748  -17.2319   20.2385 N   0  0  0  0  0  0
  -28.7349  -19.3692   19.2334 N   0  3  0  0  0  0
  -22.0969  -24.1422   18.5430 O   0  0  0  0  0  0
  -31.2214  -13.7330   19.2197 H   0  0  0  0  0  0
  -30.5862  -12.5159   20.2550 H   0  0  0  0  0  0
  -30.0688  -11.8674   17.8982 H   0  0  0  0  0  0
  -29.4367  -13.4668   17.5873 H   0  0  0  0  0  0
  -28.1755  -11.2639   19.2419 H   0  0  0  0  0  0
  -27.4520  -12.1372   17.9006 H   0  0  0  0  0  0
  -27.3273  -14.1414   19.1930 H   0  0  0  0  0  0
  -28.8096  -12.6963   21.4373 H   0  0  0  0  0  0
  -27.9469  -14.1847   21.7041 H   0  0  0  0  0  0
  -25.2610   -9.5713   22.4801 H   0  0  0  0  0  0
  -23.9942   -7.4601   22.7486 H   0  0  0  0  0  0
  -21.0723   -8.8641   19.8975 H   0  0  0  0  0  0
  -22.3480  -10.9596   19.6195 H   0  0  0  0  0  0
  -21.1998   -7.6142   23.9715 H   0  0  0  0  0  0
  -21.1476   -6.0524   25.9090 H   0  0  0  0  0  0
  -22.0605   -2.7603   23.2873 H   0  0  0  0  0  0
  -22.3602  -11.9858   22.4892 H   0  0  0  0  0  0
  -21.0710  -13.1314   22.2712 H   0  0  0  0  0  0
  -24.6932  -15.8750   20.6889 H   0  0  0  0  0  0
  -26.2489  -15.5354   20.0912 H   0  0  0  0  0  0
  -26.7327  -32.4509   22.9674 H   0  0  0  0  0  0
  -24.7711  -33.7617   24.7141 H   0  0  0  0  0  0
  -23.5494  -29.5746   19.8832 H   0  0  0  0  0  0
  -23.3642  -35.9009   23.2937 H   0  0  0  0  0  0
  -24.3372  -36.9143   22.2328 H   0  0  0  0  0  0
  -23.6979  -37.5663   23.7439 H   0  0  0  0  0  0
  -25.9168  -31.7715   19.8340 H   0  0  0  0  0  0
  -26.8714  -31.5862   21.2488 H   0  0  0  0  0  0
  -27.7818  -29.6723   21.8995 H   0  0  0  0  0  0
  -26.5455  -26.0933   20.7163 H   0  0  0  0  0  0
  -25.7148  -26.9686   18.4571 H   0  0  0  0  0  0
  -24.4922  -30.2638   18.5493 H   0  0  0  0  0  0
  -24.0091  -28.5125   18.4672 H   0  0  0  0  0  0
  -25.1396  -36.0522   25.0592 H   0  0  0  0  0  0
  -20.9566  -27.8514   24.6657 H   0  0  0  0  0  0
  -19.4569  -26.1620   23.9887 H   0  0  0  0  0  0
  -20.9212  -25.5551   23.4320 H   0  0  0  0  0  0
  -19.4516  -25.2050   21.6126 H   0  0  0  0  0  0
  -20.2182  -26.6986   21.1326 H   0  0  0  0  0  0
  -18.0509  -27.2845   20.8411 H   0  0  0  0  0  0
  -17.4110  -26.2592   22.0914 H   0  0  0  0  0  0
  -20.0507  -30.4516   24.4269 H   0  0  0  0  0  0
  -17.8312  -31.5243   24.5939 H   0  0  0  0  0  0
  -15.7916  -30.3905   23.7287 H   0  0  0  0  0  0
  -16.0435  -28.2626   22.4923 H   0  0  0  0  0  0
  -24.5382  -30.6523   25.6092 H   0  0  0  0  0  0
  -24.7524  -32.2785   26.2380 H   0  0  0  0  0  0
  -25.7022  -30.9523   26.8873 H   0  0  0  0  0  0
  -26.3713  -29.5229   24.2925 H   0  0  0  0  0  0
  -27.5414  -29.8906   25.5158 H   0  0  0  0  0  0
  -27.8596  -30.3957   23.8802 H   0  0  0  0  0  0
  -27.0636  -33.4263   25.9939 H   0  0  0  0  0  0
  -28.2830  -32.7414   24.9293 H   0  0  0  0  0  0
  -27.9036  -31.9727   26.4673 H   0  0  0  0  0  0
  -28.2167  -37.9899   24.7642 H   0  0  0  0  0  0
  -28.1166  -36.2374   24.5927 H   0  0  0  0  0  0
  -27.2199  -37.0609   25.8829 H   0  0  0  0  0  0
  -21.8081  -26.9879   22.0282 H   0  0  0  0  0  0
  -25.9738  -38.2050   24.1589 H   0  0  0  0  0  0
  -23.7549  -20.1180   22.4067 H   0  0  0  0  0  0
  -25.6170  -18.7985   21.7144 H   0  0  0  0  0  0
  -23.0919  -22.2894   21.6685 H   0  0  0  0  0  0
  -26.5109  -22.1170   19.0634 H   0  0  0  0  0  0
  -24.2974  -25.6876   21.6458 H   0  0  0  0  0  0
  -24.5301  -26.0797   20.0093 H   0  0  0  0  0  0
  -20.5813  -27.8445   19.0311 H   0  0  0  0  0  0
  -20.0645  -26.1745   18.9032 H   0  0  0  0  0  0
  -21.1326  -26.8530   17.6741 H   0  0  0  0  0  0
  -21.9754  -29.5845   22.5307 H   0  0  0  0  0  0
  -22.2490  -30.2030   21.1077 H   0  0  0  0  0  0
  -27.3644  -16.8879   20.4573 H   0  0  0  0  0  0
  -28.6160  -20.3509   19.0333 H   0  0  0  0  0  0
  -29.3739  -18.7983   18.6975 H   0  0  0  0  0  0
  1 25  1  0  0  0
  1 30  2  0  0  0
  1 85  1  0  0  0
  2  3  1  0  0  0
  2 25  1  0  0  0
  2 88  1  0  0  0
  2 89  1  0  0  0
  3  4  1  0  0  0
  3 90  1  0  0  0
  3 91  1  0  0  0
  4  5  1  0  0  0
  4 92  1  0  0  0
  4 93  1  0  0  0
  5  6  1  0  0  0
  5 26  1  0  0  0
  5 94  1  0  0  0
  6 25  1  0  0  0
  6 95  1  0  0  0
  6 96  1  0  0  0
  7  8  2  0  0  0
  7 26  1  0  0  0
  7 29  1  0  0  0
  8  9  1  0  0  0
  8 22  1  0  0  0
  9 10  1  0  0  0
  9 27  2  0  0  0
 10 11  2  0  0  0
 10 15  1  0  0  0
 11 12  1  0  0  0
 11 97  1  0  0  0
 12 13  2  0  0  0
 12 98  1  0  0  0
 13 14  1  0  0  0
 13 31  1  0  0  0
 14 15  2  0  0  0
 14 99  1  0  0  0
 15100  1  0  0  0
 16 17  2  0  0  0
 16 21  1  0  0  0
 16 31  1  0  0  0
 17 18  1  0  0  0
 17101  1  0  0  0
 18 19  2  0  0  0
 18102  1  0  0  0
 19 20  1  0  0  0
 19 24  1  0  0  0
 20 21  2  0  0  0
 20103  1  0  0  0
 21 23  1  0  0  0
 22 28  1  0  0  0
 22 32  2  0  0  0
 26 27  1  0  0  0
 28104  1  0  0  0
 28105  1  0  0  0
 29106  1  0  0  0
 29107  1  0  0  0
 33 34  1  0  0  0
 33 66  1  0  0  0
 33 70  2  0  0  0
 34 36  1  0  0  0
 34 59  1  0  0  0
 34108  1  0  0  0
 35 44  2  0  0  0
 35 45  1  0  0  0
 35 68  1  0  0  0
 36 56  1  0  0  0
 36109  1  0  0  0
 37 39  1  0  0  0
 37 47  1  0  0  0
 37 66  1  0  0  0
 37110  1  0  0  0
 38 43  2  0  0  0
 38 46  1  0  0  0
 38 47  1  0  0  0
 39 64  1  0  0  0
 39 67  2  0  0  0
 40 52  1  0  0  0
 40 53  2  0  0  0
 40 58  1  0  0  0
 41111  1  0  0  0
 41112  1  0  0  0
 41113  1  0  0  0
 41 48  1  0  0  0
 42 43  1  0  0  0
 42 66  1  0  0  0
 42114  1  0  0  0
 42115  1  0  0  0
 43 44  1  0  0  0
 44116  1  0  0  0
 45 46  2  0  0  0
 45117  1  0  0  0
 46118  1  0  0  0
 47119  1  0  0  0
 47120  1  0  0  0
 48 56  1  0  0  0
 48 65  1  0  0  0
 48121  1  0  0  0
 49 50  1  0  0  0
 49 53  1  0  0  0
 49 64  1  0  0  0
 49122  1  0  0  0
 50 51  1  0  0  0
 50123  1  0  0  0
 50124  1  0  0  0
 51 52  1  0  0  0
 51125  1  0  0  0
 51126  1  0  0  0
 52127  1  0  0  0
 52128  1  0  0  0
 53 54  1  0  0  0
 54 55  2  0  0  0
 54129  1  0  0  0
 55 57  1  0  0  0
 55130  1  0  0  0
 56 69  2  0  0  0
 57 58  2  0  0  0
 57131  1  0  0  0
 58132  1  0  0  0
 59 60  1  0  0  0
 59 61  1  0  0  0
 59 62  1  0  0  0
 60133  1  0  0  0
 60134  1  0  0  0
 60135  1  0  0  0
 61136  1  0  0  0
 61137  1  0  0  0
 61138  1  0  0  0
 62139  1  0  0  0
 62140  1  0  0  0
 62141  1  0  0  0
 63 65  1  0  0  0
 63142  1  0  0  0
 63143  1  0  0  0
 63144  1  0  0  0
 64145  1  0  0  0
 65146  1  0  0  0
 68 83  1  0  0  0
 71 72  2  0  0  0
 71 73  1  0  0  0
 71147  1  0  0  0
 72 75  1  0  0  0
 72148  1  0  0  0
 73 76  2  0  0  0
 73149  1  0  0  0
 74 75  2  0  0  0
 74 76  1  0  0  0
 74150  1  0  0  0
 75 80  1  0  0  0
 76 84  1  0  0  0
 77 78  2  0  0  0
 77 79  1  0  0  0
 77 82  1  0  0  0
 78 81  1  0  0  0
 78 83  1  0  0  0
 79 84  1  0  0  0
 79 87  2  0  0  0
 80 85  1  0  0  0
 80 86  2  0  0  0
 81 84  1  0  0  0
 81151  1  0  0  0
 81152  1  0  0  0
 82153  1  0  0  0
 82154  1  0  0  0
 82155  1  0  0  0
 83156  1  0  0  0
 83157  1  0  0  0
 85158  1  0  0  0
 86159  1  0  0  0
 86160  1  0  0  0
M  CHG  1  86   1
M  ISO  4   1 100  68 101  83 101  85 100
M  END
> <chiral flag>
0

> <version>
0

> <s_m_source_file>
/data/baiqing/PycharmProjects/Reinvent-master-3.2/result/LINK_invent/BTK/process_docking_weight1_custom_product_contain_oxygen_bond_distance_aromatic_linkinvent_7_9_3/rearranged_h_0077.sdf

> <i_m_source_file_index>
47

> <r_mmod_Potential_Energy-OPLS-2005>
18808.287109375

> <r_mmod_Stretch_Energy-OPLS-2005>
8242.060546875

> <r_mmod_Bend_Energy-OPLS-2005>
2069.41137695312

> <r_mmod_Torsional_Energy-OPLS-2005>
722.822387695312

> <r_mmod_Improper_Torsional_Energy-OPLS-2005>
125.396621704102

> <r_mmod_Van_der_Waal_Energy-OPLS-2005>
2607.05737304688

> <r_mmod_Electrostatic_Energy-OPLS-2005>
-335.677154541016

> <r_mmod_Solvation_Energy-OPLS-2005>
-491.431457519531

> <b_mmod_Minimization_Converged-OPLS-2005>
0

> <r_mmod_RMS_Derivative-OPLS-2005>
19.8796215057373

$$$$
47
                    3D
 Structure written by MMmdl.
157166  0  0  1  0            999 V2000
  -30.5154  -14.7125   20.4840 C   0  0  0  0  0  0
  -30.4622  -12.4317   19.4614 C   0  0  0  0  0  0
  -29.5259  -12.5154   18.2321 C   0  0  0  0  0  0
  -28.0446  -12.3385   18.6280 C   0  0  0  0  0  0
  -27.6517  -13.2089   19.8531 C   0  0  2  0  0  0
  -28.6907  -13.0369   20.9839 C   0  0  0  0  0  0
  -25.2565  -13.8187   20.5667 C   0  0  0  0  0  0
  -24.1802  -13.0475   20.9174 C   0  0  0  0  0  0
  -24.6349  -11.6929   20.8678 C   0  0  0  0  0  0
  -23.9024  -10.4307   21.0383 C   0  0  0  0  0  0
  -24.3584   -9.4221   21.9144 C   0  0  0  0  0  0
  -23.6296   -8.2251   22.0701 C   0  0  0  0  0  0
  -22.4271   -8.0278   21.3517 C   0  0  0  0  0  0
  -21.9895   -9.0249   20.4613 C   0  0  0  0  0  0
  -22.7208  -10.2141   20.3028 C   0  0  0  0  0  0
  -21.6838   -6.0714   22.5270 C   0  0  0  0  0  0
  -21.4012   -6.5622   23.8214 C   0  0  0  0  0  0
  -21.3676   -5.6770   24.9171 C   0  0  0  0  0  0
  -21.6071   -4.3039   24.7235 C   0  0  0  0  0  0
  -21.8841   -3.8136   23.4349 C   0  0  0  0  0  0
  -21.9177   -4.6948   22.3399 C   0  0  0  0  0  0
  -22.7805  -13.5265   21.1816 C   0  0  0  0  0  0
  -22.1656   -4.2153   21.0981 F   0  0  0  0  0  0
  -21.5620   -3.4501   25.7741 F   0  0  0  0  0  0
  -30.0007  -13.4371   20.4402 N   0  0  0  0  0  0
  -26.2943  -12.9332   20.3181 N   0  0  0  0  0  0
  -25.9269  -11.6484   20.5636 N   0  0  0  0  0  0
  -22.0410  -12.8299   22.0386 N   0  0  0  0  0  0
  -25.4363  -15.1906   20.4107 N   0  0  0  0  0  0
  -31.6681  -14.9494   20.0950 O   0  0  0  0  0  0
  -21.6657   -6.8850   21.4222 O   0  0  0  0  0  0
  -22.3472  -14.5520   20.6578 O   0  0  0  0  0  0
  -24.6212  -31.8685   23.2147 C   0  0  0  0  0  0
  -25.9068  -32.4851   23.8463 C   0  0  1  0  0  0
  -27.2255  -27.3442   20.1296 C   0  0  0  0  0  0
  -25.5886  -33.8641   24.2366 N   0  0  0  0  0  0
  -23.4159  -30.5004   21.5504 C   0  0  2  0  0  0
  -24.8653  -28.9643   20.1098 C   0  0  0  0  0  0
  -22.7458  -29.4687   22.4915 C   0  0  0  0  0  0
  -18.0283  -28.1386   22.8482 C   0  0  0  0  0  0
  -24.1467  -36.7335   23.2644 C   0  0  0  0  0  0
  -25.9503  -30.8150   21.3809 C   0  0  0  0  0  0
  -26.0273  -29.4398   20.7283 C   0  0  0  0  0  0
  -27.2017  -28.6319   20.7481 C   0  0  0  0  0  0
  -26.0559  -26.9391   19.4616 C   0  0  0  0  0  0
  -24.8778  -27.7127   19.4720 C   0  0  0  0  0  0
  -23.6367  -29.8504   20.1582 C   0  0  0  0  0  0
  -25.4083  -36.3124   24.0350 C   0  0  1  0  0  0
  -20.5882  -28.3703   23.1246 C   0  0  2  0  0  0
  -20.6772  -26.9428   22.5384 C   0  0  0  0  0  0
  -19.5738  -26.6380   21.5188 C   0  0  0  0  0  0
  -18.1925  -26.7935   22.1610 C   0  0  0  0  0  0
  -19.1538  -28.8845   23.2883 C   0  0  0  0  0  0
  -18.9466  -30.1443   23.8927 C   0  0  0  0  0  0
  -17.6462  -30.6604   24.0553 C   0  0  0  0  0  0
  -25.9017  -34.9498   23.5148 C   0  0  0  0  0  0
  -16.5353  -29.9114   23.6298 C   0  0  0  0  0  0
  -16.7262  -28.6506   23.0357 C   0  0  0  0  0  0
  -26.4453  -31.6640   25.0824 C   0  0  0  0  0  0
  -25.3701  -31.3769   26.1563 C   0  0  0  0  0  0
  -27.0272  -30.3067   24.6249 C   0  0  0  0  0  0
  -27.6021  -32.4370   25.7571 C   0  0  0  0  0  0
  -27.5573  -37.1816   24.8446 C   0  0  0  0  0  0
  -21.4164  -29.3089   22.3638 N   0  0  0  0  0  0
  -26.4264  -37.3814   23.9431 N   0  0  0  0  0  0
  -24.6790  -31.0792   22.1065 N   0  0  0  0  0  0
  -23.4188  -28.8215   23.2973 O   0  0  0  0  0  0
  -28.3416  -26.5026   20.2388 O   0  0  0  0  0  0
  -26.5588  -34.8945   22.4717 O   0  0  0  0  0  0
  -23.5378  -32.1412   23.7527 O   0  0  0  0  0  0
  -29.8012  -19.4440   19.8271 C   0  0  0  0  0  0
  -28.0831  -19.1149   21.4441 C   0  0  0  0  0  0
  -30.1283  -18.0379   19.8939 C   0  0  0  0  0  0
  -28.3851  -17.7255   21.4939 C   0  0  0  0  0  0
  -28.7894  -20.0611   20.6349 C   0  0  0  0  0  0
  -29.4339  -17.1319   20.7469 C   0  0  0  0  0  0
  -27.6655  -22.1553   21.5411 C   0  0  0  0  0  0
  -28.7830  -22.4848   19.6899 C   0  0  0  0  0  0
  -27.3285  -23.6071   21.1675 C   0  0  0  0  0  0
  -27.8849  -23.7877   19.7549 C   0  0  2  0  0  0
  -26.8227  -23.4689   18.6595 C   0  0  0  0  0  0
  -28.5669  -25.2355   19.4898 C   0  0  0  0  0  0
  -28.4500  -21.5321   20.6211 N   0  0  0  0  0  0
  -29.6172  -15.6736   20.8834 N   0  0  0  0  0  0
  -27.2444  -21.6936   22.6071 O   0  0  0  0  0  0
  -29.6514  -22.3672   18.8185 O   0  0  0  0  0  0
  -31.4938  -12.6154   19.1531 H   0  0  0  0  0  0
  -30.4574  -11.4330   19.8974 H   0  0  0  0  0  0
  -29.8187  -11.7687   17.4892 H   0  0  0  0  0  0
  -29.6451  -13.4901   17.7609 H   0  0  0  0  0  0
  -27.8770  -11.2846   18.8522 H   0  0  0  0  0  0
  -27.4067  -12.5736   17.7719 H   0  0  0  0  0  0
  -27.6764  -14.2460   19.5134 H   0  0  0  0  0  0
  -28.7198  -12.0018   21.3309 H   0  0  0  0  0  0
  -28.4049  -13.6132   21.8623 H   0  0  0  0  0  0
  -25.2714   -9.5763   22.4696 H   0  0  0  0  0  0
  -24.0033   -7.4659   22.7414 H   0  0  0  0  0  0
  -21.0818   -8.8736   19.8933 H   0  0  0  0  0  0
  -22.3610  -10.9654   19.6125 H   0  0  0  0  0  0
  -21.2010   -7.6135   23.9760 H   0  0  0  0  0  0
  -21.1460   -6.0447   25.9072 H   0  0  0  0  0  0
  -22.0600   -2.7585   23.2832 H   0  0  0  0  0  0
  -22.3987  -12.0043   22.4964 H   0  0  0  0  0  0
  -21.0993  -13.1300   22.2421 H   0  0  0  0  0  0
  -24.6777  -15.8515   20.5374 H   0  0  0  0  0  0
  -26.2823  -15.6236   20.0650 H   0  0  0  0  0  0
  -26.7165  -32.5585   23.1247 H   0  0  0  0  0  0
  -24.9981  -33.9782   25.0463 H   0  0  0  0  0  0
  -22.7059  -31.3214   21.4147 H   0  0  0  0  0  0
  -23.3741  -35.9649   23.3264 H   0  0  0  0  0  0
  -24.3566  -36.8997   22.2069 H   0  0  0  0  0  0
  -23.7194  -37.6514   23.6686 H   0  0  0  0  0  0
  -26.0751  -31.5793   20.6112 H   0  0  0  0  0  0
  -26.8306  -30.8685   22.0081 H   0  0  0  0  0  0
  -28.0779  -28.9929   21.2713 H   0  0  0  0  0  0
  -26.0455  -26.0134   18.9348 H   0  0  0  0  0  0
  -23.9916  -27.3392   18.9761 H   0  0  0  0  0  0
  -23.7725  -30.6382   19.4137 H   0  0  0  0  0  0
  -22.7517  -29.2988   19.8443 H   0  0  0  0  0  0
  -25.1247  -36.1980   25.0838 H   0  0  0  0  0  0
  -21.0030  -28.3321   24.1340 H   0  0  0  0  0  0
  -20.5634  -26.2348   23.3617 H   0  0  0  0  0  0
  -21.6654  -26.7452   22.1220 H   0  0  0  0  0  0
  -19.6917  -25.6279   21.1250 H   0  0  0  0  0  0
  -19.6699  -27.3158   20.6702 H   0  0  0  0  0  0
  -17.4218  -26.6679   21.4013 H   0  0  0  0  0  0
  -18.0345  -26.0076   22.9000 H   0  0  0  0  0  0
  -19.7951  -30.7215   24.2379 H   0  0  0  0  0  0
  -17.5038  -31.6292   24.5141 H   0  0  0  0  0  0
  -15.5366  -30.3040   23.7589 H   0  0  0  0  0  0
  -15.8658  -28.0827   22.7092 H   0  0  0  0  0  0
  -24.5835  -30.7157   25.7907 H   0  0  0  0  0  0
  -24.8945  -32.2942   26.5055 H   0  0  0  0  0  0
  -25.8031  -30.8897   27.0308 H   0  0  0  0  0  0
  -26.2843  -29.6872   24.1221 H   0  0  0  0  0  0
  -27.3885  -29.7276   25.4755 H   0  0  0  0  0  0
  -27.8748  -30.4343   23.9514 H   0  0  0  0  0  0
  -27.2623  -33.3636   26.2195 H   0  0  0  0  0  0
  -28.3794  -32.6990   25.0391 H   0  0  0  0  0  0
  -28.0733  -31.8495   26.5447 H   0  0  0  0  0  0
  -28.2556  -38.0151   24.7540 H   0  0  0  0  0  0
  -28.1095  -36.2681   24.6175 H   0  0  0  0  0  0
  -27.2319  -37.1385   25.8856 H   0  0  0  0  0  0
  -20.9309  -29.8859   21.6908 H   0  0  0  0  0  0
  -26.0152  -38.2877   24.1473 H   0  0  0  0  0  0
  -30.3362  -20.0430   19.1085 H   0  0  0  0  0  0
  -27.2478  -19.4094   22.0582 H   0  0  0  0  0  0
  -30.9023  -17.6656   19.2419 H   0  0  0  0  0  0
  -27.7629  -17.1076   22.1271 H   0  0  0  0  0  0
  -27.7911  -24.2895   21.8844 H   0  0  0  0  0  0
  -26.2496  -23.7598   21.1926 H   0  0  0  0  0  0
  -26.5124  -22.4192   18.6855 H   0  0  0  0  0  0
  -27.2349  -23.6411   17.6636 H   0  0  0  0  0  0
  -25.8967  -24.0300   18.7464 H   0  0  0  0  0  0
  -28.4618  -25.4921   18.4341 H   0  0  0  0  0  0
  -29.6407  -25.0912   19.6239 H   0  0  0  0  0  0
  -28.8207  -15.2307   21.3109 H   0  0  0  0  0  0
  1 25  1  0  0  0
  1 30  2  0  0  0
  1 84  1  0  0  0
  2  3  1  0  0  0
  2 25  1  0  0  0
  2 87  1  0  0  0
  2 88  1  0  0  0
  3  4  1  0  0  0
  3 89  1  0  0  0
  3 90  1  0  0  0
  4  5  1  0  0  0
  4 91  1  0  0  0
  4 92  1  0  0  0
  5  6  1  0  0  0
  5 26  1  0  0  0
  5 93  1  0  0  0
  6 25  1  0  0  0
  6 94  1  0  0  0
  6 95  1  0  0  0
  7  8  2  0  0  0
  7 26  1  0  0  0
  7 29  1  0  0  0
  8  9  1  0  0  0
  8 22  1  0  0  0
  9 10  1  0  0  0
  9 27  2  0  0  0
 10 11  2  0  0  0
 10 15  1  0  0  0
 11 12  1  0  0  0
 11 96  1  0  0  0
 12 13  2  0  0  0
 12 97  1  0  0  0
 13 14  1  0  0  0
 13 31  1  0  0  0
 14 15  2  0  0  0
 14 98  1  0  0  0
 15 99  1  0  0  0
 16 17  2  0  0  0
 16 21  1  0  0  0
 16 31  1  0  0  0
 17 18  1  0  0  0
 17100  1  0  0  0
 18 19  2  0  0  0
 18101  1  0  0  0
 19 20  1  0  0  0
 19 24  1  0  0  0
 20 21  2  0  0  0
 20102  1  0  0  0
 21 23  1  0  0  0
 22 28  1  0  0  0
 22 32  2  0  0  0
 26 27  1  0  0  0
 28103  1  0  0  0
 28104  1  0  0  0
 29105  1  0  0  0
 29106  1  0  0  0
 33 34  1  0  0  0
 33 66  1  0  0  0
 33 70  2  0  0  0
 34 36  1  0  0  0
 34 59  1  0  0  0
 34107  1  0  0  0
 35 44  2  0  0  0
 35 45  1  0  0  0
 35 68  1  0  0  0
 36 56  1  0  0  0
 36108  1  0  0  0
 37 39  1  0  0  0
 37 47  1  0  0  0
 37 66  1  0  0  0
 37109  1  0  0  0
 38 43  2  0  0  0
 38 46  1  0  0  0
 38 47  1  0  0  0
 39 64  1  0  0  0
 39 67  2  0  0  0
 40 52  1  0  0  0
 40 53  2  0  0  0
 40 58  1  0  0  0
 41110  1  0  0  0
 41111  1  0  0  0
 41112  1  0  0  0
 41 48  1  0  0  0
 42 43  1  0  0  0
 42 66  1  0  0  0
 42113  1  0  0  0
 42114  1  0  0  0
 43 44  1  0  0  0
 44115  1  0  0  0
 45 46  2  0  0  0
 45116  1  0  0  0
 46117  1  0  0  0
 47118  1  0  0  0
 47119  1  0  0  0
 48 56  1  0  0  0
 48 65  1  0  0  0
 48120  1  0  0  0
 49 50  1  0  0  0
 49 53  1  0  0  0
 49 64  1  0  0  0
 49121  1  0  0  0
 50 51  1  0  0  0
 50122  1  0  0  0
 50123  1  0  0  0
 51 52  1  0  0  0
 51124  1  0  0  0
 51125  1  0  0  0
 52126  1  0  0  0
 52127  1  0  0  0
 53 54  1  0  0  0
 54 55  2  0  0  0
 54128  1  0  0  0
 55 57  1  0  0  0
 55129  1  0  0  0
 56 69  2  0  0  0
 57 58  2  0  0  0
 57130  1  0  0  0
 58131  1  0  0  0
 59 60  1  0  0  0
 59 61  1  0  0  0
 59 62  1  0  0  0
 60132  1  0  0  0
 60133  1  0  0  0
 60134  1  0  0  0
 61135  1  0  0  0
 61136  1  0  0  0
 61137  1  0  0  0
 62138  1  0  0  0
 62139  1  0  0  0
 62140  1  0  0  0
 63 65  1  0  0  0
 63141  1  0  0  0
 63142  1  0  0  0
 63143  1  0  0  0
 64144  1  0  0  0
 65145  1  0  0  0
 68 82  1  0  0  0
 71 73  2  0  0  0
 71 75  1  0  0  0
 71146  1  0  0  0
 72 74  1  0  0  0
 72 75  2  0  0  0
 72147  1  0  0  0
 73 76  1  0  0  0
 73148  1  0  0  0
 74 76  2  0  0  0
 74149  1  0  0  0
 75 83  1  0  0  0
 76 84  1  0  0  0
 77 79  1  0  0  0
 77 83  1  0  0  0
 77 85  2  0  0  0
 78 80  1  0  0  0
 78 83  1  0  0  0
 78 86  2  0  0  0
 79 80  1  0  0  0
 79150  1  0  0  0
 79151  1  0  0  0
 80 81  1  0  0  0
 80 82  1  0  0  0
 81152  1  0  0  0
 81153  1  0  0  0
 81154  1  0  0  0
 82155  1  0  0  0
 82156  1  0  0  0
 84157  1  0  0  0
M  ISO  4   1 100  68 101  82 101  84 100
M  END
> <chiral flag>
0

> <version>
0

> <s_m_source_file>
/data/baiqing/PycharmProjects/Reinvent-master-3.2/result/LINK_invent/BTK/process_docking_weight1_custom_product_contain_oxygen_bond_distance_aromatic_linkinvent_7_9_3/rearranged_h_0077.sdf

> <i_m_source_file_index>
48

> <r_mmod_Potential_Energy-OPLS-2005>
216.818984985352

> <r_mmod_Stretch_Energy-OPLS-2005>
106.009475708008

> <r_mmod_Bend_Energy-OPLS-2005>
245.327682495117

> <r_mmod_Torsional_Energy-OPLS-2005>
259.377807617188

> <r_mmod_Improper_Torsional_Energy-OPLS-2005>
3.90322971343994

> <r_mmod_Van_der_Waal_Energy-OPLS-2005>
149.434478759766

> <r_mmod_Electrostatic_Energy-OPLS-2005>
-383.366729736328

> <r_mmod_Solvation_Energy-OPLS-2005>
-230.381118774414

> <b_mmod_Minimization_Converged-OPLS-2005>
0

> <r_mmod_RMS_Derivative-OPLS-2005>
8.03076076507568

$$$$
48
                    3D
 Structure written by MMmdl.
160169  0  0  1  0            999 V2000
  -30.5903  -14.7218   20.3452 C   0  0  0  0  0  0
  -30.4373  -12.3938   19.4814 C   0  0  0  0  0  0
  -29.5050  -12.3234   18.2486 C   0  0  0  0  0  0
  -28.0177  -12.2788   18.6525 C   0  0  0  0  0  0
  -27.6360  -13.2119   19.8347 C   0  0  2  0  0  0
  -28.6850  -13.1765   20.9619 C   0  0  0  0  0  0
  -25.2542  -13.8164   20.5705 C   0  0  0  0  0  0
  -24.1814  -13.0421   20.9250 C   0  0  0  0  0  0
  -24.6374  -11.6898   20.8797 C   0  0  0  0  0  0
  -23.9041  -10.4265   21.0441 C   0  0  0  0  0  0
  -24.3581   -9.4158   21.9200 C   0  0  0  0  0  0
  -23.6239   -8.2209   22.0753 C   0  0  0  0  0  0
  -22.4227   -8.0258   21.3525 C   0  0  0  0  0  0
  -21.9888   -9.0228   20.4633 C   0  0  0  0  0  0
  -22.7235  -10.2109   20.3062 C   0  0  0  0  0  0
  -21.6830   -6.0719   22.5268 C   0  0  0  0  0  0
  -21.4019   -6.5633   23.8205 C   0  0  0  0  0  0
  -21.3633   -5.6789   24.9174 C   0  0  0  0  0  0
  -21.6033   -4.3063   24.7230 C   0  0  0  0  0  0
  -21.8821   -3.8141   23.4371 C   0  0  0  0  0  0
  -21.9188   -4.6946   22.3413 C   0  0  0  0  0  0
  -22.7845  -13.5233   21.1887 C   0  0  0  0  0  0
  -22.1640   -4.2112   21.0993 F   0  0  0  0  0  0
  -21.5620   -3.4568   25.7746 F   0  0  0  0  0  0
  -29.9775  -13.4940   20.3486 N   0  0  0  0  0  0
  -26.2924  -12.9335   20.3293 N   0  0  0  0  0  0
  -25.9300  -11.6509   20.5868 N   0  0  0  0  0  0
  -22.0478  -12.8195   22.0438 N   0  0  0  0  0  0
  -25.4265  -15.1853   20.4011 N   0  0  0  0  0  0
  -31.8221  -14.7983   20.2871 O   0  0  0  0  0  0
  -21.6606   -6.8838   21.4211 O   0  0  0  0  0  0
  -22.3549  -14.5536   20.6724 O   0  0  0  0  0  0
  -24.6284  -31.8584   23.2008 C   0  0  0  0  0  0
  -25.9168  -32.4759   23.8331 C   0  0  1  0  0  0
  -27.2140  -27.3002   20.1526 C   0  0  0  0  0  0
  -25.6014  -33.8564   24.2297 N   0  0  0  0  0  0
  -23.4185  -30.4830   21.5409 C   0  0  2  0  0  0
  -24.8643  -28.9240   20.1195 C   0  0  0  0  0  0
  -22.7478  -29.4609   22.4901 C   0  0  0  0  0  0
  -18.0292  -28.1375   22.8514 C   0  0  0  0  0  0
  -24.1471  -36.7240   23.2627 C   0  0  0  0  0  0
  -25.9586  -30.7873   21.3673 C   0  0  0  0  0  0
  -26.0322  -29.4073   20.7238 C   0  0  0  0  0  0
  -27.2135  -28.6078   20.7254 C   0  0  0  0  0  0
  -26.0246  -26.8596   19.5366 C   0  0  0  0  0  0
  -24.8609  -27.6561   19.5164 C   0  0  0  0  0  0
  -23.6362  -29.8139   20.1566 C   0  0  0  0  0  0
  -25.4110  -36.3072   24.0341 C   0  0  1  0  0  0
  -20.5892  -28.3676   23.1290 C   0  0  2  0  0  0
  -20.6771  -26.9386   22.5421 C   0  0  0  0  0  0
  -19.5746  -26.6383   21.5222 C   0  0  0  0  0  0
  -18.1932  -26.7924   22.1633 C   0  0  0  0  0  0
  -19.1537  -28.8856   23.2894 C   0  0  0  0  0  0
  -18.9462  -30.1467   23.8901 C   0  0  0  0  0  0
  -17.6460  -30.6581   24.0573 C   0  0  0  0  0  0
  -25.9073  -34.9454   23.5107 C   0  0  0  0  0  0
  -16.5359  -29.9084   23.6329 C   0  0  0  0  0  0
  -16.7279  -28.6496   23.0364 C   0  0  0  0  0  0
  -26.4548  -31.6532   25.0691 C   0  0  0  0  0  0
  -25.3786  -31.3663   26.1419 C   0  0  0  0  0  0
  -27.0358  -30.2969   24.6089 C   0  0  0  0  0  0
  -27.6149  -32.4185   25.7478 C   0  0  0  0  0  0
  -27.5568  -37.1775   24.8477 C   0  0  0  0  0  0
  -21.4190  -29.3020   22.3670 N   0  0  0  0  0  0
  -26.4274  -37.3794   23.9433 N   0  0  0  0  0  0
  -24.6863  -31.0609   22.0932 N   0  0  0  0  0  0
  -23.4230  -28.8170   23.2981 O   0  0  0  0  0  0
  -28.3483  -26.4793   20.1257 O   0  0  0  0  0  0
  -26.5588  -34.8934   22.4643 O   0  0  0  0  0  0
  -23.5461  -32.1395   23.7350 O   0  0  0  0  0  0
  -29.7365  -19.3155   21.2239 C   0  0  0  0  0  0
  -30.1004  -17.9288   21.0670 C   0  0  0  0  0  0
  -28.4016  -17.7090   19.3932 C   0  0  0  0  0  0
  -28.7028  -19.9382   20.4523 C   0  0  0  0  0  0
  -29.4510  -17.0803   20.1225 C   0  0  0  0  0  0
  -28.0539  -19.0770   19.5255 C   0  0  0  0  0  0
  -26.9574  -21.6876   20.6479 C   0  0  0  0  0  0
  -28.9782  -22.4954   20.3823 C   0  0  0  0  0  0
  -26.7051  -23.1700   20.3571 C   0  0  0  0  0  0
  -28.0948  -23.7685   20.0373 C   0  0  2  0  0  0
  -28.2987  -23.9958   18.5201 C   0  0  0  0  0  0
  -29.9254  -15.6163   18.2321 C   0  0  0  0  0  0
  -28.3537  -25.1598   20.8117 C   0  0  0  0  0  0
  -28.2572  -21.3506   20.5664 N   0  0  0  0  0  0
  -29.8566  -15.7163   19.7067 N   0  0  0  0  0  0
  -26.0365  -20.9331   20.9849 O   0  0  0  0  0  0
  -30.2108  -22.5558   20.4475 O   0  0  0  0  0  0
  -27.0969  -19.5680   18.7010 F   0  0  0  0  0  0
  -31.4725  -12.5304   19.1637 H   0  0  0  0  0  0
  -30.4098  -11.4558   20.0387 H   0  0  0  0  0  0
  -29.7473  -11.4214   17.6864 H   0  0  0  0  0  0
  -29.6810  -13.1273   17.5429 H   0  0  0  0  0  0
  -27.8163  -11.2455   18.9353 H   0  0  0  0  0  0
  -27.3836  -12.4833   17.7893 H   0  0  0  0  0  0
  -27.6180  -14.2224   19.4322 H   0  0  0  0  0  0
  -28.7134  -12.1981   21.4415 H   0  0  0  0  0  0
  -28.4333  -13.9051   21.7349 H   0  0  0  0  0  0
  -25.2698   -9.5618   22.4797 H   0  0  0  0  0  0
  -23.9923   -7.4581   22.7455 H   0  0  0  0  0  0
  -21.0838   -8.8744   19.8879 H   0  0  0  0  0  0
  -22.3691  -10.9649   19.6168 H   0  0  0  0  0  0
  -21.2017   -7.6142   23.9704 H   0  0  0  0  0  0
  -21.1451   -6.0529   25.9067 H   0  0  0  0  0  0
  -22.0628   -2.7604   23.2894 H   0  0  0  0  0  0
  -22.4102  -11.9843   22.4800 H   0  0  0  0  0  0
  -21.1122  -13.1225   22.2710 H   0  0  0  0  0  0
  -24.6576  -15.8410   20.4820 H   0  0  0  0  0  0
  -26.2783  -15.6102   20.0580 H   0  0  0  0  0  0
  -26.7256  -32.5451   23.1096 H   0  0  0  0  0  0
  -25.0344  -33.9702   25.0575 H   0  0  0  0  0  0
  -22.7105  -31.3045   21.4003 H   0  0  0  0  0  0
  -23.3778  -35.9529   23.3292 H   0  0  0  0  0  0
  -24.3536  -36.8848   22.2031 H   0  0  0  0  0  0
  -23.7189  -37.6441   23.6616 H   0  0  0  0  0  0
  -26.0809  -31.5393   20.5851 H   0  0  0  0  0  0
  -26.8443  -30.8505   21.9888 H   0  0  0  0  0  0
  -28.1144  -28.9744   21.1934 H   0  0  0  0  0  0
  -25.9860  -25.8878   19.0701 H   0  0  0  0  0  0
  -23.9624  -27.2836   19.0438 H   0  0  0  0  0  0
  -23.7677  -30.5917   19.4012 H   0  0  0  0  0  0
  -22.7545  -29.2539   19.8447 H   0  0  0  0  0  0
  -25.1279  -36.1907   25.0833 H   0  0  0  0  0  0
  -21.0014  -28.3249   24.1400 H   0  0  0  0  0  0
  -20.5687  -26.2272   23.3611 H   0  0  0  0  0  0
  -21.6642  -26.7404   22.1211 H   0  0  0  0  0  0
  -19.6874  -25.6307   21.1212 H   0  0  0  0  0  0
  -19.6678  -27.3230   20.6770 H   0  0  0  0  0  0
  -17.4202  -26.6729   21.4001 H   0  0  0  0  0  0
  -18.0298  -26.0015   22.8986 H   0  0  0  0  0  0
  -19.7940  -30.7299   24.2225 H   0  0  0  0  0  0
  -17.5013  -31.6252   24.5193 H   0  0  0  0  0  0
  -15.5358  -30.3010   23.7616 H   0  0  0  0  0  0
  -15.8676  -28.0829   22.7061 H   0  0  0  0  0  0
  -24.6081  -30.6844   25.7769 H   0  0  0  0  0  0
  -24.8845  -32.2814   26.4689 H   0  0  0  0  0  0
  -25.8165  -30.9007   27.0274 H   0  0  0  0  0  0
  -26.2900  -29.6757   24.1106 H   0  0  0  0  0  0
  -27.4086  -29.7156   25.4538 H   0  0  0  0  0  0
  -27.8776  -30.4257   23.9283 H   0  0  0  0  0  0
  -27.2879  -33.3585   26.1939 H   0  0  0  0  0  0
  -28.4096  -32.6521   25.0370 H   0  0  0  0  0  0
  -28.0673  -31.8327   26.5501 H   0  0  0  0  0  0
  -28.2600  -38.0054   24.7561 H   0  0  0  0  0  0
  -28.1041  -36.2597   24.6270 H   0  0  0  0  0  0
  -27.2275  -37.1421   25.8875 H   0  0  0  0  0  0
  -20.9360  -29.8719   21.6875 H   0  0  0  0  0  0
  -26.0140  -38.2855   24.1504 H   0  0  0  0  0  0
  -30.2809  -19.9047   21.9475 H   0  0  0  0  0  0
  -30.9207  -17.5351   21.6493 H   0  0  0  0  0  0
  -27.8604  -17.1508   18.6446 H   0  0  0  0  0  0
  -26.2405  -23.6160   21.2363 H   0  0  0  0  0  0
  -26.0045  -23.2650   19.5284 H   0  0  0  0  0  0
  -27.9882  -23.1294   17.9337 H   0  0  0  0  0  0
  -29.3497  -24.1862   18.2909 H   0  0  0  0  0  0
  -27.7333  -24.8471   18.1485 H   0  0  0  0  0  0
  -28.9755  -15.2703   17.8253 H   0  0  0  0  0  0
  -30.7162  -14.9574   17.8680 H   0  0  0  0  0  0
  -30.1422  -16.5809   17.7719 H   0  0  0  0  0  0
  -29.3450  -25.0971   21.2614 H   0  0  0  0  0  0
  -27.6892  -25.2312   21.6741 H   0  0  0  0  0  0
  1 25  1  0  0  0
  1 30  2  0  0  0
  1 85  1  0  0  0
  2  3  1  0  0  0
  2 25  1  0  0  0
  2 89  1  0  0  0
  2 90  1  0  0  0
  3  4  1  0  0  0
  3 91  1  0  0  0
  3 92  1  0  0  0
  4  5  1  0  0  0
  4 93  1  0  0  0
  4 94  1  0  0  0
  5  6  1  0  0  0
  5 26  1  0  0  0
  5 95  1  0  0  0
  6 25  1  0  0  0
  6 96  1  0  0  0
  6 97  1  0  0  0
  7  8  2  0  0  0
  7 26  1  0  0  0
  7 29  1  0  0  0
  8  9  1  0  0  0
  8 22  1  0  0  0
  9 10  1  0  0  0
  9 27  2  0  0  0
 10 11  2  0  0  0
 10 15  1  0  0  0
 11 12  1  0  0  0
 11 98  1  0  0  0
 12 13  2  0  0  0
 12 99  1  0  0  0
 13 14  1  0  0  0
 13 31  1  0  0  0
 14 15  2  0  0  0
 14100  1  0  0  0
 15101  1  0  0  0
 16 17  2  0  0  0
 16 21  1  0  0  0
 16 31  1  0  0  0
 17 18  1  0  0  0
 17102  1  0  0  0
 18 19  2  0  0  0
 18103  1  0  0  0
 19 20  1  0  0  0
 19 24  1  0  0  0
 20 21  2  0  0  0
 20104  1  0  0  0
 21 23  1  0  0  0
 22 28  1  0  0  0
 22 32  2  0  0  0
 26 27  1  0  0  0
 28105  1  0  0  0
 28106  1  0  0  0
 29107  1  0  0  0
 29108  1  0  0  0
 33 34  1  0  0  0
 33 66  1  0  0  0
 33 70  2  0  0  0
 34 36  1  0  0  0
 34 59  1  0  0  0
 34109  1  0  0  0
 35 44  2  0  0  0
 35 45  1  0  0  0
 35 68  1  0  0  0
 36 56  1  0  0  0
 36110  1  0  0  0
 37 39  1  0  0  0
 37 47  1  0  0  0
 37 66  1  0  0  0
 37111  1  0  0  0
 38 43  2  0  0  0
 38 46  1  0  0  0
 38 47  1  0  0  0
 39 64  1  0  0  0
 39 67  2  0  0  0
 40 52  1  0  0  0
 40 53  2  0  0  0
 40 58  1  0  0  0
 41112  1  0  0  0
 41113  1  0  0  0
 41114  1  0  0  0
 41 48  1  0  0  0
 42 43  1  0  0  0
 42 66  1  0  0  0
 42115  1  0  0  0
 42116  1  0  0  0
 43 44  1  0  0  0
 44117  1  0  0  0
 45 46  2  0  0  0
 45118  1  0  0  0
 46119  1  0  0  0
 47120  1  0  0  0
 47121  1  0  0  0
 48 56  1  0  0  0
 48 65  1  0  0  0
 48122  1  0  0  0
 49 50  1  0  0  0
 49 53  1  0  0  0
 49 64  1  0  0  0
 49123  1  0  0  0
 50 51  1  0  0  0
 50124  1  0  0  0
 50125  1  0  0  0
 51 52  1  0  0  0
 51126  1  0  0  0
 51127  1  0  0  0
 52128  1  0  0  0
 52129  1  0  0  0
 53 54  1  0  0  0
 54 55  2  0  0  0
 54130  1  0  0  0
 55 57  1  0  0  0
 55131  1  0  0  0
 56 69  2  0  0  0
 57 58  2  0  0  0
 57132  1  0  0  0
 58133  1  0  0  0
 59 60  1  0  0  0
 59 61  1  0  0  0
 59 62  1  0  0  0
 60134  1  0  0  0
 60135  1  0  0  0
 60136  1  0  0  0
 61137  1  0  0  0
 61138  1  0  0  0
 61139  1  0  0  0
 62140  1  0  0  0
 62141  1  0  0  0
 62142  1  0  0  0
 63 65  1  0  0  0
 63143  1  0  0  0
 63144  1  0  0  0
 63145  1  0  0  0
 64146  1  0  0  0
 65147  1  0  0  0
 68 83  1  0  0  0
 71 72  2  0  0  0
 71 74  1  0  0  0
 71148  1  0  0  0
 72 75  1  0  0  0
 72149  1  0  0  0
 73 75  2  0  0  0
 73 76  1  0  0  0
 73150  1  0  0  0
 74 76  2  0  0  0
 74 84  1  0  0  0
 75 85  1  0  0  0
 76 88  1  0  0  0
 77 79  1  0  0  0
 77 84  1  0  0  0
 77 86  2  0  0  0
 78 80  1  0  0  0
 78 84  1  0  0  0
 78 87  2  0  0  0
 79 80  1  0  0  0
 79151  1  0  0  0
 79152  1  0  0  0
 80 81  1  0  0  0
 80 83  1  0  0  0
 81153  1  0  0  0
 81154  1  0  0  0
 81155  1  0  0  0
 82 85  1  0  0  0
 82156  1  0  0  0
 82157  1  0  0  0
 82158  1  0  0  0
 83159  1  0  0  0
 83160  1  0  0  0
M  ISO  4   1 100  68 101  83 101  85 100
M  END
> <chiral flag>
0

> <version>
0

> <s_m_source_file>
/data/baiqing/PycharmProjects/Reinvent-master-3.2/result/LINK_invent/BTK/process_docking_weight1_custom_product_contain_oxygen_bond_distance_aromatic_linkinvent_7_9_3/rearranged_h_0077.sdf

> <i_m_source_file_index>
49

> <r_mmod_Potential_Energy-OPLS-2005>
382.858703613281

> <r_mmod_Stretch_Energy-OPLS-2005>
98.6783828735352

> <r_mmod_Bend_Energy-OPLS-2005>
200.839431762695

> <r_mmod_Torsional_Energy-OPLS-2005>
405.510040283203

> <r_mmod_Improper_Torsional_Energy-OPLS-2005>
29.8787841796875

> <r_mmod_Van_der_Waal_Energy-OPLS-2005>
144.679718017578

> <r_mmod_Electrostatic_Energy-OPLS-2005>
-365.557525634766

> <r_mmod_Solvation_Energy-OPLS-2005>
-215.020523071289

> <b_mmod_Minimization_Converged-OPLS-2005>
0

> <r_mmod_RMS_Derivative-OPLS-2005>
3.91533660888672

$$$$
49
                    3D
 Structure written by MMmdl.
158167  0  0  1  0            999 V2000
  -30.6419  -14.5968   20.4749 C   0  0  0  0  0  0
  -30.4266  -12.3667   19.4287 C   0  0  0  0  0  0
  -29.4863  -12.5067   18.2064 C   0  0  0  0  0  0
  -28.0169  -12.3400   18.6441 C   0  0  0  0  0  0
  -27.6584  -13.2138   19.8753 C   0  0  2  0  0  0
  -28.7116  -13.0561   21.0005 C   0  0  0  0  0  0
  -25.2594  -13.8213   20.5687 C   0  0  0  0  0  0
  -24.1841  -13.0468   20.9202 C   0  0  0  0  0  0
  -24.6431  -11.6935   20.8823 C   0  0  0  0  0  0
  -23.9120  -10.4314   21.0455 C   0  0  0  0  0  0
  -24.3640   -9.4216   21.9237 C   0  0  0  0  0  0
  -23.6294   -8.2263   22.0790 C   0  0  0  0  0  0
  -22.4301   -8.0318   21.3557 C   0  0  0  0  0  0
  -21.9935   -9.0313   20.4683 C   0  0  0  0  0  0
  -22.7295  -10.2178   20.3099 C   0  0  0  0  0  0
  -21.6885   -6.0744   22.5270 C   0  0  0  0  0  0
  -21.4032   -6.5635   23.8202 C   0  0  0  0  0  0
  -21.3650   -5.6785   24.9153 C   0  0  0  0  0  0
  -21.6037   -4.3047   24.7209 C   0  0  0  0  0  0
  -21.8842   -3.8146   23.4333 C   0  0  0  0  0  0
  -21.9203   -4.6961   22.3388 C   0  0  0  0  0  0
  -22.7868  -13.5242   21.1828 C   0  0  0  0  0  0
  -22.1679   -4.2134   21.0972 F   0  0  0  0  0  0
  -21.5612   -3.4545   25.7730 F   0  0  0  0  0  0
  -30.0261  -13.3800   20.4255 N   0  0  0  0  0  0
  -26.3040  -12.9384   20.3465 N   0  0  0  0  0  0
  -25.9361  -11.6549   20.5918 N   0  0  0  0  0  0
  -22.0504  -12.8227   22.0377 N   0  0  0  0  0  0
  -25.4281  -15.1920   20.4009 N   0  0  0  0  0  0
  -31.7970  -14.7529   20.0670 O   0  0  0  0  0  0
  -21.6678   -6.8905   21.4247 O   0  0  0  0  0  0
  -22.3566  -14.5564   20.6703 O   0  0  0  0  0  0
  -24.6217  -31.8591   23.2019 C   0  0  0  0  0  0
  -25.9088  -32.4772   23.8352 C   0  0  1  0  0  0
  -27.2364  -27.3333   20.1514 C   0  0  0  0  0  0
  -25.5893  -33.8579   24.2268 N   0  0  0  0  0  0
  -23.4205  -30.4735   21.5419 C   0  0  2  0  0  0
  -24.8718  -28.9156   20.1319 C   0  0  0  0  0  0
  -22.7479  -29.4590   22.4933 C   0  0  0  0  0  0
  -18.0318  -28.1410   22.8385 C   0  0  0  0  0  0
  -24.1499  -36.7314   23.2637 C   0  0  0  0  0  0
  -25.9575  -30.7913   21.3724 C   0  0  0  0  0  0
  -26.0352  -29.4111   20.7365 C   0  0  0  0  0  0
  -27.2226  -28.6291   20.7373 C   0  0  0  0  0  0
  -26.0566  -26.8713   19.5366 C   0  0  0  0  0  0
  -24.8808  -27.6469   19.5266 C   0  0  0  0  0  0
  -23.6404  -29.7931   20.1625 C   0  0  0  0  0  0
  -25.4130  -36.3076   24.0319 C   0  0  1  0  0  0
  -20.5903  -28.3669   23.1228 C   0  0  2  0  0  0
  -20.6794  -26.9447   22.5245 C   0  0  0  0  0  0
  -19.5786  -26.6495   21.4986 C   0  0  0  0  0  0
  -18.1946  -26.7991   22.1417 C   0  0  0  0  0  0
  -19.1569  -28.8836   23.2833 C   0  0  0  0  0  0
  -18.9533  -30.1406   23.8940 C   0  0  0  0  0  0
  -17.6545  -30.6540   24.0642 C   0  0  0  0  0  0
  -25.9043  -34.9434   23.5083 C   0  0  0  0  0  0
  -16.5430  -29.9094   23.6348 C   0  0  0  0  0  0
  -16.7308  -28.6561   23.0255 C   0  0  0  0  0  0
  -26.4460  -31.6590   25.0730 C   0  0  0  0  0  0
  -25.3720  -31.3736   26.1472 C   0  0  0  0  0  0
  -27.0294  -30.3016   24.6188 C   0  0  0  0  0  0
  -27.5999  -32.4327   25.7504 C   0  0  0  0  0  0
  -27.5583  -37.1820   24.8457 C   0  0  0  0  0  0
  -21.4190  -29.3104   22.3720 N   0  0  0  0  0  0
  -26.4297  -37.3779   23.9388 N   0  0  0  0  0  0
  -24.6851  -31.0596   22.0955 N   0  0  0  0  0  0
  -23.4216  -28.8077   23.2951 O   0  0  0  0  0  0
  -28.3823  -26.5583   20.0269 O   0  0  0  0  0  0
  -26.5599  -34.8907   22.4652 O   0  0  0  0  0  0
  -23.5389  -32.1346   23.7372 O   0  0  0  0  0  0
  -29.3730  -18.1483   20.9346 C   0  0  0  0  0  0
  -29.5458  -19.5108   18.9280 C   0  0  0  0  0  0
  -30.0243  -17.1102   18.8307 C   0  0  0  0  0  0
  -29.2729  -19.4418   20.3127 C   0  0  0  0  0  0
  -29.7891  -16.9740   20.2211 C   0  0  0  0  0  0
  -29.8911  -18.3581   18.1925 C   0  0  0  0  0  0
  -26.8368  -21.8953   21.1348 C   0  0  0  0  0  0
  -27.8835  -22.8565   20.8797 C   0  0  0  0  0  0
  -25.5177  -22.1284   21.0234 C   0  0  0  0  0  0
  -27.6777  -24.2182   20.9301 C   0  0  0  0  0  0
  -27.4199  -20.5309   21.4339 C   0  0  0  0  0  0
  -29.1667  -22.0270   20.7057 C   0  0  0  0  0  0
  -28.6547  -25.4208   20.9073 C   0  0  0  0  0  0
  -28.8276  -20.5991   21.0342 N   0  0  0  0  0  0
  -29.8717  -15.6592   20.8526 N   0  0  0  0  0  0
  -30.0744  -18.4476   16.8522 F   0  0  0  0  0  0
  -31.4681  -12.4666   19.1177 H   0  0  0  0  0  0
  -30.3416  -11.3659   19.8531 H   0  0  0  0  0  0
  -29.7274  -11.7562   17.4522 H   0  0  0  0  0  0
  -29.6270  -13.4777   17.7265 H   0  0  0  0  0  0
  -27.8677  -11.2879   18.8865 H   0  0  0  0  0  0
  -27.3354  -12.5577   17.8209 H   0  0  0  0  0  0
  -27.6866  -14.2518   19.5441 H   0  0  0  0  0  0
  -28.7269  -12.0362   21.3818 H   0  0  0  0  0  0
  -28.4783  -13.6861   21.8585 H   0  0  0  0  0  0
  -25.2792   -9.5686   22.4798 H   0  0  0  0  0  0
  -24.0013   -7.4665   22.7495 H   0  0  0  0  0  0
  -21.0871   -8.8868   19.8977 H   0  0  0  0  0  0
  -22.3801  -10.9725   19.6188 H   0  0  0  0  0  0
  -21.2068   -7.6152   23.9688 H   0  0  0  0  0  0
  -21.1427   -6.0520   25.9040 H   0  0  0  0  0  0
  -22.0631   -2.7611   23.2849 H   0  0  0  0  0  0
  -22.4105  -11.9835   22.4680 H   0  0  0  0  0  0
  -21.1146  -13.1269   22.2651 H   0  0  0  0  0  0
  -24.6597  -15.8431   20.5193 H   0  0  0  0  0  0
  -26.2720  -15.6344   20.0589 H   0  0  0  0  0  0
  -26.7179  -32.5432   23.1123 H   0  0  0  0  0  0
  -25.0038  -33.9726   25.0397 H   0  0  0  0  0  0
  -22.7165  -31.2915   21.3833 H   0  0  0  0  0  0
  -23.3732  -35.9664   23.3299 H   0  0  0  0  0  0
  -24.3576  -36.8938   22.2042 H   0  0  0  0  0  0
  -23.7281  -37.6534   23.6660 H   0  0  0  0  0  0
  -26.0817  -31.5444   20.5930 H   0  0  0  0  0  0
  -26.8415  -30.8547   21.9951 H   0  0  0  0  0  0
  -28.1236  -29.0134   21.1951 H   0  0  0  0  0  0
  -26.0499  -25.9029   19.0587 H   0  0  0  0  0  0
  -23.9873  -27.2568   19.0570 H   0  0  0  0  0  0
  -23.7685  -30.5541   19.3942 H   0  0  0  0  0  0
  -22.7697  -29.2103   19.8606 H   0  0  0  0  0  0
  -25.1308  -36.1920   25.0812 H   0  0  0  0  0  0
  -21.0001  -28.3115   24.1342 H   0  0  0  0  0  0
  -21.6665  -26.7533   22.1022 H   0  0  0  0  0  0
  -20.5659  -26.2225   23.3357 H   0  0  0  0  0  0
  -19.6950  -25.6428   21.0935 H   0  0  0  0  0  0
  -19.6717  -27.3347   20.6533 H   0  0  0  0  0  0
  -17.4234  -26.6860   21.3777 H   0  0  0  0  0  0
  -18.0334  -26.0050   22.8706 H   0  0  0  0  0  0
  -19.8025  -30.7193   24.2325 H   0  0  0  0  0  0
  -17.5144  -31.6170   24.5367 H   0  0  0  0  0  0
  -15.5453  -30.3031   23.7696 H   0  0  0  0  0  0
  -15.8696  -28.0955   22.6847 H   0  0  0  0  0  0
  -24.5875  -30.7100   25.7829 H   0  0  0  0  0  0
  -24.8941  -32.2903   26.4925 H   0  0  0  0  0  0
  -25.8071  -30.8901   27.0231 H   0  0  0  0  0  0
  -26.2873  -29.6788   24.1197 H   0  0  0  0  0  0
  -27.3950  -29.7241   25.4683 H   0  0  0  0  0  0
  -27.8739  -30.4272   23.9425 H   0  0  0  0  0  0
  -27.2583  -33.3603   26.2110 H   0  0  0  0  0  0
  -28.3805  -32.6957   25.0358 H   0  0  0  0  0  0
  -28.0683  -31.8467   26.5413 H   0  0  0  0  0  0
  -28.2597  -38.0123   24.7484 H   0  0  0  0  0  0
  -28.1084  -36.2639   24.6299 H   0  0  0  0  0  0
  -27.2282  -37.1493   25.8859 H   0  0  0  0  0  0
  -20.9346  -29.9029   21.7122 H   0  0  0  0  0  0
  -26.0164  -38.2844   24.1405 H   0  0  0  0  0  0
  -29.1286  -18.0635   21.9867 H   0  0  0  0  0  0
  -29.4427  -20.4337   18.3830 H   0  0  0  0  0  0
  -30.2840  -16.2535   18.2243 H   0  0  0  0  0  0
  -24.8067  -21.3362   21.2011 H   0  0  0  0  0  0
  -25.1166  -23.0949   20.7449 H   0  0  0  0  0  0
  -26.6747  -24.5501   21.1511 H   0  0  0  0  0  0
  -26.8755  -19.7508   20.8984 H   0  0  0  0  0  0
  -27.3409  -20.3156   22.5025 H   0  0  0  0  0  0
  -29.9229  -22.3845   21.4074 H   0  0  0  0  0  0
  -29.5604  -22.1521   19.6978 H   0  0  0  0  0  0
  -29.6412  -25.0392   20.6487 H   0  0  0  0  0  0
  -28.7401  -25.8128   21.9199 H   0  0  0  0  0  0
  -29.1096  -15.4262   21.4701 H   0  0  0  0  0  0
  1 25  1  0  0  0
  1 30  2  0  0  0
  1 85  1  0  0  0
  2  3  1  0  0  0
  2 25  1  0  0  0
  2 87  1  0  0  0
  2 88  1  0  0  0
  3  4  1  0  0  0
  3 89  1  0  0  0
  3 90  1  0  0  0
  4  5  1  0  0  0
  4 91  1  0  0  0
  4 92  1  0  0  0
  5  6  1  0  0  0
  5 26  1  0  0  0
  5 93  1  0  0  0
  6 25  1  0  0  0
  6 94  1  0  0  0
  6 95  1  0  0  0
  7  8  2  0  0  0
  7 26  1  0  0  0
  7 29  1  0  0  0
  8  9  1  0  0  0
  8 22  1  0  0  0
  9 10  1  0  0  0
  9 27  2  0  0  0
 10 11  2  0  0  0
 10 15  1  0  0  0
 11 12  1  0  0  0
 11 96  1  0  0  0
 12 13  2  0  0  0
 12 97  1  0  0  0
 13 14  1  0  0  0
 13 31  1  0  0  0
 14 15  2  0  0  0
 14 98  1  0  0  0
 15 99  1  0  0  0
 16 17  2  0  0  0
 16 21  1  0  0  0
 16 31  1  0  0  0
 17 18  1  0  0  0
 17100  1  0  0  0
 18 19  2  0  0  0
 18101  1  0  0  0
 19 20  1  0  0  0
 19 24  1  0  0  0
 20 21  2  0  0  0
 20102  1  0  0  0
 21 23  1  0  0  0
 22 28  1  0  0  0
 22 32  2  0  0  0
 26 27  1  0  0  0
 28103  1  0  0  0
 28104  1  0  0  0
 29105  1  0  0  0
 29106  1  0  0  0
 33 34  1  0  0  0
 33 66  1  0  0  0
 33 70  2  0  0  0
 34 36  1  0  0  0
 34 59  1  0  0  0
 34107  1  0  0  0
 35 44  2  0  0  0
 35 45  1  0  0  0
 35 68  1  0  0  0
 36 56  1  0  0  0
 36108  1  0  0  0
 37 39  1  0  0  0
 37 47  1  0  0  0
 37 66  1  0  0  0
 37109  1  0  0  0
 38 43  2  0  0  0
 38 46  1  0  0  0
 38 47  1  0  0  0
 39 64  1  0  0  0
 39 67  2  0  0  0
 40 52  1  0  0  0
 40 53  2  0  0  0
 40 58  1  0  0  0
 41110  1  0  0  0
 41111  1  0  0  0
 41112  1  0  0  0
 41 48  1  0  0  0
 42 43  1  0  0  0
 42 66  1  0  0  0
 42113  1  0  0  0
 42114  1  0  0  0
 43 44  1  0  0  0
 44115  1  0  0  0
 45 46  2  0  0  0
 45116  1  0  0  0
 46117  1  0  0  0
 47118  1  0  0  0
 47119  1  0  0  0
 48 56  1  0  0  0
 48 65  1  0  0  0
 48120  1  0  0  0
 49 50  1  0  0  0
 49 53  1  0  0  0
 49 64  1  0  0  0
 49121  1  0  0  0
 50 51  1  0  0  0
 50122  1  0  0  0
 50123  1  0  0  0
 51 52  1  0  0  0
 51124  1  0  0  0
 51125  1  0  0  0
 52126  1  0  0  0
 52127  1  0  0  0
 53 54  1  0  0  0
 54 55  2  0  0  0
 54128  1  0  0  0
 55 57  1  0  0  0
 55129  1  0  0  0
 56 69  2  0  0  0
 57 58  2  0  0  0
 57130  1  0  0  0
 58131  1  0  0  0
 59 60  1  0  0  0
 59 61  1  0  0  0
 59 62  1  0  0  0
 60132  1  0  0  0
 60133  1  0  0  0
 60134  1  0  0  0
 61135  1  0  0  0
 61136  1  0  0  0
 61137  1  0  0  0
 62138  1  0  0  0
 62139  1  0  0  0
 62140  1  0  0  0
 63 65  1  0  0  0
 63141  1  0  0  0
 63142  1  0  0  0
 63143  1  0  0  0
 64144  1  0  0  0
 65145  1  0  0  0
 68 83  1  0  0  0
 71 74  2  0  0  0
 71 75  1  0  0  0
 71146  1  0  0  0
 72 74  1  0  0  0
 72 76  2  0  0  0
 72147  1  0  0  0
 73 75  2  0  0  0
 73 76  1  0  0  0
 73148  1  0  0  0
 74 84  1  0  0  0
 75 85  1  0  0  0
 76 86  1  0  0  0
 77 78  1  0  0  0
 77 79  2  0  0  0
 77 81  1  0  0  0
 78 80  2  0  0  0
 78 82  1  0  0  0
 79149  1  0  0  0
 79150  1  0  0  0
 80 83  1  0  0  0
 80151  1  0  0  0
 81 84  1  0  0  0
 81152  1  0  0  0
 81153  1  0  0  0
 82 84  1  0  0  0
 82154  1  0  0  0
 82155  1  0  0  0
 83156  1  0  0  0
 83157  1  0  0  0
 85158  1  0  0  0
M  ISO  4   1 100  68 101  83 101  85 100
M  END
> <chiral flag>
0

> <version>
0

> <s_m_source_file>
/data/baiqing/PycharmProjects/Reinvent-master-3.2/result/LINK_invent/BTK/process_docking_weight1_custom_product_contain_oxygen_bond_distance_aromatic_linkinvent_7_9_3/rearranged_h_0077.sdf

> <i_m_source_file_index>
50

> <r_mmod_Potential_Energy-OPLS-2005>
145.754440307617

> <r_mmod_Stretch_Energy-OPLS-2005>
66.4014282226562

> <r_mmod_Bend_Energy-OPLS-2005>
198.066497802734

> <r_mmod_Torsional_Energy-OPLS-2005>
272.576873779297

> <r_mmod_Improper_Torsional_Energy-OPLS-2005>
9.36123180389404

> <r_mmod_Van_der_Waal_Energy-OPLS-2005>
136.356109619141

> <r_mmod_Electrostatic_Energy-OPLS-2005>
-348.389801025391

> <r_mmod_Solvation_Energy-OPLS-2005>
-224.494018554688

> <b_mmod_Minimization_Converged-OPLS-2005>
0

> <r_mmod_RMS_Derivative-OPLS-2005>
5.784987449646

$$$$
50
                    3D
 Structure written by MMmdl.
158167  0  0  1  0            999 V2000
  -30.6032  -14.8162   20.4872 C   0  0  0  0  0  0
  -30.4288  -12.5113   19.4830 C   0  0  0  0  0  0
  -29.5107  -12.5315   18.2408 C   0  0  0  0  0  0
  -28.0383  -12.3393   18.6497 C   0  0  0  0  0  0
  -27.6354  -13.2401   19.8463 C   0  0  2  0  0  0
  -28.6750  -13.1843   20.9820 C   0  0  0  0  0  0
  -25.2484  -13.8214   20.5700 C   0  0  0  0  0  0
  -24.1784  -13.0445   20.9199 C   0  0  0  0  0  0
  -24.6389  -11.6926   20.8732 C   0  0  0  0  0  0
  -23.9071  -10.4299   21.0396 C   0  0  0  0  0  0
  -24.3620   -9.4215   21.9177 C   0  0  0  0  0  0
  -23.6295   -8.2249   22.0753 C   0  0  0  0  0  0
  -22.4277   -8.0283   21.3545 C   0  0  0  0  0  0
  -21.9909   -9.0253   20.4646 C   0  0  0  0  0  0
  -22.7239  -10.2132   20.3052 C   0  0  0  0  0  0
  -21.6854   -6.0737   22.5278 C   0  0  0  0  0  0
  -21.4014   -6.5640   23.8211 C   0  0  0  0  0  0
  -21.3661   -5.6794   24.9173 C   0  0  0  0  0  0
  -21.6047   -4.3057   24.7225 C   0  0  0  0  0  0
  -21.8817   -3.8148   23.4346 C   0  0  0  0  0  0
  -21.9192   -4.6965   22.3400 C   0  0  0  0  0  0
  -22.7810  -13.5219   21.1870 C   0  0  0  0  0  0
  -22.1661   -4.2150   21.0979 F   0  0  0  0  0  0
  -21.5629   -3.4541   25.7739 F   0  0  0  0  0  0
  -29.9678  -13.5835   20.4072 N   0  0  0  0  0  0
  -26.2901  -12.9431   20.3251 N   0  0  0  0  0  0
  -25.9317  -11.6565   20.5723 N   0  0  0  0  0  0
  -22.0464  -12.8203   22.0428 N   0  0  0  0  0  0
  -25.4190  -15.1942   20.4175 N   0  0  0  0  0  0
  -31.7755  -14.8842   20.1008 O   0  0  0  0  0  0
  -21.6644   -6.8878   21.4240 O   0  0  0  0  0  0
  -22.3486  -14.5527   20.6725 O   0  0  0  0  0  0
  -24.6374  -31.8506   23.1935 C   0  0  0  0  0  0
  -25.9179  -32.4726   23.8301 C   0  0  1  0  0  0
  -27.2188  -27.2066   20.1251 C   0  0  0  0  0  0
  -25.5952  -33.8531   24.2222 N   0  0  0  0  0  0
  -23.4360  -30.4724   21.5392 C   0  0  2  0  0  0
  -24.8816  -28.9114   20.1082 C   0  0  0  0  0  0
  -22.7532  -29.4583   22.4898 C   0  0  0  0  0  0
  -18.0298  -28.1391   22.8486 C   0  0  0  0  0  0
  -24.1491  -36.7265   23.2640 C   0  0  0  0  0  0
  -25.9874  -30.7455   21.3811 C   0  0  0  0  0  0
  -26.0582  -29.3646   20.7181 C   0  0  0  0  0  0
  -27.2264  -28.5258   20.7137 C   0  0  0  0  0  0
  -26.0044  -26.8270   19.5095 C   0  0  0  0  0  0
  -24.8632  -27.6525   19.4918 C   0  0  0  0  0  0
  -23.6555  -29.8049   20.1562 C   0  0  0  0  0  0
  -25.4122  -36.3051   24.0321 C   0  0  1  0  0  0
  -20.5905  -28.3708   23.1260 C   0  0  2  0  0  0
  -20.6784  -26.9420   22.5407 C   0  0  0  0  0  0
  -19.5754  -26.6382   21.5217 C   0  0  0  0  0  0
  -18.1936  -26.7934   22.1628 C   0  0  0  0  0  0
  -19.1552  -28.8868   23.2864 C   0  0  0  0  0  0
  -18.9472  -30.1468   23.8880 C   0  0  0  0  0  0
  -17.6469  -30.6588   24.0560 C   0  0  0  0  0  0
  -25.9071  -34.9426   23.5075 C   0  0  0  0  0  0
  -16.5361  -29.9081   23.6337 C   0  0  0  0  0  0
  -16.7285  -28.6501   23.0359 C   0  0  0  0  0  0
  -26.4519  -31.6569   25.0718 C   0  0  0  0  0  0
  -25.3717  -31.3738   26.1421 C   0  0  0  0  0  0
  -27.0378  -30.2974   24.6257 C   0  0  0  0  0  0
  -27.6056  -32.4328   25.7499 C   0  0  0  0  0  0
  -27.5580  -37.1787   24.8463 C   0  0  0  0  0  0
  -21.4232  -29.3047   22.3643 N   0  0  0  0  0  0
  -26.4286  -37.3759   23.9412 N   0  0  0  0  0  0
  -24.7065  -31.0424   22.0935 N   0  0  0  0  0  0
  -23.4208  -28.8132   23.3022 O   0  0  0  0  0  0
  -28.2927  -26.2649   20.2218 O   0  0  0  0  0  0
  -26.5651  -34.8912   22.4649 O   0  0  0  0  0  0
  -23.5511  -32.1354   23.7199 O   0  0  0  0  0  0
  -30.0910  -18.3624   17.8506 C   0  0  0  0  0  0
  -29.7579  -19.6349   18.3508 C   0  0  0  0  0  0
  -30.1206  -17.2224   18.6712 C   0  0  0  0  0  0
  -29.4644  -18.6476   20.5381 C   0  0  0  0  0  0
  -29.4028  -19.8663   19.7043 C   0  0  0  0  0  0
  -29.8342  -17.2944   20.0515 C   0  0  0  0  0  0
  -28.5905  -23.6944   20.0577 C   0  0  0  0  0  0
  -28.8364  -23.2998   21.4390 C   0  0  0  0  0  0
  -28.6920  -22.3917   19.3070 C   0  0  0  0  0  0
  -28.3389  -24.9898   19.5390 C   0  0  0  0  0  0
  -29.1029  -21.7769   21.5056 C   0  0  0  0  0  0
  -28.2435  -25.2239   18.0328 C   0  0  0  0  0  0
  -29.5413  -16.1180   22.2532 C   0  0  0  0  0  0
  -29.0549  -21.2990   20.1127 N   0  0  0  0  0  0
  -29.9058  -16.0003   20.8378 N   0  0  0  0  0  0
  -28.8464  -24.0309   22.4352 O   0  0  0  0  0  0
  -28.4399  -22.2763   18.1027 O   0  0  0  0  0  0
  -31.4679  -12.6418   19.1768 H   0  0  0  0  0  0
  -30.3897  -11.5385   19.9754 H   0  0  0  0  0  0
  -29.8075  -11.7550   17.5348 H   0  0  0  0  0  0
  -29.6249  -13.4819   17.7168 H   0  0  0  0  0  0
  -27.9037  -11.2902   18.9149 H   0  0  0  0  0  0
  -27.3813  -12.5229   17.7988 H   0  0  0  0  0  0
  -27.6256  -14.2625   19.4665 H   0  0  0  0  0  0
  -28.7342  -12.1808   21.4063 H   0  0  0  0  0  0
  -28.3658  -13.8330   21.7983 H   0  0  0  0  0  0
  -25.2759   -9.5694   22.4757 H   0  0  0  0  0  0
  -24.0003   -7.4642   22.7476 H   0  0  0  0  0  0
  -21.0838   -8.8771   19.8953 H   0  0  0  0  0  0
  -22.3693  -10.9669   19.6164 H   0  0  0  0  0  0
  -21.2007   -7.6149   23.9715 H   0  0  0  0  0  0
  -21.1486   -6.0525   25.9077 H   0  0  0  0  0  0
  -22.0595   -2.7610   23.2848 H   0  0  0  0  0  0
  -22.4083  -11.9859   22.4803 H   0  0  0  0  0  0
  -21.1083  -13.1222   22.2648 H   0  0  0  0  0  0
  -24.6572  -15.8521   20.5413 H   0  0  0  0  0  0
  -26.2825  -15.6372   20.1281 H   0  0  0  0  0  0
  -26.7242  -32.5343   23.1031 H   0  0  0  0  0  0
  -25.0085  -33.9652   25.0361 H   0  0  0  0  0  0
  -22.7351  -31.2964   21.3904 H   0  0  0  0  0  0
  -23.3764  -35.9583   23.3286 H   0  0  0  0  0  0
  -24.3578  -36.8909   22.2056 H   0  0  0  0  0  0
  -23.7231  -37.6453   23.6684 H   0  0  0  0  0  0
  -26.1377  -31.5065   20.6140 H   0  0  0  0  0  0
  -26.8604  -30.7902   22.0211 H   0  0  0  0  0  0
  -28.1235  -28.8655   21.2118 H   0  0  0  0  0  0
  -25.8989  -25.8481   19.0685 H   0  0  0  0  0  0
  -23.9584  -27.2930   19.0214 H   0  0  0  0  0  0
  -23.7828  -30.5804   19.4002 H   0  0  0  0  0  0
  -22.7718  -29.2419   19.8495 H   0  0  0  0  0  0
  -25.1306  -36.1885   25.0813 H   0  0  0  0  0  0
  -20.9997  -28.3289   24.1384 H   0  0  0  0  0  0
  -20.5689  -26.2319   23.3619 H   0  0  0  0  0  0
  -21.6651  -26.7441   22.1197 H   0  0  0  0  0  0
  -19.6916  -25.6291   21.1252 H   0  0  0  0  0  0
  -19.6689  -27.3189   20.6744 H   0  0  0  0  0  0
  -17.4208  -26.6689   21.4027 H   0  0  0  0  0  0
  -18.0331  -26.0072   22.9021 H   0  0  0  0  0  0
  -19.7945  -30.7293   24.2239 H   0  0  0  0  0  0
  -17.5020  -31.6267   24.5166 H   0  0  0  0  0  0
  -15.5361  -30.2977   23.7669 H   0  0  0  0  0  0
  -15.8686  -28.0811   22.7089 H   0  0  0  0  0  0
  -24.5900  -30.7081   25.7740 H   0  0  0  0  0  0
  -24.8900  -32.2912   26.4815 H   0  0  0  0  0  0
  -25.8012  -30.8931   27.0218 H   0  0  0  0  0  0
  -26.2979  -29.6707   24.1260 H   0  0  0  0  0  0
  -27.4010  -29.7261   25.4811 H   0  0  0  0  0  0
  -27.8881  -30.4231   23.9548 H   0  0  0  0  0  0
  -27.2652  -33.3642   26.2039 H   0  0  0  0  0  0
  -28.3886  -32.6865   25.0340 H   0  0  0  0  0  0
  -28.0701  -31.8476   26.5447 H   0  0  0  0  0  0
  -28.2580  -38.0100   24.7534 H   0  0  0  0  0  0
  -28.1095  -36.2637   24.6263 H   0  0  0  0  0  0
  -27.2303  -37.1398   25.8863 H   0  0  0  0  0  0
  -20.9439  -29.8754   21.6821 H   0  0  0  0  0  0
  -26.0161  -38.2826   24.1421 H   0  0  0  0  0  0
  -30.3379  -18.2593   16.8026 H   0  0  0  0  0  0
  -29.8040  -20.4395   17.6346 H   0  0  0  0  0  0
  -30.3801  -16.2817   18.2069 H   0  0  0  0  0  0
  -29.2146  -18.7609   21.5827 H   0  0  0  0  0  0
  -28.3393  -21.2857   22.1083 H   0  0  0  0  0  0
  -30.0804  -21.5817   21.9457 H   0  0  0  0  0  0
  -29.1236  -24.8210   17.5310 H   0  0  0  0  0  0
  -28.1967  -26.2840   17.7823 H   0  0  0  0  0  0
  -27.3617  -24.7357   17.6165 H   0  0  0  0  0  0
  -28.4696  -16.2921   22.3537 H   0  0  0  0  0  0
  -30.0671  -16.9518   22.7186 H   0  0  0  0  0  0
  -29.7943  -15.2347   22.8432 H   0  0  0  0  0  0
  1 25  1  0  0  0
  1 30  2  0  0  0
  1 85  1  0  0  0
  2  3  1  0  0  0
  2 25  1  0  0  0
  2 88  1  0  0  0
  2 89  1  0  0  0
  3  4  1  0  0  0
  3 90  1  0  0  0
  3 91  1  0  0  0
  4  5  1  0  0  0
  4 92  1  0  0  0
  4 93  1  0  0  0
  5  6  1  0  0  0
  5 26  1  0  0  0
  5 94  1  0  0  0
  6 25  1  0  0  0
  6 95  1  0  0  0
  6 96  1  0  0  0
  7  8  2  0  0  0
  7 26  1  0  0  0
  7 29  1  0  0  0
  8  9  1  0  0  0
  8 22  1  0  0  0
  9 10  1  0  0  0
  9 27  2  0  0  0
 10 11  2  0  0  0
 10 15  1  0  0  0
 11 12  1  0  0  0
 11 97  1  0  0  0
 12 13  2  0  0  0
 12 98  1  0  0  0
 13 14  1  0  0  0
 13 31  1  0  0  0
 14 15  2  0  0  0
 14 99  1  0  0  0
 15100  1  0  0  0
 16 17  2  0  0  0
 16 21  1  0  0  0
 16 31  1  0  0  0
 17 18  1  0  0  0
 17101  1  0  0  0
 18 19  2  0  0  0
 18102  1  0  0  0
 19 20  1  0  0  0
 19 24  1  0  0  0
 20 21  2  0  0  0
 20103  1  0  0  0
 21 23  1  0  0  0
 22 28  1  0  0  0
 22 32  2  0  0  0
 26 27  1  0  0  0
 28104  1  0  0  0
 28105  1  0  0  0
 29106  1  0  0  0
 29107  1  0  0  0
 33 34  1  0  0  0
 33 66  1  0  0  0
 33 70  2  0  0  0
 34 36  1  0  0  0
 34 59  1  0  0  0
 34108  1  0  0  0
 35 44  2  0  0  0
 35 45  1  0  0  0
 35 68  1  0  0  0
 36 56  1  0  0  0
 36109  1  0  0  0
 37 39  1  0  0  0
 37 47  1  0  0  0
 37 66  1  0  0  0
 37110  1  0  0  0
 38 43  2  0  0  0
 38 46  1  0  0  0
 38 47  1  0  0  0
 39 64  1  0  0  0
 39 67  2  0  0  0
 40 52  1  0  0  0
 40 53  2  0  0  0
 40 58  1  0  0  0
 41111  1  0  0  0
 41112  1  0  0  0
 41113  1  0  0  0
 41 48  1  0  0  0
 42 43  1  0  0  0
 42 66  1  0  0  0
 42114  1  0  0  0
 42115  1  0  0  0
 43 44  1  0  0  0
 44116  1  0  0  0
 45 46  2  0  0  0
 45117  1  0  0  0
 46118  1  0  0  0
 47119  1  0  0  0
 47120  1  0  0  0
 48 56  1  0  0  0
 48 65  1  0  0  0
 48121  1  0  0  0
 49 50  1  0  0  0
 49 53  1  0  0  0
 49 64  1  0  0  0
 49122  1  0  0  0
 50 51  1  0  0  0
 50123  1  0  0  0
 50124  1  0  0  0
 51 52  1  0  0  0
 51125  1  0  0  0
 51126  1  0  0  0
 52127  1  0  0  0
 52128  1  0  0  0
 53 54  1  0  0  0
 54 55  2  0  0  0
 54129  1  0  0  0
 55 57  1  0  0  0
 55130  1  0  0  0
 56 69  2  0  0  0
 57 58  2  0  0  0
 57131  1  0  0  0
 58132  1  0  0  0
 59 60  1  0  0  0
 59 61  1  0  0  0
 59 62  1  0  0  0
 60133  1  0  0  0
 60134  1  0  0  0
 60135  1  0  0  0
 61136  1  0  0  0
 61137  1  0  0  0
 61138  1  0  0  0
 62139  1  0  0  0
 62140  1  0  0  0
 62141  1  0  0  0
 63 65  1  0  0  0
 63142  1  0  0  0
 63143  1  0  0  0
 63144  1  0  0  0
 64145  1  0  0  0
 65146  1  0  0  0
 68 80  1  0  0  0
 71 72  2  0  0  0
 71 73  1  0  0  0
 71147  1  0  0  0
 72 75  1  0  0  0
 72148  1  0  0  0
 73 76  2  0  0  0
 73149  1  0  0  0
 74 75  2  0  0  0
 74 76  1  0  0  0
 74150  1  0  0  0
 75 84  1  0  0  0
 76 85  1  0  0  0
 77 78  1  0  0  0
 77 79  1  0  0  0
 77 80  2  0  0  0
 78 81  1  0  0  0
 78 86  2  0  0  0
 79 84  1  0  0  0
 79 87  2  0  0  0
 80 82  1  0  0  0
 81 84  1  0  0  0
 81151  1  0  0  0
 81152  1  0  0  0
 82153  1  0  0  0
 82154  1  0  0  0
 82155  1  0  0  0
 83 85  1  0  0  0
 83156  1  0  0  0
 83157  1  0  0  0
 83158  1  0  0  0
M  ISO  4   1 100  68 101  80 101  85 100
M  END
> <chiral flag>
0

> <version>
0

> <s_m_source_file>
/data/baiqing/PycharmProjects/Reinvent-master-3.2/result/LINK_invent/BTK/process_docking_weight1_custom_product_contain_oxygen_bond_distance_aromatic_linkinvent_7_9_3/rearranged_h_0077.sdf

> <i_m_source_file_index>
51

> <r_mmod_Potential_Energy-OPLS-2005>
544.143859863281

> <r_mmod_Stretch_Energy-OPLS-2005>
184.204437255859

> <r_mmod_Bend_Energy-OPLS-2005>
240.047836303711

> <r_mmod_Torsional_Energy-OPLS-2005>
315.6337890625

> <r_mmod_Improper_Torsional_Energy-OPLS-2005>
4.60444831848145

> <r_mmod_Van_der_Waal_Energy-OPLS-2005>
148.94108581543

> <r_mmod_Electrostatic_Energy-OPLS-2005>
-252.682861328125

> <r_mmod_Solvation_Energy-OPLS-2005>
-215.964630126953

> <b_mmod_Minimization_Converged-OPLS-2005>
0

> <r_mmod_RMS_Derivative-OPLS-2005>
0.697162926197052

$$$$
51
                    3D
 Structure written by MMmdl.
160169  0  0  1  0            999 V2000
  -30.5837  -14.7053   20.4827 C   0  0  0  0  0  0
  -30.4463  -12.4320   19.4595 C   0  0  0  0  0  0
  -29.5127  -12.5111   18.2297 C   0  0  0  0  0  0
  -28.0366  -12.3353   18.6412 C   0  0  0  0  0  0
  -27.6506  -13.2124   19.8608 C   0  0  2  0  0  0
  -28.6962  -13.0942   20.9919 C   0  0  0  0  0  0
  -25.2559  -13.8154   20.5678 C   0  0  0  0  0  0
  -24.1831  -13.0430   20.9215 C   0  0  0  0  0  0
  -24.6393  -11.6899   20.8755 C   0  0  0  0  0  0
  -23.9062  -10.4287   21.0417 C   0  0  0  0  0  0
  -24.3614   -9.4201   21.9192 C   0  0  0  0  0  0
  -23.6290   -8.2237   22.0755 C   0  0  0  0  0  0
  -22.4272   -8.0280   21.3545 C   0  0  0  0  0  0
  -21.9909   -9.0255   20.4648 C   0  0  0  0  0  0
  -22.7237  -10.2134   20.3061 C   0  0  0  0  0  0
  -21.6851   -6.0736   22.5279 C   0  0  0  0  0  0
  -21.4013   -6.5640   23.8213 C   0  0  0  0  0  0
  -21.3658   -5.6792   24.9174 C   0  0  0  0  0  0
  -21.6043   -4.3055   24.7226 C   0  0  0  0  0  0
  -21.8819   -3.8148   23.4346 C   0  0  0  0  0  0
  -21.9192   -4.6965   22.3402 C   0  0  0  0  0  0
  -22.7854  -13.5231   21.1867 C   0  0  0  0  0  0
  -22.1660   -4.2152   21.0980 F   0  0  0  0  0  0
  -21.5628   -3.4538   25.7737 F   0  0  0  0  0  0
  -30.0032  -13.4604   20.4245 N   0  0  0  0  0  0
  -26.2974  -12.9321   20.3297 N   0  0  0  0  0  0
  -25.9317  -11.6485   20.5762 N   0  0  0  0  0  0
  -22.0489  -12.8226   22.0419 N   0  0  0  0  0  0
  -25.4253  -15.1868   20.4042 N   0  0  0  0  0  0
  -31.7539  -14.8759   20.1275 O   0  0  0  0  0  0
  -21.6635   -6.8878   21.4240 O   0  0  0  0  0  0
  -22.3542  -14.5535   20.6707 O   0  0  0  0  0  0
  -24.6290  -31.8565   23.1988 C   0  0  0  0  0  0
  -25.9126  -32.4759   23.8330 C   0  0  1  0  0  0
  -27.2330  -27.2936   20.1098 C   0  0  0  0  0  0
  -25.5930  -33.8560   24.2259 N   0  0  0  0  0  0
  -23.4241  -30.4787   21.5423 C   0  0  2  0  0  0
  -24.8709  -28.9271   20.1111 C   0  0  0  0  0  0
  -22.7486  -29.4608   22.4924 C   0  0  0  0  0  0
  -18.0288  -28.1389   22.8484 C   0  0  0  0  0  0
  -24.1490  -36.7285   23.2640 C   0  0  0  0  0  0
  -25.9672  -30.7793   21.3722 C   0  0  0  0  0  0
  -26.0415  -29.4042   20.7130 C   0  0  0  0  0  0
  -27.2220  -28.5989   20.7020 C   0  0  0  0  0  0
  -26.0264  -26.8640   19.5107 C   0  0  0  0  0  0
  -24.8660  -27.6626   19.5025 C   0  0  0  0  0  0
  -23.6399  -29.8105   20.1589 C   0  0  0  0  0  0
  -25.4116  -36.3072   24.0326 C   0  0  1  0  0  0
  -20.5890  -28.3695   23.1277 C   0  0  2  0  0  0
  -20.6778  -26.9416   22.5410 C   0  0  0  0  0  0
  -19.5754  -26.6386   21.5213 C   0  0  0  0  0  0
  -18.1933  -26.7932   22.1623 C   0  0  0  0  0  0
  -19.1541  -28.8859   23.2876 C   0  0  0  0  0  0
  -18.9463  -30.1460   23.8895 C   0  0  0  0  0  0
  -17.6463  -30.6589   24.0564 C   0  0  0  0  0  0
  -25.9056  -34.9441   23.5096 C   0  0  0  0  0  0
  -16.5354  -29.9088   23.6332 C   0  0  0  0  0  0
  -16.7275  -28.6506   23.0351 C   0  0  0  0  0  0
  -26.4501  -31.6575   25.0710 C   0  0  0  0  0  0
  -25.3728  -31.3717   26.1432 C   0  0  0  0  0  0
  -27.0348  -30.2995   24.6180 C   0  0  0  0  0  0
  -27.6055  -32.4314   25.7488 C   0  0  0  0  0  0
  -27.5579  -37.1798   24.8464 C   0  0  0  0  0  0
  -21.4197  -29.3043   22.3666 N   0  0  0  0  0  0
  -26.4291  -37.3770   23.9408 N   0  0  0  0  0  0
  -24.6926  -31.0554   22.0948 N   0  0  0  0  0  0
  -23.4195  -28.8154   23.3021 O   0  0  0  0  0  0
  -28.3609  -26.4452   20.1775 O   0  0  0  0  0  0
  -26.5627  -34.8915   22.4664 O   0  0  0  0  0  0
  -23.5447  -32.1374   23.7300 O   0  0  0  0  0  0
  -30.0620  -19.4670   21.6898 C   0  0  0  0  0  0
  -30.2273  -18.0463   21.6972 C   0  0  0  0  0  0
  -29.0817  -19.3507   19.5184 C   0  0  0  0  0  0
  -29.2332  -17.9171   19.5104 C   0  0  0  0  0  0
  -29.4631  -20.1856   20.6112 C   0  0  0  0  0  0
  -29.8112  -17.2155   20.6228 C   0  0  0  0  0  0
  -28.7107  -23.9620   20.2961 C   0  0  0  0  0  0
  -28.9694  -23.7888   21.7031 C   0  0  0  0  0  0
  -28.8652  -22.5820   19.7204 C   0  0  0  0  0  0
  -28.8561  -24.7273   22.6603 C   0  0  0  0  0  0
  -28.4180  -25.1415   19.6102 C   0  0  0  0  0  0
  -29.3690  -22.3579   21.9818 C   0  0  0  0  0  0
  -28.3002  -25.2051   18.0916 C   0  0  0  0  0  0
  -28.6873  -17.1437   18.3092 C   0  0  0  0  0  0
  -29.2286  -21.6618   20.6944 N   0  0  0  0  0  0
  -29.7394  -15.7484   20.7997 N   0  0  0  0  0  0
  -28.7016  -22.2741   18.5355 O   0  0  0  0  0  0
  -28.4261  -17.9397   17.2708 F   0  0  0  0  0  0
  -29.5548  -16.2201   17.8962 F   0  0  0  0  0  0
  -27.5530  -16.5384   18.6598 F   0  0  0  0  0  0
  -31.4840  -12.5778   19.1546 H   0  0  0  0  0  0
  -30.4043  -11.4414   19.9149 H   0  0  0  0  0  0
  -29.7894  -11.7522   17.4968 H   0  0  0  0  0  0
  -29.6408  -13.4744   17.7338 H   0  0  0  0  0  0
  -27.8838  -11.2827   18.8820 H   0  0  0  0  0  0
  -27.3803  -12.5523   17.7975 H   0  0  0  0  0  0
  -27.6605  -14.2403   19.5064 H   0  0  0  0  0  0
  -28.7260  -12.0765   21.3839 H   0  0  0  0  0  0
  -28.4315  -13.7313   21.8372 H   0  0  0  0  0  0
  -25.2760   -9.5676   22.4766 H   0  0  0  0  0  0
  -24.0000   -7.4625   22.7469 H   0  0  0  0  0  0
  -21.0841   -8.8774   19.8950 H   0  0  0  0  0  0
  -22.3700  -10.9675   19.6172 H   0  0  0  0  0  0
  -21.2004   -7.6147   23.9720 H   0  0  0  0  0  0
  -21.1479   -6.0520   25.9079 H   0  0  0  0  0  0
  -22.0601   -2.7611   23.2844 H   0  0  0  0  0  0
  -22.4101  -11.9889   22.4814 H   0  0  0  0  0  0
  -21.1104  -13.1252   22.2614 H   0  0  0  0  0  0
  -24.6411  -15.8245   20.4803 H   0  0  0  0  0  0
  -26.2295  -15.6080   19.9536 H   0  0  0  0  0  0
  -26.7191  -32.5416   23.1074 H   0  0  0  0  0  0
  -25.0067  -33.9699   25.0399 H   0  0  0  0  0  0
  -22.7197  -31.3002   21.3964 H   0  0  0  0  0  0
  -23.3754  -35.9615   23.3297 H   0  0  0  0  0  0
  -24.3580  -36.8912   22.2055 H   0  0  0  0  0  0
  -23.7240  -37.6483   23.6668 H   0  0  0  0  0  0
  -26.1009  -31.5421   20.6039 H   0  0  0  0  0  0
  -26.8464  -30.8282   22.0032 H   0  0  0  0  0  0
  -28.1211  -28.9610   21.1804 H   0  0  0  0  0  0
  -25.9505  -25.8839   19.0660 H   0  0  0  0  0  0
  -23.9643  -27.2841   19.0411 H   0  0  0  0  0  0
  -23.7608  -30.5854   19.4010 H   0  0  0  0  0  0
  -22.7593  -29.2408   19.8566 H   0  0  0  0  0  0
  -25.1300  -36.1917   25.0819 H   0  0  0  0  0  0
  -20.9983  -28.3273   24.1398 H   0  0  0  0  0  0
  -20.5678  -26.2306   23.3613 H   0  0  0  0  0  0
  -21.6645  -26.7443   22.1203 H   0  0  0  0  0  0
  -19.6915  -25.6296   21.1245 H   0  0  0  0  0  0
  -19.6694  -27.3195   20.6742 H   0  0  0  0  0  0
  -17.4203  -26.6679   21.4025 H   0  0  0  0  0  0
  -18.0333  -26.0075   22.9020 H   0  0  0  0  0  0
  -19.7939  -30.7278   24.2261 H   0  0  0  0  0  0
  -17.5017  -31.6269   24.5167 H   0  0  0  0  0  0
  -15.5354  -30.2989   23.7658 H   0  0  0  0  0  0
  -15.8674  -28.0825   22.7067 H   0  0  0  0  0  0
  -24.5911  -30.7060   25.7757 H   0  0  0  0  0  0
  -24.8913  -32.2883   26.4848 H   0  0  0  0  0  0
  -25.8049  -30.8900   27.0213 H   0  0  0  0  0  0
  -26.2926  -29.6739   24.1206 H   0  0  0  0  0  0
  -27.4040  -29.7256   25.4691 H   0  0  0  0  0  0
  -27.8797  -30.4272   23.9410 H   0  0  0  0  0  0
  -27.2662  -33.3616   26.2058 H   0  0  0  0  0  0
  -28.3874  -32.6868   25.0325 H   0  0  0  0  0  0
  -28.0714  -31.8443   26.5413 H   0  0  0  0  0  0
  -28.2592  -38.0099   24.7514 H   0  0  0  0  0  0
  -28.1081  -36.2630   24.6287 H   0  0  0  0  0  0
  -27.2297  -37.1441   25.8867 H   0  0  0  0  0  0
  -20.9379  -29.8760   21.6869 H   0  0  0  0  0  0
  -26.0169  -38.2842   24.1413 H   0  0  0  0  0  0
  -30.3868  -19.9998   22.5720 H   0  0  0  0  0  0
  -30.6371  -17.5852   22.5848 H   0  0  0  0  0  0
  -28.6039  -19.8071   18.6660 H   0  0  0  0  0  0
  -28.5537  -25.7418   22.4507 H   0  0  0  0  0  0
  -29.0657  -24.4870   23.6931 H   0  0  0  0  0  0
  -28.7159  -21.9165   22.7357 H   0  0  0  0  0  0
  -30.4004  -22.3214   22.3350 H   0  0  0  0  0  0
  -27.4387  -24.6342   17.7446 H   0  0  0  0  0  0
  -29.1937  -24.7906   17.6242 H   0  0  0  0  0  0
  -28.1986  -26.2300   17.7343 H   0  0  0  0  0  0
  -28.8249  -15.4181   21.0680 H   0  0  0  0  0  0
  1 25  1  0  0  0
  1 30  2  0  0  0
  1 86  1  0  0  0
  2  3  1  0  0  0
  2 25  1  0  0  0
  2 91  1  0  0  0
  2 92  1  0  0  0
  3  4  1  0  0  0
  3 93  1  0  0  0
  3 94  1  0  0  0
  4  5  1  0  0  0
  4 95  1  0  0  0
  4 96  1  0  0  0
  5  6  1  0  0  0
  5 26  1  0  0  0
  5 97  1  0  0  0
  6 25  1  0  0  0
  6 98  1  0  0  0
  6 99  1  0  0  0
  7  8  2  0  0  0
  7 26  1  0  0  0
  7 29  1  0  0  0
  8  9  1  0  0  0
  8 22  1  0  0  0
  9 10  1  0  0  0
  9 27  2  0  0  0
 10 11  2  0  0  0
 10 15  1  0  0  0
 11 12  1  0  0  0
 11100  1  0  0  0
 12 13  2  0  0  0
 12101  1  0  0  0
 13 14  1  0  0  0
 13 31  1  0  0  0
 14 15  2  0  0  0
 14102  1  0  0  0
 15103  1  0  0  0
 16 17  2  0  0  0
 16 21  1  0  0  0
 16 31  1  0  0  0
 17 18  1  0  0  0
 17104  1  0  0  0
 18 19  2  0  0  0
 18105  1  0  0  0
 19 20  1  0  0  0
 19 24  1  0  0  0
 20 21  2  0  0  0
 20106  1  0  0  0
 21 23  1  0  0  0
 22 28  1  0  0  0
 22 32  2  0  0  0
 26 27  1  0  0  0
 28107  1  0  0  0
 28108  1  0  0  0
 29109  1  0  0  0
 29110  1  0  0  0
 33 34  1  0  0  0
 33 66  1  0  0  0
 33 70  2  0  0  0
 34 36  1  0  0  0
 34 59  1  0  0  0
 34111  1  0  0  0
 35 44  2  0  0  0
 35 45  1  0  0  0
 35 68  1  0  0  0
 36 56  1  0  0  0
 36112  1  0  0  0
 37 39  1  0  0  0
 37 47  1  0  0  0
 37 66  1  0  0  0
 37113  1  0  0  0
 38 43  2  0  0  0
 38 46  1  0  0  0
 38 47  1  0  0  0
 39 64  1  0  0  0
 39 67  2  0  0  0
 40 52  1  0  0  0
 40 53  2  0  0  0
 40 58  1  0  0  0
 41114  1  0  0  0
 41115  1  0  0  0
 41116  1  0  0  0
 41 48  1  0  0  0
 42 43  1  0  0  0
 42 66  1  0  0  0
 42117  1  0  0  0
 42118  1  0  0  0
 43 44  1  0  0  0
 44119  1  0  0  0
 45 46  2  0  0  0
 45120  1  0  0  0
 46121  1  0  0  0
 47122  1  0  0  0
 47123  1  0  0  0
 48 56  1  0  0  0
 48 65  1  0  0  0
 48124  1  0  0  0
 49 50  1  0  0  0
 49 53  1  0  0  0
 49 64  1  0  0  0
 49125  1  0  0  0
 50 51  1  0  0  0
 50126  1  0  0  0
 50127  1  0  0  0
 51 52  1  0  0  0
 51128  1  0  0  0
 51129  1  0  0  0
 52130  1  0  0  0
 52131  1  0  0  0
 53 54  1  0  0  0
 54 55  2  0  0  0
 54132  1  0  0  0
 55 57  1  0  0  0
 55133  1  0  0  0
 56 69  2  0  0  0
 57 58  2  0  0  0
 57134  1  0  0  0
 58135  1  0  0  0
 59 60  1  0  0  0
 59 61  1  0  0  0
 59 62  1  0  0  0
 60136  1  0  0  0
 60137  1  0  0  0
 60138  1  0  0  0
 61139  1  0  0  0
 61140  1  0  0  0
 61141  1  0  0  0
 62142  1  0  0  0
 62143  1  0  0  0
 62144  1  0  0  0
 63 65  1  0  0  0
 63145  1  0  0  0
 63146  1  0  0  0
 63147  1  0  0  0
 64148  1  0  0  0
 65149  1  0  0  0
 68 81  1  0  0  0
 71 72  2  0  0  0
 71 75  1  0  0  0
 71150  1  0  0  0
 72 76  1  0  0  0
 72151  1  0  0  0
 73 74  1  0  0  0
 73 75  2  0  0  0
 73152  1  0  0  0
 74 76  2  0  0  0
 74 84  1  0  0  0
 75 85  1  0  0  0
 76 86  1  0  0  0
 77 78  1  0  0  0
 77 79  1  0  0  0
 77 81  2  0  0  0
 78 80  2  0  0  0
 78 82  1  0  0  0
 79 85  1  0  0  0
 79 87  2  0  0  0
 80153  1  0  0  0
 80154  1  0  0  0
 81 83  1  0  0  0
 82 85  1  0  0  0
 82155  1  0  0  0
 82156  1  0  0  0
 83157  1  0  0  0
 83158  1  0  0  0
 83159  1  0  0  0
 84 88  1  0  0  0
 84 89  1  0  0  0
 84 90  1  0  0  0
 86160  1  0  0  0
M  ISO  4   1 100  68 101  81 101  86 100
M  END
> <chiral flag>
0

> <version>
0

> <s_m_source_file>
/data/baiqing/PycharmProjects/Reinvent-master-3.2/result/LINK_invent/BTK/process_docking_weight1_custom_product_contain_oxygen_bond_distance_aromatic_linkinvent_7_9_3/rearranged_h_0077.sdf

> <i_m_source_file_index>
52

> <r_mmod_Potential_Energy-OPLS-2005>
345.112854003906

> <r_mmod_Stretch_Energy-OPLS-2005>
105.837539672852

> <r_mmod_Bend_Energy-OPLS-2005>
196.9609375

> <r_mmod_Torsional_Energy-OPLS-2005>
291.569671630859

> <r_mmod_Improper_Torsional_Energy-OPLS-2005>
6.90043306350708

> <r_mmod_Van_der_Waal_Energy-OPLS-2005>
143.115295410156

> <r_mmod_Electrostatic_Energy-OPLS-2005>
-265.173004150391

> <r_mmod_Solvation_Energy-OPLS-2005>
-200.701782226562

> <b_mmod_Minimization_Converged-OPLS-2005>
0

> <r_mmod_RMS_Derivative-OPLS-2005>
0.308575630187988

$$$$
52
                    3D
 Structure written by MMmdl.
156164  0  0  1  0            999 V2000
  -30.7409  -14.4302   20.6294 C   0  0  0  0  0  0
  -30.4148  -12.3080   19.4084 C   0  0  0  0  0  0
  -29.4855  -12.5167   18.1977 C   0  0  0  0  0  0
  -28.0088  -12.3748   18.6138 C   0  0  0  0  0  0
  -27.6606  -13.2082   19.8761 C   0  0  2  0  0  0
  -28.7021  -12.9819   20.9944 C   0  0  0  0  0  0
  -25.2579  -13.8163   20.5681 C   0  0  0  0  0  0
  -24.1834  -13.0441   20.9177 C   0  0  0  0  0  0
  -24.6390  -11.6907   20.8737 C   0  0  0  0  0  0
  -23.9058  -10.4294   21.0407 C   0  0  0  0  0  0
  -24.3614   -9.4211   21.9184 C   0  0  0  0  0  0
  -23.6293   -8.2244   22.0753 C   0  0  0  0  0  0
  -22.4273   -8.0282   21.3546 C   0  0  0  0  0  0
  -21.9907   -9.0254   20.4644 C   0  0  0  0  0  0
  -22.7232  -10.2136   20.3055 C   0  0  0  0  0  0
  -21.6854   -6.0736   22.5279 C   0  0  0  0  0  0
  -21.4012   -6.5641   23.8211 C   0  0  0  0  0  0
  -21.3659   -5.6796   24.9174 C   0  0  0  0  0  0
  -21.6043   -4.3058   24.7227 C   0  0  0  0  0  0
  -21.8821   -3.8149   23.4348 C   0  0  0  0  0  0
  -21.9192   -4.6963   22.3403 C   0  0  0  0  0  0
  -22.7857  -13.5241   21.1842 C   0  0  0  0  0  0
  -22.1662   -4.2151   21.0980 F   0  0  0  0  0  0
  -21.5629   -3.4540   25.7739 F   0  0  0  0  0  0
  -30.0331  -13.2843   20.4413 N   0  0  0  0  0  0
  -26.3018  -12.9338   20.3378 N   0  0  0  0  0  0
  -25.9317  -11.6496   20.5770 N   0  0  0  0  0  0
  -22.0497  -12.8232   22.0397 N   0  0  0  0  0  0
  -25.4306  -15.1882   20.4083 N   0  0  0  0  0  0
  -31.8326  -14.6308   20.0873 O   0  0  0  0  0  0
  -21.6639   -6.8879   21.4243 O   0  0  0  0  0  0
  -22.3545  -14.5549   20.6692 O   0  0  0  0  0  0
  -24.6133  -31.8681   23.2106 C   0  0  0  0  0  0
  -25.9031  -32.4823   23.8394 C   0  0  1  0  0  0
  -27.2340  -27.4337   20.0919 C   0  0  0  0  0  0
  -25.5896  -33.8623   24.2326 N   0  0  0  0  0  0
  -23.3997  -30.4921   21.5510 C   0  0  2  0  0  0
  -24.8435  -28.9566   20.1162 C   0  0  0  0  0  0
  -22.7400  -29.4658   22.4997 C   0  0  0  0  0  0
  -18.0265  -28.1369   22.8488 C   0  0  0  0  0  0
  -24.1494  -36.7318   23.2637 C   0  0  0  0  0  0
  -25.9277  -30.8345   21.3611 C   0  0  0  0  0  0
  -26.0035  -29.4680   20.7087 C   0  0  0  0  0  0
  -27.1979  -28.7143   20.6917 C   0  0  0  0  0  0
  -26.0491  -26.9322   19.5023 C   0  0  0  0  0  0
  -24.8610  -27.6876   19.5129 C   0  0  0  0  0  0
  -23.6066  -29.8246   20.1652 C   0  0  0  0  0  0
  -25.4110  -36.3116   24.0336 C   0  0  1  0  0  0
  -20.5851  -28.3645   23.1325 C   0  0  2  0  0  0
  -20.6763  -26.9385   22.5416 C   0  0  0  0  0  0
  -19.5748  -26.6379   21.5207 C   0  0  0  0  0  0
  -18.1920  -26.7919   22.1615 C   0  0  0  0  0  0
  -19.1513  -28.8826   23.2905 C   0  0  0  0  0  0
  -18.9451  -30.1438   23.8901 C   0  0  0  0  0  0
  -17.6456  -30.6579   24.0563 C   0  0  0  0  0  0
  -25.9038  -34.9478   23.5129 C   0  0  0  0  0  0
  -16.5343  -29.9078   23.6331 C   0  0  0  0  0  0
  -16.7257  -28.6499   23.0341 C   0  0  0  0  0  0
  -26.4472  -31.6595   25.0709 C   0  0  0  0  0  0
  -25.3756  -31.3675   26.1470 C   0  0  0  0  0  0
  -27.0299  -30.3044   24.6059 C   0  0  0  0  0  0
  -27.6053  -32.4305   25.7470 C   0  0  0  0  0  0
  -27.5584  -37.1812   24.8466 C   0  0  0  0  0  0
  -21.4126  -29.3025   22.3746 N   0  0  0  0  0  0
  -26.4301  -37.3793   23.9405 N   0  0  0  0  0  0
  -24.6652  -31.0789   22.0997 N   0  0  0  0  0  0
  -23.4182  -28.8195   23.3028 O   0  0  0  0  0  0
  -28.4356  -26.7483   20.1015 O   0  0  0  0  0  0
  -26.5596  -34.8924   22.4690 O   0  0  0  0  0  0
  -23.5329  -32.1436   23.7508 O   0  0  0  0  0  0
  -32.6245  -17.6152   23.0651 C   0  0  0  0  0  0
  -31.9338  -18.8388   23.0729 C   0  0  0  0  0  0
  -32.0334  -16.4788   22.4893 C   0  0  0  0  0  0
  -30.0625  -17.8009   21.9043 C   0  0  0  0  0  0
  -30.6473  -18.9466   22.5041 C   0  0  0  0  0  0
  -30.7513  -16.5584   21.8974 C   0  0  0  0  0  0
  -30.0038  -20.2749   22.5601 C   0  0  0  0  0  0
  -29.1973  -20.8623   21.6518 C   0  0  0  0  0  0
  -28.6338  -22.1473   21.8743 C   0  0  0  0  0  0
  -28.2081  -24.4486   20.9869 C   0  0  0  0  0  0
  -28.5058  -25.3469   19.7675 C   0  0  0  0  0  0
  -30.1364  -15.3874   21.3606 N   0  0  0  0  0  0
  -28.6992  -23.0937   20.8993 N   0  0  0  0  0  0
  -28.0435  -22.3636   23.0658 N   0  3  0  0  0  0
  -27.6138  -24.8647   21.9933 O   0  0  0  0  0  0
  -31.4586  -12.4022   19.1035 H   0  0  0  0  0  0
  -30.3136  -11.2943   19.7995 H   0  0  0  0  0  0
  -29.7230  -11.7994   17.4110 H   0  0  0  0  0  0
  -29.6522  -13.5066   17.7700 H   0  0  0  0  0  0
  -27.8172  -11.3176   18.8024 H   0  0  0  0  0  0
  -27.3563  -12.6574   17.7867 H   0  0  0  0  0  0
  -27.7080  -14.2579   19.5864 H   0  0  0  0  0  0
  -28.6778  -11.9437   21.3296 H   0  0  0  0  0  0
  -28.4602  -13.5751   21.8770 H   0  0  0  0  0  0
  -25.2761   -9.5689   22.4755 H   0  0  0  0  0  0
  -24.0004   -7.4636   22.7473 H   0  0  0  0  0  0
  -21.0838   -8.8771   19.8952 H   0  0  0  0  0  0
  -22.3690  -10.9674   19.6163 H   0  0  0  0  0  0
  -21.2004   -7.6149   23.9717 H   0  0  0  0  0  0
  -21.1479   -6.0523   25.9078 H   0  0  0  0  0  0
  -22.0600   -2.7611   23.2846 H   0  0  0  0  0  0
  -22.4109  -11.9886   22.4776 H   0  0  0  0  0  0
  -21.1116  -13.1259   22.2606 H   0  0  0  0  0  0
  -24.6641  -15.8449   20.5098 H   0  0  0  0  0  0
  -26.2851  -15.6255   20.0864 H   0  0  0  0  0  0
  -26.7099  -32.5536   23.1148 H   0  0  0  0  0  0
  -25.0060  -33.9789   25.0482 H   0  0  0  0  0  0
  -22.6870  -31.3084   21.4128 H   0  0  0  0  0  0
  -23.3749  -35.9663   23.3319 H   0  0  0  0  0  0
  -24.3581  -36.8910   22.2048 H   0  0  0  0  0  0
  -23.7255  -37.6530   23.6643 H   0  0  0  0  0  0
  -26.0366  -31.6011   20.5930 H   0  0  0  0  0  0
  -26.8174  -30.8886   21.9767 H   0  0  0  0  0  0
  -28.0953  -29.1107   21.1446 H   0  0  0  0  0  0
  -26.0100  -25.9666   19.0230 H   0  0  0  0  0  0
  -23.9676  -27.2865   19.0550 H   0  0  0  0  0  0
  -23.7144  -30.6003   19.4060 H   0  0  0  0  0  0
  -22.7307  -29.2440   19.8701 H   0  0  0  0  0  0
  -25.1290  -36.1982   25.0829 H   0  0  0  0  0  0
  -20.9938  -28.3209   24.1451 H   0  0  0  0  0  0
  -20.5668  -26.2249   23.3594 H   0  0  0  0  0  0
  -21.6636  -26.7439   22.1208 H   0  0  0  0  0  0
  -19.6913  -25.6296   21.1221 H   0  0  0  0  0  0
  -19.6694  -27.3212   20.6753 H   0  0  0  0  0  0
  -17.4194  -26.6660   21.4019 H   0  0  0  0  0  0
  -18.0318  -26.0059   22.9007 H   0  0  0  0  0  0
  -19.7932  -30.7247   24.2267 H   0  0  0  0  0  0
  -17.5015  -31.6265   24.5162 H   0  0  0  0  0  0
  -15.5346  -30.2981   23.7661 H   0  0  0  0  0  0
  -15.8652  -28.0832   22.7033 H   0  0  0  0  0  0
  -24.5948  -30.6993   25.7819 H   0  0  0  0  0  0
  -24.8928  -32.2816   26.4935 H   0  0  0  0  0  0
  -25.8142  -30.8850   27.0214 H   0  0  0  0  0  0
  -26.2826  -29.6789   24.1163 H   0  0  0  0  0  0
  -27.4133  -29.7283   25.4492 H   0  0  0  0  0  0
  -27.8635  -30.4363   23.9157 H   0  0  0  0  0  0
  -27.2685  -33.3600   26.2064 H   0  0  0  0  0  0
  -28.3862  -32.6853   25.0299 H   0  0  0  0  0  0
  -28.0722  -31.8410   26.5371 H   0  0  0  0  0  0
  -28.2609  -38.0106   24.7505 H   0  0  0  0  0  0
  -28.1072  -36.2629   24.6307 H   0  0  0  0  0  0
  -27.2295  -37.1480   25.8869 H   0  0  0  0  0  0
  -20.9274  -29.8747   21.6977 H   0  0  0  0  0  0
  -26.0194  -38.2875   24.1400 H   0  0  0  0  0  0
  -33.6082  -17.5458   23.5079 H   0  0  0  0  0  0
  -32.4036  -19.7030   23.5227 H   0  0  0  0  0  0
  -32.5760  -15.5436   22.5154 H   0  0  0  0  0  0
  -29.0751  -17.8703   21.4706 H   0  0  0  0  0  0
  -30.2068  -20.8321   23.4639 H   0  0  0  0  0  0
  -28.9716  -20.3785   20.7117 H   0  0  0  0  0  0
  -27.8961  -25.0655   18.9111 H   0  0  0  0  0  0
  -29.5340  -25.1555   19.4611 H   0  0  0  0  0  0
  -29.1662  -15.2307   21.5889 H   0  0  0  0  0  0
  -29.1807  -22.7778   20.0731 H   0  0  0  0  0  0
  -27.9652  -21.6304   23.7530 H   0  0  0  0  0  0
  -27.6343  -23.2699   23.2633 H   0  0  0  0  0  0
  1 25  1  0  0  0
  1 30  2  0  0  0
  1 82  1  0  0  0
  2  3  1  0  0  0
  2 25  1  0  0  0
  2 86  1  0  0  0
  2 87  1  0  0  0
  3  4  1  0  0  0
  3 88  1  0  0  0
  3 89  1  0  0  0
  4  5  1  0  0  0
  4 90  1  0  0  0
  4 91  1  0  0  0
  5  6  1  0  0  0
  5 26  1  0  0  0
  5 92  1  0  0  0
  6 25  1  0  0  0
  6 93  1  0  0  0
  6 94  1  0  0  0
  7  8  2  0  0  0
  7 26  1  0  0  0
  7 29  1  0  0  0
  8  9  1  0  0  0
  8 22  1  0  0  0
  9 10  1  0  0  0
  9 27  2  0  0  0
 10 11  2  0  0  0
 10 15  1  0  0  0
 11 12  1  0  0  0
 11 95  1  0  0  0
 12 13  2  0  0  0
 12 96  1  0  0  0
 13 14  1  0  0  0
 13 31  1  0  0  0
 14 15  2  0  0  0
 14 97  1  0  0  0
 15 98  1  0  0  0
 16 17  2  0  0  0
 16 21  1  0  0  0
 16 31  1  0  0  0
 17 18  1  0  0  0
 17 99  1  0  0  0
 18 19  2  0  0  0
 18100  1  0  0  0
 19 20  1  0  0  0
 19 24  1  0  0  0
 20 21  2  0  0  0
 20101  1  0  0  0
 21 23  1  0  0  0
 22 28  1  0  0  0
 22 32  2  0  0  0
 26 27  1  0  0  0
 28102  1  0  0  0
 28103  1  0  0  0
 29104  1  0  0  0
 29105  1  0  0  0
 33 34  1  0  0  0
 33 66  1  0  0  0
 33 70  2  0  0  0
 34 36  1  0  0  0
 34 59  1  0  0  0
 34106  1  0  0  0
 35 44  2  0  0  0
 35 45  1  0  0  0
 35 68  1  0  0  0
 36 56  1  0  0  0
 36107  1  0  0  0
 37 39  1  0  0  0
 37 47  1  0  0  0
 37 66  1  0  0  0
 37108  1  0  0  0
 38 43  2  0  0  0
 38 46  1  0  0  0
 38 47  1  0  0  0
 39 64  1  0  0  0
 39 67  2  0  0  0
 40 52  1  0  0  0
 40 53  2  0  0  0
 40 58  1  0  0  0
 41109  1  0  0  0
 41110  1  0  0  0
 41111  1  0  0  0
 41 48  1  0  0  0
 42 43  1  0  0  0
 42 66  1  0  0  0
 42112  1  0  0  0
 42113  1  0  0  0
 43 44  1  0  0  0
 44114  1  0  0  0
 45 46  2  0  0  0
 45115  1  0  0  0
 46116  1  0  0  0
 47117  1  0  0  0
 47118  1  0  0  0
 48 56  1  0  0  0
 48 65  1  0  0  0
 48119  1  0  0  0
 49 50  1  0  0  0
 49 53  1  0  0  0
 49 64  1  0  0  0
 49120  1  0  0  0
 50 51  1  0  0  0
 50121  1  0  0  0
 50122  1  0  0  0
 51 52  1  0  0  0
 51123  1  0  0  0
 51124  1  0  0  0
 52125  1  0  0  0
 52126  1  0  0  0
 53 54  1  0  0  0
 54 55  2  0  0  0
 54127  1  0  0  0
 55 57  1  0  0  0
 55128  1  0  0  0
 56 69  2  0  0  0
 57 58  2  0  0  0
 57129  1  0  0  0
 58130  1  0  0  0
 59 60  1  0  0  0
 59 61  1  0  0  0
 59 62  1  0  0  0
 60131  1  0  0  0
 60132  1  0  0  0
 60133  1  0  0  0
 61134  1  0  0  0
 61135  1  0  0  0
 61136  1  0  0  0
 62137  1  0  0  0
 62138  1  0  0  0
 62139  1  0  0  0
 63 65  1  0  0  0
 63140  1  0  0  0
 63141  1  0  0  0
 63142  1  0  0  0
 64143  1  0  0  0
 65144  1  0  0  0
 68 81  1  0  0  0
 71 72  2  0  0  0
 71 73  1  0  0  0
 71145  1  0  0  0
 72 75  1  0  0  0
 72146  1  0  0  0
 73 76  2  0  0  0
 73147  1  0  0  0
 74 75  2  0  0  0
 74 76  1  0  0  0
 74148  1  0  0  0
 75 77  1  0  0  0
 76 82  1  0  0  0
 77 78  2  0  0  0
 77149  1  0  0  0
 78 79  1  0  0  0
 78150  1  0  0  0
 79 83  1  0  0  0
 79 84  2  0  0  0
 80 81  1  0  0  0
 80 83  1  0  0  0
 80 85  2  0  0  0
 81151  1  0  0  0
 81152  1  0  0  0
 82153  1  0  0  0
 83154  1  0  0  0
 84155  1  0  0  0
 84156  1  0  0  0
M  CHG  1  84   1
M  ISO  4   1 100  68 101  81 101  82 100
M  END
> <chiral flag>
0

> <version>
0

> <s_m_source_file>
/data/baiqing/PycharmProjects/Reinvent-master-3.2/result/LINK_invent/BTK/process_docking_weight1_custom_product_contain_oxygen_bond_distance_aromatic_linkinvent_7_9_3/rearranged_h_0077.sdf

> <i_m_source_file_index>
53

> <r_mmod_Potential_Energy-OPLS-2005>
-237.960739135742

> <r_mmod_Stretch_Energy-OPLS-2005>
38.3341178894043

> <r_mmod_Bend_Energy-OPLS-2005>
113.996505737305

> <r_mmod_Torsional_Energy-OPLS-2005>
245.032775878906

> <r_mmod_Improper_Torsional_Energy-OPLS-2005>
2.64761781692505

> <r_mmod_Van_der_Waal_Energy-OPLS-2005>
167.111129760742

> <r_mmod_Electrostatic_Energy-OPLS-2005>
-318.383422851562

> <r_mmod_Solvation_Energy-OPLS-2005>
-497.020568847656

> <b_mmod_Minimization_Converged-OPLS-2005>
0

> <r_mmod_RMS_Derivative-OPLS-2005>
1.10103750228882

$$$$
53
                    3D
 Structure written by MMmdl.
163172  0  0  1  0            999 V2000
  -30.6116  -14.6572   20.5111 C   0  0  0  0  0  0
  -30.4461  -12.4054   19.4601 C   0  0  0  0  0  0
  -29.5140  -12.5049   18.2325 C   0  0  0  0  0  0
  -28.0375  -12.3373   18.6449 C   0  0  0  0  0  0
  -27.6570  -13.2146   19.8669 C   0  0  2  0  0  0
  -28.6996  -13.0695   20.9980 C   0  0  0  0  0  0
  -25.2588  -13.8173   20.5713 C   0  0  0  0  0  0
  -24.1841  -13.0441   20.9178 C   0  0  0  0  0  0
  -24.6394  -11.6909   20.8721 C   0  0  0  0  0  0
  -23.9055  -10.4297   21.0394 C   0  0  0  0  0  0
  -24.3612   -9.4216   21.9168 C   0  0  0  0  0  0
  -23.6286   -8.2258   22.0751 C   0  0  0  0  0  0
  -22.4258   -8.0289   21.3553 C   0  0  0  0  0  0
  -21.9886   -9.0265   20.4663 C   0  0  0  0  0  0
  -22.7220  -10.2143   20.3060 C   0  0  0  0  0  0
  -21.6857   -6.0730   22.5278 C   0  0  0  0  0  0
  -21.4022   -6.5636   23.8209 C   0  0  0  0  0  0
  -21.3660   -5.6790   24.9170 C   0  0  0  0  0  0
  -21.6040   -4.3051   24.7222 C   0  0  0  0  0  0
  -21.8825   -3.8139   23.4345 C   0  0  0  0  0  0
  -21.9195   -4.6957   22.3400 C   0  0  0  0  0  0
  -22.7863  -13.5243   21.1833 C   0  0  0  0  0  0
  -22.1660   -4.2149   21.0978 F   0  0  0  0  0  0
  -21.5623   -3.4534   25.7732 F   0  0  0  0  0  0
  -30.0161  -13.4230   20.4416 N   0  0  0  0  0  0
  -26.3012  -12.9342   20.3337 N   0  0  0  0  0  0
  -25.9327  -11.6501   20.5754 N   0  0  0  0  0  0
  -22.0497  -12.8266   22.0405 N   0  0  0  0  0  0
  -25.4331  -15.1902   20.4215 N   0  0  0  0  0  0
  -31.7505  -14.8433   20.0698 O   0  0  0  0  0  0
  -21.6641   -6.8875   21.4239 O   0  0  0  0  0  0
  -22.3555  -14.5535   20.6658 O   0  0  0  0  0  0
  -24.6280  -31.8583   23.2004 C   0  0  0  0  0  0
  -25.9124  -32.4768   23.8332 C   0  0  1  0  0  0
  -27.2231  -27.3091   20.1142 C   0  0  0  0  0  0
  -25.5928  -33.8565   24.2261 N   0  0  0  0  0  0
  -23.4219  -30.4817   21.5443 C   0  0  2  0  0  0
  -24.8678  -28.9370   20.1094 C   0  0  0  0  0  0
  -22.7480  -29.4609   22.4926 C   0  0  0  0  0  0
  -18.0289  -28.1384   22.8480 C   0  0  0  0  0  0
  -24.1490  -36.7295   23.2631 C   0  0  0  0  0  0
  -25.9642  -30.7861   21.3730 C   0  0  0  0  0  0
  -26.0381  -29.4133   20.7135 C   0  0  0  0  0  0
  -27.2184  -28.6115   20.7053 C   0  0  0  0  0  0
  -26.0275  -26.8884   19.4871 C   0  0  0  0  0  0
  -24.8650  -27.6802   19.4873 C   0  0  0  0  0  0
  -23.6370  -29.8181   20.1590 C   0  0  0  0  0  0
  -25.4107  -36.3071   24.0326 C   0  0  1  0  0  0
  -20.5889  -28.3683   23.1285 C   0  0  2  0  0  0
  -20.6774  -26.9395   22.5428 C   0  0  0  0  0  0
  -19.5758  -26.6371   21.5216 C   0  0  0  0  0  0
  -18.1928  -26.7932   22.1606 C   0  0  0  0  0  0
  -19.1540  -28.8849   23.2882 C   0  0  0  0  0  0
  -18.9465  -30.1452   23.8901 C   0  0  0  0  0  0
  -17.6463  -30.6581   24.0566 C   0  0  0  0  0  0
  -25.9051  -34.9445   23.5096 C   0  0  0  0  0  0
  -16.5357  -29.9082   23.6320 C   0  0  0  0  0  0
  -16.7278  -28.6499   23.0339 C   0  0  0  0  0  0
  -26.4499  -31.6581   25.0710 C   0  0  0  0  0  0
  -25.3733  -31.3783   26.1457 C   0  0  0  0  0  0
  -27.0307  -30.2979   24.6183 C   0  0  0  0  0  0
  -27.6076  -32.4306   25.7459 C   0  0  0  0  0  0
  -27.5594  -37.1774   24.8436 C   0  0  0  0  0  0
  -21.4190  -29.3036   22.3674 N   0  0  0  0  0  0
  -26.4277  -37.3775   23.9423 N   0  0  0  0  0  0
  -24.6903  -31.0590   22.0959 N   0  0  0  0  0  0
  -23.4201  -28.8141   23.3002 O   0  0  0  0  0  0
  -28.3382  -26.4544   20.1691 O   0  0  0  0  0  0
  -26.5626  -34.8922   22.4667 O   0  0  0  0  0  0
  -23.5440  -32.1388   23.7330 O   0  0  0  0  0  0
  -29.4763  -19.3685   21.8889 C   0  0  0  0  0  0
  -29.5118  -17.9480   21.9656 C   0  0  0  0  0  0
  -30.2033  -17.8372   19.6718 C   0  0  0  0  0  0
  -30.1598  -19.2714   19.5723 C   0  0  0  0  0  0
  -29.7875  -20.0837   20.6999 C   0  0  0  0  0  0
  -29.8999  -17.1358   20.8705 C   0  0  0  0  0  0
  -29.2656  -23.9544   20.3311 C   0  0  0  0  0  0
  -30.5318  -24.3305   20.6496 C   0  0  0  0  0  0
  -28.9474  -22.4733   20.2683 C   0  0  0  0  0  0
  -30.5083  -19.8730   18.2387 C   0  0  0  0  0  0
  -31.5877  -23.3409   21.0981 C   0  0  0  0  0  0
  -30.9599  -22.0461   21.6149 C   0  0  0  0  0  0
  -31.0448  -25.7603   20.6005 C   0  0  0  0  0  0
  -28.1368  -24.9945   19.9513 C   0  0  0  0  0  0
  -29.8732  -21.5599   20.7617 N   0  0  0  0  0  0
  -31.3773  -20.8746   18.2423 N   0  0  0  0  0  0
  -29.8364  -15.6771   21.0009 N   0  0  0  0  0  0
  -27.9004  -22.0608   19.7583 O   0  0  0  0  0  0
  -30.0585  -19.4118   17.1918 O   0  0  0  0  0  0
  -31.4853  -12.5398   19.1564 H   0  0  0  0  0  0
  -30.3956  -11.4111   19.9062 H   0  0  0  0  0  0
  -29.7826  -11.7474   17.4947 H   0  0  0  0  0  0
  -29.6529  -13.4705   17.7436 H   0  0  0  0  0  0
  -27.8830  -11.2840   18.8858 H   0  0  0  0  0  0
  -27.3805  -12.5541   17.8027 H   0  0  0  0  0  0
  -27.6771  -14.2492   19.5231 H   0  0  0  0  0  0
  -28.7167  -12.0448   21.3715 H   0  0  0  0  0  0
  -28.4348  -13.6894   21.8550 H   0  0  0  0  0  0
  -25.2762   -9.5689   22.4738 H   0  0  0  0  0  0
  -23.9997   -7.4643   22.7466 H   0  0  0  0  0  0
  -21.0807   -8.8786   19.8978 H   0  0  0  0  0  0
  -22.3665  -10.9678   19.6176 H   0  0  0  0  0  0
  -21.2024   -7.6146   23.9713 H   0  0  0  0  0  0
  -21.1470   -6.0517   25.9070 H   0  0  0  0  0  0
  -22.0601   -2.7599   23.2853 H   0  0  0  0  0  0
  -22.4082  -11.9937   22.4829 H   0  0  0  0  0  0
  -21.1130  -13.1348   22.2603 H   0  0  0  0  0  0
  -24.6768  -15.8509   20.5614 H   0  0  0  0  0  0
  -26.2972  -15.6344   20.1354 H   0  0  0  0  0  0
  -26.7186  -32.5429   23.1068 H   0  0  0  0  0  0
  -25.0056  -33.9700   25.0392 H   0  0  0  0  0  0
  -22.7158  -31.3024   21.4015 H   0  0  0  0  0  0
  -23.3754  -35.9624   23.3255 H   0  0  0  0  0  0
  -24.3598  -36.8960   22.2055 H   0  0  0  0  0  0
  -23.7242  -37.6482   23.6684 H   0  0  0  0  0  0
  -26.0981  -31.5491   20.6055 H   0  0  0  0  0  0
  -26.8440  -30.8339   22.0030 H   0  0  0  0  0  0
  -28.1159  -28.9721   21.1888 H   0  0  0  0  0  0
  -25.9580  -25.9278   19.0006 H   0  0  0  0  0  0
  -23.9681  -27.3074   19.0118 H   0  0  0  0  0  0
  -23.7596  -30.5950   19.4031 H   0  0  0  0  0  0
  -22.7565  -29.2491   19.8550 H   0  0  0  0  0  0
  -25.1278  -36.1907   25.0817 H   0  0  0  0  0  0
  -20.9985  -28.3273   24.1406 H   0  0  0  0  0  0
  -20.5633  -26.2293   23.3633 H   0  0  0  0  0  0
  -21.6658  -26.7400   22.1264 H   0  0  0  0  0  0
  -19.6918  -25.6282   21.1241 H   0  0  0  0  0  0
  -19.6703  -27.3180   20.6746 H   0  0  0  0  0  0
  -17.4206  -26.6701   21.3996 H   0  0  0  0  0  0
  -18.0296  -26.0069   22.8989 H   0  0  0  0  0  0
  -19.7938  -30.7273   24.2268 H   0  0  0  0  0  0
  -17.5015  -31.6258   24.5172 H   0  0  0  0  0  0
  -15.5357  -30.2985   23.7643 H   0  0  0  0  0  0
  -15.8677  -28.0825   22.7048 H   0  0  0  0  0  0
  -24.5903  -30.7108   25.7838 H   0  0  0  0  0  0
  -24.8928  -32.2979   26.4811 H   0  0  0  0  0  0
  -25.8065  -30.9035   27.0270 H   0  0  0  0  0  0
  -26.2872  -29.6746   24.1199 H   0  0  0  0  0  0
  -27.3966  -29.7227   25.4698 H   0  0  0  0  0  0
  -27.8767  -30.4220   23.9420 H   0  0  0  0  0  0
  -27.2692  -33.3587   26.2076 H   0  0  0  0  0  0
  -28.3857  -32.6898   25.0265 H   0  0  0  0  0  0
  -28.0781  -31.8412   26.5337 H   0  0  0  0  0  0
  -28.2567  -38.0114   24.7553 H   0  0  0  0  0  0
  -28.1138  -36.2661   24.6142 H   0  0  0  0  0  0
  -27.2350  -37.1299   25.8845 H   0  0  0  0  0  0
  -20.9353  -29.8778   21.6911 H   0  0  0  0  0  0
  -26.0155  -38.2834   24.1482 H   0  0  0  0  0  0
  -29.2124  -19.9201   22.7801 H   0  0  0  0  0  0
  -29.2457  -17.4797   22.9030 H   0  0  0  0  0  0
  -30.4697  -17.2665   18.7931 H   0  0  0  0  0  0
  -32.1949  -23.7793   21.8916 H   0  0  0  0  0  0
  -32.2585  -23.1450   20.2604 H   0  0  0  0  0  0
  -30.5483  -22.2191   22.6116 H   0  0  0  0  0  0
  -31.7335  -21.2849   21.7324 H   0  0  0  0  0  0
  -30.7180  -26.3182   21.4784 H   0  0  0  0  0  0
  -30.7036  -26.2734   19.7011 H   0  0  0  0  0  0
  -32.1347  -25.7861   20.5726 H   0  0  0  0  0  0
  -27.2538  -24.6934   20.5176 H   0  0  0  0  0  0
  -27.9085  -24.8345   18.8970 H   0  0  0  0  0  0
  -31.7857  -21.1832   19.1105 H   0  0  0  0  0  0
  -31.6665  -21.2972   17.3727 H   0  0  0  0  0  0
  -29.0272  -15.3380   21.4986 H   0  0  0  0  0  0
  1 25  1  0  0  0
  1 30  2  0  0  0
  1 87  1  0  0  0
  2  3  1  0  0  0
  2 25  1  0  0  0
  2 90  1  0  0  0
  2 91  1  0  0  0
  3  4  1  0  0  0
  3 92  1  0  0  0
  3 93  1  0  0  0
  4  5  1  0  0  0
  4 94  1  0  0  0
  4 95  1  0  0  0
  5  6  1  0  0  0
  5 26  1  0  0  0
  5 96  1  0  0  0
  6 25  1  0  0  0
  6 97  1  0  0  0
  6 98  1  0  0  0
  7  8  2  0  0  0
  7 26  1  0  0  0
  7 29  1  0  0  0
  8  9  1  0  0  0
  8 22  1  0  0  0
  9 10  1  0  0  0
  9 27  2  0  0  0
 10 11  2  0  0  0
 10 15  1  0  0  0
 11 12  1  0  0  0
 11 99  1  0  0  0
 12 13  2  0  0  0
 12100  1  0  0  0
 13 14  1  0  0  0
 13 31  1  0  0  0
 14 15  2  0  0  0
 14101  1  0  0  0
 15102  1  0  0  0
 16 17  2  0  0  0
 16 21  1  0  0  0
 16 31  1  0  0  0
 17 18  1  0  0  0
 17103  1  0  0  0
 18 19  2  0  0  0
 18104  1  0  0  0
 19 20  1  0  0  0
 19 24  1  0  0  0
 20 21  2  0  0  0
 20105  1  0  0  0
 21 23  1  0  0  0
 22 28  1  0  0  0
 22 32  2  0  0  0
 26 27  1  0  0  0
 28106  1  0  0  0
 28107  1  0  0  0
 29108  1  0  0  0
 29109  1  0  0  0
 33 34  1  0  0  0
 33 66  1  0  0  0
 33 70  2  0  0  0
 34 36  1  0  0  0
 34 59  1  0  0  0
 34110  1  0  0  0
 35 44  2  0  0  0
 35 45  1  0  0  0
 35 68  1  0  0  0
 36 56  1  0  0  0
 36111  1  0  0  0
 37 39  1  0  0  0
 37 47  1  0  0  0
 37 66  1  0  0  0
 37112  1  0  0  0
 38 43  2  0  0  0
 38 46  1  0  0  0
 38 47  1  0  0  0
 39 64  1  0  0  0
 39 67  2  0  0  0
 40 52  1  0  0  0
 40 53  2  0  0  0
 40 58  1  0  0  0
 41113  1  0  0  0
 41114  1  0  0  0
 41115  1  0  0  0
 41 48  1  0  0  0
 42 43  1  0  0  0
 42 66  1  0  0  0
 42116  1  0  0  0
 42117  1  0  0  0
 43 44  1  0  0  0
 44118  1  0  0  0
 45 46  2  0  0  0
 45119  1  0  0  0
 46120  1  0  0  0
 47121  1  0  0  0
 47122  1  0  0  0
 48 56  1  0  0  0
 48 65  1  0  0  0
 48123  1  0  0  0
 49 50  1  0  0  0
 49 53  1  0  0  0
 49 64  1  0  0  0
 49124  1  0  0  0
 50 51  1  0  0  0
 50125  1  0  0  0
 50126  1  0  0  0
 51 52  1  0  0  0
 51127  1  0  0  0
 51128  1  0  0  0
 52129  1  0  0  0
 52130  1  0  0  0
 53 54  1  0  0  0
 54 55  2  0  0  0
 54131  1  0  0  0
 55 57  1  0  0  0
 55132  1  0  0  0
 56 69  2  0  0  0
 57 58  2  0  0  0
 57133  1  0  0  0
 58134  1  0  0  0
 59 60  1  0  0  0
 59 61  1  0  0  0
 59 62  1  0  0  0
 60135  1  0  0  0
 60136  1  0  0  0
 60137  1  0  0  0
 61138  1  0  0  0
 61139  1  0  0  0
 61140  1  0  0  0
 62141  1  0  0  0
 62142  1  0  0  0
 62143  1  0  0  0
 63 65  1  0  0  0
 63144  1  0  0  0
 63145  1  0  0  0
 63146  1  0  0  0
 64147  1  0  0  0
 65148  1  0  0  0
 68 84  1  0  0  0
 71 72  2  0  0  0
 71 75  1  0  0  0
 71149  1  0  0  0
 72 76  1  0  0  0
 72150  1  0  0  0
 73 74  1  0  0  0
 73 76  2  0  0  0
 73151  1  0  0  0
 74 75  2  0  0  0
 74 80  1  0  0  0
 75 85  1  0  0  0
 76 87  1  0  0  0
 77 78  2  0  0  0
 77 79  1  0  0  0
 77 84  1  0  0  0
 78 81  1  0  0  0
 78 83  1  0  0  0
 79 85  1  0  0  0
 79 88  2  0  0  0
 80 86  1  0  0  0
 80 89  2  0  0  0
 81 82  1  0  0  0
 81152  1  0  0  0
 81153  1  0  0  0
 82 85  1  0  0  0
 82154  1  0  0  0
 82155  1  0  0  0
 83156  1  0  0  0
 83157  1  0  0  0
 83158  1  0  0  0
 84159  1  0  0  0
 84160  1  0  0  0
 86161  1  0  0  0
 86162  1  0  0  0
 87163  1  0  0  0
M  ISO  4   1 100  68 101  84 101  87 100
M  END
> <chiral flag>
0

> <version>
0

> <s_m_source_file>
/data/baiqing/PycharmProjects/Reinvent-master-3.2/result/LINK_invent/BTK/process_docking_weight1_custom_product_contain_oxygen_bond_distance_aromatic_linkinvent_7_9_3/rearranged_h_0077.sdf

> <i_m_source_file_index>
54

> <r_mmod_Potential_Energy-OPLS-2005>
73.1368255615234

> <r_mmod_Stretch_Energy-OPLS-2005>
97.4105606079102

> <r_mmod_Bend_Energy-OPLS-2005>
148.001983642578

> <r_mmod_Torsional_Energy-OPLS-2005>
311.866882324219

> <r_mmod_Improper_Torsional_Energy-OPLS-2005>
4.51957750320435

> <r_mmod_Van_der_Waal_Energy-OPLS-2005>
160.116241455078

> <r_mmod_Electrostatic_Energy-OPLS-2005>
-447.253509521484

> <r_mmod_Solvation_Energy-OPLS-2005>
-255.640167236328

> <b_mmod_Minimization_Converged-OPLS-2005>
0

> <r_mmod_RMS_Derivative-OPLS-2005>
1.62085402011871

$$$$
54
                    3D
 Structure written by MMmdl.
165174  0  0  1  0            999 V2000
  -30.4627  -15.1371   20.4030 C   0  0  0  0  0  0
  -30.4492  -12.7095   19.5459 C   0  0  0  0  0  0
  -29.5450  -12.5757   18.2940 C   0  0  0  0  0  0
  -28.0812  -12.3299   18.6975 C   0  0  0  0  0  0
  -27.6291  -13.2698   19.8424 C   0  0  2  0  0  0
  -28.6608  -13.3656   20.9898 C   0  0  0  0  0  0
  -25.2441  -13.8263   20.5714 C   0  0  0  0  0  0
  -24.1775  -13.0435   20.9203 C   0  0  0  0  0  0
  -24.6432  -11.6929   20.8732 C   0  0  0  0  0  0
  -23.9124  -10.4281   21.0388 C   0  0  0  0  0  0
  -24.3669   -9.4208   21.9201 C   0  0  0  0  0  0
  -23.6323   -8.2241   22.0778 C   0  0  0  0  0  0
  -22.4298   -8.0292   21.3567 C   0  0  0  0  0  0
  -21.9935   -9.0269   20.4650 C   0  0  0  0  0  0
  -22.7277  -10.2150   20.3051 C   0  0  0  0  0  0
  -21.6872   -6.0733   22.5279 C   0  0  0  0  0  0
  -21.4017   -6.5636   23.8213 C   0  0  0  0  0  0
  -21.3668   -5.6798   24.9181 C   0  0  0  0  0  0
  -21.6048   -4.3053   24.7235 C   0  0  0  0  0  0
  -21.8824   -3.8138   23.4353 C   0  0  0  0  0  0
  -21.9194   -4.6947   22.3402 C   0  0  0  0  0  0
  -22.7797  -13.5197   21.1849 C   0  0  0  0  0  0
  -22.1656   -4.2123   21.0982 F   0  0  0  0  0  0
  -21.5642   -3.4545   25.7760 F   0  0  0  0  0  0
  -29.9247  -13.8303   20.4000 N   0  0  0  0  0  0
  -26.2892  -12.9525   20.3265 N   0  0  0  0  0  0
  -25.9377  -11.6620   20.5721 N   0  0  0  0  0  0
  -22.0447  -12.8200   22.0402 N   0  0  0  0  0  0
  -25.4064  -15.2003   20.4172 N   0  0  0  0  0  0
  -31.6471  -15.2017   20.0430 O   0  0  0  0  0  0
  -21.6659   -6.8886   21.4238 O   0  0  0  0  0  0
  -22.3445  -14.5470   20.6646 O   0  0  0  0  0  0
  -24.6549  -31.8270   23.1739 C   0  0  0  0  0  0
  -25.9274  -32.4582   23.8163 C   0  0  1  0  0  0
  -27.2425  -27.0011   20.1929 C   0  0  0  0  0  0
  -25.5980  -33.8388   24.2104 N   0  0  0  0  0  0
  -23.4651  -30.4374   21.5197 C   0  0  2  0  0  0
  -24.9269  -28.8301   20.1115 C   0  0  0  0  0  0
  -22.7626  -29.4443   22.4794 C   0  0  0  0  0  0
  -18.0327  -28.1405   22.8469 C   0  0  0  0  0  0
  -24.1503  -36.7203   23.2646 C   0  0  0  0  0  0
  -26.0276  -30.6552   21.3965 C   0  0  0  0  0  0
  -26.1014  -29.2510   20.7469 C   0  0  0  0  0  0
  -27.2471  -28.3529   20.7710 C   0  0  0  0  0  0
  -26.0421  -26.7076   19.5095 C   0  0  0  0  0  0
  -24.9174  -27.5753   19.4760 C   0  0  0  0  0  0
  -23.7052  -29.7463   20.1466 C   0  0  0  0  0  0
  -25.4131  -36.2948   24.0309 C   0  0  1  0  0  0
  -20.5951  -28.3717   23.1237 C   0  0  2  0  0  0
  -20.6795  -26.9391   22.5424 C   0  0  0  0  0  0
  -19.5770  -26.6366   21.5226 C   0  0  0  0  0  0
  -18.1953  -26.7942   22.1625 C   0  0  0  0  0  0
  -19.1587  -28.8887   23.2834 C   0  0  0  0  0  0
  -18.9502  -30.1506   23.8815 C   0  0  0  0  0  0
  -17.6484  -30.6581   24.0564 C   0  0  0  0  0  0
  -25.9086  -34.9332   23.5026 C   0  0  0  0  0  0
  -16.5376  -29.9061   23.6353 C   0  0  0  0  0  0
  -16.7310  -28.6510   23.0331 C   0  0  0  0  0  0
  -26.4568  -31.6483   25.0648 C   0  0  0  0  0  0
  -25.3735  -31.3753   26.1346 C   0  0  0  0  0  0
  -27.0472  -30.2849   24.6337 C   0  0  0  0  0  0
  -27.6023  -32.4307   25.7468 C   0  0  0  0  0  0
  -27.5573  -37.1748   24.8456 C   0  0  0  0  0  0
  -21.4307  -29.3004   22.3558 N   0  0  0  0  0  0
  -26.4270  -37.3681   23.9423 N   0  0  0  0  0  0
  -24.7355  -30.9996   22.0840 N   0  0  0  0  0  0
  -23.4222  -28.7999   23.2976 O   0  0  0  0  0  0
  -28.3091  -25.9904   20.2902 O   0  0  0  0  0  0
  -26.5666  -34.8846   22.4605 O   0  0  0  0  0  0
  -23.5638  -32.1230   23.6879 O   0  0  0  0  0  0
  -27.8820  -19.1160   18.7830 C   0  0  0  0  0  0
  -28.1998  -20.3947   19.3162 C   0  0  0  0  0  0
  -28.4550  -17.8898   19.2183 C   0  0  0  0  0  0
  -29.6969  -19.1973   20.8005 C   0  0  0  0  0  0
  -29.1524  -20.5654   20.3396 C   0  0  0  0  0  0
  -29.4026  -17.8035   20.2648 C   0  0  0  0  0  0
  -31.9302  -22.8999   21.0609 C   0  0  0  0  0  0
  -29.1717  -23.5055   20.7655 C   0  0  0  0  0  0
  -33.0604  -23.1186   20.3680 C   0  0  0  0  0  0
  -28.3171  -23.6763   23.6147 C   0  0  0  0  0  0
  -28.2995  -24.4785   20.1319 C   0  0  0  0  0  0
  -29.2548  -24.5136   23.1427 C   0  0  0  0  0  0
  -31.4301  -23.7864   22.1503 C   0  0  0  0  0  0
  -31.0361  -21.7055   20.8811 C   0  0  0  0  0  0
  -30.0103  -24.2797   21.8375 C   0  0  1  0  0  0
  -29.6224  -25.7858   23.8849 C   0  0  0  0  0  0
  -29.5929  -21.9898   20.7077 N   0  0  0  0  0  0
  -29.7004  -16.3250   20.7719 N   0  0  0  0  0  0
  -31.4797  -12.8813   19.2374 H   0  0  0  0  0  0
  -30.4762  -11.7730   20.1082 H   0  0  0  0  0  0
  -29.8934  -11.7694   17.6488 H   0  0  0  0  0  0
  -29.6156  -13.4926   17.7075 H   0  0  0  0  0  0
  -27.9975  -11.2922   19.0214 H   0  0  0  0  0  0
  -27.4284  -12.4389   17.8314 H   0  0  0  0  0  0
  -27.5709  -14.2584   19.3866 H   0  0  0  0  0  0
  -28.7850  -12.4055   21.4935 H   0  0  0  0  0  0
  -28.3229  -14.0696   21.7526 H   0  0  0  0  0  0
  -25.2814   -9.5689   22.4805 H   0  0  0  0  0  0
  -24.0012   -7.4648   22.7530 H   0  0  0  0  0  0
  -21.0850   -8.8790   19.8980 H   0  0  0  0  0  0
  -22.3712  -10.9708   19.6170 H   0  0  0  0  0  0
  -21.1995   -7.6143   23.9707 H   0  0  0  0  0  0
  -21.1499   -6.0532   25.9094 H   0  0  0  0  0  0
  -22.0589   -2.7592   23.2876 H   0  0  0  0  0  0
  -22.4031  -11.9868   22.4827 H   0  0  0  0  0  0
  -21.1080  -13.1265   22.2593 H   0  0  0  0  0  0
  -24.6353  -15.8495   20.5372 H   0  0  0  0  0  0
  -26.2498  -15.6562   20.0952 H   0  0  0  0  0  0
  -26.7301  -32.5152   23.0827 H   0  0  0  0  0  0
  -25.0126  -33.9454   25.0261 H   0  0  0  0  0  0
  -22.7686  -31.2633   21.3477 H   0  0  0  0  0  0
  -23.3760  -35.9537   23.3271 H   0  0  0  0  0  0
  -24.3571  -36.8873   22.2059 H   0  0  0  0  0  0
  -23.7246  -37.6378   23.6723 H   0  0  0  0  0  0
  -26.1954  -31.3953   20.6140 H   0  0  0  0  0  0
  -26.8922  -30.7149   22.0486 H   0  0  0  0  0  0
  -28.1303  -28.6681   21.3085 H   0  0  0  0  0  0
  -25.9414  -25.7431   19.0347 H   0  0  0  0  0  0
  -24.0202  -27.2387   18.9726 H   0  0  0  0  0  0
  -23.8444  -30.5125   19.3823 H   0  0  0  0  0  0
  -22.8216  -29.1859   19.8366 H   0  0  0  0  0  0
  -25.1316  -36.1741   25.0792 H   0  0  0  0  0  0
  -21.0031  -28.3301   24.1373 H   0  0  0  0  0  0
  -20.5696  -26.2290   23.3639 H   0  0  0  0  0  0
  -21.6652  -26.7363   22.1210 H   0  0  0  0  0  0
  -19.6905  -25.6276   21.1255 H   0  0  0  0  0  0
  -19.6748  -27.3174   20.6771 H   0  0  0  0  0  0
  -17.4225  -26.6711   21.4016 H   0  0  0  0  0  0
  -18.0330  -26.0099   22.9042 H   0  0  0  0  0  0
  -19.7965  -30.7390   24.2082 H   0  0  0  0  0  0
  -17.5016  -31.6248   24.5196 H   0  0  0  0  0  0
  -15.5367  -30.2924   23.7748 H   0  0  0  0  0  0
  -15.8722  -28.0838   22.7031 H   0  0  0  0  0  0
  -24.5906  -30.7085   25.7718 H   0  0  0  0  0  0
  -24.8954  -32.2974   26.4653 H   0  0  0  0  0  0
  -25.8021  -30.9020   27.0193 H   0  0  0  0  0  0
  -26.3157  -29.6503   24.1320 H   0  0  0  0  0  0
  -27.4015  -29.7207   25.4976 H   0  0  0  0  0  0
  -27.9069  -30.4031   23.9735 H   0  0  0  0  0  0
  -27.2537  -33.3636   26.1915 H   0  0  0  0  0  0
  -28.3921  -32.6824   25.0378 H   0  0  0  0  0  0
  -28.0580  -31.8518   26.5508 H   0  0  0  0  0  0
  -28.2544  -38.0089   24.7508 H   0  0  0  0  0  0
  -28.1122  -36.2605   24.6283 H   0  0  0  0  0  0
  -27.2291  -37.1365   25.8858 H   0  0  0  0  0  0
  -20.9552  -29.8692   21.6708 H   0  0  0  0  0  0
  -26.0127  -38.2740   24.1442 H   0  0  0  0  0  0
  -27.1526  -19.0752   17.9869 H   0  0  0  0  0  0
  -27.7280  -21.2680   18.8882 H   0  0  0  0  0  0
  -28.1036  -16.9808   18.7522 H   0  0  0  0  0  0
  -30.3811  -19.1971   21.6349 H   0  0  0  0  0  0
  -33.6838  -23.9807   20.5589 H   0  0  0  0  0  0
  -33.3951  -22.4309   19.6057 H   0  0  0  0  0  0
  -28.0603  -22.7701   23.0887 H   0  0  0  0  0  0
  -27.7970  -23.8817   24.5372 H   0  0  0  0  0  0
  -27.6233  -24.1847   19.3403 H   0  0  0  0  0  0
  -32.1095  -24.6239   22.3232 H   0  0  0  0  0  0
  -31.4300  -23.1980   23.0704 H   0  0  0  0  0  0
  -31.1761  -21.1294   21.7966 H   0  0  0  0  0  0
  -31.4398  -21.1116   20.0564 H   0  0  0  0  0  0
  -30.2003  -25.2720   21.4249 H   0  0  0  0  0  0
  -29.1677  -25.8226   24.8750 H   0  0  0  0  0  0
  -29.2904  -26.6615   23.3265 H   0  0  0  0  0  0
  -30.7031  -25.8554   24.0149 H   0  0  0  0  0  0
  -28.8934  -15.9710   21.2650 H   0  0  0  0  0  0
  1 25  1  0  0  0
  1 30  2  0  0  0
  1 88  1  0  0  0
  2  3  1  0  0  0
  2 25  1  0  0  0
  2 89  1  0  0  0
  2 90  1  0  0  0
  3  4  1  0  0  0
  3 91  1  0  0  0
  3 92  1  0  0  0
  4  5  1  0  0  0
  4 93  1  0  0  0
  4 94  1  0  0  0
  5  6  1  0  0  0
  5 26  1  0  0  0
  5 95  1  0  0  0
  6 25  1  0  0  0
  6 96  1  0  0  0
  6 97  1  0  0  0
  7  8  2  0  0  0
  7 26  1  0  0  0
  7 29  1  0  0  0
  8  9  1  0  0  0
  8 22  1  0  0  0
  9 10  1  0  0  0
  9 27  2  0  0  0
 10 11  2  0  0  0
 10 15  1  0  0  0
 11 12  1  0  0  0
 11 98  1  0  0  0
 12 13  2  0  0  0
 12 99  1  0  0  0
 13 14  1  0  0  0
 13 31  1  0  0  0
 14 15  2  0  0  0
 14100  1  0  0  0
 15101  1  0  0  0
 16 17  2  0  0  0
 16 21  1  0  0  0
 16 31  1  0  0  0
 17 18  1  0  0  0
 17102  1  0  0  0
 18 19  2  0  0  0
 18103  1  0  0  0
 19 20  1  0  0  0
 19 24  1  0  0  0
 20 21  2  0  0  0
 20104  1  0  0  0
 21 23  1  0  0  0
 22 28  1  0  0  0
 22 32  2  0  0  0
 26 27  1  0  0  0
 28105  1  0  0  0
 28106  1  0  0  0
 29107  1  0  0  0
 29108  1  0  0  0
 33 34  1  0  0  0
 33 66  1  0  0  0
 33 70  2  0  0  0
 34 36  1  0  0  0
 34 59  1  0  0  0
 34109  1  0  0  0
 35 44  2  0  0  0
 35 45  1  0  0  0
 35 68  1  0  0  0
 36 56  1  0  0  0
 36110  1  0  0  0
 37 39  1  0  0  0
 37 47  1  0  0  0
 37 66  1  0  0  0
 37111  1  0  0  0
 38 43  2  0  0  0
 38 46  1  0  0  0
 38 47  1  0  0  0
 39 64  1  0  0  0
 39 67  2  0  0  0
 40 52  1  0  0  0
 40 53  2  0  0  0
 40 58  1  0  0  0
 41112  1  0  0  0
 41113  1  0  0  0
 41114  1  0  0  0
 41 48  1  0  0  0
 42 43  1  0  0  0
 42 66  1  0  0  0
 42115  1  0  0  0
 42116  1  0  0  0
 43 44  1  0  0  0
 44117  1  0  0  0
 45 46  2  0  0  0
 45118  1  0  0  0
 46119  1  0  0  0
 47120  1  0  0  0
 47121  1  0  0  0
 48 56  1  0  0  0
 48 65  1  0  0  0
 48122  1  0  0  0
 49 50  1  0  0  0
 49 53  1  0  0  0
 49 64  1  0  0  0
 49123  1  0  0  0
 50 51  1  0  0  0
 50124  1  0  0  0
 50125  1  0  0  0
 51 52  1  0  0  0
 51126  1  0  0  0
 51127  1  0  0  0
 52128  1  0  0  0
 52129  1  0  0  0
 53 54  1  0  0  0
 54 55  2  0  0  0
 54130  1  0  0  0
 55 57  1  0  0  0
 55131  1  0  0  0
 56 69  2  0  0  0
 57 58  2  0  0  0
 57132  1  0  0  0
 58133  1  0  0  0
 59 60  1  0  0  0
 59 61  1  0  0  0
 59 62  1  0  0  0
 60134  1  0  0  0
 60135  1  0  0  0
 60136  1  0  0  0
 61137  1  0  0  0
 61138  1  0  0  0
 61139  1  0  0  0
 62140  1  0  0  0
 62141  1  0  0  0
 62142  1  0  0  0
 63 65  1  0  0  0
 63143  1  0  0  0
 63144  1  0  0  0
 63145  1  0  0  0
 64146  1  0  0  0
 65147  1  0  0  0
 68 81  1  0  0  0
 71 72  2  0  0  0
 71 73  1  0  0  0
 71148  1  0  0  0
 72 75  1  0  0  0
 72149  1  0  0  0
 73 76  2  0  0  0
 73150  1  0  0  0
 74 75  2  0  0  0
 74 76  1  0  0  0
 74151  1  0  0  0
 75 87  1  0  0  0
 76 88  1  0  0  0
 77 79  2  0  0  0
 77 83  1  0  0  0
 77 84  1  0  0  0
 78 81  2  0  0  0
 78 85  1  0  0  0
 78 87  1  0  0  0
 79152  1  0  0  0
 79153  1  0  0  0
 80 82  2  0  0  0
 80154  1  0  0  0
 80155  1  0  0  0
 81156  1  0  0  0
 82 86  1  0  0  0
 82 85  1  0  0  0
 83 85  1  0  0  0
 83157  1  0  0  0
 83158  1  0  0  0
 84 87  1  0  0  0
 84159  1  0  0  0
 84160  1  0  0  0
 85161  1  0  0  0
 86162  1  0  0  0
 86163  1  0  0  0
 86164  1  0  0  0
 88165  1  0  0  0
M  ISO  4   1 100  68 101  81 101  88 100
M  END
> <chiral flag>
0

> <version>
0

> <s_m_source_file>
/data/baiqing/PycharmProjects/Reinvent-master-3.2/result/LINK_invent/BTK/process_docking_weight1_custom_product_contain_oxygen_bond_distance_aromatic_linkinvent_7_9_3/rearranged_h_0077.sdf

> <i_m_source_file_index>
55

> <r_mmod_Potential_Energy-OPLS-2005>
1033.31518554688

> <r_mmod_Stretch_Energy-OPLS-2005>
438.248901367188

> <r_mmod_Bend_Energy-OPLS-2005>
416.585357666016

> <r_mmod_Torsional_Energy-OPLS-2005>
265.091735839844

> <r_mmod_Improper_Torsional_Energy-OPLS-2005>
7.09038114547729

> <r_mmod_Van_der_Waal_Energy-OPLS-2005>
144.571197509766

> <r_mmod_Electrostatic_Energy-OPLS-2005>
-368.9716796875

> <r_mmod_Solvation_Energy-OPLS-2005>
-206.758697509766

> <b_mmod_Minimization_Converged-OPLS-2005>
0

> <r_mmod_RMS_Derivative-OPLS-2005>
3.62341690063477

$$$$
55
                    3D
 Structure written by MMmdl.
158167  0  0  1  0            999 V2000
  -30.7273  -14.5111   20.5670 C   0  0  0  0  0  0
  -30.4134  -12.3339   19.4384 C   0  0  0  0  0  0
  -29.4931  -12.5080   18.2147 C   0  0  0  0  0  0
  -28.0172  -12.3619   18.6285 C   0  0  0  0  0  0
  -27.6559  -13.2196   19.8711 C   0  0  2  0  0  0
  -28.6989  -13.0508   20.9990 C   0  0  0  0  0  0
  -25.2553  -13.8187   20.5696 C   0  0  0  0  0  0
  -24.1821  -13.0444   20.9189 C   0  0  0  0  0  0
  -24.6394  -11.6919   20.8742 C   0  0  0  0  0  0
  -23.9066  -10.4297   21.0399 C   0  0  0  0  0  0
  -24.3615   -9.4211   21.9177 C   0  0  0  0  0  0
  -23.6292   -8.2245   22.0752 C   0  0  0  0  0  0
  -22.4274   -8.0280   21.3541 C   0  0  0  0  0  0
  -21.9907   -9.0257   20.4645 C   0  0  0  0  0  0
  -22.7236  -10.2137   20.3052 C   0  0  0  0  0  0
  -21.6853   -6.0732   22.5276 C   0  0  0  0  0  0
  -21.4016   -6.5638   23.8207 C   0  0  0  0  0  0
  -21.3664   -5.6791   24.9171 C   0  0  0  0  0  0
  -21.6045   -4.3053   24.7221 C   0  0  0  0  0  0
  -21.8819   -3.8145   23.4343 C   0  0  0  0  0  0
  -21.9193   -4.6960   22.3399 C   0  0  0  0  0  0
  -22.7837  -13.5231   21.1852 C   0  0  0  0  0  0
  -22.1660   -4.2145   21.0979 F   0  0  0  0  0  0
  -21.5632   -3.4537   25.7736 F   0  0  0  0  0  0
  -30.0246  -13.3489   20.4352 N   0  0  0  0  0  0
  -26.2999  -12.9383   20.3366 N   0  0  0  0  0  0
  -25.9327  -11.6531   20.5774 N   0  0  0  0  0  0
  -22.0483  -12.8225   22.0414 N   0  0  0  0  0  0
  -25.4264  -15.1907   20.4111 N   0  0  0  0  0  0
  -31.8495  -14.6456   20.0755 O   0  0  0  0  0  0
  -21.6641   -6.8876   21.4238 O   0  0  0  0  0  0
  -22.3523  -14.5537   20.6701 O   0  0  0  0  0  0
  -24.6192  -31.8656   23.2081 C   0  0  0  0  0  0
  -25.9072  -32.4809   23.8387 C   0  0  1  0  0  0
  -27.2264  -27.4009   20.0992 C   0  0  0  0  0  0
  -25.5918  -33.8608   24.2321 N   0  0  0  0  0  0
  -23.4091  -30.4896   21.5491 C   0  0  2  0  0  0
  -24.8584  -28.9598   20.1048 C   0  0  0  0  0  0
  -22.7436  -29.4642   22.4962 C   0  0  0  0  0  0
  -18.0279  -28.1368   22.8485 C   0  0  0  0  0  0
  -24.1490  -36.7305   23.2636 C   0  0  0  0  0  0
  -25.9431  -30.8212   21.3687 C   0  0  0  0  0  0
  -26.0226  -29.4570   20.7067 C   0  0  0  0  0  0
  -27.2148  -28.6861   20.7001 C   0  0  0  0  0  0
  -26.0495  -26.9356   19.4761 C   0  0  0  0  0  0
  -24.8691  -27.7007   19.4816 C   0  0  0  0  0  0
  -23.6203  -29.8279   20.1618 C   0  0  0  0  0  0
  -25.4109  -36.3103   24.0337 C   0  0  1  0  0  0
  -20.5871  -28.3664   23.1302 C   0  0  2  0  0  0
  -20.6765  -26.9393   22.5411 C   0  0  0  0  0  0
  -19.5747  -26.6377   21.5202 C   0  0  0  0  0  0
  -18.1930  -26.7911   22.1621 C   0  0  0  0  0  0
  -19.1530  -28.8836   23.2887 C   0  0  0  0  0  0
  -18.9456  -30.1443   23.8897 C   0  0  0  0  0  0
  -17.6460  -30.6577   24.0557 C   0  0  0  0  0  0
  -25.9037  -34.9468   23.5124 C   0  0  0  0  0  0
  -16.5348  -29.9074   23.6329 C   0  0  0  0  0  0
  -16.7271  -28.6488   23.0352 C   0  0  0  0  0  0
  -26.4485  -31.6588   25.0723 C   0  0  0  0  0  0
  -25.3745  -31.3712   26.1471 C   0  0  0  0  0  0
  -27.0302  -30.3016   24.6117 C   0  0  0  0  0  0
  -27.6063  -32.4304   25.7482 C   0  0  0  0  0  0
  -27.5583  -37.1807   24.8465 C   0  0  0  0  0  0
  -21.4160  -29.3023   22.3703 N   0  0  0  0  0  0
  -26.4294  -37.3791   23.9413 N   0  0  0  0  0  0
  -24.6753  -31.0728   22.1002 N   0  0  0  0  0  0
  -23.4192  -28.8181   23.3017 O   0  0  0  0  0  0
  -28.3074  -26.5388   20.1733 O   0  0  0  0  0  0
  -26.5598  -34.8927   22.4683 O   0  0  0  0  0  0
  -23.5378  -32.1428   23.7455 O   0  0  0  0  0  0
  -31.1312  -19.1501   20.7677 C   0  0  0  0  0  0
  -28.8947  -18.4550   21.2270 C   0  0  0  0  0  0
  -30.6764  -20.4606   20.4799 C   0  0  0  0  0  0
  -28.4487  -19.7780   20.9653 C   0  0  0  0  0  0
  -30.2669  -18.1064   21.1877 C   0  0  0  0  0  0
  -29.3202  -20.8412   20.6088 C   0  0  0  0  0  0
  -28.4466  -24.1227   20.7752 C   0  0  0  0  0  0
  -29.3042  -23.4022   19.8614 C   0  0  0  0  0  0
  -28.0468  -25.4119   20.9443 C   0  0  0  0  0  0
  -30.8865  -16.7923   23.1874 C   0  0  0  0  0  0
  -28.1376  -22.8363   21.5212 C   0  0  0  0  0  0
  -31.8169  -15.7896   23.8577 C   0  0  0  0  0  0
  -30.8566  -16.7666   21.6399 C   0  0  1  0  0  0
  -28.8439  -22.1870   20.4090 N   0  0  0  0  0  0
  -30.1337  -15.5437   21.2082 N   0  0  0  0  0  0
  -30.1523  -23.7718   19.0752 O   0  0  0  0  0  0
  -30.1877  -17.5182   23.9014 O   0  0  0  0  0  0
  -31.4600  -12.4121   19.1390 H   0  0  0  0  0  0
  -30.3049  -11.3335   19.8604 H   0  0  0  0  0  0
  -29.7414  -11.7732   17.4479 H   0  0  0  0  0  0
  -29.6553  -13.4893   17.7651 H   0  0  0  0  0  0
  -27.8395  -11.3075   18.8426 H   0  0  0  0  0  0
  -27.3642  -12.6156   17.7929 H   0  0  0  0  0  0
  -27.6867  -14.2615   19.5514 H   0  0  0  0  0  0
  -28.6821  -12.0300   21.3839 H   0  0  0  0  0  0
  -28.4569  -13.6901   21.8489 H   0  0  0  0  0  0
  -25.2759   -9.5685   22.4756 H   0  0  0  0  0  0
  -24.0000   -7.4633   22.7469 H   0  0  0  0  0  0
  -21.0838   -8.8773   19.8950 H   0  0  0  0  0  0
  -22.3689  -10.9676   19.6166 H   0  0  0  0  0  0
  -21.2008   -7.6145   23.9713 H   0  0  0  0  0  0
  -21.1491   -6.0521   25.9077 H   0  0  0  0  0  0
  -22.0597   -2.7608   23.2844 H   0  0  0  0  0  0
  -22.4100  -11.9885   22.4797 H   0  0  0  0  0  0
  -21.1101  -13.1250   22.2625 H   0  0  0  0  0  0
  -24.6583  -15.8448   20.5171 H   0  0  0  0  0  0
  -26.2756  -15.6290   20.0772 H   0  0  0  0  0  0
  -26.7139  -32.5511   23.1146 H   0  0  0  0  0  0
  -25.0081  -33.9761   25.0477 H   0  0  0  0  0  0
  -22.6980  -31.3063   21.4105 H   0  0  0  0  0  0
  -23.3748  -35.9641   23.3311 H   0  0  0  0  0  0
  -24.3580  -36.8906   22.2047 H   0  0  0  0  0  0
  -23.7248  -37.6519   23.6637 H   0  0  0  0  0  0
  -26.0633  -31.5907   20.6045 H   0  0  0  0  0  0
  -26.8273  -30.8681   21.9928 H   0  0  0  0  0  0
  -28.1075  -29.0537   21.1869 H   0  0  0  0  0  0
  -26.0396  -25.9587   19.0134 H   0  0  0  0  0  0
  -23.9745  -27.3130   19.0137 H   0  0  0  0  0  0
  -23.7271  -30.6074   19.4064 H   0  0  0  0  0  0
  -22.7439  -29.2497   19.8640 H   0  0  0  0  0  0
  -25.1281  -36.1959   25.0829 H   0  0  0  0  0  0
  -20.9961  -28.3234   24.1423 H   0  0  0  0  0  0
  -20.5662  -26.2270   23.3602 H   0  0  0  0  0  0
  -21.6635  -26.7423   22.1200 H   0  0  0  0  0  0
  -19.6910  -25.6290   21.1224 H   0  0  0  0  0  0
  -19.6694  -27.3192   20.6736 H   0  0  0  0  0  0
  -17.4194  -26.6658   21.4027 H   0  0  0  0  0  0
  -18.0338  -26.0044   22.9012 H   0  0  0  0  0  0
  -19.7936  -30.7254   24.2264 H   0  0  0  0  0  0
  -17.5013  -31.6259   24.5154 H   0  0  0  0  0  0
  -15.5350  -30.2978   23.7650 H   0  0  0  0  0  0
  -15.8665  -28.0810   22.7069 H   0  0  0  0  0  0
  -24.5909  -30.7067   25.7814 H   0  0  0  0  0  0
  -24.8954  -32.2877   26.4920 H   0  0  0  0  0  0
  -25.8097  -30.8879   27.0225 H   0  0  0  0  0  0
  -26.2847  -29.6785   24.1157 H   0  0  0  0  0  0
  -27.4037  -29.7245   25.4586 H   0  0  0  0  0  0
  -27.8705  -30.4312   23.9291 H   0  0  0  0  0  0
  -27.2680  -33.3592   26.2084 H   0  0  0  0  0  0
  -28.3858  -32.6880   25.0300 H   0  0  0  0  0  0
  -28.0737  -31.8405   26.5375 H   0  0  0  0  0  0
  -28.2606  -38.0100   24.7505 H   0  0  0  0  0  0
  -28.1075  -36.2632   24.6291 H   0  0  0  0  0  0
  -27.2300  -37.1450   25.8869 H   0  0  0  0  0  0
  -20.9326  -29.8747   21.6922 H   0  0  0  0  0  0
  -26.0182  -38.2869   24.1417 H   0  0  0  0  0  0
  -32.1938  -18.9606   20.6998 H   0  0  0  0  0  0
  -28.1686  -17.7135   21.5295 H   0  0  0  0  0  0
  -31.4079  -21.2035   20.1949 H   0  0  0  0  0  0
  -27.3914  -19.9822   21.0609 H   0  0  0  0  0  0
  -27.3775  -25.6478   21.7619 H   0  0  0  0  0  0
  -27.0958  -22.5194   21.5882 H   0  0  0  0  0  0
  -28.6457  -22.6912   22.4771 H   0  0  0  0  0  0
  -31.2361  -14.9929   24.3216 H   0  0  0  0  0  0
  -32.4135  -16.2800   24.6263 H   0  0  0  0  0  0
  -32.4936  -15.3421   23.1301 H   0  0  0  0  0  0
  -31.8940  -16.7255   21.3049 H   0  0  0  0  0  0
  -29.2058  -15.4001   21.5738 H   0  0  0  0  0  0
  1 25  1  0  0  0
  1 30  2  0  0  0
  1 85  1  0  0  0
  2  3  1  0  0  0
  2 25  1  0  0  0
  2 88  1  0  0  0
  2 89  1  0  0  0
  3  4  1  0  0  0
  3 90  1  0  0  0
  3 91  1  0  0  0
  4  5  1  0  0  0
  4 92  1  0  0  0
  4 93  1  0  0  0
  5  6  1  0  0  0
  5 26  1  0  0  0
  5 94  1  0  0  0
  6 25  1  0  0  0
  6 95  1  0  0  0
  6 96  1  0  0  0
  7  8  2  0  0  0
  7 26  1  0  0  0
  7 29  1  0  0  0
  8  9  1  0  0  0
  8 22  1  0  0  0
  9 10  1  0  0  0
  9 27  2  0  0  0
 10 11  2  0  0  0
 10 15  1  0  0  0
 11 12  1  0  0  0
 11 97  1  0  0  0
 12 13  2  0  0  0
 12 98  1  0  0  0
 13 14  1  0  0  0
 13 31  1  0  0  0
 14 15  2  0  0  0
 14 99  1  0  0  0
 15100  1  0  0  0
 16 17  2  0  0  0
 16 21  1  0  0  0
 16 31  1  0  0  0
 17 18  1  0  0  0
 17101  1  0  0  0
 18 19  2  0  0  0
 18102  1  0  0  0
 19 20  1  0  0  0
 19 24  1  0  0  0
 20 21  2  0  0  0
 20103  1  0  0  0
 21 23  1  0  0  0
 22 28  1  0  0  0
 22 32  2  0  0  0
 26 27  1  0  0  0
 28104  1  0  0  0
 28105  1  0  0  0
 29106  1  0  0  0
 29107  1  0  0  0
 33 34  1  0  0  0
 33 66  1  0  0  0
 33 70  2  0  0  0
 34 36  1  0  0  0
 34 59  1  0  0  0
 34108  1  0  0  0
 35 44  2  0  0  0
 35 45  1  0  0  0
 35 68  1  0  0  0
 36 56  1  0  0  0
 36109  1  0  0  0
 37 39  1  0  0  0
 37 47  1  0  0  0
 37 66  1  0  0  0
 37110  1  0  0  0
 38 43  2  0  0  0
 38 46  1  0  0  0
 38 47  1  0  0  0
 39 64  1  0  0  0
 39 67  2  0  0  0
 40 52  1  0  0  0
 40 53  2  0  0  0
 40 58  1  0  0  0
 41111  1  0  0  0
 41112  1  0  0  0
 41113  1  0  0  0
 41 48  1  0  0  0
 42 43  1  0  0  0
 42 66  1  0  0  0
 42114  1  0  0  0
 42115  1  0  0  0
 43 44  1  0  0  0
 44116  1  0  0  0
 45 46  2  0  0  0
 45117  1  0  0  0
 46118  1  0  0  0
 47119  1  0  0  0
 47120  1  0  0  0
 48 56  1  0  0  0
 48 65  1  0  0  0
 48121  1  0  0  0
 49 50  1  0  0  0
 49 53  1  0  0  0
 49 64  1  0  0  0
 49122  1  0  0  0
 50 51  1  0  0  0
 50123  1  0  0  0
 50124  1  0  0  0
 51 52  1  0  0  0
 51125  1  0  0  0
 51126  1  0  0  0
 52127  1  0  0  0
 52128  1  0  0  0
 53 54  1  0  0  0
 54 55  2  0  0  0
 54129  1  0  0  0
 55 57  1  0  0  0
 55130  1  0  0  0
 56 69  2  0  0  0
 57 58  2  0  0  0
 57131  1  0  0  0
 58132  1  0  0  0
 59 60  1  0  0  0
 59 61  1  0  0  0
 59 62  1  0  0  0
 60133  1  0  0  0
 60134  1  0  0  0
 60135  1  0  0  0
 61136  1  0  0  0
 61137  1  0  0  0
 61138  1  0  0  0
 62139  1  0  0  0
 62140  1  0  0  0
 62141  1  0  0  0
 63 65  1  0  0  0
 63142  1  0  0  0
 63143  1  0  0  0
 63144  1  0  0  0
 64145  1  0  0  0
 65146  1  0  0  0
 68 79  1  0  0  0
 71 73  2  0  0  0
 71 75  1  0  0  0
 71147  1  0  0  0
 72 74  1  0  0  0
 72 75  2  0  0  0
 72148  1  0  0  0
 73 76  1  0  0  0
 73149  1  0  0  0
 74 76  2  0  0  0
 74150  1  0  0  0
 75 83  1  0  0  0
 76 84  1  0  0  0
 77 78  1  0  0  0
 77 79  2  0  0  0
 77 81  1  0  0  0
 78 84  1  0  0  0
 78 86  2  0  0  0
 79151  1  0  0  0
 80 82  1  0  0  0
 80 83  1  0  0  0
 80 87  2  0  0  0
 81 84  1  0  0  0
 81152  1  0  0  0
 81153  1  0  0  0
 82154  1  0  0  0
 82155  1  0  0  0
 82156  1  0  0  0
 83 85  1  0  0  0
 83157  1  0  0  0
 85158  1  0  0  0
M  ISO  4   1 100  68 101  79 101  85 100
M  END
> <chiral flag>
0

> <version>
0

> <s_m_source_file>
/data/baiqing/PycharmProjects/Reinvent-master-3.2/result/LINK_invent/BTK/process_docking_weight1_custom_product_contain_oxygen_bond_distance_aromatic_linkinvent_7_9_3/rearranged_h_0077.sdf

> <i_m_source_file_index>
56

> <r_mmod_Potential_Energy-OPLS-2005>
-57.6139717102051

> <r_mmod_Stretch_Energy-OPLS-2005>
48.7068252563477

> <r_mmod_Bend_Energy-OPLS-2005>
187.673065185547

> <r_mmod_Torsional_Energy-OPLS-2005>
213.607864379883

> <r_mmod_Improper_Torsional_Energy-OPLS-2005>
7.70923852920532

> <r_mmod_Van_der_Waal_Energy-OPLS-2005>
145.544937133789

> <r_mmod_Electrostatic_Energy-OPLS-2005>
-451.658843994141

> <r_mmod_Solvation_Energy-OPLS-2005>
-233.753936767578

> <b_mmod_Minimization_Converged-OPLS-2005>
0

> <r_mmod_RMS_Derivative-OPLS-2005>
1.04777765274048

$$$$
56
                    3D
 Structure written by MMmdl.
163171  0  0  1  0            999 V2000
  -30.7196  -14.4541   20.5895 C   0  0  0  0  0  0
  -30.4178  -12.3012   19.4224 C   0  0  0  0  0  0
  -29.4913  -12.5066   18.2068 C   0  0  0  0  0  0
  -28.0134  -12.3680   18.6200 C   0  0  0  0  0  0
  -27.6618  -13.2076   19.8776 C   0  0  2  0  0  0
  -28.7027  -12.9867   20.9987 C   0  0  0  0  0  0
  -25.2582  -13.8163   20.5684 C   0  0  0  0  0  0
  -24.1832  -13.0438   20.9170 C   0  0  0  0  0  0
  -24.6388  -11.6906   20.8732 C   0  0  0  0  0  0
  -23.9057  -10.4291   21.0403 C   0  0  0  0  0  0
  -24.3612   -9.4208   21.9180 C   0  0  0  0  0  0
  -23.6289   -8.2243   22.0753 C   0  0  0  0  0  0
  -22.4272   -8.0279   21.3544 C   0  0  0  0  0  0
  -21.9904   -9.0252   20.4647 C   0  0  0  0  0  0
  -22.7230  -10.2132   20.3054 C   0  0  0  0  0  0
  -21.6852   -6.0735   22.5279 C   0  0  0  0  0  0
  -21.4015   -6.5639   23.8213 C   0  0  0  0  0  0
  -21.3659   -5.6792   24.9175 C   0  0  0  0  0  0
  -21.6044   -4.3054   24.7226 C   0  0  0  0  0  0
  -21.8819   -3.8146   23.4347 C   0  0  0  0  0  0
  -21.9193   -4.6963   22.3403 C   0  0  0  0  0  0
  -22.7856  -13.5235   21.1839 C   0  0  0  0  0  0
  -22.1661   -4.2149   21.0980 F   0  0  0  0  0  0
  -21.5629   -3.4538   25.7738 F   0  0  0  0  0  0
  -30.0362  -13.2855   20.4481 N   0  0  0  0  0  0
  -26.3024  -12.9337   20.3386 N   0  0  0  0  0  0
  -25.9318  -11.6494   20.5776 N   0  0  0  0  0  0
  -22.0501  -12.8228   22.0399 N   0  0  0  0  0  0
  -25.4309  -15.1879   20.4108 N   0  0  0  0  0  0
  -31.8298  -14.6268   20.0816 O   0  0  0  0  0  0
  -21.6637   -6.8876   21.4241 O   0  0  0  0  0  0
  -22.3540  -14.5546   20.6696 O   0  0  0  0  0  0
  -24.6123  -31.8693   23.2118 C   0  0  0  0  0  0
  -25.9022  -32.4835   23.8408 C   0  0  1  0  0  0
  -27.2387  -27.4463   20.1003 C   0  0  0  0  0  0
  -25.5885  -33.8632   24.2338 N   0  0  0  0  0  0
  -23.4015  -30.4913   21.5505 C   0  0  2  0  0  0
  -24.8528  -28.9581   20.1158 C   0  0  0  0  0  0
  -22.7403  -29.4657   22.4990 C   0  0  0  0  0  0
  -18.0269  -28.1377   22.8489 C   0  0  0  0  0  0
  -24.1488  -36.7326   23.2638 C   0  0  0  0  0  0
  -25.9284  -30.8369   21.3657 C   0  0  0  0  0  0
  -26.0089  -29.4690   20.7206 C   0  0  0  0  0  0
  -27.2056  -28.7169   20.7214 C   0  0  0  0  0  0
  -26.0745  -26.9535   19.4801 C   0  0  0  0  0  0
  -24.8786  -27.6966   19.4949 C   0  0  0  0  0  0
  -23.6124  -29.8224   20.1651 C   0  0  0  0  0  0
  -25.4106  -36.3120   24.0340 C   0  0  1  0  0  0
  -20.5858  -28.3660   23.1322 C   0  0  2  0  0  0
  -20.6759  -26.9397   22.5422 C   0  0  0  0  0  0
  -19.5741  -26.6385   21.5212 C   0  0  0  0  0  0
  -18.1916  -26.7925   22.1620 C   0  0  0  0  0  0
  -19.1518  -28.8834   23.2901 C   0  0  0  0  0  0
  -18.9447  -30.1442   23.8913 C   0  0  0  0  0  0
  -17.6451  -30.6584   24.0567 C   0  0  0  0  0  0
  -25.9028  -34.9484   23.5136 C   0  0  0  0  0  0
  -16.5341  -29.9089   23.6325 C   0  0  0  0  0  0
  -16.7259  -28.6504   23.0345 C   0  0  0  0  0  0
  -26.4458  -31.6608   25.0728 C   0  0  0  0  0  0
  -25.3732  -31.3714   26.1484 C   0  0  0  0  0  0
  -27.0280  -30.3052   24.6088 C   0  0  0  0  0  0
  -27.6041  -32.4321   25.7484 C   0  0  0  0  0  0
  -27.5581  -37.1815   24.8463 C   0  0  0  0  0  0
  -21.4132  -29.3029   22.3731 N   0  0  0  0  0  0
  -26.4295  -37.3798   23.9405 N   0  0  0  0  0  0
  -24.6652  -31.0801   22.1013 N   0  0  0  0  0  0
  -23.4182  -28.8197   23.3026 O   0  0  0  0  0  0
  -28.3693  -26.6618   20.0631 O   0  0  0  0  0  0
  -26.5594  -34.8929   22.4700 O   0  0  0  0  0  0
  -23.5320  -32.1431   23.7523 O   0  0  0  0  0  0
  -31.8702  -18.7701   21.3151 C   0  0  0  0  0  0
  -31.6344  -17.4010   21.0791 C   0  0  0  0  0  0
  -29.6005  -19.0463   22.1245 C   0  0  0  0  0  0
  -30.8702  -19.6079   21.8606 C   0  0  0  0  0  0
  -30.3741  -16.8282   21.3769 C   0  0  0  0  0  0
  -29.3614  -17.6722   21.8872 C   0  0  0  0  0  0
  -33.1232  -22.2626   22.9401 C   0  0  0  0  0  0
  -31.2391  -21.0039   22.2658 C   0  0  0  0  0  0
  -30.1476  -23.0610   22.9826 C   0  0  0  0  0  0
  -29.2990  -24.7840   21.3691 C   0  0  0  0  0  0
  -34.5105  -22.3195   23.5229 C   0  0  0  0  0  0
  -30.4164  -22.8646   24.4607 C   0  0  0  0  0  0
  -28.8951  -26.2794   21.3432 C   0  0  0  0  0  0
  -32.5086  -21.1587   22.7625 N   0  0  0  0  0  0
  -30.0535  -15.4400   21.2241 N   0  0  0  0  0  0
  -30.3277  -22.0284   22.0971 N   0  3  0  0  0  0
  -29.6562  -24.2911   22.6670 N   0  3  0  0  0  0
  -29.3274  -24.0537   20.3649 O   0  0  0  0  0  0
  -28.1464  -17.1399   22.1748 F   0  0  0  0  0  0
  -31.4631  -12.3890   19.1206 H   0  0  0  0  0  0
  -30.3107  -11.2901   19.8184 H   0  0  0  0  0  0
  -29.7293  -11.7838   17.4253 H   0  0  0  0  0  0
  -29.6619  -13.4935   17.7737 H   0  0  0  0  0  0
  -27.8230  -11.3119   18.8152 H   0  0  0  0  0  0
  -27.3624  -12.6438   17.7897 H   0  0  0  0  0  0
  -27.7070  -14.2563   19.5821 H   0  0  0  0  0  0
  -28.6757  -11.9509   21.3403 H   0  0  0  0  0  0
  -28.4615  -13.5855   21.8780 H   0  0  0  0  0  0
  -25.2757   -9.5684   22.4752 H   0  0  0  0  0  0
  -24.0001   -7.4634   22.7469 H   0  0  0  0  0  0
  -21.0836   -8.8768   19.8952 H   0  0  0  0  0  0
  -22.3687  -10.9670   19.6162 H   0  0  0  0  0  0
  -21.2007   -7.6146   23.9717 H   0  0  0  0  0  0
  -21.1482   -6.0521   25.9078 H   0  0  0  0  0  0
  -22.0599   -2.7608   23.2847 H   0  0  0  0  0  0
  -22.4112  -11.9880   22.4775 H   0  0  0  0  0  0
  -21.1121  -13.1258   22.2618 H   0  0  0  0  0  0
  -24.6709  -15.8474   20.5360 H   0  0  0  0  0  0
  -26.2981  -15.6322   20.1359 H   0  0  0  0  0  0
  -26.7099  -32.5565   23.1183 H   0  0  0  0  0  0
  -25.0037  -33.9798   25.0484 H   0  0  0  0  0  0
  -22.6895  -31.3073   21.4106 H   0  0  0  0  0  0
  -23.3743  -35.9667   23.3309 H   0  0  0  0  0  0
  -24.3585  -36.8929   22.2050 H   0  0  0  0  0  0
  -23.7246  -37.6538   23.6644 H   0  0  0  0  0  0
  -26.0363  -31.5994   20.5931 H   0  0  0  0  0  0
  -26.8179  -30.8968   21.9809 H   0  0  0  0  0  0
  -28.0975  -29.1118   21.1879 H   0  0  0  0  0  0
  -26.0925  -25.9870   18.9958 H   0  0  0  0  0  0
  -23.9917  -27.2980   19.0220 H   0  0  0  0  0  0
  -23.7187  -30.5967   19.4044 H   0  0  0  0  0  0
  -22.7383  -29.2391   19.8703 H   0  0  0  0  0  0
  -25.1280  -36.1994   25.0832 H   0  0  0  0  0  0
  -20.9944  -28.3230   24.1445 H   0  0  0  0  0  0
  -20.5661  -26.2267   23.3607 H   0  0  0  0  0  0
  -21.6629  -26.7442   22.1216 H   0  0  0  0  0  0
  -19.6905  -25.6299   21.1231 H   0  0  0  0  0  0
  -19.6693  -27.3207   20.6753 H   0  0  0  0  0  0
  -17.4190  -26.6677   21.4018 H   0  0  0  0  0  0
  -18.0312  -26.0064   22.9011 H   0  0  0  0  0  0
  -19.7926  -30.7246   24.2295 H   0  0  0  0  0  0
  -17.5009  -31.6268   24.5162 H   0  0  0  0  0  0
  -15.5343  -30.2997   23.7639 H   0  0  0  0  0  0
  -15.8655  -28.0832   22.7050 H   0  0  0  0  0  0
  -24.5898  -30.7067   25.7824 H   0  0  0  0  0  0
  -24.8934  -32.2873   26.4944 H   0  0  0  0  0  0
  -25.8091  -30.8874   27.0233 H   0  0  0  0  0  0
  -26.2811  -29.6830   24.1143 H   0  0  0  0  0  0
  -27.4049  -29.7277   25.4538 H   0  0  0  0  0  0
  -27.8651  -30.4374   23.9230 H   0  0  0  0  0  0
  -27.2663  -33.3615   26.2081 H   0  0  0  0  0  0
  -28.3837  -32.6888   25.0301 H   0  0  0  0  0  0
  -28.0718  -31.8432   26.5383 H   0  0  0  0  0  0
  -28.2603  -38.0108   24.7506 H   0  0  0  0  0  0
  -28.1072  -36.2639   24.6292 H   0  0  0  0  0  0
  -27.2299  -37.1470   25.8867 H   0  0  0  0  0  0
  -20.9287  -29.8757   21.6963 H   0  0  0  0  0  0
  -26.0193  -38.2881   24.1405 H   0  0  0  0  0  0
  -32.8513  -19.1708   21.1125 H   0  0  0  0  0  0
  -32.4566  -16.8175   20.6976 H   0  0  0  0  0  0
  -28.8185  -19.6445   22.5614 H   0  0  0  0  0  0
  -32.7056  -23.2384   22.6766 H   0  0  0  0  0  0
  -34.5765  -21.6908   24.4107 H   0  0  0  0  0  0
  -34.7597  -23.3428   23.8032 H   0  0  0  0  0  0
  -35.2405  -21.9723   22.7923 H   0  0  0  0  0  0
  -30.5761  -21.8180   24.7203 H   0  0  0  0  0  0
  -29.5641  -23.1961   25.0548 H   0  0  0  0  0  0
  -31.2899  -23.4328   24.7807 H   0  0  0  0  0  0
  -29.7711  -26.8930   21.5563 H   0  0  0  0  0  0
  -28.1703  -26.4607   22.1404 H   0  0  0  0  0  0
  -29.1405  -15.1796   21.5676 H   0  0  0  0  0  0
  -29.7742  -22.0483   21.2432 H   0  0  0  0  0  0
  -29.5969  -24.9024   23.4601 H   0  0  0  0  0  0
  1 25  1  0  0  0
  1 30  2  0  0  0
  1 85  1  0  0  0
  2  3  1  0  0  0
  2 25  1  0  0  0
  2 90  1  0  0  0
  2 91  1  0  0  0
  3  4  1  0  0  0
  3 92  1  0  0  0
  3 93  1  0  0  0
  4  5  1  0  0  0
  4 94  1  0  0  0
  4 95  1  0  0  0
  5  6  1  0  0  0
  5 26  1  0  0  0
  5 96  1  0  0  0
  6 25  1  0  0  0
  6 97  1  0  0  0
  6 98  1  0  0  0
  7  8  2  0  0  0
  7 26  1  0  0  0
  7 29  1  0  0  0
  8  9  1  0  0  0
  8 22  1  0  0  0
  9 10  1  0  0  0
  9 27  2  0  0  0
 10 11  2  0  0  0
 10 15  1  0  0  0
 11 12  1  0  0  0
 11 99  1  0  0  0
 12 13  2  0  0  0
 12100  1  0  0  0
 13 14  1  0  0  0
 13 31  1  0  0  0
 14 15  2  0  0  0
 14101  1  0  0  0
 15102  1  0  0  0
 16 17  2  0  0  0
 16 21  1  0  0  0
 16 31  1  0  0  0
 17 18  1  0  0  0
 17103  1  0  0  0
 18 19  2  0  0  0
 18104  1  0  0  0
 19 20  1  0  0  0
 19 24  1  0  0  0
 20 21  2  0  0  0
 20105  1  0  0  0
 21 23  1  0  0  0
 22 28  1  0  0  0
 22 32  2  0  0  0
 26 27  1  0  0  0
 28106  1  0  0  0
 28107  1  0  0  0
 29108  1  0  0  0
 29109  1  0  0  0
 33 34  1  0  0  0
 33 66  1  0  0  0
 33 70  2  0  0  0
 34 36  1  0  0  0
 34 59  1  0  0  0
 34110  1  0  0  0
 35 44  2  0  0  0
 35 45  1  0  0  0
 35 68  1  0  0  0
 36 56  1  0  0  0
 36111  1  0  0  0
 37 39  1  0  0  0
 37 47  1  0  0  0
 37 66  1  0  0  0
 37112  1  0  0  0
 38 43  2  0  0  0
 38 46  1  0  0  0
 38 47  1  0  0  0
 39 64  1  0  0  0
 39 67  2  0  0  0
 40 52  1  0  0  0
 40 53  2  0  0  0
 40 58  1  0  0  0
 41113  1  0  0  0
 41114  1  0  0  0
 41115  1  0  0  0
 41 48  1  0  0  0
 42 43  1  0  0  0
 42 66  1  0  0  0
 42116  1  0  0  0
 42117  1  0  0  0
 43 44  1  0  0  0
 44118  1  0  0  0
 45 46  2  0  0  0
 45119  1  0  0  0
 46120  1  0  0  0
 47121  1  0  0  0
 47122  1  0  0  0
 48 56  1  0  0  0
 48 65  1  0  0  0
 48123  1  0  0  0
 49 50  1  0  0  0
 49 53  1  0  0  0
 49 64  1  0  0  0
 49124  1  0  0  0
 50 51  1  0  0  0
 50125  1  0  0  0
 50126  1  0  0  0
 51 52  1  0  0  0
 51127  1  0  0  0
 51128  1  0  0  0
 52129  1  0  0  0
 52130  1  0  0  0
 53 54  1  0  0  0
 54 55  2  0  0  0
 54131  1  0  0  0
 55 57  1  0  0  0
 55132  1  0  0  0
 56 69  2  0  0  0
 57 58  2  0  0  0
 57133  1  0  0  0
 58134  1  0  0  0
 59 60  1  0  0  0
 59 61  1  0  0  0
 59 62  1  0  0  0
 60135  1  0  0  0
 60136  1  0  0  0
 60137  1  0  0  0
 61138  1  0  0  0
 61139  1  0  0  0
 61140  1  0  0  0
 62141  1  0  0  0
 62142  1  0  0  0
 62143  1  0  0  0
 63 65  1  0  0  0
 63144  1  0  0  0
 63145  1  0  0  0
 63146  1  0  0  0
 64147  1  0  0  0
 65148  1  0  0  0
 68 83  1  0  0  0
 71 72  2  0  0  0
 71 74  1  0  0  0
 71149  1  0  0  0
 72 75  1  0  0  0
 72150  1  0  0  0
 73 74  2  0  0  0
 73 76  1  0  0  0
 73151  1  0  0  0
 74 78  1  0  0  0
 75 76  2  0  0  0
 75 85  1  0  0  0
 76 89  1  0  0  0
 77 81  1  0  0  0
 77 84  2  0  0  0
 77152  1  0  0  0
 78 84  1  0  0  0
 78 86  2  0  0  0
 79 82  1  0  0  0
 79 86  1  0  0  0
 79 87  2  0  0  0
 80 83  1  0  0  0
 80 87  1  0  0  0
 80 88  2  0  0  0
 81153  1  0  0  0
 81154  1  0  0  0
 81155  1  0  0  0
 82156  1  0  0  0
 82157  1  0  0  0
 82158  1  0  0  0
 83159  1  0  0  0
 83160  1  0  0  0
 85161  1  0  0  0
 86162  1  0  0  0
 87163  1  0  0  0
M  CHG  2  86   1  87   1
M  ISO  4   1 100  68 101  83 101  85 100
M  END
> <chiral flag>
0

> <version>
0

> <s_m_source_file>
/data/baiqing/PycharmProjects/Reinvent-master-3.2/result/LINK_invent/BTK/process_docking_weight1_custom_product_contain_oxygen_bond_distance_aromatic_linkinvent_7_9_3/rearranged_h_0077.sdf

> <i_m_source_file_index>
57

> <r_mmod_Potential_Energy-OPLS-2005>
-619.20751953125

> <r_mmod_Stretch_Energy-OPLS-2005>
48.9034957885742

> <r_mmod_Bend_Energy-OPLS-2005>
133.006759643555

> <r_mmod_Torsional_Energy-OPLS-2005>
287.089904785156

> <r_mmod_Improper_Torsional_Energy-OPLS-2005>
3.59154558181763

> <r_mmod_Van_der_Waal_Energy-OPLS-2005>
172.459686279297

> <r_mmod_Electrostatic_Energy-OPLS-2005>
-157.592208862305

> <r_mmod_Solvation_Energy-OPLS-2005>
-1117.37634277344

> <b_mmod_Minimization_Converged-OPLS-2005>
0

> <r_mmod_RMS_Derivative-OPLS-2005>
0.521278500556946

$$$$
57
                    3D
 Structure written by MMmdl.
158166  0  0  1  0            999 V2000
  -30.7506  -14.3552   20.7024 C   0  0  0  0  0  0
  -30.4269  -12.2880   19.3897 C   0  0  0  0  0  0
  -29.4877  -12.5328   18.1927 C   0  0  0  0  0  0
  -28.0124  -12.3824   18.6087 C   0  0  0  0  0  0
  -27.6716  -13.1964   19.8829 C   0  0  2  0  0  0
  -28.7069  -12.9153   20.9945 C   0  0  0  0  0  0
  -25.2631  -13.8143   20.5664 C   0  0  0  0  0  0
  -24.1863  -13.0439   20.9158 C   0  0  0  0  0  0
  -24.6394  -11.6898   20.8713 C   0  0  0  0  0  0
  -23.9049  -10.4292   21.0394 C   0  0  0  0  0  0
  -24.3604   -9.4214   21.9178 C   0  0  0  0  0  0
  -23.6283   -8.2246   22.0750 C   0  0  0  0  0  0
  -22.4266   -8.0278   21.3541 C   0  0  0  0  0  0
  -21.9896   -9.0250   20.4645 C   0  0  0  0  0  0
  -22.7219  -10.2133   20.3051 C   0  0  0  0  0  0
  -21.6852   -6.0733   22.5278 C   0  0  0  0  0  0
  -21.4014   -6.5637   23.8211 C   0  0  0  0  0  0
  -21.3661   -5.6791   24.9173 C   0  0  0  0  0  0
  -21.6045   -4.3053   24.7224 C   0  0  0  0  0  0
  -21.8820   -3.8144   23.4345 C   0  0  0  0  0  0
  -21.9192   -4.6961   22.3401 C   0  0  0  0  0  0
  -22.7886  -13.5250   21.1827 C   0  0  0  0  0  0
  -22.1662   -4.2148   21.0979 F   0  0  0  0  0  0
  -21.5628   -3.4537   25.7739 F   0  0  0  0  0  0
  -30.0599  -13.2081   20.4746 N   0  0  0  0  0  0
  -26.3069  -12.9297   20.3376 N   0  0  0  0  0  0
  -25.9320  -11.6465   20.5737 N   0  0  0  0  0  0
  -22.0518  -12.8251   22.0385 N   0  0  0  0  0  0
  -25.4371  -15.1857   20.4065 N   0  0  0  0  0  0
  -31.7317  -14.7074   20.0382 O   0  0  0  0  0  0
  -21.6632   -6.8876   21.4240 O   0  0  0  0  0  0
  -22.3577  -14.5561   20.6682 O   0  0  0  0  0  0
  -24.6101  -31.8705   23.2129 C   0  0  0  0  0  0
  -25.9009  -32.4838   23.8412 C   0  0  1  0  0  0
  -27.2418  -27.4774   20.0889 C   0  0  0  0  0  0
  -25.5875  -33.8635   24.2341 N   0  0  0  0  0  0
  -23.3971  -30.4925   21.5525 C   0  0  2  0  0  0
  -24.8467  -28.9595   20.1194 C   0  0  0  0  0  0
  -22.7390  -29.4661   22.5016 C   0  0  0  0  0  0
  -18.0265  -28.1372   22.8499 C   0  0  0  0  0  0
  -24.1484  -36.7334   23.2637 C   0  0  0  0  0  0
  -25.9211  -30.8470   21.3611 C   0  0  0  0  0  0
  -26.0023  -29.4812   20.7160 C   0  0  0  0  0  0
  -27.2046  -28.7441   20.7052 C   0  0  0  0  0  0
  -26.0763  -26.9560   19.4934 C   0  0  0  0  0  0
  -24.8751  -27.6917   19.5094 C   0  0  0  0  0  0
  -23.6055  -29.8213   20.1679 C   0  0  0  0  0  0
  -25.4102  -36.3126   24.0339 C   0  0  1  0  0  0
  -20.5852  -28.3647   23.1337 C   0  0  2  0  0  0
  -20.6753  -26.9390   22.5423 C   0  0  0  0  0  0
  -19.5733  -26.6387   21.5215 C   0  0  0  0  0  0
  -18.1912  -26.7921   22.1627 C   0  0  0  0  0  0
  -19.1515  -28.8828   23.2913 C   0  0  0  0  0  0
  -18.9445  -30.1439   23.8917 C   0  0  0  0  0  0
  -17.6449  -30.6582   24.0569 C   0  0  0  0  0  0
  -25.9022  -34.9488   23.5139 C   0  0  0  0  0  0
  -16.5338  -29.9086   23.6329 C   0  0  0  0  0  0
  -16.7256  -28.6503   23.0349 C   0  0  0  0  0  0
  -26.4459  -31.6608   25.0722 C   0  0  0  0  0  0
  -25.3742  -31.3701   26.1484 C   0  0  0  0  0  0
  -27.0292  -30.3061   24.6064 C   0  0  0  0  0  0
  -27.6039  -32.4329   25.7477 C   0  0  0  0  0  0
  -27.5582  -37.1820   24.8463 C   0  0  0  0  0  0
  -21.4124  -29.3022   22.3752 N   0  0  0  0  0  0
  -26.4296  -37.3804   23.9406 N   0  0  0  0  0  0
  -24.6608  -31.0833   22.1014 N   0  0  0  0  0  0
  -23.4180  -28.8205   23.3044 O   0  0  0  0  0  0
  -28.4047  -26.7572   20.0293 O   0  0  0  0  0  0
  -26.5591  -34.8932   22.4704 O   0  0  0  0  0  0
  -23.5304  -32.1438   23.7545 O   0  0  0  0  0  0
  -29.9991  -18.7211   21.1509 C   0  0  0  0  0  0
  -30.4602  -17.3939   21.0005 C   0  0  0  0  0  0
  -28.7435  -18.0601   23.1343 C   0  0  0  0  0  0
  -29.1233  -19.0582   22.2101 C   0  0  0  0  0  0
  -30.0383  -16.3894   21.9054 C   0  0  0  0  0  0
  -29.1941  -16.7381   22.9777 C   0  0  0  0  0  0
  -28.5658  -20.4095   22.3436 C   0  0  0  0  0  0
  -28.9654  -22.8770   22.2502 C   0  0  0  0  0  0
  -30.0650  -23.8949   21.9230 C   0  0  0  0  0  0
  -29.6797  -24.8776   20.7946 C   0  0  0  0  0  0
  -28.6307  -25.9408   21.1693 C   0  0  0  0  0  0
  -30.3581  -15.0134   21.7970 N   0  0  0  0  0  0
  -29.3501  -21.4947   22.1600 N   0  0  0  0  0  0
  -27.2662  -20.5193   22.6443 N   0  3  0  0  0  0
  -27.8234  -23.2263   22.5695 O   0  0  0  0  0  0
  -28.7871  -15.7800   23.8464 F   0  0  0  0  0  0
  -31.4684  -12.4047   19.0841 H   0  0  0  0  0  0
  -30.3351  -11.2586   19.7387 H   0  0  0  0  0  0
  -29.7206  -11.8369   17.3854 H   0  0  0  0  0  0
  -29.6563  -13.5338   17.7917 H   0  0  0  0  0  0
  -27.8211  -11.3229   18.7831 H   0  0  0  0  0  0
  -27.3572  -12.6772   17.7886 H   0  0  0  0  0  0
  -27.7374  -14.2529   19.6215 H   0  0  0  0  0  0
  -28.6610  -11.8660   21.2900 H   0  0  0  0  0  0
  -28.4427  -13.4729   21.8933 H   0  0  0  0  0  0
  -25.2751   -9.5695   22.4747 H   0  0  0  0  0  0
  -23.9997   -7.4639   22.7468 H   0  0  0  0  0  0
  -21.0825   -8.8763   19.8954 H   0  0  0  0  0  0
  -22.3669  -10.9668   19.6156 H   0  0  0  0  0  0
  -21.2007   -7.6145   23.9716 H   0  0  0  0  0  0
  -21.1482   -6.0518   25.9077 H   0  0  0  0  0  0
  -22.0597   -2.7607   23.2844 H   0  0  0  0  0  0
  -22.4117  -11.9909   22.4785 H   0  0  0  0  0  0
  -21.1142  -13.1293   22.2586 H   0  0  0  0  0  0
  -24.6704  -15.8420   20.5054 H   0  0  0  0  0  0
  -26.2916  -15.6201   20.0814 H   0  0  0  0  0  0
  -26.7083  -32.5574   23.1188 H   0  0  0  0  0  0
  -25.0026  -33.9801   25.0485 H   0  0  0  0  0  0
  -22.6837  -31.3073   21.4134 H   0  0  0  0  0  0
  -23.3736  -35.9679   23.3315 H   0  0  0  0  0  0
  -24.3577  -36.8931   22.2049 H   0  0  0  0  0  0
  -23.7249  -37.6549   23.6640 H   0  0  0  0  0  0
  -26.0230  -31.6105   20.5885 H   0  0  0  0  0  0
  -26.8129  -30.9072   21.9732 H   0  0  0  0  0  0
  -28.1014  -29.1464   21.1559 H   0  0  0  0  0  0
  -26.1030  -25.9866   19.0157 H   0  0  0  0  0  0
  -23.9870  -27.2833   19.0470 H   0  0  0  0  0  0
  -23.7089  -30.5941   19.4053 H   0  0  0  0  0  0
  -22.7317  -29.2360   19.8758 H   0  0  0  0  0  0
  -25.1278  -36.2001   25.0833 H   0  0  0  0  0  0
  -20.9942  -28.3206   24.1457 H   0  0  0  0  0  0
  -20.5659  -26.2252   23.3601 H   0  0  0  0  0  0
  -21.6624  -26.7442   22.1213 H   0  0  0  0  0  0
  -19.6892  -25.6307   21.1223 H   0  0  0  0  0  0
  -19.6672  -27.3219   20.6763 H   0  0  0  0  0  0
  -17.4184  -26.6680   21.4025 H   0  0  0  0  0  0
  -18.0307  -26.0056   22.9014 H   0  0  0  0  0  0
  -19.7921  -30.7251   24.2293 H   0  0  0  0  0  0
  -17.5004  -31.6265   24.5167 H   0  0  0  0  0  0
  -15.5340  -30.2995   23.7639 H   0  0  0  0  0  0
  -15.8655  -28.0831   22.7048 H   0  0  0  0  0  0
  -24.5903  -30.7057   25.7829 H   0  0  0  0  0  0
  -24.8946  -32.2853   26.4964 H   0  0  0  0  0  0
  -25.8110  -30.8853   27.0225 H   0  0  0  0  0  0
  -26.2823  -29.6818   24.1144 H   0  0  0  0  0  0
  -27.4112  -29.7292   25.4497 H   0  0  0  0  0  0
  -27.8634  -30.4398   23.9171 H   0  0  0  0  0  0
  -27.2654  -33.3608   26.2101 H   0  0  0  0  0  0
  -28.3820  -32.6928   25.0287 H   0  0  0  0  0  0
  -28.0745  -31.8433   26.5355 H   0  0  0  0  0  0
  -28.2613  -38.0106   24.7506 H   0  0  0  0  0  0
  -28.1064  -36.2640   24.6295 H   0  0  0  0  0  0
  -27.2301  -37.1482   25.8867 H   0  0  0  0  0  0
  -20.9277  -29.8744   21.6981 H   0  0  0  0  0  0
  -26.0192  -38.2888   24.1397 H   0  0  0  0  0  0
  -30.2985  -19.4639   20.4238 H   0  0  0  0  0  0
  -31.1105  -17.1611   20.1700 H   0  0  0  0  0  0
  -28.0859  -18.2923   23.9596 H   0  0  0  0  0  0
  -30.9727  -23.3658   21.6327 H   0  0  0  0  0  0
  -30.3129  -24.4442   22.8316 H   0  0  0  0  0  0
  -29.3255  -24.3140   19.9303 H   0  0  0  0  0  0
  -30.5831  -25.3896   20.4618 H   0  0  0  0  0  0
  -28.9850  -26.5580   21.9968 H   0  0  0  0  0  0
  -27.6960  -25.4769   21.4849 H   0  0  0  0  0  0
  -29.8193  -14.4466   22.4351 H   0  0  0  0  0  0
  -30.2987  -21.2320   21.9426 H   0  0  0  0  0  0
  -26.6718  -19.7075   22.6978 H   0  0  0  0  0  0
  -26.8719  -21.4464   22.7487 H   0  0  0  0  0  0
  1 25  1  0  0  0
  1 30  2  0  0  0
  1 82  1  0  0  0
  2  3  1  0  0  0
  2 25  1  0  0  0
  2 87  1  0  0  0
  2 88  1  0  0  0
  3  4  1  0  0  0
  3 89  1  0  0  0
  3 90  1  0  0  0
  4  5  1  0  0  0
  4 91  1  0  0  0
  4 92  1  0  0  0
  5  6  1  0  0  0
  5 26  1  0  0  0
  5 93  1  0  0  0
  6 25  1  0  0  0
  6 94  1  0  0  0
  6 95  1  0  0  0
  7  8  2  0  0  0
  7 26  1  0  0  0
  7 29  1  0  0  0
  8  9  1  0  0  0
  8 22  1  0  0  0
  9 10  1  0  0  0
  9 27  2  0  0  0
 10 11  2  0  0  0
 10 15  1  0  0  0
 11 12  1  0  0  0
 11 96  1  0  0  0
 12 13  2  0  0  0
 12 97  1  0  0  0
 13 14  1  0  0  0
 13 31  1  0  0  0
 14 15  2  0  0  0
 14 98  1  0  0  0
 15 99  1  0  0  0
 16 17  2  0  0  0
 16 21  1  0  0  0
 16 31  1  0  0  0
 17 18  1  0  0  0
 17100  1  0  0  0
 18 19  2  0  0  0
 18101  1  0  0  0
 19 20  1  0  0  0
 19 24  1  0  0  0
 20 21  2  0  0  0
 20102  1  0  0  0
 21 23  1  0  0  0
 22 28  1  0  0  0
 22 32  2  0  0  0
 26 27  1  0  0  0
 28103  1  0  0  0
 28104  1  0  0  0
 29105  1  0  0  0
 29106  1  0  0  0
 33 34  1  0  0  0
 33 66  1  0  0  0
 33 70  2  0  0  0
 34 36  1  0  0  0
 34 59  1  0  0  0
 34107  1  0  0  0
 35 44  2  0  0  0
 35 45  1  0  0  0
 35 68  1  0  0  0
 36 56  1  0  0  0
 36108  1  0  0  0
 37 39  1  0  0  0
 37 47  1  0  0  0
 37 66  1  0  0  0
 37109  1  0  0  0
 38 43  2  0  0  0
 38 46  1  0  0  0
 38 47  1  0  0  0
 39 64  1  0  0  0
 39 67  2  0  0  0
 40 52  1  0  0  0
 40 53  2  0  0  0
 40 58  1  0  0  0
 41110  1  0  0  0
 41111  1  0  0  0
 41112  1  0  0  0
 41 48  1  0  0  0
 42 43  1  0  0  0
 42 66  1  0  0  0
 42113  1  0  0  0
 42114  1  0  0  0
 43 44  1  0  0  0
 44115  1  0  0  0
 45 46  2  0  0  0
 45116  1  0  0  0
 46117  1  0  0  0
 47118  1  0  0  0
 47119  1  0  0  0
 48 56  1  0  0  0
 48 65  1  0  0  0
 48120  1  0  0  0
 49 50  1  0  0  0
 49 53  1  0  0  0
 49 64  1  0  0  0
 49121  1  0  0  0
 50 51  1  0  0  0
 50122  1  0  0  0
 50123  1  0  0  0
 51 52  1  0  0  0
 51124  1  0  0  0
 51125  1  0  0  0
 52126  1  0  0  0
 52127  1  0  0  0
 53 54  1  0  0  0
 54 55  2  0  0  0
 54128  1  0  0  0
 55 57  1  0  0  0
 55129  1  0  0  0
 56 69  2  0  0  0
 57 58  2  0  0  0
 57130  1  0  0  0
 58131  1  0  0  0
 59 60  1  0  0  0
 59 61  1  0  0  0
 59 62  1  0  0  0
 60132  1  0  0  0
 60133  1  0  0  0
 60134  1  0  0  0
 61135  1  0  0  0
 61136  1  0  0  0
 61137  1  0  0  0
 62138  1  0  0  0
 62139  1  0  0  0
 62140  1  0  0  0
 63 65  1  0  0  0
 63141  1  0  0  0
 63142  1  0  0  0
 63143  1  0  0  0
 64144  1  0  0  0
 65145  1  0  0  0
 68 81  1  0  0  0
 71 72  2  0  0  0
 71 74  1  0  0  0
 71146  1  0  0  0
 72 75  1  0  0  0
 72147  1  0  0  0
 73 74  2  0  0  0
 73 76  1  0  0  0
 73148  1  0  0  0
 74 77  1  0  0  0
 75 76  2  0  0  0
 75 82  1  0  0  0
 76 86  1  0  0  0
 77 83  1  0  0  0
 77 84  2  0  0  0
 78 79  1  0  0  0
 78 83  1  0  0  0
 78 85  2  0  0  0
 79 80  1  0  0  0
 79149  1  0  0  0
 79150  1  0  0  0
 80 81  1  0  0  0
 80151  1  0  0  0
 80152  1  0  0  0
 81153  1  0  0  0
 81154  1  0  0  0
 82155  1  0  0  0
 83156  1  0  0  0
 84157  1  0  0  0
 84158  1  0  0  0
M  CHG  1  84   1
M  ISO  4   1 100  68 101  81 101  82 100
M  END
> <chiral flag>
0

> <version>
0

> <s_m_source_file>
/data/baiqing/PycharmProjects/Reinvent-master-3.2/result/LINK_invent/BTK/process_docking_weight1_custom_product_contain_oxygen_bond_distance_aromatic_linkinvent_7_9_3/rearranged_h_0077.sdf

> <i_m_source_file_index>
58

> <r_mmod_Potential_Energy-OPLS-2005>
-436.041137695312

> <r_mmod_Stretch_Energy-OPLS-2005>
32.3173217773438

> <r_mmod_Bend_Energy-OPLS-2005>
103.001976013184

> <r_mmod_Torsional_Energy-OPLS-2005>
239.211395263672

> <r_mmod_Improper_Torsional_Energy-OPLS-2005>
5.53969383239746

> <r_mmod_Van_der_Waal_Energy-OPLS-2005>
165.444808959961

> <r_mmod_Electrostatic_Energy-OPLS-2005>
-532.804321289062

> <r_mmod_Solvation_Energy-OPLS-2005>
-455.410888671875

> <b_mmod_Minimization_Converged-OPLS-2005>
0

> <r_mmod_RMS_Derivative-OPLS-2005>
0.648087739944458

$$$$
58
                    3D
 Structure written by MMmdl.
165174  0  0  1  0            999 V2000
  -30.7029  -14.6088   20.6006 C   0  0  0  0  0  0
  -30.4382  -12.4137   19.4226 C   0  0  0  0  0  0
  -29.5087  -12.5541   18.1951 C   0  0  0  0  0  0
  -28.0281  -12.3881   18.5997 C   0  0  0  0  0  0
  -27.6647  -13.2113   19.8665 C   0  0  2  0  0  0
  -28.7078  -12.9764   20.9697 C   0  0  0  0  0  0
  -25.2700  -13.8182   20.5749 C   0  0  0  0  0  0
  -24.1915  -13.0434   20.9111 C   0  0  0  0  0  0
  -24.6424  -11.6887   20.8577 C   0  0  0  0  0  0
  -23.9106  -10.4269   21.0192 C   0  0  0  0  0  0
  -24.3648   -9.4260   21.9063 C   0  0  0  0  0  0
  -23.6315   -8.2308   22.0750 C   0  0  0  0  0  0
  -22.4287   -8.0302   21.3556 C   0  0  0  0  0  0
  -21.9902   -9.0236   20.4649 C   0  0  0  0  0  0
  -22.7233  -10.2086   20.2911 C   0  0  0  0  0  0
  -21.6893   -6.0727   22.5272 C   0  0  0  0  0  0
  -21.4149   -6.5649   23.8222 C   0  0  0  0  0  0
  -21.3687   -5.6782   24.9169 C   0  0  0  0  0  0
  -21.5967   -4.3037   24.7205 C   0  0  0  0  0  0
  -21.8827   -3.8142   23.4342 C   0  0  0  0  0  0
  -21.9208   -4.6954   22.3401 C   0  0  0  0  0  0
  -22.7917  -13.5229   21.1623 C   0  0  0  0  0  0
  -22.1668   -4.2167   21.0974 F   0  0  0  0  0  0
  -21.5507   -3.4514   25.7705 F   0  0  0  0  0  0
  -30.0192  -13.4137   20.4390 N   0  0  0  0  0  0
  -26.3083  -12.9327   20.3270 N   0  0  0  0  0  0
  -25.9340  -11.6462   20.5545 N   0  0  0  0  0  0
  -22.0474  -12.8361   22.0212 N   0  0  0  0  0  0
  -25.4488  -15.1940   20.4434 N   0  0  0  0  0  0
  -31.8536  -14.7006   20.1513 O   0  0  0  0  0  0
  -21.6696   -6.8852   21.4212 O   0  0  0  0  0  0
  -22.3645  -14.5477   20.6306 O   0  0  0  0  0  0
  -24.6175  -31.8688   23.2005 C   0  0  0  0  0  0
  -25.8995  -32.4860   23.8397 C   0  0  1  0  0  0
  -27.2155  -27.3673   20.0986 C   0  0  0  0  0  0
  -25.5794  -33.8655   24.2271 N   0  0  0  0  0  0
  -23.4091  -30.4813   21.5604 C   0  0  2  0  0  0
  -24.8485  -28.9406   20.1258 C   0  0  0  0  0  0
  -22.7427  -29.4619   22.5118 C   0  0  0  0  0  0
  -18.0242  -28.1381   22.8558 C   0  0  0  0  0  0
  -24.1436  -36.7324   23.2642 C   0  0  0  0  0  0
  -25.9473  -30.8063   21.3668 C   0  0  0  0  0  0
  -26.0170  -29.4381   20.7099 C   0  0  0  0  0  0
  -27.2098  -28.6671   20.6745 C   0  0  0  0  0  0
  -26.0220  -26.8924   19.5122 C   0  0  0  0  0  0
  -24.8494  -27.6713   19.5238 C   0  0  0  0  0  0
  -23.6093  -29.8091   20.1802 C   0  0  0  0  0  0
  -25.4083  -36.3139   24.0320 C   0  0  1  0  0  0
  -20.5850  -28.3631   23.1398 C   0  0  2  0  0  0
  -20.6747  -26.9382   22.5480 C   0  0  0  0  0  0
  -19.5694  -26.6384   21.5300 C   0  0  0  0  0  0
  -18.1861  -26.7921   22.1699 C   0  0  0  0  0  0
  -19.1518  -28.8852   23.2960 C   0  0  0  0  0  0
  -18.9423  -30.1465   23.8963 C   0  0  0  0  0  0
  -17.6434  -30.6609   24.0591 C   0  0  0  0  0  0
  -25.9072  -34.9516   23.5128 C   0  0  0  0  0  0
  -16.5322  -29.9114   23.6342 C   0  0  0  0  0  0
  -16.7250  -28.6517   23.0406 C   0  0  0  0  0  0
  -26.4357  -31.6700   25.0808 C   0  0  0  0  0  0
  -25.3527  -31.3940   26.1520 C   0  0  0  0  0  0
  -27.0145  -30.3072   24.6313 C   0  0  0  0  0  0
  -27.5918  -32.4480   25.7571 C   0  0  0  0  0  0
  -27.5576  -37.1797   24.8444 C   0  0  0  0  0  0
  -21.4168  -29.2979   22.3832 N   0  0  0  0  0  0
  -26.4261  -37.3848   23.9445 N   0  0  0  0  0  0
  -24.6775  -31.0682   22.0999 N   0  0  0  0  0  0
  -23.4200  -28.8222   23.3213 O   0  0  0  0  0  0
  -28.3716  -26.6026   20.1076 O   0  0  0  0  0  0
  -26.5744  -34.8930   22.4762 O   0  0  0  0  0  0
  -23.5317  -32.1518   23.7298 O   0  0  0  0  0  0
  -30.9878  -18.5855   18.6803 C   0  0  0  0  0  0
  -30.7371  -19.7421   19.4324 C   0  0  0  0  0  0
  -30.7345  -17.3090   19.2187 C   0  0  0  0  0  0
  -30.0715  -18.3493   21.3089 C   0  0  0  0  0  0
  -30.2434  -19.6721   20.7479 C   0  0  0  0  0  0
  -30.2873  -17.1285   20.5542 C   0  0  0  0  0  0
  -30.8662  -23.3876   22.5600 C   0  0  0  0  0  0
  -29.8471  -23.4008   21.5257 C   0  0  0  0  0  0
  -30.8024  -22.2769   23.4757 C   0  0  0  0  0  0
  -29.5338  -22.0903   20.8714 C   0  0  0  0  0  0
  -31.8725  -24.2910   22.5903 C   0  0  0  0  0  0
  -31.0295  -22.4431   24.7900 C   0  0  0  0  0  0
  -28.1713  -16.2386   22.5746 C   0  0  0  0  0  0
  -29.3178  -24.6278   21.2073 C   0  0  0  0  0  0
  -29.3351  -15.6259   22.2888 C   0  0  0  0  0  0
  -30.4604  -20.9159   22.8975 C   0  0  0  0  0  0
  -28.2615  -25.1502   20.2238 C   0  0  0  0  0  0
  -30.0446  -20.9365   21.4764 N   0  0  0  0  0  0
  -30.0700  -15.7538   21.0925 N   0  0  0  0  0  0
  -28.8546  -22.0224   19.8426 O   0  0  0  0  0  0
  -31.4764  -12.5104   19.1031 H   0  0  0  0  0  0
  -30.3786  -11.4008   19.8271 H   0  0  0  0  0  0
  -29.7752  -11.8295   17.4260 H   0  0  0  0  0  0
  -29.6550  -13.5279   17.7224 H   0  0  0  0  0  0
  -27.8444  -11.3274   18.7746 H   0  0  0  0  0  0
  -27.3797  -12.6703   17.7701 H   0  0  0  0  0  0
  -27.7102  -14.2630   19.5931 H   0  0  0  0  0  0
  -28.7383  -11.9104   21.2041 H   0  0  0  0  0  0
  -28.3952  -13.4176   21.9061 H   0  0  0  0  0  0
  -25.2725   -9.5858   22.4702 H   0  0  0  0  0  0
  -23.9983   -7.4819   22.7620 H   0  0  0  0  0  0
  -21.0759   -8.8775   19.9108 H   0  0  0  0  0  0
  -22.3593  -10.9610   19.6076 H   0  0  0  0  0  0
  -21.2332   -7.6191   23.9755 H   0  0  0  0  0  0
  -21.1434   -6.0503   25.9065 H   0  0  0  0  0  0
  -22.0569   -2.7609   23.2802 H   0  0  0  0  0  0
  -22.3994  -12.0183   22.4926 H   0  0  0  0  0  0
  -21.1122  -13.1548   22.2266 H   0  0  0  0  0  0
  -24.6884  -15.8542   20.5697 H   0  0  0  0  0  0
  -26.3196  -15.6410   20.1877 H   0  0  0  0  0  0
  -26.7066  -32.5499   23.1161 H   0  0  0  0  0  0
  -24.9555  -33.9834   25.0121 H   0  0  0  0  0  0
  -22.6989  -31.3004   21.4199 H   0  0  0  0  0  0
  -23.3723  -35.9640   23.3309 H   0  0  0  0  0  0
  -24.3481  -36.8973   22.2055 H   0  0  0  0  0  0
  -23.7128  -37.6483   23.6707 H   0  0  0  0  0  0
  -26.0837  -31.5690   20.6002 H   0  0  0  0  0  0
  -26.8266  -30.8508   21.9976 H   0  0  0  0  0  0
  -28.1251  -29.0487   21.1031 H   0  0  0  0  0  0
  -25.9745  -25.9209   19.0361 H   0  0  0  0  0  0
  -23.9449  -27.2803   19.0835 H   0  0  0  0  0  0
  -23.7071  -30.5815   19.4184 H   0  0  0  0  0  0
  -22.7271  -29.2285   19.9025 H   0  0  0  0  0  0
  -25.1225  -36.2037   25.0811 H   0  0  0  0  0  0
  -20.9949  -28.3204   24.1527 H   0  0  0  0  0  0
  -20.5754  -26.2222   23.3654 H   0  0  0  0  0  0
  -21.6594  -26.7485   22.1230 H   0  0  0  0  0  0
  -19.6846  -25.6325   21.1274 H   0  0  0  0  0  0
  -19.6586  -27.3248   20.6873 H   0  0  0  0  0  0
  -17.4150  -26.6758   21.4074 H   0  0  0  0  0  0
  -18.0178  -26.0050   22.9064 H   0  0  0  0  0  0
  -19.7901  -30.7270   24.2363 H   0  0  0  0  0  0
  -17.4975  -31.6287   24.5183 H   0  0  0  0  0  0
  -15.5335  -30.3048   23.7598 H   0  0  0  0  0  0
  -15.8625  -28.0830   22.7145 H   0  0  0  0  0  0
  -24.5562  -30.7500   25.7803 H   0  0  0  0  0  0
  -24.8838  -32.3148   26.5009 H   0  0  0  0  0  0
  -25.7686  -30.8994   27.0296 H   0  0  0  0  0  0
  -26.2720  -29.6941   24.1177 H   0  0  0  0  0  0
  -27.3559  -29.7265   25.4897 H   0  0  0  0  0  0
  -27.8743  -30.4270   23.9707 H   0  0  0  0  0  0
  -27.2486  -33.3720   26.2251 H   0  0  0  0  0  0
  -28.3649  -32.7211   25.0387 H   0  0  0  0  0  0
  -28.0729  -31.8623   26.5411 H   0  0  0  0  0  0
  -28.2610  -38.0090   24.7574 H   0  0  0  0  0  0
  -28.1050  -36.2638   24.6161 H   0  0  0  0  0  0
  -27.2322  -37.1332   25.8849 H   0  0  0  0  0  0
  -20.9383  -29.8582   21.6925 H   0  0  0  0  0  0
  -26.0150  -38.2932   24.1480 H   0  0  0  0  0  0
  -31.3776  -18.6841   17.6753 H   0  0  0  0  0  0
  -30.9524  -20.7041   18.9930 H   0  0  0  0  0  0
  -30.9164  -16.4700   18.5667 H   0  0  0  0  0  0
  -29.7659  -18.2882   22.3395 H   0  0  0  0  0  0
  -31.9539  -25.0790   21.8518 H   0  0  0  0  0  0
  -32.6722  -24.2351   23.3152 H   0  0  0  0  0  0
  -31.2587  -23.4096   25.2227 H   0  0  0  0  0  0
  -30.9292  -21.6093   25.4753 H   0  0  0  0  0  0
  -27.6701  -16.0797   23.5233 H   0  0  0  0  0  0
  -27.6777  -16.9026   21.8767 H   0  0  0  0  0  0
  -29.6496  -25.4459   21.8321 H   0  0  0  0  0  0
  -29.8132  -14.9573   23.0000 H   0  0  0  0  0  0
  -29.7003  -20.4438   23.5245 H   0  0  0  0  0  0
  -31.3710  -20.3170   22.9854 H   0  0  0  0  0  0
  -27.2874  -24.8566   20.6240 H   0  0  0  0  0  0
  -28.3604  -24.6798   19.2457 H   0  0  0  0  0  0
  1 25  1  0  0  0
  1 30  2  0  0  0
  1 89  1  0  0  0
  2  3  1  0  0  0
  2 25  1  0  0  0
  2 91  1  0  0  0
  2 92  1  0  0  0
  3  4  1  0  0  0
  3 93  1  0  0  0
  3 94  1  0  0  0
  4  5  1  0  0  0
  4 95  1  0  0  0
  4 96  1  0  0  0
  5  6  1  0  0  0
  5 26  1  0  0  0
  5 97  1  0  0  0
  6 25  1  0  0  0
  6 98  1  0  0  0
  6 99  1  0  0  0
  7  8  2  0  0  0
  7 26  1  0  0  0
  7 29  1  0  0  0
  8  9  1  0  0  0
  8 22  1  0  0  0
  9 10  1  0  0  0
  9 27  2  0  0  0
 10 11  2  0  0  0
 10 15  1  0  0  0
 11 12  1  0  0  0
 11100  1  0  0  0
 12 13  2  0  0  0
 12101  1  0  0  0
 13 14  1  0  0  0
 13 31  1  0  0  0
 14 15  2  0  0  0
 14102  1  0  0  0
 15103  1  0  0  0
 16 17  2  0  0  0
 16 21  1  0  0  0
 16 31  1  0  0  0
 17 18  1  0  0  0
 17104  1  0  0  0
 18 19  2  0  0  0
 18105  1  0  0  0
 19 20  1  0  0  0
 19 24  1  0  0  0
 20 21  2  0  0  0
 20106  1  0  0  0
 21 23  1  0  0  0
 22 28  1  0  0  0
 22 32  2  0  0  0
 26 27  1  0  0  0
 28107  1  0  0  0
 28108  1  0  0  0
 29109  1  0  0  0
 29110  1  0  0  0
 33 34  1  0  0  0
 33 66  1  0  0  0
 33 70  2  0  0  0
 34 36  1  0  0  0
 34 59  1  0  0  0
 34111  1  0  0  0
 35 44  2  0  0  0
 35 45  1  0  0  0
 35 68  1  0  0  0
 36 56  1  0  0  0
 36112  1  0  0  0
 37 39  1  0  0  0
 37 47  1  0  0  0
 37 66  1  0  0  0
 37113  1  0  0  0
 38 43  2  0  0  0
 38 46  1  0  0  0
 38 47  1  0  0  0
 39 64  1  0  0  0
 39 67  2  0  0  0
 40 52  1  0  0  0
 40 53  2  0  0  0
 40 58  1  0  0  0
 41114  1  0  0  0
 41115  1  0  0  0
 41116  1  0  0  0
 41 48  1  0  0  0
 42 43  1  0  0  0
 42 66  1  0  0  0
 42117  1  0  0  0
 42118  1  0  0  0
 43 44  1  0  0  0
 44119  1  0  0  0
 45 46  2  0  0  0
 45120  1  0  0  0
 46121  1  0  0  0
 47122  1  0  0  0
 47123  1  0  0  0
 48 56  1  0  0  0
 48 65  1  0  0  0
 48124  1  0  0  0
 49 50  1  0  0  0
 49 53  1  0  0  0
 49 64  1  0  0  0
 49125  1  0  0  0
 50 51  1  0  0  0
 50126  1  0  0  0
 50127  1  0  0  0
 51 52  1  0  0  0
 51128  1  0  0  0
 51129  1  0  0  0
 52130  1  0  0  0
 52131  1  0  0  0
 53 54  1  0  0  0
 54 55  2  0  0  0
 54132  1  0  0  0
 55 57  1  0  0  0
 55133  1  0  0  0
 56 69  2  0  0  0
 57 58  2  0  0  0
 57134  1  0  0  0
 58135  1  0  0  0
 59 60  1  0  0  0
 59 61  1  0  0  0
 59 62  1  0  0  0
 60136  1  0  0  0
 60137  1  0  0  0
 60138  1  0  0  0
 61139  1  0  0  0
 61140  1  0  0  0
 61141  1  0  0  0
 62142  1  0  0  0
 62143  1  0  0  0
 62144  1  0  0  0
 63 65  1  0  0  0
 63145  1  0  0  0
 63146  1  0  0  0
 63147  1  0  0  0
 64148  1  0  0  0
 65149  1  0  0  0
 68 87  1  0  0  0
 71 72  2  0  0  0
 71 73  1  0  0  0
 71150  1  0  0  0
 72 75  1  0  0  0
 72151  1  0  0  0
 73 76  2  0  0  0
 73152  1  0  0  0
 74 75  2  0  0  0
 74 76  1  0  0  0
 74153  1  0  0  0
 75 88  1  0  0  0
 76 89  1  0  0  0
 77 78  1  0  0  0
 77 79  1  0  0  0
 77 81  2  0  0  0
 78 80  1  0  0  0
 78 84  2  0  0  0
 79 82  2  0  0  0
 79 86  1  0  0  0
 80 88  1  0  0  0
 80 90  2  0  0  0
 81154  1  0  0  0
 81155  1  0  0  0
 82156  1  0  0  0
 82157  1  0  0  0
 83 85  2  0  0  0
 83158  1  0  0  0
 83159  1  0  0  0
 84 87  1  0  0  0
 84160  1  0  0  0
 85 89  1  0  0  0
 85161  1  0  0  0
 86 88  1  0  0  0
 86162  1  0  0  0
 86163  1  0  0  0
 87164  1  0  0  0
 87165  1  0  0  0
M  ISO  4   1 100  68 101  87 101  89 100
M  END
> <chiral flag>
0

> <version>
0

> <s_m_source_file>
/data/baiqing/PycharmProjects/Reinvent-master-3.2/result/LINK_invent/BTK/process_docking_weight1_custom_product_contain_oxygen_bond_distance_aromatic_linkinvent_7_9_3/rearranged_h_0077.sdf

> <i_m_source_file_index>
59

> <r_mmod_Potential_Energy-OPLS-2005>
436.877960205078

> <r_mmod_Stretch_Energy-OPLS-2005>
99.6006240844727

> <r_mmod_Bend_Energy-OPLS-2005>
173.353057861328

> <r_mmod_Torsional_Energy-OPLS-2005>
409.787658691406

> <r_mmod_Improper_Torsional_Energy-OPLS-2005>
4.39611721038818

> <r_mmod_Van_der_Waal_Energy-OPLS-2005>
192.437103271484

> <r_mmod_Electrostatic_Energy-OPLS-2005>
-275.585479736328

> <r_mmod_Solvation_Energy-OPLS-2005>
-199.277557373047

> <b_mmod_Minimization_Converged-OPLS-2005>
0

> <r_mmod_RMS_Derivative-OPLS-2005>
9.73862361907959

$$$$
59
                    3D
 Structure written by MMmdl.
161169  0  0  1  0            999 V2000
  -30.6043  -14.5377   20.6037 C   0  0  0  0  0  0
  -30.4534  -12.3612   19.4226 C   0  0  0  0  0  0
  -29.5153  -12.5291   18.2056 C   0  0  0  0  0  0
  -28.0319  -12.3737   18.6067 C   0  0  0  0  0  0
  -27.6643  -13.2015   19.8683 C   0  0  2  0  0  0
  -28.6967  -12.9447   20.9880 C   0  0  0  0  0  0
  -25.2579  -13.8129   20.5559 C   0  0  0  0  0  0
  -24.1828  -13.0413   20.9064 C   0  0  0  0  0  0
  -24.6376  -11.6871   20.8651 C   0  0  0  0  0  0
  -23.9038  -10.4268   21.0383 C   0  0  0  0  0  0
  -24.3613   -9.4201   21.9162 C   0  0  0  0  0  0
  -23.6291   -8.2233   22.0745 C   0  0  0  0  0  0
  -22.4283   -8.0243   21.3525 C   0  0  0  0  0  0
  -21.9909   -9.0223   20.4654 C   0  0  0  0  0  0
  -22.7211  -10.2104   20.3028 C   0  0  0  0  0  0
  -21.6875   -6.0697   22.5262 C   0  0  0  0  0  0
  -21.4006   -6.5606   23.8182 C   0  0  0  0  0  0
  -21.3660   -5.6762   24.9160 C   0  0  0  0  0  0
  -21.6052   -4.3024   24.7211 C   0  0  0  0  0  0
  -21.8832   -3.8107   23.4335 C   0  0  0  0  0  0
  -21.9180   -4.6926   22.3383 C   0  0  0  0  0  0
  -22.7840  -13.5238   21.1767 C   0  0  0  0  0  0
  -22.1674   -4.2102   21.0964 F   0  0  0  0  0  0
  -21.5663   -3.4523   25.7732 F   0  0  0  0  0  0
  -30.0267  -13.3110   20.4652 N   0  0  0  0  0  0
  -26.3019  -12.9283   20.3207 N   0  0  0  0  0  0
  -25.9292  -11.6447   20.5615 N   0  0  0  0  0  0
  -22.0460  -12.8266   22.0344 N   0  0  0  0  0  0
  -25.4336  -15.1844   20.3998 N   0  0  0  0  0  0
  -31.6948  -14.8224   20.0885 O   0  0  0  0  0  0
  -21.6634   -6.8854   21.4214 O   0  0  0  0  0  0
  -22.3537  -14.5531   20.6610 O   0  0  0  0  0  0
  -24.6269  -31.8603   23.2070 C   0  0  0  0  0  0
  -25.9146  -32.4768   23.8328 C   0  0  1  0  0  0
  -27.1939  -27.3665   20.0593 C   0  0  0  0  0  0
  -25.5954  -33.8564   24.2247 N   0  0  0  0  0  0
  -23.4080  -30.4958   21.5545 C   0  0  2  0  0  0
  -24.8318  -28.9486   20.1286 C   0  0  0  0  0  0
  -22.7440  -29.4675   22.5011 C   0  0  0  0  0  0
  -18.0269  -28.1386   22.8486 C   0  0  0  0  0  0
  -24.1469  -36.7257   23.2644 C   0  0  0  0  0  0
  -25.9503  -30.8018   21.3675 C   0  0  0  0  0  0
  -26.0126  -29.4367   20.7037 C   0  0  0  0  0  0
  -27.2020  -28.6582   20.6586 C   0  0  0  0  0  0
  -25.9546  -26.8771   19.5750 C   0  0  0  0  0  0
  -24.7966  -27.6627   19.5768 C   0  0  0  0  0  0
  -23.6120  -29.8375   20.1675 C   0  0  0  0  0  0
  -25.4103  -36.3067   24.0338 C   0  0  1  0  0  0
  -20.5870  -28.3652   23.1337 C   0  0  2  0  0  0
  -20.6773  -26.9393   22.5423 C   0  0  0  0  0  0
  -19.5749  -26.6378   21.5223 C   0  0  0  0  0  0
  -18.1928  -26.7918   22.1629 C   0  0  0  0  0  0
  -19.1533  -28.8824   23.2897 C   0  0  0  0  0  0
  -18.9463  -30.1449   23.8879 C   0  0  0  0  0  0
  -17.6475  -30.6587   24.0554 C   0  0  0  0  0  0
  -25.9050  -34.9459   23.5087 C   0  0  0  0  0  0
  -16.5354  -29.9106   23.6343 C   0  0  0  0  0  0
  -16.7274  -28.6529   23.0349 C   0  0  0  0  0  0
  -26.4522  -31.6619   25.0736 C   0  0  0  0  0  0
  -25.3761  -31.3826   26.1487 C   0  0  0  0  0  0
  -27.0354  -30.3019   24.6233 C   0  0  0  0  0  0
  -27.6034  -32.4397   25.7532 C   0  0  0  0  0  0
  -27.5573  -37.1804   24.8480 C   0  0  0  0  0  0
  -21.4149  -29.3044   22.3766 N   0  0  0  0  0  0
  -26.4255  -37.3791   23.9434 N   0  0  0  0  0  0
  -24.6817  -31.0703   22.0972 N   0  0  0  0  0  0
  -23.4211  -28.8209   23.3026 O   0  0  0  0  0  0
  -28.3413  -26.5783   19.9717 O   0  0  0  0  0  0
  -26.5621  -34.8930   22.4646 O   0  0  0  0  0  0
  -23.5479  -32.1372   23.7494 O   0  0  0  0  0  0
  -28.7674  -18.8016   19.9974 C   0  0  0  0  0  0
  -29.1709  -17.4362   20.0155 C   0  0  0  0  0  0
  -29.8142  -17.6564   22.3379 C   0  0  0  0  0  0
  -28.8780  -19.6196   21.1537 C   0  0  0  0  0  0
  -29.6917  -16.8362   21.1929 C   0  0  0  0  0  0
  -29.4301  -19.0195   22.3188 C   0  0  0  0  0  0
  -28.3758  -21.0328   21.1838 C   0  0  0  0  0  0
  -28.1581  -23.3055   20.0631 C   0  0  0  0  0  0
  -28.5141  -23.4793   17.5801 C   0  0  0  0  0  0
  -30.3787  -24.0555   19.1339 C   0  0  0  0  0  0
  -28.4340  -25.6724   18.8294 C   0  0  0  0  0  0
  -28.8504  -24.1435   18.9437 C   0  0  0  0  0  0
  -29.8748  -15.4164   21.3290 N   0  0  0  0  0  0
  -28.5904  -21.9122   20.1679 N   0  0  0  0  0  0
  -27.6987  -21.4406   22.2708 N   0  3  0  0  0  0
  -27.3260  -23.7884   20.8405 O   0  0  0  0  0  0
  -29.5656  -19.7382   23.4634 F   0  0  0  0  0  0
  -31.4891  -12.5287   19.1198 H   0  0  0  0  0  0
  -30.4209  -11.3388   19.8018 H   0  0  0  0  0  0
  -29.7823  -11.8045   17.4338 H   0  0  0  0  0  0
  -29.6684  -13.5138   17.7595 H   0  0  0  0  0  0
  -27.8397  -11.3166   18.7896 H   0  0  0  0  0  0
  -27.3914  -12.6582   17.7715 H   0  0  0  0  0  0
  -27.7207  -14.2559   19.5871 H   0  0  0  0  0  0
  -28.6872  -11.8938   21.2834 H   0  0  0  0  0  0
  -28.4196  -13.4835   21.8942 H   0  0  0  0  0  0
  -25.2767   -9.5707   22.4695 H   0  0  0  0  0  0
  -24.0001   -7.4661   22.7479 H   0  0  0  0  0  0
  -21.0808   -8.8725   19.8985 H   0  0  0  0  0  0
  -22.3657  -10.9621   19.6094 H   0  0  0  0  0  0
  -21.2001   -7.6125   23.9684 H   0  0  0  0  0  0
  -21.1488   -6.0490   25.9055 H   0  0  0  0  0  0
  -22.0625   -2.7572   23.2832 H   0  0  0  0  0  0
  -22.4101  -11.9986   22.4813 H   0  0  0  0  0  0
  -21.1052  -13.1304   22.2447 H   0  0  0  0  0  0
  -24.6746  -15.8437   20.5182 H   0  0  0  0  0  0
  -26.2946  -15.6209   20.0998 H   0  0  0  0  0  0
  -26.7207  -32.5427   23.1062 H   0  0  0  0  0  0
  -25.0105  -33.9620   25.0407 H   0  0  0  0  0  0
  -22.6995  -31.3141   21.4246 H   0  0  0  0  0  0
  -23.3719  -35.9601   23.3316 H   0  0  0  0  0  0
  -24.3527  -36.8852   22.2048 H   0  0  0  0  0  0
  -23.7233  -37.6472   23.6626 H   0  0  0  0  0  0
  -26.0936  -31.5727   20.6091 H   0  0  0  0  0  0
  -26.8285  -30.8241   22.0024 H   0  0  0  0  0  0
  -28.1207  -29.0477   21.0796 H   0  0  0  0  0  0
  -25.8319  -25.8648   19.2135 H   0  0  0  0  0  0
  -23.8734  -27.2544   19.1906 H   0  0  0  0  0  0
  -23.7511  -30.6138   19.4118 H   0  0  0  0  0  0
  -22.7219  -29.2799   19.8640 H   0  0  0  0  0  0
  -25.1301  -36.1884   25.0834 H   0  0  0  0  0  0
  -20.9941  -28.3214   24.1461 H   0  0  0  0  0  0
  -20.5670  -26.2273   23.3607 H   0  0  0  0  0  0
  -21.6662  -26.7466   22.1232 H   0  0  0  0  0  0
  -19.6891  -25.6297   21.1230 H   0  0  0  0  0  0
  -19.6668  -27.3208   20.6758 H   0  0  0  0  0  0
  -17.4203  -26.6647   21.4013 H   0  0  0  0  0  0
  -18.0323  -26.0074   22.9036 H   0  0  0  0  0  0
  -19.7961  -30.7268   24.2216 H   0  0  0  0  0  0
  -17.5055  -31.6254   24.5175 H   0  0  0  0  0  0
  -15.5380  -30.3008   23.7662 H   0  0  0  0  0  0
  -15.8669  -28.0861   22.7059 H   0  0  0  0  0  0
  -24.5846  -30.7254   25.7859 H   0  0  0  0  0  0
  -24.9069  -32.3054   26.4912 H   0  0  0  0  0  0
  -25.8108  -30.8998   27.0241 H   0  0  0  0  0  0
  -26.2939  -29.6796   24.1197 H   0  0  0  0  0  0
  -27.3935  -29.7298   25.4793 H   0  0  0  0  0  0
  -27.8863  -30.4235   23.9526 H   0  0  0  0  0  0
  -27.2515  -33.3643   26.2098 H   0  0  0  0  0  0
  -28.3853  -32.7050   25.0414 H   0  0  0  0  0  0
  -28.0643  -31.8538   26.5477 H   0  0  0  0  0  0
  -28.2652  -38.0057   24.7524 H   0  0  0  0  0  0
  -28.1015  -36.2600   24.6309 H   0  0  0  0  0  0
  -27.2278  -37.1494   25.8882 H   0  0  0  0  0  0
  -20.9299  -29.8794   21.7029 H   0  0  0  0  0  0
  -26.0132  -38.2856   24.1439 H   0  0  0  0  0  0
  -28.3174  -19.1930   19.0973 H   0  0  0  0  0  0
  -29.0077  -16.8313   19.1338 H   0  0  0  0  0  0
  -30.1633  -17.2312   23.2701 H   0  0  0  0  0  0
  -28.6592  -22.3956   17.5752 H   0  0  0  0  0  0
  -29.1447  -23.8870   16.7854 H   0  0  0  0  0  0
  -27.4785  -23.6607   17.2858 H   0  0  0  0  0  0
  -30.7386  -23.0289   19.0915 H   0  0  0  0  0  0
  -30.6867  -24.4715   20.0915 H   0  0  0  0  0  0
  -30.9058  -24.5943   18.3422 H   0  0  0  0  0  0
  -27.5826  -25.7420   18.1586 H   0  0  0  0  0  0
  -29.1891  -26.1449   18.1997 H   0  0  0  0  0  0
  -29.1450  -14.9618   21.8576 H   0  0  0  0  0  0
  -29.1934  -21.5098   19.4697 H   0  0  0  0  0  0
  -27.6138  -20.8570   23.0908 H   0  0  0  0  0  0
  -27.3444  -22.3898   22.2964 H   0  0  0  0  0  0
  1 25  1  0  0  0
  1 30  2  0  0  0
  1 83  1  0  0  0
  2  3  1  0  0  0
  2 25  1  0  0  0
  2 88  1  0  0  0
  2 89  1  0  0  0
  3  4  1  0  0  0
  3 90  1  0  0  0
  3 91  1  0  0  0
  4  5  1  0  0  0
  4 92  1  0  0  0
  4 93  1  0  0  0
  5  6  1  0  0  0
  5 26  1  0  0  0
  5 94  1  0  0  0
  6 25  1  0  0  0
  6 95  1  0  0  0
  6 96  1  0  0  0
  7  8  2  0  0  0
  7 26  1  0  0  0
  7 29  1  0  0  0
  8  9  1  0  0  0
  8 22  1  0  0  0
  9 10  1  0  0  0
  9 27  2  0  0  0
 10 11  2  0  0  0
 10 15  1  0  0  0
 11 12  1  0  0  0
 11 97  1  0  0  0
 12 13  2  0  0  0
 12 98  1  0  0  0
 13 14  1  0  0  0
 13 31  1  0  0  0
 14 15  2  0  0  0
 14 99  1  0  0  0
 15100  1  0  0  0
 16 17  2  0  0  0
 16 21  1  0  0  0
 16 31  1  0  0  0
 17 18  1  0  0  0
 17101  1  0  0  0
 18 19  2  0  0  0
 18102  1  0  0  0
 19 20  1  0  0  0
 19 24  1  0  0  0
 20 21  2  0  0  0
 20103  1  0  0  0
 21 23  1  0  0  0
 22 28  1  0  0  0
 22 32  2  0  0  0
 26 27  1  0  0  0
 28104  1  0  0  0
 28105  1  0  0  0
 29106  1  0  0  0
 29107  1  0  0  0
 33 34  1  0  0  0
 33 66  1  0  0  0
 33 70  2  0  0  0
 34 36  1  0  0  0
 34 59  1  0  0  0
 34108  1  0  0  0
 35 44  2  0  0  0
 35 45  1  0  0  0
 35 68  1  0  0  0
 36 56  1  0  0  0
 36109  1  0  0  0
 37 39  1  0  0  0
 37 47  1  0  0  0
 37 66  1  0  0  0
 37110  1  0  0  0
 38 43  2  0  0  0
 38 46  1  0  0  0
 38 47  1  0  0  0
 39 64  1  0  0  0
 39 67  2  0  0  0
 40 52  1  0  0  0
 40 53  2  0  0  0
 40 58  1  0  0  0
 41111  1  0  0  0
 41112  1  0  0  0
 41113  1  0  0  0
 41 48  1  0  0  0
 42 43  1  0  0  0
 42 66  1  0  0  0
 42114  1  0  0  0
 42115  1  0  0  0
 43 44  1  0  0  0
 44116  1  0  0  0
 45 46  2  0  0  0
 45117  1  0  0  0
 46118  1  0  0  0
 47119  1  0  0  0
 47120  1  0  0  0
 48 56  1  0  0  0
 48 65  1  0  0  0
 48121  1  0  0  0
 49 50  1  0  0  0
 49 53  1  0  0  0
 49 64  1  0  0  0
 49122  1  0  0  0
 50 51  1  0  0  0
 50123  1  0  0  0
 50124  1  0  0  0
 51 52  1  0  0  0
 51125  1  0  0  0
 51126  1  0  0  0
 52127  1  0  0  0
 52128  1  0  0  0
 53 54  1  0  0  0
 54 55  2  0  0  0
 54129  1  0  0  0
 55 57  1  0  0  0
 55130  1  0  0  0
 56 69  2  0  0  0
 57 58  2  0  0  0
 57131  1  0  0  0
 58132  1  0  0  0
 59 60  1  0  0  0
 59 61  1  0  0  0
 59 62  1  0  0  0
 60133  1  0  0  0
 60134  1  0  0  0
 60135  1  0  0  0
 61136  1  0  0  0
 61137  1  0  0  0
 61138  1  0  0  0
 62139  1  0  0  0
 62140  1  0  0  0
 62141  1  0  0  0
 63 65  1  0  0  0
 63142  1  0  0  0
 63143  1  0  0  0
 63144  1  0  0  0
 64145  1  0  0  0
 65146  1  0  0  0
 68 81  1  0  0  0
 71 72  2  0  0  0
 71 74  1  0  0  0
 71147  1  0  0  0
 72 75  1  0  0  0
 72148  1  0  0  0
 73 75  2  0  0  0
 73 76  1  0  0  0
 73149  1  0  0  0
 74 76  2  0  0  0
 74 77  1  0  0  0
 75 83  1  0  0  0
 76 87  1  0  0  0
 77 84  1  0  0  0
 77 85  2  0  0  0
 78 82  1  0  0  0
 78 84  1  0  0  0
 78 86  2  0  0  0
 79150  1  0  0  0
 79151  1  0  0  0
 79152  1  0  0  0
 79 82  1  0  0  0
 80 82  1  0  0  0
 80153  1  0  0  0
 80154  1  0  0  0
 80155  1  0  0  0
 81 82  1  0  0  0
 81156  1  0  0  0
 81157  1  0  0  0
 83158  1  0  0  0
 84159  1  0  0  0
 85160  1  0  0  0
 85161  1  0  0  0
M  CHG  1  85   1
M  ISO  4   1 100  68 101  81 101  83 100
M  END
> <chiral flag>
0

> <version>
0

> <s_m_source_file>
/data/baiqing/PycharmProjects/Reinvent-master-3.2/result/LINK_invent/BTK/process_docking_weight1_custom_product_contain_oxygen_bond_distance_aromatic_linkinvent_7_9_3/rearranged_h_0077.sdf

> <i_m_source_file_index>
60

> <r_mmod_Potential_Energy-OPLS-2005>
-162.151657104492

> <r_mmod_Stretch_Energy-OPLS-2005>
58.2572631835938

> <r_mmod_Bend_Energy-OPLS-2005>
143.028350830078

> <r_mmod_Torsional_Energy-OPLS-2005>
261.505889892578

> <r_mmod_Improper_Torsional_Energy-OPLS-2005>
5.04462766647339

> <r_mmod_Van_der_Waal_Energy-OPLS-2005>
171.682189941406

> <r_mmod_Electrostatic_Energy-OPLS-2005>
-384.6240234375

> <r_mmod_Solvation_Energy-OPLS-2005>
-448.655029296875

> <b_mmod_Minimization_Converged-OPLS-2005>
0

> <r_mmod_RMS_Derivative-OPLS-2005>
6.59066200256348

$$$$
60
                    3D
 Structure written by MMmdl.
155163  0  0  1  0            999 V2000
  -30.6684  -14.5102   20.5560 C   0  0  0  0  0  0
  -30.4345  -12.3257   19.4228 C   0  0  0  0  0  0
  -29.5025  -12.5151   18.2072 C   0  0  0  0  0  0
  -28.0236  -12.3609   18.6179 C   0  0  0  0  0  0
  -27.6652  -13.2020   19.8722 C   0  0  2  0  0  0
  -28.7065  -12.9831   20.9938 C   0  0  0  0  0  0
  -25.2619  -13.8142   20.5656 C   0  0  0  0  0  0
  -24.1859  -13.0436   20.9157 C   0  0  0  0  0  0
  -24.6393  -11.6894   20.8712 C   0  0  0  0  0  0
  -23.9049  -10.4288   21.0385 C   0  0  0  0  0  0
  -24.3604   -9.4206   21.9168 C   0  0  0  0  0  0
  -23.6279   -8.2243   22.0748 C   0  0  0  0  0  0
  -22.4259   -8.0278   21.3544 C   0  0  0  0  0  0
  -21.9891   -9.0249   20.4647 C   0  0  0  0  0  0
  -22.7220  -10.2125   20.3041 C   0  0  0  0  0  0
  -21.6853   -6.0724   22.5276 C   0  0  0  0  0  0
  -21.4013   -6.5627   23.8206 C   0  0  0  0  0  0
  -21.3654   -5.6780   24.9170 C   0  0  0  0  0  0
  -21.6047   -4.3046   24.7223 C   0  0  0  0  0  0
  -21.8826   -3.8136   23.4345 C   0  0  0  0  0  0
  -21.9196   -4.6950   22.3405 C   0  0  0  0  0  0
  -22.7887  -13.5250   21.1819 C   0  0  0  0  0  0
  -22.1669   -4.2137   21.0984 F   0  0  0  0  0  0
  -21.5625   -3.4528   25.7732 F   0  0  0  0  0  0
  -30.0375  -13.3062   20.4472 N   0  0  0  0  0  0
  -26.3047  -12.9299   20.3331 N   0  0  0  0  0  0
  -25.9319  -11.6465   20.5723 N   0  0  0  0  0  0
  -22.0514  -12.8252   22.0376 N   0  0  0  0  0  0
  -25.4364  -15.1854   20.4043 N   0  0  0  0  0  0
  -31.7968  -14.7101   20.0962 O   0  0  0  0  0  0
  -21.6634   -6.8869   21.4236 O   0  0  0  0  0  0
  -22.3579  -14.5558   20.6659 O   0  0  0  0  0  0
  -24.6163  -31.8672   23.2085 C   0  0  0  0  0  0
  -25.9044  -32.4821   23.8393 C   0  0  1  0  0  0
  -27.2364  -27.4163   20.1024 C   0  0  0  0  0  0
  -25.5884  -33.8617   24.2317 N   0  0  0  0  0  0
  -23.4062  -30.4902   21.5499 C   0  0  2  0  0  0
  -24.8543  -28.9536   20.1184 C   0  0  0  0  0  0
  -22.7426  -29.4656   22.4985 C   0  0  0  0  0  0
  -18.0281  -28.1395   22.8495 C   0  0  0  0  0  0
  -24.1478  -36.7299   23.2640 C   0  0  0  0  0  0
  -25.9374  -30.8291   21.3644 C   0  0  0  0  0  0
  -26.0175  -29.4617   20.7111 C   0  0  0  0  0  0
  -27.2139  -28.7031   20.6951 C   0  0  0  0  0  0
  -26.0570  -26.9331   19.4941 C   0  0  0  0  0  0
  -24.8684  -27.6877   19.5090 C   0  0  0  0  0  0
  -23.6174  -29.8232   20.1659 C   0  0  0  0  0  0
  -25.4097  -36.3103   24.0348 C   0  0  1  0  0  0
  -20.5873  -28.3669   23.1322 C   0  0  2  0  0  0
  -20.6764  -26.9400   22.5432 C   0  0  0  0  0  0
  -19.5746  -26.6395   21.5224 C   0  0  0  0  0  0
  -18.1923  -26.7940   22.1630 C   0  0  0  0  0  0
  -19.1532  -28.8850   23.2903 C   0  0  0  0  0  0
  -18.9463  -30.1458   23.8907 C   0  0  0  0  0  0
  -17.6465  -30.6593   24.0577 C   0  0  0  0  0  0
  -25.9032  -34.9474   23.5132 C   0  0  0  0  0  0
  -16.5353  -29.9097   23.6337 C   0  0  0  0  0  0
  -16.7272  -28.6522   23.0343 C   0  0  0  0  0  0
  -26.4448  -31.6611   25.0735 C   0  0  0  0  0  0
  -25.3693  -31.3757   26.1478 C   0  0  0  0  0  0
  -27.0285  -30.3053   24.6124 C   0  0  0  0  0  0
  -27.6032  -32.4325   25.7490 C   0  0  0  0  0  0
  -27.5585  -37.1788   24.8451 C   0  0  0  0  0  0
  -21.4152  -29.3031   22.3724 N   0  0  0  0  0  0
  -26.4271  -37.3803   23.9432 N   0  0  0  0  0  0
  -24.6719  -31.0765   22.0993 N   0  0  0  0  0  0
  -23.4191  -28.8193   23.3032 O   0  0  0  0  0  0
  -28.3860  -26.6453   20.0962 O   0  0  0  0  0  0
  -26.5609  -34.8929   22.4700 O   0  0  0  0  0  0
  -23.5349  -32.1434   23.7457 O   0  0  0  0  0  0
  -28.7284  -17.6257   20.9907 C   0  0  0  0  0  0
  -31.1267  -17.6614   20.6256 C   0  0  0  0  0  0
  -28.6708  -19.0264   20.8060 C   0  0  0  0  0  0
  -31.0753  -19.0691   20.4553 C   0  0  0  0  0  0
  -29.9487  -16.9160   20.8890 C   0  0  0  0  0  0
  -29.8439  -19.7621   20.5268 C   0  0  0  0  0  0
  -28.9392  -21.8559   19.5205 C   0  0  0  0  0  0
  -29.3383  -24.2954   20.3091 C   0  0  0  0  0  0
  -28.2587  -25.3448   20.7186 C   0  0  0  0  0  0
  -28.2129  -21.1527   18.6457 N   0  0  0  0  0  0
  -29.9116  -15.4938   21.0952 N   0  0  0  0  0  0
  -29.7912  -21.2188   20.3681 N   0  0  0  0  0  0
  -28.7708  -23.2017   19.4817 N   0  3  0  0  0  0
  -31.4779  -12.4369   19.1212 H   0  0  0  0  0  0
  -30.3470  -11.3125   19.8178 H   0  0  0  0  0  0
  -29.7522  -11.7978   17.4240 H   0  0  0  0  0  0
  -29.6615  -13.5044   17.7744 H   0  0  0  0  0  0
  -27.8443  -11.3032   18.8186 H   0  0  0  0  0  0
  -27.3730  -12.6285   17.7849 H   0  0  0  0  0  0
  -27.7090  -14.2496   19.5706 H   0  0  0  0  0  0
  -28.6914  -11.9445   21.3279 H   0  0  0  0  0  0
  -28.4591  -13.5716   21.8779 H   0  0  0  0  0  0
  -25.2752   -9.5686   22.4728 H   0  0  0  0  0  0
  -23.9991   -7.4642   22.7469 H   0  0  0  0  0  0
  -21.0822   -8.8765   19.8961 H   0  0  0  0  0  0
  -22.3678  -10.9653   19.6138 H   0  0  0  0  0  0
  -21.2004   -7.6133   23.9703 H   0  0  0  0  0  0
  -21.1470   -6.0510   25.9072 H   0  0  0  0  0  0
  -22.0611   -2.7597   23.2849 H   0  0  0  0  0  0
  -22.4106  -11.9909   22.4775 H   0  0  0  0  0  0
  -21.1137  -13.1312   22.2570 H   0  0  0  0  0  0
  -24.6658  -15.8391   20.4916 H   0  0  0  0  0  0
  -26.2783  -15.6131   20.0422 H   0  0  0  0  0  0
  -26.7113  -32.5533   23.1160 H   0  0  0  0  0  0
  -25.0006  -33.9771   25.0441 H   0  0  0  0  0  0
  -22.6969  -31.3082   21.4091 H   0  0  0  0  0  0
  -23.3760  -35.9608   23.3275 H   0  0  0  0  0  0
  -24.3582  -36.8939   22.2058 H   0  0  0  0  0  0
  -23.7201  -37.6484   23.6668 H   0  0  0  0  0  0
  -26.0522  -31.5968   20.5974 H   0  0  0  0  0  0
  -26.8239  -30.8824   21.9851 H   0  0  0  0  0  0
  -28.1126  -29.0927   21.1534 H   0  0  0  0  0  0
  -26.0500  -25.9691   19.0062 H   0  0  0  0  0  0
  -23.9736  -27.2911   19.0510 H   0  0  0  0  0  0
  -23.7301  -30.5975   19.4061 H   0  0  0  0  0  0
  -22.7406  -29.2452   19.8681 H   0  0  0  0  0  0
  -25.1261  -36.1960   25.0840 H   0  0  0  0  0  0
  -20.9976  -28.3235   24.1436 H   0  0  0  0  0  0
  -20.5674  -26.2265   23.3616 H   0  0  0  0  0  0
  -21.6634  -26.7442   22.1226 H   0  0  0  0  0  0
  -19.6896  -25.6305   21.1254 H   0  0  0  0  0  0
  -19.6699  -27.3205   20.6752 H   0  0  0  0  0  0
  -17.4201  -26.6713   21.4022 H   0  0  0  0  0  0
  -18.0304  -26.0080   22.9023 H   0  0  0  0  0  0
  -19.7941  -30.7280   24.2274 H   0  0  0  0  0  0
  -17.5022  -31.6273   24.5180 H   0  0  0  0  0  0
  -15.5354  -30.3001   23.7656 H   0  0  0  0  0  0
  -15.8675  -28.0852   22.7032 H   0  0  0  0  0  0
  -24.5829  -30.7139   25.7821 H   0  0  0  0  0  0
  -24.8910  -32.2934   26.4915 H   0  0  0  0  0  0
  -25.8015  -30.8928   27.0251 H   0  0  0  0  0  0
  -26.2856  -29.6834   24.1116 H   0  0  0  0  0  0
  -27.3989  -29.7270   25.4598 H   0  0  0  0  0  0
  -27.8709  -30.4383   23.9334 H   0  0  0  0  0  0
  -27.2662  -33.3612   26.2106 H   0  0  0  0  0  0
  -28.3813  -32.6910   25.0296 H   0  0  0  0  0  0
  -28.0728  -31.8423   26.5369 H   0  0  0  0  0  0
  -28.2561  -38.0131   24.7575 H   0  0  0  0  0  0
  -28.1123  -36.2666   24.6165 H   0  0  0  0  0  0
  -27.2327  -37.1309   25.8858 H   0  0  0  0  0  0
  -20.9312  -29.8739   21.6937 H   0  0  0  0  0  0
  -26.0157  -38.2868   24.1487 H   0  0  0  0  0  0
  -27.8116  -17.0990   21.2136 H   0  0  0  0  0  0
  -32.0870  -17.1690   20.5663 H   0  0  0  0  0  0
  -27.7204  -19.5327   20.9001 H   0  0  0  0  0  0
  -31.9916  -19.6078   20.2630 H   0  0  0  0  0  0
  -29.7642  -23.8578   21.2117 H   0  0  0  0  0  0
  -30.1632  -24.7785   19.7843 H   0  0  0  0  0  0
  -28.3337  -25.5067   21.7944 H   0  0  0  0  0  0
  -27.2698  -24.9111   20.5707 H   0  0  0  0  0  0
  -28.3317  -20.1526   18.5740 H   0  0  0  0  0  0
  -27.5476  -21.5789   18.0152 H   0  0  0  0  0  0
  -29.0424  -15.1435   21.4701 H   0  0  0  0  0  0
  -30.5743  -21.7754   20.6820 H   0  0  0  0  0  0
  -28.1976  -23.5626   18.7335 H   0  0  0  0  0  0
  1 25  1  0  0  0
  1 30  2  0  0  0
  1 81  1  0  0  0
  2  3  1  0  0  0
  2 25  1  0  0  0
  2 84  1  0  0  0
  2 85  1  0  0  0
  3  4  1  0  0  0
  3 86  1  0  0  0
  3 87  1  0  0  0
  4  5  1  0  0  0
  4 88  1  0  0  0
  4 89  1  0  0  0
  5  6  1  0  0  0
  5 26  1  0  0  0
  5 90  1  0  0  0
  6 25  1  0  0  0
  6 91  1  0  0  0
  6 92  1  0  0  0
  7  8  2  0  0  0
  7 26  1  0  0  0
  7 29  1  0  0  0
  8  9  1  0  0  0
  8 22  1  0  0  0
  9 10  1  0  0  0
  9 27  2  0  0  0
 10 11  2  0  0  0
 10 15  1  0  0  0
 11 12  1  0  0  0
 11 93  1  0  0  0
 12 13  2  0  0  0
 12 94  1  0  0  0
 13 14  1  0  0  0
 13 31  1  0  0  0
 14 15  2  0  0  0
 14 95  1  0  0  0
 15 96  1  0  0  0
 16 17  2  0  0  0
 16 21  1  0  0  0
 16 31  1  0  0  0
 17 18  1  0  0  0
 17 97  1  0  0  0
 18 19  2  0  0  0
 18 98  1  0  0  0
 19 20  1  0  0  0
 19 24  1  0  0  0
 20 21  2  0  0  0
 20 99  1  0  0  0
 21 23  1  0  0  0
 22 28  1  0  0  0
 22 32  2  0  0  0
 26 27  1  0  0  0
 28100  1  0  0  0
 28101  1  0  0  0
 29102  1  0  0  0
 29103  1  0  0  0
 33 34  1  0  0  0
 33 66  1  0  0  0
 33 70  2  0  0  0
 34 36  1  0  0  0
 34 59  1  0  0  0
 34104  1  0  0  0
 35 44  2  0  0  0
 35 45  1  0  0  0
 35 68  1  0  0  0
 36 56  1  0  0  0
 36105  1  0  0  0
 37 39  1  0  0  0
 37 47  1  0  0  0
 37 66  1  0  0  0
 37106  1  0  0  0
 38 43  2  0  0  0
 38 46  1  0  0  0
 38 47  1  0  0  0
 39 64  1  0  0  0
 39 67  2  0  0  0
 40 52  1  0  0  0
 40 53  2  0  0  0
 40 58  1  0  0  0
 41107  1  0  0  0
 41108  1  0  0  0
 41109  1  0  0  0
 41 48  1  0  0  0
 42 43  1  0  0  0
 42 66  1  0  0  0
 42110  1  0  0  0
 42111  1  0  0  0
 43 44  1  0  0  0
 44112  1  0  0  0
 45 46  2  0  0  0
 45113  1  0  0  0
 46114  1  0  0  0
 47115  1  0  0  0
 47116  1  0  0  0
 48 56  1  0  0  0
 48 65  1  0  0  0
 48117  1  0  0  0
 49 50  1  0  0  0
 49 53  1  0  0  0
 49 64  1  0  0  0
 49118  1  0  0  0
 50 51  1  0  0  0
 50119  1  0  0  0
 50120  1  0  0  0
 51 52  1  0  0  0
 51121  1  0  0  0
 51122  1  0  0  0
 52123  1  0  0  0
 52124  1  0  0  0
 53 54  1  0  0  0
 54 55  2  0  0  0
 54125  1  0  0  0
 55 57  1  0  0  0
 55126  1  0  0  0
 56 69  2  0  0  0
 57 58  2  0  0  0
 57127  1  0  0  0
 58128  1  0  0  0
 59 60  1  0  0  0
 59 61  1  0  0  0
 59 62  1  0  0  0
 60129  1  0  0  0
 60130  1  0  0  0
 60131  1  0  0  0
 61132  1  0  0  0
 61133  1  0  0  0
 61134  1  0  0  0
 62135  1  0  0  0
 62136  1  0  0  0
 62137  1  0  0  0
 63 65  1  0  0  0
 63138  1  0  0  0
 63139  1  0  0  0
 63140  1  0  0  0
 64141  1  0  0  0
 65142  1  0  0  0
 68 79  1  0  0  0
 71 73  2  0  0  0
 71 75  1  0  0  0
 71143  1  0  0  0
 72 74  1  0  0  0
 72 75  2  0  0  0
 72144  1  0  0  0
 73 76  1  0  0  0
 73145  1  0  0  0
 74 76  2  0  0  0
 74146  1  0  0  0
 75 81  1  0  0  0
 76 82  1  0  0  0
 77 80  1  0  0  0
 77 82  1  0  0  0
 77 83  2  0  0  0
 78 79  1  0  0  0
 78 83  1  0  0  0
 78147  1  0  0  0
 78148  1  0  0  0
 79149  1  0  0  0
 79150  1  0  0  0
 80151  1  0  0  0
 80152  1  0  0  0
 81153  1  0  0  0
 82154  1  0  0  0
 83155  1  0  0  0
M  CHG  1  83   1
M  ISO  4   1 100  68 101  79 101  81 100
M  END
> <chiral flag>
0

> <version>
0

> <s_m_source_file>
/data/baiqing/PycharmProjects/Reinvent-master-3.2/result/LINK_invent/BTK/process_docking_weight1_custom_product_contain_oxygen_bond_distance_aromatic_linkinvent_7_9_3/rearranged_h_0077.sdf

> <i_m_source_file_index>
61

> <r_mmod_Potential_Energy-OPLS-2005>
-216.259262084961

> <r_mmod_Stretch_Energy-OPLS-2005>
43.2540969848633

> <r_mmod_Bend_Energy-OPLS-2005>
112.192512512207

> <r_mmod_Torsional_Energy-OPLS-2005>
238.344085693359

> <r_mmod_Improper_Torsional_Energy-OPLS-2005>
5.07674217224121

> <r_mmod_Van_der_Waal_Energy-OPLS-2005>
152.546981811523

> <r_mmod_Electrostatic_Energy-OPLS-2005>
-347.937927246094

> <r_mmod_Solvation_Energy-OPLS-2005>
-436.046447753906

> <b_mmod_Minimization_Converged-OPLS-2005>
0

> <r_mmod_RMS_Derivative-OPLS-2005>
1.67737424373627

$$$$
61
                    3D
 Structure written by MMmdl.
159168  0  0  1  0            999 V2000
  -30.6611  -14.6137   20.5623 C   0  0  0  0  0  0
  -30.4310  -12.3904   19.4644 C   0  0  0  0  0  0
  -29.5100  -12.5164   18.2292 C   0  0  0  0  0  0
  -28.0304  -12.3543   18.6295 C   0  0  0  0  0  0
  -27.6525  -13.2190   19.8597 C   0  0  2  0  0  0
  -28.6857  -13.0499   20.9887 C   0  0  0  0  0  0
  -25.2544  -13.8176   20.5670 C   0  0  0  0  0  0
  -24.1822  -13.0437   20.9180 C   0  0  0  0  0  0
  -24.6387  -11.6909   20.8718 C   0  0  0  0  0  0
  -23.9065  -10.4292   21.0398 C   0  0  0  0  0  0
  -24.3620   -9.4213   21.9182 C   0  0  0  0  0  0
  -23.6289   -8.2252   22.0758 C   0  0  0  0  0  0
  -22.4271   -8.0276   21.3547 C   0  0  0  0  0  0
  -21.9906   -9.0258   20.4656 C   0  0  0  0  0  0
  -22.7234  -10.2135   20.3055 C   0  0  0  0  0  0
  -21.6859   -6.0725   22.5282 C   0  0  0  0  0  0
  -21.4014   -6.5634   23.8211 C   0  0  0  0  0  0
  -21.3664   -5.6787   24.9173 C   0  0  0  0  0  0
  -21.6049   -4.3049   24.7229 C   0  0  0  0  0  0
  -21.8819   -3.8140   23.4349 C   0  0  0  0  0  0
  -21.9193   -4.6953   22.3400 C   0  0  0  0  0  0
  -22.7845  -13.5226   21.1861 C   0  0  0  0  0  0
  -22.1659   -4.2142   21.0979 F   0  0  0  0  0  0
  -21.5635   -3.4536   25.7743 F   0  0  0  0  0  0
  -30.0105  -13.4067   20.4570 N   0  0  0  0  0  0
  -26.2969  -12.9363   20.3270 N   0  0  0  0  0  0
  -25.9300  -11.6512   20.5698 N   0  0  0  0  0  0
  -22.0489  -12.8223   22.0421 N   0  0  0  0  0  0
  -25.4274  -15.1903   20.4139 N   0  0  0  0  0  0
  -31.7790  -14.7644   20.0593 O   0  0  0  0  0  0
  -21.6637   -6.8869   21.4247 O   0  0  0  0  0  0
  -22.3520  -14.5528   20.6705 O   0  0  0  0  0  0
  -24.6241  -31.8626   23.2039 C   0  0  0  0  0  0
  -25.9096  -32.4785   23.8370 C   0  0  1  0  0  0
  -27.2166  -27.3330   20.1278 C   0  0  0  0  0  0
  -25.5920  -33.8587   24.2297 N   0  0  0  0  0  0
  -23.4165  -30.4881   21.5453 C   0  0  2  0  0  0
  -24.8607  -28.9431   20.1129 C   0  0  0  0  0  0
  -22.7467  -29.4652   22.4925 C   0  0  0  0  0  0
  -18.0297  -28.1403   22.8495 C   0  0  0  0  0  0
  -24.1489  -36.7309   23.2634 C   0  0  0  0  0  0
  -25.9545  -30.7998   21.3694 C   0  0  0  0  0  0
  -26.0280  -29.4257   20.7188 C   0  0  0  0  0  0
  -27.2099  -28.6313   20.7176 C   0  0  0  0  0  0
  -26.0325  -26.9023   19.4881 C   0  0  0  0  0  0
  -24.8639  -27.6863   19.4890 C   0  0  0  0  0  0
  -23.6311  -29.8263   20.1585 C   0  0  0  0  0  0
  -25.4106  -36.3080   24.0328 C   0  0  1  0  0  0
  -20.5898  -28.3712   23.1289 C   0  0  2  0  0  0
  -20.6789  -26.9438   22.5417 C   0  0  0  0  0  0
  -19.5752  -26.6400   21.5234 C   0  0  0  0  0  0
  -18.1934  -26.7947   22.1642 C   0  0  0  0  0  0
  -19.1550  -28.8872   23.2890 C   0  0  0  0  0  0
  -18.9465  -30.1474   23.8905 C   0  0  0  0  0  0
  -17.6462  -30.6598   24.0578 C   0  0  0  0  0  0
  -25.9048  -34.9451   23.5109 C   0  0  0  0  0  0
  -16.5357  -29.9105   23.6323 C   0  0  0  0  0  0
  -16.7283  -28.6528   23.0335 C   0  0  0  0  0  0
  -26.4487  -31.6570   25.0721 C   0  0  0  0  0  0
  -25.3735  -31.3709   26.1457 C   0  0  0  0  0  0
  -27.0301  -30.2989   24.6134 C   0  0  0  0  0  0
  -27.6044  -32.4300   25.7499 C   0  0  0  0  0  0
  -27.5578  -37.1809   24.8462 C   0  0  0  0  0  0
  -21.4185  -29.3061   22.3670 N   0  0  0  0  0  0
  -26.4283  -37.3776   23.9414 N   0  0  0  0  0  0
  -24.6841  -31.0669   22.0974 N   0  0  0  0  0  0
  -23.4198  -28.8195   23.2998 O   0  0  0  0  0  0
  -28.3411  -26.5029   20.1516 O   0  0  0  0  0  0
  -26.5616  -34.8915   22.4675 O   0  0  0  0  0  0
  -23.5411  -32.1409   23.7383 O   0  0  0  0  0  0
  -28.9120  -16.9590   23.0969 C   0  0  0  0  0  0
  -29.4811  -15.8184   22.4978 C   0  0  0  0  0  0
  -28.9053  -18.1980   22.4282 C   0  0  0  0  0  0
  -30.0208  -17.1535   20.5370 C   0  0  0  0  0  0
  -30.0039  -15.8630   21.1854 C   0  0  0  0  0  0
  -29.4914  -18.3424   21.1518 C   0  0  0  0  0  0
  -30.0036  -22.0920   21.3788 C   0  0  0  0  0  0
  -28.3428  -21.7559   19.6826 C   0  0  0  0  0  0
  -30.4738  -22.8822   22.3629 C   0  0  0  0  0  0
  -30.4345  -20.6038   21.3196 C   0  0  0  0  0  0
  -28.3510  -20.2241   19.9965 C   0  0  0  0  0  0
  -29.2445  -24.0777   19.9725 C   0  0  0  0  0  0
  -28.1529  -25.0809   20.5148 C   0  0  0  0  0  0
  -29.5804  -19.6575   20.5818 N   0  0  0  0  0  0
  -29.1626  -22.6101   20.3562 N   0  0  0  0  0  0
  -27.5769  -22.1541   18.7981 O   0  0  0  0  0  0
  -31.4753  -12.4977   19.1672 H   0  0  0  0  0  0
  -30.3563  -11.3919   19.8971 H   0  0  0  0  0  0
  -29.7782  -11.7696   17.4813 H   0  0  0  0  0  0
  -29.6570  -13.4894   17.7567 H   0  0  0  0  0  0
  -27.8630  -11.3010   18.8572 H   0  0  0  0  0  0
  -27.3822  -12.5899   17.7848 H   0  0  0  0  0  0
  -27.6814  -14.2601   19.5359 H   0  0  0  0  0  0
  -28.6939  -12.0170   21.3392 H   0  0  0  0  0  0
  -28.3799  -13.6357   21.8476 H   0  0  0  0  0  0
  -25.2766   -9.5683   22.4756 H   0  0  0  0  0  0
  -24.0007   -7.4633   22.7460 H   0  0  0  0  0  0
  -21.0844   -8.8770   19.8942 H   0  0  0  0  0  0
  -22.3697  -10.9676   19.6159 H   0  0  0  0  0  0
  -21.2000   -7.6143   23.9712 H   0  0  0  0  0  0
  -21.1492   -6.0518   25.9078 H   0  0  0  0  0  0
  -22.0594   -2.7605   23.2849 H   0  0  0  0  0  0
  -22.4098  -11.9893   22.4834 H   0  0  0  0  0  0
  -21.1097  -13.1244   22.2598 H   0  0  0  0  0  0
  -24.6722  -15.8533   20.5489 H   0  0  0  0  0  0
  -26.2992  -15.6297   20.1454 H   0  0  0  0  0  0
  -26.7178  -32.5466   23.1135 H   0  0  0  0  0  0
  -25.0049  -33.9745   25.0428 H   0  0  0  0  0  0
  -22.7094  -31.3086   21.4060 H   0  0  0  0  0  0
  -23.3732  -35.9662   23.3284 H   0  0  0  0  0  0
  -24.3594  -36.8939   22.2054 H   0  0  0  0  0  0
  -23.7268  -37.6519   23.6666 H   0  0  0  0  0  0
  -26.0766  -31.5575   20.5939 H   0  0  0  0  0  0
  -26.8390  -30.8574   21.9916 H   0  0  0  0  0  0
  -28.1061  -28.9956   21.1996 H   0  0  0  0  0  0
  -25.9933  -25.9514   18.9774 H   0  0  0  0  0  0
  -23.9714  -27.3148   19.0042 H   0  0  0  0  0  0
  -23.7596  -30.6072   19.4076 H   0  0  0  0  0  0
  -22.7476  -29.2645   19.8492 H   0  0  0  0  0  0
  -25.1284  -36.1929   25.0821 H   0  0  0  0  0  0
  -21.0012  -28.3300   24.1400 H   0  0  0  0  0  0
  -20.5736  -26.2328   23.3621 H   0  0  0  0  0  0
  -21.6651  -26.7492   22.1183 H   0  0  0  0  0  0
  -19.6914  -25.6315   21.1256 H   0  0  0  0  0  0
  -19.6674  -27.3217   20.6768 H   0  0  0  0  0  0
  -17.4212  -26.6714   21.4034 H   0  0  0  0  0  0
  -18.0312  -26.0097   22.9040 H   0  0  0  0  0  0
  -19.7937  -30.7302   24.2267 H   0  0  0  0  0  0
  -17.5011  -31.6269   24.5194 H   0  0  0  0  0  0
  -15.5357  -30.3004   23.7634 H   0  0  0  0  0  0
  -15.8690  -28.0856   22.7012 H   0  0  0  0  0  0
  -24.5917  -30.7041   25.7807 H   0  0  0  0  0  0
  -24.8919  -32.2875   26.4874 H   0  0  0  0  0  0
  -25.8074  -30.8910   27.0237 H   0  0  0  0  0  0
  -26.2850  -29.6771   24.1152 H   0  0  0  0  0  0
  -27.3997  -29.7210   25.4615 H   0  0  0  0  0  0
  -27.8729  -30.4268   23.9334 H   0  0  0  0  0  0
  -27.2641  -33.3594   26.2078 H   0  0  0  0  0  0
  -28.3854  -32.6866   25.0331 H   0  0  0  0  0  0
  -28.0705  -31.8424   26.5416 H   0  0  0  0  0  0
  -28.2577  -38.0119   24.7497 H   0  0  0  0  0  0
  -28.1085  -36.2646   24.6280 H   0  0  0  0  0  0
  -27.2308  -37.1458   25.8868 H   0  0  0  0  0  0
  -20.9359  -29.8790   21.6889 H   0  0  0  0  0  0
  -26.0150  -38.2848   24.1412 H   0  0  0  0  0  0
  -28.5017  -16.8929   24.0954 H   0  0  0  0  0  0
  -29.5342  -14.9061   23.0757 H   0  0  0  0  0  0
  -28.4831  -19.0578   22.9310 H   0  0  0  0  0  0
  -30.4767  -17.2359   19.5606 H   0  0  0  0  0  0
  -31.1334  -22.4835   23.1208 H   0  0  0  0  0  0
  -30.2131  -23.9264   22.4531 H   0  0  0  0  0  0
  -30.5805  -20.2597   22.3454 H   0  0  0  0  0  0
  -31.4267  -20.5698   20.8680 H   0  0  0  0  0  0
  -28.1415  -19.6914   19.0681 H   0  0  0  0  0  0
  -27.5056  -20.0301   20.6580 H   0  0  0  0  0  0
  -30.2275  -24.4632   20.2386 H   0  0  0  0  0  0
  -29.2361  -24.1394   18.8835 H   0  0  0  0  0  0
  -28.1496  -25.0301   21.6039 H   0  0  0  0  0  0
  -27.1811  -24.6975   20.2124 H   0  0  0  0  0  0
  1 25  1  0  0  0
  1 30  2  0  0  0
  1 75  1  0  0  0
  2  3  1  0  0  0
  2 25  1  0  0  0
  2 87  1  0  0  0
  2 88  1  0  0  0
  3  4  1  0  0  0
  3 89  1  0  0  0
  3 90  1  0  0  0
  4  5  1  0  0  0
  4 91  1  0  0  0
  4 92  1  0  0  0
  5  6  1  0  0  0
  5 26  1  0  0  0
  5 93  1  0  0  0
  6 25  1  0  0  0
  6 94  1  0  0  0
  6 95  1  0  0  0
  7  8  2  0  0  0
  7 26  1  0  0  0
  7 29  1  0  0  0
  8  9  1  0  0  0
  8 22  1  0  0  0
  9 10  1  0  0  0
  9 27  2  0  0  0
 10 11  2  0  0  0
 10 15  1  0  0  0
 11 12  1  0  0  0
 11 96  1  0  0  0
 12 13  2  0  0  0
 12 97  1  0  0  0
 13 14  1  0  0  0
 13 31  1  0  0  0
 14 15  2  0  0  0
 14 98  1  0  0  0
 15 99  1  0  0  0
 16 17  2  0  0  0
 16 21  1  0  0  0
 16 31  1  0  0  0
 17 18  1  0  0  0
 17100  1  0  0  0
 18 19  2  0  0  0
 18101  1  0  0  0
 19 20  1  0  0  0
 19 24  1  0  0  0
 20 21  2  0  0  0
 20102  1  0  0  0
 21 23  1  0  0  0
 22 28  1  0  0  0
 22 32  2  0  0  0
 26 27  1  0  0  0
 28103  1  0  0  0
 28104  1  0  0  0
 29105  1  0  0  0
 29106  1  0  0  0
 33 34  1  0  0  0
 33 66  1  0  0  0
 33 70  2  0  0  0
 34 36  1  0  0  0
 34 59  1  0  0  0
 34107  1  0  0  0
 35 44  2  0  0  0
 35 45  1  0  0  0
 35 68  1  0  0  0
 36 56  1  0  0  0
 36108  1  0  0  0
 37 39  1  0  0  0
 37 47  1  0  0  0
 37 66  1  0  0  0
 37109  1  0  0  0
 38 43  2  0  0  0
 38 46  1  0  0  0
 38 47  1  0  0  0
 39 64  1  0  0  0
 39 67  2  0  0  0
 40 52  1  0  0  0
 40 53  2  0  0  0
 40 58  1  0  0  0
 41110  1  0  0  0
 41111  1  0  0  0
 41112  1  0  0  0
 41 48  1  0  0  0
 42 43  1  0  0  0
 42 66  1  0  0  0
 42113  1  0  0  0
 42114  1  0  0  0
 43 44  1  0  0  0
 44115  1  0  0  0
 45 46  2  0  0  0
 45116  1  0  0  0
 46117  1  0  0  0
 47118  1  0  0  0
 47119  1  0  0  0
 48 56  1  0  0  0
 48 65  1  0  0  0
 48120  1  0  0  0
 49 50  1  0  0  0
 49 53  1  0  0  0
 49 64  1  0  0  0
 49121  1  0  0  0
 50 51  1  0  0  0
 50122  1  0  0  0
 50123  1  0  0  0
 51 52  1  0  0  0
 51124  1  0  0  0
 51125  1  0  0  0
 52126  1  0  0  0
 52127  1  0  0  0
 53 54  1  0  0  0
 54 55  2  0  0  0
 54128  1  0  0  0
 55 57  1  0  0  0
 55129  1  0  0  0
 56 69  2  0  0  0
 57 58  2  0  0  0
 57130  1  0  0  0
 58131  1  0  0  0
 59 60  1  0  0  0
 59 61  1  0  0  0
 59 62  1  0  0  0
 60132  1  0  0  0
 60133  1  0  0  0
 60134  1  0  0  0
 61135  1  0  0  0
 61136  1  0  0  0
 61137  1  0  0  0
 62138  1  0  0  0
 62139  1  0  0  0
 62140  1  0  0  0
 63 65  1  0  0  0
 63141  1  0  0  0
 63142  1  0  0  0
 63143  1  0  0  0
 64144  1  0  0  0
 65145  1  0  0  0
 68 83  1  0  0  0
 71 72  2  0  0  0
 71 73  1  0  0  0
 71146  1  0  0  0
 72 75  1  0  0  0
 72147  1  0  0  0
 73 76  2  0  0  0
 73148  1  0  0  0
 74 75  2  0  0  0
 74 76  1  0  0  0
 74149  1  0  0  0
 76 84  1  0  0  0
 77 79  2  0  0  0
 77 80  1  0  0  0
 77 85  1  0  0  0
 78 81  1  0  0  0
 78 85  1  0  0  0
 78 86  2  0  0  0
 79150  1  0  0  0
 79151  1  0  0  0
 80 84  1  0  0  0
 80152  1  0  0  0
 80153  1  0  0  0
 81 84  1  0  0  0
 81154  1  0  0  0
 81155  1  0  0  0
 82 83  1  0  0  0
 82 85  1  0  0  0
 82156  1  0  0  0
 82157  1  0  0  0
 83158  1  0  0  0
 83159  1  0  0  0
M  ISO  4   1 100  68 101  75 100  83 101
M  END
> <chiral flag>
0

> <version>
0

> <s_m_source_file>
/data/baiqing/PycharmProjects/Reinvent-master-3.2/result/LINK_invent/BTK/process_docking_weight1_custom_product_contain_oxygen_bond_distance_aromatic_linkinvent_7_9_3/rearranged_h_0077.sdf

> <i_m_source_file_index>
62

> <r_mmod_Potential_Energy-OPLS-2005>
122.860481262207

> <r_mmod_Stretch_Energy-OPLS-2005>
79.6678924560547

> <r_mmod_Bend_Energy-OPLS-2005>
133.924026489258

> <r_mmod_Torsional_Energy-OPLS-2005>
222.223114013672

> <r_mmod_Improper_Torsional_Energy-OPLS-2005>
6.44975709915161

> <r_mmod_Van_der_Waal_Energy-OPLS-2005>
160.986129760742

> <r_mmod_Electrostatic_Energy-OPLS-2005>
-306.982788085938

> <r_mmod_Solvation_Energy-OPLS-2005>
-212.544494628906

> <b_mmod_Minimization_Converged-OPLS-2005>
0

> <r_mmod_RMS_Derivative-OPLS-2005>
1.66515707969666

$$$$
62
                    3D
 Structure written by MMmdl.
157166  0  0  1  0            999 V2000
  -30.5844  -14.7038   20.4715 C   0  0  0  0  0  0
  -30.4486  -12.4283   19.4579 C   0  0  0  0  0  0
  -29.5149  -12.5084   18.2284 C   0  0  0  0  0  0
  -28.0382  -12.3335   18.6400 C   0  0  0  0  0  0
  -27.6501  -13.2153   19.8558 C   0  0  2  0  0  0
  -28.6964  -13.0995   20.9878 C   0  0  0  0  0  0
  -25.2558  -13.8163   20.5677 C   0  0  0  0  0  0
  -24.1825  -13.0431   20.9178 C   0  0  0  0  0  0
  -24.6392  -11.6899   20.8730 C   0  0  0  0  0  0
  -23.9056  -10.4291   21.0400 C   0  0  0  0  0  0
  -24.3607   -9.4209   21.9175 C   0  0  0  0  0  0
  -23.6288   -8.2245   22.0751 C   0  0  0  0  0  0
  -22.4267   -8.0282   21.3547 C   0  0  0  0  0  0
  -21.9899   -9.0254   20.4649 C   0  0  0  0  0  0
  -22.7228  -10.2134   20.3055 C   0  0  0  0  0  0
  -21.6856   -6.0732   22.5277 C   0  0  0  0  0  0
  -21.4020   -6.5631   23.8210 C   0  0  0  0  0  0
  -21.3657   -5.6779   24.9170 C   0  0  0  0  0  0
  -21.6044   -4.3047   24.7217 C   0  0  0  0  0  0
  -21.8821   -3.8141   23.4338 C   0  0  0  0  0  0
  -21.9196   -4.6960   22.3396 C   0  0  0  0  0  0
  -22.7851  -13.5234   21.1843 C   0  0  0  0  0  0
  -22.1664   -4.2148   21.0974 F   0  0  0  0  0  0
  -21.5624   -3.4528   25.7731 F   0  0  0  0  0  0
  -30.0048  -13.4592   20.4176 N   0  0  0  0  0  0
  -26.2974  -12.9337   20.3278 N   0  0  0  0  0  0
  -25.9317  -11.6495   20.5727 N   0  0  0  0  0  0
  -22.0487  -12.8238   22.0409 N   0  0  0  0  0  0
  -25.4265  -15.1886   20.4102 N   0  0  0  0  0  0
  -31.7666  -14.8713   20.1530 O   0  0  0  0  0  0
  -21.6640   -6.8876   21.4241 O   0  0  0  0  0  0
  -22.3543  -14.5547   20.6699 O   0  0  0  0  0  0
  -24.6303  -31.8578   23.1973 C   0  0  0  0  0  0
  -25.9130  -32.4763   23.8329 C   0  0  1  0  0  0
  -27.2265  -27.2820   20.1139 C   0  0  0  0  0  0
  -25.5932  -33.8563   24.2264 N   0  0  0  0  0  0
  -23.4256  -30.4812   21.5416 C   0  0  2  0  0  0
  -24.8702  -28.9279   20.1144 C   0  0  0  0  0  0
  -22.7504  -29.4622   22.4912 C   0  0  0  0  0  0
  -18.0303  -28.1388   22.8469 C   0  0  0  0  0  0
  -24.1514  -36.7310   23.2626 C   0  0  0  0  0  0
  -25.9701  -30.7796   21.3682 C   0  0  0  0  0  0
  -26.0438  -29.4016   20.7138 C   0  0  0  0  0  0
  -27.2221  -28.5908   20.7023 C   0  0  0  0  0  0
  -26.0119  -26.8555   19.5279 C   0  0  0  0  0  0
  -24.8573  -27.6603   19.5151 C   0  0  0  0  0  0
  -23.6424  -29.8155   20.1580 C   0  0  0  0  0  0
  -25.4121  -36.3073   24.0329 C   0  0  1  0  0  0
  -20.5906  -28.3698   23.1277 C   0  0  2  0  0  0
  -20.6794  -26.9416   22.5410 C   0  0  0  0  0  0
  -19.5771  -26.6385   21.5208 C   0  0  0  0  0  0
  -18.1950  -26.7925   22.1617 C   0  0  0  0  0  0
  -19.1552  -28.8858   23.2867 C   0  0  0  0  0  0
  -18.9464  -30.1457   23.8889 C   0  0  0  0  0  0
  -17.6461  -30.6581   24.0560 C   0  0  0  0  0  0
  -25.9057  -34.9447   23.5099 C   0  0  0  0  0  0
  -16.5354  -29.9074   23.6325 C   0  0  0  0  0  0
  -16.7288  -28.6500   23.0327 C   0  0  0  0  0  0
  -26.4490  -31.6550   25.0699 C   0  0  0  0  0  0
  -25.3707  -31.3719   26.1420 C   0  0  0  0  0  0
  -27.0264  -30.2945   24.6137 C   0  0  0  0  0  0
  -27.6083  -32.4231   25.7472 C   0  0  0  0  0  0
  -27.5600  -37.1805   24.8447 C   0  0  0  0  0  0
  -21.4210  -29.3054   22.3667 N   0  0  0  0  0  0
  -26.4294  -37.3767   23.9412 N   0  0  0  0  0  0
  -24.6956  -31.0572   22.0932 N   0  0  0  0  0  0
  -23.4215  -28.8158   23.2994 O   0  0  0  0  0  0
  -28.3497  -26.4228   20.1706 O   0  0  0  0  0  0
  -26.5625  -34.8920   22.4669 O   0  0  0  0  0  0
  -23.5455  -32.1385   23.7279 O   0  0  0  0  0  0
  -28.6390  -19.3161   19.7578 C   0  0  0  0  0  0
  -30.5152  -19.4901   21.2352 C   0  0  0  0  0  0
  -28.7646  -17.8902   19.7894 C   0  0  0  0  0  0
  -30.6635  -18.0618   21.2393 C   0  0  0  0  0  0
  -29.4912  -20.1748   20.5076 C   0  0  0  0  0  0
  -29.7720  -17.2105   20.5324 C   0  0  0  0  0  0
  -28.7251  -23.9362   20.2629 C   0  0  0  0  0  0
  -29.0990  -23.7590   21.6444 C   0  0  0  0  0  0
  -28.8300  -22.5563   19.6778 C   0  0  0  0  0  0
  -28.9955  -24.6754   22.6234 C   0  0  0  0  0  0
  -28.3844  -25.1170   19.5992 C   0  0  0  0  0  0
  -29.5820  -22.3424   21.8741 C   0  0  0  0  0  0
  -28.1793  -25.1718   18.0883 C   0  0  0  0  0  0
  -29.2911  -21.6467   20.6157 N   0  0  0  0  0  0
  -29.7084  -15.7460   20.6808 N   0  0  0  0  0  0
  -28.5550  -22.2332   18.5174 O   0  0  0  0  0  0
  -31.4871  -12.5719   19.1527 H   0  0  0  0  0  0
  -30.4032  -11.4391   19.9152 H   0  0  0  0  0  0
  -29.7910  -11.7503   17.4940 H   0  0  0  0  0  0
  -29.6458  -13.4720   17.7332 H   0  0  0  0  0  0
  -27.8850  -11.2810   18.8834 H   0  0  0  0  0  0
  -27.3842  -12.5472   17.7937 H   0  0  0  0  0  0
  -27.6571  -14.2431   19.4934 H   0  0  0  0  0  0
  -28.7228  -12.0847   21.3874 H   0  0  0  0  0  0
  -28.4335  -13.7451   21.8276 H   0  0  0  0  0  0
  -25.2754   -9.5690   22.4741 H   0  0  0  0  0  0
  -24.0000   -7.4638   22.7465 H   0  0  0  0  0  0
  -21.0828   -8.8769   19.8955 H   0  0  0  0  0  0
  -22.3677  -10.9667   19.6164 H   0  0  0  0  0  0
  -21.2018   -7.6140   23.9714 H   0  0  0  0  0  0
  -21.1475   -6.0509   25.9072 H   0  0  0  0  0  0
  -22.0604   -2.7605   23.2838 H   0  0  0  0  0  0
  -22.4081  -11.9886   22.4796 H   0  0  0  0  0  0
  -21.1124  -13.1300   22.2624 H   0  0  0  0  0  0
  -24.6581  -15.8408   20.5224 H   0  0  0  0  0  0
  -26.2695  -15.6315   20.0711 H   0  0  0  0  0  0
  -26.7197  -32.5431   23.1076 H   0  0  0  0  0  0
  -25.0066  -33.9709   25.0400 H   0  0  0  0  0  0
  -22.7194  -31.3017   21.3964 H   0  0  0  0  0  0
  -23.3766  -35.9648   23.3233 H   0  0  0  0  0  0
  -24.3631  -36.8976   22.2052 H   0  0  0  0  0  0
  -23.7276  -37.6507   23.6677 H   0  0  0  0  0  0
  -26.0956  -31.5361   20.5921 H   0  0  0  0  0  0
  -26.8537  -30.8386   21.9919 H   0  0  0  0  0  0
  -28.1242  -28.9515   21.1763 H   0  0  0  0  0  0
  -25.9184  -25.8701   19.0988 H   0  0  0  0  0  0
  -23.9513  -27.2805   19.0639 H   0  0  0  0  0  0
  -23.7698  -30.5917   19.4023 H   0  0  0  0  0  0
  -22.7602  -29.2510   19.8518 H   0  0  0  0  0  0
  -25.1285  -36.1924   25.0814 H   0  0  0  0  0  0
  -20.9992  -28.3275   24.1401 H   0  0  0  0  0  0
  -20.5701  -26.2300   23.3606 H   0  0  0  0  0  0
  -21.6668  -26.7451   22.1209 H   0  0  0  0  0  0
  -19.6937  -25.6293   21.1250 H   0  0  0  0  0  0
  -19.6711  -27.3186   20.6729 H   0  0  0  0  0  0
  -17.4221  -26.6654   21.4024 H   0  0  0  0  0  0
  -18.0349  -26.0073   22.9022 H   0  0  0  0  0  0
  -19.7936  -30.7275   24.2258 H   0  0  0  0  0  0
  -17.5012  -31.6262   24.5157 H   0  0  0  0  0  0
  -15.5352  -30.2965   23.7657 H   0  0  0  0  0  0
  -15.8689  -28.0828   22.7023 H   0  0  0  0  0  0
  -24.5922  -30.7007   25.7772 H   0  0  0  0  0  0
  -24.8844  -32.2887   26.4772 H   0  0  0  0  0  0
  -25.8026  -30.8978   27.0243 H   0  0  0  0  0  0
  -26.2797  -29.6752   24.1150 H   0  0  0  0  0  0
  -27.3905  -29.7157   25.4635 H   0  0  0  0  0  0
  -27.8713  -30.4170   23.9353 H   0  0  0  0  0  0
  -27.2738  -33.3537   26.2070 H   0  0  0  0  0  0
  -28.3904  -32.6755   25.0299 H   0  0  0  0  0  0
  -28.0728  -31.8311   26.5369 H   0  0  0  0  0  0
  -28.2565  -38.0150   24.7525 H   0  0  0  0  0  0
  -28.1149  -36.2685   24.6206 H   0  0  0  0  0  0
  -27.2340  -37.1367   25.8851 H   0  0  0  0  0  0
  -20.9386  -29.8771   21.6879 H   0  0  0  0  0  0
  -26.0177  -38.2850   24.1381 H   0  0  0  0  0  0
  -27.8265  -19.7443   19.1871 H   0  0  0  0  0  0
  -31.2081  -20.0642   21.8332 H   0  0  0  0  0  0
  -28.0367  -17.3083   19.2420 H   0  0  0  0  0  0
  -31.4410  -17.6229   21.8489 H   0  0  0  0  0  0
  -28.6184  -25.6716   22.4491 H   0  0  0  0  0  0
  -29.2836  -24.4317   23.6365 H   0  0  0  0  0  0
  -29.0495  -21.8765   22.7047 H   0  0  0  0  0  0
  -30.6514  -22.3387   22.0876 H   0  0  0  0  0  0
  -29.0606  -24.7878   17.5747 H   0  0  0  0  0  0
  -28.0235  -26.1898   17.7311 H   0  0  0  0  0  0
  -27.3217  -24.5689   17.7877 H   0  0  0  0  0  0
  -28.7715  -15.3981   20.8122 H   0  0  0  0  0  0
  1 25  1  0  0  0
  1 30  2  0  0  0
  1 85  1  0  0  0
  2  3  1  0  0  0
  2 25  1  0  0  0
  2 87  1  0  0  0
  2 88  1  0  0  0
  3  4  1  0  0  0
  3 89  1  0  0  0
  3 90  1  0  0  0
  4  5  1  0  0  0
  4 91  1  0  0  0
  4 92  1  0  0  0
  5  6  1  0  0  0
  5 26  1  0  0  0
  5 93  1  0  0  0
  6 25  1  0  0  0
  6 94  1  0  0  0
  6 95  1  0  0  0
  7  8  2  0  0  0
  7 26  1  0  0  0
  7 29  1  0  0  0
  8  9  1  0  0  0
  8 22  1  0  0  0
  9 10  1  0  0  0
  9 27  2  0  0  0
 10 11  2  0  0  0
 10 15  1  0  0  0
 11 12  1  0  0  0
 11 96  1  0  0  0
 12 13  2  0  0  0
 12 97  1  0  0  0
 13 14  1  0  0  0
 13 31  1  0  0  0
 14 15  2  0  0  0
 14 98  1  0  0  0
 15 99  1  0  0  0
 16 17  2  0  0  0
 16 21  1  0  0  0
 16 31  1  0  0  0
 17 18  1  0  0  0
 17100  1  0  0  0
 18 19  2  0  0  0
 18101  1  0  0  0
 19 20  1  0  0  0
 19 24  1  0  0  0
 20 21  2  0  0  0
 20102  1  0  0  0
 21 23  1  0  0  0
 22 28  1  0  0  0
 22 32  2  0  0  0
 26 27  1  0  0  0
 28103  1  0  0  0
 28104  1  0  0  0
 29105  1  0  0  0
 29106  1  0  0  0
 33 34  1  0  0  0
 33 66  1  0  0  0
 33 70  2  0  0  0
 34 36  1  0  0  0
 34 59  1  0  0  0
 34107  1  0  0  0
 35 44  2  0  0  0
 35 45  1  0  0  0
 35 68  1  0  0  0
 36 56  1  0  0  0
 36108  1  0  0  0
 37 39  1  0  0  0
 37 47  1  0  0  0
 37 66  1  0  0  0
 37109  1  0  0  0
 38 43  2  0  0  0
 38 46  1  0  0  0
 38 47  1  0  0  0
 39 64  1  0  0  0
 39 67  2  0  0  0
 40 52  1  0  0  0
 40 53  2  0  0  0
 40 58  1  0  0  0
 41110  1  0  0  0
 41111  1  0  0  0
 41112  1  0  0  0
 41 48  1  0  0  0
 42 43  1  0  0  0
 42 66  1  0  0  0
 42113  1  0  0  0
 42114  1  0  0  0
 43 44  1  0  0  0
 44115  1  0  0  0
 45 46  2  0  0  0
 45116  1  0  0  0
 46117  1  0  0  0
 47118  1  0  0  0
 47119  1  0  0  0
 48 56  1  0  0  0
 48 65  1  0  0  0
 48120  1  0  0  0
 49 50  1  0  0  0
 49 53  1  0  0  0
 49 64  1  0  0  0
 49121  1  0  0  0
 50 51  1  0  0  0
 50122  1  0  0  0
 50123  1  0  0  0
 51 52  1  0  0  0
 51124  1  0  0  0
 51125  1  0  0  0
 52126  1  0  0  0
 52127  1  0  0  0
 53 54  1  0  0  0
 54 55  2  0  0  0
 54128  1  0  0  0
 55 57  1  0  0  0
 55129  1  0  0  0
 56 69  2  0  0  0
 57 58  2  0  0  0
 57130  1  0  0  0
 58131  1  0  0  0
 59 60  1  0  0  0
 59 61  1  0  0  0
 59 62  1  0  0  0
 60132  1  0  0  0
 60133  1  0  0  0
 60134  1  0  0  0
 61135  1  0  0  0
 61136  1  0  0  0
 61137  1  0  0  0
 62138  1  0  0  0
 62139  1  0  0  0
 62140  1  0  0  0
 63 65  1  0  0  0
 63141  1  0  0  0
 63142  1  0  0  0
 63143  1  0  0  0
 64144  1  0  0  0
 65145  1  0  0  0
 68 81  1  0  0  0
 71 73  2  0  0  0
 71 75  1  0  0  0
 71146  1  0  0  0
 72 74  1  0  0  0
 72 75  2  0  0  0
 72147  1  0  0  0
 73 76  1  0  0  0
 73148  1  0  0  0
 74 76  2  0  0  0
 74149  1  0  0  0
 75 84  1  0  0  0
 76 85  1  0  0  0
 77 78  1  0  0  0
 77 79  1  0  0  0
 77 81  2  0  0  0
 78 80  2  0  0  0
 78 82  1  0  0  0
 79 84  1  0  0  0
 79 86  2  0  0  0
 80150  1  0  0  0
 80151  1  0  0  0
 81 83  1  0  0  0
 82 84  1  0  0  0
 82152  1  0  0  0
 82153  1  0  0  0
 83154  1  0  0  0
 83155  1  0  0  0
 83156  1  0  0  0
 85157  1  0  0  0
M  ISO  4   1 100  68 101  81 101  85 100
M  END
> <chiral flag>
0

> <version>
0

> <s_m_source_file>
/data/baiqing/PycharmProjects/Reinvent-master-3.2/result/LINK_invent/BTK/process_docking_weight1_custom_product_contain_oxygen_bond_distance_aromatic_linkinvent_7_9_3/rearranged_h_0077.sdf

> <i_m_source_file_index>
63

> <r_mmod_Potential_Energy-OPLS-2005>
301.31689453125

> <r_mmod_Stretch_Energy-OPLS-2005>
100.55078125

> <r_mmod_Bend_Energy-OPLS-2005>
197.038452148438

> <r_mmod_Torsional_Energy-OPLS-2005>
289.120208740234

> <r_mmod_Improper_Torsional_Energy-OPLS-2005>
6.97273349761963

> <r_mmod_Van_der_Waal_Energy-OPLS-2005>
141.710571289062

> <r_mmod_Electrostatic_Energy-OPLS-2005>
-294.971588134766

> <r_mmod_Solvation_Energy-OPLS-2005>
-208.983749389648

> <b_mmod_Minimization_Converged-OPLS-2005>
0

> <r_mmod_RMS_Derivative-OPLS-2005>
1.41329073905945

$$$$
63
                    3D
 Structure written by MMmdl.
172180  0  0  1  0            999 V2000
  -30.7363  -14.3892   20.6878 C   0  0  0  0  0  0
  -30.4233  -12.2888   19.4158 C   0  0  0  0  0  0
  -29.4919  -12.5237   18.2102 C   0  0  0  0  0  0
  -28.0163  -12.3683   18.6236 C   0  0  0  0  0  0
  -27.6681  -13.1970   19.8857 C   0  0  2  0  0  0
  -28.6993  -12.9402   21.0088 C   0  0  0  0  0  0
  -25.2606  -13.8139   20.5682 C   0  0  0  0  0  0
  -24.1844  -13.0448   20.9158 C   0  0  0  0  0  0
  -24.6376  -11.6889   20.8715 C   0  0  0  0  0  0
  -23.9050  -10.4294   21.0421 C   0  0  0  0  0  0
  -24.3613   -9.4202   21.9196 C   0  0  0  0  0  0
  -23.6291   -8.2241   22.0757 C   0  0  0  0  0  0
  -22.4266   -8.0285   21.3559 C   0  0  0  0  0  0
  -21.9914   -9.0253   20.4650 C   0  0  0  0  0  0
  -22.7231  -10.2131   20.3063 C   0  0  0  0  0  0
  -21.6847   -6.0730   22.5284 C   0  0  0  0  0  0
  -21.4004   -6.5636   23.8215 C   0  0  0  0  0  0
  -21.3666   -5.6796   24.9180 C   0  0  0  0  0  0
  -21.6042   -4.3058   24.7233 C   0  0  0  0  0  0
  -21.8814   -3.8145   23.4355 C   0  0  0  0  0  0
  -21.9182   -4.6956   22.3408 C   0  0  0  0  0  0
  -22.7867  -13.5237   21.1858 C   0  0  0  0  0  0
  -22.1658   -4.2142   21.0988 F   0  0  0  0  0  0
  -21.5634   -3.4546   25.7751 F   0  0  0  0  0  0
  -30.0534  -13.2289   20.4893 N   0  0  0  0  0  0
  -26.3039  -12.9293   20.3389 N   0  0  0  0  0  0
  -25.9296  -11.6449   20.5746 N   0  0  0  0  0  0
  -22.0511  -12.8231   22.0400 N   0  0  0  0  0  0
  -25.4390  -15.1863   20.4104 N   0  0  0  0  0  0
  -31.7417  -14.7073   20.0455 O   0  0  0  0  0  0
  -21.6632   -6.8877   21.4251 O   0  0  0  0  0  0
  -22.3536  -14.5539   20.6683 O   0  0  0  0  0  0
  -24.6154  -31.8749   23.2055 C   0  0  0  0  0  0
  -25.9066  -32.4859   23.8331 C   0  0  1  0  0  0
  -27.2326  -27.4638   20.0650 C   0  0  0  0  0  0
  -25.5956  -33.8655   24.2319 N   0  0  0  0  0  0
  -23.4019  -30.4981   21.5524 C   0  0  2  0  0  0
  -24.8469  -28.9710   20.1132 C   0  0  0  0  0  0
  -22.7391  -29.4734   22.5011 C   0  0  0  0  0  0
  -18.0307  -28.1414   22.8498 C   0  0  0  0  0  0
  -24.1464  -36.7268   23.2635 C   0  0  0  0  0  0
  -25.9232  -30.8557   21.3420 C   0  0  0  0  0  0
  -26.0132  -29.4877   20.6947 C   0  0  0  0  0  0
  -27.2212  -28.7491   20.6611 C   0  0  0  0  0  0
  -26.0408  -26.9531   19.5200 C   0  0  0  0  0  0
  -24.8513  -27.6998   19.5179 C   0  0  0  0  0  0
  -23.6057  -29.8328   20.1678 C   0  0  0  0  0  0
  -25.4083  -36.3108   24.0355 C   0  0  1  0  0  0
  -20.5880  -28.3727   23.1351 C   0  0  2  0  0  0
  -20.6797  -26.9470   22.5457 C   0  0  0  0  0  0
  -19.5804  -26.6429   21.5230 C   0  0  0  0  0  0
  -18.1966  -26.7969   22.1596 C   0  0  0  0  0  0
  -19.1537  -28.8878   23.2917 C   0  0  0  0  0  0
  -18.9445  -30.1481   23.8931 C   0  0  0  0  0  0
  -17.6440  -30.6602   24.0586 C   0  0  0  0  0  0
  -25.9011  -34.9509   23.5112 C   0  0  0  0  0  0
  -16.5343  -29.9102   23.6341 C   0  0  0  0  0  0
  -16.7284  -28.6532   23.0336 C   0  0  0  0  0  0
  -26.4488  -31.6545   25.0595 C   0  0  0  0  0  0
  -25.3638  -31.3385   26.1157 C   0  0  0  0  0  0
  -27.0493  -30.3084   24.5881 C   0  0  0  0  0  0
  -27.5974  -32.4278   25.7483 C   0  0  0  0  0  0
  -27.5540  -37.1803   24.8508 C   0  0  0  0  0  0
  -21.4121  -29.3106   22.3730 N   0  0  0  0  0  0
  -26.4275  -37.3777   23.9436 N   0  0  0  0  0  0
  -24.6669  -31.0870   22.0934 N   0  0  0  0  0  0
  -23.4129  -28.8280   23.3067 O   0  0  0  0  0  0
  -28.3052  -26.6122   19.9945 O   0  0  0  0  0  0
  -26.5495  -34.8996   22.4626 O   0  0  0  0  0  0
  -23.5329  -32.1499   23.7439 O   0  0  0  0  0  0
  -29.8185  -18.7048   22.7856 C   0  0  0  0  0  0
  -30.2425  -17.3552   22.7628 C   0  0  0  0  0  0
  -28.9258  -18.4443   20.5366 C   0  0  0  0  0  0
  -29.1332  -19.2519   21.6784 C   0  0  0  0  0  0
  -30.0013  -16.5350   21.6367 C   0  0  0  0  0  0
  -29.3402  -17.0988   20.5174 C   0  0  0  0  0  0
  -28.5272  -20.5931   21.7249 C   0  0  0  0  0  0
  -28.7020  -23.0370   22.2610 C   0  0  0  0  0  0
  -28.9061  -24.9596   23.9069 C   0  0  0  0  0  0
  -31.0117  -23.6029   23.4047 C   0  0  0  0  0  0
  -30.1084  -25.1391   18.3319 C   0  0  0  0  0  0
  -32.0352  -26.1522   19.6195 C   0  0  0  0  0  0
  -29.6414  -27.0795   19.9686 C   0  0  0  0  0  0
  -29.6597  -24.1098   22.8627 C   0  0  0  0  0  0
  -30.5363  -25.8309   19.6382 C   0  0  0  0  0  0
  -29.9826  -25.1175   21.8109 N   0  0  0  0  0  0
  -30.4059  -24.7663   20.6894 N   0  0  0  0  0  0
  -30.2915  -15.1439   21.7057 N   0  0  0  0  0  0
  -29.2054  -21.6846   22.1559 N   0  0  0  0  0  0
  -27.2514  -20.6716   21.3341 N   0  3  0  0  0  0
  -27.5445  -23.3253   21.9209 O   0  0  0  0  0  0
  -29.0298  -16.3404   19.4386 F   0  0  0  0  0  0
  -31.4689  -12.3890   19.1178 H   0  0  0  0  0  0
  -30.3224  -11.2635   19.7758 H   0  0  0  0  0  0
  -29.7277  -11.8232   17.4074 H   0  0  0  0  0  0
  -29.6636  -13.5211   17.8015 H   0  0  0  0  0  0
  -27.8337  -11.3087   18.8129 H   0  0  0  0  0  0
  -27.3631  -12.6463   17.7956 H   0  0  0  0  0  0
  -27.7267  -14.2492   19.6083 H   0  0  0  0  0  0
  -28.6539  -11.8984   21.3296 H   0  0  0  0  0  0
  -28.4272  -13.5190   21.8935 H   0  0  0  0  0  0
  -25.2752   -9.5661   22.4779 H   0  0  0  0  0  0
  -23.9978   -7.4625   22.7476 H   0  0  0  0  0  0
  -21.0843   -8.8758   19.8974 H   0  0  0  0  0  0
  -22.3686  -10.9661   19.6171 H   0  0  0  0  0  0
  -21.2005   -7.6147   23.9714 H   0  0  0  0  0  0
  -21.1497   -6.0535   25.9082 H   0  0  0  0  0  0
  -22.0591   -2.7608   23.2858 H   0  0  0  0  0  0
  -22.4087  -11.9852   22.4741 H   0  0  0  0  0  0
  -21.1155  -13.1277   22.2667 H   0  0  0  0  0  0
  -24.6799  -15.8491   20.5159 H   0  0  0  0  0  0
  -26.2939  -15.6135   20.0820 H   0  0  0  0  0  0
  -26.7171  -32.5619   23.1120 H   0  0  0  0  0  0
  -25.0449  -33.9870   25.0678 H   0  0  0  0  0  0
  -22.6956  -31.3214   21.4193 H   0  0  0  0  0  0
  -23.3749  -35.9599   23.3320 H   0  0  0  0  0  0
  -24.3538  -36.8741   22.2042 H   0  0  0  0  0  0
  -23.7178  -37.6502   23.6546 H   0  0  0  0  0  0
  -26.0043  -31.6137   20.5607 H   0  0  0  0  0  0
  -26.8213  -30.9300   21.9401 H   0  0  0  0  0  0
  -28.1220  -29.1552   21.0955 H   0  0  0  0  0  0
  -26.0372  -25.9671   19.0801 H   0  0  0  0  0  0
  -23.9470  -27.2886   19.0846 H   0  0  0  0  0  0
  -23.7052  -30.6082   19.4097 H   0  0  0  0  0  0
  -22.7243  -29.2559   19.8760 H   0  0  0  0  0  0
  -25.1244  -36.1985   25.0839 H   0  0  0  0  0  0
  -20.9958  -28.3296   24.1470 H   0  0  0  0  0  0
  -20.5744  -26.2310   23.3611 H   0  0  0  0  0  0
  -21.6683  -26.7574   22.1245 H   0  0  0  0  0  0
  -19.6989  -25.6346   21.1247 H   0  0  0  0  0  0
  -19.6774  -27.3246   20.6780 H   0  0  0  0  0  0
  -17.4233  -26.6723   21.3992 H   0  0  0  0  0  0
  -18.0412  -26.0112   22.9000 H   0  0  0  0  0  0
  -19.7918  -30.7301   24.2311 H   0  0  0  0  0  0
  -17.5005  -31.6300   24.5166 H   0  0  0  0  0  0
  -15.5354  -30.3003   23.7671 H   0  0  0  0  0  0
  -15.8679  -28.0867   22.7024 H   0  0  0  0  0  0
  -24.5758  -30.6980   25.7128 H   0  0  0  0  0  0
  -24.8866  -32.2471   26.4837 H   0  0  0  0  0  0
  -25.7814  -30.8167   26.9759 H   0  0  0  0  0  0
  -27.4607  -29.7496   25.4317 H   0  0  0  0  0  0
  -27.8615  -30.4524   23.8734 H   0  0  0  0  0  0
  -26.3047  -29.6641   24.1206 H   0  0  0  0  0  0
  -27.2602  -33.3722   26.1748 H   0  0  0  0  0  0
  -28.3981  -32.6500   25.0438 H   0  0  0  0  0  0
  -28.0341  -31.8535   26.5663 H   0  0  0  0  0  0
  -28.2571  -38.0078   24.7512 H   0  0  0  0  0  0
  -28.0987  -36.2592   24.6354 H   0  0  0  0  0  0
  -27.2287  -37.1495   25.8924 H   0  0  0  0  0  0
  -20.9270  -29.8819   21.6949 H   0  0  0  0  0  0
  -26.0146  -38.2863   24.1355 H   0  0  0  0  0  0
  -29.9727  -19.2933   23.6821 H   0  0  0  0  0  0
  -30.7222  -16.9456   23.6397 H   0  0  0  0  0  0
  -28.3972  -18.8336   19.6770 H   0  0  0  0  0  0
  -29.5032  -25.8096   24.2415 H   0  0  0  0  0  0
  -27.9899  -25.3768   23.4851 H   0  0  0  0  0  0
  -28.6391  -24.3701   24.7850 H   0  0  0  0  0  0
  -30.8775  -22.8578   24.1902 H   0  0  0  0  0  0
  -31.5781  -24.4223   23.8447 H   0  0  0  0  0  0
  -31.6306  -23.1742   22.6161 H   0  0  0  0  0  0
  -30.2910  -25.7891   17.4784 H   0  0  0  0  0  0
  -29.0507  -24.8813   18.3243 H   0  0  0  0  0  0
  -30.6650  -24.2155   18.1640 H   0  0  0  0  0  0
  -32.6284  -25.2570   19.4244 H   0  0  0  0  0  0
  -32.3609  -26.5707   20.5715 H   0  0  0  0  0  0
  -32.2671  -26.8820   18.8430 H   0  0  0  0  0  0
  -29.7587  -27.8401   19.1938 H   0  0  0  0  0  0
  -29.9082  -27.5385   20.9201 H   0  0  0  0  0  0
  -29.7428  -14.6481   22.3883 H   0  0  0  0  0  0
  -30.1550  -21.4672   22.4063 H   0  0  0  0  0  0
  -26.7271  -19.8341   21.1414 H   0  0  0  0  0  0
  -26.7834  -21.5694   21.3781 H   0  0  0  0  0  0
  1 25  1  0  0  0
  1 30  2  0  0  0
  1 88  1  0  0  0
  2  3  1  0  0  0
  2 25  1  0  0  0
  2 93  1  0  0  0
  2 94  1  0  0  0
  3  4  1  0  0  0
  3 95  1  0  0  0
  3 96  1  0  0  0
  4  5  1  0  0  0
  4 97  1  0  0  0
  4 98  1  0  0  0
  5  6  1  0  0  0
  5 26  1  0  0  0
  5 99  1  0  0  0
  6 25  1  0  0  0
  6100  1  0  0  0
  6101  1  0  0  0
  7  8  2  0  0  0
  7 26  1  0  0  0
  7 29  1  0  0  0
  8  9  1  0  0  0
  8 22  1  0  0  0
  9 10  1  0  0  0
  9 27  2  0  0  0
 10 11  2  0  0  0
 10 15  1  0  0  0
 11 12  1  0  0  0
 11102  1  0  0  0
 12 13  2  0  0  0
 12103  1  0  0  0
 13 14  1  0  0  0
 13 31  1  0  0  0
 14 15  2  0  0  0
 14104  1  0  0  0
 15105  1  0  0  0
 16 17  2  0  0  0
 16 21  1  0  0  0
 16 31  1  0  0  0
 17 18  1  0  0  0
 17106  1  0  0  0
 18 19  2  0  0  0
 18107  1  0  0  0
 19 20  1  0  0  0
 19 24  1  0  0  0
 20 21  2  0  0  0
 20108  1  0  0  0
 21 23  1  0  0  0
 22 28  1  0  0  0
 22 32  2  0  0  0
 26 27  1  0  0  0
 28109  1  0  0  0
 28110  1  0  0  0
 29111  1  0  0  0
 29112  1  0  0  0
 33 34  1  0  0  0
 33 66  1  0  0  0
 33 70  2  0  0  0
 34 36  1  0  0  0
 34 59  1  0  0  0
 34113  1  0  0  0
 35 44  2  0  0  0
 35 45  1  0  0  0
 35 68  1  0  0  0
 36 56  1  0  0  0
 36114  1  0  0  0
 37 39  1  0  0  0
 37 47  1  0  0  0
 37 66  1  0  0  0
 37115  1  0  0  0
 38 43  2  0  0  0
 38 46  1  0  0  0
 38 47  1  0  0  0
 39 64  1  0  0  0
 39 67  2  0  0  0
 40 52  1  0  0  0
 40 53  2  0  0  0
 40 58  1  0  0  0
 41116  1  0  0  0
 41117  1  0  0  0
 41118  1  0  0  0
 41 48  1  0  0  0
 42 43  1  0  0  0
 42 66  1  0  0  0
 42119  1  0  0  0
 42120  1  0  0  0
 43 44  1  0  0  0
 44121  1  0  0  0
 45 46  2  0  0  0
 45122  1  0  0  0
 46123  1  0  0  0
 47124  1  0  0  0
 47125  1  0  0  0
 48 56  1  0  0  0
 48 65  1  0  0  0
 48126  1  0  0  0
 49 50  1  0  0  0
 49 53  1  0  0  0
 49 64  1  0  0  0
 49127  1  0  0  0
 50 51  1  0  0  0
 50128  1  0  0  0
 50129  1  0  0  0
 51 52  1  0  0  0
 51130  1  0  0  0
 51131  1  0  0  0
 52132  1  0  0  0
 52133  1  0  0  0
 53 54  1  0  0  0
 54 55  2  0  0  0
 54134  1  0  0  0
 55 57  1  0  0  0
 55135  1  0  0  0
 56 69  2  0  0  0
 57 58  2  0  0  0
 57136  1  0  0  0
 58137  1  0  0  0
 59 60  1  0  0  0
 59 61  1  0  0  0
 59 62  1  0  0  0
 60138  1  0  0  0
 60139  1  0  0  0
 60140  1  0  0  0
 61141  1  0  0  0
 61142  1  0  0  0
 61143  1  0  0  0
 62144  1  0  0  0
 62145  1  0  0  0
 62146  1  0  0  0
 63 65  1  0  0  0
 63147  1  0  0  0
 63148  1  0  0  0
 63149  1  0  0  0
 64150  1  0  0  0
 65151  1  0  0  0
 68 83  1  0  0  0
 71 72  2  0  0  0
 71 74  1  0  0  0
 71152  1  0  0  0
 72 75  1  0  0  0
 72153  1  0  0  0
 73 74  2  0  0  0
 73 76  1  0  0  0
 73154  1  0  0  0
 74 77  1  0  0  0
 75 76  2  0  0  0
 75 88  1  0  0  0
 76 92  1  0  0  0
 77 89  1  0  0  0
 77 90  2  0  0  0
 78 84  1  0  0  0
 78 89  1  0  0  0
 78 91  2  0  0  0
 79155  1  0  0  0
 79156  1  0  0  0
 79157  1  0  0  0
 79 84  1  0  0  0
 80 84  1  0  0  0
 80158  1  0  0  0
 80159  1  0  0  0
 80160  1  0  0  0
 81161  1  0  0  0
 81162  1  0  0  0
 81163  1  0  0  0
 81 85  1  0  0  0
 82 85  1  0  0  0
 82164  1  0  0  0
 82165  1  0  0  0
 82166  1  0  0  0
 83 85  1  0  0  0
 83167  1  0  0  0
 83168  1  0  0  0
 84 86  1  0  0  0
 85 87  1  0  0  0
 86 87  2  0  0  0
 88169  1  0  0  0
 89170  1  0  0  0
 90171  1  0  0  0
 90172  1  0  0  0
M  CHG  1  90   1
M  ISO  4   1 100  68 101  83 101  88 100
M  END
> <chiral flag>
0

> <version>
0

> <s_m_source_file>
/data/baiqing/PycharmProjects/Reinvent-master-3.2/result/LINK_invent/BTK/process_docking_weight1_custom_product_contain_oxygen_bond_distance_aromatic_linkinvent_7_9_3/rearranged_h_0077.sdf

> <i_m_source_file_index>
64

> <r_mmod_Potential_Energy-OPLS-2005>
-381.935729980469

> <r_mmod_Stretch_Energy-OPLS-2005>
40.9430961608887

> <r_mmod_Bend_Energy-OPLS-2005>
136.472244262695

> <r_mmod_Torsional_Energy-OPLS-2005>
237.700637817383

> <r_mmod_Improper_Torsional_Energy-OPLS-2005>
5.77179479598999

> <r_mmod_Van_der_Waal_Energy-OPLS-2005>
174.881683349609

> <r_mmod_Electrostatic_Energy-OPLS-2005>
-547.294982910156

> <r_mmod_Solvation_Energy-OPLS-2005>
-440.930603027344

> <b_mmod_Minimization_Converged-OPLS-2005>
0

> <r_mmod_RMS_Derivative-OPLS-2005>
5.55633211135864

$$$$
64
                    3D
 Structure written by MMmdl.
150158  0  0  1  0            999 V2000
  -30.5982  -14.6847   20.4951 C   0  0  0  0  0  0
  -30.4454  -12.4195   19.4593 C   0  0  0  0  0  0
  -29.5132  -12.5144   18.2296 C   0  0  0  0  0  0
  -28.0365  -12.3434   18.6402 C   0  0  0  0  0  0
  -27.6540  -13.2175   19.8640 C   0  0  2  0  0  0
  -28.6988  -13.0832   20.9951 C   0  0  0  0  0  0
  -25.2566  -13.8172   20.5683 C   0  0  0  0  0  0
  -24.1832  -13.0438   20.9188 C   0  0  0  0  0  0
  -24.6398  -11.6908   20.8733 C   0  0  0  0  0  0
  -23.9066  -10.4294   21.0400 C   0  0  0  0  0  0
  -24.3617   -9.4209   21.9177 C   0  0  0  0  0  0
  -23.6290   -8.2247   22.0754 C   0  0  0  0  0  0
  -22.4271   -8.0284   21.3547 C   0  0  0  0  0  0
  -21.9904   -9.0258   20.4650 C   0  0  0  0  0  0
  -22.7235  -10.2137   20.3053 C   0  0  0  0  0  0
  -21.6856   -6.0731   22.5275 C   0  0  0  0  0  0
  -21.4019   -6.5635   23.8209 C   0  0  0  0  0  0
  -21.3658   -5.6789   24.9172 C   0  0  0  0  0  0
  -21.6041   -4.3051   24.7222 C   0  0  0  0  0  0
  -21.8821   -3.8145   23.4343 C   0  0  0  0  0  0
  -21.9195   -4.6960   22.3398 C   0  0  0  0  0  0
  -22.7856  -13.5235   21.1847 C   0  0  0  0  0  0
  -22.1663   -4.2145   21.0975 F   0  0  0  0  0  0
  -21.5624   -3.4536   25.7735 F   0  0  0  0  0  0
  -30.0108  -13.4435   20.4329 N   0  0  0  0  0  0
  -26.2994  -12.9349   20.3319 N   0  0  0  0  0  0
  -25.9328  -11.6505   20.5751 N   0  0  0  0  0  0
  -22.0497  -12.8237   22.0408 N   0  0  0  0  0  0
  -25.4282  -15.1893   20.4088 N   0  0  0  0  0  0
  -31.7569  -14.8571   20.1028 O   0  0  0  0  0  0
  -21.6640   -6.8877   21.4239 O   0  0  0  0  0  0
  -22.3541  -14.5538   20.6687 O   0  0  0  0  0  0
  -24.6275  -31.8580   23.2014 C   0  0  0  0  0  0
  -25.9115  -32.4768   23.8349 C   0  0  1  0  0  0
  -27.2271  -27.3014   20.1258 C   0  0  0  0  0  0
  -25.5920  -33.8570   24.2276 N   0  0  0  0  0  0
  -23.4232  -30.4799   21.5440 C   0  0  2  0  0  0
  -24.8727  -28.9312   20.1119 C   0  0  0  0  0  0
  -22.7485  -29.4609   22.4930 C   0  0  0  0  0  0
  -18.0285  -28.1388   22.8484 C   0  0  0  0  0  0
  -24.1489  -36.7293   23.2638 C   0  0  0  0  0  0
  -25.9656  -30.7819   21.3774 C   0  0  0  0  0  0
  -26.0411  -29.4065   20.7223 C   0  0  0  0  0  0
  -27.2219  -28.6019   20.7226 C   0  0  0  0  0  0
  -26.0403  -26.8860   19.4830 C   0  0  0  0  0  0
  -24.8745  -27.6760   19.4831 C   0  0  0  0  0  0
  -23.6407  -29.8134   20.1598 C   0  0  0  0  0  0
  -25.4110  -36.3079   24.0331 C   0  0  1  0  0  0
  -20.5887  -28.3691   23.1281 C   0  0  2  0  0  0
  -20.6777  -26.9411   22.5414 C   0  0  0  0  0  0
  -19.5754  -26.6384   21.5214 C   0  0  0  0  0  0
  -18.1932  -26.7930   22.1623 C   0  0  0  0  0  0
  -19.1538  -28.8857   23.2878 C   0  0  0  0  0  0
  -18.9461  -30.1458   23.8896 C   0  0  0  0  0  0
  -17.6459  -30.6589   24.0562 C   0  0  0  0  0  0
  -25.9048  -34.9445   23.5106 C   0  0  0  0  0  0
  -16.5351  -29.9086   23.6329 C   0  0  0  0  0  0
  -16.7272  -28.6505   23.0351 C   0  0  0  0  0  0
  -26.4491  -31.6582   25.0726 C   0  0  0  0  0  0
  -25.3718  -31.3742   26.1454 C   0  0  0  0  0  0
  -27.0325  -30.2996   24.6201 C   0  0  0  0  0  0
  -27.6057  -32.4313   25.7488 C   0  0  0  0  0  0
  -27.5584  -37.1795   24.8458 C   0  0  0  0  0  0
  -21.4196  -29.3037   22.3673 N   0  0  0  0  0  0
  -26.4289  -37.3774   23.9412 N   0  0  0  0  0  0
  -24.6908  -31.0570   22.0977 N   0  0  0  0  0  0
  -23.4197  -28.8149   23.3020 O   0  0  0  0  0  0
  -28.3275  -26.4252   20.1464 O   0  0  0  0  0  0
  -26.5620  -34.8916   22.4675 O   0  0  0  0  0  0
  -23.5434  -32.1388   23.7327 O   0  0  0  0  0  0
  -30.6967  -19.3878   19.9668 C   0  0  0  0  0  0
  -28.5644  -19.3536   21.0553 C   0  0  0  0  0  0
  -30.8058  -17.9629   20.0987 C   0  0  0  0  0  0
  -28.6724  -17.9339   21.1875 C   0  0  0  0  0  0
  -29.5753  -20.1380   20.4335 C   0  0  0  0  0  0
  -29.7875  -17.1845   20.7149 C   0  0  0  0  0  0
  -28.1081  -25.0530   20.4368 C   0  0  0  0  0  0
  -28.9546  -23.9887   20.1983 C   0  0  0  0  0  0
  -28.5966  -22.5705   20.5594 C   0  0  0  0  0  0
  -29.5348  -21.6078   20.2551 N   0  0  0  0  0  0
  -29.7741  -15.7188   20.8794 N   0  0  0  0  0  0
  -27.5274  -22.2719   21.0954 O   0  0  0  0  0  0
  -30.1432  -24.2228   19.6220 O   0  0  0  0  0  0
  -31.4848  -12.5562   19.1560 H   0  0  0  0  0  0
  -30.3931  -11.4257   19.9067 H   0  0  0  0  0  0
  -29.7852  -11.7599   17.4902 H   0  0  0  0  0  0
  -29.6475  -13.4814   17.7419 H   0  0  0  0  0  0
  -27.8802  -11.2901   18.8764 H   0  0  0  0  0  0
  -27.3818  -12.5663   17.7969 H   0  0  0  0  0  0
  -27.6688  -14.2510   19.5172 H   0  0  0  0  0  0
  -28.7218  -12.0615   21.3774 H   0  0  0  0  0  0
  -28.4360  -13.7112   21.8477 H   0  0  0  0  0  0
  -25.2764   -9.5685   22.4747 H   0  0  0  0  0  0
  -24.0000   -7.4639   22.7472 H   0  0  0  0  0  0
  -21.0836   -8.8778   19.8957 H   0  0  0  0  0  0
  -22.3692  -10.9674   19.6162 H   0  0  0  0  0  0
  -21.2017   -7.6143   23.9711 H   0  0  0  0  0  0
  -21.1474   -6.0519   25.9074 H   0  0  0  0  0  0
  -22.0602   -2.7607   23.2845 H   0  0  0  0  0  0
  -22.4109  -11.9903   22.4808 H   0  0  0  0  0  0
  -21.1117  -13.1274   22.2607 H   0  0  0  0  0  0
  -24.6573  -15.8412   20.5057 H   0  0  0  0  0  0
  -26.2702  -15.6257   20.0558 H   0  0  0  0  0  0
  -26.7183  -32.5435   23.1096 H   0  0  0  0  0  0
  -25.0054  -33.9711   25.0410 H   0  0  0  0  0  0
  -22.7180  -31.3011   21.3993 H   0  0  0  0  0  0
  -23.3754  -35.9621   23.3287 H   0  0  0  0  0  0
  -24.3587  -36.8924   22.2056 H   0  0  0  0  0  0
  -23.7236  -37.6488   23.6670 H   0  0  0  0  0  0
  -26.0989  -31.5438   20.6081 H   0  0  0  0  0  0
  -26.8452  -30.8327   22.0075 H   0  0  0  0  0  0
  -28.1183  -28.9595   21.2096 H   0  0  0  0  0  0
  -26.0052  -25.9246   18.9906 H   0  0  0  0  0  0
  -23.9813  -27.3075   18.9976 H   0  0  0  0  0  0
  -23.7611  -30.5898   19.4033 H   0  0  0  0  0  0
  -22.7605  -29.2437   19.8566 H   0  0  0  0  0  0
  -25.1286  -36.1930   25.0823 H   0  0  0  0  0  0
  -20.9973  -28.3269   24.1405 H   0  0  0  0  0  0
  -20.5677  -26.2297   23.3614 H   0  0  0  0  0  0
  -21.6647  -26.7445   22.1208 H   0  0  0  0  0  0
  -19.6915  -25.6294   21.1246 H   0  0  0  0  0  0
  -19.6692  -27.3190   20.6742 H   0  0  0  0  0  0
  -17.4202  -26.6674   21.4027 H   0  0  0  0  0  0
  -18.0330  -26.0076   22.9022 H   0  0  0  0  0  0
  -19.7936  -30.7274   24.2266 H   0  0  0  0  0  0
  -17.5015  -31.6270   24.5162 H   0  0  0  0  0  0
  -15.5351  -30.2987   23.7659 H   0  0  0  0  0  0
  -15.8671  -28.0821   22.7069 H   0  0  0  0  0  0
  -24.5868  -30.7120   25.7783 H   0  0  0  0  0  0
  -24.8940  -32.2921   26.4889 H   0  0  0  0  0  0
  -25.8028  -30.8902   27.0226 H   0  0  0  0  0  0
  -26.2901  -29.6750   24.1219 H   0  0  0  0  0  0
  -27.3994  -29.7253   25.4720 H   0  0  0  0  0  0
  -27.8787  -30.4264   23.9443 H   0  0  0  0  0  0
  -27.2674  -33.3614   26.2067 H   0  0  0  0  0  0
  -28.3858  -32.6870   25.0305 H   0  0  0  0  0  0
  -28.0733  -31.8434   26.5396 H   0  0  0  0  0  0
  -28.2587  -38.0107   24.7526 H   0  0  0  0  0  0
  -28.1093  -36.2640   24.6252 H   0  0  0  0  0  0
  -27.2311  -37.1407   25.8863 H   0  0  0  0  0  0
  -20.9380  -29.8752   21.6872 H   0  0  0  0  0  0
  -26.0170  -38.2847   24.1424 H   0  0  0  0  0  0
  -31.5101  -19.9111   19.4835 H   0  0  0  0  0  0
  -27.6760  -19.8264   21.4466 H   0  0  0  0  0  0
  -31.6887  -17.4757   19.7098 H   0  0  0  0  0  0
  -27.8568  -17.4129   21.6692 H   0  0  0  0  0  0
  -27.1452  -24.8959   20.9067 H   0  0  0  0  0  0
  -30.3498  -22.0161   19.8154 H   0  0  0  0  0  0
  -28.9063  -15.3655   21.2529 H   0  0  0  0  0  0
  -30.1951  -25.1588   19.4726 H   0  0  0  0  0  0
  1 25  1  0  0  0
  1 30  2  0  0  0
  1 81  1  0  0  0
  2  3  1  0  0  0
  2 25  1  0  0  0
  2 84  1  0  0  0
  2 85  1  0  0  0
  3  4  1  0  0  0
  3 86  1  0  0  0
  3 87  1  0  0  0
  4  5  1  0  0  0
  4 88  1  0  0  0
  4 89  1  0  0  0
  5  6  1  0  0  0
  5 26  1  0  0  0
  5 90  1  0  0  0
  6 25  1  0  0  0
  6 91  1  0  0  0
  6 92  1  0  0  0
  7  8  2  0  0  0
  7 26  1  0  0  0
  7 29  1  0  0  0
  8  9  1  0  0  0
  8 22  1  0  0  0
  9 10  1  0  0  0
  9 27  2  0  0  0
 10 11  2  0  0  0
 10 15  1  0  0  0
 11 12  1  0  0  0
 11 93  1  0  0  0
 12 13  2  0  0  0
 12 94  1  0  0  0
 13 14  1  0  0  0
 13 31  1  0  0  0
 14 15  2  0  0  0
 14 95  1  0  0  0
 15 96  1  0  0  0
 16 17  2  0  0  0
 16 21  1  0  0  0
 16 31  1  0  0  0
 17 18  1  0  0  0
 17 97  1  0  0  0
 18 19  2  0  0  0
 18 98  1  0  0  0
 19 20  1  0  0  0
 19 24  1  0  0  0
 20 21  2  0  0  0
 20 99  1  0  0  0
 21 23  1  0  0  0
 22 28  1  0  0  0
 22 32  2  0  0  0
 26 27  1  0  0  0
 28100  1  0  0  0
 28101  1  0  0  0
 29102  1  0  0  0
 29103  1  0  0  0
 33 34  1  0  0  0
 33 66  1  0  0  0
 33 70  2  0  0  0
 34 36  1  0  0  0
 34 59  1  0  0  0
 34104  1  0  0  0
 35 44  2  0  0  0
 35 45  1  0  0  0
 35 68  1  0  0  0
 36 56  1  0  0  0
 36105  1  0  0  0
 37 39  1  0  0  0
 37 47  1  0  0  0
 37 66  1  0  0  0
 37106  1  0  0  0
 38 43  2  0  0  0
 38 46  1  0  0  0
 38 47  1  0  0  0
 39 64  1  0  0  0
 39 67  2  0  0  0
 40 52  1  0  0  0
 40 53  2  0  0  0
 40 58  1  0  0  0
 41107  1  0  0  0
 41108  1  0  0  0
 41109  1  0  0  0
 41 48  1  0  0  0
 42 43  1  0  0  0
 42 66  1  0  0  0
 42110  1  0  0  0
 42111  1  0  0  0
 43 44  1  0  0  0
 44112  1  0  0  0
 45 46  2  0  0  0
 45113  1  0  0  0
 46114  1  0  0  0
 47115  1  0  0  0
 47116  1  0  0  0
 48 56  1  0  0  0
 48 65  1  0  0  0
 48117  1  0  0  0
 49 50  1  0  0  0
 49 53  1  0  0  0
 49 64  1  0  0  0
 49118  1  0  0  0
 50 51  1  0  0  0
 50119  1  0  0  0
 50120  1  0  0  0
 51 52  1  0  0  0
 51121  1  0  0  0
 51122  1  0  0  0
 52123  1  0  0  0
 52124  1  0  0  0
 53 54  1  0  0  0
 54 55  2  0  0  0
 54125  1  0  0  0
 55 57  1  0  0  0
 55126  1  0  0  0
 56 69  2  0  0  0
 57 58  2  0  0  0
 57127  1  0  0  0
 58128  1  0  0  0
 59 60  1  0  0  0
 59 61  1  0  0  0
 59 62  1  0  0  0
 60129  1  0  0  0
 60130  1  0  0  0
 60131  1  0  0  0
 61132  1  0  0  0
 61133  1  0  0  0
 61134  1  0  0  0
 62135  1  0  0  0
 62136  1  0  0  0
 62137  1  0  0  0
 63 65  1  0  0  0
 63138  1  0  0  0
 63139  1  0  0  0
 63140  1  0  0  0
 64141  1  0  0  0
 65142  1  0  0  0
 68 77  1  0  0  0
 71 73  2  0  0  0
 71 75  1  0  0  0
 71143  1  0  0  0
 72 74  1  0  0  0
 72 75  2  0  0  0
 72144  1  0  0  0
 73 76  1  0  0  0
 73145  1  0  0  0
 74 76  2  0  0  0
 74146  1  0  0  0
 75 80  1  0  0  0
 76 81  1  0  0  0
 77 78  2  0  0  0
 77147  1  0  0  0
 78 79  1  0  0  0
 78 83  1  0  0  0
 79 80  1  0  0  0
 79 82  2  0  0  0
 80148  1  0  0  0
 81149  1  0  0  0
 83150  1  0  0  0
M  ISO  4   1 100  68 101  77 101  81 100
M  END
> <chiral flag>
0

> <version>
0

> <s_m_source_file>
/data/baiqing/PycharmProjects/Reinvent-master-3.2/result/LINK_invent/BTK/process_docking_weight1_custom_product_contain_oxygen_bond_distance_aromatic_linkinvent_7_9_3/rearranged_h_0077.sdf

> <i_m_source_file_index>
65

> <r_mmod_Potential_Energy-OPLS-2005>
-8.61728763580322

> <r_mmod_Stretch_Energy-OPLS-2005>
89.2872695922852

> <r_mmod_Bend_Energy-OPLS-2005>
146.32243347168

> <r_mmod_Torsional_Energy-OPLS-2005>
206.087493896484

> <r_mmod_Improper_Torsional_Energy-OPLS-2005>
3.63101673126221

> <r_mmod_Van_der_Waal_Energy-OPLS-2005>
145.495010375977

> <r_mmod_Electrostatic_Energy-OPLS-2005>
-439.819519042969

> <r_mmod_Solvation_Energy-OPLS-2005>
-220.510833740234

> <b_mmod_Minimization_Converged-OPLS-2005>
0

> <r_mmod_RMS_Derivative-OPLS-2005>
0.571952104568481

$$$$
65
                    3D
 Structure written by MMmdl.
162171  0  0  1  0            999 V2000
  -30.6347  -14.8028   20.4539 C   0  0  0  0  0  0
  -30.4531  -12.5045   19.4483 C   0  0  0  0  0  0
  -29.5078  -12.4643   18.2262 C   0  0  0  0  0  0
  -28.0486  -12.2172   18.6632 C   0  0  0  0  0  0
  -27.6324  -13.1361   19.8321 C   0  0  2  0  0  0
  -28.7048  -13.1478   20.9604 C   0  0  0  0  0  0
  -25.2511  -13.7893   20.5630 C   0  0  0  0  0  0
  -24.1759  -13.0274   20.9238 C   0  0  0  0  0  0
  -24.6274  -11.6744   20.8827 C   0  0  0  0  0  0
  -23.8934  -10.4196   21.0468 C   0  0  0  0  0  0
  -24.3517   -9.4124   21.9229 C   0  0  0  0  0  0
  -23.6213   -8.2158   22.0763 C   0  0  0  0  0  0
  -22.4199   -8.0222   21.3542 C   0  0  0  0  0  0
  -21.9823   -9.0192   20.4650 C   0  0  0  0  0  0
  -22.7136  -10.2075   20.3082 C   0  0  0  0  0  0
  -21.6802   -6.0704   22.5290 C   0  0  0  0  0  0
  -21.3987   -6.5621   23.8226 C   0  0  0  0  0  0
  -21.3653   -5.6776   24.9192 C   0  0  0  0  0  0
  -21.6046   -4.3040   24.7240 C   0  0  0  0  0  0
  -21.8820   -3.8129   23.4360 C   0  0  0  0  0  0
  -21.9167   -4.6939   22.3413 C   0  0  0  0  0  0
  -22.7807  -13.5162   21.1885 C   0  0  0  0  0  0
  -22.1642   -4.2133   21.0987 F   0  0  0  0  0  0
  -21.5622   -3.4523   25.7750 F   0  0  0  0  0  0
  -29.9776  -13.5797   20.3553 N   0  0  0  0  0  0
  -26.2869  -12.8920   20.3258 N   0  0  0  0  0  0
  -25.9170  -11.6184   20.5841 N   0  0  0  0  0  0
  -22.0412  -12.8211   22.0457 N   0  0  0  0  0  0
  -25.4071  -15.1609   20.3920 N   0  0  0  0  0  0
  -31.8478  -14.8268   20.2252 O   0  0  0  0  0  0
  -21.6564   -6.8828   21.4247 O   0  0  0  0  0  0
  -22.3545  -14.5480   20.6712 O   0  0  0  0  0  0
  -24.6263  -31.8604   23.2027 C   0  0  0  0  0  0
  -25.9110  -32.4781   23.8365 C   0  0  1  0  0  0
  -27.2437  -27.3215   20.1226 C   0  0  0  0  0  0
  -25.5929  -33.8582   24.2289 N   0  0  0  0  0  0
  -23.4221  -30.4826   21.5448 C   0  0  2  0  0  0
  -24.8751  -28.9389   20.1151 C   0  0  0  0  0  0
  -22.7482  -29.4624   22.4934 C   0  0  0  0  0  0
  -18.0283  -28.1389   22.8488 C   0  0  0  0  0  0
  -24.1487  -36.7290   23.2641 C   0  0  0  0  0  0
  -25.9642  -30.7911   21.3771 C   0  0  0  0  0  0
  -26.0430  -29.4184   20.7208 C   0  0  0  0  0  0
  -27.2291  -28.6233   20.7142 C   0  0  0  0  0  0
  -26.0492  -26.9010   19.4875 C   0  0  0  0  0  0
  -24.8805  -27.6845   19.4896 C   0  0  0  0  0  0
  -23.6405  -29.8159   20.1616 C   0  0  0  0  0  0
  -25.4112  -36.3081   24.0332 C   0  0  1  0  0  0
  -20.5886  -28.3692   23.1280 C   0  0  2  0  0  0
  -20.6774  -26.9416   22.5410 C   0  0  0  0  0  0
  -19.5749  -26.6384   21.5217 C   0  0  0  0  0  0
  -18.1927  -26.7934   22.1624 C   0  0  0  0  0  0
  -19.1538  -28.8857   23.2880 C   0  0  0  0  0  0
  -18.9461  -30.1460   23.8892 C   0  0  0  0  0  0
  -17.6463  -30.6592   24.0562 C   0  0  0  0  0  0
  -25.9052  -34.9452   23.5108 C   0  0  0  0  0  0
  -16.5352  -29.9090   23.6334 C   0  0  0  0  0  0
  -16.7271  -28.6508   23.0354 C   0  0  0  0  0  0
  -26.4495  -31.6588   25.0731 C   0  0  0  0  0  0
  -25.3723  -31.3740   26.1454 C   0  0  0  0  0  0
  -27.0344  -30.3009   24.6196 C   0  0  0  0  0  0
  -27.6054  -32.4323   25.7502 C   0  0  0  0  0  0
  -27.5580  -37.1800   24.8462 C   0  0  0  0  0  0
  -21.4194  -29.3045   22.3675 N   0  0  0  0  0  0
  -26.4287  -37.3778   23.9410 N   0  0  0  0  0  0
  -24.6892  -31.0612   22.0983 N   0  0  0  0  0  0
  -23.4200  -28.8160   23.3015 O   0  0  0  0  0  0
  -28.3687  -26.4733   20.1614 O   0  0  0  0  0  0
  -26.5612  -34.8918   22.4670 O   0  0  0  0  0  0
  -23.5422  -32.1404   23.7346 O   0  0  0  0  0  0
  -29.9449  -19.6117   21.7499 C   0  0  0  0  0  0
  -30.9699  -19.5336   19.5800 C   0  0  0  0  0  0
  -30.0196  -18.1885   21.8294 C   0  0  0  0  0  0
  -31.0110  -18.1049   19.6426 C   0  0  0  0  0  0
  -30.3639  -20.3294   20.5971 C   0  0  0  0  0  0
  -30.4737  -17.3845   20.7440 C   0  0  0  0  0  0
  -29.2561  -23.9466   20.3080 C   0  0  0  0  0  0
  -30.4649  -23.9941   19.7346 C   0  0  0  0  0  0
  -29.0784  -22.5494   20.7745 C   0  0  0  0  0  0
  -31.1553  -22.6450   19.7699 C   0  0  0  0  0  0
  -31.1259  -25.1582   19.0214 C   0  0  0  0  0  0
  -28.2873  -16.3542   18.7181 C   0  0  0  0  0  0
  -28.1113  -25.0253   20.3746 C   0  0  0  0  0  0
  -28.5117  -16.2068   20.2406 C   0  0  0  0  0  0
  -30.1787  -21.7881   20.4499 N   0  0  0  0  0  0
  -29.9340  -16.0235   20.5820 N   0  0  0  0  0  0
  -28.0813  -22.1139   21.3590 O   0  0  0  0  0  0
  -31.4762  -12.6709   19.1075 H   0  0  0  0  0  0
  -30.4707  -11.5427   19.9635 H   0  0  0  0  0  0
  -29.8264  -11.6856   17.5316 H   0  0  0  0  0  0
  -29.5783  -13.4016   17.6744 H   0  0  0  0  0  0
  -27.9601  -11.1742   18.9694 H   0  0  0  0  0  0
  -27.3740  -12.3426   17.8158 H   0  0  0  0  0  0
  -27.5609  -14.0771   19.3222 H   0  0  0  0  0  0
  -28.8071  -12.1495   21.3875 H   0  0  0  0  0  0
  -28.4277  -13.7812   21.8033 H   0  0  0  0  0  0
  -25.2660   -9.5587   22.4807 H   0  0  0  0  0  0
  -23.9929   -7.4526   22.7450 H   0  0  0  0  0  0
  -21.0763   -8.8697   19.8941 H   0  0  0  0  0  0
  -22.3607  -10.9622   19.6192 H   0  0  0  0  0  0
  -21.1990   -7.6133   23.9720 H   0  0  0  0  0  0
  -21.1474   -6.0514   25.9090 H   0  0  0  0  0  0
  -22.0608   -2.7590   23.2863 H   0  0  0  0  0  0
  -22.3968  -11.9862   22.4868 H   0  0  0  0  0  0
  -21.1056  -13.1325   22.2661 H   0  0  0  0  0  0
  -24.6398  -15.8110   20.5219 H   0  0  0  0  0  0
  -26.2539  -15.6048   20.0635 H   0  0  0  0  0  0
  -26.7182  -32.5461   23.1121 H   0  0  0  0  0  0
  -25.0094  -33.9736   25.0444 H   0  0  0  0  0  0
  -22.7155  -31.3021   21.3985 H   0  0  0  0  0  0
  -23.3758  -35.9613   23.3284 H   0  0  0  0  0  0
  -24.3586  -36.8928   22.2058 H   0  0  0  0  0  0
  -23.7225  -37.6481   23.6673 H   0  0  0  0  0  0
  -26.0945  -31.5538   20.6082 H   0  0  0  0  0  0
  -26.8449  -30.8420   22.0059 H   0  0  0  0  0  0
  -28.1232  -28.9908   21.1995 H   0  0  0  0  0  0
  -25.9853  -25.9578   18.9695 H   0  0  0  0  0  0
  -23.9896  -27.3120   19.0028 H   0  0  0  0  0  0
  -23.7579  -30.5912   19.4036 H   0  0  0  0  0  0
  -22.7636  -29.2404   19.8595 H   0  0  0  0  0  0
  -25.1295  -36.1934   25.0824 H   0  0  0  0  0  0
  -20.9977  -28.3264   24.1401 H   0  0  0  0  0  0
  -20.5680  -26.2304   23.3613 H   0  0  0  0  0  0
  -21.6640  -26.7451   22.1191 H   0  0  0  0  0  0
  -19.6908  -25.6293   21.1249 H   0  0  0  0  0  0
  -19.6691  -27.3189   20.6744 H   0  0  0  0  0  0
  -17.4205  -26.6691   21.4018 H   0  0  0  0  0  0
  -18.0318  -26.0075   22.9016 H   0  0  0  0  0  0
  -19.7940  -30.7279   24.2256 H   0  0  0  0  0  0
  -17.5020  -31.6276   24.5160 H   0  0  0  0  0  0
  -15.5353  -30.2993   23.7667 H   0  0  0  0  0  0
  -15.8668  -28.0831   22.7069 H   0  0  0  0  0  0
  -24.5870  -30.7129   25.7771 H   0  0  0  0  0  0
  -24.8952  -32.2921   26.4898 H   0  0  0  0  0  0
  -25.8029  -30.8884   27.0220 H   0  0  0  0  0  0
  -26.2930  -29.6751   24.1213 H   0  0  0  0  0  0
  -27.4031  -29.7272   25.4709 H   0  0  0  0  0  0
  -27.8802  -30.4289   23.9435 H   0  0  0  0  0  0
  -27.2667  -33.3631   26.2070 H   0  0  0  0  0  0
  -28.3877  -32.6872   25.0338 H   0  0  0  0  0  0
  -28.0709  -31.8452   26.5431 H   0  0  0  0  0  0
  -28.2584  -38.0108   24.7522 H   0  0  0  0  0  0
  -28.1088  -36.2642   24.6270 H   0  0  0  0  0  0
  -27.2303  -37.1421   25.8865 H   0  0  0  0  0  0
  -20.9370  -29.8782   21.6896 H   0  0  0  0  0  0
  -26.0168  -38.2852   24.1420 H   0  0  0  0  0  0
  -29.5036  -20.1494   22.5776 H   0  0  0  0  0  0
  -31.3299  -20.0054   18.6773 H   0  0  0  0  0  0
  -29.5680  -17.7072   22.6861 H   0  0  0  0  0  0
  -31.3408  -17.5614   18.7680 H   0  0  0  0  0  0
  -32.0874  -22.6971   20.3340 H   0  0  0  0  0  0
  -31.3650  -22.2988   18.7580 H   0  0  0  0  0  0
  -30.5379  -26.0723   19.0864 H   0  0  0  0  0  0
  -31.2640  -24.9231   17.9655 H   0  0  0  0  0  0
  -32.1060  -25.3586   19.4556 H   0  0  0  0  0  0
  -28.6998  -17.2918   18.3454 H   0  0  0  0  0  0
  -27.2250  -16.3636   18.4732 H   0  0  0  0  0  0
  -28.7547  -15.5528   18.1484 H   0  0  0  0  0  0
  -27.6169  -24.9225   21.3422 H   0  0  0  0  0  0
  -27.4062  -24.6550   19.6347 H   0  0  0  0  0  0
  -27.8881  -15.4994   20.7534 H   0  0  0  0  0  0
  -28.1000  -17.1232   20.6639 H   0  0  0  0  0  0
  1 25  1  0  0  0
  1 30  2  0  0  0
  1 86  1  0  0  0
  2  3  1  0  0  0
  2 25  1  0  0  0
  2 88  1  0  0  0
  2 89  1  0  0  0
  3  4  1  0  0  0
  3 90  1  0  0  0
  3 91  1  0  0  0
  4  5  1  0  0  0
  4 92  1  0  0  0
  4 93  1  0  0  0
  5  6  1  0  0  0
  5 26  1  0  0  0
  5 94  1  0  0  0
  6 25  1  0  0  0
  6 95  1  0  0  0
  6 96  1  0  0  0
  7  8  2  0  0  0
  7 26  1  0  0  0
  7 29  1  0  0  0
  8  9  1  0  0  0
  8 22  1  0  0  0
  9 10  1  0  0  0
  9 27  2  0  0  0
 10 11  2  0  0  0
 10 15  1  0  0  0
 11 12  1  0  0  0
 11 97  1  0  0  0
 12 13  2  0  0  0
 12 98  1  0  0  0
 13 14  1  0  0  0
 13 31  1  0  0  0
 14 15  2  0  0  0
 14 99  1  0  0  0
 15100  1  0  0  0
 16 17  2  0  0  0
 16 21  1  0  0  0
 16 31  1  0  0  0
 17 18  1  0  0  0
 17101  1  0  0  0
 18 19  2  0  0  0
 18102  1  0  0  0
 19 20  1  0  0  0
 19 24  1  0  0  0
 20 21  2  0  0  0
 20103  1  0  0  0
 21 23  1  0  0  0
 22 28  1  0  0  0
 22 32  2  0  0  0
 26 27  1  0  0  0
 28104  1  0  0  0
 28105  1  0  0  0
 29106  1  0  0  0
 29107  1  0  0  0
 33 34  1  0  0  0
 33 66  1  0  0  0
 33 70  2  0  0  0
 34 36  1  0  0  0
 34 59  1  0  0  0
 34108  1  0  0  0
 35 44  2  0  0  0
 35 45  1  0  0  0
 35 68  1  0  0  0
 36 56  1  0  0  0
 36109  1  0  0  0
 37 39  1  0  0  0
 37 47  1  0  0  0
 37 66  1  0  0  0
 37110  1  0  0  0
 38 43  2  0  0  0
 38 46  1  0  0  0
 38 47  1  0  0  0
 39 64  1  0  0  0
 39 67  2  0  0  0
 40 52  1  0  0  0
 40 53  2  0  0  0
 40 58  1  0  0  0
 41111  1  0  0  0
 41112  1  0  0  0
 41113  1  0  0  0
 41 48  1  0  0  0
 42 43  1  0  0  0
 42 66  1  0  0  0
 42114  1  0  0  0
 42115  1  0  0  0
 43 44  1  0  0  0
 44116  1  0  0  0
 45 46  2  0  0  0
 45117  1  0  0  0
 46118  1  0  0  0
 47119  1  0  0  0
 47120  1  0  0  0
 48 56  1  0  0  0
 48 65  1  0  0  0
 48121  1  0  0  0
 49 50  1  0  0  0
 49 53  1  0  0  0
 49 64  1  0  0  0
 49122  1  0  0  0
 50 51  1  0  0  0
 50123  1  0  0  0
 50124  1  0  0  0
 51 52  1  0  0  0
 51125  1  0  0  0
 51126  1  0  0  0
 52127  1  0  0  0
 52128  1  0  0  0
 53 54  1  0  0  0
 54 55  2  0  0  0
 54129  1  0  0  0
 55 57  1  0  0  0
 55130  1  0  0  0
 56 69  2  0  0  0
 57 58  2  0  0  0
 57131  1  0  0  0
 58132  1  0  0  0
 59 60  1  0  0  0
 59 61  1  0  0  0
 59 62  1  0  0  0
 60133  1  0  0  0
 60134  1  0  0  0
 60135  1  0  0  0
 61136  1  0  0  0
 61137  1  0  0  0
 61138  1  0  0  0
 62139  1  0  0  0
 62140  1  0  0  0
 62141  1  0  0  0
 63 65  1  0  0  0
 63142  1  0  0  0
 63143  1  0  0  0
 63144  1  0  0  0
 64145  1  0  0  0
 65146  1  0  0  0
 68 83  1  0  0  0
 71 73  2  0  0  0
 71 75  1  0  0  0
 71147  1  0  0  0
 72 74  1  0  0  0
 72 75  2  0  0  0
 72148  1  0  0  0
 73 76  1  0  0  0
 73149  1  0  0  0
 74 76  2  0  0  0
 74150  1  0  0  0
 75 85  1  0  0  0
 76 86  1  0  0  0
 77 78  2  0  0  0
 77 79  1  0  0  0
 77 83  1  0  0  0
 78 80  1  0  0  0
 78 81  1  0  0  0
 79 85  1  0  0  0
 79 87  2  0  0  0
 80 85  1  0  0  0
 80151  1  0  0  0
 80152  1  0  0  0
 81153  1  0  0  0
 81154  1  0  0  0
 81155  1  0  0  0
 82 84  1  0  0  0
 82156  1  0  0  0
 82157  1  0  0  0
 82158  1  0  0  0
 83159  1  0  0  0
 83160  1  0  0  0
 84 86  1  0  0  0
 84161  1  0  0  0
 84162  1  0  0  0
M  ISO  4   1 100  68 101  83 101  86 100
M  END
> <chiral flag>
0

> <version>
0

> <s_m_source_file>
/data/baiqing/PycharmProjects/Reinvent-master-3.2/result/LINK_invent/BTK/process_docking_weight1_custom_product_contain_oxygen_bond_distance_aromatic_linkinvent_7_9_3/rearranged_h_0077.sdf

> <i_m_source_file_index>
66

> <r_mmod_Potential_Energy-OPLS-2005>
537.576843261719

> <r_mmod_Stretch_Energy-OPLS-2005>
100.974494934082

> <r_mmod_Bend_Energy-OPLS-2005>
226.746063232422

> <r_mmod_Torsional_Energy-OPLS-2005>
372.595336914062

> <r_mmod_Improper_Torsional_Energy-OPLS-2005>
11.6297264099121

> <r_mmod_Van_der_Waal_Energy-OPLS-2005>
164.262710571289

> <r_mmod_Electrostatic_Energy-OPLS-2005>
-233.29524230957

> <r_mmod_Solvation_Energy-OPLS-2005>
-193.64794921875

> <b_mmod_Minimization_Converged-OPLS-2005>
0

> <r_mmod_RMS_Derivative-OPLS-2005>
1.22262918949127

$$$$
66
                    3D
 Structure written by MMmdl.
162172  0  0  1  0            999 V2000
  -30.7612  -14.4976   20.5214 C   0  0  0  0  0  0
  -30.4222  -12.3225   19.4238 C   0  0  0  0  0  0
  -29.4847  -12.4748   18.2098 C   0  0  0  0  0  0
  -28.0164  -12.2974   18.6321 C   0  0  0  0  0  0
  -27.6484  -13.1834   19.8442 C   0  0  2  0  0  0
  -28.7050  -13.0853   20.9743 C   0  0  0  0  0  0
  -25.2609  -13.8102   20.5706 C   0  0  0  0  0  0
  -24.1855  -13.0426   20.9234 C   0  0  0  0  0  0
  -24.6368  -11.6887   20.8812 C   0  0  0  0  0  0
  -23.9036  -10.4288   21.0474 C   0  0  0  0  0  0
  -24.3593   -9.4195   21.9226 C   0  0  0  0  0  0
  -23.6278   -8.2233   22.0779 C   0  0  0  0  0  0
  -22.4258   -8.0289   21.3576 C   0  0  0  0  0  0
  -21.9899   -9.0261   20.4682 C   0  0  0  0  0  0
  -22.7239  -10.2135   20.3092 C   0  0  0  0  0  0
  -21.6831   -6.0743   22.5283 C   0  0  0  0  0  0
  -21.3999   -6.5653   23.8218 C   0  0  0  0  0  0
  -21.3653   -5.6815   24.9178 C   0  0  0  0  0  0
  -21.6029   -4.3068   24.7223 C   0  0  0  0  0  0
  -21.8828   -3.8166   23.4334 C   0  0  0  0  0  0
  -21.9189   -4.6980   22.3393 C   0  0  0  0  0  0
  -22.7880  -13.5247   21.1883 C   0  0  0  0  0  0
  -22.1676   -4.2170   21.0981 F   0  0  0  0  0  0
  -21.5623   -3.4560   25.7732 F   0  0  0  0  0  0
  -30.0378  -13.3474   20.4090 N   0  0  0  0  0  0
  -26.2980  -12.9206   20.3280 N   0  0  0  0  0  0
  -25.9274  -11.6413   20.5793 N   0  0  0  0  0  0
  -22.0490  -12.8252   22.0427 N   0  0  0  0  0  0
  -25.4308  -15.1810   20.4129 N   0  0  0  0  0  0
  -31.9307  -14.5685   20.1406 O   0  0  0  0  0  0
  -21.6634   -6.8871   21.4245 O   0  0  0  0  0  0
  -22.3570  -14.5559   20.6736 O   0  0  0  0  0  0
  -24.6138  -31.8689   23.2127 C   0  0  0  0  0  0
  -25.9031  -32.4821   23.8405 C   0  0  1  0  0  0
  -27.2209  -27.4367   20.0863 C   0  0  0  0  0  0
  -25.5899  -33.8623   24.2333 N   0  0  0  0  0  0
  -23.4011  -30.4945   21.5517 C   0  0  2  0  0  0
  -24.8465  -28.9671   20.1085 C   0  0  0  0  0  0
  -22.7398  -29.4663   22.4980 C   0  0  0  0  0  0
  -18.0276  -28.1363   22.8499 C   0  0  0  0  0  0
  -24.1494  -36.7310   23.2638 C   0  0  0  0  0  0
  -25.9308  -30.8337   21.3673 C   0  0  0  0  0  0
  -26.0063  -29.4696   20.7128 C   0  0  0  0  0  0
  -27.1986  -28.7082   20.7039 C   0  0  0  0  0  0
  -26.0591  -26.9719   19.4388 C   0  0  0  0  0  0
  -24.8677  -27.7184   19.4654 C   0  0  0  0  0  0
  -23.6065  -29.8305   20.1645 C   0  0  0  0  0  0
  -25.4112  -36.3114   24.0343 C   0  0  1  0  0  0
  -20.5870  -28.3662   23.1317 C   0  0  2  0  0  0
  -20.6770  -26.9398   22.5413 C   0  0  0  0  0  0
  -19.5752  -26.6380   21.5207 C   0  0  0  0  0  0
  -18.1931  -26.7912   22.1617 C   0  0  0  0  0  0
  -19.1531  -28.8822   23.2908 C   0  0  0  0  0  0
  -18.9452  -30.1431   23.8920 C   0  0  0  0  0  0
  -17.6460  -30.6581   24.0561 C   0  0  0  0  0  0
  -25.9038  -34.9474   23.5134 C   0  0  0  0  0  0
  -16.5347  -29.9085   23.6324 C   0  0  0  0  0  0
  -16.7263  -28.6491   23.0353 C   0  0  0  0  0  0
  -26.4457  -31.6594   25.0721 C   0  0  0  0  0  0
  -25.3727  -31.3704   26.1470 C   0  0  0  0  0  0
  -27.0281  -30.3036   24.6090 C   0  0  0  0  0  0
  -27.6046  -32.4298   25.7480 C   0  0  0  0  0  0
  -27.5584  -37.1809   24.8471 C   0  0  0  0  0  0
  -21.4128  -29.3041   22.3716 N   0  0  0  0  0  0
  -26.4303  -37.3791   23.9409 N   0  0  0  0  0  0
  -24.6672  -31.0781   22.1027 N   0  0  0  0  0  0
  -23.4177  -28.8203   23.3013 O   0  0  0  0  0  0
  -28.3603  -26.6637   20.0832 O   0  0  0  0  0  0
  -26.5593  -34.8925   22.4691 O   0  0  0  0  0  0
  -23.5343  -32.1449   23.7522 O   0  0  0  0  0  0
  -26.8058  -19.0549   17.5188 C   0  0  0  0  0  0
  -26.7513  -20.4263   17.7989 C   0  0  0  0  0  0
  -27.6078  -18.2140   18.3037 C   0  0  0  0  0  0
  -28.3626  -20.1268   19.6118 C   0  0  0  0  0  0
  -27.5268  -20.9767   18.8395 C   0  0  0  0  0  0
  -28.3972  -18.7199   19.3735 C   0  0  0  0  0  0
  -30.5988  -16.7039   21.5627 C   0  0  0  0  0  0
  -28.2232  -23.3005   19.5907 C   0  0  0  0  0  0
  -27.6339  -24.2671   20.3170 C   0  0  0  0  0  0
  -30.0416  -15.7301   20.8372 C   0  0  0  0  0  0
  -26.2512  -23.8682   20.4727 C   0  0  0  0  0  0
  -30.0032  -17.9818   21.2106 C   0  0  0  0  0  0
  -25.3265  -24.4557   21.2501 C   0  0  0  0  0  0
  -29.0364  -16.3375   19.9135 C   0  0  0  0  0  0
  -25.9969  -22.6433   19.6314 C   0  0  0  0  0  0
  -28.3172  -25.4971   20.9304 C   0  0  0  0  0  0
  -27.3315  -22.3378   19.1280 N   0  0  0  0  0  0
  -29.1603  -17.7736   20.1631 N   0  0  0  0  0  0
  -30.2485  -19.0609   21.7540 O   0  0  0  0  0  0
  -31.4584  -12.4185   19.0910 H   0  0  0  0  0  0
  -30.3469  -11.3278   19.8621 H   0  0  0  0  0  0
  -29.7490  -11.7454   17.4455 H   0  0  0  0  0  0
  -29.6156  -13.4568   17.7540 H   0  0  0  0  0  0
  -27.8667  -11.2475   18.8832 H   0  0  0  0  0  0
  -27.3522  -12.5051   17.7914 H   0  0  0  0  0  0
  -27.6418  -14.1830   19.4342 H   0  0  0  0  0  0
  -28.6942  -12.0908   21.4217 H   0  0  0  0  0  0
  -28.4749  -13.7824   21.7803 H   0  0  0  0  0  0
  -25.2724   -9.5674   22.4825 H   0  0  0  0  0  0
  -24.0010   -7.4606   22.7475 H   0  0  0  0  0  0
  -21.0833   -8.8744   19.8987 H   0  0  0  0  0  0
  -22.3684  -10.9672   19.6201 H   0  0  0  0  0  0
  -21.1994   -7.6177   23.9700 H   0  0  0  0  0  0
  -21.1471   -6.0561   25.9068 H   0  0  0  0  0  0
  -22.0614   -2.7631   23.2817 H   0  0  0  0  0  0
  -22.4040  -11.9888   22.4833 H   0  0  0  0  0  0
  -21.1116  -13.1282   22.2613 H   0  0  0  0  0  0
  -24.6591  -15.8307   20.5171 H   0  0  0  0  0  0
  -26.2711  -15.6213   20.0660 H   0  0  0  0  0  0
  -26.7089  -32.5537   23.1166 H   0  0  0  0  0  0
  -25.0049  -33.9789   25.0476 H   0  0  0  0  0  0
  -22.6920  -31.3143   21.4163 H   0  0  0  0  0  0
  -23.3757  -35.9646   23.3319 H   0  0  0  0  0  0
  -24.3588  -36.8900   22.2049 H   0  0  0  0  0  0
  -23.7247  -37.6522   23.6635 H   0  0  0  0  0  0
  -26.0461  -31.6037   20.6040 H   0  0  0  0  0  0
  -26.8180  -30.8837   21.9853 H   0  0  0  0  0  0
  -28.0955  -29.0902   21.1696 H   0  0  0  0  0  0
  -26.0703  -26.0328   18.9053 H   0  0  0  0  0  0
  -23.9822  -27.3403   18.9740 H   0  0  0  0  0  0
  -23.7057  -30.6068   19.4056 H   0  0  0  0  0  0
  -22.7324  -29.2478   19.8689 H   0  0  0  0  0  0
  -25.1293  -36.1983   25.0839 H   0  0  0  0  0  0
  -20.9981  -28.3230   24.1430 H   0  0  0  0  0  0
  -20.5681  -26.2267   23.3595 H   0  0  0  0  0  0
  -21.6636  -26.7446   22.1197 H   0  0  0  0  0  0
  -19.6918  -25.6301   21.1215 H   0  0  0  0  0  0
  -19.6679  -27.3204   20.6753 H   0  0  0  0  0  0
  -17.4194  -26.6669   21.4019 H   0  0  0  0  0  0
  -18.0339  -26.0043   22.9005 H   0  0  0  0  0  0
  -19.7926  -30.7239   24.2301 H   0  0  0  0  0  0
  -17.5011  -31.6265   24.5152 H   0  0  0  0  0  0
  -15.5349  -30.2991   23.7635 H   0  0  0  0  0  0
  -15.8658  -28.0808   22.7076 H   0  0  0  0  0  0
  -24.5905  -30.7037   25.7809 H   0  0  0  0  0  0
  -24.8898  -32.2859   26.4908 H   0  0  0  0  0  0
  -25.8088  -30.8881   27.0227 H   0  0  0  0  0  0
  -26.2825  -29.6819   24.1111 H   0  0  0  0  0  0
  -27.4016  -29.7255   25.4552 H   0  0  0  0  0  0
  -27.8684  -30.4354   23.9266 H   0  0  0  0  0  0
  -27.2679  -33.3602   26.2072 H   0  0  0  0  0  0
  -28.3855  -32.6839   25.0295 H   0  0  0  0  0  0
  -28.0700  -31.8386   26.5379 H   0  0  0  0  0  0
  -28.2623  -38.0086   24.7503 H   0  0  0  0  0  0
  -28.1066  -36.2620   24.6328 H   0  0  0  0  0  0
  -27.2300  -37.1494   25.8874 H   0  0  0  0  0  0
  -20.9298  -29.8740   21.6910 H   0  0  0  0  0  0
  -26.0205  -38.2884   24.1377 H   0  0  0  0  0  0
  -26.2118  -18.6432   16.7147 H   0  0  0  0  0  0
  -26.0964  -21.0566   17.2136 H   0  0  0  0  0  0
  -27.5769  -17.1659   18.0493 H   0  0  0  0  0  0
  -28.9203  -20.5700   20.4206 H   0  0  0  0  0  0
  -31.4934  -16.5995   22.1584 H   0  0  0  0  0  0
  -29.2596  -23.2295   19.2870 H   0  0  0  0  0  0
  -25.5426  -25.3285   21.8475 H   0  0  0  0  0  0
  -24.3202  -24.0621   21.2945 H   0  0  0  0  0  0
  -28.0339  -16.0450   20.2019 H   0  0  0  0  0  0
  -29.2519  -16.0639   18.8802 H   0  0  0  0  0  0
  -25.3075  -22.8666   18.8157 H   0  0  0  0  0  0
  -25.5902  -21.8271   20.2320 H   0  0  0  0  0  0
  -27.8495  -25.7374   21.8866 H   0  0  0  0  0  0
  -29.3454  -25.2208   21.1650 H   0  0  0  0  0  0
  1 25  1  0  0  0
  1 30  2  0  0  0
  1 80  1  0  0  0
  2  3  1  0  0  0
  2 25  1  0  0  0
  2 90  1  0  0  0
  2 91  1  0  0  0
  3  4  1  0  0  0
  3 92  1  0  0  0
  3 93  1  0  0  0
  4  5  1  0  0  0
  4 94  1  0  0  0
  4 95  1  0  0  0
  5  6  1  0  0  0
  5 26  1  0  0  0
  5 96  1  0  0  0
  6 25  1  0  0  0
  6 97  1  0  0  0
  6 98  1  0  0  0
  7  8  2  0  0  0
  7 26  1  0  0  0
  7 29  1  0  0  0
  8  9  1  0  0  0
  8 22  1  0  0  0
  9 10  1  0  0  0
  9 27  2  0  0  0
 10 11  2  0  0  0
 10 15  1  0  0  0
 11 12  1  0  0  0
 11 99  1  0  0  0
 12 13  2  0  0  0
 12100  1  0  0  0
 13 14  1  0  0  0
 13 31  1  0  0  0
 14 15  2  0  0  0
 14101  1  0  0  0
 15102  1  0  0  0
 16 17  2  0  0  0
 16 21  1  0  0  0
 16 31  1  0  0  0
 17 18  1  0  0  0
 17103  1  0  0  0
 18 19  2  0  0  0
 18104  1  0  0  0
 19 20  1  0  0  0
 19 24  1  0  0  0
 20 21  2  0  0  0
 20105  1  0  0  0
 21 23  1  0  0  0
 22 28  1  0  0  0
 22 32  2  0  0  0
 26 27  1  0  0  0
 28106  1  0  0  0
 28107  1  0  0  0
 29108  1  0  0  0
 29109  1  0  0  0
 33 34  1  0  0  0
 33 66  1  0  0  0
 33 70  2  0  0  0
 34 36  1  0  0  0
 34 59  1  0  0  0
 34110  1  0  0  0
 35 44  2  0  0  0
 35 45  1  0  0  0
 35 68  1  0  0  0
 36 56  1  0  0  0
 36111  1  0  0  0
 37 39  1  0  0  0
 37 47  1  0  0  0
 37 66  1  0  0  0
 37112  1  0  0  0
 38 43  2  0  0  0
 38 46  1  0  0  0
 38 47  1  0  0  0
 39 64  1  0  0  0
 39 67  2  0  0  0
 40 52  1  0  0  0
 40 53  2  0  0  0
 40 58  1  0  0  0
 41113  1  0  0  0
 41114  1  0  0  0
 41115  1  0  0  0
 41 48  1  0  0  0
 42 43  1  0  0  0
 42 66  1  0  0  0
 42116  1  0  0  0
 42117  1  0  0  0
 43 44  1  0  0  0
 44118  1  0  0  0
 45 46  2  0  0  0
 45119  1  0  0  0
 46120  1  0  0  0
 47121  1  0  0  0
 47122  1  0  0  0
 48 56  1  0  0  0
 48 65  1  0  0  0
 48123  1  0  0  0
 49 50  1  0  0  0
 49 53  1  0  0  0
 49 64  1  0  0  0
 49124  1  0  0  0
 50 51  1  0  0  0
 50125  1  0  0  0
 50126  1  0  0  0
 51 52  1  0  0  0
 51127  1  0  0  0
 51128  1  0  0  0
 52129  1  0  0  0
 52130  1  0  0  0
 53 54  1  0  0  0
 54 55  2  0  0  0
 54131  1  0  0  0
 55 57  1  0  0  0
 55132  1  0  0  0
 56 69  2  0  0  0
 57 58  2  0  0  0
 57133  1  0  0  0
 58134  1  0  0  0
 59 60  1  0  0  0
 59 61  1  0  0  0
 59 62  1  0  0  0
 60135  1  0  0  0
 60136  1  0  0  0
 60137  1  0  0  0
 61138  1  0  0  0
 61139  1  0  0  0
 61140  1  0  0  0
 62141  1  0  0  0
 62142  1  0  0  0
 62143  1  0  0  0
 63 65  1  0  0  0
 63144  1  0  0  0
 63145  1  0  0  0
 63146  1  0  0  0
 64147  1  0  0  0
 65148  1  0  0  0
 68 86  1  0  0  0
 71 72  2  0  0  0
 71 73  1  0  0  0
 71149  1  0  0  0
 72 75  1  0  0  0
 72150  1  0  0  0
 73 76  2  0  0  0
 73151  1  0  0  0
 74 75  2  0  0  0
 74 76  1  0  0  0
 74152  1  0  0  0
 75 87  1  0  0  0
 76 88  1  0  0  0
 77 80  2  0  0  0
 77 82  1  0  0  0
 77153  1  0  0  0
 78 79  2  0  0  0
 78 87  1  0  0  0
 78154  1  0  0  0
 79 81  1  0  0  0
 79 86  1  0  0  0
 80 84  1  0  0  0
 81 83  2  0  0  0
 81 85  1  0  0  0
 82 88  1  0  0  0
 82 89  2  0  0  0
 83155  1  0  0  0
 83156  1  0  0  0
 84 88  1  0  0  0
 84157  1  0  0  0
 84158  1  0  0  0
 85 87  1  0  0  0
 85159  1  0  0  0
 85160  1  0  0  0
 86161  1  0  0  0
 86162  1  0  0  0
M  ISO  4   1 100  68 101  80 100  86 101
M  END
> <chiral flag>
0

> <version>
0

> <s_m_source_file>
/data/baiqing/PycharmProjects/Reinvent-master-3.2/result/LINK_invent/BTK/process_docking_weight1_custom_product_contain_oxygen_bond_distance_aromatic_linkinvent_7_9_3/rearranged_h_0077.sdf

> <i_m_source_file_index>
67

> <r_mmod_Potential_Energy-OPLS-2005>
209.464431762695

> <r_mmod_Stretch_Energy-OPLS-2005>
41.3554382324219

> <r_mmod_Bend_Energy-OPLS-2005>
243.980178833008

> <r_mmod_Torsional_Energy-OPLS-2005>
284.318054199219

> <r_mmod_Improper_Torsional_Energy-OPLS-2005>
11.5178174972534

> <r_mmod_Van_der_Waal_Energy-OPLS-2005>
147.332138061523

> <r_mmod_Electrostatic_Energy-OPLS-2005>
-330.8779296875

> <r_mmod_Solvation_Energy-OPLS-2005>
-211.53254699707

> <b_mmod_Minimization_Converged-OPLS-2005>
0

> <r_mmod_RMS_Derivative-OPLS-2005>
3.58057260513306

$$$$
67
                    3D
 Structure written by MMmdl.
153161  0  0  1  0            999 V2000
  -30.5798  -14.7227   20.4739 C   0  0  0  0  0  0
  -30.4516  -12.4389   19.4701 C   0  0  0  0  0  0
  -29.5188  -12.5047   18.2387 C   0  0  0  0  0  0
  -28.0440  -12.3267   18.6538 C   0  0  0  0  0  0
  -27.6549  -13.2167   19.8648 C   0  0  2  0  0  0
  -28.6991  -13.1015   20.9982 C   0  0  0  0  0  0
  -25.2589  -13.8162   20.5706 C   0  0  0  0  0  0
  -24.1849  -13.0419   20.9199 C   0  0  0  0  0  0
  -24.6417  -11.6892   20.8740 C   0  0  0  0  0  0
  -23.9082  -10.4275   21.0395 C   0  0  0  0  0  0
  -24.3630   -9.4193   21.9173 C   0  0  0  0  0  0
  -23.6298   -8.2232   22.0737 C   0  0  0  0  0  0
  -22.4279   -8.0279   21.3527 C   0  0  0  0  0  0
  -21.9919   -9.0256   20.4631 C   0  0  0  0  0  0
  -22.7249  -10.2137   20.3042 C   0  0  0  0  0  0
  -21.6846   -6.0743   22.5274 C   0  0  0  0  0  0
  -21.4010   -6.5647   23.8211 C   0  0  0  0  0  0
  -21.3658   -5.6799   24.9173 C   0  0  0  0  0  0
  -21.6043   -4.3062   24.7223 C   0  0  0  0  0  0
  -21.8823   -3.8154   23.4344 C   0  0  0  0  0  0
  -21.9195   -4.6968   22.3401 C   0  0  0  0  0  0
  -22.7876  -13.5204   21.1891 C   0  0  0  0  0  0
  -22.1665   -4.2152   21.0979 F   0  0  0  0  0  0
  -21.5634   -3.4547   25.7739 F   0  0  0  0  0  0
  -30.0076  -13.4714   20.4337 N   0  0  0  0  0  0
  -26.3011  -12.9337   20.3326 N   0  0  0  0  0  0
  -25.9347  -11.6495   20.5766 N   0  0  0  0  0  0
  -22.0563  -12.8141   22.0448 N   0  0  0  0  0  0
  -25.4329  -15.1878   20.4157 N   0  0  0  0  0  0
  -31.7324  -14.8984   20.0661 O   0  0  0  0  0  0
  -21.6635   -6.8880   21.4232 O   0  0  0  0  0  0
  -22.3542  -14.5502   20.6753 O   0  0  0  0  0  0
  -24.6303  -31.8547   23.1958 C   0  0  0  0  0  0
  -25.9140  -32.4742   23.8305 C   0  0  1  0  0  0
  -27.2285  -27.2697   20.1163 C   0  0  0  0  0  0
  -25.5968  -33.8553   24.2256 N   0  0  0  0  0  0
  -23.4236  -30.4746   21.5424 C   0  0  2  0  0  0
  -24.8689  -28.9176   20.1089 C   0  0  0  0  0  0
  -22.7472  -29.4611   22.4959 C   0  0  0  0  0  0
  -18.0278  -28.1354   22.8472 C   0  0  0  0  0  0
  -24.1501  -36.7249   23.2636 C   0  0  0  0  0  0
  -25.9685  -30.7642   21.3743 C   0  0  0  0  0  0
  -26.0393  -29.3906   20.7122 C   0  0  0  0  0  0
  -27.2171  -28.5792   20.7042 C   0  0  0  0  0  0
  -26.0315  -26.8612   19.4825 C   0  0  0  0  0  0
  -24.8704  -27.6595   19.4864 C   0  0  0  0  0  0
  -23.6328  -29.7959   20.1617 C   0  0  0  0  0  0
  -25.4140  -36.3069   24.0327 C   0  0  1  0  0  0
  -20.5868  -28.3700   23.1278 C   0  0  2  0  0  0
  -20.6795  -26.9429   22.5378 C   0  0  0  0  0  0
  -19.5780  -26.6362   21.5195 C   0  0  0  0  0  0
  -18.1932  -26.7932   22.1546 C   0  0  0  0  0  0
  -19.1520  -28.8841   23.2864 C   0  0  0  0  0  0
  -18.9427  -30.1438   23.8874 C   0  0  0  0  0  0
  -17.6431  -30.6560   24.0548 C   0  0  0  0  0  0
  -25.9084  -34.9438   23.5095 C   0  0  0  0  0  0
  -16.5324  -29.9043   23.6313 C   0  0  0  0  0  0
  -16.7261  -28.6449   23.0360 C   0  0  0  0  0  0
  -26.4520  -31.6577   25.0702 C   0  0  0  0  0  0
  -25.3744  -31.3726   26.1421 C   0  0  0  0  0  0
  -27.0381  -30.2985   24.6235 C   0  0  0  0  0  0
  -27.6068  -32.4338   25.7480 C   0  0  0  0  0  0
  -27.5592  -37.1796   24.8476 C   0  0  0  0  0  0
  -21.4167  -29.3097   22.3725 N   0  0  0  0  0  0
  -26.4314  -37.3777   23.9410 N   0  0  0  0  0  0
  -24.6938  -31.0502   22.0928 N   0  0  0  0  0  0
  -23.4201  -28.8121   23.3020 O   0  0  0  0  0  0
  -28.3555  -26.4194   20.2045 O   0  0  0  0  0  0
  -26.5644  -34.8904   22.4656 O   0  0  0  0  0  0
  -23.5463  -32.1353   23.7287 O   0  0  0  0  0  0
  -28.7652  -19.4594   21.3091 C   0  0  0  0  0  0
  -30.0428  -19.3049   19.2934 C   0  0  0  0  0  0
  -28.9640  -18.0547   21.5237 C   0  0  0  0  0  0
  -30.2679  -17.9028   19.5208 C   0  0  0  0  0  0
  -29.2924  -20.1401   20.1766 C   0  0  0  0  0  0
  -29.7219  -17.2214   20.6462 C   0  0  0  0  0  0
  -28.9653  -21.6295   19.8381 C   0  0  0  0  0  0
  -29.0754  -23.9941   20.8004 C   0  0  0  0  0  0
  -29.1483  -25.0288   18.4279 C   0  0  0  0  0  0
  -28.3743  -24.9804   19.7562 C   0  0  2  0  0  0
  -29.7668  -15.7609   20.8885 N   0  0  0  0  0  0
  -29.1897  -22.6104   20.7645 N   0  0  0  0  0  0
  -28.5402  -21.8792   18.7084 O   0  0  0  0  0  0
  -29.5639  -24.5444   21.7926 O   0  0  0  0  0  0
  -31.4880  -12.5856   19.1620 H   0  0  0  0  0  0
  -30.4136  -11.4520   19.9345 H   0  0  0  0  0  0
  -29.7980  -11.7368   17.5146 H   0  0  0  0  0  0
  -29.6451  -13.4642   17.7344 H   0  0  0  0  0  0
  -27.9060  -11.2767   18.9172 H   0  0  0  0  0  0
  -27.3813  -12.5190   17.8074 H   0  0  0  0  0  0
  -27.6663  -14.2459   19.5054 H   0  0  0  0  0  0
  -28.7341  -12.0843   21.3908 H   0  0  0  0  0  0
  -28.4305  -13.7343   21.8447 H   0  0  0  0  0  0
  -25.2789   -9.5677   22.4734 H   0  0  0  0  0  0
  -24.0015   -7.4625   22.7453 H   0  0  0  0  0  0
  -21.0847   -8.8781   19.8935 H   0  0  0  0  0  0
  -22.3710  -10.9680   19.6151 H   0  0  0  0  0  0
  -21.1993   -7.6156   23.9712 H   0  0  0  0  0  0
  -21.1473   -6.0532   25.9076 H   0  0  0  0  0  0
  -22.0602   -2.7614   23.2849 H   0  0  0  0  0  0
  -22.4213  -11.9764   22.4732 H   0  0  0  0  0  0
  -21.1198  -13.1135   22.2743 H   0  0  0  0  0  0
  -24.6695  -15.8453   20.5293 H   0  0  0  0  0  0
  -26.2802  -15.6234   20.0724 H   0  0  0  0  0  0
  -26.7193  -32.5353   23.1023 H   0  0  0  0  0  0
  -25.0189  -33.9706   25.0451 H   0  0  0  0  0  0
  -22.7178  -31.2960   21.3971 H   0  0  0  0  0  0
  -23.3787  -35.9558   23.3311 H   0  0  0  0  0  0
  -24.3578  -36.8854   22.2046 H   0  0  0  0  0  0
  -23.7222  -37.6444   23.6630 H   0  0  0  0  0  0
  -26.1203  -31.5293   20.6114 H   0  0  0  0  0  0
  -26.8411  -30.7985   22.0146 H   0  0  0  0  0  0
  -28.1128  -28.9416   21.1882 H   0  0  0  0  0  0
  -25.9469  -25.9075   18.9881 H   0  0  0  0  0  0
  -23.9720  -27.2856   19.0150 H   0  0  0  0  0  0
  -23.7230  -30.5610   19.3910 H   0  0  0  0  0  0
  -22.7543  -29.2100   19.8845 H   0  0  0  0  0  0
  -25.1311  -36.1934   25.0822 H   0  0  0  0  0  0
  -20.9939  -28.3240   24.1405 H   0  0  0  0  0  0
  -20.5732  -26.2322   23.3576 H   0  0  0  0  0  0
  -21.6660  -26.7499   22.1143 H   0  0  0  0  0  0
  -19.6946  -25.6259   21.1262 H   0  0  0  0  0  0
  -19.6757  -27.3135   20.6700 H   0  0  0  0  0  0
  -17.4276  -26.6764   21.3879 H   0  0  0  0  0  0
  -18.0237  -26.0019   22.8848 H   0  0  0  0  0  0
  -19.7905  -30.7251   24.2233 H   0  0  0  0  0  0
  -17.4972  -31.6248   24.5161 H   0  0  0  0  0  0
  -15.5316  -30.2947   23.7610 H   0  0  0  0  0  0
  -15.8679  -28.0719   22.7086 H   0  0  0  0  0  0
  -24.5936  -30.7058   25.7739 H   0  0  0  0  0  0
  -24.8921  -32.2892   26.4828 H   0  0  0  0  0  0
  -25.8079  -30.8921   27.0209 H   0  0  0  0  0  0
  -26.2982  -29.6713   24.1255 H   0  0  0  0  0  0
  -27.4007  -29.7277   25.4795 H   0  0  0  0  0  0
  -27.8884  -30.4208   23.9527 H   0  0  0  0  0  0
  -27.2666  -33.3639   26.2053 H   0  0  0  0  0  0
  -28.3894  -32.6923   25.0326 H   0  0  0  0  0  0
  -28.0730  -31.8479   26.5410 H   0  0  0  0  0  0
  -28.2635  -38.0074   24.7533 H   0  0  0  0  0  0
  -28.1075  -36.2609   24.6314 H   0  0  0  0  0  0
  -27.2297  -37.1464   25.8878 H   0  0  0  0  0  0
  -20.9328  -29.8893   21.6995 H   0  0  0  0  0  0
  -26.0193  -38.2855   24.1407 H   0  0  0  0  0  0
  -28.1482  -20.0082   22.0073 H   0  0  0  0  0  0
  -30.4492  -19.7490   18.3941 H   0  0  0  0  0  0
  -28.4917  -17.6084   22.3880 H   0  0  0  0  0  0
  -30.8284  -17.3444   18.7833 H   0  0  0  0  0  0
  -28.8702  -25.9083   17.8458 H   0  0  0  0  0  0
  -28.9466  -24.1617   17.8033 H   0  0  0  0  0  0
  -30.2243  -25.0739   18.5999 H   0  0  0  0  0  0
  -27.3794  -24.5744   19.5975 H   0  0  0  0  0  0
  -28.9571  -15.4158   21.3806 H   0  0  0  0  0  0
  -29.5976  -22.2395   21.6067 H   0  0  0  0  0  0
  1 25  1  0  0  0
  1 30  2  0  0  0
  1 81  1  0  0  0
  2  3  1  0  0  0
  2 25  1  0  0  0
  2 85  1  0  0  0
  2 86  1  0  0  0
  3  4  1  0  0  0
  3 87  1  0  0  0
  3 88  1  0  0  0
  4  5  1  0  0  0
  4 89  1  0  0  0
  4 90  1  0  0  0
  5  6  1  0  0  0
  5 26  1  0  0  0
  5 91  1  0  0  0
  6 25  1  0  0  0
  6 92  1  0  0  0
  6 93  1  0  0  0
  7  8  2  0  0  0
  7 26  1  0  0  0
  7 29  1  0  0  0
  8  9  1  0  0  0
  8 22  1  0  0  0
  9 10  1  0  0  0
  9 27  2  0  0  0
 10 11  2  0  0  0
 10 15  1  0  0  0
 11 12  1  0  0  0
 11 94  1  0  0  0
 12 13  2  0  0  0
 12 95  1  0  0  0
 13 14  1  0  0  0
 13 31  1  0  0  0
 14 15  2  0  0  0
 14 96  1  0  0  0
 15 97  1  0  0  0
 16 17  2  0  0  0
 16 21  1  0  0  0
 16 31  1  0  0  0
 17 18  1  0  0  0
 17 98  1  0  0  0
 18 19  2  0  0  0
 18 99  1  0  0  0
 19 20  1  0  0  0
 19 24  1  0  0  0
 20 21  2  0  0  0
 20100  1  0  0  0
 21 23  1  0  0  0
 22 28  1  0  0  0
 22 32  2  0  0  0
 26 27  1  0  0  0
 28101  1  0  0  0
 28102  1  0  0  0
 29103  1  0  0  0
 29104  1  0  0  0
 33 34  1  0  0  0
 33 66  1  0  0  0
 33 70  2  0  0  0
 34 36  1  0  0  0
 34 59  1  0  0  0
 34105  1  0  0  0
 35 44  2  0  0  0
 35 45  1  0  0  0
 35 68  1  0  0  0
 36 56  1  0  0  0
 36106  1  0  0  0
 37 39  1  0  0  0
 37 47  1  0  0  0
 37 66  1  0  0  0
 37107  1  0  0  0
 38 43  2  0  0  0
 38 46  1  0  0  0
 38 47  1  0  0  0
 39 64  1  0  0  0
 39 67  2  0  0  0
 40 52  1  0  0  0
 40 53  2  0  0  0
 40 58  1  0  0  0
 41108  1  0  0  0
 41109  1  0  0  0
 41110  1  0  0  0
 41 48  1  0  0  0
 42 43  1  0  0  0
 42 66  1  0  0  0
 42111  1  0  0  0
 42112  1  0  0  0
 43 44  1  0  0  0
 44113  1  0  0  0
 45 46  2  0  0  0
 45114  1  0  0  0
 46115  1  0  0  0
 47116  1  0  0  0
 47117  1  0  0  0
 48 56  1  0  0  0
 48 65  1  0  0  0
 48118  1  0  0  0
 49 50  1  0  0  0
 49 53  1  0  0  0
 49 64  1  0  0  0
 49119  1  0  0  0
 50 51  1  0  0  0
 50120  1  0  0  0
 50121  1  0  0  0
 51 52  1  0  0  0
 51122  1  0  0  0
 51123  1  0  0  0
 52124  1  0  0  0
 52125  1  0  0  0
 53 54  1  0  0  0
 54 55  2  0  0  0
 54126  1  0  0  0
 55 57  1  0  0  0
 55127  1  0  0  0
 56 69  2  0  0  0
 57 58  2  0  0  0
 57128  1  0  0  0
 58129  1  0  0  0
 59 60  1  0  0  0
 59 61  1  0  0  0
 59 62  1  0  0  0
 60130  1  0  0  0
 60131  1  0  0  0
 60132  1  0  0  0
 61133  1  0  0  0
 61134  1  0  0  0
 61135  1  0  0  0
 62136  1  0  0  0
 62137  1  0  0  0
 62138  1  0  0  0
 63 65  1  0  0  0
 63139  1  0  0  0
 63140  1  0  0  0
 63141  1  0  0  0
 64142  1  0  0  0
 65143  1  0  0  0
 68 80  1  0  0  0
 71 73  2  0  0  0
 71 75  1  0  0  0
 71144  1  0  0  0
 72 74  1  0  0  0
 72 75  2  0  0  0
 72145  1  0  0  0
 73 76  1  0  0  0
 73146  1  0  0  0
 74 76  2  0  0  0
 74147  1  0  0  0
 75 77  1  0  0  0
 76 81  1  0  0  0
 77 82  1  0  0  0
 77 83  2  0  0  0
 78 80  1  0  0  0
 78 82  1  0  0  0
 78 84  2  0  0  0
 79148  1  0  0  0
 79149  1  0  0  0
 79150  1  0  0  0
 79 80  1  0  0  0
 80151  1  0  0  0
 81152  1  0  0  0
 82153  1  0  0  0
M  ISO  4   1 100  68 101  80 101  81 100
M  END
> <chiral flag>
0

> <version>
0

> <s_m_source_file>
/data/baiqing/PycharmProjects/Reinvent-master-3.2/result/LINK_invent/BTK/process_docking_weight1_custom_product_contain_oxygen_bond_distance_aromatic_linkinvent_7_9_3/rearranged_h_0077.sdf

> <i_m_source_file_index>
68

> <r_mmod_Potential_Energy-OPLS-2005>
-3.25548362731934

> <r_mmod_Stretch_Energy-OPLS-2005>
104.443923950195

> <r_mmod_Bend_Energy-OPLS-2005>
192.634674072266

> <r_mmod_Torsional_Energy-OPLS-2005>
242.918991088867

> <r_mmod_Improper_Torsional_Energy-OPLS-2005>
4.14438247680664

> <r_mmod_Van_der_Waal_Energy-OPLS-2005>
135.118957519531

> <r_mmod_Electrostatic_Energy-OPLS-2005>
-508.773040771484

> <r_mmod_Solvation_Energy-OPLS-2005>
-249.468978881836

> <b_mmod_Minimization_Converged-OPLS-2005>
0

> <r_mmod_RMS_Derivative-OPLS-2005>
2.99876403808594

$$$$
68
                    3D
 Structure written by MMmdl.
170179  0  0  1  0            999 V2000
  -30.7628  -14.4636   20.5121 C   0  0  0  0  0  0
  -30.4039  -12.2738   19.4467 C   0  0  0  0  0  0
  -29.4768  -12.3992   18.2197 C   0  0  0  0  0  0
  -27.9906  -12.3407   18.6132 C   0  0  0  0  0  0
  -27.6473  -13.2132   19.8480 C   0  0  2  0  0  0
  -28.6888  -13.0454   20.9693 C   0  0  0  0  0  0
  -25.2536  -13.8199   20.5707 C   0  0  0  0  0  0
  -24.1793  -13.0469   20.9193 C   0  0  0  0  0  0
  -24.6333  -11.6931   20.8732 C   0  0  0  0  0  0
  -23.9008  -10.4300   21.0391 C   0  0  0  0  0  0
  -24.3568   -9.4227   21.9170 C   0  0  0  0  0  0
  -23.6273   -8.2258   22.0758 C   0  0  0  0  0  0
  -22.4252   -8.0269   21.3560 C   0  0  0  0  0  0
  -21.9867   -9.0231   20.4663 C   0  0  0  0  0  0
  -22.7180  -10.2120   20.3051 C   0  0  0  0  0  0
  -21.6870   -6.0703   22.5266 C   0  0  0  0  0  0
  -21.4040   -6.5622   23.8189 C   0  0  0  0  0  0
  -21.3659   -5.6780   24.9155 C   0  0  0  0  0  0
  -21.6028   -4.3042   24.7219 C   0  0  0  0  0  0
  -21.8824   -3.8125   23.4342 C   0  0  0  0  0  0
  -21.9214   -4.6930   22.3395 C   0  0  0  0  0  0
  -22.7825  -13.5284   21.1833 C   0  0  0  0  0  0
  -22.1688   -4.2125   21.0970 F   0  0  0  0  0  0
  -21.5611   -3.4520   25.7729 F   0  0  0  0  0  0
  -30.0213  -13.3196   20.4106 N   0  0  0  0  0  0
  -26.2940  -12.9390   20.3276 N   0  0  0  0  0  0
  -25.9253  -11.6547   20.5734 N   0  0  0  0  0  0
  -22.0488  -12.8275   22.0390 N   0  0  0  0  0  0
  -25.4293  -15.1914   20.4186 N   0  0  0  0  0  0
  -31.9330  -14.5004   20.1346 O   0  0  0  0  0  0
  -21.6652   -6.8841   21.4229 O   0  0  0  0  0  0
  -22.3504  -14.5579   20.6642 O   0  0  0  0  0  0
  -24.6119  -31.8699   23.2115 C   0  0  0  0  0  0
  -25.9024  -32.4824   23.8406 C   0  0  1  0  0  0
  -27.2450  -27.4418   20.0896 C   0  0  0  0  0  0
  -25.5899  -33.8629   24.2331 N   0  0  0  0  0  0
  -23.3997  -30.4930   21.5508 C   0  0  2  0  0  0
  -24.8484  -28.9587   20.1163 C   0  0  0  0  0  0
  -22.7386  -29.4664   22.4988 C   0  0  0  0  0  0
  -18.0256  -28.1369   22.8479 C   0  0  0  0  0  0
  -24.1495  -36.7312   23.2638 C   0  0  0  0  0  0
  -25.9285  -30.8321   21.3721 C   0  0  0  0  0  0
  -26.0045  -29.4679   20.7172 C   0  0  0  0  0  0
  -27.1973  -28.7122   20.7091 C   0  0  0  0  0  0
  -26.0612  -26.9418   19.4933 C   0  0  0  0  0  0
  -24.8704  -27.6931   19.5065 C   0  0  0  0  0  0
  -23.6114  -29.8256   20.1650 C   0  0  0  0  0  0
  -25.4118  -36.3109   24.0333 C   0  0  1  0  0  0
  -20.5842  -28.3661   23.1326 C   0  0  2  0  0  0
  -20.6749  -26.9397   22.5430 C   0  0  0  0  0  0
  -19.5738  -26.6376   21.5217 C   0  0  0  0  0  0
  -18.1907  -26.7915   22.1615 C   0  0  0  0  0  0
  -19.1498  -28.8831   23.2898 C   0  0  0  0  0  0
  -18.9438  -30.1436   23.8909 C   0  0  0  0  0  0
  -17.6445  -30.6577   24.0570 C   0  0  0  0  0  0
  -25.9044  -34.9477   23.5127 C   0  0  0  0  0  0
  -16.5335  -29.9078   23.6329 C   0  0  0  0  0  0
  -16.7250  -28.6498   23.0336 C   0  0  0  0  0  0
  -26.4458  -31.6604   25.0740 C   0  0  0  0  0  0
  -25.3728  -31.3710   26.1489 C   0  0  0  0  0  0
  -27.0298  -30.3032   24.6150 C   0  0  0  0  0  0
  -27.6027  -32.4332   25.7504 C   0  0  0  0  0  0
  -27.5585  -37.1810   24.8457 C   0  0  0  0  0  0
  -21.4116  -29.3029   22.3728 N   0  0  0  0  0  0
  -26.4295  -37.3794   23.9400 N   0  0  0  0  0  0
  -24.6634  -31.0797   22.1021 N   0  0  0  0  0  0
  -23.4158  -28.8210   23.3037 O   0  0  0  0  0  0
  -28.4497  -26.7622   20.1320 O   0  0  0  0  0  0
  -26.5600  -34.8930   22.4686 O   0  0  0  0  0  0
  -23.5321  -32.1453   23.7511 O   0  0  0  0  0  0
  -28.7031  -18.9368   19.9927 C   0  0  0  0  0  0
  -30.5842  -18.8070   21.5173 C   0  0  0  0  0  0
  -28.6086  -20.3259   20.2238 C   0  0  0  0  0  0
  -30.4909  -20.1967   21.7436 C   0  0  0  0  0  0
  -29.7261  -18.1664   20.5932 C   0  0  0  0  0  0
  -29.5424  -20.9891   21.0531 C   0  0  0  0  0  0
  -28.7387  -23.3028   20.4894 C   0  0  0  0  0  0
  -29.3223  -24.4680   20.1671 C   0  0  0  0  0  0
  -30.6838  -24.3825   20.6222 C   0  0  0  0  0  0
  -31.6115  -25.3486   20.5034 C   0  0  0  0  0  0
  -30.0450  -16.8041   20.0748 C   0  0  0  0  0  0
  -30.1135  -15.7170   20.9277 C   0  0  0  0  0  0
  -30.4574  -16.7911   18.6068 C   0  0  0  0  0  0
  -30.9003  -23.0298   21.2618 C   0  0  0  0  0  0
  -29.7115  -15.8072   22.3989 C   0  0  0  0  0  0
  -31.0163  -18.1019   18.0297 C   0  0  0  0  0  0
  -30.9447  -14.7641   15.8665 C   0  0  0  0  0  0
  -28.6941  -25.5898   19.3448 C   0  0  0  0  0  0
  -30.3462  -15.7676   17.8502 N   0  0  0  0  0  0
  -29.5781  -22.4015   21.1419 N   0  0  0  0  0  0
  -30.7813  -16.0058   16.5330 O   0  0  0  0  0  0
  -31.4463  -12.3345   19.1307 H   0  0  0  0  0  0
  -30.3022  -11.2936   19.9133 H   0  0  0  0  0  0
  -29.7014  -11.6061   17.5030 H   0  0  0  0  0  0
  -29.6568  -13.3353   17.7092 H   0  0  0  0  0  0
  -27.7399  -11.2971   18.8042 H   0  0  0  0  0  0
  -27.3690  -12.6441   17.7690 H   0  0  0  0  0  0
  -27.6845  -14.2520   19.5190 H   0  0  0  0  0  0
  -28.6636  -12.0292   21.3670 H   0  0  0  0  0  0
  -28.4296  -13.6835   21.8078 H   0  0  0  0  0  0
  -25.2708   -9.5747   22.4722 H   0  0  0  0  0  0
  -24.0020   -7.4656   22.7447 H   0  0  0  0  0  0
  -21.0814   -8.8701   19.8954 H   0  0  0  0  0  0
  -22.3613  -10.9633   19.6136 H   0  0  0  0  0  0
  -21.2060   -7.6136   23.9694 H   0  0  0  0  0  0
  -21.1472   -6.0506   25.9057 H   0  0  0  0  0  0
  -22.0610   -2.7589   23.2833 H   0  0  0  0  0  0
  -22.4165  -11.9998   22.4835 H   0  0  0  0  0  0
  -21.1093  -13.1274   22.2562 H   0  0  0  0  0  0
  -24.6727  -15.8498   20.5663 H   0  0  0  0  0  0
  -26.2877  -15.6341   20.1147 H   0  0  0  0  0  0
  -26.7090  -32.5538   23.1167 H   0  0  0  0  0  0
  -25.0067  -33.9802   25.0487 H   0  0  0  0  0  0
  -22.6874  -31.3089   21.4130 H   0  0  0  0  0  0
  -23.3758  -35.9640   23.3303 H   0  0  0  0  0  0
  -24.3587  -36.8927   22.2049 H   0  0  0  0  0  0
  -23.7245  -37.6518   23.6657 H   0  0  0  0  0  0
  -26.0550  -31.6019   20.6095 H   0  0  0  0  0  0
  -26.8094  -30.8713   22.0022 H   0  0  0  0  0  0
  -28.0879  -29.0993   21.1852 H   0  0  0  0  0  0
  -26.0064  -25.9728   19.0250 H   0  0  0  0  0  0
  -23.9779  -27.2900   19.0469 H   0  0  0  0  0  0
  -23.7227  -30.6025   19.4079 H   0  0  0  0  0  0
  -22.7353  -29.2490   19.8639 H   0  0  0  0  0  0
  -25.1295  -36.1963   25.0823 H   0  0  0  0  0  0
  -20.9931  -28.3226   24.1450 H   0  0  0  0  0  0
  -20.5653  -26.2269   23.3612 H   0  0  0  0  0  0
  -21.6621  -26.7446   22.1228 H   0  0  0  0  0  0
  -19.6903  -25.6281   21.1255 H   0  0  0  0  0  0
  -19.6686  -27.3190   20.6747 H   0  0  0  0  0  0
  -17.4186  -26.6659   21.4005 H   0  0  0  0  0  0
  -18.0304  -26.0048   22.9005 H   0  0  0  0  0  0
  -19.7924  -30.7230   24.2287 H   0  0  0  0  0  0
  -17.5014  -31.6262   24.5169 H   0  0  0  0  0  0
  -15.5333  -30.2991   23.7663 H   0  0  0  0  0  0
  -15.8643  -28.0848   22.7028 H   0  0  0  0  0  0
  -24.5863  -30.7109   25.7811 H   0  0  0  0  0  0
  -24.8981  -32.2880   26.4987 H   0  0  0  0  0  0
  -25.8077  -30.8819   27.0215 H   0  0  0  0  0  0
  -26.2853  -29.6784   24.1193 H   0  0  0  0  0  0
  -27.4029  -29.7268   25.4633 H   0  0  0  0  0  0
  -27.8718  -30.4325   23.9335 H   0  0  0  0  0  0
  -27.2617  -33.3605   26.2119 H   0  0  0  0  0  0
  -28.3809  -32.6934   25.0317 H   0  0  0  0  0  0
  -28.0728  -31.8446   26.5392 H   0  0  0  0  0  0
  -28.2592  -38.0121   24.7516 H   0  0  0  0  0  0
  -28.1086  -36.2645   24.6256 H   0  0  0  0  0  0
  -27.2309  -37.1436   25.8864 H   0  0  0  0  0  0
  -20.9264  -29.8745   21.6954 H   0  0  0  0  0  0
  -26.0184  -38.2873   24.1391 H   0  0  0  0  0  0
  -28.0384  -18.4840   19.2703 H   0  0  0  0  0  0
  -31.3967  -18.2607   21.9768 H   0  0  0  0  0  0
  -27.8516  -20.8803   19.6905 H   0  0  0  0  0  0
  -31.2052  -20.6572   22.4115 H   0  0  0  0  0  0
  -27.7210  -23.0072   20.2803 H   0  0  0  0  0  0
  -31.3851  -26.2976   20.0386 H   0  0  0  0  0  0
  -32.6169  -25.2027   20.8713 H   0  0  0  0  0  0
  -31.2084  -23.1352   22.3033 H   0  0  0  0  0  0
  -31.6666  -22.4775   20.7139 H   0  0  0  0  0  0
  -28.6546  -16.0516   22.4904 H   0  0  0  0  0  0
  -30.2942  -16.5567   22.9290 H   0  0  0  0  0  0
  -29.8901  -14.8707   22.9298 H   0  0  0  0  0  0
  -30.2563  -18.6191   17.4452 H   0  0  0  0  0  0
  -31.8763  -17.9126   17.3875 H   0  0  0  0  0  0
  -31.3947  -18.7684   18.8013 H   0  0  0  0  0  0
  -31.5002  -14.9173   14.9408 H   0  0  0  0  0  0
  -29.9820  -14.3258   15.5989 H   0  0  0  0  0  0
  -31.5094  -14.0453   16.4655 H   0  0  0  0  0  0
  -27.8426  -25.1771   18.8161 H   0  0  0  0  0  0
  -29.4030  -25.8743   18.5659 H   0  0  0  0  0  0
  1 25  1  0  0  0
  1 30  2  0  0  0
  1 82  1  0  0  0
  2  3  1  0  0  0
  2 25  1  0  0  0
  2 92  1  0  0  0
  2 93  1  0  0  0
  3  4  1  0  0  0
  3 94  1  0  0  0
  3 95  1  0  0  0
  4  5  1  0  0  0
  4 96  1  0  0  0
  4 97  1  0  0  0
  5  6  1  0  0  0
  5 26  1  0  0  0
  5 98  1  0  0  0
  6 25  1  0  0  0
  6 99  1  0  0  0
  6100  1  0  0  0
  7  8  2  0  0  0
  7 26  1  0  0  0
  7 29  1  0  0  0
  8  9  1  0  0  0
  8 22  1  0  0  0
  9 10  1  0  0  0
  9 27  2  0  0  0
 10 11  2  0  0  0
 10 15  1  0  0  0
 11 12  1  0  0  0
 11101  1  0  0  0
 12 13  2  0  0  0
 12102  1  0  0  0
 13 14  1  0  0  0
 13 31  1  0  0  0
 14 15  2  0  0  0
 14103  1  0  0  0
 15104  1  0  0  0
 16 17  2  0  0  0
 16 21  1  0  0  0
 16 31  1  0  0  0
 17 18  1  0  0  0
 17105  1  0  0  0
 18 19  2  0  0  0
 18106  1  0  0  0
 19 20  1  0  0  0
 19 24  1  0  0  0
 20 21  2  0  0  0
 20107  1  0  0  0
 21 23  1  0  0  0
 22 28  1  0  0  0
 22 32  2  0  0  0
 26 27  1  0  0  0
 28108  1  0  0  0
 28109  1  0  0  0
 29110  1  0  0  0
 29111  1  0  0  0
 33 34  1  0  0  0
 33 66  1  0  0  0
 33 70  2  0  0  0
 34 36  1  0  0  0
 34 59  1  0  0  0
 34112  1  0  0  0
 35 44  2  0  0  0
 35 45  1  0  0  0
 35 68  1  0  0  0
 36 56  1  0  0  0
 36113  1  0  0  0
 37 39  1  0  0  0
 37 47  1  0  0  0
 37 66  1  0  0  0
 37114  1  0  0  0
 38 43  2  0  0  0
 38 46  1  0  0  0
 38 47  1  0  0  0
 39 64  1  0  0  0
 39 67  2  0  0  0
 40 52  1  0  0  0
 40 53  2  0  0  0
 40 58  1  0  0  0
 41115  1  0  0  0
 41116  1  0  0  0
 41117  1  0  0  0
 41 48  1  0  0  0
 42 43  1  0  0  0
 42 66  1  0  0  0
 42118  1  0  0  0
 42119  1  0  0  0
 43 44  1  0  0  0
 44120  1  0  0  0
 45 46  2  0  0  0
 45121  1  0  0  0
 46122  1  0  0  0
 47123  1  0  0  0
 47124  1  0  0  0
 48 56  1  0  0  0
 48 65  1  0  0  0
 48125  1  0  0  0
 49 50  1  0  0  0
 49 53  1  0  0  0
 49 64  1  0  0  0
 49126  1  0  0  0
 50 51  1  0  0  0
 50127  1  0  0  0
 50128  1  0  0  0
 51 52  1  0  0  0
 51129  1  0  0  0
 51130  1  0  0  0
 52131  1  0  0  0
 52132  1  0  0  0
 53 54  1  0  0  0
 54 55  2  0  0  0
 54133  1  0  0  0
 55 57  1  0  0  0
 55134  1  0  0  0
 56 69  2  0  0  0
 57 58  2  0  0  0
 57135  1  0  0  0
 58136  1  0  0  0
 59 60  1  0  0  0
 59 61  1  0  0  0
 59 62  1  0  0  0
 60137  1  0  0  0
 60138  1  0  0  0
 60139  1  0  0  0
 61140  1  0  0  0
 61141  1  0  0  0
 61142  1  0  0  0
 62143  1  0  0  0
 62144  1  0  0  0
 62145  1  0  0  0
 63 65  1  0  0  0
 63146  1  0  0  0
 63147  1  0  0  0
 63148  1  0  0  0
 64149  1  0  0  0
 65150  1  0  0  0
 68 88  1  0  0  0
 71 73  2  0  0  0
 71 75  1  0  0  0
 71151  1  0  0  0
 72 74  1  0  0  0
 72 75  2  0  0  0
 72152  1  0  0  0
 73 76  1  0  0  0
 73153  1  0  0  0
 74 76  2  0  0  0
 74154  1  0  0  0
 75 81  1  0  0  0
 76 90  1  0  0  0
 77 78  2  0  0  0
 77 90  1  0  0  0
 77155  1  0  0  0
 78 79  1  0  0  0
 78 88  1  0  0  0
 79 80  2  0  0  0
 79 84  1  0  0  0
 80156  1  0  0  0
 80157  1  0  0  0
 81 82  2  0  0  0
 81 83  1  0  0  0
 82 85  1  0  0  0
 83 86  1  0  0  0
 83 89  2  0  0  0
 84 90  1  0  0  0
 84158  1  0  0  0
 84159  1  0  0  0
 85160  1  0  0  0
 85161  1  0  0  0
 85162  1  0  0  0
 86163  1  0  0  0
 86164  1  0  0  0
 86165  1  0  0  0
 87 91  1  0  0  0
 87166  1  0  0  0
 87167  1  0  0  0
 87168  1  0  0  0
 88169  1  0  0  0
 88170  1  0  0  0
 89 91  1  0  0  0
M  ISO  4   1 100  68 101  82 100  88 101
M  END
> <chiral flag>
0

> <version>
0

> <s_m_source_file>
/data/baiqing/PycharmProjects/Reinvent-master-3.2/result/LINK_invent/BTK/process_docking_weight1_custom_product_contain_oxygen_bond_distance_aromatic_linkinvent_7_9_3/rearranged_h_0077.sdf

> <i_m_source_file_index>
69

> <r_mmod_Potential_Energy-OPLS-2005>
245.336120605469

> <r_mmod_Stretch_Energy-OPLS-2005>
50.1381568908691

> <r_mmod_Bend_Energy-OPLS-2005>
213.573760986328

> <r_mmod_Torsional_Energy-OPLS-2005>
291.157104492188

> <r_mmod_Improper_Torsional_Energy-OPLS-2005>
12.7283763885498

> <r_mmod_Van_der_Waal_Energy-OPLS-2005>
187.008880615234

> <r_mmod_Electrostatic_Energy-OPLS-2005>
-328.924652099609

> <r_mmod_Solvation_Energy-OPLS-2005>
-203.521514892578

> <b_mmod_Minimization_Converged-OPLS-2005>
0

> <r_mmod_RMS_Derivative-OPLS-2005>
3.72233510017395

$$$$
69
                    3D
 Structure written by MMmdl.
156164  0  0  1  0            999 V2000
  -30.5986  -14.6662   20.4903 C   0  0  0  0  0  0
  -30.4431  -12.4084   19.4519 C   0  0  0  0  0  0
  -29.5098  -12.5127   18.2238 C   0  0  0  0  0  0
  -28.0323  -12.3457   18.6344 C   0  0  0  0  0  0
  -27.6520  -13.2162   19.8611 C   0  0  2  0  0  0
  -28.6969  -13.0729   20.9908 C   0  0  0  0  0  0
  -25.2550  -13.8164   20.5678 C   0  0  0  0  0  0
  -24.1816  -13.0431   20.9182 C   0  0  0  0  0  0
  -24.6385  -11.6902   20.8729 C   0  0  0  0  0  0
  -23.9056  -10.4289   21.0403 C   0  0  0  0  0  0
  -24.3611   -9.4205   21.9182 C   0  0  0  0  0  0
  -23.6288   -8.2239   22.0751 C   0  0  0  0  0  0
  -22.4270   -8.0277   21.3545 C   0  0  0  0  0  0
  -21.9904   -9.0251   20.4647 C   0  0  0  0  0  0
  -22.7230  -10.2128   20.3056 C   0  0  0  0  0  0
  -21.6852   -6.0733   22.5280 C   0  0  0  0  0  0
  -21.4014   -6.5637   23.8212 C   0  0  0  0  0  0
  -21.3657   -5.6789   24.9173 C   0  0  0  0  0  0
  -21.6046   -4.3052   24.7225 C   0  0  0  0  0  0
  -21.8821   -3.8144   23.4344 C   0  0  0  0  0  0
  -21.9193   -4.6961   22.3402 C   0  0  0  0  0  0
  -22.7840  -13.5230   21.1851 C   0  0  0  0  0  0
  -22.1662   -4.2147   21.0978 F   0  0  0  0  0  0
  -21.5628   -3.4536   25.7736 F   0  0  0  0  0  0
  -30.0108  -13.4277   20.4294 N   0  0  0  0  0  0
  -26.2976  -12.9346   20.3299 N   0  0  0  0  0  0
  -25.9312  -11.6499   20.5737 N   0  0  0  0  0  0
  -22.0482  -12.8227   22.0410 N   0  0  0  0  0  0
  -25.4259  -15.1888   20.4112 N   0  0  0  0  0  0
  -31.7613  -14.8438   20.1123 O   0  0  0  0  0  0
  -21.6635   -6.8873   21.4240 O   0  0  0  0  0  0
  -22.3527  -14.5540   20.6703 O   0  0  0  0  0  0
  -24.6270  -31.8590   23.2008 C   0  0  0  0  0  0
  -25.9112  -32.4776   23.8348 C   0  0  1  0  0  0
  -27.2292  -27.3132   20.1246 C   0  0  0  0  0  0
  -25.5926  -33.8575   24.2281 N   0  0  0  0  0  0
  -23.4214  -30.4804   21.5430 C   0  0  2  0  0  0
  -24.8692  -28.9284   20.1151 C   0  0  0  0  0  0
  -22.7479  -29.4616   22.4934 C   0  0  0  0  0  0
  -18.0287  -28.1382   22.8482 C   0  0  0  0  0  0
  -24.1484  -36.7291   23.2642 C   0  0  0  0  0  0
  -25.9615  -30.7883   21.3716 C   0  0  0  0  0  0
  -26.0370  -29.4125   20.7180 C   0  0  0  0  0  0
  -27.2213  -28.6173   20.7089 C   0  0  0  0  0  0
  -26.0406  -26.8781   19.5001 C   0  0  0  0  0  0
  -24.8725  -27.6667   19.4974 C   0  0  0  0  0  0
  -23.6377  -29.8105   20.1599 C   0  0  0  0  0  0
  -25.4109  -36.3084   24.0336 C   0  0  1  0  0  0
  -20.5886  -28.3686   23.1281 C   0  0  2  0  0  0
  -20.6775  -26.9410   22.5408 C   0  0  0  0  0  0
  -19.5753  -26.6381   21.5206 C   0  0  0  0  0  0
  -18.1932  -26.7925   22.1617 C   0  0  0  0  0  0
  -19.1539  -28.8850   23.2877 C   0  0  0  0  0  0
  -18.9463  -30.1451   23.8896 C   0  0  0  0  0  0
  -17.6465  -30.6584   24.0558 C   0  0  0  0  0  0
  -25.9048  -34.9453   23.5109 C   0  0  0  0  0  0
  -16.5354  -29.9081   23.6328 C   0  0  0  0  0  0
  -16.7276  -28.6497   23.0349 C   0  0  0  0  0  0
  -26.4496  -31.6588   25.0722 C   0  0  0  0  0  0
  -25.3732  -31.3719   26.1452 C   0  0  0  0  0  0
  -27.0348  -30.3020   24.6175 C   0  0  0  0  0  0
  -27.6062  -32.4312   25.7491 C   0  0  0  0  0  0
  -27.5576  -37.1800   24.8468 C   0  0  0  0  0  0
  -21.4193  -29.3043   22.3680 N   0  0  0  0  0  0
  -26.4286  -37.3782   23.9414 N   0  0  0  0  0  0
  -24.6887  -31.0594   22.0956 N   0  0  0  0  0  0
  -23.4201  -28.8164   23.3021 O   0  0  0  0  0  0
  -28.3636  -26.4879   20.1192 O   0  0  0  0  0  0
  -26.5612  -34.8923   22.4672 O   0  0  0  0  0  0
  -23.5432  -32.1388   23.7334 O   0  0  0  0  0  0
  -28.6579  -18.9653   19.2315 C   0  0  0  0  0  0
  -30.3029  -19.5304   20.8877 C   0  0  0  0  0  0
  -28.8210  -17.5809   19.5268 C   0  0  0  0  0  0
  -30.4836  -18.1330   21.1721 C   0  0  0  0  0  0
  -29.3822  -19.9887   19.9020 C   0  0  0  0  0  0
  -29.7533  -17.1174   20.4891 C   0  0  0  0  0  0
  -29.2886  -21.4496   19.3974 C   0  0  0  0  0  0
  -30.6200  -24.4088   19.9259 C   0  0  0  0  0  0
  -31.1654  -25.4924   19.0048 C   0  0  0  0  0  0
  -28.2429  -25.0525   20.4976 C   0  0  0  0  0  0
  -29.1520  -23.9803   19.7328 C   0  0  2  0  0  0
  -29.7707  -15.6986   20.8541 N   0  0  0  0  0  0
  -29.0346  -22.5330   20.1964 N   0  0  0  0  0  0
  -29.4329  -21.6194   18.1853 O   0  0  0  0  0  0
  -31.3624  -23.9180   20.7832 O   0  0  0  0  0  0
  -31.4823  -12.5470   19.1481 H   0  0  0  0  0  0
  -30.3894  -11.4124   19.8938 H   0  0  0  0  0  0
  -29.7783  -11.7620   17.4791 H   0  0  0  0  0  0
  -29.6463  -13.4818   17.7416 H   0  0  0  0  0  0
  -27.8687  -11.2928   18.8653 H   0  0  0  0  0  0
  -27.3789  -12.5755   17.7918 H   0  0  0  0  0  0
  -27.6677  -14.2501   19.5159 H   0  0  0  0  0  0
  -28.7139  -12.0500   21.3690 H   0  0  0  0  0  0
  -28.4363  -13.6980   21.8465 H   0  0  0  0  0  0
  -25.2758   -9.5686   22.4752 H   0  0  0  0  0  0
  -24.0002   -7.4632   22.7464 H   0  0  0  0  0  0
  -21.0837   -8.8772   19.8952 H   0  0  0  0  0  0
  -22.3692  -10.9668   19.6160 H   0  0  0  0  0  0
  -21.2008   -7.6147   23.9716 H   0  0  0  0  0  0
  -21.1476   -6.0517   25.9077 H   0  0  0  0  0  0
  -22.0603   -2.7606   23.2844 H   0  0  0  0  0  0
  -22.4091  -11.9893   22.4812 H   0  0  0  0  0  0
  -21.1103  -13.1261   22.2613 H   0  0  0  0  0  0
  -24.6582  -15.8419   20.5262 H   0  0  0  0  0  0
  -26.2748  -15.6329   20.0875 H   0  0  0  0  0  0
  -26.7184  -32.5452   23.1100 H   0  0  0  0  0  0
  -25.0083  -33.9717   25.0435 H   0  0  0  0  0  0
  -22.7154  -31.3006   21.3968 H   0  0  0  0  0  0
  -23.3750  -35.9619   23.3307 H   0  0  0  0  0  0
  -24.3579  -36.8906   22.2056 H   0  0  0  0  0  0
  -23.7231  -37.6493   23.6656 H   0  0  0  0  0  0
  -26.0899  -31.5499   20.6012 H   0  0  0  0  0  0
  -26.8431  -30.8413   21.9992 H   0  0  0  0  0  0
  -28.1220  -28.9880   21.1784 H   0  0  0  0  0  0
  -26.0055  -25.9178   19.0057 H   0  0  0  0  0  0
  -23.9785  -27.2926   19.0176 H   0  0  0  0  0  0
  -23.7587  -30.5840   19.4004 H   0  0  0  0  0  0
  -22.7583  -29.2390   19.8578 H   0  0  0  0  0  0
  -25.1286  -36.1938   25.0828 H   0  0  0  0  0  0
  -20.9973  -28.3257   24.1403 H   0  0  0  0  0  0
  -20.5666  -26.2298   23.3609 H   0  0  0  0  0  0
  -21.6646  -26.7434   22.1210 H   0  0  0  0  0  0
  -19.6916  -25.6289   21.1243 H   0  0  0  0  0  0
  -19.6694  -27.3185   20.6730 H   0  0  0  0  0  0
  -17.4204  -26.6668   21.4018 H   0  0  0  0  0  0
  -18.0337  -26.0068   22.9015 H   0  0  0  0  0  0
  -19.7942  -30.7260   24.2274 H   0  0  0  0  0  0
  -17.5022  -31.6267   24.5156 H   0  0  0  0  0  0
  -15.5354  -30.2980   23.7660 H   0  0  0  0  0  0
  -15.8675  -28.0817   22.7066 H   0  0  0  0  0  0
  -24.5905  -30.7072   25.7777 H   0  0  0  0  0  0
  -24.8924  -32.2882   26.4888 H   0  0  0  0  0  0
  -25.8061  -30.8887   27.0221 H   0  0  0  0  0  0
  -26.2926  -29.6760   24.1212 H   0  0  0  0  0  0
  -27.4071  -29.7287   25.4675 H   0  0  0  0  0  0
  -27.8779  -30.4320   23.9386 H   0  0  0  0  0  0
  -27.2687  -33.3610   26.2081 H   0  0  0  0  0  0
  -28.3868  -32.6872   25.0314 H   0  0  0  0  0  0
  -28.0739  -31.8429   26.5397 H   0  0  0  0  0  0
  -28.2597  -38.0094   24.7514 H   0  0  0  0  0  0
  -28.1064  -36.2626   24.6285 H   0  0  0  0  0  0
  -27.2302  -37.1447   25.8874 H   0  0  0  0  0  0
  -20.9376  -29.8767   21.6890 H   0  0  0  0  0  0
  -26.0170  -38.2859   24.1410 H   0  0  0  0  0  0
  -27.9613  -19.2458   18.4526 H   0  0  0  0  0  0
  -30.9122  -20.2536   21.4114 H   0  0  0  0  0  0
  -28.2114  -16.8672   18.9907 H   0  0  0  0  0  0
  -31.1882  -17.8475   21.9410 H   0  0  0  0  0  0
  -30.6741  -25.4576   18.0330 H   0  0  0  0  0  0
  -32.2362  -25.3584   18.8523 H   0  0  0  0  0  0
  -30.9980  -26.4762   19.4416 H   0  0  0  0  0  0
  -28.4654  -24.9971   21.5638 H   0  0  0  0  0  0
  -27.2096  -24.7183   20.4178 H   0  0  0  0  0  0
  -28.9016  -24.0392   18.6730 H   0  0  0  0  0  0
  -28.8681  -15.3455   21.1337 H   0  0  0  0  0  0
  -28.9301  -22.3711   21.1874 H   0  0  0  0  0  0
  1 25  1  0  0  0
  1 30  2  0  0  0
  1 82  1  0  0  0
  2  3  1  0  0  0
  2 25  1  0  0  0
  2 86  1  0  0  0
  2 87  1  0  0  0
  3  4  1  0  0  0
  3 88  1  0  0  0
  3 89  1  0  0  0
  4  5  1  0  0  0
  4 90  1  0  0  0
  4 91  1  0  0  0
  5  6  1  0  0  0
  5 26  1  0  0  0
  5 92  1  0  0  0
  6 25  1  0  0  0
  6 93  1  0  0  0
  6 94  1  0  0  0
  7  8  2  0  0  0
  7 26  1  0  0  0
  7 29  1  0  0  0
  8  9  1  0  0  0
  8 22  1  0  0  0
  9 10  1  0  0  0
  9 27  2  0  0  0
 10 11  2  0  0  0
 10 15  1  0  0  0
 11 12  1  0  0  0
 11 95  1  0  0  0
 12 13  2  0  0  0
 12 96  1  0  0  0
 13 14  1  0  0  0
 13 31  1  0  0  0
 14 15  2  0  0  0
 14 97  1  0  0  0
 15 98  1  0  0  0
 16 17  2  0  0  0
 16 21  1  0  0  0
 16 31  1  0  0  0
 17 18  1  0  0  0
 17 99  1  0  0  0
 18 19  2  0  0  0
 18100  1  0  0  0
 19 20  1  0  0  0
 19 24  1  0  0  0
 20 21  2  0  0  0
 20101  1  0  0  0
 21 23  1  0  0  0
 22 28  1  0  0  0
 22 32  2  0  0  0
 26 27  1  0  0  0
 28102  1  0  0  0
 28103  1  0  0  0
 29104  1  0  0  0
 29105  1  0  0  0
 33 34  1  0  0  0
 33 66  1  0  0  0
 33 70  2  0  0  0
 34 36  1  0  0  0
 34 59  1  0  0  0
 34106  1  0  0  0
 35 44  2  0  0  0
 35 45  1  0  0  0
 35 68  1  0  0  0
 36 56  1  0  0  0
 36107  1  0  0  0
 37 39  1  0  0  0
 37 47  1  0  0  0
 37 66  1  0  0  0
 37108  1  0  0  0
 38 43  2  0  0  0
 38 46  1  0  0  0
 38 47  1  0  0  0
 39 64  1  0  0  0
 39 67  2  0  0  0
 40 52  1  0  0  0
 40 53  2  0  0  0
 40 58  1  0  0  0
 41109  1  0  0  0
 41110  1  0  0  0
 41111  1  0  0  0
 41 48  1  0  0  0
 42 43  1  0  0  0
 42 66  1  0  0  0
 42112  1  0  0  0
 42113  1  0  0  0
 43 44  1  0  0  0
 44114  1  0  0  0
 45 46  2  0  0  0
 45115  1  0  0  0
 46116  1  0  0  0
 47117  1  0  0  0
 47118  1  0  0  0
 48 56  1  0  0  0
 48 65  1  0  0  0
 48119  1  0  0  0
 49 50  1  0  0  0
 49 53  1  0  0  0
 49 64  1  0  0  0
 49120  1  0  0  0
 50 51  1  0  0  0
 50121  1  0  0  0
 50122  1  0  0  0
 51 52  1  0  0  0
 51123  1  0  0  0
 51124  1  0  0  0
 52125  1  0  0  0
 52126  1  0  0  0
 53 54  1  0  0  0
 54 55  2  0  0  0
 54127  1  0  0  0
 55 57  1  0  0  0
 55128  1  0  0  0
 56 69  2  0  0  0
 57 58  2  0  0  0
 57129  1  0  0  0
 58130  1  0  0  0
 59 60  1  0  0  0
 59 61  1  0  0  0
 59 62  1  0  0  0
 60131  1  0  0  0
 60132  1  0  0  0
 60133  1  0  0  0
 61134  1  0  0  0
 61135  1  0  0  0
 61136  1  0  0  0
 62137  1  0  0  0
 62138  1  0  0  0
 62139  1  0  0  0
 63 65  1  0  0  0
 63140  1  0  0  0
 63141  1  0  0  0
 63142  1  0  0  0
 64143  1  0  0  0
 65144  1  0  0  0
 68 80  1  0  0  0
 71 73  2  0  0  0
 71 75  1  0  0  0
 71145  1  0  0  0
 72 74  1  0  0  0
 72 75  2  0  0  0
 72146  1  0  0  0
 73 76  1  0  0  0
 73147  1  0  0  0
 74 76  2  0  0  0
 74148  1  0  0  0
 75 77  1  0  0  0
 76 82  1  0  0  0
 77 83  1  0  0  0
 77 84  2  0  0  0
 78 79  1  0  0  0
 78 81  1  0  0  0
 78 85  2  0  0  0
 79149  1  0  0  0
 79150  1  0  0  0
 79151  1  0  0  0
 80152  1  0  0  0
 80153  1  0  0  0
 80 81  1  0  0  0
 81 83  1  0  0  0
 81154  1  0  0  0
 82155  1  0  0  0
 83156  1  0  0  0
M  ISO  4   1 100  68 101  80 101  82 100
M  END
> <chiral flag>
0

> <version>
0

> <s_m_source_file>
/data/baiqing/PycharmProjects/Reinvent-master-3.2/result/LINK_invent/BTK/process_docking_weight1_custom_product_contain_oxygen_bond_distance_aromatic_linkinvent_7_9_3/rearranged_h_0077.sdf

> <i_m_source_file_index>
70

> <r_mmod_Potential_Energy-OPLS-2005>
-47.0824851989746

> <r_mmod_Stretch_Energy-OPLS-2005>
85.0049285888672

> <r_mmod_Bend_Energy-OPLS-2005>
140.341445922852

> <r_mmod_Torsional_Energy-OPLS-2005>
270.682678222656

> <r_mmod_Improper_Torsional_Energy-OPLS-2005>
7.10010290145874

> <r_mmod_Van_der_Waal_Energy-OPLS-2005>
137.487915039062

> <r_mmod_Electrostatic_Energy-OPLS-2005>
-495.570556640625

> <r_mmod_Solvation_Energy-OPLS-2005>
-244.133575439453

> <b_mmod_Minimization_Converged-OPLS-2005>
0

> <r_mmod_RMS_Derivative-OPLS-2005>
0.896015465259552

$$$$
70
                    3D
 Structure written by MMmdl.
151158  0  0  1  0            999 V2000
  -30.4041  -15.3145   20.3603 C   0  0  0  0  0  0
  -30.4343  -12.8425   19.5093 C   0  0  0  0  0  0
  -29.5325  -12.6062   18.2709 C   0  0  0  0  0  0
  -28.0811  -12.3149   18.6967 C   0  0  0  0  0  0
  -27.6074  -13.2811   19.8123 C   0  0  2  0  0  0
  -28.6420  -13.4638   20.9423 C   0  0  0  0  0  0
  -25.2385  -13.8258   20.5710 C   0  0  0  0  0  0
  -24.1752  -13.0443   20.9245 C   0  0  0  0  0  0
  -24.6395  -11.6938   20.8704 C   0  0  0  0  0  0
  -23.9100  -10.4301   21.0374 C   0  0  0  0  0  0
  -24.3654   -9.4229   21.9164 C   0  0  0  0  0  0
  -23.6330   -8.2259   22.0741 C   0  0  0  0  0  0
  -22.4311   -8.0284   21.3535 C   0  0  0  0  0  0
  -21.9950   -9.0243   20.4630 C   0  0  0  0  0  0
  -22.7259  -10.2126   20.3032 C   0  0  0  0  0  0
  -21.6886   -6.0739   22.5273 C   0  0  0  0  0  0
  -21.4018   -6.5628   23.8194 C   0  0  0  0  0  0
  -21.3663   -5.6783   24.9158 C   0  0  0  0  0  0
  -21.6061   -4.3042   24.7210 C   0  0  0  0  0  0
  -21.8819   -3.8135   23.4330 C   0  0  0  0  0  0
  -21.9203   -4.6957   22.3384 C   0  0  0  0  0  0
  -22.7766  -13.5191   21.1909 C   0  0  0  0  0  0
  -22.1678   -4.2146   21.0970 F   0  0  0  0  0  0
  -21.5653   -3.4529   25.7722 F   0  0  0  0  0  0
  -29.8616  -13.9926   20.3077 N   0  0  0  0  0  0
  -26.2805  -12.9531   20.3152 N   0  0  0  0  0  0
  -25.9332  -11.6632   20.5644 N   0  0  0  0  0  0
  -22.0468  -12.8110   22.0442 N   0  0  0  0  0  0
  -25.4038  -15.1999   20.4131 N   0  0  0  0  0  0
  -31.6344  -15.3187   20.1999 O   0  0  0  0  0  0
  -21.6680   -6.8883   21.4236 O   0  0  0  0  0  0
  -22.3428  -14.5492   20.6765 O   0  0  0  0  0  0
  -24.6661  -31.8201   23.1655 C   0  0  0  0  0  0
  -25.9326  -32.4573   23.8139 C   0  0  1  0  0  0
  -27.2094  -26.8791   20.1942 C   0  0  0  0  0  0
  -25.5994  -33.8381   24.2052 N   0  0  0  0  0  0
  -23.4832  -30.4302   21.5175 C   0  0  2  0  0  0
  -24.9355  -28.8053   20.1198 C   0  0  0  0  0  0
  -22.7666  -29.4457   22.4767 C   0  0  0  0  0  0
  -18.0338  -28.1428   22.8468 C   0  0  0  0  0  0
  -24.1521  -36.7186   23.2642 C   0  0  0  0  0  0
  -26.0557  -30.6064   21.4065 C   0  0  0  0  0  0
  -26.1217  -29.1898   20.7589 C   0  0  0  0  0  0
  -27.2547  -28.2481   20.7730 C   0  0  0  0  0  0
  -25.9975  -26.6645   19.5018 C   0  0  0  0  0  0
  -24.9005  -27.5627   19.4717 C   0  0  0  0  0  0
  -23.7248  -29.7382   20.1488 C   0  0  0  0  0  0
  -25.4156  -36.2932   24.0282 C   0  0  1  0  0  0
  -20.5951  -28.3780   23.1166 C   0  0  2  0  0  0
  -20.6813  -26.9459   22.5399 C   0  0  0  0  0  0
  -19.5793  -26.6393   21.5213 C   0  0  0  0  0  0
  -18.1972  -26.7968   22.1616 C   0  0  0  0  0  0
  -19.1593  -28.8919   23.2816 C   0  0  0  0  0  0
  -18.9511  -30.1497   23.8883 C   0  0  0  0  0  0
  -17.6503  -30.6617   24.0553 C   0  0  0  0  0  0
  -25.9116  -34.9332   23.4983 C   0  0  0  0  0  0
  -16.5392  -29.9106   23.6345 C   0  0  0  0  0  0
  -16.7319  -28.6514   23.0389 C   0  0  0  0  0  0
  -26.4578  -31.6504   25.0668 C   0  0  0  0  0  0
  -25.3698  -31.3757   26.1312 C   0  0  0  0  0  0
  -27.0439  -30.2848   24.6416 C   0  0  0  0  0  0
  -27.6096  -32.4282   25.7487 C   0  0  0  0  0  0
  -27.5569  -37.1750   24.8454 C   0  0  0  0  0  0
  -21.4332  -29.3065   22.3481 N   0  0  0  0  0  0
  -26.4296  -37.3658   23.9375 N   0  0  0  0  0  0
  -24.7580  -30.9790   22.0848 N   0  0  0  0  0  0
  -23.4186  -28.8017   23.3024 O   0  0  0  0  0  0
  -28.1924  -25.7356   20.1785 O   0  0  0  0  0  0
  -26.5731  -34.8868   22.4588 O   0  0  0  0  0  0
  -23.5721  -32.1242   23.6684 O   0  0  0  0  0  0
  -28.6641  -21.4595   20.6425 C   0  0  0  0  0  0
  -28.0416  -24.2933   20.6310 C   0  0  0  0  0  0
  -28.0144  -19.6129   18.8823 C   0  0  0  0  0  0
  -26.7220  -25.1565   22.6304 C   0  0  0  0  0  0
  -29.7290  -18.2753   20.5413 C   0  0  0  0  0  0
  -29.1398  -19.9139   19.9002 C   0  0  2  0  0  0
  -28.6376  -23.0205   20.0871 N   0  0  0  0  0  0
  -29.6038  -16.5803   20.4005 N   0  0  0  0  0  0
  -27.3210  -24.1370   21.7641 N   0  3  0  0  0  0
  -28.2063  -21.3475   21.7863 O   0  0  0  0  0  0
  -31.4520  -13.0529   19.1802 H   0  0  0  0  0  0
  -30.5024  -11.9358   20.1128 H   0  0  0  0  0  0
  -29.9191  -11.7878   17.6628 H   0  0  0  0  0  0
  -29.5522  -13.4940   17.6350 H   0  0  0  0  0  0
  -28.0358  -11.2864   19.0527 H   0  0  0  0  0  0
  -27.4154  -12.3700   17.8351 H   0  0  0  0  0  0
  -27.5169  -14.2475   19.3134 H   0  0  0  0  0  0
  -28.8233  -12.5271   21.4736 H   0  0  0  0  0  0
  -28.2720  -14.1728   21.6829 H   0  0  0  0  0  0
  -25.2815   -9.5724   22.4711 H   0  0  0  0  0  0
  -24.0057   -7.4671   22.7459 H   0  0  0  0  0  0
  -21.0884   -8.8740   19.8938 H   0  0  0  0  0  0
  -22.3717  -10.9649   19.6121 H   0  0  0  0  0  0
  -21.2002   -7.6139   23.9701 H   0  0  0  0  0  0
  -21.1506   -6.0512   25.9067 H   0  0  0  0  0  0
  -22.0605   -2.7599   23.2826 H   0  0  0  0  0  0
  -22.4110  -11.9772   22.4796 H   0  0  0  0  0  0
  -21.1085  -13.1072   22.2680 H   0  0  0  0  0  0
  -24.6417  -15.8565   20.5354 H   0  0  0  0  0  0
  -26.2310  -15.6267   20.0168 H   0  0  0  0  0  0
  -26.7388  -32.5108   23.0842 H   0  0  0  0  0  0
  -25.0022  -33.9475   25.0113 H   0  0  0  0  0  0
  -22.8004  -31.2645   21.3356 H   0  0  0  0  0  0
  -23.3783  -35.9520   23.3298 H   0  0  0  0  0  0
  -24.3577  -36.8841   22.2055 H   0  0  0  0  0  0
  -23.7301  -37.6375   23.6718 H   0  0  0  0  0  0
  -26.2303  -31.3394   20.6187 H   0  0  0  0  0  0
  -26.9172  -30.6733   22.0591 H   0  0  0  0  0  0
  -28.1535  -28.5364   21.2985 H   0  0  0  0  0  0
  -25.8703  -25.7213   18.9913 H   0  0  0  0  0  0
  -24.0039  -27.2603   18.9474 H   0  0  0  0  0  0
  -23.8804  -30.5003   19.3851 H   0  0  0  0  0  0
  -22.8373  -29.1890   19.8322 H   0  0  0  0  0  0
  -25.1369  -36.1724   25.0773 H   0  0  0  0  0  0
  -21.0069  -28.3440   24.1276 H   0  0  0  0  0  0
  -20.5699  -26.2421   23.3652 H   0  0  0  0  0  0
  -21.6677  -26.7453   22.1192 H   0  0  0  0  0  0
  -19.6953  -25.6295   21.1283 H   0  0  0  0  0  0
  -19.6731  -27.3179   20.6719 H   0  0  0  0  0  0
  -17.4234  -26.6722   21.4036 H   0  0  0  0  0  0
  -18.0379  -26.0133   22.9032 H   0  0  0  0  0  0
  -19.7978  -30.7307   24.2286 H   0  0  0  0  0  0
  -17.5056  -31.6309   24.5133 H   0  0  0  0  0  0
  -15.5391  -30.3002   23.7677 H   0  0  0  0  0  0
  -15.8719  -28.0795   22.7166 H   0  0  0  0  0  0
  -24.5951  -30.7038   25.7594 H   0  0  0  0  0  0
  -24.8832  -32.2965   26.4553 H   0  0  0  0  0  0
  -25.7942  -30.9047   27.0190 H   0  0  0  0  0  0
  -26.3074  -29.6540   24.1439 H   0  0  0  0  0  0
  -27.3936  -29.7200   25.5061 H   0  0  0  0  0  0
  -27.9052  -30.3964   23.9829 H   0  0  0  0  0  0
  -27.2699  -33.3627   26.1958 H   0  0  0  0  0  0
  -28.4005  -32.6751   25.0391 H   0  0  0  0  0  0
  -28.0671  -31.8464   26.5501 H   0  0  0  0  0  0
  -28.2554  -38.0068   24.7464 H   0  0  0  0  0  0
  -28.1102  -36.2584   24.6354 H   0  0  0  0  0  0
  -27.2261  -37.1451   25.8848 H   0  0  0  0  0  0
  -20.9589  -29.8709   21.6553 H   0  0  0  0  0  0
  -26.0147  -38.2713   24.1376 H   0  0  0  0  0  0
  -27.7466  -20.4984   18.2984 H   0  0  0  0  0  0
  -27.1078  -19.2798   19.3897 H   0  0  0  0  0  0
  -28.2959  -18.8355   18.1707 H   0  0  0  0  0  0
  -26.4815  -24.7213   23.6018 H   0  0  0  0  0  0
  -25.7964  -25.5383   22.2015 H   0  0  0  0  0  0
  -27.4087  -25.9868   22.7914 H   0  0  0  0  0  0
  -30.1094  -18.1179   19.5314 H   0  0  0  0  0  0
  -28.6971  -18.1260   20.8595 H   0  0  0  0  0  0
  -29.9856  -20.2589   19.3025 H   0  0  0  0  0  0
  -29.0678  -23.2094   19.1952 H   0  0  0  0  0  0
  -28.6304  -16.3133   20.4341 H   0  0  0  0  0  0
  -27.2460  -23.1879   22.1106 H   0  0  0  0  0  0
  1 25  1  0  0  0
  1 30  2  0  0  0
  1 78  1  0  0  0
  2  3  1  0  0  0
  2 25  1  0  0  0
  2 81  1  0  0  0
  2 82  1  0  0  0
  3  4  1  0  0  0
  3 83  1  0  0  0
  3 84  1  0  0  0
  4  5  1  0  0  0
  4 85  1  0  0  0
  4 86  1  0  0  0
  5  6  1  0  0  0
  5 26  1  0  0  0
  5 87  1  0  0  0
  6 25  1  0  0  0
  6 88  1  0  0  0
  6 89  1  0  0  0
  7  8  2  0  0  0
  7 26  1  0  0  0
  7 29  1  0  0  0
  8  9  1  0  0  0
  8 22  1  0  0  0
  9 10  1  0  0  0
  9 27  2  0  0  0
 10 11  2  0  0  0
 10 15  1  0  0  0
 11 12  1  0  0  0
 11 90  1  0  0  0
 12 13  2  0  0  0
 12 91  1  0  0  0
 13 14  1  0  0  0
 13 31  1  0  0  0
 14 15  2  0  0  0
 14 92  1  0  0  0
 15 93  1  0  0  0
 16 17  2  0  0  0
 16 21  1  0  0  0
 16 31  1  0  0  0
 17 18  1  0  0  0
 17 94  1  0  0  0
 18 19  2  0  0  0
 18 95  1  0  0  0
 19 20  1  0  0  0
 19 24  1  0  0  0
 20 21  2  0  0  0
 20 96  1  0  0  0
 21 23  1  0  0  0
 22 28  1  0  0  0
 22 32  2  0  0  0
 26 27  1  0  0  0
 28 97  1  0  0  0
 28 98  1  0  0  0
 29 99  1  0  0  0
 29100  1  0  0  0
 33 34  1  0  0  0
 33 66  1  0  0  0
 33 70  2  0  0  0
 34 36  1  0  0  0
 34 59  1  0  0  0
 34101  1  0  0  0
 35 44  2  0  0  0
 35 45  1  0  0  0
 35 68  1  0  0  0
 36 56  1  0  0  0
 36102  1  0  0  0
 37 39  1  0  0  0
 37 47  1  0  0  0
 37 66  1  0  0  0
 37103  1  0  0  0
 38 43  2  0  0  0
 38 46  1  0  0  0
 38 47  1  0  0  0
 39 64  1  0  0  0
 39 67  2  0  0  0
 40 52  1  0  0  0
 40 53  2  0  0  0
 40 58  1  0  0  0
 41104  1  0  0  0
 41105  1  0  0  0
 41106  1  0  0  0
 41 48  1  0  0  0
 42 43  1  0  0  0
 42 66  1  0  0  0
 42107  1  0  0  0
 42108  1  0  0  0
 43 44  1  0  0  0
 44109  1  0  0  0
 45 46  2  0  0  0
 45110  1  0  0  0
 46111  1  0  0  0
 47112  1  0  0  0
 47113  1  0  0  0
 48 56  1  0  0  0
 48 65  1  0  0  0
 48114  1  0  0  0
 49 50  1  0  0  0
 49 53  1  0  0  0
 49 64  1  0  0  0
 49115  1  0  0  0
 50 51  1  0  0  0
 50116  1  0  0  0
 50117  1  0  0  0
 51 52  1  0  0  0
 51118  1  0  0  0
 51119  1  0  0  0
 52120  1  0  0  0
 52121  1  0  0  0
 53 54  1  0  0  0
 54 55  2  0  0  0
 54122  1  0  0  0
 55 57  1  0  0  0
 55123  1  0  0  0
 56 69  2  0  0  0
 57 58  2  0  0  0
 57124  1  0  0  0
 58125  1  0  0  0
 59 60  1  0  0  0
 59 61  1  0  0  0
 59 62  1  0  0  0
 60126  1  0  0  0
 60127  1  0  0  0
 60128  1  0  0  0
 61129  1  0  0  0
 61130  1  0  0  0
 61131  1  0  0  0
 62132  1  0  0  0
 62133  1  0  0  0
 62134  1  0  0  0
 63 65  1  0  0  0
 63135  1  0  0  0
 63136  1  0  0  0
 63137  1  0  0  0
 64138  1  0  0  0
 65139  1  0  0  0
 68 72  1  0  0  0
 71 76  1  0  0  0
 71 77  1  0  0  0
 71 80  2  0  0  0
 72 77  1  0  0  0
 72 79  2  0  0  0
 73140  1  0  0  0
 73141  1  0  0  0
 73142  1  0  0  0
 73 76  1  0  0  0
 74 79  1  0  0  0
 74143  1  0  0  0
 74144  1  0  0  0
 74145  1  0  0  0
 75 76  1  0  0  0
 75 78  1  0  0  0
 75146  1  0  0  0
 75147  1  0  0  0
 76148  1  0  0  0
 77149  1  0  0  0
 78150  1  0  0  0
 79151  1  0  0  0
M  CHG  1  79   1
M  ISO  4   1 100  68 101  72 101  78 100
M  END
> <chiral flag>
0

> <version>
0

> <s_m_source_file>
/data/baiqing/PycharmProjects/Reinvent-master-3.2/result/LINK_invent/BTK/process_docking_weight1_custom_product_contain_oxygen_bond_distance_aromatic_linkinvent_7_9_3/rearranged_h_0077.sdf

> <i_m_source_file_index>
71

> <r_mmod_Potential_Energy-OPLS-2005>
1464.92346191406

> <r_mmod_Stretch_Energy-OPLS-2005>
680.713684082031

> <r_mmod_Bend_Energy-OPLS-2005>
672.38134765625

> <r_mmod_Torsional_Energy-OPLS-2005>
233.913330078125

> <r_mmod_Improper_Torsional_Energy-OPLS-2005>
5.09504747390747

> <r_mmod_Van_der_Waal_Energy-OPLS-2005>
113.044921875

> <r_mmod_Electrostatic_Energy-OPLS-2005>
-312.64013671875

> <r_mmod_Solvation_Energy-OPLS-2005>
-449.383483886719

> <b_mmod_Minimization_Converged-OPLS-2005>
0

> <r_mmod_RMS_Derivative-OPLS-2005>
3.59226512908936

$$$$
71
                    3D
 Structure written by MMmdl.
160169  0  0  1  0            999 V2000
  -30.7343  -14.4889   20.6162 C   0  0  0  0  0  0
  -30.4155  -12.3375   19.4272 C   0  0  0  0  0  0
  -29.4907  -12.5293   18.2084 C   0  0  0  0  0  0
  -28.0164  -12.3667   18.6192 C   0  0  0  0  0  0
  -27.6562  -13.2143   19.8666 C   0  0  2  0  0  0
  -28.6940  -13.0218   20.9922 C   0  0  0  0  0  0
  -25.2570  -13.8182   20.5661 C   0  0  0  0  0  0
  -24.1830  -13.0451   20.9148 C   0  0  0  0  0  0
  -24.6396  -11.6921   20.8707 C   0  0  0  0  0  0
  -23.9058  -10.4314   21.0396 C   0  0  0  0  0  0
  -24.3609   -9.4234   21.9178 C   0  0  0  0  0  0
  -23.6292   -8.2263   22.0747 C   0  0  0  0  0  0
  -22.4279   -8.0295   21.3536 C   0  0  0  0  0  0
  -21.9909   -9.0265   20.4639 C   0  0  0  0  0  0
  -22.7227  -10.2153   20.3048 C   0  0  0  0  0  0
  -21.6856   -6.0740   22.5257 C   0  0  0  0  0  0
  -21.4009   -6.5633   23.8191 C   0  0  0  0  0  0
  -21.3670   -5.6791   24.9153 C   0  0  0  0  0  0
  -21.6057   -4.3056   24.7209 C   0  0  0  0  0  0
  -21.8816   -3.8146   23.4326 C   0  0  0  0  0  0
  -21.9191   -4.6967   22.3386 C   0  0  0  0  0  0
  -22.7865  -13.5255   21.1831 C   0  0  0  0  0  0
  -22.1664   -4.2150   21.0966 F   0  0  0  0  0  0
  -21.5644   -3.4547   25.7727 F   0  0  0  0  0  0
  -30.0292  -13.3283   20.4493 N   0  0  0  0  0  0
  -26.2996  -12.9359   20.3311 N   0  0  0  0  0  0
  -25.9319  -11.6512   20.5715 N   0  0  0  0  0  0
  -22.0533  -12.8230   22.0399 N   0  0  0  0  0  0
  -25.4290  -15.1902   20.4113 N   0  0  0  0  0  0
  -31.8219  -14.6756   20.0607 O   0  0  0  0  0  0
  -21.6635   -6.8897   21.4230 O   0  0  0  0  0  0
  -22.3550  -14.5569   20.6702 O   0  0  0  0  0  0
  -24.6173  -31.8657   23.2062 C   0  0  0  0  0  0
  -25.9051  -32.4812   23.8374 C   0  0  1  0  0  0
  -27.2368  -27.4051   20.1073 C   0  0  0  0  0  0
  -25.5895  -33.8613   24.2305 N   0  0  0  0  0  0
  -23.4057  -30.4868   21.5479 C   0  0  2  0  0  0
  -24.8535  -28.9460   20.1156 C   0  0  0  0  0  0
  -22.7418  -29.4651   22.4984 C   0  0  0  0  0  0
  -18.0268  -28.1382   22.8486 C   0  0  0  0  0  0
  -24.1483  -36.7303   23.2638 C   0  0  0  0  0  0
  -25.9370  -30.8236   21.3612 C   0  0  0  0  0  0
  -26.0157  -29.4561   20.7076 C   0  0  0  0  0  0
  -27.2108  -28.6966   20.6911 C   0  0  0  0  0  0
  -26.0559  -26.9162   19.5053 C   0  0  0  0  0  0
  -24.8707  -27.6775   19.5097 C   0  0  0  0  0  0
  -23.6157  -29.8155   20.1646 C   0  0  0  0  0  0
  -25.4106  -36.3105   24.0333 C   0  0  1  0  0  0
  -20.5864  -28.3674   23.1310 C   0  0  2  0  0  0
  -20.6762  -26.9404   22.5420 C   0  0  0  0  0  0
  -19.5743  -26.6388   21.5206 C   0  0  0  0  0  0
  -18.1917  -26.7932   22.1612 C   0  0  0  0  0  0
  -19.1521  -28.8839   23.2902 C   0  0  0  0  0  0
  -18.9452  -30.1444   23.8916 C   0  0  0  0  0  0
  -17.6457  -30.6589   24.0566 C   0  0  0  0  0  0
  -25.9036  -34.9472   23.5118 C   0  0  0  0  0  0
  -16.5345  -29.9093   23.6331 C   0  0  0  0  0  0
  -16.7260  -28.6510   23.0351 C   0  0  0  0  0  0
  -26.4471  -31.6598   25.0713 C   0  0  0  0  0  0
  -25.3728  -31.3707   26.1457 C   0  0  0  0  0  0
  -27.0307  -30.3036   24.6106 C   0  0  0  0  0  0
  -27.6044  -32.4328   25.7480 C   0  0  0  0  0  0
  -27.5580  -37.1804   24.8461 C   0  0  0  0  0  0
  -21.4144  -29.3038   22.3719 N   0  0  0  0  0  0
  -26.4288  -37.3794   23.9411 N   0  0  0  0  0  0
  -24.6717  -31.0738   22.0970 N   0  0  0  0  0  0
  -23.4174  -28.8202   23.3048 O   0  0  0  0  0  0
  -28.4050  -26.6610   20.1271 O   0  0  0  0  0  0
  -26.5613  -34.8926   22.4690 O   0  0  0  0  0  0
  -23.5360  -32.1422   23.7440 O   0  0  0  0  0  0
  -29.6747  -19.2735   21.2231 C   0  0  0  0  0  0
  -29.5386  -18.3962   18.9838 C   0  0  0  0  0  0
  -29.8844  -17.9582   21.7124 C   0  0  0  0  0  0
  -29.7508  -17.0845   19.4710 C   0  0  0  0  0  0
  -29.4925  -19.5323   19.8401 C   0  0  0  0  0  0
  -29.9394  -16.8266   20.8508 C   0  0  0  0  0  0
  -28.9138  -23.1185   18.8876 C   0  0  0  0  0  0
  -29.1773  -22.5005   17.6192 C   0  0  0  0  0  0
  -29.0097  -22.0591   19.9056 C   0  0  0  0  0  0
  -29.2634  -23.1144   16.4244 C   0  0  0  0  0  0
  -28.6042  -24.4364   19.0599 C   0  0  0  0  0  0
  -29.3778  -21.0361   17.8213 C   0  0  0  0  0  0
  -30.2255  -15.2927   22.8201 C   0  0  0  0  0  0
  -28.3120  -25.2286   20.3314 C   0  0  0  0  0  0
  -29.2940  -20.8658   19.2771 N   0  0  0  0  0  0
  -30.1679  -15.4809   21.3640 N   0  0  0  0  0  0
  -28.8433  -22.2113   21.1204 O   0  0  0  0  0  0
  -31.4596  -12.4276   19.1236 H   0  0  0  0  0  0
  -30.3106  -11.3274   19.8262 H   0  0  0  0  0  0
  -29.7428  -11.8129   17.4260 H   0  0  0  0  0  0
  -29.6433  -13.5210   17.7784 H   0  0  0  0  0  0
  -27.8446  -11.3095   18.8232 H   0  0  0  0  0  0
  -27.3629  -12.6238   17.7841 H   0  0  0  0  0  0
  -27.6938  -14.2602   19.5614 H   0  0  0  0  0  0
  -28.6773  -11.9940   21.3570 H   0  0  0  0  0  0
  -28.4228  -13.6401   21.8468 H   0  0  0  0  0  0
  -25.2764   -9.5710   22.4748 H   0  0  0  0  0  0
  -24.0004   -7.4655   22.7470 H   0  0  0  0  0  0
  -21.0840   -8.8774   19.8957 H   0  0  0  0  0  0
  -22.3672  -10.9685   19.6153 H   0  0  0  0  0  0
  -21.1977   -7.6136   23.9683 H   0  0  0  0  0  0
  -21.1516   -6.0530   25.9057 H   0  0  0  0  0  0
  -22.0592   -2.7612   23.2812 H   0  0  0  0  0  0
  -22.4160  -11.9867   22.4732 H   0  0  0  0  0  0
  -21.1158  -13.1251   22.2616 H   0  0  0  0  0  0
  -24.6690  -15.8518   20.5265 H   0  0  0  0  0  0
  -26.2963  -15.6330   20.1359 H   0  0  0  0  0  0
  -26.7125  -32.5509   23.1142 H   0  0  0  0  0  0
  -25.0031  -33.9772   25.0442 H   0  0  0  0  0  0
  -22.6950  -31.3035   21.4053 H   0  0  0  0  0  0
  -23.3748  -35.9631   23.3298 H   0  0  0  0  0  0
  -24.3575  -36.8924   22.2054 H   0  0  0  0  0  0
  -23.7227  -37.6502   23.6661 H   0  0  0  0  0  0
  -26.0507  -31.5892   20.5929 H   0  0  0  0  0  0
  -26.8238  -30.8788   21.9808 H   0  0  0  0  0  0
  -28.1094  -29.0884   21.1465 H   0  0  0  0  0  0
  -26.0432  -25.9460   19.0293 H   0  0  0  0  0  0
  -23.9773  -27.2768   19.0504 H   0  0  0  0  0  0
  -23.7244  -30.5883   19.4032 H   0  0  0  0  0  0
  -22.7392  -29.2358   19.8710 H   0  0  0  0  0  0
  -25.1284  -36.1970   25.0828 H   0  0  0  0  0  0
  -20.9944  -28.3244   24.1435 H   0  0  0  0  0  0
  -20.5653  -26.2281   23.3610 H   0  0  0  0  0  0
  -21.6636  -26.7444   22.1222 H   0  0  0  0  0  0
  -19.6911  -25.6304   21.1224 H   0  0  0  0  0  0
  -19.6689  -27.3206   20.6740 H   0  0  0  0  0  0
  -17.4196  -26.6689   21.4011 H   0  0  0  0  0  0
  -18.0311  -26.0066   22.8999 H   0  0  0  0  0  0
  -19.7930  -30.7255   24.2298 H   0  0  0  0  0  0
  -17.5012  -31.6269   24.5165 H   0  0  0  0  0  0
  -15.5349  -30.3003   23.7646 H   0  0  0  0  0  0
  -15.8658  -28.0830   22.7063 H   0  0  0  0  0  0
  -24.5908  -30.7051   25.7785 H   0  0  0  0  0  0
  -24.8908  -32.2859   26.4906 H   0  0  0  0  0  0
  -25.8073  -30.8876   27.0214 H   0  0  0  0  0  0
  -26.2860  -29.6799   24.1145 H   0  0  0  0  0  0
  -27.4054  -29.7284   25.4581 H   0  0  0  0  0  0
  -27.8700  -30.4352   23.9271 H   0  0  0  0  0  0
  -27.2653  -33.3609   26.2094 H   0  0  0  0  0  0
  -28.3832  -32.6920   25.0296 H   0  0  0  0  0  0
  -28.0734  -31.8430   26.5367 H   0  0  0  0  0  0
  -28.2599  -38.0105   24.7524 H   0  0  0  0  0  0
  -28.1080  -36.2639   24.6269 H   0  0  0  0  0  0
  -27.2305  -37.1436   25.8867 H   0  0  0  0  0  0
  -20.9311  -29.8744   21.6923 H   0  0  0  0  0  0
  -26.0173  -38.2868   24.1428 H   0  0  0  0  0  0
  -29.6744  -20.0776   21.9436 H   0  0  0  0  0  0
  -29.4120  -18.4954   17.9158 H   0  0  0  0  0  0
  -30.0228  -17.8499   22.7773 H   0  0  0  0  0  0
  -29.7729  -16.2775   18.7524 H   0  0  0  0  0  0
  -29.1269  -24.1787   16.3003 H   0  0  0  0  0  0
  -29.4821  -22.5475   15.5312 H   0  0  0  0  0  0
  -28.5422  -25.0537   18.1781 H   0  0  0  0  0  0
  -30.3512  -20.7218   17.4422 H   0  0  0  0  0  0
  -28.5883  -20.4850   17.3083 H   0  0  0  0  0  0
  -31.0631  -15.8481   23.2450 H   0  0  0  0  0  0
  -30.3536  -14.2486   23.1163 H   0  0  0  0  0  0
  -29.3031  -15.6445   23.2839 H   0  0  0  0  0  0
  -29.0541  -24.9565   21.0827 H   0  0  0  0  0  0
  -27.3453  -24.9284   20.7385 H   0  0  0  0  0  0
  1 25  1  0  0  0
  1 30  2  0  0  0
  1 86  1  0  0  0
  2  3  1  0  0  0
  2 25  1  0  0  0
  2 88  1  0  0  0
  2 89  1  0  0  0
  3  4  1  0  0  0
  3 90  1  0  0  0
  3 91  1  0  0  0
  4  5  1  0  0  0
  4 92  1  0  0  0
  4 93  1  0  0  0
  5  6  1  0  0  0
  5 26  1  0  0  0
  5 94  1  0  0  0
  6 25  1  0  0  0
  6 95  1  0  0  0
  6 96  1  0  0  0
  7  8  2  0  0  0
  7 26  1  0  0  0
  7 29  1  0  0  0
  8  9  1  0  0  0
  8 22  1  0  0  0
  9 10  1  0  0  0
  9 27  2  0  0  0
 10 11  2  0  0  0
 10 15  1  0  0  0
 11 12  1  0  0  0
 11 97  1  0  0  0
 12 13  2  0  0  0
 12 98  1  0  0  0
 13 14  1  0  0  0
 13 31  1  0  0  0
 14 15  2  0  0  0
 14 99  1  0  0  0
 15100  1  0  0  0
 16 17  2  0  0  0
 16 21  1  0  0  0
 16 31  1  0  0  0
 17 18  1  0  0  0
 17101  1  0  0  0
 18 19  2  0  0  0
 18102  1  0  0  0
 19 20  1  0  0  0
 19 24  1  0  0  0
 20 21  2  0  0  0
 20103  1  0  0  0
 21 23  1  0  0  0
 22 28  1  0  0  0
 22 32  2  0  0  0
 26 27  1  0  0  0
 28104  1  0  0  0
 28105  1  0  0  0
 29106  1  0  0  0
 29107  1  0  0  0
 33 34  1  0  0  0
 33 66  1  0  0  0
 33 70  2  0  0  0
 34 36  1  0  0  0
 34 59  1  0  0  0
 34108  1  0  0  0
 35 44  2  0  0  0
 35 45  1  0  0  0
 35 68  1  0  0  0
 36 56  1  0  0  0
 36109  1  0  0  0
 37 39  1  0  0  0
 37 47  1  0  0  0
 37 66  1  0  0  0
 37110  1  0  0  0
 38 43  2  0  0  0
 38 46  1  0  0  0
 38 47  1  0  0  0
 39 64  1  0  0  0
 39 67  2  0  0  0
 40 52  1  0  0  0
 40 53  2  0  0  0
 40 58  1  0  0  0
 41111  1  0  0  0
 41112  1  0  0  0
 41113  1  0  0  0
 41 48  1  0  0  0
 42 43  1  0  0  0
 42 66  1  0  0  0
 42114  1  0  0  0
 42115  1  0  0  0
 43 44  1  0  0  0
 44116  1  0  0  0
 45 46  2  0  0  0
 45117  1  0  0  0
 46118  1  0  0  0
 47119  1  0  0  0
 47120  1  0  0  0
 48 56  1  0  0  0
 48 65  1  0  0  0
 48121  1  0  0  0
 49 50  1  0  0  0
 49 53  1  0  0  0
 49 64  1  0  0  0
 49122  1  0  0  0
 50 51  1  0  0  0
 50123  1  0  0  0
 50124  1  0  0  0
 51 52  1  0  0  0
 51125  1  0  0  0
 51126  1  0  0  0
 52127  1  0  0  0
 52128  1  0  0  0
 53 54  1  0  0  0
 54 55  2  0  0  0
 54129  1  0  0  0
 55 57  1  0  0  0
 55130  1  0  0  0
 56 69  2  0  0  0
 57 58  2  0  0  0
 57131  1  0  0  0
 58132  1  0  0  0
 59 60  1  0  0  0
 59 61  1  0  0  0
 59 62  1  0  0  0
 60133  1  0  0  0
 60134  1  0  0  0
 60135  1  0  0  0
 61136  1  0  0  0
 61137  1  0  0  0
 61138  1  0  0  0
 62139  1  0  0  0
 62140  1  0  0  0
 62141  1  0  0  0
 63 65  1  0  0  0
 63142  1  0  0  0
 63143  1  0  0  0
 63144  1  0  0  0
 64145  1  0  0  0
 65146  1  0  0  0
 68 84  1  0  0  0
 71 73  2  0  0  0
 71 75  1  0  0  0
 71147  1  0  0  0
 72 74  1  0  0  0
 72 75  2  0  0  0
 72148  1  0  0  0
 73 76  1  0  0  0
 73149  1  0  0  0
 74 76  2  0  0  0
 74150  1  0  0  0
 75 85  1  0  0  0
 76 86  1  0  0  0
 77 78  1  0  0  0
 77 79  1  0  0  0
 77 81  2  0  0  0
 78 80  2  0  0  0
 78 82  1  0  0  0
 79 85  1  0  0  0
 79 87  2  0  0  0
 80151  1  0  0  0
 80152  1  0  0  0
 81 84  1  0  0  0
 81153  1  0  0  0
 82 85  1  0  0  0
 82154  1  0  0  0
 82155  1  0  0  0
 83 86  1  0  0  0
 83156  1  0  0  0
 83157  1  0  0  0
 83158  1  0  0  0
 84159  1  0  0  0
 84160  1  0  0  0
M  ISO  4   1 100  68 101  84 101  86 100
M  END
> <chiral flag>
0

> <version>
0

> <s_m_source_file>
/data/baiqing/PycharmProjects/Reinvent-master-3.2/result/LINK_invent/BTK/process_docking_weight1_custom_product_contain_oxygen_bond_distance_aromatic_linkinvent_7_9_3/rearranged_h_0077.sdf

> <i_m_source_file_index>
72

> <r_mmod_Potential_Energy-OPLS-2005>
260.285278320312

> <r_mmod_Stretch_Energy-OPLS-2005>
58.4334869384766

> <r_mmod_Bend_Energy-OPLS-2005>
168.677017211914

> <r_mmod_Torsional_Energy-OPLS-2005>
320.048828125

> <r_mmod_Improper_Torsional_Energy-OPLS-2005>
3.01450872421265

> <r_mmod_Van_der_Waal_Energy-OPLS-2005>
163.664352416992

> <r_mmod_Electrostatic_Energy-OPLS-2005>
-272.122406005859

> <r_mmod_Solvation_Energy-OPLS-2005>
-196.857803344727

> <b_mmod_Minimization_Converged-OPLS-2005>
0

> <r_mmod_RMS_Derivative-OPLS-2005>
1.76913118362427

$$$$
72
                    3D
 Structure written by MMmdl.
162171  0  0  1  0            999 V2000
  -30.6430  -14.6239   20.4793 C   0  0  0  0  0  0
  -30.4331  -12.3787   19.4561 C   0  0  0  0  0  0
  -29.5067  -12.5078   18.2273 C   0  0  0  0  0  0
  -28.0282  -12.3512   18.6372 C   0  0  0  0  0  0
  -27.6535  -13.2137   19.8698 C   0  0  2  0  0  0
  -28.6998  -13.0770   20.9998 C   0  0  0  0  0  0
  -25.2547  -13.8166   20.5692 C   0  0  0  0  0  0
  -24.1793  -13.0431   20.9164 C   0  0  0  0  0  0
  -24.6379  -11.6905   20.8719 C   0  0  0  0  0  0
  -23.9050  -10.4302   21.0404 C   0  0  0  0  0  0
  -24.3612   -9.4218   21.9190 C   0  0  0  0  0  0
  -23.6293   -8.2249   22.0756 C   0  0  0  0  0  0
  -22.4257   -8.0290   21.3567 C   0  0  0  0  0  0
  -21.9898   -9.0252   20.4666 C   0  0  0  0  0  0
  -22.7222  -10.2137   20.3063 C   0  0  0  0  0  0
  -21.6852   -6.0742   22.5275 C   0  0  0  0  0  0
  -21.4011   -6.5639   23.8212 C   0  0  0  0  0  0
  -21.3665   -5.6785   24.9171 C   0  0  0  0  0  0
  -21.6040   -4.3043   24.7222 C   0  0  0  0  0  0
  -21.8818   -3.8152   23.4333 C   0  0  0  0  0  0
  -21.9185   -4.6975   22.3394 C   0  0  0  0  0  0
  -22.7827  -13.5225   21.1843 C   0  0  0  0  0  0
  -22.1661   -4.2159   21.0975 F   0  0  0  0  0  0
  -21.5648   -3.4535   25.7742 F   0  0  0  0  0  0
  -30.0200  -13.4031   20.4369 N   0  0  0  0  0  0
  -26.2979  -12.9332   20.3349 N   0  0  0  0  0  0
  -25.9303  -11.6496   20.5732 N   0  0  0  0  0  0
  -22.0468  -12.8229   22.0412 N   0  0  0  0  0  0
  -25.4303  -15.1881   20.4139 N   0  0  0  0  0  0
  -31.7884  -14.7806   20.0489 O   0  0  0  0  0  0
  -21.6634   -6.8871   21.4233 O   0  0  0  0  0  0
  -22.3496  -14.5534   20.6697 O   0  0  0  0  0  0
  -24.6219  -31.8612   23.2047 C   0  0  0  0  0  0
  -25.9080  -32.4791   23.8365 C   0  0  1  0  0  0
  -27.2280  -27.3572   20.1080 C   0  0  0  0  0  0
  -25.5901  -33.8593   24.2282 N   0  0  0  0  0  0
  -23.4115  -30.4848   21.5465 C   0  0  2  0  0  0
  -24.8563  -28.9371   20.1120 C   0  0  0  0  0  0
  -22.7442  -29.4630   22.4967 C   0  0  0  0  0  0
  -18.0282  -28.1380   22.8491 C   0  0  0  0  0  0
  -24.1486  -36.7307   23.2637 C   0  0  0  0  0  0
  -25.9472  -30.8036   21.3659 C   0  0  0  0  0  0
  -26.0206  -29.4322   20.7110 C   0  0  0  0  0  0
  -27.2081  -28.6513   20.6990 C   0  0  0  0  0  0
  -26.0409  -26.8961   19.4951 C   0  0  0  0  0  0
  -24.8653  -27.6728   19.4984 C   0  0  0  0  0  0
  -23.6225  -29.8135   20.1626 C   0  0  0  0  0  0
  -25.4102  -36.3091   24.0332 C   0  0  1  0  0  0
  -20.5872  -28.3675   23.1303 C   0  0  2  0  0  0
  -20.6767  -26.9410   22.5412 C   0  0  0  0  0  0
  -19.5750  -26.6389   21.5205 C   0  0  0  0  0  0
  -18.1926  -26.7930   22.1614 C   0  0  0  0  0  0
  -19.1532  -28.8847   23.2895 C   0  0  0  0  0  0
  -18.9459  -30.1446   23.8914 C   0  0  0  0  0  0
  -17.6465  -30.6585   24.0561 C   0  0  0  0  0  0
  -25.9037  -34.9460   23.5113 C   0  0  0  0  0  0
  -16.5351  -29.9087   23.6324 C   0  0  0  0  0  0
  -16.7269  -28.6491   23.0355 C   0  0  0  0  0  0
  -26.4477  -31.6605   25.0734 C   0  0  0  0  0  0
  -25.3726  -31.3737   26.1480 C   0  0  0  0  0  0
  -27.0291  -30.3034   24.6149 C   0  0  0  0  0  0
  -27.6053  -32.4323   25.7490 C   0  0  0  0  0  0
  -27.5576  -37.1798   24.8451 C   0  0  0  0  0  0
  -21.4155  -29.3039   22.3708 N   0  0  0  0  0  0
  -26.4276  -37.3786   23.9415 N   0  0  0  0  0  0
  -24.6791  -31.0666   22.0968 N   0  0  0  0  0  0
  -23.4190  -28.8179   23.3030 O   0  0  0  0  0  0
  -28.3815  -26.5759   20.1414 O   0  0  0  0  0  0
  -26.5615  -34.8919   22.4682 O   0  0  0  0  0  0
  -23.5395  -32.1390   23.7406 O   0  0  0  0  0  0
  -28.7777  -19.2888   18.8125 C   0  0  0  0  0  0
  -29.9691  -18.2435   20.6744 C   0  0  0  0  0  0
  -28.9032  -16.8539   18.9838 C   0  0  0  0  0  0
  -29.5484  -19.4394   19.9854 C   0  0  0  0  0  0
  -28.4472  -18.0133   18.3235 C   0  0  0  0  0  0
  -29.6529  -16.9306   20.1797 C   0  0  0  0  0  0
  -29.9107  -23.1476   20.9346 C   0  0  0  0  0  0
  -31.1252  -22.9156   21.7230 C   0  0  0  0  0  0
  -29.2181  -21.9208   20.4391 C   0  0  0  0  0  0
  -31.4068  -23.6304   22.8286 C   0  0  0  0  0  0
  -29.4910  -24.4454   20.7550 C   0  0  0  0  0  0
  -32.0740  -21.8152   21.3153 C   0  0  0  0  0  0
  -31.4640  -20.9329   20.2283 C   0  0  0  0  0  0
  -28.2833  -25.1145   20.0701 C   0  0  0  0  0  0
  -30.0063  -20.7763   20.3419 N   0  0  0  0  0  0
  -27.6546  -17.9005   17.1826 N   0  0  0  0  0  0
  -29.9036  -15.6913   20.9045 N   0  0  0  0  0  0
  -28.0115  -21.9091   20.1731 O   0  0  0  0  0  0
  -31.4765  -12.4893   19.1582 H   0  0  0  0  0  0
  -30.3562  -11.3855   19.9010 H   0  0  0  0  0  0
  -29.7691  -11.7621   17.4770 H   0  0  0  0  0  0
  -29.6551  -13.4803   17.7547 H   0  0  0  0  0  0
  -27.8506  -11.2970   18.8573 H   0  0  0  0  0  0
  -27.3784  -12.5965   17.7975 H   0  0  0  0  0  0
  -27.6665  -14.2468   19.5341 H   0  0  0  0  0  0
  -28.7015  -12.0601   21.3958 H   0  0  0  0  0  0
  -28.4472  -13.7196   21.8419 H   0  0  0  0  0  0
  -25.2774   -9.5702   22.4742 H   0  0  0  0  0  0
  -24.0040   -7.4622   22.7440 H   0  0  0  0  0  0
  -21.0862   -8.8772   19.8942 H   0  0  0  0  0  0
  -22.3711  -10.9675   19.6159 H   0  0  0  0  0  0
  -21.2011   -7.6147   23.9713 H   0  0  0  0  0  0
  -21.1483   -6.0523   25.9071 H   0  0  0  0  0  0
  -22.0594   -2.7621   23.2825 H   0  0  0  0  0  0
  -22.4086  -11.9919   22.4841 H   0  0  0  0  0  0
  -21.1079  -13.1257   22.2580 H   0  0  0  0  0  0
  -24.6749  -15.8515   20.5413 H   0  0  0  0  0  0
  -26.2947  -15.6293   20.1267 H   0  0  0  0  0  0
  -26.7148  -32.5465   23.1115 H   0  0  0  0  0  0
  -25.0026  -33.9737   25.0415 H   0  0  0  0  0  0
  -22.7032  -31.3043   21.4038 H   0  0  0  0  0  0
  -23.3749  -35.9636   23.3280 H   0  0  0  0  0  0
  -24.3593  -36.8956   22.2057 H   0  0  0  0  0  0
  -23.7241  -37.6503   23.6679 H   0  0  0  0  0  0
  -26.0681  -31.5672   20.5961 H   0  0  0  0  0  0
  -26.8325  -30.8571   21.9883 H   0  0  0  0  0  0
  -28.1040  -29.0290   21.1701 H   0  0  0  0  0  0
  -26.0091  -25.9304   19.0113 H   0  0  0  0  0  0
  -23.9683  -27.2869   19.0321 H   0  0  0  0  0  0
  -23.7356  -30.5856   19.4009 H   0  0  0  0  0  0
  -22.7430  -29.2384   19.8676 H   0  0  0  0  0  0
  -25.1285  -36.1931   25.0824 H   0  0  0  0  0  0
  -20.9963  -28.3245   24.1423 H   0  0  0  0  0  0
  -20.5658  -26.2292   23.3604 H   0  0  0  0  0  0
  -21.6645  -26.7434   22.1222 H   0  0  0  0  0  0
  -19.6913  -25.6295   21.1252 H   0  0  0  0  0  0
  -19.6692  -27.3190   20.6725 H   0  0  0  0  0  0
  -17.4195  -26.6678   21.4012 H   0  0  0  0  0  0
  -18.0325  -26.0067   22.9008 H   0  0  0  0  0  0
  -19.7940  -30.7255   24.2304 H   0  0  0  0  0  0
  -17.5017  -31.6275   24.5154 H   0  0  0  0  0  0
  -15.5354  -30.2994   23.7632 H   0  0  0  0  0  0
  -15.8663  -28.0808   22.7084 H   0  0  0  0  0  0
  -24.5864  -30.7128   25.7819 H   0  0  0  0  0  0
  -24.8955  -32.2901   26.4959 H   0  0  0  0  0  0
  -25.8061  -30.8868   27.0224 H   0  0  0  0  0  0
  -26.2834  -29.6815   24.1180 H   0  0  0  0  0  0
  -27.4011  -29.7269   25.4630 H   0  0  0  0  0  0
  -27.8704  -30.4341   23.9339 H   0  0  0  0  0  0
  -27.2689  -33.3621   26.2084 H   0  0  0  0  0  0
  -28.3846  -32.6883   25.0305 H   0  0  0  0  0  0
  -28.0737  -31.8438   26.5387 H   0  0  0  0  0  0
  -28.2575  -38.0114   24.7525 H   0  0  0  0  0  0
  -28.1096  -36.2649   24.6231 H   0  0  0  0  0  0
  -27.2316  -37.1402   25.8861 H   0  0  0  0  0  0
  -20.9337  -29.8748   21.6905 H   0  0  0  0  0  0
  -26.0160  -38.2861   24.1430 H   0  0  0  0  0  0
  -28.4707  -20.1666   18.2610 H   0  0  0  0  0  0
  -30.5452  -18.3366   21.5841 H   0  0  0  0  0  0
  -28.6502  -15.8892   18.5738 H   0  0  0  0  0  0
  -30.7592  -24.4133   23.1964 H   0  0  0  0  0  0
  -32.3026  -23.4316   23.4008 H   0  0  0  0  0  0
  -30.1288  -25.2062   21.1793 H   0  0  0  0  0  0
  -32.3042  -21.2015   22.1888 H   0  0  0  0  0  0
  -33.0158  -22.2446   20.9700 H   0  0  0  0  0  0
  -31.9820  -19.9746   20.1926 H   0  0  0  0  0  0
  -31.6477  -21.3952   19.2560 H   0  0  0  0  0  0
  -27.3804  -24.7614   20.5711 H   0  0  0  0  0  0
  -28.2325  -24.7955   19.0281 H   0  0  0  0  0  0
  -27.0491  -18.6859   16.9608 H   0  0  0  0  0  0
  -27.1808  -17.0164   17.0314 H   0  0  0  0  0  0
  -29.1060  -15.3945   21.4455 H   0  0  0  0  0  0
  1 25  1  0  0  0
  1 30  2  0  0  0
  1 87  1  0  0  0
  2  3  1  0  0  0
  2 25  1  0  0  0
  2 89  1  0  0  0
  2 90  1  0  0  0
  3  4  1  0  0  0
  3 91  1  0  0  0
  3 92  1  0  0  0
  4  5  1  0  0  0
  4 93  1  0  0  0
  4 94  1  0  0  0
  5  6  1  0  0  0
  5 26  1  0  0  0
  5 95  1  0  0  0
  6 25  1  0  0  0
  6 96  1  0  0  0
  6 97  1  0  0  0
  7  8  2  0  0  0
  7 26  1  0  0  0
  7 29  1  0  0  0
  8  9  1  0  0  0
  8 22  1  0  0  0
  9 10  1  0  0  0
  9 27  2  0  0  0
 10 11  2  0  0  0
 10 15  1  0  0  0
 11 12  1  0  0  0
 11 98  1  0  0  0
 12 13  2  0  0  0
 12 99  1  0  0  0
 13 14  1  0  0  0
 13 31  1  0  0  0
 14 15  2  0  0  0
 14100  1  0  0  0
 15101  1  0  0  0
 16 17  2  0  0  0
 16 21  1  0  0  0
 16 31  1  0  0  0
 17 18  1  0  0  0
 17102  1  0  0  0
 18 19  2  0  0  0
 18103  1  0  0  0
 19 20  1  0  0  0
 19 24  1  0  0  0
 20 21  2  0  0  0
 20104  1  0  0  0
 21 23  1  0  0  0
 22 28  1  0  0  0
 22 32  2  0  0  0
 26 27  1  0  0  0
 28105  1  0  0  0
 28106  1  0  0  0
 29107  1  0  0  0
 29108  1  0  0  0
 33 34  1  0  0  0
 33 66  1  0  0  0
 33 70  2  0  0  0
 34 36  1  0  0  0
 34 59  1  0  0  0
 34109  1  0  0  0
 35 44  2  0  0  0
 35 45  1  0  0  0
 35 68  1  0  0  0
 36 56  1  0  0  0
 36110  1  0  0  0
 37 39  1  0  0  0
 37 47  1  0  0  0
 37 66  1  0  0  0
 37111  1  0  0  0
 38 43  2  0  0  0
 38 46  1  0  0  0
 38 47  1  0  0  0
 39 64  1  0  0  0
 39 67  2  0  0  0
 40 52  1  0  0  0
 40 53  2  0  0  0
 40 58  1  0  0  0
 41112  1  0  0  0
 41113  1  0  0  0
 41114  1  0  0  0
 41 48  1  0  0  0
 42 43  1  0  0  0
 42 66  1  0  0  0
 42115  1  0  0  0
 42116  1  0  0  0
 43 44  1  0  0  0
 44117  1  0  0  0
 45 46  2  0  0  0
 45118  1  0  0  0
 46119  1  0  0  0
 47120  1  0  0  0
 47121  1  0  0  0
 48 56  1  0  0  0
 48 65  1  0  0  0
 48122  1  0  0  0
 49 50  1  0  0  0
 49 53  1  0  0  0
 49 64  1  0  0  0
 49123  1  0  0  0
 50 51  1  0  0  0
 50124  1  0  0  0
 50125  1  0  0  0
 51 52  1  0  0  0
 51126  1  0  0  0
 51127  1  0  0  0
 52128  1  0  0  0
 52129  1  0  0  0
 53 54  1  0  0  0
 54 55  2  0  0  0
 54130  1  0  0  0
 55 57  1  0  0  0
 55131  1  0  0  0
 56 69  2  0  0  0
 57 58  2  0  0  0
 57132  1  0  0  0
 58133  1  0  0  0
 59 60  1  0  0  0
 59 61  1  0  0  0
 59 62  1  0  0  0
 60134  1  0  0  0
 60135  1  0  0  0
 60136  1  0  0  0
 61137  1  0  0  0
 61138  1  0  0  0
 61139  1  0  0  0
 62140  1  0  0  0
 62141  1  0  0  0
 62142  1  0  0  0
 63 65  1  0  0  0
 63143  1  0  0  0
 63144  1  0  0  0
 63145  1  0  0  0
 64146  1  0  0  0
 65147  1  0  0  0
 68 84  1  0  0  0
 71 74  2  0  0  0
 71 75  1  0  0  0
 71148  1  0  0  0
 72 74  1  0  0  0
 72 76  2  0  0  0
 72149  1  0  0  0
 73 75  2  0  0  0
 73 76  1  0  0  0
 73150  1  0  0  0
 74 85  1  0  0  0
 75 86  1  0  0  0
 76 87  1  0  0  0
 77 78  1  0  0  0
 77 79  1  0  0  0
 77 81  2  0  0  0
 78 80  2  0  0  0
 78 82  1  0  0  0
 79 85  1  0  0  0
 79 88  2  0  0  0
 80151  1  0  0  0
 80152  1  0  0  0
 81 84  1  0  0  0
 81153  1  0  0  0
 82 83  1  0  0  0
 82154  1  0  0  0
 82155  1  0  0  0
 83 85  1  0  0  0
 83156  1  0  0  0
 83157  1  0  0  0
 84158  1  0  0  0
 84159  1  0  0  0
 86160  1  0  0  0
 86161  1  0  0  0
 87162  1  0  0  0
M  ISO  4   1 100  68 101  84 101  87 100
M  END
> <chiral flag>
0

> <version>
0

> <s_m_source_file>
/data/baiqing/PycharmProjects/Reinvent-master-3.2/result/LINK_invent/BTK/process_docking_weight1_custom_product_contain_oxygen_bond_distance_aromatic_linkinvent_7_9_3/rearranged_h_0077.sdf

> <i_m_source_file_index>
73

> <r_mmod_Potential_Energy-OPLS-2005>
243.931427001953

> <r_mmod_Stretch_Energy-OPLS-2005>
73.8523941040039

> <r_mmod_Bend_Energy-OPLS-2005>
144.152633666992

> <r_mmod_Torsional_Energy-OPLS-2005>
358.894836425781

> <r_mmod_Improper_Torsional_Energy-OPLS-2005>
11.9750556945801

> <r_mmod_Van_der_Waal_Energy-OPLS-2005>
160.978164672852

> <r_mmod_Electrostatic_Energy-OPLS-2005>
-317.726989746094

> <r_mmod_Solvation_Energy-OPLS-2005>
-225.74885559082

> <b_mmod_Minimization_Converged-OPLS-2005>
0

> <r_mmod_RMS_Derivative-OPLS-2005>
3.06611299514771

$$$$
73
                    3D
 Structure written by MMmdl.
153162  0  0  1  0            999 V2000
  -30.6216  -14.6422   20.4972 C   0  0  0  0  0  0
  -30.4441  -12.3939   19.4470 C   0  0  0  0  0  0
  -29.5089  -12.5070   18.2219 C   0  0  0  0  0  0
  -28.0324  -12.3435   18.6359 C   0  0  0  0  0  0
  -27.6560  -13.2142   19.8635 C   0  0  2  0  0  0
  -28.7032  -13.0642   20.9911 C   0  0  0  0  0  0
  -25.2582  -13.8166   20.5695 C   0  0  0  0  0  0
  -24.1838  -13.0441   20.9198 C   0  0  0  0  0  0
  -24.6401  -11.6909   20.8736 C   0  0  0  0  0  0
  -23.9065  -10.4296   21.0405 C   0  0  0  0  0  0
  -24.3616   -9.4209   21.9181 C   0  0  0  0  0  0
  -23.6289   -8.2244   22.0753 C   0  0  0  0  0  0
  -22.4267   -8.0285   21.3550 C   0  0  0  0  0  0
  -21.9907   -9.0261   20.4653 C   0  0  0  0  0  0
  -22.7238  -10.2138   20.3058 C   0  0  0  0  0  0
  -21.6854   -6.0734   22.5278 C   0  0  0  0  0  0
  -21.4015   -6.5636   23.8211 C   0  0  0  0  0  0
  -21.3660   -5.6790   24.9173 C   0  0  0  0  0  0
  -21.6044   -4.3052   24.7225 C   0  0  0  0  0  0
  -21.8819   -3.8146   23.4344 C   0  0  0  0  0  0
  -21.9194   -4.6963   22.3401 C   0  0  0  0  0  0
  -22.7857  -13.5240   21.1847 C   0  0  0  0  0  0
  -22.1663   -4.2150   21.0979 F   0  0  0  0  0  0
  -21.5627   -3.4538   25.7736 F   0  0  0  0  0  0
  -30.0200  -13.4111   20.4290 N   0  0  0  0  0  0
  -26.3007  -12.9342   20.3322 N   0  0  0  0  0  0
  -25.9327  -11.6501   20.5748 N   0  0  0  0  0  0
  -22.0493  -12.8245   22.0405 N   0  0  0  0  0  0
  -25.4299  -15.1889   20.4107 N   0  0  0  0  0  0
  -31.7808  -14.8136   20.1084 O   0  0  0  0  0  0
  -21.6637   -6.8880   21.4241 O   0  0  0  0  0  0
  -22.3555  -14.5543   20.6685 O   0  0  0  0  0  0
  -24.6290  -31.8614   23.2044 C   0  0  0  0  0  0
  -25.9132  -32.4789   23.8372 C   0  0  1  0  0  0
  -27.2149  -27.3054   20.1025 C   0  0  0  0  0  0
  -25.5938  -33.8588   24.2290 N   0  0  0  0  0  0
  -23.4228  -30.4897   21.5491 C   0  0  2  0  0  0
  -24.8662  -28.9536   20.1108 C   0  0  0  0  0  0
  -22.7496  -29.4637   22.4932 C   0  0  0  0  0  0
  -18.0297  -28.1388   22.8494 C   0  0  0  0  0  0
  -24.1488  -36.7294   23.2629 C   0  0  0  0  0  0
  -25.9693  -30.7873   21.3801 C   0  0  0  0  0  0
  -26.0407  -29.4163   20.7170 C   0  0  0  0  0  0
  -27.2191  -28.6048   20.7051 C   0  0  0  0  0  0
  -26.0092  -26.9130   19.4666 C   0  0  0  0  0  0
  -24.8533  -27.7068   19.4783 C   0  0  0  0  0  0
  -23.6373  -29.8357   20.1620 C   0  0  0  0  0  0
  -25.4105  -36.3086   24.0331 C   0  0  1  0  0  0
  -20.5900  -28.3695   23.1282 C   0  0  2  0  0  0
  -20.6783  -26.9416   22.5410 C   0  0  0  0  0  0
  -19.5749  -26.6389   21.5220 C   0  0  0  0  0  0
  -18.1934  -26.7934   22.1636 C   0  0  0  0  0  0
  -19.1549  -28.8861   23.2886 C   0  0  0  0  0  0
  -18.9465  -30.1461   23.8901 C   0  0  0  0  0  0
  -17.6461  -30.6588   24.0568 C   0  0  0  0  0  0
  -25.9052  -34.9457   23.5106 C   0  0  0  0  0  0
  -16.5354  -29.9084   23.6331 C   0  0  0  0  0  0
  -16.7284  -28.6504   23.0353 C   0  0  0  0  0  0
  -26.4496  -31.6595   25.0746 C   0  0  0  0  0  0
  -25.3715  -31.3744   26.1464 C   0  0  0  0  0  0
  -27.0331  -30.3013   24.6207 C   0  0  0  0  0  0
  -27.6061  -32.4321   25.7515 C   0  0  0  0  0  0
  -27.5594  -37.1778   24.8446 C   0  0  0  0  0  0
  -21.4207  -29.3053   22.3679 N   0  0  0  0  0  0
  -26.4274  -37.3793   23.9437 N   0  0  0  0  0  0
  -24.6930  -31.0620   22.1007 N   0  0  0  0  0  0
  -23.4221  -28.8156   23.2997 O   0  0  0  0  0  0
  -28.3079  -26.4107   20.1536 O   0  0  0  0  0  0
  -26.5625  -34.8925   22.4675 O   0  0  0  0  0  0
  -23.5448  -32.1420   23.7355 O   0  0  0  0  0  0
  -28.5834  -19.2800   20.8810 C   0  0  0  0  0  0
  -30.8854  -19.3379   20.2120 C   0  0  0  0  0  0
  -28.6616  -17.8624   20.9958 C   0  0  0  0  0  0
  -30.9617  -17.9106   20.3123 C   0  0  0  0  0  0
  -29.6928  -20.0758   20.4843 C   0  0  0  0  0  0
  -29.8437  -17.1294   20.7131 C   0  0  0  0  0  0
  -30.2905  -23.8004   20.3377 C   0  0  0  0  0  0
  -28.9656  -23.7965   20.1961 C   0  0  0  0  0  0
  -28.5452  -22.3770   20.2228 C   0  0  0  0  0  0
  -30.8414  -22.3939   20.4577 C   0  0  0  0  0  0
  -27.9681  -24.9770   19.9365 C   0  0  0  0  0  0
  -29.6369  -21.5534   20.3933 N   0  0  0  0  0  0
  -29.8000  -15.6730   20.8691 N   0  0  0  0  0  0
  -27.3823  -21.9837   20.0893 O   0  0  0  0  0  0
  -31.4836  -12.5240   19.1403 H   0  0  0  0  0  0
  -30.3852  -11.3971   19.8865 H   0  0  0  0  0  0
  -29.7719  -11.7559   17.4761 H   0  0  0  0  0  0
  -29.6499  -13.4765   17.7408 H   0  0  0  0  0  0
  -27.8696  -11.2900   18.8680 H   0  0  0  0  0  0
  -27.3777  -12.5726   17.7944 H   0  0  0  0  0  0
  -27.6756  -14.2493   19.5222 H   0  0  0  0  0  0
  -28.7157  -12.0401   21.3675 H   0  0  0  0  0  0
  -28.4481  -13.6897   21.8477 H   0  0  0  0  0  0
  -25.2759   -9.5684   22.4756 H   0  0  0  0  0  0
  -24.0002   -7.4635   22.7467 H   0  0  0  0  0  0
  -21.0838   -8.8781   19.8959 H   0  0  0  0  0  0
  -22.3695  -10.9678   19.6169 H   0  0  0  0  0  0
  -21.2007   -7.6144   23.9716 H   0  0  0  0  0  0
  -21.1480   -6.0517   25.9077 H   0  0  0  0  0  0
  -22.0597   -2.7609   23.2842 H   0  0  0  0  0  0
  -22.4094  -11.9915   22.4816 H   0  0  0  0  0  0
  -21.1110  -13.1285   22.2598 H   0  0  0  0  0  0
  -24.6606  -15.8411   20.5164 H   0  0  0  0  0  0
  -26.2684  -15.6239   20.0485 H   0  0  0  0  0  0
  -26.7205  -32.5450   23.1125 H   0  0  0  0  0  0
  -25.0064  -33.9735   25.0421 H   0  0  0  0  0  0
  -22.7170  -31.3114   21.4105 H   0  0  0  0  0  0
  -23.3768  -35.9606   23.3242 H   0  0  0  0  0  0
  -24.3600  -36.8963   22.2055 H   0  0  0  0  0  0
  -23.7215  -37.6469   23.6682 H   0  0  0  0  0  0
  -26.1051  -31.5517   20.6136 H   0  0  0  0  0  0
  -26.8482  -30.8335   22.0113 H   0  0  0  0  0  0
  -28.1175  -28.9535   21.1945 H   0  0  0  0  0  0
  -25.9035  -25.9695   18.9555 H   0  0  0  0  0  0
  -23.9534  -27.3481   18.9980 H   0  0  0  0  0  0
  -23.7611  -30.6174   19.4114 H   0  0  0  0  0  0
  -22.7555  -29.2711   19.8544 H   0  0  0  0  0  0
  -25.1269  -36.1926   25.0821 H   0  0  0  0  0  0
  -20.9999  -28.3264   24.1401 H   0  0  0  0  0  0
  -20.5695  -26.2298   23.3608 H   0  0  0  0  0  0
  -21.6648  -26.7449   22.1193 H   0  0  0  0  0  0
  -19.6903  -25.6301   21.1248 H   0  0  0  0  0  0
  -19.6676  -27.3202   20.6751 H   0  0  0  0  0  0
  -17.4201  -26.6692   21.4041 H   0  0  0  0  0  0
  -18.0324  -26.0074   22.9030 H   0  0  0  0  0  0
  -19.7936  -30.7287   24.2265 H   0  0  0  0  0  0
  -17.5011  -31.6267   24.5169 H   0  0  0  0  0  0
  -15.5353  -30.2982   23.7648 H   0  0  0  0  0  0
  -15.8690  -28.0822   22.7059 H   0  0  0  0  0  0
  -24.5894  -30.7087   25.7794 H   0  0  0  0  0  0
  -24.8893  -32.2913   26.4867 H   0  0  0  0  0  0
  -25.8021  -30.8941   27.0258 H   0  0  0  0  0  0
  -26.2911  -29.6780   24.1201 H   0  0  0  0  0  0
  -27.3989  -29.7254   25.4718 H   0  0  0  0  0  0
  -27.8802  -30.4292   23.9463 H   0  0  0  0  0  0
  -27.2679  -33.3616   26.2108 H   0  0  0  0  0  0
  -28.3862  -32.6889   25.0337 H   0  0  0  0  0  0
  -28.0743  -31.8436   26.5415 H   0  0  0  0  0  0
  -28.2534  -38.0152   24.7616 H   0  0  0  0  0  0
  -28.1165  -36.2695   24.6101 H   0  0  0  0  0  0
  -27.2343  -37.1230   25.8850 H   0  0  0  0  0  0
  -20.9376  -29.8794   21.6911 H   0  0  0  0  0  0
  -26.0145  -38.2848   24.1510 H   0  0  0  0  0  0
  -27.6419  -19.7471   21.1304 H   0  0  0  0  0  0
  -31.7774  -19.8654   19.9061 H   0  0  0  0  0  0
  -27.7744  -17.3333   21.3152 H   0  0  0  0  0  0
  -31.9003  -17.4262   20.0824 H   0  0  0  0  0  0
  -30.9218  -24.6772   20.3259 H   0  0  0  0  0  0
  -31.3675  -22.2602   21.4035 H   0  0  0  0  0  0
  -31.5213  -22.1816   19.6321 H   0  0  0  0  0  0
  -27.0898  -24.7433   20.5416 H   0  0  0  0  0  0
  -27.6837  -24.8494   18.8915 H   0  0  0  0  0  0
  -28.9111  -15.3275   21.1965 H   0  0  0  0  0  0
  1 25  1  0  0  0
  1 30  2  0  0  0
  1 83  1  0  0  0
  2  3  1  0  0  0
  2 25  1  0  0  0
  2 85  1  0  0  0
  2 86  1  0  0  0
  3  4  1  0  0  0
  3 87  1  0  0  0
  3 88  1  0  0  0
  4  5  1  0  0  0
  4 89  1  0  0  0
  4 90  1  0  0  0
  5  6  1  0  0  0
  5 26  1  0  0  0
  5 91  1  0  0  0
  6 25  1  0  0  0
  6 92  1  0  0  0
  6 93  1  0  0  0
  7  8  2  0  0  0
  7 26  1  0  0  0
  7 29  1  0  0  0
  8  9  1  0  0  0
  8 22  1  0  0  0
  9 10  1  0  0  0
  9 27  2  0  0  0
 10 11  2  0  0  0
 10 15  1  0  0  0
 11 12  1  0  0  0
 11 94  1  0  0  0
 12 13  2  0  0  0
 12 95  1  0  0  0
 13 14  1  0  0  0
 13 31  1  0  0  0
 14 15  2  0  0  0
 14 96  1  0  0  0
 15 97  1  0  0  0
 16 17  2  0  0  0
 16 21  1  0  0  0
 16 31  1  0  0  0
 17 18  1  0  0  0
 17 98  1  0  0  0
 18 19  2  0  0  0
 18 99  1  0  0  0
 19 20  1  0  0  0
 19 24  1  0  0  0
 20 21  2  0  0  0
 20100  1  0  0  0
 21 23  1  0  0  0
 22 28  1  0  0  0
 22 32  2  0  0  0
 26 27  1  0  0  0
 28101  1  0  0  0
 28102  1  0  0  0
 29103  1  0  0  0
 29104  1  0  0  0
 33 34  1  0  0  0
 33 66  1  0  0  0
 33 70  2  0  0  0
 34 36  1  0  0  0
 34 59  1  0  0  0
 34105  1  0  0  0
 35 44  2  0  0  0
 35 45  1  0  0  0
 35 68  1  0  0  0
 36 56  1  0  0  0
 36106  1  0  0  0
 37 39  1  0  0  0
 37 47  1  0  0  0
 37 66  1  0  0  0
 37107  1  0  0  0
 38 43  2  0  0  0
 38 46  1  0  0  0
 38 47  1  0  0  0
 39 64  1  0  0  0
 39 67  2  0  0  0
 40 52  1  0  0  0
 40 53  2  0  0  0
 40 58  1  0  0  0
 41108  1  0  0  0
 41109  1  0  0  0
 41110  1  0  0  0
 41 48  1  0  0  0
 42 43  1  0  0  0
 42 66  1  0  0  0
 42111  1  0  0  0
 42112  1  0  0  0
 43 44  1  0  0  0
 44113  1  0  0  0
 45 46  2  0  0  0
 45114  1  0  0  0
 46115  1  0  0  0
 47116  1  0  0  0
 47117  1  0  0  0
 48 56  1  0  0  0
 48 65  1  0  0  0
 48118  1  0  0  0
 49 50  1  0  0  0
 49 53  1  0  0  0
 49 64  1  0  0  0
 49119  1  0  0  0
 50 51  1  0  0  0
 50120  1  0  0  0
 50121  1  0  0  0
 51 52  1  0  0  0
 51122  1  0  0  0
 51123  1  0  0  0
 52124  1  0  0  0
 52125  1  0  0  0
 53 54  1  0  0  0
 54 55  2  0  0  0
 54126  1  0  0  0
 55 57  1  0  0  0
 55127  1  0  0  0
 56 69  2  0  0  0
 57 58  2  0  0  0
 57128  1  0  0  0
 58129  1  0  0  0
 59 60  1  0  0  0
 59 61  1  0  0  0
 59 62  1  0  0  0
 60130  1  0  0  0
 60131  1  0  0  0
 60132  1  0  0  0
 61133  1  0  0  0
 61134  1  0  0  0
 61135  1  0  0  0
 62136  1  0  0  0
 62137  1  0  0  0
 62138  1  0  0  0
 63 65  1  0  0  0
 63139  1  0  0  0
 63140  1  0  0  0
 63141  1  0  0  0
 64142  1  0  0  0
 65143  1  0  0  0
 68 81  1  0  0  0
 71 73  2  0  0  0
 71 75  1  0  0  0
 71144  1  0  0  0
 72 74  1  0  0  0
 72 75  2  0  0  0
 72145  1  0  0  0
 73 76  1  0  0  0
 73146  1  0  0  0
 74 76  2  0  0  0
 74147  1  0  0  0
 75 82  1  0  0  0
 76 83  1  0  0  0
 77 78  2  0  0  0
 77 80  1  0  0  0
 77148  1  0  0  0
 78 79  1  0  0  0
 78 81  1  0  0  0
 79 82  1  0  0  0
 79 84  2  0  0  0
 80 82  1  0  0  0
 80149  1  0  0  0
 80150  1  0  0  0
 81151  1  0  0  0
 81152  1  0  0  0
 83153  1  0  0  0
M  ISO  4   1 100  68 101  81 101  83 100
M  END
> <chiral flag>
0

> <version>
0

> <s_m_source_file>
/data/baiqing/PycharmProjects/Reinvent-master-3.2/result/LINK_invent/BTK/process_docking_weight1_custom_product_contain_oxygen_bond_distance_aromatic_linkinvent_7_9_3/rearranged_h_0077.sdf

> <i_m_source_file_index>
74

> <r_mmod_Potential_Energy-OPLS-2005>
162.809936523438

> <r_mmod_Stretch_Energy-OPLS-2005>
84.6652450561523

> <r_mmod_Bend_Energy-OPLS-2005>
193.848159790039

> <r_mmod_Torsional_Energy-OPLS-2005>
236.465881347656

> <r_mmod_Improper_Torsional_Energy-OPLS-2005>
4.24773979187012

> <r_mmod_Van_der_Waal_Energy-OPLS-2005>
150.174057006836

> <r_mmod_Electrostatic_Energy-OPLS-2005>
-346.300903320312

> <r_mmod_Solvation_Energy-OPLS-2005>
-214.79411315918

> <b_mmod_Minimization_Converged-OPLS-2005>
0

> <r_mmod_RMS_Derivative-OPLS-2005>
0.884415090084076

$$$$
74
                    3D
 Structure written by MMmdl.
158166  0  0  1  0            999 V2000
  -30.6911  -14.4796   20.5946 C   0  0  0  0  0  0
  -30.4282  -12.3195   19.4197 C   0  0  0  0  0  0
  -29.4961  -12.5129   18.2043 C   0  0  0  0  0  0
  -28.0189  -12.3593   18.6191 C   0  0  0  0  0  0
  -27.6615  -13.2012   19.8738 C   0  0  2  0  0  0
  -28.7017  -12.9763   20.9947 C   0  0  0  0  0  0
  -25.2601  -13.8139   20.5684 C   0  0  0  0  0  0
  -24.1844  -13.0430   20.9162 C   0  0  0  0  0  0
  -24.6384  -11.6896   20.8718 C   0  0  0  0  0  0
  -23.9054  -10.4289   21.0394 C   0  0  0  0  0  0
  -24.3613   -9.4212   21.9177 C   0  0  0  0  0  0
  -23.6292   -8.2243   22.0759 C   0  0  0  0  0  0
  -22.4276   -8.0274   21.3546 C   0  0  0  0  0  0
  -21.9908   -9.0242   20.4643 C   0  0  0  0  0  0
  -22.7226  -10.2125   20.3048 C   0  0  0  0  0  0
  -21.6847   -6.0739   22.5285 C   0  0  0  0  0  0
  -21.4006   -6.5643   23.8217 C   0  0  0  0  0  0
  -21.3660   -5.6799   24.9178 C   0  0  0  0  0  0
  -21.6041   -4.3065   24.7229 C   0  0  0  0  0  0
  -21.8821   -3.8157   23.4354 C   0  0  0  0  0  0
  -21.9189   -4.6968   22.3407 C   0  0  0  0  0  0
  -22.7872  -13.5232   21.1833 C   0  0  0  0  0  0
  -22.1659   -4.2160   21.0983 F   0  0  0  0  0  0
  -21.5629   -3.4550   25.7740 F   0  0  0  0  0  0
  -30.0330  -13.2957   20.4469 N   0  0  0  0  0  0
  -26.3025  -12.9301   20.3348 N   0  0  0  0  0  0
  -25.9308  -11.6465   20.5738 N   0  0  0  0  0  0
  -22.0507  -12.8220   22.0380 N   0  0  0  0  0  0
  -25.4338  -15.1868   20.4186 N   0  0  0  0  0  0
  -31.8170  -14.6806   20.1285 O   0  0  0  0  0  0
  -21.6633   -6.8885   21.4249 O   0  0  0  0  0  0
  -22.3563  -14.5554   20.6701 O   0  0  0  0  0  0
  -24.6152  -31.8690   23.2077 C   0  0  0  0  0  0
  -25.9051  -32.4825   23.8395 C   0  0  1  0  0  0
  -27.2463  -27.4306   20.1047 C   0  0  0  0  0  0
  -25.5915  -33.8623   24.2330 N   0  0  0  0  0  0
  -23.4049  -30.4865   21.5500 C   0  0  2  0  0  0
  -24.8553  -28.9426   20.1257 C   0  0  0  0  0  0
  -22.7417  -29.4649   22.5012 C   0  0  0  0  0  0
  -18.0285  -28.1354   22.8498 C   0  0  0  0  0  0
  -24.1483  -36.7297   23.2642 C   0  0  0  0  0  0
  -25.9341  -30.8296   21.3640 C   0  0  0  0  0  0
  -26.0144  -29.4587   20.7206 C   0  0  0  0  0  0
  -27.2145  -28.7096   20.7084 C   0  0  0  0  0  0
  -26.0727  -26.9252   19.5109 C   0  0  0  0  0  0
  -24.8772  -27.6715   19.5233 C   0  0  0  0  0  0
  -23.6161  -29.8108   20.1691 C   0  0  0  0  0  0
  -25.4110  -36.3110   24.0348 C   0  0  1  0  0  0
  -20.5867  -28.3647   23.1313 C   0  0  2  0  0  0
  -20.6760  -26.9376   22.5426 C   0  0  0  0  0  0
  -19.5734  -26.6374   21.5216 C   0  0  0  0  0  0
  -18.1916  -26.7915   22.1614 C   0  0  0  0  0  0
  -19.1529  -28.8823   23.2895 C   0  0  0  0  0  0
  -18.9460  -30.1437   23.8892 C   0  0  0  0  0  0
  -17.6462  -30.6569   24.0557 C   0  0  0  0  0  0
  -25.9050  -34.9478   23.5138 C   0  0  0  0  0  0
  -16.5357  -29.9054   23.6331 C   0  0  0  0  0  0
  -16.7278  -28.6470   23.0353 C   0  0  0  0  0  0
  -26.4477  -31.6577   25.0711 C   0  0  0  0  0  0
  -25.3728  -31.3694   26.1448 C   0  0  0  0  0  0
  -27.0298  -30.3011   24.6078 C   0  0  0  0  0  0
  -27.6066  -32.4282   25.7468 C   0  0  0  0  0  0
  -27.5591  -37.1790   24.8466 C   0  0  0  0  0  0
  -21.4150  -29.3018   22.3729 N   0  0  0  0  0  0
  -26.4297  -37.3797   23.9429 N   0  0  0  0  0  0
  -24.6697  -31.0765   22.0990 N   0  0  0  0  0  0
  -23.4176  -28.8227   23.3094 O   0  0  0  0  0  0
  -28.4102  -26.6983   20.0184 O   0  0  0  0  0  0
  -26.5603  -34.8933   22.4694 O   0  0  0  0  0  0
  -23.5334  -32.1456   23.7448 O   0  0  0  0  0  0
  -31.6414  -18.8198   21.6342 C   0  0  0  0  0  0
  -31.4877  -17.4185   21.5037 C   0  0  0  0  0  0
  -29.2720  -19.1361   21.1995 C   0  0  0  0  0  0
  -30.5344  -19.6969   21.4954 C   0  0  0  0  0  0
  -30.2184  -16.8615   21.2238 C   0  0  0  0  0  0
  -29.1184  -17.7366   21.0701 C   0  0  0  0  0  0
  -30.6972  -21.1511   21.7237 C   0  0  0  0  0  0
  -28.9726  -24.3411   20.5406 C   0  0  0  0  0  0
  -31.4781  -24.0785   20.4430 C   0  0  0  0  0  0
  -28.6458  -25.7574   21.0805 C   0  0  0  0  0  0
  -30.1916  -23.5914   21.1467 C   0  0  2  0  0  0
  -29.9635  -15.4561   21.1690 N   0  0  0  0  0  0
  -30.0536  -22.1072   21.0128 N   0  0  0  0  0  0
  -31.5271  -21.5446   22.6921 N   0  3  0  0  0  0
  -28.2785  -23.8312   19.6543 O   0  0  0  0  0  0
  -27.8943  -17.2194   20.7998 F   0  0  0  0  0  0
  -31.4730  -12.4265   19.1217 H   0  0  0  0  0  0
  -30.3355  -11.3060   19.8120 H   0  0  0  0  0  0
  -29.7410  -11.7923   17.4225 H   0  0  0  0  0  0
  -29.6532  -13.5015   17.7699 H   0  0  0  0  0  0
  -27.8425  -11.3023   18.8218 H   0  0  0  0  0  0
  -27.3642  -12.6218   17.7870 H   0  0  0  0  0  0
  -27.7060  -14.2496   19.5767 H   0  0  0  0  0  0
  -28.6822  -11.9351   21.3212 H   0  0  0  0  0  0
  -28.4569  -13.5601   21.8830 H   0  0  0  0  0  0
  -25.2763   -9.5686   22.4752 H   0  0  0  0  0  0
  -24.0003   -7.4639   22.7486 H   0  0  0  0  0  0
  -21.0845   -8.8753   19.8944 H   0  0  0  0  0  0
  -22.3688  -10.9662   19.6162 H   0  0  0  0  0  0
  -21.1999   -7.6146   23.9724 H   0  0  0  0  0  0
  -21.1475   -6.0527   25.9081 H   0  0  0  0  0  0
  -22.0600   -2.7619   23.2847 H   0  0  0  0  0  0
  -22.4123  -11.9867   22.4737 H   0  0  0  0  0  0
  -21.1127  -13.1245   22.2596 H   0  0  0  0  0  0
  -24.6733  -15.8420   20.5618 H   0  0  0  0  0  0
  -26.3053  -15.6446   20.1782 H   0  0  0  0  0  0
  -26.7130  -32.5542   23.1173 H   0  0  0  0  0  0
  -25.0103  -33.9803   25.0499 H   0  0  0  0  0  0
  -22.6952  -31.3034   21.4027 H   0  0  0  0  0  0
  -23.3768  -35.9604   23.3306 H   0  0  0  0  0  0
  -24.3592  -36.8902   22.2058 H   0  0  0  0  0  0
  -23.7189  -37.6489   23.6649 H   0  0  0  0  0  0
  -26.0452  -31.5913   20.5908 H   0  0  0  0  0  0
  -26.8230  -30.8893   21.9803 H   0  0  0  0  0  0
  -28.1135  -29.1134   21.1518 H   0  0  0  0  0  0
  -26.0886  -25.9555   19.0338 H   0  0  0  0  0  0
  -23.9859  -27.2634   19.0670 H   0  0  0  0  0  0
  -23.7261  -30.5830   19.4070 H   0  0  0  0  0  0
  -22.7403  -29.2303   19.8743 H   0  0  0  0  0  0
  -25.1268  -36.1989   25.0837 H   0  0  0  0  0  0
  -20.9964  -28.3208   24.1430 H   0  0  0  0  0  0
  -20.5648  -26.2263   23.3617 H   0  0  0  0  0  0
  -21.6620  -26.7395   22.1219 H   0  0  0  0  0  0
  -19.6907  -25.6298   21.1223 H   0  0  0  0  0  0
  -19.6676  -27.3216   20.6772 H   0  0  0  0  0  0
  -17.4193  -26.6712   21.3993 H   0  0  0  0  0  0
  -18.0270  -26.0027   22.8966 H   0  0  0  0  0  0
  -19.7939  -30.7261   24.2234 H   0  0  0  0  0  0
  -17.5013  -31.6247   24.5155 H   0  0  0  0  0  0
  -15.5355  -30.2947   23.7656 H   0  0  0  0  0  0
  -15.8678  -28.0800   22.7048 H   0  0  0  0  0  0
  -24.5932  -30.7001   25.7798 H   0  0  0  0  0  0
  -24.8882  -32.2841   26.4858 H   0  0  0  0  0  0
  -25.8081  -30.8909   27.0223 H   0  0  0  0  0  0
  -26.2833  -29.6771   24.1145 H   0  0  0  0  0  0
  -27.4083  -29.7251   25.4534 H   0  0  0  0  0  0
  -27.8661  -30.4351   23.9213 H   0  0  0  0  0  0
  -27.2735  -33.3619   26.2018 H   0  0  0  0  0  0
  -28.3888  -32.6767   25.0281 H   0  0  0  0  0  0
  -28.0693  -31.8386   26.5390 H   0  0  0  0  0  0
  -28.2579  -38.0109   24.7551 H   0  0  0  0  0  0
  -28.1105  -36.2644   24.6236 H   0  0  0  0  0  0
  -27.2324  -37.1381   25.8869 H   0  0  0  0  0  0
  -20.9336  -29.8726   21.6922 H   0  0  0  0  0  0
  -26.0184  -38.2875   24.1452 H   0  0  0  0  0  0
  -32.6221  -19.2122   21.8644 H   0  0  0  0  0  0
  -32.3471  -16.7793   21.6482 H   0  0  0  0  0  0
  -28.4038  -19.7700   21.0994 H   0  0  0  0  0  0
  -31.4960  -25.1625   20.3214 H   0  0  0  0  0  0
  -31.5808  -23.6405   19.4485 H   0  0  0  0  0  0
  -32.3690  -23.8097   21.0120 H   0  0  0  0  0  0
  -29.4819  -26.1132   21.6824 H   0  0  0  0  0  0
  -27.7835  -25.6907   21.7446 H   0  0  0  0  0  0
  -30.2420  -23.8520   22.2052 H   0  0  0  0  0  0
  -29.0192  -15.1922   21.3997 H   0  0  0  0  0  0
  -29.4242  -21.7987   20.2801 H   0  0  0  0  0  0
  -31.9828  -20.8515   23.2662 H   0  0  0  0  0  0
  -31.6702  -22.5179   22.8978 H   0  0  0  0  0  0
  1 25  1  0  0  0
  1 30  2  0  0  0
  1 82  1  0  0  0
  2  3  1  0  0  0
  2 25  1  0  0  0
  2 87  1  0  0  0
  2 88  1  0  0  0
  3  4  1  0  0  0
  3 89  1  0  0  0
  3 90  1  0  0  0
  4  5  1  0  0  0
  4 91  1  0  0  0
  4 92  1  0  0  0
  5  6  1  0  0  0
  5 26  1  0  0  0
  5 93  1  0  0  0
  6 25  1  0  0  0
  6 94  1  0  0  0
  6 95  1  0  0  0
  7  8  2  0  0  0
  7 26  1  0  0  0
  7 29  1  0  0  0
  8  9  1  0  0  0
  8 22  1  0  0  0
  9 10  1  0  0  0
  9 27  2  0  0  0
 10 11  2  0  0  0
 10 15  1  0  0  0
 11 12  1  0  0  0
 11 96  1  0  0  0
 12 13  2  0  0  0
 12 97  1  0  0  0
 13 14  1  0  0  0
 13 31  1  0  0  0
 14 15  2  0  0  0
 14 98  1  0  0  0
 15 99  1  0  0  0
 16 17  2  0  0  0
 16 21  1  0  0  0
 16 31  1  0  0  0
 17 18  1  0  0  0
 17100  1  0  0  0
 18 19  2  0  0  0
 18101  1  0  0  0
 19 20  1  0  0  0
 19 24  1  0  0  0
 20 21  2  0  0  0
 20102  1  0  0  0
 21 23  1  0  0  0
 22 28  1  0  0  0
 22 32  2  0  0  0
 26 27  1  0  0  0
 28103  1  0  0  0
 28104  1  0  0  0
 29105  1  0  0  0
 29106  1  0  0  0
 33 34  1  0  0  0
 33 66  1  0  0  0
 33 70  2  0  0  0
 34 36  1  0  0  0
 34 59  1  0  0  0
 34107  1  0  0  0
 35 44  2  0  0  0
 35 45  1  0  0  0
 35 68  1  0  0  0
 36 56  1  0  0  0
 36108  1  0  0  0
 37 39  1  0  0  0
 37 47  1  0  0  0
 37 66  1  0  0  0
 37109  1  0  0  0
 38 43  2  0  0  0
 38 46  1  0  0  0
 38 47  1  0  0  0
 39 64  1  0  0  0
 39 67  2  0  0  0
 40 52  1  0  0  0
 40 53  2  0  0  0
 40 58  1  0  0  0
 41110  1  0  0  0
 41111  1  0  0  0
 41112  1  0  0  0
 41 48  1  0  0  0
 42 43  1  0  0  0
 42 66  1  0  0  0
 42113  1  0  0  0
 42114  1  0  0  0
 43 44  1  0  0  0
 44115  1  0  0  0
 45 46  2  0  0  0
 45116  1  0  0  0
 46117  1  0  0  0
 47118  1  0  0  0
 47119  1  0  0  0
 48 56  1  0  0  0
 48 65  1  0  0  0
 48120  1  0  0  0
 49 50  1  0  0  0
 49 53  1  0  0  0
 49 64  1  0  0  0
 49121  1  0  0  0
 50 51  1  0  0  0
 50122  1  0  0  0
 50123  1  0  0  0
 51 52  1  0  0  0
 51124  1  0  0  0
 51125  1  0  0  0
 52126  1  0  0  0
 52127  1  0  0  0
 53 54  1  0  0  0
 54 55  2  0  0  0
 54128  1  0  0  0
 55 57  1  0  0  0
 55129  1  0  0  0
 56 69  2  0  0  0
 57 58  2  0  0  0
 57130  1  0  0  0
 58131  1  0  0  0
 59 60  1  0  0  0
 59 61  1  0  0  0
 59 62  1  0  0  0
 60132  1  0  0  0
 60133  1  0  0  0
 60134  1  0  0  0
 61135  1  0  0  0
 61136  1  0  0  0
 61137  1  0  0  0
 62138  1  0  0  0
 62139  1  0  0  0
 62140  1  0  0  0
 63 65  1  0  0  0
 63141  1  0  0  0
 63142  1  0  0  0
 63143  1  0  0  0
 64144  1  0  0  0
 65145  1  0  0  0
 68 80  1  0  0  0
 71 72  2  0  0  0
 71 74  1  0  0  0
 71146  1  0  0  0
 72 75  1  0  0  0
 72147  1  0  0  0
 73 74  2  0  0  0
 73 76  1  0  0  0
 73148  1  0  0  0
 74 77  1  0  0  0
 75 76  2  0  0  0
 75 82  1  0  0  0
 76 86  1  0  0  0
 77 83  1  0  0  0
 77 84  2  0  0  0
 78 80  1  0  0  0
 78 81  1  0  0  0
 78 85  2  0  0  0
 79149  1  0  0  0
 79150  1  0  0  0
 79151  1  0  0  0
 79 81  1  0  0  0
 80152  1  0  0  0
 80153  1  0  0  0
 81 83  1  0  0  0
 81154  1  0  0  0
 82155  1  0  0  0
 83156  1  0  0  0
 84157  1  0  0  0
 84158  1  0  0  0
M  CHG  1  84   1
M  ISO  4   1 100  68 101  80 101  82 100
M  END
> <chiral flag>
0

> <version>
0

> <s_m_source_file>
/data/baiqing/PycharmProjects/Reinvent-master-3.2/result/LINK_invent/BTK/process_docking_weight1_custom_product_contain_oxygen_bond_distance_aromatic_linkinvent_7_9_3/rearranged_h_0077.sdf

> <i_m_source_file_index>
75

> <r_mmod_Potential_Energy-OPLS-2005>
-343.361022949219

> <r_mmod_Stretch_Energy-OPLS-2005>
41.0176734924316

> <r_mmod_Bend_Energy-OPLS-2005>
96.0931549072266

> <r_mmod_Torsional_Energy-OPLS-2005>
249.946731567383

> <r_mmod_Improper_Torsional_Energy-OPLS-2005>
3.89295768737793

> <r_mmod_Van_der_Waal_Energy-OPLS-2005>
147.530654907227

> <r_mmod_Electrostatic_Energy-OPLS-2005>
-452.6435546875

> <r_mmod_Solvation_Energy-OPLS-2005>
-441.269744873047

> <b_mmod_Minimization_Converged-OPLS-2005>
0

> <r_mmod_RMS_Derivative-OPLS-2005>
2.31311631202698

$$$$
75
                    3D
 Structure written by MMmdl.
161171  0  0  1  0            999 V2000
  -30.5649  -14.7890   20.3324 C   0  0  0  0  0  0
  -30.4507  -12.4565   19.4673 C   0  0  0  0  0  0
  -29.5111  -12.4706   18.2369 C   0  0  0  0  0  0
  -28.0386  -12.2778   18.6594 C   0  0  0  0  0  0
  -27.6263  -13.1939   19.8392 C   0  0  2  0  0  0
  -28.6920  -13.1955   20.9617 C   0  0  0  0  0  0
  -25.2526  -13.8061   20.5762 C   0  0  0  0  0  0
  -24.1769  -13.0364   20.9236 C   0  0  0  0  0  0
  -24.6322  -11.6830   20.8793 C   0  0  0  0  0  0
  -23.8998  -10.4242   21.0442 C   0  0  0  0  0  0
  -24.3569   -9.4163   21.9207 C   0  0  0  0  0  0
  -23.6255   -8.2198   22.0762 C   0  0  0  0  0  0
  -22.4241   -8.0248   21.3545 C   0  0  0  0  0  0
  -21.9868   -9.0218   20.4652 C   0  0  0  0  0  0
  -22.7185  -10.2099   20.3074 C   0  0  0  0  0  0
  -21.6835   -6.0713   22.5277 C   0  0  0  0  0  0
  -21.4002   -6.5627   23.8208 C   0  0  0  0  0  0
  -21.3657   -5.6784   24.9174 C   0  0  0  0  0  0
  -21.6047   -4.3048   24.7227 C   0  0  0  0  0  0
  -21.8823   -3.8134   23.4352 C   0  0  0  0  0  0
  -21.9188   -4.6945   22.3404 C   0  0  0  0  0  0
  -22.7808  -13.5205   21.1870 C   0  0  0  0  0  0
  -22.1660   -4.2132   21.0981 F   0  0  0  0  0  0
  -21.5632   -3.4536   25.7743 F   0  0  0  0  0  0
  -30.0069  -13.5269   20.3832 N   0  0  0  0  0  0
  -26.2882  -12.9151   20.3342 N   0  0  0  0  0  0
  -25.9237  -11.6350   20.5818 N   0  0  0  0  0  0
  -22.0431  -12.8221   22.0430 N   0  0  0  0  0  0
  -25.4282  -15.1788   20.4221 N   0  0  0  0  0  0
  -31.7892  -14.9193   20.2683 O   0  0  0  0  0  0
  -21.6615   -6.8844   21.4234 O   0  0  0  0  0  0
  -22.3522  -14.5513   20.6702 O   0  0  0  0  0  0
  -24.6300  -31.8542   23.1981 C   0  0  0  0  0  0
  -25.9130  -32.4745   23.8323 C   0  0  1  0  0  0
  -27.2335  -27.2668   20.1294 C   0  0  0  0  0  0
  -25.5929  -33.8549   24.2245 N   0  0  0  0  0  0
  -23.4274  -30.4746   21.5409 C   0  0  2  0  0  0
  -24.8771  -28.9170   20.1127 C   0  0  0  0  0  0
  -22.7497  -29.4587   22.4916 C   0  0  0  0  0  0
  -18.0289  -28.1390   22.8470 C   0  0  0  0  0  0
  -24.1496  -36.7286   23.2636 C   0  0  0  0  0  0
  -25.9714  -30.7668   21.3788 C   0  0  0  0  0  0
  -26.0452  -29.3890   20.7223 C   0  0  0  0  0  0
  -27.2218  -28.5759   20.7185 C   0  0  0  0  0  0
  -26.0406  -26.8596   19.4885 C   0  0  0  0  0  0
  -24.8797  -27.6606   19.4856 C   0  0  0  0  0  0
  -23.6471  -29.8034   20.1585 C   0  0  0  0  0  0
  -25.4123  -36.3060   24.0314 C   0  0  1  0  0  0
  -20.5886  -28.3695   23.1272 C   0  0  2  0  0  0
  -20.6776  -26.9412   22.5413 C   0  0  0  0  0  0
  -19.5762  -26.6379   21.5208 C   0  0  0  0  0  0
  -18.1937  -26.7929   22.1612 C   0  0  0  0  0  0
  -19.1540  -28.8862   23.2862 C   0  0  0  0  0  0
  -18.9459  -30.1461   23.8882 C   0  0  0  0  0  0
  -17.6458  -30.6588   24.0556 C   0  0  0  0  0  0
  -25.9059  -34.9433   23.5084 C   0  0  0  0  0  0
  -16.5349  -29.9083   23.6328 C   0  0  0  0  0  0
  -16.7273  -28.6503   23.0341 C   0  0  0  0  0  0
  -26.4508  -31.6571   25.0714 C   0  0  0  0  0  0
  -25.3724  -31.3723   26.1428 C   0  0  0  0  0  0
  -27.0363  -30.2983   24.6211 C   0  0  0  0  0  0
  -27.6057  -32.4321   25.7490 C   0  0  0  0  0  0
  -27.5580  -37.1800   24.8459 C   0  0  0  0  0  0
  -21.4202  -29.3037   22.3668 N   0  0  0  0  0  0
  -26.4296  -37.3760   23.9399 N   0  0  0  0  0  0
  -24.6951  -31.0505   22.0957 N   0  0  0  0  0  0
  -23.4202  -28.8129   23.3013 O   0  0  0  0  0  0
  -28.3727  -26.4296   20.1858 O   0  0  0  0  0  0
  -26.5635  -34.8913   22.4656 O   0  0  0  0  0  0
  -23.5455  -32.1363   23.7284 O   0  0  0  0  0  0
  -28.3369  -19.4176   20.4530 C   0  0  0  0  0  0
  -30.7145  -19.3133   20.3261 C   0  0  0  0  0  0
  -28.3713  -20.8321   20.6894 C   0  0  0  0  0  0
  -30.7484  -20.7329   20.5522 C   0  0  0  0  0  0
  -29.4934  -18.5976   20.2594 C   0  0  0  0  0  0
  -29.5884  -21.5563   20.7652 C   0  0  0  0  0  0
  -28.3937  -24.6426   22.4267 C   0  0  0  0  0  0
  -28.7397  -22.9680   24.0333 C   0  0  0  0  0  0
  -29.1100  -24.1708   23.5773 C   0  0  0  0  0  0
  -28.7291  -24.0635   21.2417 C   0  0  0  0  0  0
  -29.2701  -17.1597   19.7617 C   0  0  0  0  0  0
  -29.6246  -15.8109   19.7498 C   0  0  0  0  0  0
  -29.7934  -21.9726   23.6123 C   0  0  0  0  0  0
  -30.5789  -24.1253   23.2636 C   0  0  0  0  0  0
  -30.5284  -22.7959   22.5031 C   0  0  2  0  0  0
  -28.3524  -24.9331   19.9820 C   0  0  0  0  0  0
  -29.6897  -22.9327   21.2478 N   0  0  0  0  0  0
  -31.4862  -12.6011   19.1541 H   0  0  0  0  0  0
  -30.4165  -11.4901   19.9727 H   0  0  0  0  0  0
  -29.7994  -11.6827   17.5399 H   0  0  0  0  0  0
  -29.6220  -13.4092   17.6927 H   0  0  0  0  0  0
  -27.9170  -11.2340   18.9517 H   0  0  0  0  0  0
  -27.3746  -12.4300   17.8078 H   0  0  0  0  0  0
  -27.5363  -14.1819   19.4141 H   0  0  0  0  0  0
  -28.7337  -12.2236   21.4552 H   0  0  0  0  0  0
  -28.4278  -13.9218   21.7323 H   0  0  0  0  0  0
  -25.2712   -9.5642   22.4782 H   0  0  0  0  0  0
  -23.9967   -7.4587   22.7476 H   0  0  0  0  0  0
  -21.0802   -8.8732   19.8955 H   0  0  0  0  0  0
  -22.3649  -10.9644   19.6189 H   0  0  0  0  0  0
  -21.1990   -7.6134   23.9703 H   0  0  0  0  0  0
  -21.1479   -6.0518   25.9075 H   0  0  0  0  0  0
  -22.0607   -2.7597   23.2856 H   0  0  0  0  0  0
  -22.4032  -11.9881   22.4826 H   0  0  0  0  0  0
  -21.1059  -13.1271   22.2643 H   0  0  0  0  0  0
  -24.6710  -15.8408   20.5534 H   0  0  0  0  0  0
  -26.2988  -15.6197   20.1531 H   0  0  0  0  0  0
  -26.7182  -32.5406   23.1055 H   0  0  0  0  0  0
  -25.0073  -33.9678   25.0389 H   0  0  0  0  0  0
  -22.7227  -31.2955   21.3917 H   0  0  0  0  0  0
  -23.3758  -35.9619   23.3299 H   0  0  0  0  0  0
  -24.3580  -36.8918   22.2049 H   0  0  0  0  0  0
  -23.7258  -37.6486   23.6672 H   0  0  0  0  0  0
  -26.1086  -31.5265   20.6086 H   0  0  0  0  0  0
  -26.8497  -30.8165   22.0114 H   0  0  0  0  0  0
  -28.1187  -28.9341   21.2044 H   0  0  0  0  0  0
  -25.9724  -25.9121   18.9779 H   0  0  0  0  0  0
  -23.9871  -27.2957   18.9964 H   0  0  0  0  0  0
  -23.7729  -30.5769   19.4000 H   0  0  0  0  0  0
  -22.7670  -29.2341   19.8539 H   0  0  0  0  0  0
  -25.1311  -36.1893   25.0804 H   0  0  0  0  0  0
  -20.9960  -28.3272   24.1399 H   0  0  0  0  0  0
  -20.5664  -26.2301   23.3616 H   0  0  0  0  0  0
  -21.6647  -26.7437   22.1218 H   0  0  0  0  0  0
  -19.6928  -25.6284   21.1254 H   0  0  0  0  0  0
  -19.6711  -27.3177   20.6730 H   0  0  0  0  0  0
  -17.4206  -26.6657   21.4016 H   0  0  0  0  0  0
  -18.0348  -26.0076   22.9015 H   0  0  0  0  0  0
  -19.7933  -30.7278   24.2248 H   0  0  0  0  0  0
  -17.5011  -31.6263   24.5164 H   0  0  0  0  0  0
  -15.5349  -30.2980   23.7667 H   0  0  0  0  0  0
  -15.8669  -28.0825   22.7061 H   0  0  0  0  0  0
  -24.5905  -30.7066   25.7751 H   0  0  0  0  0  0
  -24.8910  -32.2892   26.4830 H   0  0  0  0  0  0
  -25.8029  -30.8908   27.0214 H   0  0  0  0  0  0
  -26.2949  -29.6715   24.1234 H   0  0  0  0  0  0
  -27.4038  -29.7254   25.4735 H   0  0  0  0  0  0
  -27.8833  -30.4258   23.9467 H   0  0  0  0  0  0
  -27.2658  -33.3626   26.2052 H   0  0  0  0  0  0
  -28.3878  -32.6871   25.0326 H   0  0  0  0  0  0
  -28.0716  -31.8455   26.5417 H   0  0  0  0  0  0
  -28.2590  -38.0102   24.7500 H   0  0  0  0  0  0
  -28.1083  -36.2629   24.6297 H   0  0  0  0  0  0
  -27.2295  -37.1463   25.8861 H   0  0  0  0  0  0
  -20.9398  -29.8736   21.6848 H   0  0  0  0  0  0
  -26.0172  -38.2832   24.1399 H   0  0  0  0  0  0
  -27.3633  -18.9520   20.3928 H   0  0  0  0  0  0
  -31.6419  -18.7883   20.1446 H   0  0  0  0  0  0
  -27.4421  -21.3545   20.8627 H   0  0  0  0  0  0
  -31.7239  -21.1953   20.5767 H   0  0  0  0  0  0
  -27.7866  -25.5356   22.4824 H   0  0  0  0  0  0
  -27.7114  -22.6404   23.9626 H   0  0  0  0  0  0
  -28.4803  -17.2619   19.0290 H   0  0  0  0  0  0
  -29.0482  -15.3406   18.9774 H   0  0  0  0  0  0
  -29.3600  -21.0274   23.2874 H   0  0  0  0  0  0
  -30.4527  -21.7573   24.4549 H   0  0  0  0  0  0
  -31.1834  -24.0797   24.1720 H   0  0  0  0  0  0
  -30.9281  -24.9605   22.6536 H   0  0  0  0  0  0
  -31.5398  -22.4376   22.3111 H   0  0  0  0  0  0
  -29.0570  -24.6970   19.1844 H   0  0  0  0  0  0
  -27.3891  -24.5700   19.6351 H   0  0  0  0  0  0
  1 25  1  0  0  0
  1 30  2  0  0  0
  1 82  1  0  0  0
  2  3  1  0  0  0
  2 25  1  0  0  0
  2 88  1  0  0  0
  2 89  1  0  0  0
  3  4  1  0  0  0
  3 90  1  0  0  0
  3 91  1  0  0  0
  4  5  1  0  0  0
  4 92  1  0  0  0
  4 93  1  0  0  0
  5  6  1  0  0  0
  5 26  1  0  0  0
  5 94  1  0  0  0
  6 25  1  0  0  0
  6 95  1  0  0  0
  6 96  1  0  0  0
  7  8  2  0  0  0
  7 26  1  0  0  0
  7 29  1  0  0  0
  8  9  1  0  0  0
  8 22  1  0  0  0
  9 10  1  0  0  0
  9 27  2  0  0  0
 10 11  2  0  0  0
 10 15  1  0  0  0
 11 12  1  0  0  0
 11 97  1  0  0  0
 12 13  2  0  0  0
 12 98  1  0  0  0
 13 14  1  0  0  0
 13 31  1  0  0  0
 14 15  2  0  0  0
 14 99  1  0  0  0
 15100  1  0  0  0
 16 17  2  0  0  0
 16 21  1  0  0  0
 16 31  1  0  0  0
 17 18  1  0  0  0
 17101  1  0  0  0
 18 19  2  0  0  0
 18102  1  0  0  0
 19 20  1  0  0  0
 19 24  1  0  0  0
 20 21  2  0  0  0
 20103  1  0  0  0
 21 23  1  0  0  0
 22 28  1  0  0  0
 22 32  2  0  0  0
 26 27  1  0  0  0
 28104  1  0  0  0
 28105  1  0  0  0
 29106  1  0  0  0
 29107  1  0  0  0
 33 34  1  0  0  0
 33 66  1  0  0  0
 33 70  2  0  0  0
 34 36  1  0  0  0
 34 59  1  0  0  0
 34108  1  0  0  0
 35 44  2  0  0  0
 35 45  1  0  0  0
 35 68  1  0  0  0
 36 56  1  0  0  0
 36109  1  0  0  0
 37 39  1  0  0  0
 37 47  1  0  0  0
 37 66  1  0  0  0
 37110  1  0  0  0
 38 43  2  0  0  0
 38 46  1  0  0  0
 38 47  1  0  0  0
 39 64  1  0  0  0
 39 67  2  0  0  0
 40 52  1  0  0  0
 40 53  2  0  0  0
 40 58  1  0  0  0
 41111  1  0  0  0
 41112  1  0  0  0
 41113  1  0  0  0
 41 48  1  0  0  0
 42 43  1  0  0  0
 42 66  1  0  0  0
 42114  1  0  0  0
 42115  1  0  0  0
 43 44  1  0  0  0
 44116  1  0  0  0
 45 46  2  0  0  0
 45117  1  0  0  0
 46118  1  0  0  0
 47119  1  0  0  0
 47120  1  0  0  0
 48 56  1  0  0  0
 48 65  1  0  0  0
 48121  1  0  0  0
 49 50  1  0  0  0
 49 53  1  0  0  0
 49 64  1  0  0  0
 49122  1  0  0  0
 50 51  1  0  0  0
 50123  1  0  0  0
 50124  1  0  0  0
 51 52  1  0  0  0
 51125  1  0  0  0
 51126  1  0  0  0
 52127  1  0  0  0
 52128  1  0  0  0
 53 54  1  0  0  0
 54 55  2  0  0  0
 54129  1  0  0  0
 55 57  1  0  0  0
 55130  1  0  0  0
 56 69  2  0  0  0
 57 58  2  0  0  0
 57131  1  0  0  0
 58132  1  0  0  0
 59 60  1  0  0  0
 59 61  1  0  0  0
 59 62  1  0  0  0
 60133  1  0  0  0
 60134  1  0  0  0
 60135  1  0  0  0
 61136  1  0  0  0
 61137  1  0  0  0
 61138  1  0  0  0
 62139  1  0  0  0
 62140  1  0  0  0
 62141  1  0  0  0
 63 65  1  0  0  0
 63142  1  0  0  0
 63143  1  0  0  0
 63144  1  0  0  0
 64145  1  0  0  0
 65146  1  0  0  0
 68 86  1  0  0  0
 71 73  2  0  0  0
 71 75  1  0  0  0
 71147  1  0  0  0
 72 74  1  0  0  0
 72 75  2  0  0  0
 72148  1  0  0  0
 73 76  1  0  0  0
 73149  1  0  0  0
 74 76  2  0  0  0
 74150  1  0  0  0
 75 81  1  0  0  0
 76 87  1  0  0  0
 77 79  1  0  0  0
 77 80  2  0  0  0
 77151  1  0  0  0
 78 79  2  0  0  0
 78 83  1  0  0  0
 78152  1  0  0  0
 79 84  1  0  0  0
 80 86  1  0  0  0
 80 87  1  0  0  0
 81 82  2  0  0  0
 81153  1  0  0  0
 82154  1  0  0  0
 83155  1  0  0  0
 83156  1  0  0  0
 83 85  1  0  0  0
 84 85  1  0  0  0
 84157  1  0  0  0
 84158  1  0  0  0
 85 87  1  0  0  0
 85159  1  0  0  0
 86160  1  0  0  0
 86161  1  0  0  0
M  ISO  4   1 100  68 101  82 100  86 101
M  END
> <chiral flag>
0

> <version>
0

> <s_m_source_file>
/data/baiqing/PycharmProjects/Reinvent-master-3.2/result/LINK_invent/BTK/process_docking_weight1_custom_product_contain_oxygen_bond_distance_aromatic_linkinvent_7_9_3/rearranged_h_0077.sdf

> <i_m_source_file_index>
76

> <r_mmod_Potential_Energy-OPLS-2005>
743.919982910156

> <r_mmod_Stretch_Energy-OPLS-2005>
134.559661865234

> <r_mmod_Bend_Energy-OPLS-2005>
438.018859863281

> <r_mmod_Torsional_Energy-OPLS-2005>
404.454559326172

> <r_mmod_Improper_Torsional_Energy-OPLS-2005>
39.0990715026855

> <r_mmod_Van_der_Waal_Energy-OPLS-2005>
184.721466064453

> <r_mmod_Electrostatic_Energy-OPLS-2005>
-362.29638671875

> <r_mmod_Solvation_Energy-OPLS-2005>
-197.920928955078

> <b_mmod_Minimization_Converged-OPLS-2005>
0

> <r_mmod_RMS_Derivative-OPLS-2005>
1.01280093193054

$$$$
76
                    3D
 Structure written by MMmdl.
157166  0  0  1  0            999 V2000
  -30.6050  -14.8238   20.3977 C   0  0  0  0  0  0
  -30.4337  -12.4955   19.4898 C   0  0  0  0  0  0
  -29.5202  -12.4993   18.2439 C   0  0  0  0  0  0
  -28.0447  -12.3253   18.6555 C   0  0  0  0  0  0
  -27.6359  -13.2455   19.8371 C   0  0  2  0  0  0
  -28.6817  -13.2372   20.9744 C   0  0  0  0  0  0
  -25.2489  -13.8233   20.5684 C   0  0  0  0  0  0
  -24.1790  -13.0457   20.9205 C   0  0  0  0  0  0
  -24.6397  -11.6935   20.8727 C   0  0  0  0  0  0
  -23.9082  -10.4298   21.0394 C   0  0  0  0  0  0
  -24.3617   -9.4206   21.9176 C   0  0  0  0  0  0
  -23.6286   -8.2251   22.0755 C   0  0  0  0  0  0
  -22.4272   -8.0287   21.3549 C   0  0  0  0  0  0
  -21.9898   -9.0263   20.4657 C   0  0  0  0  0  0
  -22.7241  -10.2135   20.3055 C   0  0  0  0  0  0
  -21.6859   -6.0719   22.5270 C   0  0  0  0  0  0
  -21.4022   -6.5623   23.8197 C   0  0  0  0  0  0
  -21.3658   -5.6781   24.9162 C   0  0  0  0  0  0
  -21.6047   -4.3045   24.7215 C   0  0  0  0  0  0
  -21.8825   -3.8130   23.4343 C   0  0  0  0  0  0
  -21.9188   -4.6946   22.3392 C   0  0  0  0  0  0
  -22.7808  -13.5226   21.1867 C   0  0  0  0  0  0
  -22.1664   -4.2127   21.0967 F   0  0  0  0  0  0
  -21.5619   -3.4527   25.7734 F   0  0  0  0  0  0
  -29.9750  -13.5923   20.3800 N   0  0  0  0  0  0
  -26.2921  -12.9463   20.3228 N   0  0  0  0  0  0
  -25.9332  -11.6591   20.5720 N   0  0  0  0  0  0
  -22.0463  -12.8214   22.0427 N   0  0  0  0  0  0
  -25.4181  -15.1956   20.4078 N   0  0  0  0  0  0
  -31.8162  -14.8566   20.1700 O   0  0  0  0  0  0
  -21.6655   -6.8875   21.4235 O   0  0  0  0  0  0
  -22.3479  -14.5517   20.6703 O   0  0  0  0  0  0
  -24.6388  -31.8501   23.1931 C   0  0  0  0  0  0
  -25.9187  -32.4731   23.8293 C   0  0  1  0  0  0
  -27.2121  -27.2103   20.1099 C   0  0  0  0  0  0
  -25.5965  -33.8528   24.2218 N   0  0  0  0  0  0
  -23.4363  -30.4740   21.5395 C   0  0  2  0  0  0
  -24.8778  -28.9141   20.1067 C   0  0  0  0  0  0
  -22.7530  -29.4585   22.4886 C   0  0  0  0  0  0
  -18.0313  -28.1383   22.8483 C   0  0  0  0  0  0
  -24.1487  -36.7271   23.2635 C   0  0  0  0  0  0
  -25.9883  -30.7475   21.3781 C   0  0  0  0  0  0
  -26.0572  -29.3678   20.7103 C   0  0  0  0  0  0
  -27.2262  -28.5298   20.6970 C   0  0  0  0  0  0
  -25.9926  -26.8248   19.5112 C   0  0  0  0  0  0
  -24.8524  -27.6514   19.4981 C   0  0  0  0  0  0
  -23.6543  -29.8111   20.1551 C   0  0  0  0  0  0
  -25.4113  -36.3054   24.0318 C   0  0  1  0  0  0
  -20.5917  -28.3712   23.1247 C   0  0  2  0  0  0
  -20.6798  -26.9421   22.5403 C   0  0  0  0  0  0
  -19.5770  -26.6374   21.5209 C   0  0  0  0  0  0
  -18.1950  -26.7926   22.1620 C   0  0  0  0  0  0
  -19.1563  -28.8864   23.2862 C   0  0  0  0  0  0
  -18.9482  -30.1454   23.8894 C   0  0  0  0  0  0
  -17.6473  -30.6582   24.0566 C   0  0  0  0  0  0
  -25.9069  -34.9427   23.5073 C   0  0  0  0  0  0
  -16.5371  -29.9068   23.6333 C   0  0  0  0  0  0
  -16.7294  -28.6491   23.0357 C   0  0  0  0  0  0
  -26.4514  -31.6583   25.0717 C   0  0  0  0  0  0
  -25.3704  -31.3793   26.1428 C   0  0  0  0  0  0
  -27.0348  -30.2976   24.6264 C   0  0  0  0  0  0
  -27.6046  -32.4339   25.7511 C   0  0  0  0  0  0
  -27.5583  -37.1788   24.8448 C   0  0  0  0  0  0
  -21.4234  -29.3046   22.3627 N   0  0  0  0  0  0
  -26.4279  -37.3765   23.9417 N   0  0  0  0  0  0
  -24.7079  -31.0414   22.0939 N   0  0  0  0  0  0
  -23.4194  -28.8130   23.3015 O   0  0  0  0  0  0
  -28.2889  -26.2745   20.1939 O   0  0  0  0  0  0
  -26.5637  -34.8918   22.4644 O   0  0  0  0  0  0
  -23.5527  -32.1349   23.7197 O   0  0  0  0  0  0
  -30.5027  -19.9187   18.5764 C   0  0  0  0  0  0
  -31.0492  -18.7179   18.0909 C   0  0  0  0  0  0
  -29.5182  -18.6667   20.4091 C   0  0  0  0  0  0
  -29.6910  -19.9696   19.7346 C   0  0  0  0  0  0
  -30.0805  -17.3850   19.9271 C   0  0  0  0  0  0
  -30.8259  -17.4819   18.7221 C   0  0  0  0  0  0
  -28.6241  -23.7192   20.0513 C   0  0  0  0  0  0
  -28.8019  -23.3085   21.4263 C   0  0  0  0  0  0
  -28.8229  -22.4200   19.3011 C   0  0  0  0  0  0
  -28.6650  -24.1118   22.4952 C   0  0  0  0  0  0
  -28.3468  -25.0003   19.5129 C   0  0  0  0  0  0
  -29.1241  -21.8128   21.5188 C   0  0  0  0  0  0
  -28.2144  -25.2126   18.0055 C   0  0  0  0  0  0
  -29.1741  -21.3448   20.1288 N   0  0  0  0  0  0
  -29.8556  -16.0083   20.5136 N   0  0  0  0  0  0
  -28.6714  -22.2819   18.0811 O   0  0  0  0  0  0
  -31.3067  -16.3812   18.0967 F   0  0  0  0  0  0
  -31.4756  -12.6128   19.1869 H   0  0  0  0  0  0
  -30.3808  -11.5378   20.0085 H   0  0  0  0  0  0
  -29.8101  -11.6989   17.5620 H   0  0  0  0  0  0
  -29.6489  -13.4332   17.6949 H   0  0  0  0  0  0
  -27.9050  -11.2796   18.9351 H   0  0  0  0  0  0
  -27.3948  -12.5021   17.7972 H   0  0  0  0  0  0
  -27.6115  -14.2552   19.4254 H   0  0  0  0  0  0
  -28.7320  -12.2575   21.4517 H   0  0  0  0  0  0
  -28.4103  -13.9525   21.7528 H   0  0  0  0  0  0
  -25.2761   -9.5662   22.4749 H   0  0  0  0  0  0
  -23.9980   -7.4628   22.7467 H   0  0  0  0  0  0
  -21.0826   -8.8779   19.8966 H   0  0  0  0  0  0
  -22.3702  -10.9656   19.6148 H   0  0  0  0  0  0
  -21.2038   -7.6135   23.9690 H   0  0  0  0  0  0
  -21.1474   -6.0519   25.9056 H   0  0  0  0  0  0
  -22.0607   -2.7594   23.2862 H   0  0  0  0  0  0
  -22.4084  -11.9881   22.4825 H   0  0  0  0  0  0
  -21.1072  -13.1227   22.2638 H   0  0  0  0  0  0
  -24.6545  -15.8541   20.5141 H   0  0  0  0  0  0
  -26.2596  -15.6247   20.0455 H   0  0  0  0  0  0
  -26.7258  -32.5348   23.1026 H   0  0  0  0  0  0
  -25.0133  -33.9644   25.0384 H   0  0  0  0  0  0
  -22.7380  -31.3005   21.3933 H   0  0  0  0  0  0
  -23.3759  -35.9591   23.3260 H   0  0  0  0  0  0
  -24.3596  -36.8934   22.2061 H   0  0  0  0  0  0
  -23.7217  -37.6449   23.6688 H   0  0  0  0  0  0
  -26.1359  -31.5137   20.6158 H   0  0  0  0  0  0
  -26.8618  -30.7900   22.0177 H   0  0  0  0  0  0
  -28.1312  -28.8699   21.1796 H   0  0  0  0  0  0
  -25.8826  -25.8417   19.0802 H   0  0  0  0  0  0
  -23.9425  -27.2878   19.0412 H   0  0  0  0  0  0
  -23.7892  -30.5896   19.4033 H   0  0  0  0  0  0
  -22.7676  -29.2557   19.8437 H   0  0  0  0  0  0
  -25.1290  -36.1895   25.0806 H   0  0  0  0  0  0
  -21.0013  -28.3300   24.1364 H   0  0  0  0  0  0
  -20.5700  -26.2317   23.3611 H   0  0  0  0  0  0
  -21.6670  -26.7442   22.1203 H   0  0  0  0  0  0
  -19.6932  -25.6277   21.1251 H   0  0  0  0  0  0
  -19.6695  -27.3171   20.6723 H   0  0  0  0  0  0
  -17.4216  -26.6678   21.4022 H   0  0  0  0  0  0
  -18.0349  -26.0060   22.9011 H   0  0  0  0  0  0
  -19.7951  -30.7278   24.2257 H   0  0  0  0  0  0
  -17.5025  -31.6259   24.5164 H   0  0  0  0  0  0
  -15.5364  -30.2966   23.7656 H   0  0  0  0  0  0
  -15.8701  -28.0795   22.7077 H   0  0  0  0  0  0
  -24.5851  -30.7177   25.7768 H   0  0  0  0  0  0
  -24.8940  -32.2994   26.4821 H   0  0  0  0  0  0
  -25.7990  -30.8985   27.0229 H   0  0  0  0  0  0
  -26.2945  -29.6732   24.1255 H   0  0  0  0  0  0
  -27.3946  -29.7257   25.4828 H   0  0  0  0  0  0
  -27.8864  -30.4214   23.9568 H   0  0  0  0  0  0
  -27.2623  -33.3630   26.2086 H   0  0  0  0  0  0
  -28.3867  -32.6922   25.0358 H   0  0  0  0  0  0
  -28.0700  -31.8472   26.5445 H   0  0  0  0  0  0
  -28.2564  -38.0123   24.7555 H   0  0  0  0  0  0
  -28.1122  -36.2663   24.6190 H   0  0  0  0  0  0
  -27.2329  -37.1335   25.8856 H   0  0  0  0  0  0
  -20.9421  -29.8761   21.6831 H   0  0  0  0  0  0
  -26.0151  -38.2833   24.1444 H   0  0  0  0  0  0
  -30.7326  -20.8178   18.0236 H   0  0  0  0  0  0
  -31.6438  -18.7374   17.1883 H   0  0  0  0  0  0
  -28.9207  -18.6466   21.3091 H   0  0  0  0  0  0
  -28.4103  -25.1570   22.3977 H   0  0  0  0  0  0
  -28.7954  -23.7308   23.4978 H   0  0  0  0  0  0
  -28.3493  -21.2791   22.0701 H   0  0  0  0  0  0
  -30.0835  -21.6537   22.0119 H   0  0  0  0  0  0
  -27.3315  -24.6944   17.6291 H   0  0  0  0  0  0
  -29.0858  -24.8225   17.4806 H   0  0  0  0  0  0
  -28.1236  -26.2656   17.7376 H   0  0  0  0  0  0
  -28.9389  -15.8683   20.9107 H   0  0  0  0  0  0
  1 25  1  0  0  0
  1 30  2  0  0  0
  1 85  1  0  0  0
  2  3  1  0  0  0
  2 25  1  0  0  0
  2 88  1  0  0  0
  2 89  1  0  0  0
  3  4  1  0  0  0
  3 90  1  0  0  0
  3 91  1  0  0  0
  4  5  1  0  0  0
  4 92  1  0  0  0
  4 93  1  0  0  0
  5  6  1  0  0  0
  5 26  1  0  0  0
  5 94  1  0  0  0
  6 25  1  0  0  0
  6 95  1  0  0  0
  6 96  1  0  0  0
  7  8  2  0  0  0
  7 26  1  0  0  0
  7 29  1  0  0  0
  8  9  1  0  0  0
  8 22  1  0  0  0
  9 10  1  0  0  0
  9 27  2  0  0  0
 10 11  2  0  0  0
 10 15  1  0  0  0
 11 12  1  0  0  0
 11 97  1  0  0  0
 12 13  2  0  0  0
 12 98  1  0  0  0
 13 14  1  0  0  0
 13 31  1  0  0  0
 14 15  2  0  0  0
 14 99  1  0  0  0
 15100  1  0  0  0
 16 17  2  0  0  0
 16 21  1  0  0  0
 16 31  1  0  0  0
 17 18  1  0  0  0
 17101  1  0  0  0
 18 19  2  0  0  0
 18102  1  0  0  0
 19 20  1  0  0  0
 19 24  1  0  0  0
 20 21  2  0  0  0
 20103  1  0  0  0
 21 23  1  0  0  0
 22 28  1  0  0  0
 22 32  2  0  0  0
 26 27  1  0  0  0
 28104  1  0  0  0
 28105  1  0  0  0
 29106  1  0  0  0
 29107  1  0  0  0
 33 34  1  0  0  0
 33 66  1  0  0  0
 33 70  2  0  0  0
 34 36  1  0  0  0
 34 59  1  0  0  0
 34108  1  0  0  0
 35 44  2  0  0  0
 35 45  1  0  0  0
 35 68  1  0  0  0
 36 56  1  0  0  0
 36109  1  0  0  0
 37 39  1  0  0  0
 37 47  1  0  0  0
 37 66  1  0  0  0
 37110  1  0  0  0
 38 43  2  0  0  0
 38 46  1  0  0  0
 38 47  1  0  0  0
 39 64  1  0  0  0
 39 67  2  0  0  0
 40 52  1  0  0  0
 40 53  2  0  0  0
 40 58  1  0  0  0
 41111  1  0  0  0
 41112  1  0  0  0
 41113  1  0  0  0
 41 48  1  0  0  0
 42 43  1  0  0  0
 42 66  1  0  0  0
 42114  1  0  0  0
 42115  1  0  0  0
 43 44  1  0  0  0
 44116  1  0  0  0
 45 46  2  0  0  0
 45117  1  0  0  0
 46118  1  0  0  0
 47119  1  0  0  0
 47120  1  0  0  0
 48 56  1  0  0  0
 48 65  1  0  0  0
 48121  1  0  0  0
 49 50  1  0  0  0
 49 53  1  0  0  0
 49 64  1  0  0  0
 49122  1  0  0  0
 50 51  1  0  0  0
 50123  1  0  0  0
 50124  1  0  0  0
 51 52  1  0  0  0
 51125  1  0  0  0
 51126  1  0  0  0
 52127  1  0  0  0
 52128  1  0  0  0
 53 54  1  0  0  0
 54 55  2  0  0  0
 54129  1  0  0  0
 55 57  1  0  0  0
 55130  1  0  0  0
 56 69  2  0  0  0
 57 58  2  0  0  0
 57131  1  0  0  0
 58132  1  0  0  0
 59 60  1  0  0  0
 59 61  1  0  0  0
 59 62  1  0  0  0
 60133  1  0  0  0
 60134  1  0  0  0
 60135  1  0  0  0
 61136  1  0  0  0
 61137  1  0  0  0
 61138  1  0  0  0
 62139  1  0  0  0
 62140  1  0  0  0
 62141  1  0  0  0
 63 65  1  0  0  0
 63142  1  0  0  0
 63143  1  0  0  0
 63144  1  0  0  0
 64145  1  0  0  0
 65146  1  0  0  0
 68 81  1  0  0  0
 71 72  2  0  0  0
 71 74  1  0  0  0
 71147  1  0  0  0
 72 76  1  0  0  0
 72148  1  0  0  0
 73 74  2  0  0  0
 73 75  1  0  0  0
 73149  1  0  0  0
 74 84  1  0  0  0
 75 76  2  0  0  0
 75 85  1  0  0  0
 76 87  1  0  0  0
 77 78  1  0  0  0
 77 79  1  0  0  0
 77 81  2  0  0  0
 78 80  2  0  0  0
 78 82  1  0  0  0
 79 84  1  0  0  0
 79 86  2  0  0  0
 80150  1  0  0  0
 80151  1  0  0  0
 81 83  1  0  0  0
 82 84  1  0  0  0
 82152  1  0  0  0
 82153  1  0  0  0
 83154  1  0  0  0
 83155  1  0  0  0
 83156  1  0  0  0
 85157  1  0  0  0
M  ISO  4   1 100  68 101  81 101  85 100
M  END
> <chiral flag>
0

> <version>
0

> <s_m_source_file>
/data/baiqing/PycharmProjects/Reinvent-master-3.2/result/LINK_invent/BTK/process_docking_weight1_custom_product_contain_oxygen_bond_distance_aromatic_linkinvent_7_9_3/rearranged_h_0077.sdf

> <i_m_source_file_index>
77

> <r_mmod_Potential_Energy-OPLS-2005>
439.645965576172

> <r_mmod_Stretch_Energy-OPLS-2005>
171.615524291992

> <r_mmod_Bend_Energy-OPLS-2005>
227.797286987305

> <r_mmod_Torsional_Energy-OPLS-2005>
291.046539306641

> <r_mmod_Improper_Torsional_Energy-OPLS-2005>
4.73177289962769

> <r_mmod_Van_der_Waal_Energy-OPLS-2005>
147.009201049805

> <r_mmod_Electrostatic_Energy-OPLS-2005>
-316.897674560547

> <r_mmod_Solvation_Energy-OPLS-2005>
-211.545837402344

> <b_mmod_Minimization_Converged-OPLS-2005>
0

> <r_mmod_RMS_Derivative-OPLS-2005>
2.68913888931274

$$$$
77
                    3D
 Structure written by MMmdl.
154162  0  0  1  0            999 V2000
  -30.5793  -14.6924   20.4697 C   0  0  0  0  0  0
  -30.4424  -12.4130   19.4690 C   0  0  0  0  0  0
  -29.5194  -12.4892   18.2300 C   0  0  0  0  0  0
  -28.0339  -12.3549   18.6269 C   0  0  0  0  0  0
  -27.6509  -13.2218   19.8575 C   0  0  2  0  0  0
  -28.6909  -13.0809   20.9893 C   0  0  0  0  0  0
  -25.2532  -13.8181   20.5678 C   0  0  0  0  0  0
  -24.1811  -13.0443   20.9211 C   0  0  0  0  0  0
  -24.6384  -11.6918   20.8744 C   0  0  0  0  0  0
  -23.9053  -10.4292   21.0393 C   0  0  0  0  0  0
  -24.3610   -9.4207   21.9171 C   0  0  0  0  0  0
  -23.6281   -8.2236   22.0730 C   0  0  0  0  0  0
  -22.4262   -8.0280   21.3522 C   0  0  0  0  0  0
  -21.9904   -9.0260   20.4632 C   0  0  0  0  0  0
  -22.7224  -10.2139   20.3039 C   0  0  0  0  0  0
  -21.6860   -6.0720   22.5262 C   0  0  0  0  0  0
  -21.4038   -6.5623   23.8198 C   0  0  0  0  0  0
  -21.3677   -5.6779   24.9166 C   0  0  0  0  0  0
  -21.6029   -4.3031   24.7224 C   0  0  0  0  0  0
  -21.8826   -3.8120   23.4351 C   0  0  0  0  0  0
  -21.9198   -4.6946   22.3403 C   0  0  0  0  0  0
  -22.7816  -13.5232   21.1856 C   0  0  0  0  0  0
  -22.1658   -4.2111   21.0989 F   0  0  0  0  0  0
  -21.5624   -3.4527   25.7748 F   0  0  0  0  0  0
  -29.9994  -13.4479   20.4266 N   0  0  0  0  0  0
  -26.2957  -12.9376   20.3242 N   0  0  0  0  0  0
  -25.9311  -11.6529   20.5683 N   0  0  0  0  0  0
  -22.0444  -12.8254   22.0430 N   0  0  0  0  0  0
  -25.4193  -15.1898   20.4095 N   0  0  0  0  0  0
  -31.7518  -14.8524   20.1111 O   0  0  0  0  0  0
  -21.6647   -6.8859   21.4215 O   0  0  0  0  0  0
  -22.3506  -14.5526   20.6671 O   0  0  0  0  0  0
  -24.6307  -31.8613   23.2010 C   0  0  0  0  0  0
  -25.9160  -32.4791   23.8338 C   0  0  1  0  0  0
  -27.2173  -27.3040   20.1129 C   0  0  0  0  0  0
  -25.6009  -33.8587   24.2314 N   0  0  0  0  0  0
  -23.4236  -30.4886   21.5406 C   0  0  2  0  0  0
  -24.8712  -28.9385   20.1102 C   0  0  0  0  0  0
  -22.7465  -29.4680   22.4873 C   0  0  0  0  0  0
  -18.0302  -28.1417   22.8476 C   0  0  0  0  0  0
  -24.1498  -36.7293   23.2621 C   0  0  0  0  0  0
  -25.9653  -30.7833   21.3770 C   0  0  0  0  0  0
  -26.0383  -29.4051   20.7289 C   0  0  0  0  0  0
  -27.2155  -28.5941   20.7326 C   0  0  0  0  0  0
  -26.0327  -26.9019   19.4564 C   0  0  0  0  0  0
  -24.8686  -27.6915   19.4658 C   0  0  0  0  0  0
  -23.6457  -29.8288   20.1536 C   0  0  0  0  0  0
  -25.4112  -36.3085   24.0335 C   0  0  1  0  0  0
  -20.5896  -28.3754   23.1259 C   0  0  2  0  0  0
  -20.6806  -26.9477   22.5397 C   0  0  0  0  0  0
  -19.5787  -26.6416   21.5208 C   0  0  0  0  0  0
  -18.1959  -26.7956   22.1618 C   0  0  0  0  0  0
  -19.1543  -28.8888   23.2887 C   0  0  0  0  0  0
  -18.9464  -30.1468   23.8938 C   0  0  0  0  0  0
  -17.6467  -30.6615   24.0576 C   0  0  0  0  0  0
  -25.9055  -34.9461   23.5114 C   0  0  0  0  0  0
  -16.5364  -29.9130   23.6306 C   0  0  0  0  0  0
  -16.7282  -28.6543   23.0332 C   0  0  0  0  0  0
  -26.4525  -31.6567   25.0687 C   0  0  0  0  0  0
  -25.3758  -31.3705   26.1420 C   0  0  0  0  0  0
  -27.0350  -30.2997   24.6092 C   0  0  0  0  0  0
  -27.6115  -32.4246   25.7460 C   0  0  0  0  0  0
  -27.5579  -37.1817   24.8461 C   0  0  0  0  0  0
  -21.4173  -29.3135   22.3649 N   0  0  0  0  0  0
  -26.4281  -37.3783   23.9416 N   0  0  0  0  0  0
  -24.6920  -31.0603   22.0974 N   0  0  0  0  0  0
  -23.4184  -28.8188   23.2934 O   0  0  0  0  0  0
  -28.3101  -26.4217   20.0651 O   0  0  0  0  0  0
  -26.5562  -34.8930   22.4640 O   0  0  0  0  0  0
  -23.5479  -32.1413   23.7351 O   0  0  0  0  0  0
  -28.5328  -19.3736   20.2630 C   0  0  0  0  0  0
  -30.9105  -19.3529   19.9453 C   0  0  0  0  0  0
  -28.5835  -17.9705   20.5475 C   0  0  0  0  0  0
  -30.9596  -17.9499   20.2158 C   0  0  0  0  0  0
  -29.7013  -20.1113   19.9415 C   0  0  0  0  0  0
  -29.7873  -17.2006   20.5049 C   0  0  0  0  0  0
  -29.6787  -21.5677   19.4066 C   0  0  0  0  0  0
  -28.9496  -23.8949   19.6988 C   0  0  0  0  0  0
  -28.1753  -25.0395   20.4875 C   0  0  0  0  0  0
  -28.5234  -24.0615   17.1624 C   0  0  0  0  0  0
  -29.4694  -24.4066   18.3308 C   0  0  0  0  0  0
  -29.0533  -22.6361   20.1251 N   0  0  0  0  0  0
  -29.7349  -15.7476   20.7562 N   0  0  0  0  0  0
  -30.2870  -21.6932   18.3447 O   0  0  0  0  0  0
  -27.4182  -24.7283   21.4131 O   0  0  0  0  0  0
  -31.4829  -12.5490   19.1681 H   0  0  0  0  0  0
  -30.3911  -11.4254   19.9284 H   0  0  0  0  0  0
  -29.7869  -11.6951   17.5293 H   0  0  0  0  0  0
  -29.6795  -13.4288   17.6990 H   0  0  0  0  0  0
  -27.8483  -11.3039   18.8457 H   0  0  0  0  0  0
  -27.3967  -12.6012   17.7771 H   0  0  0  0  0  0
  -27.6687  -14.2580   19.5197 H   0  0  0  0  0  0
  -28.7127  -12.0565   21.3660 H   0  0  0  0  0  0
  -28.4287  -13.7033   21.8429 H   0  0  0  0  0  0
  -25.2761   -9.5693   22.4743 H   0  0  0  0  0  0
  -23.9982   -7.4640   22.7483 H   0  0  0  0  0  0
  -21.0809   -8.8809   19.8967 H   0  0  0  0  0  0
  -22.3686  -10.9686   19.6147 H   0  0  0  0  0  0
  -21.2056   -7.6130   23.9705 H   0  0  0  0  0  0
  -21.1476   -6.0503   25.9067 H   0  0  0  0  0  0
  -22.0591   -2.7573   23.2869 H   0  0  0  0  0  0
  -22.4095  -11.9987   22.4932 H   0  0  0  0  0  0
  -21.1028  -13.1247   22.2528 H   0  0  0  0  0  0
  -24.6412  -15.8305   20.5276 H   0  0  0  0  0  0
  -26.2280  -15.6214   19.9812 H   0  0  0  0  0  0
  -26.7217  -32.5457   23.1078 H   0  0  0  0  0  0
  -25.0302  -33.9701   25.0565 H   0  0  0  0  0  0
  -22.7192  -31.3101   21.3952 H   0  0  0  0  0  0
  -23.3764  -35.9622   23.3270 H   0  0  0  0  0  0
  -24.3580  -36.8905   22.2030 H   0  0  0  0  0  0
  -23.7253  -37.6502   23.6627 H   0  0  0  0  0  0
  -26.0875  -31.5372   20.5985 H   0  0  0  0  0  0
  -26.8490  -30.8399   21.9995 H   0  0  0  0  0  0
  -28.1100  -28.9412   21.2317 H   0  0  0  0  0  0
  -26.0031  -25.9588   18.9291 H   0  0  0  0  0  0
  -23.9814  -27.3401   18.9557 H   0  0  0  0  0  0
  -23.7839  -30.6077   19.4016 H   0  0  0  0  0  0
  -22.7618  -29.2746   19.8362 H   0  0  0  0  0  0
  -25.1298  -36.1909   25.0826 H   0  0  0  0  0  0
  -21.0000  -28.3354   24.1378 H   0  0  0  0  0  0
  -20.5714  -26.2380   23.3605 H   0  0  0  0  0  0
  -21.6676  -26.7536   22.1196 H   0  0  0  0  0  0
  -19.6963  -25.6314   21.1277 H   0  0  0  0  0  0
  -19.6722  -27.3190   20.6699 H   0  0  0  0  0  0
  -17.4232  -26.6677   21.4023 H   0  0  0  0  0  0
  -18.0387  -26.0097   22.9019 H   0  0  0  0  0  0
  -19.7929  -30.7264   24.2352 H   0  0  0  0  0  0
  -17.5027  -31.6284   24.5200 H   0  0  0  0  0  0
  -15.5367  -30.3076   23.7583 H   0  0  0  0  0  0
  -15.8672  -28.0882   22.7040 H   0  0  0  0  0  0
  -24.5961  -30.7017   25.7763 H   0  0  0  0  0  0
  -24.8925  -32.2878   26.4795 H   0  0  0  0  0  0
  -25.8106  -30.8929   27.0211 H   0  0  0  0  0  0
  -26.2911  -29.6738   24.1156 H   0  0  0  0  0  0
  -27.4126  -29.7238   25.4547 H   0  0  0  0  0  0
  -27.8747  -30.4297   23.9256 H   0  0  0  0  0  0
  -27.2778  -33.3553   26.2045 H   0  0  0  0  0  0
  -28.3941  -32.6756   25.0293 H   0  0  0  0  0  0
  -28.0754  -31.8330   26.5355 H   0  0  0  0  0  0
  -28.2607  -38.0103   24.7514 H   0  0  0  0  0  0
  -28.1063  -36.2645   24.6287 H   0  0  0  0  0  0
  -27.2292  -37.1487   25.8856 H   0  0  0  0  0  0
  -20.9321  -29.8915   21.6927 H   0  0  0  0  0  0
  -26.0159  -38.2855   24.1412 H   0  0  0  0  0  0
  -27.5745  -19.8762   20.2541 H   0  0  0  0  0  0
  -31.8308  -19.8487   19.6674 H   0  0  0  0  0  0
  -27.6498  -17.4755   20.7740 H   0  0  0  0  0  0
  -31.9177  -17.4489   20.1800 H   0  0  0  0  0  0
  -28.8364  -24.5606   16.2436 H   0  0  0  0  0  0
  -27.5035  -24.3877   17.3713 H   0  0  0  0  0  0
  -28.4951  -22.9914   16.9576 H   0  0  0  0  0  0
  -30.4827  -24.0638   18.1441 H   0  0  0  0  0  0
  -29.5975  -25.4870   18.3366 H   0  0  0  0  0  0
  -28.8289  -15.4218   21.0582 H   0  0  0  0  0  0
  1 25  1  0  0  0
  1 30  2  0  0  0
  1 83  1  0  0  0
  2  3  1  0  0  0
  2 25  1  0  0  0
  2 86  1  0  0  0
  2 87  1  0  0  0
  3  4  1  0  0  0
  3 88  1  0  0  0
  3 89  1  0  0  0
  4  5  1  0  0  0
  4 90  1  0  0  0
  4 91  1  0  0  0
  5  6  1  0  0  0
  5 26  1  0  0  0
  5 92  1  0  0  0
  6 25  1  0  0  0
  6 93  1  0  0  0
  6 94  1  0  0  0
  7  8  2  0  0  0
  7 26  1  0  0  0
  7 29  1  0  0  0
  8  9  1  0  0  0
  8 22  1  0  0  0
  9 10  1  0  0  0
  9 27  2  0  0  0
 10 11  2  0  0  0
 10 15  1  0  0  0
 11 12  1  0  0  0
 11 95  1  0  0  0
 12 13  2  0  0  0
 12 96  1  0  0  0
 13 14  1  0  0  0
 13 31  1  0  0  0
 14 15  2  0  0  0
 14 97  1  0  0  0
 15 98  1  0  0  0
 16 17  2  0  0  0
 16 21  1  0  0  0
 16 31  1  0  0  0
 17 18  1  0  0  0
 17 99  1  0  0  0
 18 19  2  0  0  0
 18100  1  0  0  0
 19 20  1  0  0  0
 19 24  1  0  0  0
 20 21  2  0  0  0
 20101  1  0  0  0
 21 23  1  0  0  0
 22 28  1  0  0  0
 22 32  2  0  0  0
 26 27  1  0  0  0
 28102  1  0  0  0
 28103  1  0  0  0
 29104  1  0  0  0
 29105  1  0  0  0
 33 34  1  0  0  0
 33 66  1  0  0  0
 33 70  2  0  0  0
 34 36  1  0  0  0
 34 59  1  0  0  0
 34106  1  0  0  0
 35 44  2  0  0  0
 35 45  1  0  0  0
 35 68  1  0  0  0
 36 56  1  0  0  0
 36107  1  0  0  0
 37 39  1  0  0  0
 37 47  1  0  0  0
 37 66  1  0  0  0
 37108  1  0  0  0
 38 43  2  0  0  0
 38 46  1  0  0  0
 38 47  1  0  0  0
 39 64  1  0  0  0
 39 67  2  0  0  0
 40 52  1  0  0  0
 40 53  2  0  0  0
 40 58  1  0  0  0
 41109  1  0  0  0
 41110  1  0  0  0
 41111  1  0  0  0
 41 48  1  0  0  0
 42 43  1  0  0  0
 42 66  1  0  0  0
 42112  1  0  0  0
 42113  1  0  0  0
 43 44  1  0  0  0
 44114  1  0  0  0
 45 46  2  0  0  0
 45115  1  0  0  0
 46116  1  0  0  0
 47117  1  0  0  0
 47118  1  0  0  0
 48 56  1  0  0  0
 48 65  1  0  0  0
 48119  1  0  0  0
 49 50  1  0  0  0
 49 53  1  0  0  0
 49 64  1  0  0  0
 49120  1  0  0  0
 50 51  1  0  0  0
 50121  1  0  0  0
 50122  1  0  0  0
 51 52  1  0  0  0
 51123  1  0  0  0
 51124  1  0  0  0
 52125  1  0  0  0
 52126  1  0  0  0
 53 54  1  0  0  0
 54 55  2  0  0  0
 54127  1  0  0  0
 55 57  1  0  0  0
 55128  1  0  0  0
 56 69  2  0  0  0
 57 58  2  0  0  0
 57129  1  0  0  0
 58130  1  0  0  0
 59 60  1  0  0  0
 59 61  1  0  0  0
 59 62  1  0  0  0
 60131  1  0  0  0
 60132  1  0  0  0
 60133  1  0  0  0
 61134  1  0  0  0
 61135  1  0  0  0
 61136  1  0  0  0
 62137  1  0  0  0
 62138  1  0  0  0
 62139  1  0  0  0
 63 65  1  0  0  0
 63140  1  0  0  0
 63141  1  0  0  0
 63142  1  0  0  0
 64143  1  0  0  0
 65144  1  0  0  0
 68 79  1  0  0  0
 71 73  2  0  0  0
 71 75  1  0  0  0
 71145  1  0  0  0
 72 74  1  0  0  0
 72 75  2  0  0  0
 72146  1  0  0  0
 73 76  1  0  0  0
 73147  1  0  0  0
 74 76  2  0  0  0
 74148  1  0  0  0
 75 77  1  0  0  0
 76 83  1  0  0  0
 77 82  1  0  0  0
 77 84  2  0  0  0
 78 79  1  0  0  0
 78 81  1  0  0  0
 78 82  2  0  0  0
 79 85  2  0  0  0
 80 81  1  0  0  0
 80149  1  0  0  0
 80150  1  0  0  0
 80151  1  0  0  0
 81152  1  0  0  0
 81153  1  0  0  0
 83154  1  0  0  0
M  ISO  4   1 100  68 101  79 101  83 100
M  END
> <chiral flag>
0

> <version>
0

> <s_m_source_file>
/data/baiqing/PycharmProjects/Reinvent-master-3.2/result/LINK_invent/BTK/process_docking_weight1_custom_product_contain_oxygen_bond_distance_aromatic_linkinvent_7_9_3/rearranged_h_0077.sdf

> <i_m_source_file_index>
78

> <r_mmod_Potential_Energy-OPLS-2005>
176.291244506836

> <r_mmod_Stretch_Energy-OPLS-2005>
110.970069885254

> <r_mmod_Bend_Energy-OPLS-2005>
161.221450805664

> <r_mmod_Torsional_Energy-OPLS-2005>
231.512939453125

> <r_mmod_Improper_Torsional_Energy-OPLS-2005>
6.84737539291382

> <r_mmod_Van_der_Waal_Energy-OPLS-2005>
154.462066650391

> <r_mmod_Electrostatic_Energy-OPLS-2005>
-332.084503173828

> <r_mmod_Solvation_Energy-OPLS-2005>
-219.427551269531

> <b_mmod_Minimization_Converged-OPLS-2005>
0

> <r_mmod_RMS_Derivative-OPLS-2005>
4.38834047317505

$$$$
78
                    3D
 Structure written by MMmdl.
157166  0  0  1  0            999 V2000
  -30.5875  -14.7503   20.3804 C   0  0  0  0  0  0
  -30.4524  -12.4420   19.4712 C   0  0  0  0  0  0
  -29.5206  -12.4947   18.2382 C   0  0  0  0  0  0
  -28.0503  -12.3060   18.6621 C   0  0  0  0  0  0
  -27.6493  -13.2149   19.8517 C   0  0  2  0  0  0
  -28.7034  -13.1611   20.9839 C   0  0  0  0  0  0
  -25.2507  -13.8116   20.5724 C   0  0  0  0  0  0
  -24.1782  -13.0392   20.9225 C   0  0  0  0  0  0
  -24.6373  -11.6873   20.8767 C   0  0  0  0  0  0
  -23.9034  -10.4266   21.0409 C   0  0  0  0  0  0
  -24.3577   -9.4190   21.9196 C   0  0  0  0  0  0
  -23.6255   -8.2224   22.0774 C   0  0  0  0  0  0
  -22.4236   -8.0284   21.3571 C   0  0  0  0  0  0
  -21.9870   -9.0253   20.4683 C   0  0  0  0  0  0
  -22.7193  -10.2128   20.3092 C   0  0  0  0  0  0
  -21.6836   -6.0727   22.5274 C   0  0  0  0  0  0
  -21.4032   -6.5632   23.8208 C   0  0  0  0  0  0
  -21.3673   -5.6770   24.9163 C   0  0  0  0  0  0
  -21.6032   -4.3029   24.7223 C   0  0  0  0  0  0
  -21.8819   -3.8137   23.4339 C   0  0  0  0  0  0
  -21.9191   -4.6964   22.3397 C   0  0  0  0  0  0
  -22.7795  -13.5226   21.1829 C   0  0  0  0  0  0
  -22.1650   -4.2149   21.0977 F   0  0  0  0  0  0
  -21.5625   -3.4517   25.7739 F   0  0  0  0  0  0
  -30.0104  -13.4996   20.3996 N   0  0  0  0  0  0
  -26.2966  -12.9328   20.3310 N   0  0  0  0  0  0
  -25.9305  -11.6478   20.5766 N   0  0  0  0  0  0
  -22.0406  -12.8304   22.0430 N   0  0  0  0  0  0
  -25.3996  -15.1840   20.4099 N   0  0  0  0  0  0
  -31.7763  -14.8918   20.0835 O   0  0  0  0  0  0
  -21.6626   -6.8860   21.4238 O   0  0  0  0  0  0
  -22.3490  -14.5507   20.6610 O   0  0  0  0  0  0
  -24.6321  -31.8527   23.1953 C   0  0  0  0  0  0
  -25.9151  -32.4722   23.8292 C   0  0  1  0  0  0
  -27.2148  -27.2821   20.0411 C   0  0  0  0  0  0
  -25.5928  -33.8525   24.2219 N   0  0  0  0  0  0
  -23.4264  -30.4750   21.5415 C   0  0  2  0  0  0
  -24.8674  -28.9287   20.0962 C   0  0  0  0  0  0
  -22.7519  -29.4575   22.4928 C   0  0  0  0  0  0
  -18.0308  -28.1390   22.8474 C   0  0  0  0  0  0
  -24.1477  -36.7253   23.2639 C   0  0  0  0  0  0
  -25.9761  -30.7560   21.3834 C   0  0  0  0  0  0
  -26.0412  -29.3858   20.7095 C   0  0  0  0  0  0
  -27.2134  -28.5651   20.6861 C   0  0  0  0  0  0
  -26.0131  -26.8890   19.4277 C   0  0  0  0  0  0
  -24.8554  -27.6841   19.4527 C   0  0  0  0  0  0
  -23.6404  -29.8131   20.1546 C   0  0  0  0  0  0
  -25.4106  -36.3042   24.0321 C   0  0  1  0  0  0
  -20.5905  -28.3690   23.1276 C   0  0  2  0  0  0
  -20.6781  -26.9403   22.5421 C   0  0  0  0  0  0
  -19.5756  -26.6388   21.5211 C   0  0  0  0  0  0
  -18.1940  -26.7937   22.1624 C   0  0  0  0  0  0
  -19.1564  -28.8860   23.2868 C   0  0  0  0  0  0
  -18.9497  -30.1463   23.8889 C   0  0  0  0  0  0
  -17.6495  -30.6577   24.0582 C   0  0  0  0  0  0
  -25.9072  -34.9421   23.5073 C   0  0  0  0  0  0
  -16.5385  -29.9091   23.6323 C   0  0  0  0  0  0
  -16.7295  -28.6515   23.0326 C   0  0  0  0  0  0
  -26.4517  -31.6575   25.0697 C   0  0  0  0  0  0
  -25.3744  -31.3783   26.1438 C   0  0  0  0  0  0
  -27.0371  -30.2975   24.6237 C   0  0  0  0  0  0
  -27.6051  -32.4353   25.7459 C   0  0  0  0  0  0
  -27.5587  -37.1751   24.8449 C   0  0  0  0  0  0
  -21.4226  -29.3028   22.3666 N   0  0  0  0  0  0
  -26.4257  -37.3762   23.9443 N   0  0  0  0  0  0
  -24.6968  -31.0471   22.0942 N   0  0  0  0  0  0
  -23.4225  -28.8142   23.3045 O   0  0  0  0  0  0
  -28.2987  -26.3849   20.1026 O   0  0  0  0  0  0
  -26.5670  -34.8916   22.4667 O   0  0  0  0  0  0
  -23.5468  -32.1386   23.7216 O   0  0  0  0  0  0
  -30.1258  -19.6095   19.6383 C   0  0  0  0  0  0
  -30.4953  -18.2776   20.0705 C   0  0  0  0  0  0
  -27.9850  -18.7851   18.9819 C   0  0  0  0  0  0
  -28.8437  -19.9215   19.0831 C   0  0  0  0  0  0
  -29.5960  -17.1668   19.9747 C   0  0  0  0  0  0
  -28.3438  -17.4818   19.4073 C   0  0  0  0  0  0
  -26.9873  -23.7466   18.0707 C   0  0  0  0  0  0
  -28.0273  -23.9117   18.9043 C   0  0  0  0  0  0
  -26.5867  -22.4670   17.5363 C   0  0  0  0  0  0
  -27.5071  -21.3269   17.5690 C   0  0  0  0  0  0
  -25.4221  -22.3422   16.8642 C   0  0  0  0  0  0
  -28.8053  -22.5849   19.2869 C   0  0  0  0  0  0
  -28.6462  -25.3728   19.0576 C   0  0  0  0  0  0
  -28.3699  -21.2727   18.6348 N   0  0  0  0  0  0
  -29.7233  -15.8080   20.5498 N   0  0  0  0  0  0
  -27.4932  -20.4590   16.6841 O   0  0  0  0  0  0
  -27.4251  -16.5027   19.2890 F   0  0  0  0  0  0
  -31.4952  -12.5660   19.1771 H   0  0  0  0  0  0
  -30.3955  -11.4702   19.9641 H   0  0  0  0  0  0
  -29.8012  -11.7275   17.5143 H   0  0  0  0  0  0
  -29.6394  -13.4513   17.7273 H   0  0  0  0  0  0
  -27.9211  -11.2602   18.9421 H   0  0  0  0  0  0
  -27.3862  -12.4761   17.8149 H   0  0  0  0  0  0
  -27.6365  -14.2208   19.4447 H   0  0  0  0  0  0
  -28.7383  -12.1698   21.4399 H   0  0  0  0  0  0
  -28.4417  -13.8521   21.7877 H   0  0  0  0  0  0
  -25.2727   -9.5654   22.4750 H   0  0  0  0  0  0
  -23.9974   -7.4618   22.7480 H   0  0  0  0  0  0
  -21.0792   -8.8768   19.9006 H   0  0  0  0  0  0
  -22.3640  -10.9668   19.6200 H   0  0  0  0  0  0
  -21.2026   -7.6139   23.9703 H   0  0  0  0  0  0
  -21.1500   -6.0508   25.9050 H   0  0  0  0  0  0
  -22.0581   -2.7616   23.2824 H   0  0  0  0  0  0
  -22.3978  -12.0034   22.4987 H   0  0  0  0  0  0
  -21.1037  -13.1411   22.2564 H   0  0  0  0  0  0
  -24.5962  -15.7996   20.4680 H   0  0  0  0  0  0
  -26.2104  -15.6362   19.9908 H   0  0  0  0  0  0
  -26.7209  -32.5340   23.1011 H   0  0  0  0  0  0
  -25.0002  -33.9653   25.0308 H   0  0  0  0  0  0
  -22.7220  -31.2955   21.3946 H   0  0  0  0  0  0
  -23.3747  -35.9569   23.3261 H   0  0  0  0  0  0
  -24.3574  -36.8928   22.2059 H   0  0  0  0  0  0
  -23.7211  -37.6427   23.6706 H   0  0  0  0  0  0
  -26.1354  -31.5241   20.6256 H   0  0  0  0  0  0
  -26.8453  -30.7847   22.0280 H   0  0  0  0  0  0
  -28.1157  -28.9009   21.1780 H   0  0  0  0  0  0
  -25.9249  -25.9309   18.9653 H   0  0  0  0  0  0
  -23.9580  -27.3195   18.9711 H   0  0  0  0  0  0
  -23.7711  -30.5895   19.4007 H   0  0  0  0  0  0
  -22.7586  -29.2485   19.8445 H   0  0  0  0  0  0
  -25.1268  -36.1851   25.0804 H   0  0  0  0  0  0
  -20.9986  -28.3276   24.1405 H   0  0  0  0  0  0
  -20.5645  -26.2318   23.3640 H   0  0  0  0  0  0
  -21.6667  -26.7413   22.1247 H   0  0  0  0  0  0
  -19.6923  -25.6303   21.1234 H   0  0  0  0  0  0
  -19.6674  -27.3212   20.6741 H   0  0  0  0  0  0
  -17.4206  -26.6685   21.4024 H   0  0  0  0  0  0
  -18.0333  -26.0079   22.9022 H   0  0  0  0  0  0
  -19.7981  -30.7281   24.2246 H   0  0  0  0  0  0
  -17.5053  -31.6235   24.5222 H   0  0  0  0  0  0
  -15.5384  -30.2994   23.7626 H   0  0  0  0  0  0
  -15.8709  -28.0833   22.7013 H   0  0  0  0  0  0
  -24.5845  -30.7206   25.7798 H   0  0  0  0  0  0
  -24.9027  -32.2992   26.4877 H   0  0  0  0  0  0
  -25.8050  -30.8939   27.0208 H   0  0  0  0  0  0
  -26.2969  -29.6691   24.1262 H   0  0  0  0  0  0
  -27.4051  -29.7269   25.4776 H   0  0  0  0  0  0
  -27.8856  -30.4236   23.9500 H   0  0  0  0  0  0
  -27.2617  -33.3648   26.2017 H   0  0  0  0  0  0
  -28.3841  -32.6935   25.0268 H   0  0  0  0  0  0
  -28.0745  -31.8506   26.5384 H   0  0  0  0  0  0
  -28.2535  -38.0115   24.7589 H   0  0  0  0  0  0
  -28.1147  -36.2655   24.6117 H   0  0  0  0  0  0
  -27.2354  -37.1226   25.8861 H   0  0  0  0  0  0
  -20.9438  -29.8745   21.6851 H   0  0  0  0  0  0
  -26.0116  -38.2808   24.1519 H   0  0  0  0  0  0
  -30.8549  -20.4040   19.7422 H   0  0  0  0  0  0
  -31.4682  -18.1308   20.5127 H   0  0  0  0  0  0
  -26.9896  -18.8858   18.5764 H   0  0  0  0  0  0
  -26.5245  -24.6060   17.6141 H   0  0  0  0  0  0
  -24.7341  -23.1701   16.7678 H   0  0  0  0  0  0
  -25.1225  -21.4155   16.3932 H   0  0  0  0  0  0
  -28.7806  -22.4537   20.3674 H   0  0  0  0  0  0
  -29.8492  -22.7314   19.0071 H   0  0  0  0  0  0
  -28.5658  -25.8689   18.0897 H   0  0  0  0  0  0
  -29.7154  -25.2038   19.1801 H   0  0  0  0  0  0
  -28.8130  -15.4523   20.7980 H   0  0  0  0  0  0
  1 25  1  0  0  0
  1 30  2  0  0  0
  1 85  1  0  0  0
  2  3  1  0  0  0
  2 25  1  0  0  0
  2 88  1  0  0  0
  2 89  1  0  0  0
  3  4  1  0  0  0
  3 90  1  0  0  0
  3 91  1  0  0  0
  4  5  1  0  0  0
  4 92  1  0  0  0
  4 93  1  0  0  0
  5  6  1  0  0  0
  5 26  1  0  0  0
  5 94  1  0  0  0
  6 25  1  0  0  0
  6 95  1  0  0  0
  6 96  1  0  0  0
  7  8  2  0  0  0
  7 26  1  0  0  0
  7 29  1  0  0  0
  8  9  1  0  0  0
  8 22  1  0  0  0
  9 10  1  0  0  0
  9 27  2  0  0  0
 10 11  2  0  0  0
 10 15  1  0  0  0
 11 12  1  0  0  0
 11 97  1  0  0  0
 12 13  2  0  0  0
 12 98  1  0  0  0
 13 14  1  0  0  0
 13 31  1  0  0  0
 14 15  2  0  0  0
 14 99  1  0  0  0
 15100  1  0  0  0
 16 17  2  0  0  0
 16 21  1  0  0  0
 16 31  1  0  0  0
 17 18  1  0  0  0
 17101  1  0  0  0
 18 19  2  0  0  0
 18102  1  0  0  0
 19 20  1  0  0  0
 19 24  1  0  0  0
 20 21  2  0  0  0
 20103  1  0  0  0
 21 23  1  0  0  0
 22 28  1  0  0  0
 22 32  2  0  0  0
 26 27  1  0  0  0
 28104  1  0  0  0
 28105  1  0  0  0
 29106  1  0  0  0
 29107  1  0  0  0
 33 34  1  0  0  0
 33 66  1  0  0  0
 33 70  2  0  0  0
 34 36  1  0  0  0
 34 59  1  0  0  0
 34108  1  0  0  0
 35 44  2  0  0  0
 35 45  1  0  0  0
 35 68  1  0  0  0
 36 56  1  0  0  0
 36109  1  0  0  0
 37 39  1  0  0  0
 37 47  1  0  0  0
 37 66  1  0  0  0
 37110  1  0  0  0
 38 43  2  0  0  0
 38 46  1  0  0  0
 38 47  1  0  0  0
 39 64  1  0  0  0
 39 67  2  0  0  0
 40 52  1  0  0  0
 40 53  2  0  0  0
 40 58  1  0  0  0
 41111  1  0  0  0
 41112  1  0  0  0
 41113  1  0  0  0
 41 48  1  0  0  0
 42 43  1  0  0  0
 42 66  1  0  0  0
 42114  1  0  0  0
 42115  1  0  0  0
 43 44  1  0  0  0
 44116  1  0  0  0
 45 46  2  0  0  0
 45117  1  0  0  0
 46118  1  0  0  0
 47119  1  0  0  0
 47120  1  0  0  0
 48 56  1  0  0  0
 48 65  1  0  0  0
 48121  1  0  0  0
 49 50  1  0  0  0
 49 53  1  0  0  0
 49 64  1  0  0  0
 49122  1  0  0  0
 50 51  1  0  0  0
 50123  1  0  0  0
 50124  1  0  0  0
 51 52  1  0  0  0
 51125  1  0  0  0
 51126  1  0  0  0
 52127  1  0  0  0
 52128  1  0  0  0
 53 54  1  0  0  0
 54 55  2  0  0  0
 54129  1  0  0  0
 55 57  1  0  0  0
 55130  1  0  0  0
 56 69  2  0  0  0
 57 58  2  0  0  0
 57131  1  0  0  0
 58132  1  0  0  0
 59 60  1  0  0  0
 59 61  1  0  0  0
 59 62  1  0  0  0
 60133  1  0  0  0
 60134  1  0  0  0
 60135  1  0  0  0
 61136  1  0  0  0
 61137  1  0  0  0
 61138  1  0  0  0
 62139  1  0  0  0
 62140  1  0  0  0
 62141  1  0  0  0
 63 65  1  0  0  0
 63142  1  0  0  0
 63143  1  0  0  0
 63144  1  0  0  0
 64145  1  0  0  0
 65146  1  0  0  0
 68 83  1  0  0  0
 71 72  2  0  0  0
 71 74  1  0  0  0
 71147  1  0  0  0
 72 75  1  0  0  0
 72148  1  0  0  0
 73 74  2  0  0  0
 73 76  1  0  0  0
 73149  1  0  0  0
 74 84  1  0  0  0
 75 76  2  0  0  0
 75 85  1  0  0  0
 76 87  1  0  0  0
 77 78  2  0  0  0
 77 79  1  0  0  0
 77150  1  0  0  0
 78 82  1  0  0  0
 78 83  1  0  0  0
 79 80  1  0  0  0
 79 81  2  0  0  0
 80 84  1  0  0  0
 80 86  2  0  0  0
 81151  1  0  0  0
 81152  1  0  0  0
 82 84  1  0  0  0
 82153  1  0  0  0
 82154  1  0  0  0
 83155  1  0  0  0
 83156  1  0  0  0
 85157  1  0  0  0
M  ISO  4   1 100  68 101  83 101  85 100
M  END
> <chiral flag>
0

> <version>
0

> <s_m_source_file>
/data/baiqing/PycharmProjects/Reinvent-master-3.2/result/LINK_invent/BTK/process_docking_weight1_custom_product_contain_oxygen_bond_distance_aromatic_linkinvent_7_9_3/rearranged_h_0077.sdf

> <i_m_source_file_index>
79

> <r_mmod_Potential_Energy-OPLS-2005>
328.388305664062

> <r_mmod_Stretch_Energy-OPLS-2005>
118.363800048828

> <r_mmod_Bend_Energy-OPLS-2005>
208.971633911133

> <r_mmod_Torsional_Energy-OPLS-2005>
311.056579589844

> <r_mmod_Improper_Torsional_Energy-OPLS-2005>
9.49633502960205

> <r_mmod_Van_der_Waal_Energy-OPLS-2005>
170.481536865234

> <r_mmod_Electrostatic_Energy-OPLS-2005>
-370.676849365234

> <r_mmod_Solvation_Energy-OPLS-2005>
-208.537368774414

> <b_mmod_Minimization_Converged-OPLS-2005>
0

> <r_mmod_RMS_Derivative-OPLS-2005>
5.85283803939819

$$$$
79
                    3D
 Structure written by MMmdl.
167176  0  0  1  0            999 V2000
  -30.7616  -14.4950   20.3193 C   0  0  0  0  0  0
  -30.4021  -12.2776   19.4047 C   0  0  0  0  0  0
  -29.4817  -12.4801   18.1866 C   0  0  0  0  0  0
  -28.0062  -12.3416   18.6243 C   0  0  0  0  0  0
  -27.6498  -13.2205   19.8579 C   0  0  2  0  0  0
  -28.7265  -13.1309   20.9604 C   0  0  0  0  0  0
  -25.2585  -13.8239   20.5762 C   0  0  0  0  0  0
  -24.1845  -13.0438   20.9136 C   0  0  0  0  0  0
  -24.6455  -11.6885   20.8781 C   0  0  0  0  0  0
  -23.9169  -10.4232   21.0448 C   0  0  0  0  0  0
  -24.3697   -9.4145   21.9239 C   0  0  0  0  0  0
  -23.6306   -8.2222   22.0829 C   0  0  0  0  0  0
  -22.4317   -8.0285   21.3588 C   0  0  0  0  0  0
  -21.9996   -9.0264   20.4711 C   0  0  0  0  0  0
  -22.7381  -10.2104   20.3090 C   0  0  0  0  0  0
  -21.6784   -6.0768   22.5296 C   0  0  0  0  0  0
  -21.3983   -6.5647   23.8232 C   0  0  0  0  0  0
  -21.3636   -5.6824   24.9190 C   0  0  0  0  0  0
  -21.5995   -4.3061   24.7235 C   0  0  0  0  0  0
  -21.8765   -3.8173   23.4338 C   0  0  0  0  0  0
  -21.9153   -4.6996   22.3400 C   0  0  0  0  0  0
  -22.7889  -13.5309   21.1781 C   0  0  0  0  0  0
  -22.1638   -4.2191   21.0981 F   0  0  0  0  0  0
  -21.5641   -3.4533   25.7723 F   0  0  0  0  0  0
  -30.0411  -13.3470   20.3453 N   0  0  0  0  0  0
  -26.3045  -12.9397   20.3423 N   0  0  0  0  0  0
  -25.9408  -11.6512   20.5840 N   0  0  0  0  0  0
  -22.0487  -12.8389   22.0359 N   0  0  0  0  0  0
  -25.4058  -15.2032   20.4236 N   0  0  0  0  0  0
  -31.9846  -14.4592   20.2801 O   0  0  0  0  0  0
  -21.6611   -6.8933   21.4259 O   0  0  0  0  0  0
  -22.3530  -14.5584   20.6567 O   0  0  0  0  0  0
  -24.6182  -31.8649   23.2088 C   0  0  0  0  0  0
  -25.9088  -32.4816   23.8366 C   0  0  1  0  0  0
  -27.1943  -27.3635   20.1165 C   0  0  0  0  0  0
  -25.5955  -33.8642   24.2334 N   0  0  0  0  0  0
  -23.4170  -30.4956   21.5425 C   0  0  2  0  0  0
  -24.8632  -28.9777   20.1031 C   0  0  0  0  0  0
  -22.7528  -29.4669   22.4819 C   0  0  0  0  0  0
  -18.0362  -28.1427   22.8105 C   0  0  0  0  0  0
  -24.1504  -36.7314   23.2649 C   0  0  0  0  0  0
  -25.9605  -30.8121   21.3814 C   0  0  0  0  0  0
  -26.0356  -29.4488   20.7164 C   0  0  0  0  0  0
  -27.2115  -28.6514   20.7151 C   0  0  0  0  0  0
  -26.0197  -26.9700   19.4338 C   0  0  0  0  0  0
  -24.8574  -27.7429   19.4480 C   0  0  0  0  0  0
  -23.6306  -29.8468   20.1558 C   0  0  0  0  0  0
  -25.4132  -36.3127   24.0359 C   0  0  1  0  0  0
  -20.5946  -28.3581   23.1268 C   0  0  2  0  0  0
  -20.6786  -26.9204   22.5454 C   0  0  0  0  0  0
  -19.5984  -26.6556   21.4878 C   0  0  0  0  0  0
  -18.1975  -26.8184   22.0839 C   0  0  0  0  0  0
  -19.1619  -28.8733   23.2775 C   0  0  0  0  0  0
  -18.9587  -30.1125   23.9079 C   0  0  0  0  0  0
  -17.6641  -30.6365   24.0792 C   0  0  0  0  0  0
  -25.9093  -34.9485   23.5164 C   0  0  0  0  0  0
  -16.5494  -29.8978   23.6490 C   0  0  0  0  0  0
  -16.7365  -28.6566   23.0137 C   0  0  0  0  0  0
  -26.4477  -31.6647   25.0751 C   0  0  0  0  0  0
  -25.3644  -31.3784   26.1406 C   0  0  0  0  0  0
  -27.0344  -30.3085   24.6241 C   0  0  0  0  0  0
  -27.6068  -32.4358   25.7520 C   0  0  0  0  0  0
  -27.5593  -37.1840   24.8478 C   0  0  0  0  0  0
  -21.4232  -29.3025   22.3725 N   0  0  0  0  0  0
  -26.4302  -37.3805   23.9418 N   0  0  0  0  0  0
  -24.6840  -31.0715   22.1021 N   0  0  0  0  0  0
  -23.4318  -28.8174   23.2772 O   0  0  0  0  0  0
  -28.2530  -26.4667   20.2371 O   0  0  0  0  0  0
  -26.5580  -34.8900   22.4707 O   0  0  0  0  0  0
  -23.5347  -32.1456   23.7424 O   0  0  0  0  0  0
  -27.5104  -18.9822   18.7559 C   0  0  0  0  0  0
  -28.4133  -17.8973   18.7849 C   0  0  0  0  0  0
  -27.8871  -20.2317   19.2953 C   0  0  0  0  0  0
  -30.1107  -19.3561   19.7240 C   0  0  0  0  0  0
  -29.7250  -18.0520   19.2859 C   0  0  0  0  0  0
  -29.2126  -20.4605   19.7522 C   0  0  0  0  0  0
  -28.8816  -22.9398   19.9894 C   0  0  0  0  0  0
  -28.7663  -23.9744   20.8570 C   0  0  0  0  0  0
  -29.3900  -23.7948   22.1737 C   0  0  0  0  0  0
  -29.3363  -24.7464   23.1178 C   0  0  0  0  0  0
  -30.0640  -22.4646   22.5085 C   0  0  0  0  0  0
  -30.6451  -21.8181   21.2424 C   0  0  0  0  0  0
  -32.0982  -17.2108   19.8095 C   0  0  0  0  0  0
  -30.9382  -16.4682   17.7481 C   0  0  0  0  0  0
  -27.7704  -25.1125   20.5446 C   0  0  0  0  0  0
  -30.6991  -16.8316   19.2361 C   0  0  0  0  0  0
  -29.6135  -21.7548   20.1976 N   0  0  0  0  0  0
  -30.1091  -15.6189   19.9173 N   0  0  0  0  0  0
  -31.4514  -12.3154   19.1012 H   0  0  0  0  0  0
  -30.2486  -11.2857   19.8436 H   0  0  0  0  0  0
  -29.7280  -11.7759   17.3929 H   0  0  0  0  0  0
  -29.6435  -13.4710   17.7611 H   0  0  0  0  0  0
  -27.8228  -11.2931   18.8498 H   0  0  0  0  0  0
  -27.3541  -12.5748   17.7796 H   0  0  0  0  0  0
  -27.6458  -14.2513   19.5134 H   0  0  0  0  0  0
  -28.7118  -12.1607   21.4566 H   0  0  0  0  0  0
  -28.5467  -13.8888   21.7213 H   0  0  0  0  0  0
  -25.2863   -9.5542   22.4786 H   0  0  0  0  0  0
  -23.9873   -7.4638   22.7671 H   0  0  0  0  0  0
  -21.0888   -8.8865   19.9110 H   0  0  0  0  0  0
  -22.3954  -10.9591   19.6118 H   0  0  0  0  0  0
  -21.1993   -7.6160   23.9716 H   0  0  0  0  0  0
  -21.1529   -6.0586   25.9098 H   0  0  0  0  0  0
  -22.0593   -2.7631   23.2824 H   0  0  0  0  0  0
  -22.4098  -12.0103   22.4873 H   0  0  0  0  0  0
  -21.1037  -13.1329   22.2381 H   0  0  0  0  0  0
  -24.5948  -15.8032   20.5277 H   0  0  0  0  0  0
  -26.2271  -15.7185   20.1365 H   0  0  0  0  0  0
  -26.7211  -32.5487   23.1132 H   0  0  0  0  0  0
  -25.0094  -33.9829   25.0449 H   0  0  0  0  0  0
  -22.7051  -31.3129   21.4072 H   0  0  0  0  0  0
  -23.3769  -35.9636   23.3326 H   0  0  0  0  0  0
  -24.3577  -36.8898   22.2048 H   0  0  0  0  0  0
  -23.7198  -37.6526   23.6632 H   0  0  0  0  0  0
  -26.0986  -31.5800   20.6220 H   0  0  0  0  0  0
  -26.8385  -30.8575   22.0096 H   0  0  0  0  0  0
  -28.1074  -28.9957   21.2078 H   0  0  0  0  0  0
  -25.9485  -26.0489   18.8766 H   0  0  0  0  0  0
  -23.9642  -27.3893   18.9449 H   0  0  0  0  0  0
  -23.7510  -30.6264   19.4031 H   0  0  0  0  0  0
  -22.7500  -29.2773   19.8532 H   0  0  0  0  0  0
  -25.1270  -36.2043   25.0839 H   0  0  0  0  0  0
  -21.0067  -28.3059   24.1337 H   0  0  0  0  0  0
  -20.5033  -26.2065   23.3528 H   0  0  0  0  0  0
  -21.6792  -26.6961   22.1682 H   0  0  0  0  0  0
  -19.7043  -25.6624   21.0596 H   0  0  0  0  0  0
  -19.7383  -27.3539   20.6626 H   0  0  0  0  0  0
  -17.4650  -26.7574   21.2765 H   0  0  0  0  0  0
  -17.9736  -26.0114   22.7860 H   0  0  0  0  0  0
  -19.8121  -30.6633   24.2813 H   0  0  0  0  0  0
  -17.5223  -31.5974   24.5584 H   0  0  0  0  0  0
  -15.5480  -30.2806   23.7936 H   0  0  0  0  0  0
  -15.8796  -28.1052   22.6503 H   0  0  0  0  0  0
  -24.5787  -30.7214   25.7651 H   0  0  0  0  0  0
  -24.8806  -32.2936   26.4855 H   0  0  0  0  0  0
  -25.7811  -30.8855   27.0183 H   0  0  0  0  0  0
  -26.2938  -29.6814   24.1254 H   0  0  0  0  0  0
  -27.4054  -29.7385   25.4769 H   0  0  0  0  0  0
  -27.8782  -30.4415   23.9458 H   0  0  0  0  0  0
  -27.2755  -33.3670   26.2119 H   0  0  0  0  0  0
  -28.3843  -32.6941   25.0328 H   0  0  0  0  0  0
  -28.0792  -31.8461   26.5389 H   0  0  0  0  0  0
  -28.2654  -38.0109   24.7494 H   0  0  0  0  0  0
  -28.1053  -36.2641   24.6342 H   0  0  0  0  0  0
  -27.2295  -37.1486   25.8878 H   0  0  0  0  0  0
  -20.9235  -29.8870   21.7177 H   0  0  0  0  0  0
  -26.0224  -38.2904   24.1391 H   0  0  0  0  0  0
  -26.5245  -18.8439   18.3228 H   0  0  0  0  0  0
  -28.1220  -16.9309   18.3910 H   0  0  0  0  0  0
  -27.1470  -21.0212   19.3557 H   0  0  0  0  0  0
  -31.1309  -19.5272   20.0184 H   0  0  0  0  0  0
  -28.3698  -22.9462   19.0357 H   0  0  0  0  0  0
  -28.8413  -25.6911   22.9534 H   0  0  0  0  0  0
  -29.7696  -24.5757   24.0934 H   0  0  0  0  0  0
  -29.3405  -21.7865   22.9644 H   0  0  0  0  0  0
  -30.8589  -22.6128   23.2410 H   0  0  0  0  0  0
  -31.0883  -20.8648   21.5088 H   0  0  0  0  0  0
  -31.4746  -22.4246   20.8775 H   0  0  0  0  0  0
  -32.4811  -18.1437   19.4018 H   0  0  0  0  0  0
  -32.8849  -16.5102   19.5245 H   0  0  0  0  0  0
  -32.0849  -17.2776   20.8978 H   0  0  0  0  0  0
  -31.4744  -17.2587   17.2097 H   0  0  0  0  0  0
  -30.0130  -16.2777   17.2110 H   0  0  0  0  0  0
  -31.5398  -15.5566   17.6643 H   0  0  0  0  0  0
  -27.0692  -25.1612   21.3828 H   0  0  0  0  0  0
  -27.1841  -24.7141   19.7209 H   0  0  0  0  0  0
  -29.1029  -15.5560   19.8818 H   0  0  0  0  0  0
  1 25  1  0  0  0
  1 30  2  0  0  0
  1 88  1  0  0  0
  2  3  1  0  0  0
  2 25  1  0  0  0
  2 89  1  0  0  0
  2 90  1  0  0  0
  3  4  1  0  0  0
  3 91  1  0  0  0
  3 92  1  0  0  0
  4  5  1  0  0  0
  4 93  1  0  0  0
  4 94  1  0  0  0
  5  6  1  0  0  0
  5 26  1  0  0  0
  5 95  1  0  0  0
  6 25  1  0  0  0
  6 96  1  0  0  0
  6 97  1  0  0  0
  7  8  2  0  0  0
  7 26  1  0  0  0
  7 29  1  0  0  0
  8  9  1  0  0  0
  8 22  1  0  0  0
  9 10  1  0  0  0
  9 27  2  0  0  0
 10 11  2  0  0  0
 10 15  1  0  0  0
 11 12  1  0  0  0
 11 98  1  0  0  0
 12 13  2  0  0  0
 12 99  1  0  0  0
 13 14  1  0  0  0
 13 31  1  0  0  0
 14 15  2  0  0  0
 14100  1  0  0  0
 15101  1  0  0  0
 16 17  2  0  0  0
 16 21  1  0  0  0
 16 31  1  0  0  0
 17 18  1  0  0  0
 17102  1  0  0  0
 18 19  2  0  0  0
 18103  1  0  0  0
 19 20  1  0  0  0
 19 24  1  0  0  0
 20 21  2  0  0  0
 20104  1  0  0  0
 21 23  1  0  0  0
 22 28  1  0  0  0
 22 32  2  0  0  0
 26 27  1  0  0  0
 28105  1  0  0  0
 28106  1  0  0  0
 29107  1  0  0  0
 29108  1  0  0  0
 33 34  1  0  0  0
 33 66  1  0  0  0
 33 70  2  0  0  0
 34 36  1  0  0  0
 34 59  1  0  0  0
 34109  1  0  0  0
 35 44  2  0  0  0
 35 45  1  0  0  0
 35 68  1  0  0  0
 36 56  1  0  0  0
 36110  1  0  0  0
 37 39  1  0  0  0
 37 47  1  0  0  0
 37 66  1  0  0  0
 37111  1  0  0  0
 38 43  2  0  0  0
 38 46  1  0  0  0
 38 47  1  0  0  0
 39 64  1  0  0  0
 39 67  2  0  0  0
 40 52  1  0  0  0
 40 53  2  0  0  0
 40 58  1  0  0  0
 41112  1  0  0  0
 41113  1  0  0  0
 41114  1  0  0  0
 41 48  1  0  0  0
 42 43  1  0  0  0
 42 66  1  0  0  0
 42115  1  0  0  0
 42116  1  0  0  0
 43 44  1  0  0  0
 44117  1  0  0  0
 45 46  2  0  0  0
 45118  1  0  0  0
 46119  1  0  0  0
 47120  1  0  0  0
 47121  1  0  0  0
 48 56  1  0  0  0
 48 65  1  0  0  0
 48122  1  0  0  0
 49 50  1  0  0  0
 49 53  1  0  0  0
 49 64  1  0  0  0
 49123  1  0  0  0
 50 51  1  0  0  0
 50124  1  0  0  0
 50125  1  0  0  0
 51 52  1  0  0  0
 51126  1  0  0  0
 51127  1  0  0  0
 52128  1  0  0  0
 52129  1  0  0  0
 53 54  1  0  0  0
 54 55  2  0  0  0
 54130  1  0  0  0
 55 57  1  0  0  0
 55131  1  0  0  0
 56 69  2  0  0  0
 57 58  2  0  0  0
 57132  1  0  0  0
 58133  1  0  0  0
 59 60  1  0  0  0
 59 61  1  0  0  0
 59 62  1  0  0  0
 60134  1  0  0  0
 60135  1  0  0  0
 60136  1  0  0  0
 61137  1  0  0  0
 61138  1  0  0  0
 61139  1  0  0  0
 62140  1  0  0  0
 62141  1  0  0  0
 62142  1  0  0  0
 63 65  1  0  0  0
 63143  1  0  0  0
 63144  1  0  0  0
 63145  1  0  0  0
 64146  1  0  0  0
 65147  1  0  0  0
 68 85  1  0  0  0
 71 72  2  0  0  0
 71 73  1  0  0  0
 71148  1  0  0  0
 72 75  1  0  0  0
 72149  1  0  0  0
 73 76  2  0  0  0
 73150  1  0  0  0
 74 75  2  0  0  0
 74 76  1  0  0  0
 74151  1  0  0  0
 75 86  1  0  0  0
 76 87  1  0  0  0
 77 78  2  0  0  0
 77 87  1  0  0  0
 77152  1  0  0  0
 78 79  1  0  0  0
 78 85  1  0  0  0
 79 80  2  0  0  0
 79 81  1  0  0  0
 80153  1  0  0  0
 80154  1  0  0  0
 81 82  1  0  0  0
 81155  1  0  0  0
 81156  1  0  0  0
 82 87  1  0  0  0
 82157  1  0  0  0
 82158  1  0  0  0
 83159  1  0  0  0
 83160  1  0  0  0
 83161  1  0  0  0
 83 86  1  0  0  0
 84 86  1  0  0  0
 84162  1  0  0  0
 84163  1  0  0  0
 84164  1  0  0  0
 85165  1  0  0  0
 85166  1  0  0  0
 86 88  1  0  0  0
 88167  1  0  0  0
M  ISO  4   1 100  68 101  85 101  88 100
M  END
> <chiral flag>
0

> <version>
0

> <s_m_source_file>
/data/baiqing/PycharmProjects/Reinvent-master-3.2/result/LINK_invent/BTK/process_docking_weight1_custom_product_contain_oxygen_bond_distance_aromatic_linkinvent_7_9_3/rearranged_h_0077.sdf

> <i_m_source_file_index>
80

> <r_mmod_Potential_Energy-OPLS-2005>
122.392936706543

> <r_mmod_Stretch_Energy-OPLS-2005>
61.7052917480469

> <r_mmod_Bend_Energy-OPLS-2005>
136.567718505859

> <r_mmod_Torsional_Energy-OPLS-2005>
249.043319702148

> <r_mmod_Improper_Torsional_Energy-OPLS-2005>
14.2730226516724

> <r_mmod_Van_der_Waal_Energy-OPLS-2005>
197.367309570312

> <r_mmod_Electrostatic_Energy-OPLS-2005>
-400.581146240234

> <r_mmod_Solvation_Energy-OPLS-2005>
-200.898513793945

> <b_mmod_Minimization_Converged-OPLS-2005>
0

> <r_mmod_RMS_Derivative-OPLS-2005>
14.0902223587036

$$$$
80
                    3D
 Structure written by MMmdl.
160168  0  0  1  0            999 V2000
  -30.4949  -14.9741   20.4199 C   0  0  0  0  0  0
  -30.4502  -12.6023   19.4999 C   0  0  0  0  0  0
  -29.5265  -12.5382   18.2594 C   0  0  0  0  0  0
  -28.0576  -12.3218   18.6737 C   0  0  0  0  0  0
  -27.6325  -13.2463   19.8442 C   0  0  2  0  0  0
  -28.6759  -13.2551   20.9819 C   0  0  0  0  0  0
  -25.2461  -13.8205   20.5708 C   0  0  0  0  0  0
  -24.1775  -13.0426   20.9205 C   0  0  0  0  0  0
  -24.6398  -11.6916   20.8746 C   0  0  0  0  0  0
  -23.9082  -10.4288   21.0405 C   0  0  0  0  0  0
  -24.3628   -9.4203   21.9186 C   0  0  0  0  0  0
  -23.6300   -8.2241   22.0756 C   0  0  0  0  0  0
  -22.4279   -8.0283   21.3548 C   0  0  0  0  0  0
  -21.9920   -9.0255   20.4647 C   0  0  0  0  0  0
  -22.7252  -10.2131   20.3055 C   0  0  0  0  0  0
  -21.6855   -6.0740   22.5279 C   0  0  0  0  0  0
  -21.4015   -6.5641   23.8214 C   0  0  0  0  0  0
  -21.3657   -5.6792   24.9175 C   0  0  0  0  0  0
  -21.6045   -4.3057   24.7225 C   0  0  0  0  0  0
  -21.8818   -3.8148   23.4346 C   0  0  0  0  0  0
  -21.9192   -4.6967   22.3400 C   0  0  0  0  0  0
  -22.7794  -13.5201   21.1874 C   0  0  0  0  0  0
  -22.1659   -4.2154   21.0979 F   0  0  0  0  0  0
  -21.5631   -3.4539   25.7737 F   0  0  0  0  0  0
  -29.9501  -13.6881   20.3917 N   0  0  0  0  0  0
  -26.2899  -12.9438   20.3267 N   0  0  0  0  0  0
  -25.9336  -11.6564   20.5744 N   0  0  0  0  0  0
  -22.0451  -12.8188   22.0436 N   0  0  0  0  0  0
  -25.4100  -15.1937   20.4162 N   0  0  0  0  0  0
  -31.6902  -15.0871   20.1220 O   0  0  0  0  0  0
  -21.6639   -6.8882   21.4242 O   0  0  0  0  0  0
  -22.3467  -14.5504   20.6727 O   0  0  0  0  0  0
  -24.6433  -31.8410   23.1848 C   0  0  0  0  0  0
  -25.9192  -32.4680   23.8246 C   0  0  1  0  0  0
  -27.2200  -27.1137   20.1840 C   0  0  0  0  0  0
  -25.5935  -33.8487   24.2162 N   0  0  0  0  0  0
  -23.4490  -30.4571   21.5302 C   0  0  2  0  0  0
  -24.9009  -28.8742   20.1141 C   0  0  0  0  0  0
  -22.7570  -29.4524   22.4852 C   0  0  0  0  0  0
  -18.0309  -28.1407   22.8487 C   0  0  0  0  0  0
  -24.1485  -36.7236   23.2654 C   0  0  0  0  0  0
  -26.0043  -30.7111   21.3838 C   0  0  0  0  0  0
  -26.0761  -29.3181   20.7332 C   0  0  0  0  0  0
  -27.2390  -28.4596   20.7383 C   0  0  0  0  0  0
  -26.0313  -26.7820   19.5009 C   0  0  0  0  0  0
  -24.8925  -27.6214   19.4783 C   0  0  0  0  0  0
  -23.6770  -29.7779   20.1524 C   0  0  0  0  0  0
  -25.4123  -36.3014   24.0315 C   0  0  1  0  0  0
  -20.5926  -28.3711   23.1246 C   0  0  2  0  0  0
  -20.6794  -26.9411   22.5413 C   0  0  0  0  0  0
  -19.5764  -26.6384   21.5225 C   0  0  0  0  0  0
  -18.1941  -26.7949   22.1632 C   0  0  0  0  0  0
  -19.1571  -28.8877   23.2864 C   0  0  0  0  0  0
  -18.9490  -30.1483   23.8875 C   0  0  0  0  0  0
  -17.6486  -30.6601   24.0557 C   0  0  0  0  0  0
  -25.9072  -34.9393   23.5049 C   0  0  0  0  0  0
  -16.5372  -29.9093   23.6341 C   0  0  0  0  0  0
  -16.7295  -28.6515   23.0356 C   0  0  0  0  0  0
  -26.4515  -31.6554   25.0689 C   0  0  0  0  0  0
  -25.3690  -31.3756   26.1377 C   0  0  0  0  0  0
  -27.0383  -30.2947   24.6265 C   0  0  0  0  0  0
  -27.6032  -32.4328   25.7481 C   0  0  0  0  0  0
  -27.5567  -37.1773   24.8472 C   0  0  0  0  0  0
  -21.4259  -29.3031   22.3602 N   0  0  0  0  0  0
  -26.4276  -37.3729   23.9411 N   0  0  0  0  0  0
  -24.7190  -31.0254   22.0887 N   0  0  0  0  0  0
  -23.4209  -28.8103   23.3030 O   0  0  0  0  0  0
  -28.2915  -26.1408   20.1776 O   0  0  0  0  0  0
  -26.5669  -34.8901   22.4633 O   0  0  0  0  0  0
  -23.5541  -32.1296   23.7050 O   0  0  0  0  0  0
  -30.5387  -19.9814   20.0513 C   0  0  0  0  0  0
  -30.6722  -18.5267   20.0965 C   0  0  0  0  0  0
  -28.3146  -19.8544   20.7876 C   0  0  0  0  0  0
  -29.3619  -20.7553   20.3920 C   0  0  0  0  0  0
  -29.6270  -17.6348   20.5066 C   0  0  0  0  0  0
  -28.4418  -18.3965   20.8347 C   0  0  0  0  0  0
  -29.4012  -22.3719   20.5261 C   0  0  0  0  0  0
  -27.9769  -25.9965   23.2294 C   0  0  0  0  0  0
  -27.8251  -23.5339   23.1399 C   0  0  0  0  0  0
  -26.0060  -24.8576   22.0799 C   0  0  0  0  0  0
  -28.3528  -24.8163   20.9786 C   0  0  2  0  0  0
  -27.5262  -24.8212   22.3350 C   0  0  0  0  0  0
  -29.6325  -16.0913   20.6156 N   0  0  0  0  0  0
  -28.3885  -23.3607   20.3428 N   0  0  0  0  0  0
  -30.5130  -22.7948   20.8503 O   0  0  0  0  0  0
  -27.3598  -17.6903   21.2408 F   0  0  0  0  0  0
  -31.4802  -12.7809   19.1865 H   0  0  0  0  0  0
  -30.4615  -11.6464   20.0258 H   0  0  0  0  0  0
  -29.8479  -11.7414   17.5876 H   0  0  0  0  0  0
  -29.6125  -13.4673   17.6934 H   0  0  0  0  0  0
  -27.9508  -11.2784   18.9736 H   0  0  0  0  0  0
  -27.3964  -12.4622   17.8176 H   0  0  0  0  0  0
  -27.5989  -14.2523   19.4255 H   0  0  0  0  0  0
  -28.7687  -12.2676   21.4367 H   0  0  0  0  0  0
  -28.3715  -13.9322   21.7812 H   0  0  0  0  0  0
  -25.2774   -9.5680   22.4758 H   0  0  0  0  0  0
  -24.0009   -7.4633   22.7476 H   0  0  0  0  0  0
  -21.0852   -8.8774   19.8952 H   0  0  0  0  0  0
  -22.3712  -10.9671   19.6162 H   0  0  0  0  0  0
  -21.2005   -7.6148   23.9719 H   0  0  0  0  0  0
  -21.1481   -6.0522   25.9079 H   0  0  0  0  0  0
  -22.0600   -2.7611   23.2841 H   0  0  0  0  0  0
  -22.4077  -11.9851   22.4814 H   0  0  0  0  0  0
  -21.1070  -13.1210   22.2655 H   0  0  0  0  0  0
  -24.6451  -15.8429   20.5626 H   0  0  0  0  0  0
  -26.2650  -15.6577   20.1401 H   0  0  0  0  0  0
  -26.7244  -32.5279   23.0968 H   0  0  0  0  0  0
  -25.0041  -33.9595   25.0277 H   0  0  0  0  0  0
  -22.7530  -31.2831   21.3711 H   0  0  0  0  0  0
  -23.3752  -35.9563   23.3306 H   0  0  0  0  0  0
  -24.3575  -36.8875   22.2071 H   0  0  0  0  0  0
  -23.7240  -37.6430   23.6695 H   0  0  0  0  0  0
  -26.1596  -31.4614   20.6075 H   0  0  0  0  0  0
  -26.8751  -30.7648   22.0255 H   0  0  0  0  0  0
  -28.1409  -28.8049   21.2236 H   0  0  0  0  0  0
  -25.9670  -25.8197   19.0122 H   0  0  0  0  0  0
  -23.9990  -27.2816   18.9736 H   0  0  0  0  0  0
  -23.8120  -30.5476   19.3917 H   0  0  0  0  0  0
  -22.7926  -29.2174   19.8455 H   0  0  0  0  0  0
  -25.1316  -36.1826   25.0806 H   0  0  0  0  0  0
  -21.0027  -28.3295   24.1364 H   0  0  0  0  0  0
  -20.5691  -26.2318   23.3629 H   0  0  0  0  0  0
  -21.6661  -26.7419   22.1205 H   0  0  0  0  0  0
  -19.6918  -25.6291   21.1260 H   0  0  0  0  0  0
  -19.6712  -27.3190   20.6754 H   0  0  0  0  0  0
  -17.4216  -26.6702   21.4028 H   0  0  0  0  0  0
  -18.0329  -26.0106   22.9039 H   0  0  0  0  0  0
  -19.7964  -30.7317   24.2223 H   0  0  0  0  0  0
  -17.5035  -31.6280   24.5168 H   0  0  0  0  0  0
  -15.5371  -30.2985   23.7694 H   0  0  0  0  0  0
  -15.8694  -28.0829   22.7078 H   0  0  0  0  0  0
  -24.5864  -30.7111   25.7692 H   0  0  0  0  0  0
  -24.8886  -32.2949   26.4738 H   0  0  0  0  0  0
  -25.7958  -30.8964   27.0198 H   0  0  0  0  0  0
  -26.3005  -29.6666   24.1254 H   0  0  0  0  0  0
  -27.4001  -29.7239   25.4832 H   0  0  0  0  0  0
  -27.8905  -30.4207   23.9585 H   0  0  0  0  0  0
  -27.2613  -33.3649   26.1995 H   0  0  0  0  0  0
  -28.3873  -32.6855   25.0331 H   0  0  0  0  0  0
  -28.0657  -31.8497   26.5452 H   0  0  0  0  0  0
  -28.2578  -38.0072   24.7503 H   0  0  0  0  0  0
  -28.1063  -36.2598   24.6312 H   0  0  0  0  0  0
  -27.2284  -37.1442   25.8876 H   0  0  0  0  0  0
  -20.9468  -29.8726   21.6763 H   0  0  0  0  0  0
  -26.0132  -38.2789   24.1423 H   0  0  0  0  0  0
  -31.4203  -20.5373   19.7636 H   0  0  0  0  0  0
  -31.6251  -18.0967   19.8201 H   0  0  0  0  0  0
  -27.3786  -20.2840   21.1124 H   0  0  0  0  0  0
  -27.4261  -26.0080   24.1708 H   0  0  0  0  0  0
  -27.8248  -26.9681   22.7735 H   0  0  0  0  0  0
  -29.0367  -25.9212   23.4785 H   0  0  0  0  0  0
  -27.3838  -23.5832   24.1359 H   0  0  0  0  0  0
  -28.8960  -23.3802   23.2770 H   0  0  0  0  0  0
  -27.4086  -22.6421   22.6702 H   0  0  0  0  0  0
  -25.4521  -24.4973   22.9475 H   0  0  0  0  0  0
  -25.7191  -24.2367   21.2313 H   0  0  0  0  0  0
  -25.6409  -25.8678   21.9100 H   0  0  0  0  0  0
  -29.3902  -24.9274   21.2979 H   0  0  0  0  0  0
  -28.7166  -15.7588   20.8764 H   0  0  0  0  0  0
  -27.4946  -23.0162   20.0240 H   0  0  0  0  0  0
  1 25  1  0  0  0
  1 30  2  0  0  0
  1 83  1  0  0  0
  2  3  1  0  0  0
  2 25  1  0  0  0
  2 87  1  0  0  0
  2 88  1  0  0  0
  3  4  1  0  0  0
  3 89  1  0  0  0
  3 90  1  0  0  0
  4  5  1  0  0  0
  4 91  1  0  0  0
  4 92  1  0  0  0
  5  6  1  0  0  0
  5 26  1  0  0  0
  5 93  1  0  0  0
  6 25  1  0  0  0
  6 94  1  0  0  0
  6 95  1  0  0  0
  7  8  2  0  0  0
  7 26  1  0  0  0
  7 29  1  0  0  0
  8  9  1  0  0  0
  8 22  1  0  0  0
  9 10  1  0  0  0
  9 27  2  0  0  0
 10 11  2  0  0  0
 10 15  1  0  0  0
 11 12  1  0  0  0
 11 96  1  0  0  0
 12 13  2  0  0  0
 12 97  1  0  0  0
 13 14  1  0  0  0
 13 31  1  0  0  0
 14 15  2  0  0  0
 14 98  1  0  0  0
 15 99  1  0  0  0
 16 17  2  0  0  0
 16 21  1  0  0  0
 16 31  1  0  0  0
 17 18  1  0  0  0
 17100  1  0  0  0
 18 19  2  0  0  0
 18101  1  0  0  0
 19 20  1  0  0  0
 19 24  1  0  0  0
 20 21  2  0  0  0
 20102  1  0  0  0
 21 23  1  0  0  0
 22 28  1  0  0  0
 22 32  2  0  0  0
 26 27  1  0  0  0
 28103  1  0  0  0
 28104  1  0  0  0
 29105  1  0  0  0
 29106  1  0  0  0
 33 34  1  0  0  0
 33 66  1  0  0  0
 33 70  2  0  0  0
 34 36  1  0  0  0
 34 59  1  0  0  0
 34107  1  0  0  0
 35 44  2  0  0  0
 35 45  1  0  0  0
 35 68  1  0  0  0
 36 56  1  0  0  0
 36108  1  0  0  0
 37 39  1  0  0  0
 37 47  1  0  0  0
 37 66  1  0  0  0
 37109  1  0  0  0
 38 43  2  0  0  0
 38 46  1  0  0  0
 38 47  1  0  0  0
 39 64  1  0  0  0
 39 67  2  0  0  0
 40 52  1  0  0  0
 40 53  2  0  0  0
 40 58  1  0  0  0
 41110  1  0  0  0
 41111  1  0  0  0
 41112  1  0  0  0
 41 48  1  0  0  0
 42 43  1  0  0  0
 42 66  1  0  0  0
 42113  1  0  0  0
 42114  1  0  0  0
 43 44  1  0  0  0
 44115  1  0  0  0
 45 46  2  0  0  0
 45116  1  0  0  0
 46117  1  0  0  0
 47118  1  0  0  0
 47119  1  0  0  0
 48 56  1  0  0  0
 48 65  1  0  0  0
 48120  1  0  0  0
 49 50  1  0  0  0
 49 53  1  0  0  0
 49 64  1  0  0  0
 49121  1  0  0  0
 50 51  1  0  0  0
 50122  1  0  0  0
 50123  1  0  0  0
 51 52  1  0  0  0
 51124  1  0  0  0
 51125  1  0  0  0
 52126  1  0  0  0
 52127  1  0  0  0
 53 54  1  0  0  0
 54 55  2  0  0  0
 54128  1  0  0  0
 55 57  1  0  0  0
 55129  1  0  0  0
 56 69  2  0  0  0
 57 58  2  0  0  0
 57130  1  0  0  0
 58131  1  0  0  0
 59 60  1  0  0  0
 59 61  1  0  0  0
 59 62  1  0  0  0
 60132  1  0  0  0
 60133  1  0  0  0
 60134  1  0  0  0
 61135  1  0  0  0
 61136  1  0  0  0
 61137  1  0  0  0
 62138  1  0  0  0
 62139  1  0  0  0
 62140  1  0  0  0
 63 65  1  0  0  0
 63141  1  0  0  0
 63142  1  0  0  0
 63143  1  0  0  0
 64144  1  0  0  0
 65145  1  0  0  0
 68 81  1  0  0  0
 71 72  2  0  0  0
 71 74  1  0  0  0
 71146  1  0  0  0
 72 75  1  0  0  0
 72147  1  0  0  0
 73 74  2  0  0  0
 73 76  1  0  0  0
 73148  1  0  0  0
 74 77  1  0  0  0
 75 76  2  0  0  0
 75 83  1  0  0  0
 76 86  1  0  0  0
 77 84  1  0  0  0
 77 85  2  0  0  0
 78149  1  0  0  0
 78150  1  0  0  0
 78151  1  0  0  0
 78 82  1  0  0  0
 79 82  1  0  0  0
 79152  1  0  0  0
 79153  1  0  0  0
 79154  1  0  0  0
 80 82  1  0  0  0
 80155  1  0  0  0
 80156  1  0  0  0
 80157  1  0  0  0
 81 82  1  0  0  0
 81 84  1  0  0  0
 81158  1  0  0  0
 83159  1  0  0  0
 84160  1  0  0  0
M  ISO  4   1 100  68 101  81 101  83 100
M  END
> <chiral flag>
0

> <version>
0

> <s_m_source_file>
/data/baiqing/PycharmProjects/Reinvent-master-3.2/result/LINK_invent/BTK/process_docking_weight1_custom_product_contain_oxygen_bond_distance_aromatic_linkinvent_7_9_3/rearranged_h_0077.sdf

> <i_m_source_file_index>
81

> <r_mmod_Potential_Energy-OPLS-2005>
436.963348388672

> <r_mmod_Stretch_Energy-OPLS-2005>
265.622650146484

> <r_mmod_Bend_Energy-OPLS-2005>
326.707000732422

> <r_mmod_Torsional_Energy-OPLS-2005>
236.9873046875

> <r_mmod_Improper_Torsional_Energy-OPLS-2005>
6.08284711837769

> <r_mmod_Van_der_Waal_Energy-OPLS-2005>
134.460754394531

> <r_mmod_Electrostatic_Energy-OPLS-2005>
-523.408264160156

> <r_mmod_Solvation_Energy-OPLS-2005>
-216.375137329102

> <b_mmod_Minimization_Converged-OPLS-2005>
0

> <r_mmod_RMS_Derivative-OPLS-2005>
1.23083794116974

$$$$
81
                    3D
 Structure written by MMmdl.
159167  0  0  1  0            999 V2000
  -30.6623  -14.5298   20.5606 C   0  0  0  0  0  0
  -30.4361  -12.3377   19.4307 C   0  0  0  0  0  0
  -29.5026  -12.5143   18.2131 C   0  0  0  0  0  0
  -28.0237  -12.3628   18.6237 C   0  0  0  0  0  0
  -27.6631  -13.2044   19.8764 C   0  0  2  0  0  0
  -28.7059  -12.9923   20.9980 C   0  0  0  0  0  0
  -25.2601  -13.8152   20.5685 C   0  0  0  0  0  0
  -24.1845  -13.0431   20.9163 C   0  0  0  0  0  0
  -24.6395  -11.6896   20.8718 C   0  0  0  0  0  0
  -23.9053  -10.4288   21.0397 C   0  0  0  0  0  0
  -24.3609   -9.4206   21.9181 C   0  0  0  0  0  0
  -23.6283   -8.2240   22.0753 C   0  0  0  0  0  0
  -22.4265   -8.0278   21.3542 C   0  0  0  0  0  0
  -21.9894   -9.0253   20.4649 C   0  0  0  0  0  0
  -22.7219  -10.2133   20.3054 C   0  0  0  0  0  0
  -21.6854   -6.0724   22.5274 C   0  0  0  0  0  0
  -21.4018   -6.5630   23.8206 C   0  0  0  0  0  0
  -21.3661   -5.6786   24.9172 C   0  0  0  0  0  0
  -21.6047   -4.3048   24.7226 C   0  0  0  0  0  0
  -21.8821   -3.8132   23.4350 C   0  0  0  0  0  0
  -21.9194   -4.6950   22.3405 C   0  0  0  0  0  0
  -22.7869  -13.5238   21.1832 C   0  0  0  0  0  0
  -22.1660   -4.2131   21.0981 F   0  0  0  0  0  0
  -21.5629   -3.4536   25.7744 F   0  0  0  0  0  0
  -30.0360  -13.3214   20.4523 N   0  0  0  0  0  0
  -26.3035  -12.9313   20.3366 N   0  0  0  0  0  0
  -25.9321  -11.6474   20.5753 N   0  0  0  0  0  0
  -22.0504  -12.8243   22.0395 N   0  0  0  0  0  0
  -25.4335  -15.1874   20.4145 N   0  0  0  0  0  0
  -31.7765  -14.7487   20.0741 O   0  0  0  0  0  0
  -21.6640   -6.8867   21.4236 O   0  0  0  0  0  0
  -22.3552  -14.5545   20.6679 O   0  0  0  0  0  0
  -24.6177  -31.8647   23.2071 C   0  0  0  0  0  0
  -25.9059  -32.4803   23.8379 C   0  0  1  0  0  0
  -27.2345  -27.4052   20.0996 C   0  0  0  0  0  0
  -25.5906  -33.8599   24.2308 N   0  0  0  0  0  0
  -23.4089  -30.4869   21.5475 C   0  0  2  0  0  0
  -24.8586  -28.9496   20.1119 C   0  0  0  0  0  0
  -22.7439  -29.4635   22.4963 C   0  0  0  0  0  0
  -18.0284  -28.1374   22.8487 C   0  0  0  0  0  0
  -24.1490  -36.7306   23.2638 C   0  0  0  0  0  0
  -25.9410  -30.8210   21.3660 C   0  0  0  0  0  0
  -26.0209  -29.4530   20.7124 C   0  0  0  0  0  0
  -27.2153  -28.6879   20.7049 C   0  0  0  0  0  0
  -26.0590  -26.9247   19.4912 C   0  0  0  0  0  0
  -24.8735  -27.6849   19.4972 C   0  0  0  0  0  0
  -23.6199  -29.8182   20.1627 C   0  0  0  0  0  0
  -25.4106  -36.3091   24.0334 C   0  0  1  0  0  0
  -20.5875  -28.3667   23.1297 C   0  0  2  0  0  0
  -20.6763  -26.9395   22.5410 C   0  0  0  0  0  0
  -19.5742  -26.6375   21.5205 C   0  0  0  0  0  0
  -18.1923  -26.7920   22.1619 C   0  0  0  0  0  0
  -19.1534  -28.8840   23.2887 C   0  0  0  0  0  0
  -18.9460  -30.1444   23.8899 C   0  0  0  0  0  0
  -17.6460  -30.6574   24.0568 C   0  0  0  0  0  0
  -25.9037  -34.9461   23.5119 C   0  0  0  0  0  0
  -16.5352  -29.9076   23.6325 C   0  0  0  0  0  0
  -16.7274  -28.6496   23.0344 C   0  0  0  0  0  0
  -26.4477  -31.6591   25.0717 C   0  0  0  0  0  0
  -25.3744  -31.3730   26.1474 C   0  0  0  0  0  0
  -27.0294  -30.3022   24.6109 C   0  0  0  0  0  0
  -27.6055  -32.4314   25.7471 C   0  0  0  0  0  0
  -27.5585  -37.1797   24.8456 C   0  0  0  0  0  0
  -21.4161  -29.3026   22.3700 N   0  0  0  0  0  0
  -26.4287  -37.3781   23.9413 N   0  0  0  0  0  0
  -24.6742  -31.0726   22.0983 N   0  0  0  0  0  0
  -23.4195  -28.8178   23.3020 O   0  0  0  0  0  0
  -28.3433  -26.5797   20.1057 O   0  0  0  0  0  0
  -26.5600  -34.8919   22.4680 O   0  0  0  0  0  0
  -23.5361  -32.1407   23.7445 O   0  0  0  0  0  0
  -28.6026  -18.5959   19.5290 C   0  0  0  0  0  0
  -30.0914  -19.2841   21.3072 C   0  0  0  0  0  0
  -28.9238  -17.2386   19.7700 C   0  0  0  0  0  0
  -30.4123  -17.9190   21.5559 C   0  0  0  0  0  0
  -29.1586  -19.6465   20.3012 C   0  0  0  0  0  0
  -29.8201  -16.8765   20.8002 C   0  0  0  0  0  0
  -30.4364  -24.6339   18.0613 C   0  0  0  0  0  0
  -30.4125  -24.1656   19.3184 C   0  0  0  0  0  0
  -28.4234  -25.7200   21.1848 C   0  0  0  0  0  0
  -28.6487  -21.0721   20.1055 C   0  0  0  0  0  0
  -28.7911  -24.4064   21.2009 C   0  0  0  0  0  0
  -28.8124  -23.6787   22.5371 C   0  0  0  0  0  0
  -29.1964  -23.5472   19.9801 C   0  0  2  0  0  0
  -29.9470  -15.4961   21.1797 N   0  0  0  0  0  0
  -29.4925  -22.1140   20.2714 N   0  0  0  0  0  0
  -27.4829  -21.2446   19.7441 O   0  0  0  0  0  0
  -31.4777  -12.4567   19.1275 H   0  0  0  0  0  0
  -30.3572  -11.3256   19.8321 H   0  0  0  0  0  0
  -29.7510  -11.7848   17.4408 H   0  0  0  0  0  0
  -29.6611  -13.4972   17.7667 H   0  0  0  0  0  0
  -27.8423  -11.3064   18.8240 H   0  0  0  0  0  0
  -27.3729  -12.6281   17.7900 H   0  0  0  0  0  0
  -27.7013  -14.2502   19.5746 H   0  0  0  0  0  0
  -28.6941  -11.9535   21.3313 H   0  0  0  0  0  0
  -28.4545  -13.5788   21.8822 H   0  0  0  0  0  0
  -25.2763   -9.5679   22.4744 H   0  0  0  0  0  0
  -23.9996   -7.4636   22.7472 H   0  0  0  0  0  0
  -21.0818   -8.8769   19.8966 H   0  0  0  0  0  0
  -22.3678  -10.9667   19.6157 H   0  0  0  0  0  0
  -21.2011   -7.6143   23.9707 H   0  0  0  0  0  0
  -21.1479   -6.0518   25.9072 H   0  0  0  0  0  0
  -22.0600   -2.7591   23.2863 H   0  0  0  0  0  0
  -22.4112  -11.9908   22.4796 H   0  0  0  0  0  0
  -21.1126  -13.1284   22.2599 H   0  0  0  0  0  0
  -24.6719  -15.8459   20.5371 H   0  0  0  0  0  0
  -26.2984  -15.6310   20.1335 H   0  0  0  0  0  0
  -26.7130  -32.5508   23.1143 H   0  0  0  0  0  0
  -25.0061  -33.9749   25.0455 H   0  0  0  0  0  0
  -22.6986  -31.3043   21.4071 H   0  0  0  0  0  0
  -23.3742  -35.9649   23.3289 H   0  0  0  0  0  0
  -24.3597  -36.8929   22.2056 H   0  0  0  0  0  0
  -23.7249  -37.6509   23.6660 H   0  0  0  0  0  0
  -26.0582  -31.5862   20.5973 H   0  0  0  0  0  0
  -26.8261  -30.8738   21.9881 H   0  0  0  0  0  0
  -28.1115  -29.0673   21.1751 H   0  0  0  0  0  0
  -26.0614  -25.9487   19.0266 H   0  0  0  0  0  0
  -23.9805  -27.2906   19.0317 H   0  0  0  0  0  0
  -23.7262  -30.5930   19.4027 H   0  0  0  0  0  0
  -22.7433  -29.2386   19.8676 H   0  0  0  0  0  0
  -25.1277  -36.1951   25.0826 H   0  0  0  0  0  0
  -20.9968  -28.3243   24.1417 H   0  0  0  0  0  0
  -20.5637  -26.2287   23.3609 H   0  0  0  0  0  0
  -21.6640  -26.7406   22.1229 H   0  0  0  0  0  0
  -19.6898  -25.6289   21.1224 H   0  0  0  0  0  0
  -19.6675  -27.3197   20.6745 H   0  0  0  0  0  0
  -17.4189  -26.6675   21.4024 H   0  0  0  0  0  0
  -18.0321  -26.0056   22.9009 H   0  0  0  0  0  0
  -19.7937  -30.7263   24.2262 H   0  0  0  0  0  0
  -17.5012  -31.6250   24.5175 H   0  0  0  0  0  0
  -15.5351  -30.2978   23.7634 H   0  0  0  0  0  0
  -15.8683  -28.0813   22.7046 H   0  0  0  0  0  0
  -24.5893  -30.7097   25.7827 H   0  0  0  0  0  0
  -24.8972  -32.2904   26.4932 H   0  0  0  0  0  0
  -25.8100  -30.8890   27.0224 H   0  0  0  0  0  0
  -26.2837  -29.6793   24.1153 H   0  0  0  0  0  0
  -27.4036  -29.7254   25.4576 H   0  0  0  0  0  0
  -27.8691  -30.4320   23.9276 H   0  0  0  0  0  0
  -27.2673  -33.3601   26.2078 H   0  0  0  0  0  0
  -28.3850  -32.6891   25.0288 H   0  0  0  0  0  0
  -28.0739  -31.8419   26.5360 H   0  0  0  0  0  0
  -28.2584  -38.0111   24.7518 H   0  0  0  0  0  0
  -28.1093  -36.2643   24.6243 H   0  0  0  0  0  0
  -27.2316  -37.1408   25.8861 H   0  0  0  0  0  0
  -20.9327  -29.8774   21.6939 H   0  0  0  0  0  0
  -26.0167  -38.2850   24.1427 H   0  0  0  0  0  0
  -27.8775  -18.8286   18.7609 H   0  0  0  0  0  0
  -30.5260  -20.0485   21.9358 H   0  0  0  0  0  0
  -28.4338  -16.4752   19.1830 H   0  0  0  0  0  0
  -31.0808  -17.6768   22.3704 H   0  0  0  0  0  0
  -31.3352  -25.0664   17.6449 H   0  0  0  0  0  0
  -29.5605  -24.5935   17.4295 H   0  0  0  0  0  0
  -31.3086  -24.2281   19.9202 H   0  0  0  0  0  0
  -28.1460  -26.2301   22.0976 H   0  0  0  0  0  0
  -28.5318  -24.3349   23.3617 H   0  0  0  0  0  0
  -29.8111  -23.2936   22.7461 H   0  0  0  0  0  0
  -28.1106  -22.8445   22.5319 H   0  0  0  0  0  0
  -28.3677  -23.6040   19.2707 H   0  0  0  0  0  0
  -29.1233  -15.1185   21.6225 H   0  0  0  0  0  0
  -30.4391  -21.8874   20.5393 H   0  0  0  0  0  0
  1 25  1  0  0  0
  1 30  2  0  0  0
  1 84  1  0  0  0
  2  3  1  0  0  0
  2 25  1  0  0  0
  2 87  1  0  0  0
  2 88  1  0  0  0
  3  4  1  0  0  0
  3 89  1  0  0  0
  3 90  1  0  0  0
  4  5  1  0  0  0
  4 91  1  0  0  0
  4 92  1  0  0  0
  5  6  1  0  0  0
  5 26  1  0  0  0
  5 93  1  0  0  0
  6 25  1  0  0  0
  6 94  1  0  0  0
  6 95  1  0  0  0
  7  8  2  0  0  0
  7 26  1  0  0  0
  7 29  1  0  0  0
  8  9  1  0  0  0
  8 22  1  0  0  0
  9 10  1  0  0  0
  9 27  2  0  0  0
 10 11  2  0  0  0
 10 15  1  0  0  0
 11 12  1  0  0  0
 11 96  1  0  0  0
 12 13  2  0  0  0
 12 97  1  0  0  0
 13 14  1  0  0  0
 13 31  1  0  0  0
 14 15  2  0  0  0
 14 98  1  0  0  0
 15 99  1  0  0  0
 16 17  2  0  0  0
 16 21  1  0  0  0
 16 31  1  0  0  0
 17 18  1  0  0  0
 17100  1  0  0  0
 18 19  2  0  0  0
 18101  1  0  0  0
 19 20  1  0  0  0
 19 24  1  0  0  0
 20 21  2  0  0  0
 20102  1  0  0  0
 21 23  1  0  0  0
 22 28  1  0  0  0
 22 32  2  0  0  0
 26 27  1  0  0  0
 28103  1  0  0  0
 28104  1  0  0  0
 29105  1  0  0  0
 29106  1  0  0  0
 33 34  1  0  0  0
 33 66  1  0  0  0
 33 70  2  0  0  0
 34 36  1  0  0  0
 34 59  1  0  0  0
 34107  1  0  0  0
 35 44  2  0  0  0
 35 45  1  0  0  0
 35 68  1  0  0  0
 36 56  1  0  0  0
 36108  1  0  0  0
 37 39  1  0  0  0
 37 47  1  0  0  0
 37 66  1  0  0  0
 37109  1  0  0  0
 38 43  2  0  0  0
 38 46  1  0  0  0
 38 47  1  0  0  0
 39 64  1  0  0  0
 39 67  2  0  0  0
 40 52  1  0  0  0
 40 53  2  0  0  0
 40 58  1  0  0  0
 41110  1  0  0  0
 41111  1  0  0  0
 41112  1  0  0  0
 41 48  1  0  0  0
 42 43  1  0  0  0
 42 66  1  0  0  0
 42113  1  0  0  0
 42114  1  0  0  0
 43 44  1  0  0  0
 44115  1  0  0  0
 45 46  2  0  0  0
 45116  1  0  0  0
 46117  1  0  0  0
 47118  1  0  0  0
 47119  1  0  0  0
 48 56  1  0  0  0
 48 65  1  0  0  0
 48120  1  0  0  0
 49 50  1  0  0  0
 49 53  1  0  0  0
 49 64  1  0  0  0
 49121  1  0  0  0
 50 51  1  0  0  0
 50122  1  0  0  0
 50123  1  0  0  0
 51 52  1  0  0  0
 51124  1  0  0  0
 51125  1  0  0  0
 52126  1  0  0  0
 52127  1  0  0  0
 53 54  1  0  0  0
 54 55  2  0  0  0
 54128  1  0  0  0
 55 57  1  0  0  0
 55129  1  0  0  0
 56 69  2  0  0  0
 57 58  2  0  0  0
 57130  1  0  0  0
 58131  1  0  0  0
 59 60  1  0  0  0
 59 61  1  0  0  0
 59 62  1  0  0  0
 60132  1  0  0  0
 60133  1  0  0  0
 60134  1  0  0  0
 61135  1  0  0  0
 61136  1  0  0  0
 61137  1  0  0  0
 62138  1  0  0  0
 62139  1  0  0  0
 62140  1  0  0  0
 63 65  1  0  0  0
 63141  1  0  0  0
 63142  1  0  0  0
 63143  1  0  0  0
 64144  1  0  0  0
 65145  1  0  0  0
 68 79  1  0  0  0
 71 73  2  0  0  0
 71 75  1  0  0  0
 71146  1  0  0  0
 72 74  1  0  0  0
 72 75  2  0  0  0
 72147  1  0  0  0
 73 76  1  0  0  0
 73148  1  0  0  0
 74 76  2  0  0  0
 74149  1  0  0  0
 75 80  1  0  0  0
 76 84  1  0  0  0
 77 78  2  0  0  0
 77150  1  0  0  0
 77151  1  0  0  0
 78 83  1  0  0  0
 78152  1  0  0  0
 79 81  2  0  0  0
 79153  1  0  0  0
 80 85  1  0  0  0
 80 86  2  0  0  0
 81 82  1  0  0  0
 81 83  1  0  0  0
 82154  1  0  0  0
 82155  1  0  0  0
 82156  1  0  0  0
 83 85  1  0  0  0
 83157  1  0  0  0
 84158  1  0  0  0
 85159  1  0  0  0
M  ISO  4   1 100  68 101  79 101  84 100
M  END
> <chiral flag>
0

> <version>
0

> <s_m_source_file>
/data/baiqing/PycharmProjects/Reinvent-master-3.2/result/LINK_invent/BTK/process_docking_weight1_custom_product_contain_oxygen_bond_distance_aromatic_linkinvent_7_9_3/rearranged_h_0077.sdf

> <i_m_source_file_index>
82

> <r_mmod_Potential_Energy-OPLS-2005>
-69.0860290527344

> <r_mmod_Stretch_Energy-OPLS-2005>
47.3276557922363

> <r_mmod_Bend_Energy-OPLS-2005>
109.546905517578

> <r_mmod_Torsional_Energy-OPLS-2005>
257.673797607422

> <r_mmod_Improper_Torsional_Energy-OPLS-2005>
6.29746723175049

> <r_mmod_Van_der_Waal_Energy-OPLS-2005>
139.85676574707

> <r_mmod_Electrostatic_Energy-OPLS-2005>
-430.817535400391

> <r_mmod_Solvation_Energy-OPLS-2005>
-219.568359375

> <b_mmod_Minimization_Converged-OPLS-2005>
0

> <r_mmod_RMS_Derivative-OPLS-2005>
1.14384734630585

$$$$
82
                    3D
 Structure written by MMmdl.
156165  0  0  1  0            999 V2000
  -30.6184  -14.7758   20.5455 C   0  0  0  0  0  0
  -30.4387  -12.4954   19.4801 C   0  0  0  0  0  0
  -29.5165  -12.5335   18.2406 C   0  0  0  0  0  0
  -28.0441  -12.3384   18.6469 C   0  0  0  0  0  0
  -27.6428  -13.2316   19.8483 C   0  0  2  0  0  0
  -28.6779  -13.1493   20.9863 C   0  0  0  0  0  0
  -25.2516  -13.8194   20.5673 C   0  0  0  0  0  0
  -24.1805  -13.0437   20.9178 C   0  0  0  0  0  0
  -24.6395  -11.6915   20.8717 C   0  0  0  0  0  0
  -23.9072  -10.4291   21.0393 C   0  0  0  0  0  0
  -24.3622   -9.4210   21.9173 C   0  0  0  0  0  0
  -23.6296   -8.2248   22.0750 C   0  0  0  0  0  0
  -22.4278   -8.0281   21.3545 C   0  0  0  0  0  0
  -21.9910   -9.0252   20.4645 C   0  0  0  0  0  0
  -22.7240  -10.2132   20.3048 C   0  0  0  0  0  0
  -21.6856   -6.0738   22.5282 C   0  0  0  0  0  0
  -21.4017   -6.5640   23.8216 C   0  0  0  0  0  0
  -21.3657   -5.6792   24.9176 C   0  0  0  0  0  0
  -21.6044   -4.3055   24.7229 C   0  0  0  0  0  0
  -21.8817   -3.8147   23.4349 C   0  0  0  0  0  0
  -21.9193   -4.6965   22.3404 C   0  0  0  0  0  0
  -22.7831  -13.5219   21.1856 C   0  0  0  0  0  0
  -22.1662   -4.2148   21.0983 F   0  0  0  0  0  0
  -21.5625   -3.4537   25.7740 F   0  0  0  0  0  0
  -29.9880  -13.5422   20.4363 N   0  0  0  0  0  0
  -26.2933  -12.9396   20.3224 N   0  0  0  0  0  0
  -25.9320  -11.6540   20.5697 N   0  0  0  0  0  0
  -22.0480  -12.8213   22.0420 N   0  0  0  0  0  0
  -25.4236  -15.1922   20.4146 N   0  0  0  0  0  0
  -31.7254  -14.9250   20.0170 O   0  0  0  0  0  0
  -21.6643   -6.8881   21.4245 O   0  0  0  0  0  0
  -22.3507  -14.5526   20.6709 O   0  0  0  0  0  0
  -24.6346  -31.8509   23.1944 C   0  0  0  0  0  0
  -25.9158  -32.4728   23.8305 C   0  0  1  0  0  0
  -27.2289  -27.2339   20.1204 C   0  0  0  0  0  0
  -25.5936  -33.8532   24.2225 N   0  0  0  0  0  0
  -23.4336  -30.4724   21.5378 C   0  0  2  0  0  0
  -24.8826  -28.9144   20.1058 C   0  0  0  0  0  0
  -22.7522  -29.4580   22.4887 C   0  0  0  0  0  0
  -18.0297  -28.1392   22.8478 C   0  0  0  0  0  0
  -24.1491  -36.7277   23.2641 C   0  0  0  0  0  0
  -25.9821  -30.7544   21.3786 C   0  0  0  0  0  0
  -26.0556  -29.3756   20.7163 C   0  0  0  0  0  0
  -27.2278  -28.5471   20.7143 C   0  0  0  0  0  0
  -26.0229  -26.8402   19.4979 C   0  0  0  0  0  0
  -24.8727  -27.6553   19.4862 C   0  0  0  0  0  0
  -23.6542  -29.8049   20.1544 C   0  0  0  0  0  0
  -25.4120  -36.3054   24.0321 C   0  0  1  0  0  0
  -20.5903  -28.3706   23.1256 C   0  0  2  0  0  0
  -20.6786  -26.9420   22.5405 C   0  0  0  0  0  0
  -19.5760  -26.6384   21.5212 C   0  0  0  0  0  0
  -18.1939  -26.7931   22.1623 C   0  0  0  0  0  0
  -19.1551  -28.8868   23.2861 C   0  0  0  0  0  0
  -18.9472  -30.1467   23.8882 C   0  0  0  0  0  0
  -17.6470  -30.6591   24.0562 C   0  0  0  0  0  0
  -25.9062  -34.9424   23.5079 C   0  0  0  0  0  0
  -16.5361  -29.9087   23.6333 C   0  0  0  0  0  0
  -16.7282  -28.6507   23.0350 C   0  0  0  0  0  0
  -26.4512  -31.6573   25.0716 C   0  0  0  0  0  0
  -25.3723  -31.3743   26.1431 C   0  0  0  0  0  0
  -27.0369  -30.2980   24.6241 C   0  0  0  0  0  0
  -27.6048  -32.4332   25.7499 C   0  0  0  0  0  0
  -27.5576  -37.1794   24.8463 C   0  0  0  0  0  0
  -21.4223  -29.3043   22.3635 N   0  0  0  0  0  0
  -26.4288  -37.3758   23.9407 N   0  0  0  0  0  0
  -24.7026  -31.0447   22.0931 N   0  0  0  0  0  0
  -23.4204  -28.8127   23.3006 O   0  0  0  0  0  0
  -28.3041  -26.3050   20.2333 O   0  0  0  0  0  0
  -26.5643  -34.8910   22.4653 O   0  0  0  0  0  0
  -23.5488  -32.1343   23.7222 O   0  0  0  0  0  0
  -29.3283  -19.6660   21.7125 C   0  0  0  0  0  0
  -29.5600  -18.2691   21.9495 C   0  0  0  0  0  0
  -29.8113  -17.9025   19.6384 C   0  0  0  0  0  0
  -29.3098  -20.2998   20.4360 C   0  0  0  0  0  0
  -29.8234  -17.2927   20.9321 C   0  0  0  0  0  0
  -29.5687  -19.3168   19.4104 C   0  0  0  0  0  0
  -28.6732  -23.7803   19.7975 C   0  0  0  0  0  0
  -28.8096  -22.9729   21.0186 C   0  0  0  0  0  0
  -28.4390  -25.1188   19.4367 C   0  0  0  0  0  0
  -28.9183  -22.4812   18.9734 C   0  0  0  0  0  0
  -28.4600  -25.4776   17.9581 C   0  0  0  0  0  0
  -30.0069  -15.5241   22.7174 C   0  0  0  0  0  0
  -29.0521  -21.7770   20.2664 N   0  0  0  0  0  0
  -30.0277  -15.8227   21.2727 N   0  0  0  0  0  0
  -28.7245  -23.2748   22.1910 O   0  0  0  0  0  0
  -29.5862  -19.7436   18.1242 F   0  0  0  0  0  0
  -31.4768  -12.6340   19.1737 H   0  0  0  0  0  0
  -30.4067  -11.5124   19.9528 H   0  0  0  0  0  0
  -29.8119  -11.7647   17.5250 H   0  0  0  0  0  0
  -29.6326  -13.4898   17.7277 H   0  0  0  0  0  0
  -27.9102  -11.2880   18.9080 H   0  0  0  0  0  0
  -27.3878  -12.5280   17.7968 H   0  0  0  0  0  0
  -27.6431  -14.2582   19.4808 H   0  0  0  0  0  0
  -28.7239  -12.1403   21.3984 H   0  0  0  0  0  0
  -28.3530  -13.7888   21.8039 H   0  0  0  0  0  0
  -25.2768   -9.5687   22.4739 H   0  0  0  0  0  0
  -24.0004   -7.4643   22.7471 H   0  0  0  0  0  0
  -21.0839   -8.8773   19.8952 H   0  0  0  0  0  0
  -22.3697  -10.9668   19.6152 H   0  0  0  0  0  0
  -21.2014   -7.6148   23.9721 H   0  0  0  0  0  0
  -21.1478   -6.0520   25.9080 H   0  0  0  0  0  0
  -22.0599   -2.7607   23.2852 H   0  0  0  0  0  0
  -22.4103  -11.9886   22.4820 H   0  0  0  0  0  0
  -21.1093  -13.1240   22.2619 H   0  0  0  0  0  0
  -24.6645  -15.8521   20.5414 H   0  0  0  0  0  0
  -26.2888  -15.6330   20.1272 H   0  0  0  0  0  0
  -26.7223  -32.5367   23.1042 H   0  0  0  0  0  0
  -25.0066  -33.9660   25.0360 H   0  0  0  0  0  0
  -22.7314  -31.2954   21.3892 H   0  0  0  0  0  0
  -23.3747  -35.9614   23.3300 H   0  0  0  0  0  0
  -24.3574  -36.8908   22.2055 H   0  0  0  0  0  0
  -23.7253  -37.6478   23.6675 H   0  0  0  0  0  0
  -26.1271  -31.5160   20.6108 H   0  0  0  0  0  0
  -26.8563  -30.8006   22.0164 H   0  0  0  0  0  0
  -28.1218  -28.8904   21.2159 H   0  0  0  0  0  0
  -25.9394  -25.8615   19.0495 H   0  0  0  0  0  0
  -23.9705  -27.2898   19.0148 H   0  0  0  0  0  0
  -23.7816  -30.5812   19.3989 H   0  0  0  0  0  0
  -22.7714  -29.2410   19.8476 H   0  0  0  0  0  0
  -25.1305  -36.1889   25.0813 H   0  0  0  0  0  0
  -20.9996  -28.3295   24.1376 H   0  0  0  0  0  0
  -20.5683  -26.2322   23.3616 H   0  0  0  0  0  0
  -21.6653  -26.7433   22.1203 H   0  0  0  0  0  0
  -19.6921  -25.6291   21.1252 H   0  0  0  0  0  0
  -19.6700  -27.3186   20.6735 H   0  0  0  0  0  0
  -17.4208  -26.6670   21.4028 H   0  0  0  0  0  0
  -18.0341  -26.0080   22.9024 H   0  0  0  0  0  0
  -19.7949  -30.7287   24.2242 H   0  0  0  0  0  0
  -17.5024  -31.6267   24.5169 H   0  0  0  0  0  0
  -15.5360  -30.2984   23.7667 H   0  0  0  0  0  0
  -15.8684  -28.0824   22.7067 H   0  0  0  0  0  0
  -24.5895  -30.7095   25.7763 H   0  0  0  0  0  0
  -24.8923  -32.2921   26.4834 H   0  0  0  0  0  0
  -25.8030  -30.8934   27.0221 H   0  0  0  0  0  0
  -26.2966  -29.6715   24.1249 H   0  0  0  0  0  0
  -27.4012  -29.7263   25.4786 H   0  0  0  0  0  0
  -27.8860  -30.4240   23.9520 H   0  0  0  0  0  0
  -27.2634  -33.3634   26.2055 H   0  0  0  0  0  0
  -28.3871  -32.6892   25.0341 H   0  0  0  0  0  0
  -28.0702  -31.8475   26.5436 H   0  0  0  0  0  0
  -28.2591  -38.0094   24.7502 H   0  0  0  0  0  0
  -28.1077  -36.2621   24.6299 H   0  0  0  0  0  0
  -27.2292  -37.1452   25.8867 H   0  0  0  0  0  0
  -20.9417  -29.8763   21.6829 H   0  0  0  0  0  0
  -26.0160  -38.2829   24.1404 H   0  0  0  0  0  0
  -29.1469  -20.2849   22.5795 H   0  0  0  0  0  0
  -29.5208  -17.9753   22.9869 H   0  0  0  0  0  0
  -29.9838  -17.2793   18.7740 H   0  0  0  0  0  0
  -29.8377  -22.4306   18.3869 H   0  0  0  0  0  0
  -28.0799  -22.0983   18.3894 H   0  0  0  0  0  0
  -29.3343  -25.0407   17.4755 H   0  0  0  0  0  0
  -28.5081  -26.5552   17.8007 H   0  0  0  0  0  0
  -27.5722  -25.0944   17.4556 H   0  0  0  0  0  0
  -30.7587  -16.1186   23.2387 H   0  0  0  0  0  0
  -30.2268  -14.4850   22.9734 H   0  0  0  0  0  0
  -29.0273  -15.7497   23.1405 H   0  0  0  0  0  0
  1 25  1  0  0  0
  1 30  2  0  0  0
  1 84  1  0  0  0
  2  3  1  0  0  0
  2 25  1  0  0  0
  2 87  1  0  0  0
  2 88  1  0  0  0
  3  4  1  0  0  0
  3 89  1  0  0  0
  3 90  1  0  0  0
  4  5  1  0  0  0
  4 91  1  0  0  0
  4 92  1  0  0  0
  5  6  1  0  0  0
  5 26  1  0  0  0
  5 93  1  0  0  0
  6 25  1  0  0  0
  6 94  1  0  0  0
  6 95  1  0  0  0
  7  8  2  0  0  0
  7 26  1  0  0  0
  7 29  1  0  0  0
  8  9  1  0  0  0
  8 22  1  0  0  0
  9 10  1  0  0  0
  9 27  2  0  0  0
 10 11  2  0  0  0
 10 15  1  0  0  0
 11 12  1  0  0  0
 11 96  1  0  0  0
 12 13  2  0  0  0
 12 97  1  0  0  0
 13 14  1  0  0  0
 13 31  1  0  0  0
 14 15  2  0  0  0
 14 98  1  0  0  0
 15 99  1  0  0  0
 16 17  2  0  0  0
 16 21  1  0  0  0
 16 31  1  0  0  0
 17 18  1  0  0  0
 17100  1  0  0  0
 18 19  2  0  0  0
 18101  1  0  0  0
 19 20  1  0  0  0
 19 24  1  0  0  0
 20 21  2  0  0  0
 20102  1  0  0  0
 21 23  1  0  0  0
 22 28  1  0  0  0
 22 32  2  0  0  0
 26 27  1  0  0  0
 28103  1  0  0  0
 28104  1  0  0  0
 29105  1  0  0  0
 29106  1  0  0  0
 33 34  1  0  0  0
 33 66  1  0  0  0
 33 70  2  0  0  0
 34 36  1  0  0  0
 34 59  1  0  0  0
 34107  1  0  0  0
 35 44  2  0  0  0
 35 45  1  0  0  0
 35 68  1  0  0  0
 36 56  1  0  0  0
 36108  1  0  0  0
 37 39  1  0  0  0
 37 47  1  0  0  0
 37 66  1  0  0  0
 37109  1  0  0  0
 38 43  2  0  0  0
 38 46  1  0  0  0
 38 47  1  0  0  0
 39 64  1  0  0  0
 39 67  2  0  0  0
 40 52  1  0  0  0
 40 53  2  0  0  0
 40 58  1  0  0  0
 41110  1  0  0  0
 41111  1  0  0  0
 41112  1  0  0  0
 41 48  1  0  0  0
 42 43  1  0  0  0
 42 66  1  0  0  0
 42113  1  0  0  0
 42114  1  0  0  0
 43 44  1  0  0  0
 44115  1  0  0  0
 45 46  2  0  0  0
 45116  1  0  0  0
 46117  1  0  0  0
 47118  1  0  0  0
 47119  1  0  0  0
 48 56  1  0  0  0
 48 65  1  0  0  0
 48120  1  0  0  0
 49 50  1  0  0  0
 49 53  1  0  0  0
 49 64  1  0  0  0
 49121  1  0  0  0
 50 51  1  0  0  0
 50122  1  0  0  0
 50123  1  0  0  0
 51 52  1  0  0  0
 51124  1  0  0  0
 51125  1  0  0  0
 52126  1  0  0  0
 52127  1  0  0  0
 53 54  1  0  0  0
 54 55  2  0  0  0
 54128  1  0  0  0
 55 57  1  0  0  0
 55129  1  0  0  0
 56 69  2  0  0  0
 57 58  2  0  0  0
 57130  1  0  0  0
 58131  1  0  0  0
 59 60  1  0  0  0
 59 61  1  0  0  0
 59 62  1  0  0  0
 60132  1  0  0  0
 60133  1  0  0  0
 60134  1  0  0  0
 61135  1  0  0  0
 61136  1  0  0  0
 61137  1  0  0  0
 62138  1  0  0  0
 62139  1  0  0  0
 62140  1  0  0  0
 63 65  1  0  0  0
 63141  1  0  0  0
 63142  1  0  0  0
 63143  1  0  0  0
 64144  1  0  0  0
 65145  1  0  0  0
 68 79  1  0  0  0
 71 72  2  0  0  0
 71 74  1  0  0  0
 71146  1  0  0  0
 72 75  1  0  0  0
 72147  1  0  0  0
 73 75  2  0  0  0
 73 76  1  0  0  0
 73148  1  0  0  0
 74 76  2  0  0  0
 74 83  1  0  0  0
 75 84  1  0  0  0
 76 86  1  0  0  0
 77 78  1  0  0  0
 77 79  2  0  0  0
 77 80  1  0  0  0
 78 83  1  0  0  0
 78 85  2  0  0  0
 79 81  1  0  0  0
 80 83  1  0  0  0
 80149  1  0  0  0
 80150  1  0  0  0
 81151  1  0  0  0
 81152  1  0  0  0
 81153  1  0  0  0
 82 84  1  0  0  0
 82154  1  0  0  0
 82155  1  0  0  0
 82156  1  0  0  0
M  ISO  4   1 100  68 101  79 101  84 100
M  END
> <chiral flag>
0

> <version>
0

> <s_m_source_file>
/data/baiqing/PycharmProjects/Reinvent-master-3.2/result/LINK_invent/BTK/process_docking_weight1_custom_product_contain_oxygen_bond_distance_aromatic_linkinvent_7_9_3/rearranged_h_0077.sdf

> <i_m_source_file_index>
83

> <r_mmod_Potential_Energy-OPLS-2005>
466.93505859375

> <r_mmod_Stretch_Energy-OPLS-2005>
144.560745239258

> <r_mmod_Bend_Energy-OPLS-2005>
277.128631591797

> <r_mmod_Torsional_Energy-OPLS-2005>
279.824737548828

> <r_mmod_Improper_Torsional_Energy-OPLS-2005>
3.3349711894989

> <r_mmod_Van_der_Waal_Energy-OPLS-2005>
146.444549560547

> <r_mmod_Electrostatic_Energy-OPLS-2005>
-286.617004394531

> <r_mmod_Solvation_Energy-OPLS-2005>
-200.266967773438

> <b_mmod_Minimization_Converged-OPLS-2005>
0

> <r_mmod_RMS_Derivative-OPLS-2005>
0.761801064014435

$$$$
83
                    3D
 Structure written by MMmdl.
153162  0  0  1  0            999 V2000
  -30.6216  -14.6422   20.4972 C   0  0  0  0  0  0
  -30.4441  -12.3939   19.4470 C   0  0  0  0  0  0
  -29.5089  -12.5070   18.2219 C   0  0  0  0  0  0
  -28.0324  -12.3435   18.6359 C   0  0  0  0  0  0
  -27.6560  -13.2142   19.8635 C   0  0  2  0  0  0
  -28.7032  -13.0642   20.9911 C   0  0  0  0  0  0
  -25.2582  -13.8166   20.5695 C   0  0  0  0  0  0
  -24.1838  -13.0441   20.9198 C   0  0  0  0  0  0
  -24.6401  -11.6909   20.8736 C   0  0  0  0  0  0
  -23.9065  -10.4296   21.0405 C   0  0  0  0  0  0
  -24.3616   -9.4209   21.9181 C   0  0  0  0  0  0
  -23.6289   -8.2244   22.0753 C   0  0  0  0  0  0
  -22.4267   -8.0285   21.3550 C   0  0  0  0  0  0
  -21.9907   -9.0261   20.4653 C   0  0  0  0  0  0
  -22.7238  -10.2138   20.3058 C   0  0  0  0  0  0
  -21.6854   -6.0734   22.5278 C   0  0  0  0  0  0
  -21.4015   -6.5636   23.8211 C   0  0  0  0  0  0
  -21.3660   -5.6790   24.9173 C   0  0  0  0  0  0
  -21.6044   -4.3052   24.7225 C   0  0  0  0  0  0
  -21.8819   -3.8146   23.4344 C   0  0  0  0  0  0
  -21.9194   -4.6963   22.3401 C   0  0  0  0  0  0
  -22.7857  -13.5240   21.1847 C   0  0  0  0  0  0
  -22.1663   -4.2150   21.0979 F   0  0  0  0  0  0
  -21.5627   -3.4538   25.7736 F   0  0  0  0  0  0
  -30.0200  -13.4111   20.4290 N   0  0  0  0  0  0
  -26.3007  -12.9342   20.3322 N   0  0  0  0  0  0
  -25.9327  -11.6501   20.5748 N   0  0  0  0  0  0
  -22.0493  -12.8245   22.0405 N   0  0  0  0  0  0
  -25.4299  -15.1889   20.4107 N   0  0  0  0  0  0
  -31.7808  -14.8136   20.1084 O   0  0  0  0  0  0
  -21.6637   -6.8880   21.4241 O   0  0  0  0  0  0
  -22.3555  -14.5543   20.6685 O   0  0  0  0  0  0
  -24.6290  -31.8614   23.2044 C   0  0  0  0  0  0
  -25.9132  -32.4789   23.8372 C   0  0  1  0  0  0
  -27.2149  -27.3054   20.1025 C   0  0  0  0  0  0
  -25.5938  -33.8588   24.2290 N   0  0  0  0  0  0
  -23.4228  -30.4897   21.5491 C   0  0  2  0  0  0
  -24.8662  -28.9536   20.1108 C   0  0  0  0  0  0
  -22.7496  -29.4637   22.4932 C   0  0  0  0  0  0
  -18.0297  -28.1388   22.8494 C   0  0  0  0  0  0
  -24.1488  -36.7294   23.2629 C   0  0  0  0  0  0
  -25.9693  -30.7873   21.3801 C   0  0  0  0  0  0
  -26.0407  -29.4163   20.7170 C   0  0  0  0  0  0
  -27.2191  -28.6048   20.7051 C   0  0  0  0  0  0
  -26.0092  -26.9130   19.4666 C   0  0  0  0  0  0
  -24.8533  -27.7068   19.4783 C   0  0  0  0  0  0
  -23.6373  -29.8357   20.1620 C   0  0  0  0  0  0
  -25.4105  -36.3086   24.0331 C   0  0  1  0  0  0
  -20.5900  -28.3695   23.1282 C   0  0  2  0  0  0
  -20.6783  -26.9416   22.5410 C   0  0  0  0  0  0
  -19.5749  -26.6389   21.5220 C   0  0  0  0  0  0
  -18.1934  -26.7934   22.1636 C   0  0  0  0  0  0
  -19.1549  -28.8861   23.2886 C   0  0  0  0  0  0
  -18.9465  -30.1461   23.8901 C   0  0  0  0  0  0
  -17.6461  -30.6588   24.0568 C   0  0  0  0  0  0
  -25.9052  -34.9457   23.5106 C   0  0  0  0  0  0
  -16.5354  -29.9084   23.6331 C   0  0  0  0  0  0
  -16.7284  -28.6504   23.0353 C   0  0  0  0  0  0
  -26.4496  -31.6595   25.0746 C   0  0  0  0  0  0
  -25.3715  -31.3744   26.1464 C   0  0  0  0  0  0
  -27.0331  -30.3013   24.6207 C   0  0  0  0  0  0
  -27.6061  -32.4321   25.7515 C   0  0  0  0  0  0
  -27.5594  -37.1778   24.8446 C   0  0  0  0  0  0
  -21.4207  -29.3053   22.3679 N   0  0  0  0  0  0
  -26.4274  -37.3793   23.9437 N   0  0  0  0  0  0
  -24.6930  -31.0620   22.1007 N   0  0  0  0  0  0
  -23.4221  -28.8156   23.2997 O   0  0  0  0  0  0
  -28.3079  -26.4107   20.1536 O   0  0  0  0  0  0
  -26.5625  -34.8925   22.4675 O   0  0  0  0  0  0
  -23.5448  -32.1420   23.7355 O   0  0  0  0  0  0
  -28.5834  -19.2800   20.8810 C   0  0  0  0  0  0
  -30.8854  -19.3379   20.2120 C   0  0  0  0  0  0
  -28.6616  -17.8624   20.9958 C   0  0  0  0  0  0
  -30.9617  -17.9106   20.3123 C   0  0  0  0  0  0
  -29.6928  -20.0758   20.4843 C   0  0  0  0  0  0
  -29.8437  -17.1294   20.7131 C   0  0  0  0  0  0
  -30.2905  -23.8004   20.3377 C   0  0  0  0  0  0
  -28.9656  -23.7965   20.1961 C   0  0  0  0  0  0
  -28.5452  -22.3770   20.2228 C   0  0  0  0  0  0
  -30.8414  -22.3939   20.4577 C   0  0  0  0  0  0
  -27.9681  -24.9770   19.9365 C   0  0  0  0  0  0
  -29.6369  -21.5534   20.3933 N   0  0  0  0  0  0
  -29.8000  -15.6730   20.8691 N   0  0  0  0  0  0
  -27.3823  -21.9837   20.0893 O   0  0  0  0  0  0
  -31.4836  -12.5240   19.1403 H   0  0  0  0  0  0
  -30.3852  -11.3971   19.8865 H   0  0  0  0  0  0
  -29.7719  -11.7559   17.4761 H   0  0  0  0  0  0
  -29.6499  -13.4765   17.7408 H   0  0  0  0  0  0
  -27.8696  -11.2900   18.8680 H   0  0  0  0  0  0
  -27.3777  -12.5726   17.7944 H   0  0  0  0  0  0
  -27.6756  -14.2493   19.5222 H   0  0  0  0  0  0
  -28.7157  -12.0401   21.3675 H   0  0  0  0  0  0
  -28.4481  -13.6897   21.8477 H   0  0  0  0  0  0
  -25.2759   -9.5684   22.4756 H   0  0  0  0  0  0
  -24.0002   -7.4635   22.7467 H   0  0  0  0  0  0
  -21.0838   -8.8781   19.8959 H   0  0  0  0  0  0
  -22.3695  -10.9678   19.6169 H   0  0  0  0  0  0
  -21.2007   -7.6144   23.9716 H   0  0  0  0  0  0
  -21.1480   -6.0517   25.9077 H   0  0  0  0  0  0
  -22.0597   -2.7609   23.2842 H   0  0  0  0  0  0
  -22.4094  -11.9915   22.4816 H   0  0  0  0  0  0
  -21.1110  -13.1285   22.2598 H   0  0  0  0  0  0
  -24.6606  -15.8411   20.5164 H   0  0  0  0  0  0
  -26.2684  -15.6239   20.0485 H   0  0  0  0  0  0
  -26.7205  -32.5450   23.1125 H   0  0  0  0  0  0
  -25.0064  -33.9735   25.0421 H   0  0  0  0  0  0
  -22.7170  -31.3114   21.4105 H   0  0  0  0  0  0
  -23.3768  -35.9606   23.3242 H   0  0  0  0  0  0
  -24.3600  -36.8963   22.2055 H   0  0  0  0  0  0
  -23.7215  -37.6469   23.6682 H   0  0  0  0  0  0
  -26.1051  -31.5517   20.6136 H   0  0  0  0  0  0
  -26.8482  -30.8335   22.0113 H   0  0  0  0  0  0
  -28.1175  -28.9535   21.1945 H   0  0  0  0  0  0
  -25.9035  -25.9695   18.9555 H   0  0  0  0  0  0
  -23.9534  -27.3481   18.9980 H   0  0  0  0  0  0
  -23.7611  -30.6174   19.4114 H   0  0  0  0  0  0
  -22.7555  -29.2711   19.8544 H   0  0  0  0  0  0
  -25.1269  -36.1926   25.0821 H   0  0  0  0  0  0
  -20.9999  -28.3264   24.1401 H   0  0  0  0  0  0
  -20.5695  -26.2298   23.3608 H   0  0  0  0  0  0
  -21.6648  -26.7449   22.1193 H   0  0  0  0  0  0
  -19.6903  -25.6301   21.1248 H   0  0  0  0  0  0
  -19.6676  -27.3202   20.6751 H   0  0  0  0  0  0
  -17.4201  -26.6692   21.4041 H   0  0  0  0  0  0
  -18.0324  -26.0074   22.9030 H   0  0  0  0  0  0
  -19.7936  -30.7287   24.2265 H   0  0  0  0  0  0
  -17.5011  -31.6267   24.5169 H   0  0  0  0  0  0
  -15.5353  -30.2982   23.7648 H   0  0  0  0  0  0
  -15.8690  -28.0822   22.7059 H   0  0  0  0  0  0
  -24.5894  -30.7087   25.7794 H   0  0  0  0  0  0
  -24.8893  -32.2913   26.4867 H   0  0  0  0  0  0
  -25.8021  -30.8941   27.0258 H   0  0  0  0  0  0
  -26.2911  -29.6780   24.1201 H   0  0  0  0  0  0
  -27.3989  -29.7254   25.4718 H   0  0  0  0  0  0
  -27.8802  -30.4292   23.9463 H   0  0  0  0  0  0
  -27.2679  -33.3616   26.2108 H   0  0  0  0  0  0
  -28.3862  -32.6889   25.0337 H   0  0  0  0  0  0
  -28.0743  -31.8436   26.5415 H   0  0  0  0  0  0
  -28.2534  -38.0152   24.7616 H   0  0  0  0  0  0
  -28.1165  -36.2695   24.6101 H   0  0  0  0  0  0
  -27.2343  -37.1230   25.8850 H   0  0  0  0  0  0
  -20.9376  -29.8794   21.6911 H   0  0  0  0  0  0
  -26.0145  -38.2848   24.1510 H   0  0  0  0  0  0
  -27.6419  -19.7471   21.1304 H   0  0  0  0  0  0
  -31.7774  -19.8654   19.9061 H   0  0  0  0  0  0
  -27.7744  -17.3333   21.3152 H   0  0  0  0  0  0
  -31.9003  -17.4262   20.0824 H   0  0  0  0  0  0
  -30.9218  -24.6772   20.3259 H   0  0  0  0  0  0
  -31.3675  -22.2602   21.4035 H   0  0  0  0  0  0
  -31.5213  -22.1816   19.6321 H   0  0  0  0  0  0
  -27.0898  -24.7433   20.5416 H   0  0  0  0  0  0
  -27.6837  -24.8494   18.8915 H   0  0  0  0  0  0
  -28.9111  -15.3275   21.1965 H   0  0  0  0  0  0
  1 25  1  0  0  0
  1 30  2  0  0  0
  1 83  1  0  0  0
  2  3  1  0  0  0
  2 25  1  0  0  0
  2 85  1  0  0  0
  2 86  1  0  0  0
  3  4  1  0  0  0
  3 87  1  0  0  0
  3 88  1  0  0  0
  4  5  1  0  0  0
  4 89  1  0  0  0
  4 90  1  0  0  0
  5  6  1  0  0  0
  5 26  1  0  0  0
  5 91  1  0  0  0
  6 25  1  0  0  0
  6 92  1  0  0  0
  6 93  1  0  0  0
  7  8  2  0  0  0
  7 26  1  0  0  0
  7 29  1  0  0  0
  8  9  1  0  0  0
  8 22  1  0  0  0
  9 10  1  0  0  0
  9 27  2  0  0  0
 10 11  2  0  0  0
 10 15  1  0  0  0
 11 12  1  0  0  0
 11 94  1  0  0  0
 12 13  2  0  0  0
 12 95  1  0  0  0
 13 14  1  0  0  0
 13 31  1  0  0  0
 14 15  2  0  0  0
 14 96  1  0  0  0
 15 97  1  0  0  0
 16 17  2  0  0  0
 16 21  1  0  0  0
 16 31  1  0  0  0
 17 18  1  0  0  0
 17 98  1  0  0  0
 18 19  2  0  0  0
 18 99  1  0  0  0
 19 20  1  0  0  0
 19 24  1  0  0  0
 20 21  2  0  0  0
 20100  1  0  0  0
 21 23  1  0  0  0
 22 28  1  0  0  0
 22 32  2  0  0  0
 26 27  1  0  0  0
 28101  1  0  0  0
 28102  1  0  0  0
 29103  1  0  0  0
 29104  1  0  0  0
 33 34  1  0  0  0
 33 66  1  0  0  0
 33 70  2  0  0  0
 34 36  1  0  0  0
 34 59  1  0  0  0
 34105  1  0  0  0
 35 44  2  0  0  0
 35 45  1  0  0  0
 35 68  1  0  0  0
 36 56  1  0  0  0
 36106  1  0  0  0
 37 39  1  0  0  0
 37 47  1  0  0  0
 37 66  1  0  0  0
 37107  1  0  0  0
 38 43  2  0  0  0
 38 46  1  0  0  0
 38 47  1  0  0  0
 39 64  1  0  0  0
 39 67  2  0  0  0
 40 52  1  0  0  0
 40 53  2  0  0  0
 40 58  1  0  0  0
 41108  1  0  0  0
 41109  1  0  0  0
 41110  1  0  0  0
 41 48  1  0  0  0
 42 43  1  0  0  0
 42 66  1  0  0  0
 42111  1  0  0  0
 42112  1  0  0  0
 43 44  1  0  0  0
 44113  1  0  0  0
 45 46  2  0  0  0
 45114  1  0  0  0
 46115  1  0  0  0
 47116  1  0  0  0
 47117  1  0  0  0
 48 56  1  0  0  0
 48 65  1  0  0  0
 48118  1  0  0  0
 49 50  1  0  0  0
 49 53  1  0  0  0
 49 64  1  0  0  0
 49119  1  0  0  0
 50 51  1  0  0  0
 50120  1  0  0  0
 50121  1  0  0  0
 51 52  1  0  0  0
 51122  1  0  0  0
 51123  1  0  0  0
 52124  1  0  0  0
 52125  1  0  0  0
 53 54  1  0  0  0
 54 55  2  0  0  0
 54126  1  0  0  0
 55 57  1  0  0  0
 55127  1  0  0  0
 56 69  2  0  0  0
 57 58  2  0  0  0
 57128  1  0  0  0
 58129  1  0  0  0
 59 60  1  0  0  0
 59 61  1  0  0  0
 59 62  1  0  0  0
 60130  1  0  0  0
 60131  1  0  0  0
 60132  1  0  0  0
 61133  1  0  0  0
 61134  1  0  0  0
 61135  1  0  0  0
 62136  1  0  0  0
 62137  1  0  0  0
 62138  1  0  0  0
 63 65  1  0  0  0
 63139  1  0  0  0
 63140  1  0  0  0
 63141  1  0  0  0
 64142  1  0  0  0
 65143  1  0  0  0
 68 81  1  0  0  0
 71 73  2  0  0  0
 71 75  1  0  0  0
 71144  1  0  0  0
 72 74  1  0  0  0
 72 75  2  0  0  0
 72145  1  0  0  0
 73 76  1  0  0  0
 73146  1  0  0  0
 74 76  2  0  0  0
 74147  1  0  0  0
 75 82  1  0  0  0
 76 83  1  0  0  0
 77 78  2  0  0  0
 77 80  1  0  0  0
 77148  1  0  0  0
 78 79  1  0  0  0
 78 81  1  0  0  0
 79 82  1  0  0  0
 79 84  2  0  0  0
 80 82  1  0  0  0
 80149  1  0  0  0
 80150  1  0  0  0
 81151  1  0  0  0
 81152  1  0  0  0
 83153  1  0  0  0
M  ISO  4   1 100  68 101  81 101  83 100
M  END
> <chiral flag>
0

> <version>
0

> <s_m_source_file>
/data/baiqing/PycharmProjects/Reinvent-master-3.2/result/LINK_invent/BTK/process_docking_weight1_custom_product_contain_oxygen_bond_distance_aromatic_linkinvent_7_9_3/rearranged_h_0077.sdf

> <i_m_source_file_index>
84

> <r_mmod_Potential_Energy-OPLS-2005>
162.809936523438

> <r_mmod_Stretch_Energy-OPLS-2005>
84.6652450561523

> <r_mmod_Bend_Energy-OPLS-2005>
193.848159790039

> <r_mmod_Torsional_Energy-OPLS-2005>
236.465881347656

> <r_mmod_Improper_Torsional_Energy-OPLS-2005>
4.24773979187012

> <r_mmod_Van_der_Waal_Energy-OPLS-2005>
150.174057006836

> <r_mmod_Electrostatic_Energy-OPLS-2005>
-346.300903320312

> <r_mmod_Solvation_Energy-OPLS-2005>
-214.79411315918

> <b_mmod_Minimization_Converged-OPLS-2005>
0

> <r_mmod_RMS_Derivative-OPLS-2005>
0.884415090084076

$$$$
84
                    3D
 Structure written by MMmdl.
155164  0  0  1  0            999 V2000
  -30.6157  -14.8223   20.4194 C   0  0  0  0  0  0
  -30.4292  -12.4979   19.4961 C   0  0  0  0  0  0
  -29.5203  -12.5093   18.2487 C   0  0  0  0  0  0
  -28.0473  -12.3267   18.6595 C   0  0  0  0  0  0
  -27.6391  -13.2455   19.8427 C   0  0  2  0  0  0
  -28.6816  -13.2385   20.9816 C   0  0  0  0  0  0
  -25.2515  -13.8222   20.5696 C   0  0  0  0  0  0
  -24.1810  -13.0452   20.9190 C   0  0  0  0  0  0
  -24.6413  -11.6932   20.8728 C   0  0  0  0  0  0
  -23.9093  -10.4300   21.0386 C   0  0  0  0  0  0
  -24.3632   -9.4215   21.9174 C   0  0  0  0  0  0
  -23.6294   -8.2254   22.0757 C   0  0  0  0  0  0
  -22.4275   -8.0294   21.3554 C   0  0  0  0  0  0
  -21.9916   -9.0269   20.4661 C   0  0  0  0  0  0
  -22.7255  -10.2137   20.3053 C   0  0  0  0  0  0
  -21.6866   -6.0733   22.5269 C   0  0  0  0  0  0
  -21.4030   -6.5630   23.8202 C   0  0  0  0  0  0
  -21.3657   -5.6783   24.9163 C   0  0  0  0  0  0
  -21.6039   -4.3045   24.7217 C   0  0  0  0  0  0
  -21.8827   -3.8142   23.4337 C   0  0  0  0  0  0
  -21.9198   -4.6961   22.3393 C   0  0  0  0  0  0
  -22.7831  -13.5230   21.1843 C   0  0  0  0  0  0
  -22.1669   -4.2144   21.0973 F   0  0  0  0  0  0
  -21.5621   -3.4532   25.7727 F   0  0  0  0  0  0
  -29.9766  -13.5954   20.3918 N   0  0  0  0  0  0
  -26.2943  -12.9452   20.3257 N   0  0  0  0  0  0
  -25.9352  -11.6580   20.5737 N   0  0  0  0  0  0
  -22.0476  -12.8225   22.0401 N   0  0  0  0  0  0
  -25.4201  -15.1945   20.4101 N   0  0  0  0  0  0
  -31.8196  -14.8404   20.1490 O   0  0  0  0  0  0
  -21.6649   -6.8882   21.4236 O   0  0  0  0  0  0
  -22.3512  -14.5530   20.6679 O   0  0  0  0  0  0
  -24.6375  -31.8500   23.1930 C   0  0  0  0  0  0
  -25.9179  -32.4730   23.8288 C   0  0  1  0  0  0
  -27.2248  -27.2170   20.1189 C   0  0  0  0  0  0
  -25.5952  -33.8529   24.2219 N   0  0  0  0  0  0
  -23.4355  -30.4715   21.5368 C   0  0  2  0  0  0
  -24.8821  -28.9089   20.1073 C   0  0  0  0  0  0
  -22.7532  -29.4574   22.4880 C   0  0  0  0  0  0
  -18.0301  -28.1394   22.8469 C   0  0  0  0  0  0
  -24.1491  -36.7269   23.2636 C   0  0  0  0  0  0
  -25.9851  -30.7496   21.3764 C   0  0  0  0  0  0
  -26.0578  -29.3683   20.7142 C   0  0  0  0  0  0
  -27.2287  -28.5354   20.7062 C   0  0  0  0  0  0
  -26.0150  -26.8276   19.5022 C   0  0  0  0  0  0
  -24.8681  -27.6478   19.4909 C   0  0  0  0  0  0
  -23.6563  -29.8034   20.1537 C   0  0  0  0  0  0
  -25.4118  -36.3048   24.0318 C   0  0  1  0  0  0
  -20.5910  -28.3712   23.1246 C   0  0  2  0  0  0
  -20.6789  -26.9425   22.5400 C   0  0  0  0  0  0
  -19.5766  -26.6381   21.5204 C   0  0  0  0  0  0
  -18.1945  -26.7931   22.1614 C   0  0  0  0  0  0
  -19.1556  -28.8869   23.2853 C   0  0  0  0  0  0
  -18.9474  -30.1465   23.8882 C   0  0  0  0  0  0
  -17.6474  -30.6589   24.0559 C   0  0  0  0  0  0
  -25.9064  -34.9425   23.5069 C   0  0  0  0  0  0
  -16.5365  -29.9084   23.6335 C   0  0  0  0  0  0
  -16.7286  -28.6505   23.0346 C   0  0  0  0  0  0
  -26.4523  -31.6572   25.0703 C   0  0  0  0  0  0
  -25.3724  -31.3760   26.1414 C   0  0  0  0  0  0
  -27.0369  -30.2975   24.6227 C   0  0  0  0  0  0
  -27.6059  -32.4324   25.7496 C   0  0  0  0  0  0
  -27.5581  -37.1788   24.8455 C   0  0  0  0  0  0
  -21.4236  -29.3050   22.3633 N   0  0  0  0  0  0
  -26.4279  -37.3760   23.9415 N   0  0  0  0  0  0
  -24.7055  -31.0427   22.0917 N   0  0  0  0  0  0
  -23.4217  -28.8117   23.2992 O   0  0  0  0  0  0
  -28.3049  -26.2887   20.2251 O   0  0  0  0  0  0
  -26.5634  -34.8918   22.4643 O   0  0  0  0  0  0
  -23.5515  -32.1326   23.7208 O   0  0  0  0  0  0
  -31.5484  -18.8907   18.6643 C   0  0  0  0  0  0
  -30.8418  -20.0483   19.0311 C   0  0  0  0  0  0
  -31.2254  -17.6274   19.1895 C   0  0  0  0  0  0
  -29.4707  -18.6797   20.5032 C   0  0  0  0  0  0
  -29.7723  -20.0189   19.9548 C   0  0  0  0  0  0
  -30.1837  -17.4379   20.1289 C   0  0  0  0  0  0
  -28.6503  -23.7363   20.1042 C   0  0  0  0  0  0
  -28.7601  -23.3824   21.5139 C   0  0  0  0  0  0
  -28.9023  -22.4286   19.3964 C   0  0  0  0  0  0
  -28.3945  -25.0126   19.5511 C   0  0  0  0  0  0
  -29.0014  -21.8630   21.6496 C   0  0  0  0  0  0
  -28.3491  -25.2239   18.0396 C   0  0  0  0  0  0
  -29.1590  -21.3689   20.2735 N   0  0  0  0  0  0
  -29.8864  -16.0196   20.5757 N   0  0  0  0  0  0
  -28.6729  -24.1411   22.4844 O   0  0  0  0  0  0
  -28.8844  -22.2705   18.1695 O   0  0  0  0  0  0
  -31.4743  -12.6030   19.1982 H   0  0  0  0  0  0
  -30.3663  -11.5374   20.0093 H   0  0  0  0  0  0
  -29.8154  -11.7197   17.5555 H   0  0  0  0  0  0
  -29.6444  -13.4510   17.7110 H   0  0  0  0  0  0
  -27.9126  -11.2818   18.9408 H   0  0  0  0  0  0
  -27.3944  -12.4974   17.8032 H   0  0  0  0  0  0
  -27.6170  -14.2558   19.4320 H   0  0  0  0  0  0
  -28.7326  -12.2609   21.4618 H   0  0  0  0  0  0
  -28.4078  -13.9529   21.7594 H   0  0  0  0  0  0
  -25.2776   -9.5685   22.4756 H   0  0  0  0  0  0
  -23.9999   -7.4647   22.7478 H   0  0  0  0  0  0
  -21.0849   -8.8800   19.8963 H   0  0  0  0  0  0
  -22.3719  -10.9679   19.6167 H   0  0  0  0  0  0
  -21.2035   -7.6139   23.9702 H   0  0  0  0  0  0
  -21.1471   -6.0515   25.9063 H   0  0  0  0  0  0
  -22.0607   -2.7605   23.2841 H   0  0  0  0  0  0
  -22.4094  -11.9900   22.4809 H   0  0  0  0  0  0
  -21.1103  -13.1272   22.2598 H   0  0  0  0  0  0
  -24.6491  -15.8467   20.5049 H   0  0  0  0  0  0
  -26.2623  -15.6294   20.0561 H   0  0  0  0  0  0
  -26.7237  -32.5364   23.1016 H   0  0  0  0  0  0
  -25.0119  -33.9640   25.0378 H   0  0  0  0  0  0
  -22.7346  -31.2955   21.3875 H   0  0  0  0  0  0
  -23.3755  -35.9591   23.3268 H   0  0  0  0  0  0
  -24.3586  -36.8926   22.2053 H   0  0  0  0  0  0
  -23.7231  -37.6458   23.6681 H   0  0  0  0  0  0
  -26.1282  -31.5108   20.6081 H   0  0  0  0  0  0
  -26.8609  -30.7997   22.0121 H   0  0  0  0  0  0
  -28.1278  -28.8792   21.1974 H   0  0  0  0  0  0
  -25.9261  -25.8481   19.0560 H   0  0  0  0  0  0
  -23.9629  -27.2830   19.0249 H   0  0  0  0  0  0
  -23.7915  -30.5784   19.3981 H   0  0  0  0  0  0
  -22.7717  -29.2443   19.8438 H   0  0  0  0  0  0
  -25.1296  -36.1878   25.0802 H   0  0  0  0  0  0
  -20.9994  -28.3299   24.1368 H   0  0  0  0  0  0
  -20.5686  -26.2325   23.3608 H   0  0  0  0  0  0
  -21.6658  -26.7444   22.1206 H   0  0  0  0  0  0
  -19.6928  -25.6288   21.1248 H   0  0  0  0  0  0
  -19.6694  -27.3174   20.6719 H   0  0  0  0  0  0
  -17.4211  -26.6661   21.4023 H   0  0  0  0  0  0
  -18.0352  -26.0086   22.9022 H   0  0  0  0  0  0
  -19.7950  -30.7279   24.2247 H   0  0  0  0  0  0
  -17.5030  -31.6267   24.5163 H   0  0  0  0  0  0
  -15.5370  -30.2977   23.7670 H   0  0  0  0  0  0
  -15.8686  -28.0823   22.7065 H   0  0  0  0  0  0
  -24.5883  -30.7128   25.7750 H   0  0  0  0  0  0
  -24.8942  -32.2949   26.4810 H   0  0  0  0  0  0
  -25.8021  -30.8954   27.0208 H   0  0  0  0  0  0
  -26.2962  -29.6718   24.1237 H   0  0  0  0  0  0
  -27.4007  -29.7256   25.4773 H   0  0  0  0  0  0
  -27.8855  -30.4227   23.9500 H   0  0  0  0  0  0
  -27.2644  -33.3617   26.2063 H   0  0  0  0  0  0
  -28.3885  -32.6896   25.0348 H   0  0  0  0  0  0
  -28.0702  -31.8457   26.5431 H   0  0  0  0  0  0
  -28.2571  -38.0117   24.7549 H   0  0  0  0  0  0
  -28.1110  -36.2651   24.6214 H   0  0  0  0  0  0
  -27.2314  -37.1360   25.8862 H   0  0  0  0  0  0
  -20.9431  -29.8772   21.6831 H   0  0  0  0  0  0
  -26.0150  -38.2823   24.1443 H   0  0  0  0  0  0
  -32.3623  -18.9726   17.9570 H   0  0  0  0  0  0
  -31.1616  -20.9851   18.5948 H   0  0  0  0  0  0
  -31.8124  -16.8005   18.8212 H   0  0  0  0  0  0
  -28.6598  -18.6047   21.2148 H   0  0  0  0  0  0
  -28.1519  -21.3830   22.1348 H   0  0  0  0  0  0
  -29.8997  -21.6740   22.2365 H   0  0  0  0  0  0
  -27.5498  -24.6281   17.5955 H   0  0  0  0  0  0
  -29.2929  -24.9224   17.5829 H   0  0  0  0  0  0
  -28.1763  -26.2651   17.7676 H   0  0  0  0  0  0
  -28.9593  -15.8803   20.9490 H   0  0  0  0  0  0
  1 25  1  0  0  0
  1 30  2  0  0  0
  1 84  1  0  0  0
  2  3  1  0  0  0
  2 25  1  0  0  0
  2 87  1  0  0  0
  2 88  1  0  0  0
  3  4  1  0  0  0
  3 89  1  0  0  0
  3 90  1  0  0  0
  4  5  1  0  0  0
  4 91  1  0  0  0
  4 92  1  0  0  0
  5  6  1  0  0  0
  5 26  1  0  0  0
  5 93  1  0  0  0
  6 25  1  0  0  0
  6 94  1  0  0  0
  6 95  1  0  0  0
  7  8  2  0  0  0
  7 26  1  0  0  0
  7 29  1  0  0  0
  8  9  1  0  0  0
  8 22  1  0  0  0
  9 10  1  0  0  0
  9 27  2  0  0  0
 10 11  2  0  0  0
 10 15  1  0  0  0
 11 12  1  0  0  0
 11 96  1  0  0  0
 12 13  2  0  0  0
 12 97  1  0  0  0
 13 14  1  0  0  0
 13 31  1  0  0  0
 14 15  2  0  0  0
 14 98  1  0  0  0
 15 99  1  0  0  0
 16 17  2  0  0  0
 16 21  1  0  0  0
 16 31  1  0  0  0
 17 18  1  0  0  0
 17100  1  0  0  0
 18 19  2  0  0  0
 18101  1  0  0  0
 19 20  1  0  0  0
 19 24  1  0  0  0
 20 21  2  0  0  0
 20102  1  0  0  0
 21 23  1  0  0  0
 22 28  1  0  0  0
 22 32  2  0  0  0
 26 27  1  0  0  0
 28103  1  0  0  0
 28104  1  0  0  0
 29105  1  0  0  0
 29106  1  0  0  0
 33 34  1  0  0  0
 33 66  1  0  0  0
 33 70  2  0  0  0
 34 36  1  0  0  0
 34 59  1  0  0  0
 34107  1  0  0  0
 35 44  2  0  0  0
 35 45  1  0  0  0
 35 68  1  0  0  0
 36 56  1  0  0  0
 36108  1  0  0  0
 37 39  1  0  0  0
 37 47  1  0  0  0
 37 66  1  0  0  0
 37109  1  0  0  0
 38 43  2  0  0  0
 38 46  1  0  0  0
 38 47  1  0  0  0
 39 64  1  0  0  0
 39 67  2  0  0  0
 40 52  1  0  0  0
 40 53  2  0  0  0
 40 58  1  0  0  0
 41110  1  0  0  0
 41111  1  0  0  0
 41112  1  0  0  0
 41 48  1  0  0  0
 42 43  1  0  0  0
 42 66  1  0  0  0
 42113  1  0  0  0
 42114  1  0  0  0
 43 44  1  0  0  0
 44115  1  0  0  0
 45 46  2  0  0  0
 45116  1  0  0  0
 46117  1  0  0  0
 47118  1  0  0  0
 47119  1  0  0  0
 48 56  1  0  0  0
 48 65  1  0  0  0
 48120  1  0  0  0
 49 50  1  0  0  0
 49 53  1  0  0  0
 49 64  1  0  0  0
 49121  1  0  0  0
 50 51  1  0  0  0
 50122  1  0  0  0
 50123  1  0  0  0
 51 52  1  0  0  0
 51124  1  0  0  0
 51125  1  0  0  0
 52126  1  0  0  0
 52127  1  0  0  0
 53 54  1  0  0  0
 54 55  2  0  0  0
 54128  1  0  0  0
 55 57  1  0  0  0
 55129  1  0  0  0
 56 69  2  0  0  0
 57 58  2  0  0  0
 57130  1  0  0  0
 58131  1  0  0  0
 59 60  1  0  0  0
 59 61  1  0  0  0
 59 62  1  0  0  0
 60132  1  0  0  0
 60133  1  0  0  0
 60134  1  0  0  0
 61135  1  0  0  0
 61136  1  0  0  0
 61137  1  0  0  0
 62138  1  0  0  0
 62139  1  0  0  0
 62140  1  0  0  0
 63 65  1  0  0  0
 63141  1  0  0  0
 63142  1  0  0  0
 63143  1  0  0  0
 64144  1  0  0  0
 65145  1  0  0  0
 68 80  1  0  0  0
 71 72  2  0  0  0
 71 73  1  0  0  0
 71146  1  0  0  0
 72 75  1  0  0  0
 72147  1  0  0  0
 73 76  2  0  0  0
 73148  1  0  0  0
 74 75  2  0  0  0
 74 76  1  0  0  0
 74149  1  0  0  0
 75 83  1  0  0  0
 76 84  1  0  0  0
 77 78  1  0  0  0
 77 79  1  0  0  0
 77 80  2  0  0  0
 78 81  1  0  0  0
 78 85  2  0  0  0
 79 83  1  0  0  0
 79 86  2  0  0  0
 80 82  1  0  0  0
 81 83  1  0  0  0
 81150  1  0  0  0
 81151  1  0  0  0
 82152  1  0  0  0
 82153  1  0  0  0
 82154  1  0  0  0
 84155  1  0  0  0
M  ISO  4   1 100  68 101  80 101  84 100
M  END
> <chiral flag>
0

> <version>
0

> <s_m_source_file>
/data/baiqing/PycharmProjects/Reinvent-master-3.2/result/LINK_invent/BTK/process_docking_weight1_custom_product_contain_oxygen_bond_distance_aromatic_linkinvent_7_9_3/rearranged_h_0077.sdf

> <i_m_source_file_index>
85

> <r_mmod_Potential_Energy-OPLS-2005>
394.262725830078

> <r_mmod_Stretch_Energy-OPLS-2005>
169.347457885742

> <r_mmod_Bend_Energy-OPLS-2005>
232.056488037109

> <r_mmod_Torsional_Energy-OPLS-2005>
281.319061279297

> <r_mmod_Improper_Torsional_Energy-OPLS-2005>
4.86860942840576

> <r_mmod_Van_der_Waal_Energy-OPLS-2005>
140.833587646484

> <r_mmod_Electrostatic_Energy-OPLS-2005>
-322.615020751953

> <r_mmod_Solvation_Energy-OPLS-2005>
-233.223236083984

> <b_mmod_Minimization_Converged-OPLS-2005>
0

> <r_mmod_RMS_Derivative-OPLS-2005>
1.99543023109436

$$$$
85
                    3D
 Structure written by MMmdl.
156165  0  0  1  0            999 V2000
  -30.6309  -14.9128   20.4405 C   0  0  0  0  0  0
  -30.4212  -12.5851   19.4803 C   0  0  0  0  0  0
  -29.5064  -12.5398   18.2379 C   0  0  0  0  0  0
  -28.0364  -12.3536   18.6554 C   0  0  0  0  0  0
  -27.6289  -13.2623   19.8484 C   0  0  2  0  0  0
  -28.6810  -13.3111   20.9767 C   0  0  0  0  0  0
  -25.2485  -13.8238   20.5896 C   0  0  0  0  0  0
  -24.1778  -13.0421   20.9213 C   0  0  0  0  0  0
  -24.6420  -11.6904   20.8733 C   0  0  0  0  0  0
  -23.9130  -10.4271   21.0397 C   0  0  0  0  0  0
  -24.3667   -9.4161   21.9161 C   0  0  0  0  0  0
  -23.6321   -8.2216   22.0763 C   0  0  0  0  0  0
  -22.4293   -8.0296   21.3545 C   0  0  0  0  0  0
  -21.9924   -9.0286   20.4649 C   0  0  0  0  0  0
  -22.7301  -10.2130   20.3045 C   0  0  0  0  0  0
  -21.6874   -6.0732   22.5256 C   0  0  0  0  0  0
  -21.4044   -6.5648   23.8184 C   0  0  0  0  0  0
  -21.3649   -5.6811   24.9149 C   0  0  0  0  0  0
  -21.6045   -4.3077   24.7197 C   0  0  0  0  0  0
  -21.8829   -3.8140   23.4326 C   0  0  0  0  0  0
  -21.9188   -4.6958   22.3381 C   0  0  0  0  0  0
  -22.7814  -13.5213   21.1847 C   0  0  0  0  0  0
  -22.1671   -4.2144   21.0956 F   0  0  0  0  0  0
  -21.5568   -3.4550   25.7693 F   0  0  0  0  0  0
  -29.9555  -13.6984   20.3598 N   0  0  0  0  0  0
  -26.2915  -12.9492   20.3392 N   0  0  0  0  0  0
  -25.9363  -11.6581   20.5749 N   0  0  0  0  0  0
  -22.0514  -12.8224   22.0453 N   0  0  0  0  0  0
  -25.4177  -15.1991   20.4684 N   0  0  0  0  0  0
  -31.8149  -14.9067   20.0837 O   0  0  0  0  0  0
  -21.6667   -6.8882   21.4233 O   0  0  0  0  0  0
  -22.3497  -14.5509   20.6671 O   0  0  0  0  0  0
  -24.6428  -31.8450   23.1860 C   0  0  0  0  0  0
  -25.9203  -32.4689   23.8290 C   0  0  1  0  0  0
  -27.2201  -27.1503   20.1458 C   0  0  0  0  0  0
  -25.5937  -33.8503   24.2204 N   0  0  0  0  0  0
  -23.4489  -30.4612   21.5323 C   0  0  2  0  0  0
  -24.8952  -28.8890   20.1051 C   0  0  0  0  0  0
  -22.7620  -29.4525   22.4859 C   0  0  0  0  0  0
  -18.0331  -28.1395   22.8465 C   0  0  0  0  0  0
  -24.1473  -36.7261   23.2635 C   0  0  0  0  0  0
  -26.0021  -30.7176   21.3863 C   0  0  0  0  0  0
  -26.0705  -29.3325   20.7238 C   0  0  0  0  0  0
  -27.2299  -28.4736   20.7371 C   0  0  0  0  0  0
  -26.0139  -26.7932   19.5035 C   0  0  0  0  0  0
  -24.8779  -27.6318   19.4813 C   0  0  0  0  0  0
  -23.6739  -29.7923   20.1492 C   0  0  0  0  0  0
  -25.4096  -36.3038   24.0330 C   0  0  1  0  0  0
  -20.5926  -28.3718   23.1238 C   0  0  2  0  0  0
  -20.6797  -26.9418   22.5408 C   0  0  0  0  0  0
  -19.5754  -26.6357   21.5219 C   0  0  0  0  0  0
  -18.1942  -26.7928   22.1637 C   0  0  0  0  0  0
  -19.1578  -28.8881   23.2837 C   0  0  0  0  0  0
  -18.9499  -30.1471   23.8857 C   0  0  0  0  0  0
  -17.6496  -30.6577   24.0548 C   0  0  0  0  0  0
  -25.9066  -34.9410   23.5087 C   0  0  0  0  0  0
  -16.5390  -29.9064   23.6322 C   0  0  0  0  0  0
  -16.7321  -28.6488   23.0342 C   0  0  0  0  0  0
  -26.4494  -31.6582   25.0774 C   0  0  0  0  0  0
  -25.3683  -31.3836   26.1507 C   0  0  0  0  0  0
  -27.0335  -30.2958   24.6357 C   0  0  0  0  0  0
  -27.6038  -32.4363   25.7525 C   0  0  0  0  0  0
  -27.5592  -37.1770   24.8454 C   0  0  0  0  0  0
  -21.4299  -29.3036   22.3619 N   0  0  0  0  0  0
  -26.4258  -37.3770   23.9453 N   0  0  0  0  0  0
  -24.7166  -31.0318   22.0896 N   0  0  0  0  0  0
  -23.4256  -28.8080   23.3027 O   0  0  0  0  0  0
  -28.2555  -26.1610   20.2968 O   0  0  0  0  0  0
  -26.5637  -34.8906   22.4661 O   0  0  0  0  0  0
  -23.5554  -32.1332   23.7083 O   0  0  0  0  0  0
  -28.4355  -18.1196   18.0677 C   0  0  0  0  0  0
  -28.4727  -19.4717   18.4693 C   0  0  0  0  0  0
  -28.9564  -17.0760   18.8523 C   0  0  0  0  0  0
  -29.5132  -18.7886   20.4947 C   0  0  0  0  0  0
  -28.9988  -19.9438   19.7045 C   0  0  0  0  0  0
  -29.5373  -17.3413   20.1043 C   0  0  0  0  0  0
  -28.6559  -23.5909   19.7288 C   0  0  0  0  0  0
  -28.7250  -22.5774   20.8195 C   0  0  0  0  0  0
  -28.4369  -24.9778   19.4713 C   0  0  0  0  0  0
  -28.9587  -22.4241   18.7474 C   0  0  0  0  0  0
  -28.5777  -25.4142   18.0219 C   0  0  0  0  0  0
  -30.6370  -16.5413   22.1872 C   0  0  0  0  0  0
  -28.9169  -21.4746   19.8940 N   0  0  0  0  0  0
  -30.0591  -16.1405   20.8972 N   0  0  0  0  0  0
  -28.6168  -22.6979   22.0264 O   0  0  0  0  0  0
  -31.4569  -12.7042   19.1563 H   0  0  0  0  0  0
  -30.3943  -11.6389   20.0219 H   0  0  0  0  0  0
  -29.8158  -11.7277   17.5791 H   0  0  0  0  0  0
  -29.6103  -13.4595   17.6579 H   0  0  0  0  0  0
  -27.8870  -11.3044   18.9121 H   0  0  0  0  0  0
  -27.3852  -12.5428   17.8004 H   0  0  0  0  0  0
  -27.5795  -14.2706   19.4382 H   0  0  0  0  0  0
  -28.7687  -12.3546   21.4926 H   0  0  0  0  0  0
  -28.3885  -14.0423   21.7345 H   0  0  0  0  0  0
  -25.2814   -9.5578   22.4735 H   0  0  0  0  0  0
  -24.0006   -7.4603   22.7480 H   0  0  0  0  0  0
  -21.0845   -8.8847   19.8979 H   0  0  0  0  0  0
  -22.3817  -10.9682   19.6144 H   0  0  0  0  0  0
  -21.2127   -7.6165   23.9699 H   0  0  0  0  0  0
  -21.1454   -6.0527   25.9044 H   0  0  0  0  0  0
  -22.0627   -2.7600   23.2835 H   0  0  0  0  0  0
  -22.4274  -11.9984   22.4895 H   0  0  0  0  0  0
  -21.1082  -13.1124   22.2615 H   0  0  0  0  0  0
  -24.6543  -15.8444   20.6465 H   0  0  0  0  0  0
  -26.3140  -15.6615   20.3774 H   0  0  0  0  0  0
  -26.7307  -32.5274   23.1058 H   0  0  0  0  0  0
  -25.0072  -33.9607   25.0338 H   0  0  0  0  0  0
  -22.7465  -31.2813   21.3796 H   0  0  0  0  0  0
  -23.3770  -35.9560   23.3209 H   0  0  0  0  0  0
  -24.3608  -36.8981   22.2080 H   0  0  0  0  0  0
  -23.7159  -37.6397   23.6734 H   0  0  0  0  0  0
  -26.1627  -31.4694   20.6101 H   0  0  0  0  0  0
  -26.8709  -30.7665   22.0345 H   0  0  0  0  0  0
  -28.1164  -28.7928   21.2670 H   0  0  0  0  0  0
  -25.9072  -25.8101   19.0651 H   0  0  0  0  0  0
  -23.9736  -27.2818   19.0013 H   0  0  0  0  0  0
  -23.8161  -30.5632   19.3911 H   0  0  0  0  0  0
  -22.7863  -29.2384   19.8389 H   0  0  0  0  0  0
  -25.1249  -36.1880   25.0817 H   0  0  0  0  0  0
  -20.9999  -28.3318   24.1377 H   0  0  0  0  0  0
  -20.5706  -26.2343   23.3653 H   0  0  0  0  0  0
  -21.6680  -26.7442   22.1216 H   0  0  0  0  0  0
  -19.6916  -25.6264   21.1262 H   0  0  0  0  0  0
  -19.6633  -27.3146   20.6732 H   0  0  0  0  0  0
  -17.4211  -26.6689   21.4041 H   0  0  0  0  0  0
  -18.0317  -26.0088   22.9040 H   0  0  0  0  0  0
  -19.7963  -30.7291   24.2229 H   0  0  0  0  0  0
  -17.5039  -31.6253   24.5158 H   0  0  0  0  0  0
  -15.5383  -30.2939   23.7659 H   0  0  0  0  0  0
  -15.8731  -28.0771   22.7093 H   0  0  0  0  0  0
  -24.5679  -30.7401   25.7826 H   0  0  0  0  0  0
  -24.9111  -32.3082   26.5050 H   0  0  0  0  0  0
  -25.7938  -30.8845   27.0222 H   0  0  0  0  0  0
  -26.2955  -29.6695   24.1323 H   0  0  0  0  0  0
  -27.3885  -29.7243   25.4938 H   0  0  0  0  0  0
  -27.8886  -30.4164   23.9703 H   0  0  0  0  0  0
  -27.2612  -33.3643   26.2102 H   0  0  0  0  0  0
  -28.3810  -32.6968   25.0340 H   0  0  0  0  0  0
  -28.0741  -31.8527   26.5439 H   0  0  0  0  0  0
  -28.2537  -38.0139   24.7637 H   0  0  0  0  0  0
  -28.1149  -36.2701   24.6064 H   0  0  0  0  0  0
  -27.2379  -37.1162   25.8864 H   0  0  0  0  0  0
  -20.9554  -29.8739   21.6748 H   0  0  0  0  0  0
  -26.0114  -38.2822   24.1522 H   0  0  0  0  0  0
  -27.9786  -17.8854   17.1161 H   0  0  0  0  0  0
  -28.0476  -20.1609   17.7524 H   0  0  0  0  0  0
  -28.8944  -16.0658   18.4700 H   0  0  0  0  0  0
  -29.9434  -19.0444   21.4499 H   0  0  0  0  0  0
  -29.9489  -22.4164   18.2862 H   0  0  0  0  0  0
  -28.1921  -22.2702   17.9887 H   0  0  0  0  0  0
  -27.8633  -24.8828   17.3927 H   0  0  0  0  0  0
  -29.5815  -25.1775   17.6683 H   0  0  0  0  0  0
  -28.4278  -26.4849   17.8834 H   0  0  0  0  0  0
  -29.8693  -16.9040   22.8735 H   0  0  0  0  0  0
  -31.3541  -17.3513   22.0355 H   0  0  0  0  0  0
  -31.1985  -15.7558   22.6988 H   0  0  0  0  0  0
  1 25  1  0  0  0
  1 30  2  0  0  0
  1 84  1  0  0  0
  2  3  1  0  0  0
  2 25  1  0  0  0
  2 86  1  0  0  0
  2 87  1  0  0  0
  3  4  1  0  0  0
  3 88  1  0  0  0
  3 89  1  0  0  0
  4  5  1  0  0  0
  4 90  1  0  0  0
  4 91  1  0  0  0
  5  6  1  0  0  0
  5 26  1  0  0  0
  5 92  1  0  0  0
  6 25  1  0  0  0
  6 93  1  0  0  0
  6 94  1  0  0  0
  7  8  2  0  0  0
  7 26  1  0  0  0
  7 29  1  0  0  0
  8  9  1  0  0  0
  8 22  1  0  0  0
  9 10  1  0  0  0
  9 27  2  0  0  0
 10 11  2  0  0  0
 10 15  1  0  0  0
 11 12  1  0  0  0
 11 95  1  0  0  0
 12 13  2  0  0  0
 12 96  1  0  0  0
 13 14  1  0  0  0
 13 31  1  0  0  0
 14 15  2  0  0  0
 14 97  1  0  0  0
 15 98  1  0  0  0
 16 17  2  0  0  0
 16 21  1  0  0  0
 16 31  1  0  0  0
 17 18  1  0  0  0
 17 99  1  0  0  0
 18 19  2  0  0  0
 18100  1  0  0  0
 19 20  1  0  0  0
 19 24  1  0  0  0
 20 21  2  0  0  0
 20101  1  0  0  0
 21 23  1  0  0  0
 22 28  1  0  0  0
 22 32  2  0  0  0
 26 27  1  0  0  0
 28102  1  0  0  0
 28103  1  0  0  0
 29104  1  0  0  0
 29105  1  0  0  0
 33 34  1  0  0  0
 33 66  1  0  0  0
 33 70  2  0  0  0
 34 36  1  0  0  0
 34 59  1  0  0  0
 34106  1  0  0  0
 35 44  2  0  0  0
 35 45  1  0  0  0
 35 68  1  0  0  0
 36 56  1  0  0  0
 36107  1  0  0  0
 37 39  1  0  0  0
 37 47  1  0  0  0
 37 66  1  0  0  0
 37108  1  0  0  0
 38 43  2  0  0  0
 38 46  1  0  0  0
 38 47  1  0  0  0
 39 64  1  0  0  0
 39 67  2  0  0  0
 40 52  1  0  0  0
 40 53  2  0  0  0
 40 58  1  0  0  0
 41109  1  0  0  0
 41110  1  0  0  0
 41111  1  0  0  0
 41 48  1  0  0  0
 42 43  1  0  0  0
 42 66  1  0  0  0
 42112  1  0  0  0
 42113  1  0  0  0
 43 44  1  0  0  0
 44114  1  0  0  0
 45 46  2  0  0  0
 45115  1  0  0  0
 46116  1  0  0  0
 47117  1  0  0  0
 47118  1  0  0  0
 48 56  1  0  0  0
 48 65  1  0  0  0
 48119  1  0  0  0
 49 50  1  0  0  0
 49 53  1  0  0  0
 49 64  1  0  0  0
 49120  1  0  0  0
 50 51  1  0  0  0
 50121  1  0  0  0
 50122  1  0  0  0
 51 52  1  0  0  0
 51123  1  0  0  0
 51124  1  0  0  0
 52125  1  0  0  0
 52126  1  0  0  0
 53 54  1  0  0  0
 54 55  2  0  0  0
 54127  1  0  0  0
 55 57  1  0  0  0
 55128  1  0  0  0
 56 69  2  0  0  0
 57 58  2  0  0  0
 57129  1  0  0  0
 58130  1  0  0  0
 59 60  1  0  0  0
 59 61  1  0  0  0
 59 62  1  0  0  0
 60131  1  0  0  0
 60132  1  0  0  0
 60133  1  0  0  0
 61134  1  0  0  0
 61135  1  0  0  0
 61136  1  0  0  0
 62137  1  0  0  0
 62138  1  0  0  0
 62139  1  0  0  0
 63 65  1  0  0  0
 63140  1  0  0  0
 63141  1  0  0  0
 63142  1  0  0  0
 64143  1  0  0  0
 65144  1  0  0  0
 68 79  1  0  0  0
 71 72  2  0  0  0
 71 73  1  0  0  0
 71145  1  0  0  0
 72 75  1  0  0  0
 72146  1  0  0  0
 73 76  2  0  0  0
 73147  1  0  0  0
 74 75  2  0  0  0
 74 76  1  0  0  0
 74148  1  0  0  0
 75 83  1  0  0  0
 76 84  1  0  0  0
 77 78  1  0  0  0
 77 79  2  0  0  0
 77 80  1  0  0  0
 78 83  1  0  0  0
 78 85  2  0  0  0
 79 81  1  0  0  0
 80 83  1  0  0  0
 80149  1  0  0  0
 80150  1  0  0  0
 81151  1  0  0  0
 81152  1  0  0  0
 81153  1  0  0  0
 82 84  1  0  0  0
 82154  1  0  0  0
 82155  1  0  0  0
 82156  1  0  0  0
M  ISO  4   1 100  68 101  79 101  84 100
M  END
> <chiral flag>
0

> <version>
0

> <s_m_source_file>
/data/baiqing/PycharmProjects/Reinvent-master-3.2/result/LINK_invent/BTK/process_docking_weight1_custom_product_contain_oxygen_bond_distance_aromatic_linkinvent_7_9_3/rearranged_h_0077.sdf

> <i_m_source_file_index>
86

> <r_mmod_Potential_Energy-OPLS-2005>
717.820129394531

> <r_mmod_Stretch_Energy-OPLS-2005>
217.542831420898

> <r_mmod_Bend_Energy-OPLS-2005>
351.556793212891

> <r_mmod_Torsional_Energy-OPLS-2005>
294.55078125

> <r_mmod_Improper_Torsional_Energy-OPLS-2005>
4.84718990325928

> <r_mmod_Van_der_Waal_Energy-OPLS-2005>
135.153594970703

> <r_mmod_Electrostatic_Energy-OPLS-2005>
-258.726470947266

> <r_mmod_Solvation_Energy-OPLS-2005>
-208.785308837891

> <b_mmod_Minimization_Converged-OPLS-2005>
0

> <r_mmod_RMS_Derivative-OPLS-2005>
6.41147470474243

$$$$
86
                    3D
 Structure written by MMmdl.
157166  0  0  1  0            999 V2000
  -30.5958  -14.8378   20.4068 C   0  0  0  0  0  0
  -30.4279  -12.5049   19.4946 C   0  0  0  0  0  0
  -29.5183  -12.5184   18.2468 C   0  0  0  0  0  0
  -28.0444  -12.3342   18.6564 C   0  0  0  0  0  0
  -27.6366  -13.2466   19.8446 C   0  0  2  0  0  0
  -28.6790  -13.2369   20.9836 C   0  0  0  0  0  0
  -25.2490  -13.8207   20.5701 C   0  0  0  0  0  0
  -24.1795  -13.0436   20.9196 C   0  0  0  0  0  0
  -24.6410  -11.6923   20.8744 C   0  0  0  0  0  0
  -23.9094  -10.4294   21.0403 C   0  0  0  0  0  0
  -24.3638   -9.4209   21.9183 C   0  0  0  0  0  0
  -23.6302   -8.2248   22.0758 C   0  0  0  0  0  0
  -22.4285   -8.0290   21.3546 C   0  0  0  0  0  0
  -21.9930   -9.0263   20.4647 C   0  0  0  0  0  0
  -22.7269  -10.2138   20.3049 C   0  0  0  0  0  0
  -21.6863   -6.0743   22.5271 C   0  0  0  0  0  0
  -21.4027   -6.5639   23.8210 C   0  0  0  0  0  0
  -21.3659   -5.6791   24.9167 C   0  0  0  0  0  0
  -21.6039   -4.3050   24.7217 C   0  0  0  0  0  0
  -21.8818   -3.8149   23.4334 C   0  0  0  0  0  0
  -21.9199   -4.6969   22.3399 C   0  0  0  0  0  0
  -22.7813  -13.5206   21.1844 C   0  0  0  0  0  0
  -22.1662   -4.2160   21.0975 F   0  0  0  0  0  0
  -21.5627   -3.4534   25.7728 F   0  0  0  0  0  0
  -29.9714  -13.6004   20.3894 N   0  0  0  0  0  0
  -26.2928  -12.9450   20.3266 N   0  0  0  0  0  0
  -25.9344  -11.6577   20.5727 N   0  0  0  0  0  0
  -22.0460  -12.8207   22.0410 N   0  0  0  0  0  0
  -25.4148  -15.1935   20.4118 N   0  0  0  0  0  0
  -31.8013  -14.8692   20.1419 O   0  0  0  0  0  0
  -21.6640   -6.8889   21.4242 O   0  0  0  0  0  0
  -22.3502  -14.5521   20.6702 O   0  0  0  0  0  0
  -24.6385  -31.8494   23.1931 C   0  0  0  0  0  0
  -25.9177  -32.4738   23.8298 C   0  0  1  0  0  0
  -27.2122  -27.2002   20.1281 C   0  0  0  0  0  0
  -25.5951  -33.8533   24.2238 N   0  0  0  0  0  0
  -23.4404  -30.4709   21.5382 C   0  0  2  0  0  0
  -24.8926  -28.9135   20.1012 C   0  0  0  0  0  0
  -22.7564  -29.4566   22.4895 C   0  0  0  0  0  0
  -18.0320  -28.1404   22.8497 C   0  0  0  0  0  0
  -24.1489  -36.7254   23.2635 C   0  0  0  0  0  0
  -25.9919  -30.7427   21.3820 C   0  0  0  0  0  0
  -26.0669  -29.3611   20.7199 C   0  0  0  0  0  0
  -27.2337  -28.5167   20.7247 C   0  0  0  0  0  0
  -26.0260  -26.8495   19.4517 C   0  0  0  0  0  0
  -24.8811  -27.6704   19.4516 C   0  0  0  0  0  0
  -23.6643  -29.8038   20.1551 C   0  0  0  0  0  0
  -25.4117  -36.3064   24.0331 C   0  0  1  0  0  0
  -20.5931  -28.3725   23.1267 C   0  0  2  0  0  0
  -20.6795  -26.9436   22.5415 C   0  0  0  0  0  0
  -19.5758  -26.6403   21.5229 C   0  0  0  0  0  0
  -18.1947  -26.7948   22.1639 C   0  0  0  0  0  0
  -19.1570  -28.8889   23.2881 C   0  0  0  0  0  0
  -18.9478  -30.1486   23.8898 C   0  0  0  0  0  0
  -17.6468  -30.6600   24.0574 C   0  0  0  0  0  0
  -25.9056  -34.9430   23.5094 C   0  0  0  0  0  0
  -16.5364  -29.9091   23.6334 C   0  0  0  0  0  0
  -16.7302  -28.6514   23.0356 C   0  0  0  0  0  0
  -26.4498  -31.6569   25.0705 C   0  0  0  0  0  0
  -25.3688  -31.3734   26.1408 C   0  0  0  0  0  0
  -27.0342  -30.2984   24.6206 C   0  0  0  0  0  0
  -27.6069  -32.4274   25.7477 C   0  0  0  0  0  0
  -27.5583  -37.1798   24.8468 C   0  0  0  0  0  0
  -21.4261  -29.3049   22.3639 N   0  0  0  0  0  0
  -26.4286  -37.3777   23.9426 N   0  0  0  0  0  0
  -24.7100  -31.0399   22.0942 N   0  0  0  0  0  0
  -23.4244  -28.8112   23.3024 O   0  0  0  0  0  0
  -28.1872  -26.1552   20.2579 O   0  0  0  0  0  0
  -26.5641  -34.8913   22.4665 O   0  0  0  0  0  0
  -23.5517  -32.1348   23.7193 O   0  0  0  0  0  0
  -31.5175  -19.0408   18.8427 C   0  0  0  0  0  0
  -30.7503  -20.1639   19.2158 C   0  0  0  0  0  0
  -31.2155  -17.7370   19.2853 C   0  0  0  0  0  0
  -29.3428  -18.6631   20.5091 C   0  0  0  0  0  0
  -29.6262  -20.0493   20.0665 C   0  0  0  0  0  0
  -30.1242  -17.4638   20.1435 C   0  0  0  0  0  0
  -27.9969  -23.5593   20.8584 C   0  0  0  0  0  0
  -27.2641  -22.5433   21.6203 C   0  0  0  0  0  0
  -28.9124  -22.6712   20.0376 C   0  0  0  0  0  0
  -26.0195  -22.6468   22.1314 C   0  0  0  0  0  0
  -27.7871  -24.9681   20.9950 C   0  0  0  0  0  0
  -27.9015  -21.1860   21.5335 C   0  0  0  0  0  0
  -27.0576  -25.4708   22.2503 C   0  0  0  0  0  0
  -28.8719  -21.3109   20.4634 N   0  0  0  0  0  0
  -29.8436  -16.0241   20.5409 N   0  0  0  0  0  0
  -29.6257  -23.0794   19.1145 O   0  0  0  0  0  0
  -31.4722  -12.6148   19.1985 H   0  0  0  0  0  0
  -30.3624  -11.5437   20.0052 H   0  0  0  0  0  0
  -29.8153  -11.7333   17.5493 H   0  0  0  0  0  0
  -29.6387  -13.4644   17.7141 H   0  0  0  0  0  0
  -27.9100  -11.2877   18.9308 H   0  0  0  0  0  0
  -27.3901  -12.5116   17.8012 H   0  0  0  0  0  0
  -27.6122  -14.2588   19.4392 H   0  0  0  0  0  0
  -28.7307  -12.2577   21.4635 H   0  0  0  0  0  0
  -28.3991  -13.9481   21.7622 H   0  0  0  0  0  0
  -25.2782   -9.5684   22.4755 H   0  0  0  0  0  0
  -24.0010   -7.4645   22.7483 H   0  0  0  0  0  0
  -21.0858   -8.8789   19.8948 H   0  0  0  0  0  0
  -22.3732  -10.9678   19.6148 H   0  0  0  0  0  0
  -21.2025   -7.6147   23.9718 H   0  0  0  0  0  0
  -21.1476   -6.0514   25.9074 H   0  0  0  0  0  0
  -22.0599   -2.7611   23.2828 H   0  0  0  0  0  0
  -22.4079  -11.9863   22.4783 H   0  0  0  0  0  0
  -21.1072  -13.1234   22.2592 H   0  0  0  0  0  0
  -24.6427  -15.8427   20.5141 H   0  0  0  0  0  0
  -26.2563  -15.6369   20.0663 H   0  0  0  0  0  0
  -26.7243  -32.5376   23.1022 H   0  0  0  0  0  0
  -25.0080  -33.9638   25.0376 H   0  0  0  0  0  0
  -22.7386  -31.2943   21.3884 H   0  0  0  0  0  0
  -23.3767  -35.9573   23.3294 H   0  0  0  0  0  0
  -24.3566  -36.8880   22.2053 H   0  0  0  0  0  0
  -23.7223  -37.6439   23.6654 H   0  0  0  0  0  0
  -26.1357  -31.4992   20.6095 H   0  0  0  0  0  0
  -26.8650  -30.7970   22.0203 H   0  0  0  0  0  0
  -28.1206  -28.8351   21.2548 H   0  0  0  0  0  0
  -25.9619  -25.8818   18.9729 H   0  0  0  0  0  0
  -23.9843  -27.3247   18.9570 H   0  0  0  0  0  0
  -23.7928  -30.5789   19.3989 H   0  0  0  0  0  0
  -22.7820  -29.2397   19.8460 H   0  0  0  0  0  0
  -25.1304  -36.1907   25.0828 H   0  0  0  0  0  0
  -21.0033  -28.3312   24.1380 H   0  0  0  0  0  0
  -20.5710  -26.2318   23.3620 H   0  0  0  0  0  0
  -21.6656  -26.7458   22.1192 H   0  0  0  0  0  0
  -19.6888  -25.6316   21.1259 H   0  0  0  0  0  0
  -19.6680  -27.3199   20.6758 H   0  0  0  0  0  0
  -17.4210  -26.6729   21.4039 H   0  0  0  0  0  0
  -18.0331  -26.0083   22.9029 H   0  0  0  0  0  0
  -19.7948  -30.7336   24.2232 H   0  0  0  0  0  0
  -17.5014  -31.6266   24.5191 H   0  0  0  0  0  0
  -15.5358  -30.2991   23.7649 H   0  0  0  0  0  0
  -15.8711  -28.0838   22.7053 H   0  0  0  0  0  0
  -24.5899  -30.7038   25.7734 H   0  0  0  0  0  0
  -24.8799  -32.2885   26.4760 H   0  0  0  0  0  0
  -25.7968  -30.8972   27.0242 H   0  0  0  0  0  0
  -26.2934  -29.6731   24.1202 H   0  0  0  0  0  0
  -27.3997  -29.7257   25.4741 H   0  0  0  0  0  0
  -27.8833  -30.4255   23.9485 H   0  0  0  0  0  0
  -27.2745  -33.3628   26.1987 H   0  0  0  0  0  0
  -28.3921  -32.6729   25.0311 H   0  0  0  0  0  0
  -28.0672  -31.8399   26.5435 H   0  0  0  0  0  0
  -28.2613  -38.0088   24.7541 H   0  0  0  0  0  0
  -28.1074  -36.2625   24.6274 H   0  0  0  0  0  0
  -27.2296  -37.1442   25.8868 H   0  0  0  0  0  0
  -20.9464  -29.8770   21.6826 H   0  0  0  0  0  0
  -26.0163  -38.2852   24.1412 H   0  0  0  0  0  0
  -32.3690  -19.1801   18.1907 H   0  0  0  0  0  0
  -31.0619  -21.1264   18.8376 H   0  0  0  0  0  0
  -31.8530  -16.9439   18.9260 H   0  0  0  0  0  0
  -28.4927  -18.5073   21.1562 H   0  0  0  0  0  0
  -25.4271  -23.5459   22.0968 H   0  0  0  0  0  0
  -25.5435  -21.7882   22.5842 H   0  0  0  0  0  0
  -27.1586  -20.4275   21.2809 H   0  0  0  0  0  0
  -28.3822  -20.9166   22.4746 H   0  0  0  0  0  0
  -27.1612  -24.7913   23.0954 H   0  0  0  0  0  0
  -25.9988  -25.6542   22.0613 H   0  0  0  0  0  0
  -27.4979  -26.4041   22.6020 H   0  0  0  0  0  0
  -28.9065  -15.8598   20.8760 H   0  0  0  0  0  0
  1 25  1  0  0  0
  1 30  2  0  0  0
  1 85  1  0  0  0
  2  3  1  0  0  0
  2 25  1  0  0  0
  2 87  1  0  0  0
  2 88  1  0  0  0
  3  4  1  0  0  0
  3 89  1  0  0  0
  3 90  1  0  0  0
  4  5  1  0  0  0
  4 91  1  0  0  0
  4 92  1  0  0  0
  5  6  1  0  0  0
  5 26  1  0  0  0
  5 93  1  0  0  0
  6 25  1  0  0  0
  6 94  1  0  0  0
  6 95  1  0  0  0
  7  8  2  0  0  0
  7 26  1  0  0  0
  7 29  1  0  0  0
  8  9  1  0  0  0
  8 22  1  0  0  0
  9 10  1  0  0  0
  9 27  2  0  0  0
 10 11  2  0  0  0
 10 15  1  0  0  0
 11 12  1  0  0  0
 11 96  1  0  0  0
 12 13  2  0  0  0
 12 97  1  0  0  0
 13 14  1  0  0  0
 13 31  1  0  0  0
 14 15  2  0  0  0
 14 98  1  0  0  0
 15 99  1  0  0  0
 16 17  2  0  0  0
 16 21  1  0  0  0
 16 31  1  0  0  0
 17 18  1  0  0  0
 17100  1  0  0  0
 18 19  2  0  0  0
 18101  1  0  0  0
 19 20  1  0  0  0
 19 24  1  0  0  0
 20 21  2  0  0  0
 20102  1  0  0  0
 21 23  1  0  0  0
 22 28  1  0  0  0
 22 32  2  0  0  0
 26 27  1  0  0  0
 28103  1  0  0  0
 28104  1  0  0  0
 29105  1  0  0  0
 29106  1  0  0  0
 33 34  1  0  0  0
 33 66  1  0  0  0
 33 70  2  0  0  0
 34 36  1  0  0  0
 34 59  1  0  0  0
 34107  1  0  0  0
 35 44  2  0  0  0
 35 45  1  0  0  0
 35 68  1  0  0  0
 36 56  1  0  0  0
 36108  1  0  0  0
 37 39  1  0  0  0
 37 47  1  0  0  0
 37 66  1  0  0  0
 37109  1  0  0  0
 38 43  2  0  0  0
 38 46  1  0  0  0
 38 47  1  0  0  0
 39 64  1  0  0  0
 39 67  2  0  0  0
 40 52  1  0  0  0
 40 53  2  0  0  0
 40 58  1  0  0  0
 41110  1  0  0  0
 41111  1  0  0  0
 41112  1  0  0  0
 41 48  1  0  0  0
 42 43  1  0  0  0
 42 66  1  0  0  0
 42113  1  0  0  0
 42114  1  0  0  0
 43 44  1  0  0  0
 44115  1  0  0  0
 45 46  2  0  0  0
 45116  1  0  0  0
 46117  1  0  0  0
 47118  1  0  0  0
 47119  1  0  0  0
 48 56  1  0  0  0
 48 65  1  0  0  0
 48120  1  0  0  0
 49 50  1  0  0  0
 49 53  1  0  0  0
 49 64  1  0  0  0
 49121  1  0  0  0
 50 51  1  0  0  0
 50122  1  0  0  0
 50123  1  0  0  0
 51 52  1  0  0  0
 51124  1  0  0  0
 51125  1  0  0  0
 52126  1  0  0  0
 52127  1  0  0  0
 53 54  1  0  0  0
 54 55  2  0  0  0
 54128  1  0  0  0
 55 57  1  0  0  0
 55129  1  0  0  0
 56 69  2  0  0  0
 57 58  2  0  0  0
 57130  1  0  0  0
 58131  1  0  0  0
 59 60  1  0  0  0
 59 61  1  0  0  0
 59 62  1  0  0  0
 60132  1  0  0  0
 60133  1  0  0  0
 60134  1  0  0  0
 61135  1  0  0  0
 61136  1  0  0  0
 61137  1  0  0  0
 62138  1  0  0  0
 62139  1  0  0  0
 62140  1  0  0  0
 63 65  1  0  0  0
 63141  1  0  0  0
 63142  1  0  0  0
 63143  1  0  0  0
 64144  1  0  0  0
 65145  1  0  0  0
 68 81  1  0  0  0
 71 72  2  0  0  0
 71 73  1  0  0  0
 71146  1  0  0  0
 72 75  1  0  0  0
 72147  1  0  0  0
 73 76  2  0  0  0
 73148  1  0  0  0
 74 75  2  0  0  0
 74 76  1  0  0  0
 74149  1  0  0  0
 75 84  1  0  0  0
 76 85  1  0  0  0
 77 78  1  0  0  0
 77 79  1  0  0  0
 77 81  2  0  0  0
 78 80  2  0  0  0
 78 82  1  0  0  0
 79 84  1  0  0  0
 79 86  2  0  0  0
 80150  1  0  0  0
 80151  1  0  0  0
 81 83  1  0  0  0
 82 84  1  0  0  0
 82152  1  0  0  0
 82153  1  0  0  0
 83154  1  0  0  0
 83155  1  0  0  0
 83156  1  0  0  0
 85157  1  0  0  0
M  ISO  4   1 100  68 101  81 101  85 100
M  END
> <chiral flag>
0

> <version>
0

> <s_m_source_file>
/data/baiqing/PycharmProjects/Reinvent-master-3.2/result/LINK_invent/BTK/process_docking_weight1_custom_product_contain_oxygen_bond_distance_aromatic_linkinvent_7_9_3/rearranged_h_0077.sdf

> <i_m_source_file_index>
87

> <r_mmod_Potential_Energy-OPLS-2005>
573.117919921875

> <r_mmod_Stretch_Energy-OPLS-2005>
196.020843505859

> <r_mmod_Bend_Energy-OPLS-2005>
274.486846923828

> <r_mmod_Torsional_Energy-OPLS-2005>
293.635681152344

> <r_mmod_Improper_Torsional_Energy-OPLS-2005>
5.22064733505249

> <r_mmod_Van_der_Waal_Energy-OPLS-2005>
157.488311767578

> <r_mmod_Electrostatic_Energy-OPLS-2005>
-286.006011962891

> <r_mmod_Solvation_Energy-OPLS-2005>
-214.944381713867

> <b_mmod_Minimization_Converged-OPLS-2005>
0

> <r_mmod_RMS_Derivative-OPLS-2005>
2.79371762275696

$$$$
87
                    3D
 Structure written by MMmdl.
150159  0  0  1  0            999 V2000
  -30.6657  -14.6654   20.4563 C   0  0  0  0  0  0
  -30.4210  -12.4017   19.4661 C   0  0  0  0  0  0
  -29.5020  -12.4967   18.2301 C   0  0  0  0  0  0
  -28.0281  -12.3338   18.6444 C   0  0  0  0  0  0
  -27.6443  -13.2301   19.8525 C   0  0  2  0  0  0
  -28.6903  -13.1462   20.9872 C   0  0  0  0  0  0
  -25.2512  -13.8201   20.5696 C   0  0  0  0  0  0
  -24.1804  -13.0440   20.9213 C   0  0  0  0  0  0
  -24.6393  -11.6919   20.8746 C   0  0  0  0  0  0
  -23.9071  -10.4291   21.0400 C   0  0  0  0  0  0
  -24.3619   -9.4211   21.9182 C   0  0  0  0  0  0
  -23.6292   -8.2248   22.0756 C   0  0  0  0  0  0
  -22.4278   -8.0283   21.3544 C   0  0  0  0  0  0
  -21.9915   -9.0255   20.4645 C   0  0  0  0  0  0
  -22.7243  -10.2132   20.3051 C   0  0  0  0  0  0
  -21.6852   -6.0734   22.5275 C   0  0  0  0  0  0
  -21.4013   -6.5635   23.8210 C   0  0  0  0  0  0
  -21.3658   -5.6786   24.9172 C   0  0  0  0  0  0
  -21.6048   -4.3051   24.7221 C   0  0  0  0  0  0
  -21.8820   -3.8145   23.4339 C   0  0  0  0  0  0
  -21.9191   -4.6962   22.3396 C   0  0  0  0  0  0
  -22.7824  -13.5221   21.1859 C   0  0  0  0  0  0
  -22.1661   -4.2150   21.0974 F   0  0  0  0  0  0
  -21.5632   -3.4533   25.7733 F   0  0  0  0  0  0
  -30.0022  -13.4633   20.4089 N   0  0  0  0  0  0
  -26.2944  -12.9412   20.3291 N   0  0  0  0  0  0
  -25.9324  -11.6551   20.5760 N   0  0  0  0  0  0
  -22.0465  -12.8213   22.0408 N   0  0  0  0  0  0
  -25.4182  -15.1925   20.4107 N   0  0  0  0  0  0
  -31.8540  -14.7039   20.1285 O   0  0  0  0  0  0
  -21.6644   -6.8879   21.4238 O   0  0  0  0  0  0
  -22.3505  -14.5520   20.6699 O   0  0  0  0  0  0
  -24.6267  -31.8581   23.2034 C   0  0  0  0  0  0
  -25.9115  -32.4769   23.8357 C   0  0  1  0  0  0
  -27.2195  -27.3175   20.1160 C   0  0  0  0  0  0
  -25.5930  -33.8574   24.2275 N   0  0  0  0  0  0
  -23.4226  -30.4821   21.5453 C   0  0  2  0  0  0
  -24.8721  -28.9439   20.1035 C   0  0  0  0  0  0
  -22.7483  -29.4602   22.4920 C   0  0  0  0  0  0
  -18.0281  -28.1383   22.8481 C   0  0  0  0  0  0
  -24.1492  -36.7291   23.2641 C   0  0  0  0  0  0
  -25.9656  -30.7870   21.3791 C   0  0  0  0  0  0
  -26.0417  -29.4179   20.7146 C   0  0  0  0  0  0
  -27.2229  -28.6140   20.7174 C   0  0  0  0  0  0
  -26.0359  -26.9052   19.4663 C   0  0  0  0  0  0
  -24.8709  -27.6923   19.4697 C   0  0  0  0  0  0
  -23.6387  -29.8224   20.1584 C   0  0  0  0  0  0
  -25.4119  -36.3081   24.0326 C   0  0  1  0  0  0
  -20.5881  -28.3678   23.1251 C   0  0  2  0  0  0
  -20.6762  -26.9390   22.5408 C   0  0  0  0  0  0
  -19.5735  -26.6368   21.5194 C   0  0  0  0  0  0
  -18.1915  -26.7930   22.1612 C   0  0  0  0  0  0
  -19.1539  -28.8850   23.2863 C   0  0  0  0  0  0
  -18.9467  -30.1452   23.8881 C   0  0  0  0  0  0
  -17.6465  -30.6587   24.0558 C   0  0  0  0  0  0
  -25.9055  -34.9447   23.5097 C   0  0  0  0  0  0
  -16.5352  -29.9084   23.6331 C   0  0  0  0  0  0
  -16.7269  -28.6501   23.0356 C   0  0  0  0  0  0
  -26.4503  -31.6589   25.0736 C   0  0  0  0  0  0
  -25.3730  -31.3732   26.1453 C   0  0  0  0  0  0
  -27.0362  -30.3010   24.6214 C   0  0  0  0  0  0
  -27.6049  -32.4342   25.7510 C   0  0  0  0  0  0
  -27.5578  -37.1802   24.8466 C   0  0  0  0  0  0
  -21.4197  -29.3017   22.3642 N   0  0  0  0  0  0
  -26.4297  -37.3774   23.9403 N   0  0  0  0  0  0
  -24.6900  -31.0582   22.0996 N   0  0  0  0  0  0
  -23.4192  -28.8146   23.3011 O   0  0  0  0  0  0
  -28.2570  -26.3761   20.2083 O   0  0  0  0  0  0
  -26.5619  -34.8920   22.4664 O   0  0  0  0  0  0
  -23.5421  -32.1388   23.7347 O   0  0  0  0  0  0
  -28.2758  -18.3074   21.6453 C   0  0  0  0  0  0
  -27.7834  -19.6487   21.6730 C   0  0  0  0  0  0
  -29.3625  -18.2765   20.8153 C   0  0  0  0  0  0
  -28.5767  -20.4256   20.8681 C   0  0  0  0  0  0
  -28.2841  -23.8608   20.8068 C   0  0  0  0  0  0
  -27.8723  -25.1784   20.8505 C   0  0  0  0  0  0
  -30.3126  -17.1265   20.4901 C   0  0  0  0  0  0
  -27.6906  -22.6652   21.5368 C   0  0  0  0  0  0
  -29.3099  -22.9001   20.1535 C   0  0  0  0  0  0
  -28.3379  -21.8313   20.5115 N   0  0  0  0  0  0
  -29.9287  -15.8113   20.6780 N   0  0  0  0  0  0
  -31.4159  -17.4481   20.0345 O   0  0  0  0  0  0
  -29.5614  -19.5932   20.3340 O   0  0  0  0  0  0
  -31.4642  -12.4921   19.1591 H   0  0  0  0  0  0
  -30.3375  -11.4210   19.9366 H   0  0  0  0  0  0
  -29.7712  -11.7351   17.4975 H   0  0  0  0  0  0
  -29.6433  -13.4590   17.7353 H   0  0  0  0  0  0
  -27.8755  -11.2848   18.9004 H   0  0  0  0  0  0
  -27.3724  -12.5377   17.7979 H   0  0  0  0  0  0
  -27.6466  -14.2552   19.4810 H   0  0  0  0  0  0
  -28.7046  -12.1482   21.4270 H   0  0  0  0  0  0
  -28.4379  -13.8315   21.7983 H   0  0  0  0  0  0
  -25.2764   -9.5682   22.4758 H   0  0  0  0  0  0
  -24.0001   -7.4635   22.7470 H   0  0  0  0  0  0
  -21.0854   -8.8768   19.8944 H   0  0  0  0  0  0
  -22.3704  -10.9670   19.6158 H   0  0  0  0  0  0
  -21.2010   -7.6146   23.9711 H   0  0  0  0  0  0
  -21.1479   -6.0519   25.9073 H   0  0  0  0  0  0
  -22.0605   -2.7609   23.2836 H   0  0  0  0  0  0
  -22.4082  -11.9885   22.4814 H   0  0  0  0  0  0
  -21.1073  -13.1221   22.2587 H   0  0  0  0  0  0
  -24.6418  -15.8381   20.5102 H   0  0  0  0  0  0
  -26.2521  -15.6350   20.0469 H   0  0  0  0  0  0
  -26.7180  -32.5432   23.1102 H   0  0  0  0  0  0
  -25.0085  -33.9720   25.0422 H   0  0  0  0  0  0
  -22.7158  -31.3020   21.4035 H   0  0  0  0  0  0
  -23.3750  -35.9625   23.3308 H   0  0  0  0  0  0
  -24.3582  -36.8912   22.2055 H   0  0  0  0  0  0
  -23.7250  -37.6496   23.6663 H   0  0  0  0  0  0
  -26.1039  -31.5543   20.6163 H   0  0  0  0  0  0
  -26.8436  -30.8287   22.0123 H   0  0  0  0  0  0
  -28.1136  -28.9592   21.2238 H   0  0  0  0  0  0
  -25.9979  -25.9341   18.9924 H   0  0  0  0  0  0
  -23.9755  -27.3213   18.9905 H   0  0  0  0  0  0
  -23.7577  -30.6028   19.4055 H   0  0  0  0  0  0
  -22.7592  -29.2521   19.8538 H   0  0  0  0  0  0
  -25.1301  -36.1931   25.0816 H   0  0  0  0  0  0
  -20.9960  -28.3265   24.1372 H   0  0  0  0  0  0
  -20.5640  -26.2276   23.3606 H   0  0  0  0  0  0
  -21.6646  -26.7415   22.1226 H   0  0  0  0  0  0
  -19.6885  -25.6275   21.1233 H   0  0  0  0  0  0
  -19.6671  -27.3178   20.6723 H   0  0  0  0  0  0
  -17.4186  -26.6688   21.4013 H   0  0  0  0  0  0
  -18.0299  -26.0085   22.9012 H   0  0  0  0  0  0
  -19.7951  -30.7270   24.2231 H   0  0  0  0  0  0
  -17.5023  -31.6262   24.5165 H   0  0  0  0  0  0
  -15.5348  -30.2983   23.7658 H   0  0  0  0  0  0
  -15.8668  -28.0824   22.7061 H   0  0  0  0  0  0
  -24.5891  -30.7104   25.7772 H   0  0  0  0  0  0
  -24.8945  -32.2904   26.4892 H   0  0  0  0  0  0
  -25.8045  -30.8887   27.0219 H   0  0  0  0  0  0
  -26.2949  -29.6746   24.1237 H   0  0  0  0  0  0
  -27.4048  -29.7288   25.4738 H   0  0  0  0  0  0
  -27.8823  -30.4297   23.9461 H   0  0  0  0  0  0
  -27.2635  -33.3629   26.2092 H   0  0  0  0  0  0
  -28.3853  -32.6924   25.0342 H   0  0  0  0  0  0
  -28.0721  -31.8474   26.5428 H   0  0  0  0  0  0
  -28.2599  -38.0098   24.7506 H   0  0  0  0  0  0
  -28.1073  -36.2626   24.6302 H   0  0  0  0  0  0
  -27.2292  -37.1463   25.8870 H   0  0  0  0  0  0
  -20.9386  -29.8712   21.6817 H   0  0  0  0  0  0
  -26.0173  -38.2846   24.1405 H   0  0  0  0  0  0
  -27.8756  -17.4585   22.1813 H   0  0  0  0  0  0
  -26.9152  -19.9986   22.2140 H   0  0  0  0  0  0
  -27.0414  -25.3809   21.5146 H   0  0  0  0  0  0
  -26.6049  -22.5580   21.5357 H   0  0  0  0  0  0
  -28.0901  -22.4592   22.5321 H   0  0  0  0  0  0
  -30.2572  -22.7586   20.6767 H   0  0  0  0  0  0
  -29.4741  -22.9752   19.0777 H   0  0  0  0  0  0
  -28.9766  -15.6781   20.9696 H   0  0  0  0  0  0
  1 25  1  0  0  0
  1 30  2  0  0  0
  1 81  1  0  0  0
  2  3  1  0  0  0
  2 25  1  0  0  0
  2 84  1  0  0  0
  2 85  1  0  0  0
  3  4  1  0  0  0
  3 86  1  0  0  0
  3 87  1  0  0  0
  4  5  1  0  0  0
  4 88  1  0  0  0
  4 89  1  0  0  0
  5  6  1  0  0  0
  5 26  1  0  0  0
  5 90  1  0  0  0
  6 25  1  0  0  0
  6 91  1  0  0  0
  6 92  1  0  0  0
  7  8  2  0  0  0
  7 26  1  0  0  0
  7 29  1  0  0  0
  8  9  1  0  0  0
  8 22  1  0  0  0
  9 10  1  0  0  0
  9 27  2  0  0  0
 10 11  2  0  0  0
 10 15  1  0  0  0
 11 12  1  0  0  0
 11 93  1  0  0  0
 12 13  2  0  0  0
 12 94  1  0  0  0
 13 14  1  0  0  0
 13 31  1  0  0  0
 14 15  2  0  0  0
 14 95  1  0  0  0
 15 96  1  0  0  0
 16 17  2  0  0  0
 16 21  1  0  0  0
 16 31  1  0  0  0
 17 18  1  0  0  0
 17 97  1  0  0  0
 18 19  2  0  0  0
 18 98  1  0  0  0
 19 20  1  0  0  0
 19 24  1  0  0  0
 20 21  2  0  0  0
 20 99  1  0  0  0
 21 23  1  0  0  0
 22 28  1  0  0  0
 22 32  2  0  0  0
 26 27  1  0  0  0
 28100  1  0  0  0
 28101  1  0  0  0
 29102  1  0  0  0
 29103  1  0  0  0
 33 34  1  0  0  0
 33 66  1  0  0  0
 33 70  2  0  0  0
 34 36  1  0  0  0
 34 59  1  0  0  0
 34104  1  0  0  0
 35 44  2  0  0  0
 35 45  1  0  0  0
 35 68  1  0  0  0
 36 56  1  0  0  0
 36105  1  0  0  0
 37 39  1  0  0  0
 37 47  1  0  0  0
 37 66  1  0  0  0
 37106  1  0  0  0
 38 43  2  0  0  0
 38 46  1  0  0  0
 38 47  1  0  0  0
 39 64  1  0  0  0
 39 67  2  0  0  0
 40 52  1  0  0  0
 40 53  2  0  0  0
 40 58  1  0  0  0
 41107  1  0  0  0
 41108  1  0  0  0
 41109  1  0  0  0
 41 48  1  0  0  0
 42 43  1  0  0  0
 42 66  1  0  0  0
 42110  1  0  0  0
 42111  1  0  0  0
 43 44  1  0  0  0
 44112  1  0  0  0
 45 46  2  0  0  0
 45113  1  0  0  0
 46114  1  0  0  0
 47115  1  0  0  0
 47116  1  0  0  0
 48 56  1  0  0  0
 48 65  1  0  0  0
 48117  1  0  0  0
 49 50  1  0  0  0
 49 53  1  0  0  0
 49 64  1  0  0  0
 49118  1  0  0  0
 50 51  1  0  0  0
 50119  1  0  0  0
 50120  1  0  0  0
 51 52  1  0  0  0
 51121  1  0  0  0
 51122  1  0  0  0
 52123  1  0  0  0
 52124  1  0  0  0
 53 54  1  0  0  0
 54 55  2  0  0  0
 54125  1  0  0  0
 55 57  1  0  0  0
 55126  1  0  0  0
 56 69  2  0  0  0
 57 58  2  0  0  0
 57127  1  0  0  0
 58128  1  0  0  0
 59 60  1  0  0  0
 59 61  1  0  0  0
 59 62  1  0  0  0
 60129  1  0  0  0
 60130  1  0  0  0
 60131  1  0  0  0
 61132  1  0  0  0
 61133  1  0  0  0
 61134  1  0  0  0
 62135  1  0  0  0
 62136  1  0  0  0
 62137  1  0  0  0
 63 65  1  0  0  0
 63138  1  0  0  0
 63139  1  0  0  0
 63140  1  0  0  0
 64141  1  0  0  0
 65142  1  0  0  0
 68 76  1  0  0  0
 71 72  1  0  0  0
 71 73  2  0  0  0
 71143  1  0  0  0
 72 74  2  0  0  0
 72144  1  0  0  0
 73 77  1  0  0  0
 73 83  1  0  0  0
 74 80  1  0  0  0
 74 83  1  0  0  0
 75 76  2  0  0  0
 75 78  1  0  0  0
 75 79  1  0  0  0
 76145  1  0  0  0
 77 81  1  0  0  0
 77 82  2  0  0  0
 78 80  1  0  0  0
 78146  1  0  0  0
 78147  1  0  0  0
 79 80  1  0  0  0
 79148  1  0  0  0
 79149  1  0  0  0
 81150  1  0  0  0
M  ISO  4   1 100  68 101  76 101  81 100
M  END
> <chiral flag>
0

> <version>
0

> <s_m_source_file>
/data/baiqing/PycharmProjects/Reinvent-master-3.2/result/LINK_invent/BTK/process_docking_weight1_custom_product_contain_oxygen_bond_distance_aromatic_linkinvent_7_9_3/rearranged_h_0077.sdf

> <i_m_source_file_index>
88

> <r_mmod_Potential_Energy-OPLS-2005>
57.0215911865234

> <r_mmod_Stretch_Energy-OPLS-2005>
78.2914657592773

> <r_mmod_Bend_Energy-OPLS-2005>
216.899291992188

> <r_mmod_Torsional_Energy-OPLS-2005>
242.783309936523

> <r_mmod_Improper_Torsional_Energy-OPLS-2005>
11.9100875854492

> <r_mmod_Van_der_Waal_Energy-OPLS-2005>
128.062057495117

> <r_mmod_Electrostatic_Energy-OPLS-2005>
-430.01220703125

> <r_mmod_Solvation_Energy-OPLS-2005>
-256.092346191406

> <b_mmod_Minimization_Converged-OPLS-2005>
0

> <r_mmod_RMS_Derivative-OPLS-2005>
1.28427815437317

$$$$
88
                    3D
 Structure written by MMmdl.
155164  0  0  1  0            999 V2000
  -30.5894  -14.7056   20.4664 C   0  0  0  0  0  0
  -30.4366  -12.4235   19.4734 C   0  0  0  0  0  0
  -29.5073  -12.4964   18.2403 C   0  0  0  0  0  0
  -28.0342  -12.3217   18.6557 C   0  0  0  0  0  0
  -27.6457  -13.2181   19.8606 C   0  0  2  0  0  0
  -28.6880  -13.1115   20.9954 C   0  0  0  0  0  0
  -25.2522  -13.8155   20.5686 C   0  0  0  0  0  0
  -24.1800  -13.0413   20.9200 C   0  0  0  0  0  0
  -24.6387  -11.6882   20.8740 C   0  0  0  0  0  0
  -23.9057  -10.4282   21.0419 C   0  0  0  0  0  0
  -24.3597   -9.4197   21.9206 C   0  0  0  0  0  0
  -23.6269   -8.2230   22.0757 C   0  0  0  0  0  0
  -22.4251   -8.0275   21.3550 C   0  0  0  0  0  0
  -21.9901   -9.0248   20.4649 C   0  0  0  0  0  0
  -22.7229  -10.2126   20.3075 C   0  0  0  0  0  0
  -21.6841   -6.0731   22.5289 C   0  0  0  0  0  0
  -21.4006   -6.5640   23.8219 C   0  0  0  0  0  0
  -21.3661   -5.6794   24.9186 C   0  0  0  0  0  0
  -21.6030   -4.3054   24.7237 C   0  0  0  0  0  0
  -21.8816   -3.8142   23.4361 C   0  0  0  0  0  0
  -21.9182   -4.6958   22.3411 C   0  0  0  0  0  0
  -22.7832  -13.5207   21.1874 C   0  0  0  0  0  0
  -22.1651   -4.2142   21.0989 F   0  0  0  0  0  0
  -21.5644   -3.4544   25.7755 F   0  0  0  0  0  0
  -29.9982  -13.4651   20.4278 N   0  0  0  0  0  0
  -26.2946  -12.9328   20.3316 N   0  0  0  0  0  0
  -25.9315  -11.6486   20.5763 N   0  0  0  0  0  0
  -22.0478  -12.8195   22.0428 N   0  0  0  0  0  0
  -25.4234  -15.1872   20.4101 N   0  0  0  0  0  0
  -31.7554  -14.8536   20.0857 O   0  0  0  0  0  0
  -21.6618   -6.8869   21.4244 O   0  0  0  0  0  0
  -22.3518  -14.5538   20.6755 O   0  0  0  0  0  0
  -24.6303  -31.8555   23.1957 C   0  0  0  0  0  0
  -25.9132  -32.4756   23.8309 C   0  0  1  0  0  0
  -27.2420  -27.2893   20.1185 C   0  0  0  0  0  0
  -25.5934  -33.8551   24.2246 N   0  0  0  0  0  0
  -23.4267  -30.4739   21.5398 C   0  0  2  0  0  0
  -24.8763  -28.9134   20.1147 C   0  0  0  0  0  0
  -22.7503  -29.4591   22.4936 C   0  0  0  0  0  0
  -18.0285  -28.1396   22.8502 C   0  0  0  0  0  0
  -24.1495  -36.7281   23.2649 C   0  0  0  0  0  0
  -25.9685  -30.7747   21.3727 C   0  0  0  0  0  0
  -26.0434  -29.3968   20.7157 C   0  0  0  0  0  0
  -27.2268  -28.5971   20.7041 C   0  0  0  0  0  0
  -26.0488  -26.8528   19.5064 C   0  0  0  0  0  0
  -24.8810  -27.6465   19.5029 C   0  0  0  0  0  0
  -23.6460  -29.7994   20.1587 C   0  0  0  0  0  0
  -25.4124  -36.3065   24.0328 C   0  0  1  0  0  0
  -20.5894  -28.3691   23.1293 C   0  0  2  0  0  0
  -20.6787  -26.9414   22.5420 C   0  0  0  0  0  0
  -19.5753  -26.6396   21.5227 C   0  0  0  0  0  0
  -18.1927  -26.7934   22.1637 C   0  0  0  0  0  0
  -19.1544  -28.8857   23.2895 C   0  0  0  0  0  0
  -18.9465  -30.1470   23.8906 C   0  0  0  0  0  0
  -17.6462  -30.6597   24.0569 C   0  0  0  0  0  0
  -25.9061  -34.9438   23.5094 C   0  0  0  0  0  0
  -16.5350  -29.9100   23.6337 C   0  0  0  0  0  0
  -16.7276  -28.6519   23.0346 C   0  0  0  0  0  0
  -26.4495  -31.6573   25.0702 C   0  0  0  0  0  0
  -25.3720  -31.3703   26.1431 C   0  0  0  0  0  0
  -27.0358  -30.3002   24.6166 C   0  0  0  0  0  0
  -27.6063  -32.4306   25.7463 C   0  0  0  0  0  0
  -27.5557  -37.1825   24.8489 C   0  0  0  0  0  0
  -21.4209  -29.3034   22.3678 N   0  0  0  0  0  0
  -26.4312  -37.3754   23.9374 N   0  0  0  0  0  0
  -24.6938  -31.0520   22.0932 N   0  0  0  0  0  0
  -23.4206  -28.8155   23.3051 O   0  0  0  0  0  0
  -28.3868  -26.4690   20.1510 O   0  0  0  0  0  0
  -26.5635  -34.8912   22.4664 O   0  0  0  0  0  0
  -23.5459  -32.1382   23.7246 O   0  0  0  0  0  0
  -29.1849  -19.5856   21.1949 C   0  0  0  0  0  0
  -30.6945  -19.2657   19.4099 C   0  0  0  0  0  0
  -29.1053  -18.1567   21.3555 C   0  0  0  0  0  0
  -30.6485  -17.8464   19.5711 C   0  0  0  0  0  0
  -30.0323  -20.2256   20.2451 C   0  0  0  0  0  0
  -29.8748  -17.2329   20.5846 C   0  0  0  0  0  0
  -31.7720  -23.1523   20.3113 C   0  0  0  0  0  0
  -30.4277  -23.1173   20.2062 C   0  0  0  0  0  0
  -32.7506  -24.0755   20.3429 C   0  0  0  0  0  0
  -29.7520  -24.3348   20.1355 C   0  0  0  0  0  0
  -31.9029  -21.6857   20.4036 C   0  0  0  0  0  0
  -28.3400  -24.9839   19.9508 C   0  0  0  0  0  0
  -30.4549  -21.6470   20.1905 N   0  0  0  0  0  0
  -29.7804  -15.7732   20.8071 N   0  0  0  0  0  0
  -31.4783  -12.5550   19.1753 H   0  0  0  0  0  0
  -30.3807  -11.4384   19.9392 H   0  0  0  0  0  0
  -29.7835  -11.7321   17.5138 H   0  0  0  0  0  0
  -29.6350  -13.4566   17.7385 H   0  0  0  0  0  0
  -27.8911  -11.2712   18.9162 H   0  0  0  0  0  0
  -27.3728  -12.5151   17.8126 H   0  0  0  0  0  0
  -27.6515  -14.2453   19.4955 H   0  0  0  0  0  0
  -28.7087  -12.0985   21.3960 H   0  0  0  0  0  0
  -28.4283  -13.7606   21.8337 H   0  0  0  0  0  0
  -25.2745   -9.5660   22.4777 H   0  0  0  0  0  0
  -23.9972   -7.4614   22.7478 H   0  0  0  0  0  0
  -21.0836   -8.8779   19.8940 H   0  0  0  0  0  0
  -22.3711  -10.9671   19.6183 H   0  0  0  0  0  0
  -21.2004   -7.6148   23.9727 H   0  0  0  0  0  0
  -21.1484   -6.0530   25.9093 H   0  0  0  0  0  0
  -22.0589   -2.7605   23.2877 H   0  0  0  0  0  0
  -22.4065  -11.9821   22.4769 H   0  0  0  0  0  0
  -21.1127  -13.1252   22.2695 H   0  0  0  0  0  0
  -24.6547  -15.8400   20.5234 H   0  0  0  0  0  0
  -26.2722  -15.6271   20.0793 H   0  0  0  0  0  0
  -26.7207  -32.5421   23.1064 H   0  0  0  0  0  0
  -25.0059  -33.9675   25.0372 H   0  0  0  0  0  0
  -22.7242  -31.2955   21.3880 H   0  0  0  0  0  0
  -23.3726  -35.9657   23.3406 H   0  0  0  0  0  0
  -24.3559  -36.8794   22.2042 H   0  0  0  0  0  0
  -23.7300  -37.6534   23.6614 H   0  0  0  0  0  0
  -26.1049  -31.5357   20.6031 H   0  0  0  0  0  0
  -26.8469  -30.8262   22.0047 H   0  0  0  0  0  0
  -28.1259  -28.9654   21.1775 H   0  0  0  0  0  0
  -26.0033  -25.8851   19.0285 H   0  0  0  0  0  0
  -23.9872  -27.2661   19.0290 H   0  0  0  0  0  0
  -23.7734  -30.5727   19.4001 H   0  0  0  0  0  0
  -22.7658  -29.2337   19.8518 H   0  0  0  0  0  0
  -25.1317  -36.1929   25.0828 H   0  0  0  0  0  0
  -20.9994  -28.3268   24.1411 H   0  0  0  0  0  0
  -20.5705  -26.2297   23.3624 H   0  0  0  0  0  0
  -21.6650  -26.7448   22.1193 H   0  0  0  0  0  0
  -19.6917  -25.6317   21.1234 H   0  0  0  0  0  0
  -19.6683  -27.3231   20.6778 H   0  0  0  0  0  0
  -17.4203  -26.6686   21.4035 H   0  0  0  0  0  0
  -18.0322  -26.0077   22.9031 H   0  0  0  0  0  0
  -19.7938  -30.7288   24.2274 H   0  0  0  0  0  0
  -17.5010  -31.6273   24.5177 H   0  0  0  0  0  0
  -15.5355  -30.2996   23.7662 H   0  0  0  0  0  0
  -15.8674  -28.0844   22.7047 H   0  0  0  0  0  0
  -24.5934  -30.7002   25.7753 H   0  0  0  0  0  0
  -24.8873  -32.2868   26.4819 H   0  0  0  0  0  0
  -25.8067  -30.8920   27.0221 H   0  0  0  0  0  0
  -26.2941  -29.6732   24.1219 H   0  0  0  0  0  0
  -27.4089  -29.7272   25.4655 H   0  0  0  0  0  0
  -27.8781  -30.4275   23.9369 H   0  0  0  0  0  0
  -27.2695  -33.3634   26.1989 H   0  0  0  0  0  0
  -28.3902  -32.6806   25.0303 H   0  0  0  0  0  0
  -28.0706  -31.8458   26.5414 H   0  0  0  0  0  0
  -28.2676  -38.0016   24.7408 H   0  0  0  0  0  0
  -28.0952  -36.2554   24.6509 H   0  0  0  0  0  0
  -27.2263  -37.1704   25.8892 H   0  0  0  0  0  0
  -20.9418  -29.8737   21.6849 H   0  0  0  0  0  0
  -26.0199  -38.2855   24.1280 H   0  0  0  0  0  0
  -28.6380  -20.2044   21.8922 H   0  0  0  0  0  0
  -31.3449  -19.6296   18.6282 H   0  0  0  0  0  0
  -28.4599  -17.7727   22.1324 H   0  0  0  0  0  0
  -31.2348  -17.2333   18.9004 H   0  0  0  0  0  0
  -32.5596  -25.1348   20.2591 H   0  0  0  0  0  0
  -33.7826  -23.7682   20.4456 H   0  0  0  0  0  0
  -30.4196  -25.1816   20.1864 H   0  0  0  0  0  0
  -32.1790  -21.2763   21.3779 H   0  0  0  0  0  0
  -32.4827  -21.2062   19.6145 H   0  0  0  0  0  0
  -27.6224  -24.5102   20.6202 H   0  0  0  0  0  0
  -28.0253  -24.7802   18.9267 H   0  0  0  0  0  0
  -28.9205  -15.4747   21.2408 H   0  0  0  0  0  0
  1 25  1  0  0  0
  1 30  2  0  0  0
  1 84  1  0  0  0
  2  3  1  0  0  0
  2 25  1  0  0  0
  2 85  1  0  0  0
  2 86  1  0  0  0
  3  4  1  0  0  0
  3 87  1  0  0  0
  3 88  1  0  0  0
  4  5  1  0  0  0
  4 89  1  0  0  0
  4 90  1  0  0  0
  5  6  1  0  0  0
  5 26  1  0  0  0
  5 91  1  0  0  0
  6 25  1  0  0  0
  6 92  1  0  0  0
  6 93  1  0  0  0
  7  8  2  0  0  0
  7 26  1  0  0  0
  7 29  1  0  0  0
  8  9  1  0  0  0
  8 22  1  0  0  0
  9 10  1  0  0  0
  9 27  2  0  0  0
 10 11  2  0  0  0
 10 15  1  0  0  0
 11 12  1  0  0  0
 11 94  1  0  0  0
 12 13  2  0  0  0
 12 95  1  0  0  0
 13 14  1  0  0  0
 13 31  1  0  0  0
 14 15  2  0  0  0
 14 96  1  0  0  0
 15 97  1  0  0  0
 16 17  2  0  0  0
 16 21  1  0  0  0
 16 31  1  0  0  0
 17 18  1  0  0  0
 17 98  1  0  0  0
 18 19  2  0  0  0
 18 99  1  0  0  0
 19 20  1  0  0  0
 19 24  1  0  0  0
 20 21  2  0  0  0
 20100  1  0  0  0
 21 23  1  0  0  0
 22 28  1  0  0  0
 22 32  2  0  0  0
 26 27  1  0  0  0
 28101  1  0  0  0
 28102  1  0  0  0
 29103  1  0  0  0
 29104  1  0  0  0
 33 34  1  0  0  0
 33 66  1  0  0  0
 33 70  2  0  0  0
 34 36  1  0  0  0
 34 59  1  0  0  0
 34105  1  0  0  0
 35 44  2  0  0  0
 35 45  1  0  0  0
 35 68  1  0  0  0
 36 56  1  0  0  0
 36106  1  0  0  0
 37 39  1  0  0  0
 37 47  1  0  0  0
 37 66  1  0  0  0
 37107  1  0  0  0
 38 43  2  0  0  0
 38 46  1  0  0  0
 38 47  1  0  0  0
 39 64  1  0  0  0
 39 67  2  0  0  0
 40 52  1  0  0  0
 40 53  2  0  0  0
 40 58  1  0  0  0
 41108  1  0  0  0
 41109  1  0  0  0
 41110  1  0  0  0
 41 48  1  0  0  0
 42 43  1  0  0  0
 42 66  1  0  0  0
 42111  1  0  0  0
 42112  1  0  0  0
 43 44  1  0  0  0
 44113  1  0  0  0
 45 46  2  0  0  0
 45114  1  0  0  0
 46115  1  0  0  0
 47116  1  0  0  0
 47117  1  0  0  0
 48 56  1  0  0  0
 48 65  1  0  0  0
 48118  1  0  0  0
 49 50  1  0  0  0
 49 53  1  0  0  0
 49 64  1  0  0  0
 49119  1  0  0  0
 50 51  1  0  0  0
 50120  1  0  0  0
 50121  1  0  0  0
 51 52  1  0  0  0
 51122  1  0  0  0
 51123  1  0  0  0
 52124  1  0  0  0
 52125  1  0  0  0
 53 54  1  0  0  0
 54 55  2  0  0  0
 54126  1  0  0  0
 55 57  1  0  0  0
 55127  1  0  0  0
 56 69  2  0  0  0
 57 58  2  0  0  0
 57128  1  0  0  0
 58129  1  0  0  0
 59 60  1  0  0  0
 59 61  1  0  0  0
 59 62  1  0  0  0
 60130  1  0  0  0
 60131  1  0  0  0
 60132  1  0  0  0
 61133  1  0  0  0
 61134  1  0  0  0
 61135  1  0  0  0
 62136  1  0  0  0
 62137  1  0  0  0
 62138  1  0  0  0
 63 65  1  0  0  0
 63139  1  0  0  0
 63140  1  0  0  0
 63141  1  0  0  0
 64142  1  0  0  0
 65143  1  0  0  0
 68 82  1  0  0  0
 71 73  2  0  0  0
 71 75  1  0  0  0
 71144  1  0  0  0
 72 74  1  0  0  0
 72 75  2  0  0  0
 72145  1  0  0  0
 73 76  1  0  0  0
 73146  1  0  0  0
 74 76  2  0  0  0
 74147  1  0  0  0
 75 83  1  0  0  0
 76 84  1  0  0  0
 77 78  1  0  0  0
 77 79  2  0  0  0
 77 81  1  0  0  0
 78 80  2  0  0  0
 78 83  1  0  0  0
 79148  1  0  0  0
 79149  1  0  0  0
 80 82  1  0  0  0
 80150  1  0  0  0
 81 83  1  0  0  0
 81151  1  0  0  0
 81152  1  0  0  0
 82153  1  0  0  0
 82154  1  0  0  0
 84155  1  0  0  0
M  ISO  4   1 100  68 101  82 101  84 100
M  END
> <chiral flag>
0

> <version>
0

> <s_m_source_file>
/data/baiqing/PycharmProjects/Reinvent-master-3.2/result/LINK_invent/BTK/process_docking_weight1_custom_product_contain_oxygen_bond_distance_aromatic_linkinvent_7_9_3/rearranged_h_0077.sdf

> <i_m_source_file_index>
89

> <r_mmod_Potential_Energy-OPLS-2005>
285.306030273438

> <r_mmod_Stretch_Energy-OPLS-2005>
113.606262207031

> <r_mmod_Bend_Energy-OPLS-2005>
306.377319335938

> <r_mmod_Torsional_Energy-OPLS-2005>
253.985198974609

> <r_mmod_Improper_Torsional_Energy-OPLS-2005>
5.87057590484619

> <r_mmod_Van_der_Waal_Energy-OPLS-2005>
148.37532043457

> <r_mmod_Electrostatic_Energy-OPLS-2005>
-399.355499267578

> <r_mmod_Solvation_Energy-OPLS-2005>
-209.034759521484

> <b_mmod_Minimization_Converged-OPLS-2005>
0

> <r_mmod_RMS_Derivative-OPLS-2005>
3.23787426948547

$$$$
89
                    3D
 Structure written by MMmdl.
158167  0  0  1  0            999 V2000
  -30.6085  -14.7784   20.4878 C   0  0  0  0  0  0
  -30.4211  -12.4854   19.4883 C   0  0  0  0  0  0
  -29.5046  -12.5202   18.2450 C   0  0  0  0  0  0
  -28.0341  -12.3296   18.6572 C   0  0  0  0  0  0
  -27.6339  -13.2360   19.8527 C   0  0  2  0  0  0
  -28.6724  -13.1882   20.9946 C   0  0  0  0  0  0
  -25.2474  -13.8207   20.5689 C   0  0  0  0  0  0
  -24.1763  -13.0446   20.9196 C   0  0  0  0  0  0
  -24.6362  -11.6926   20.8750 C   0  0  0  0  0  0
  -23.9050  -10.4297   21.0396 C   0  0  0  0  0  0
  -24.3604   -9.4217   21.9182 C   0  0  0  0  0  0
  -23.6292   -8.2256   22.0751 C   0  0  0  0  0  0
  -22.4285   -8.0283   21.3534 C   0  0  0  0  0  0
  -21.9921   -9.0237   20.4623 C   0  0  0  0  0  0
  -22.7235  -10.2121   20.3034 C   0  0  0  0  0  0
  -21.6854   -6.0739   22.5280 C   0  0  0  0  0  0
  -21.4006   -6.5635   23.8203 C   0  0  0  0  0  0
  -21.3660   -5.6790   24.9169 C   0  0  0  0  0  0
  -21.6044   -4.3056   24.7226 C   0  0  0  0  0  0
  -21.8817   -3.8143   23.4343 C   0  0  0  0  0  0
  -21.9187   -4.6970   22.3399 C   0  0  0  0  0  0
  -22.7792  -13.5236   21.1867 C   0  0  0  0  0  0
  -22.1663   -4.2163   21.0975 F   0  0  0  0  0  0
  -21.5630   -3.4556   25.7740 F   0  0  0  0  0  0
  -29.9691  -13.5543   20.4177 N   0  0  0  0  0  0
  -26.2877  -12.9404   20.3292 N   0  0  0  0  0  0
  -25.9286  -11.6538   20.5755 N   0  0  0  0  0  0
  -22.0416  -12.8194   22.0392 N   0  0  0  0  0  0
  -25.4232  -15.1919   20.4103 N   0  0  0  0  0  0
  -31.7875  -14.8247   20.1300 O   0  0  0  0  0  0
  -21.6640   -6.8884   21.4236 O   0  0  0  0  0  0
  -22.3492  -14.5571   20.6761 O   0  0  0  0  0  0
  -24.6360  -31.8530   23.1956 C   0  0  0  0  0  0
  -25.9175  -32.4736   23.8310 C   0  0  1  0  0  0
  -27.2066  -27.2278   20.1515 C   0  0  0  0  0  0
  -25.5962  -33.8533   24.2236 N   0  0  0  0  0  0
  -23.4332  -30.4715   21.5419 C   0  0  2  0  0  0
  -24.8812  -28.9168   20.1118 C   0  0  0  0  0  0
  -22.7513  -29.4590   22.4948 C   0  0  0  0  0  0
  -18.0291  -28.1388   22.8474 C   0  0  0  0  0  0
  -24.1486  -36.7242   23.2634 C   0  0  0  0  0  0
  -25.9813  -30.7537   21.3823 C   0  0  0  0  0  0
  -26.0528  -29.3719   20.7318 C   0  0  0  0  0  0
  -27.2220  -28.5393   20.7450 C   0  0  0  0  0  0
  -26.0312  -26.8717   19.4653 C   0  0  0  0  0  0
  -24.8765  -27.6746   19.4638 C   0  0  0  0  0  0
  -23.6489  -29.7990   20.1608 C   0  0  0  0  0  0
  -25.4116  -36.3051   24.0334 C   0  0  1  0  0  0
  -20.5893  -28.3704   23.1272 C   0  0  2  0  0  0
  -20.6788  -26.9422   22.5385 C   0  0  0  0  0  0
  -19.5755  -26.6364   21.5196 C   0  0  0  0  0  0
  -18.1921  -26.7943   22.1583 C   0  0  0  0  0  0
  -19.1549  -28.8865   23.2855 C   0  0  0  0  0  0
  -18.9481  -30.1475   23.8868 C   0  0  0  0  0  0
  -17.6486  -30.6589   24.0562 C   0  0  0  0  0  0
  -25.9069  -34.9439   23.5089 C   0  0  0  0  0  0
  -16.5365  -29.9076   23.6363 C   0  0  0  0  0  0
  -16.7292  -28.6499   23.0365 C   0  0  0  0  0  0
  -26.4518  -31.6568   25.0712 C   0  0  0  0  0  0
  -25.3712  -31.3696   26.1401 C   0  0  0  0  0  0
  -27.0398  -30.3005   24.6189 C   0  0  0  0  0  0
  -27.6049  -32.4329   25.7500 C   0  0  0  0  0  0
  -27.5587  -37.1765   24.8460 C   0  0  0  0  0  0
  -21.4217  -29.3062   22.3689 N   0  0  0  0  0  0
  -26.4275  -37.3764   23.9447 N   0  0  0  0  0  0
  -24.7023  -31.0441   22.0961 N   0  0  0  0  0  0
  -23.4184  -28.8130   23.3073 O   0  0  0  0  0  0
  -28.2429  -26.2637   20.1925 O   0  0  0  0  0  0
  -26.5613  -34.8938   22.4638 O   0  0  0  0  0  0
  -23.5501  -32.1388   23.7199 O   0  0  0  0  0  0
  -32.1202  -19.0390   20.6355 C   0  0  0  0  0  0
  -31.6520  -17.7211   20.7472 C   0  0  0  0  0  0
  -29.3912  -18.5774   20.6559 C   0  0  0  0  0  0
  -31.2576  -20.1455   20.5138 C   0  0  0  0  0  0
  -29.8457  -19.9802   20.5873 C   0  0  0  0  0  0
  -30.2775  -17.4032   20.7112 C   0  0  0  0  0  0
  -29.1407  -22.5411   20.9455 C   0  0  0  0  0  0
  -28.2540  -23.4764   20.4559 C   0  0  0  0  0  0
  -27.3794  -22.6355   19.6461 C   0  0  0  0  0  0
  -26.2101  -23.0152   19.1109 C   0  0  0  0  0  0
  -27.8954  -21.1936   19.5646 C   0  0  0  0  0  0
  -31.9320  -21.4834   20.2444 C   0  0  0  0  0  0
  -27.9709  -24.9872   20.9667 C   0  0  0  0  0  0
  -28.9849  -21.1677   20.5307 N   0  0  0  0  0  0
  -29.8772  -15.9469   20.7643 N   0  0  0  0  0  0
  -31.4607  -12.6072   19.1816 H   0  0  0  0  0  0
  -30.3711  -11.5145   19.9811 H   0  0  0  0  0  0
  -29.7961  -11.7433   17.5372 H   0  0  0  0  0  0
  -29.6152  -13.4727   17.7226 H   0  0  0  0  0  0
  -27.9040  -11.2817   18.9297 H   0  0  0  0  0  0
  -27.3724  -12.5076   17.8082 H   0  0  0  0  0  0
  -27.6244  -14.2549   19.4645 H   0  0  0  0  0  0
  -28.7147  -12.1907   21.4348 H   0  0  0  0  0  0
  -28.3958  -13.8673   21.8026 H   0  0  0  0  0  0
  -25.2726   -9.5709   22.4787 H   0  0  0  0  0  0
  -23.9997   -7.4656   22.7487 H   0  0  0  0  0  0
  -21.0858   -8.8743   19.8911 H   0  0  0  0  0  0
  -22.3691  -10.9664   19.6154 H   0  0  0  0  0  0
  -21.1990   -7.6142   23.9714 H   0  0  0  0  0  0
  -21.1486   -6.0517   25.9067 H   0  0  0  0  0  0
  -22.0596   -2.7612   23.2838 H   0  0  0  0  0  0
  -22.4025  -11.9809   22.4698 H   0  0  0  0  0  0
  -21.1016  -13.1172   22.2589 H   0  0  0  0  0  0
  -24.6607  -15.8526   20.5072 H   0  0  0  0  0  0
  -26.2722  -15.6179   20.0615 H   0  0  0  0  0  0
  -26.7247  -32.5373   23.1053 H   0  0  0  0  0  0
  -25.0236  -33.9676   25.0473 H   0  0  0  0  0  0
  -22.7309  -31.2937   21.3890 H   0  0  0  0  0  0
  -23.3802  -35.9499   23.3207 H   0  0  0  0  0  0
  -24.3606  -36.8956   22.2063 H   0  0  0  0  0  0
  -23.7171  -37.6386   23.6720 H   0  0  0  0  0  0
  -26.1190  -31.5048   20.6033 H   0  0  0  0  0  0
  -26.8619  -30.8049   22.0110 H   0  0  0  0  0  0
  -28.1175  -28.8771   21.2474 H   0  0  0  0  0  0
  -26.0039  -25.9482   18.9178 H   0  0  0  0  0  0
  -23.9907  -27.3250   18.9531 H   0  0  0  0  0  0
  -23.7588  -30.5663   19.3944 H   0  0  0  0  0  0
  -22.7722  -29.2166   19.8708 H   0  0  0  0  0  0
  -25.1282  -36.1883   25.0821 H   0  0  0  0  0  0
  -20.9961  -28.3268   24.1406 H   0  0  0  0  0  0
  -20.5682  -26.2312   23.3578 H   0  0  0  0  0  0
  -21.6662  -26.7422   22.1180 H   0  0  0  0  0  0
  -19.6921  -25.6269   21.1228 H   0  0  0  0  0  0
  -19.6714  -27.3181   20.6733 H   0  0  0  0  0  0
  -17.4202  -26.6752   21.3956 H   0  0  0  0  0  0
  -18.0271  -26.0042   22.8931 H   0  0  0  0  0  0
  -19.7961  -30.7289   24.2193 H   0  0  0  0  0  0
  -17.5038  -31.6278   24.5146 H   0  0  0  0  0  0
  -15.5375  -30.2951   23.7721 H   0  0  0  0  0  0
  -15.8685  -28.0808   22.7117 H   0  0  0  0  0  0
  -24.5996  -30.6926   25.7743 H   0  0  0  0  0  0
  -24.8783  -32.2829   26.4733 H   0  0  0  0  0  0
  -25.7999  -30.8966   27.0242 H   0  0  0  0  0  0
  -26.3016  -29.6719   24.1193 H   0  0  0  0  0  0
  -27.4147  -29.7290   25.4695 H   0  0  0  0  0  0
  -27.8833  -30.4360   23.9418 H   0  0  0  0  0  0
  -27.2708  -33.3740   26.1892 H   0  0  0  0  0  0
  -28.3942  -32.6691   25.0348 H   0  0  0  0  0  0
  -28.0585  -31.8557   26.5567 H   0  0  0  0  0  0
  -28.2497  -38.0160   24.7623 H   0  0  0  0  0  0
  -28.1189  -36.2706   24.6103 H   0  0  0  0  0  0
  -27.2326  -37.1200   25.8861 H   0  0  0  0  0  0
  -20.9448  -29.8783   21.6865 H   0  0  0  0  0  0
  -26.0138  -38.2810   24.1506 H   0  0  0  0  0  0
  -33.1888  -19.1958   20.6207 H   0  0  0  0  0  0
  -32.4053  -16.9582   20.8490 H   0  0  0  0  0  0
  -28.3262  -18.4011   20.6749 H   0  0  0  0  0  0
  -29.8730  -22.7370   21.7182 H   0  0  0  0  0  0
  -25.8053  -23.9988   19.2498 H   0  0  0  0  0  0
  -25.6075  -22.3137   18.5532 H   0  0  0  0  0  0
  -28.2758  -20.9807   18.5636 H   0  0  0  0  0  0
  -27.1220  -20.4652   19.8093 H   0  0  0  0  0  0
  -32.8422  -21.3365   19.6619 H   0  0  0  0  0  0
  -32.2051  -21.9667   21.1817 H   0  0  0  0  0  0
  -31.3154  -22.1545   19.6487 H   0  0  0  0  0  0
  -28.5389  -25.0988   21.8913 H   0  0  0  0  0  0
  -26.9306  -24.9994   21.3003 H   0  0  0  0  0  0
  -28.9135  -15.7692   21.0066 H   0  0  0  0  0  0
  1 25  1  0  0  0
  1 30  2  0  0  0
  1 85  1  0  0  0
  2  3  1  0  0  0
  2 25  1  0  0  0
  2 86  1  0  0  0
  2 87  1  0  0  0
  3  4  1  0  0  0
  3 88  1  0  0  0
  3 89  1  0  0  0
  4  5  1  0  0  0
  4 90  1  0  0  0
  4 91  1  0  0  0
  5  6  1  0  0  0
  5 26  1  0  0  0
  5 92  1  0  0  0
  6 25  1  0  0  0
  6 93  1  0  0  0
  6 94  1  0  0  0
  7  8  2  0  0  0
  7 26  1  0  0  0
  7 29  1  0  0  0
  8  9  1  0  0  0
  8 22  1  0  0  0
  9 10  1  0  0  0
  9 27  2  0  0  0
 10 11  2  0  0  0
 10 15  1  0  0  0
 11 12  1  0  0  0
 11 95  1  0  0  0
 12 13  2  0  0  0
 12 96  1  0  0  0
 13 14  1  0  0  0
 13 31  1  0  0  0
 14 15  2  0  0  0
 14 97  1  0  0  0
 15 98  1  0  0  0
 16 17  2  0  0  0
 16 21  1  0  0  0
 16 31  1  0  0  0
 17 18  1  0  0  0
 17 99  1  0  0  0
 18 19  2  0  0  0
 18100  1  0  0  0
 19 20  1  0  0  0
 19 24  1  0  0  0
 20 21  2  0  0  0
 20101  1  0  0  0
 21 23  1  0  0  0
 22 28  1  0  0  0
 22 32  2  0  0  0
 26 27  1  0  0  0
 28102  1  0  0  0
 28103  1  0  0  0
 29104  1  0  0  0
 29105  1  0  0  0
 33 34  1  0  0  0
 33 66  1  0  0  0
 33 70  2  0  0  0
 34 36  1  0  0  0
 34 59  1  0  0  0
 34106  1  0  0  0
 35 44  2  0  0  0
 35 45  1  0  0  0
 35 68  1  0  0  0
 36 56  1  0  0  0
 36107  1  0  0  0
 37 39  1  0  0  0
 37 47  1  0  0  0
 37 66  1  0  0  0
 37108  1  0  0  0
 38 43  2  0  0  0
 38 46  1  0  0  0
 38 47  1  0  0  0
 39 64  1  0  0  0
 39 67  2  0  0  0
 40 52  1  0  0  0
 40 53  2  0  0  0
 40 58  1  0  0  0
 41109  1  0  0  0
 41110  1  0  0  0
 41111  1  0  0  0
 41 48  1  0  0  0
 42 43  1  0  0  0
 42 66  1  0  0  0
 42112  1  0  0  0
 42113  1  0  0  0
 43 44  1  0  0  0
 44114  1  0  0  0
 45 46  2  0  0  0
 45115  1  0  0  0
 46116  1  0  0  0
 47117  1  0  0  0
 47118  1  0  0  0
 48 56  1  0  0  0
 48 65  1  0  0  0
 48119  1  0  0  0
 49 50  1  0  0  0
 49 53  1  0  0  0
 49 64  1  0  0  0
 49120  1  0  0  0
 50 51  1  0  0  0
 50121  1  0  0  0
 50122  1  0  0  0
 51 52  1  0  0  0
 51123  1  0  0  0
 51124  1  0  0  0
 52125  1  0  0  0
 52126  1  0  0  0
 53 54  1  0  0  0
 54 55  2  0  0  0
 54127  1  0  0  0
 55 57  1  0  0  0
 55128  1  0  0  0
 56 69  2  0  0  0
 57 58  2  0  0  0
 57129  1  0  0  0
 58130  1  0  0  0
 59 60  1  0  0  0
 59 61  1  0  0  0
 59 62  1  0  0  0
 60131  1  0  0  0
 60132  1  0  0  0
 60133  1  0  0  0
 61134  1  0  0  0
 61135  1  0  0  0
 61136  1  0  0  0
 62137  1  0  0  0
 62138  1  0  0  0
 62139  1  0  0  0
 63 65  1  0  0  0
 63140  1  0  0  0
 63141  1  0  0  0
 63142  1  0  0  0
 64143  1  0  0  0
 65144  1  0  0  0
 68 83  1  0  0  0
 71 72  2  0  0  0
 71 74  1  0  0  0
 71145  1  0  0  0
 72 76  1  0  0  0
 72146  1  0  0  0
 73 75  1  0  0  0
 73 76  2  0  0  0
 73147  1  0  0  0
 74 75  2  0  0  0
 74 82  1  0  0  0
 75 84  1  0  0  0
 76 85  1  0  0  0
 77 78  2  0  0  0
 77 84  1  0  0  0
 77148  1  0  0  0
 78 79  1  0  0  0
 78 83  1  0  0  0
 79 80  2  0  0  0
 79 81  1  0  0  0
 80149  1  0  0  0
 80150  1  0  0  0
 81 84  1  0  0  0
 81151  1  0  0  0
 81152  1  0  0  0
 82153  1  0  0  0
 82154  1  0  0  0
 82155  1  0  0  0
 83156  1  0  0  0
 83157  1  0  0  0
 85158  1  0  0  0
M  ISO  4   1 100  68 101  83 101  85 100
M  END
> <chiral flag>
0

> <version>
0

> <s_m_source_file>
/data/baiqing/PycharmProjects/Reinvent-master-3.2/result/LINK_invent/BTK/process_docking_weight1_custom_product_contain_oxygen_bond_distance_aromatic_linkinvent_7_9_3/rearranged_h_0077.sdf

> <i_m_source_file_index>
90

> <r_mmod_Potential_Energy-OPLS-2005>
371.545806884766

> <r_mmod_Stretch_Energy-OPLS-2005>
150.784133911133

> <r_mmod_Bend_Energy-OPLS-2005>
272.432434082031

> <r_mmod_Torsional_Energy-OPLS-2005>
249.064544677734

> <r_mmod_Improper_Torsional_Energy-OPLS-2005>
6.61265182495117

> <r_mmod_Van_der_Waal_Energy-OPLS-2005>
146.848510742188

> <r_mmod_Electrostatic_Energy-OPLS-2005>
-353.684539794922

> <r_mmod_Solvation_Energy-OPLS-2005>
-207.627227783203

> <b_mmod_Minimization_Converged-OPLS-2005>
0

> <r_mmod_RMS_Derivative-OPLS-2005>
3.6216127872467

$$$$
90
                    3D
 Structure written by MMmdl.
154162  0  0  1  0            999 V2000
  -30.6745  -14.5461   20.5320 C   0  0  0  0  0  0
  -30.4282  -12.3430   19.4339 C   0  0  0  0  0  0
  -29.4987  -12.4983   18.2118 C   0  0  0  0  0  0
  -28.0213  -12.3483   18.6265 C   0  0  0  0  0  0
  -27.6551  -13.2105   19.8642 C   0  0  2  0  0  0
  -28.7000  -13.0409   20.9902 C   0  0  0  0  0  0
  -25.2567  -13.8161   20.5675 C   0  0  0  0  0  0
  -24.1828  -13.0435   20.9187 C   0  0  0  0  0  0
  -24.6389  -11.6903   20.8740 C   0  0  0  0  0  0
  -23.9056  -10.4290   21.0406 C   0  0  0  0  0  0
  -24.3611   -9.4205   21.9183 C   0  0  0  0  0  0
  -23.6287   -8.2241   22.0753 C   0  0  0  0  0  0
  -22.4269   -8.0280   21.3545 C   0  0  0  0  0  0
  -21.9902   -9.0252   20.4647 C   0  0  0  0  0  0
  -22.7229  -10.2132   20.3056 C   0  0  0  0  0  0
  -21.6852   -6.0733   22.5278 C   0  0  0  0  0  0
  -21.4015   -6.5638   23.8211 C   0  0  0  0  0  0
  -21.3659   -5.6791   24.9174 C   0  0  0  0  0  0
  -21.6043   -4.3053   24.7226 C   0  0  0  0  0  0
  -21.8819   -3.8145   23.4347 C   0  0  0  0  0  0
  -21.9192   -4.6961   22.3402 C   0  0  0  0  0  0
  -22.7852  -13.5234   21.1849 C   0  0  0  0  0  0
  -22.1660   -4.2146   21.0980 F   0  0  0  0  0  0
  -21.5628   -3.4538   25.7739 F   0  0  0  0  0  0
  -30.0213  -13.3536   20.4247 N   0  0  0  0  0  0
  -26.2995  -12.9334   20.3325 N   0  0  0  0  0  0
  -25.9315  -11.6494   20.5757 N   0  0  0  0  0  0
  -22.0489  -12.8233   22.0408 N   0  0  0  0  0  0
  -25.4274  -15.1882   20.4075 N   0  0  0  0  0  0
  -31.8411  -14.6889   20.1545 O   0  0  0  0  0  0
  -21.6636   -6.8876   21.4240 O   0  0  0  0  0  0
  -22.3540  -14.5540   20.6693 O   0  0  0  0  0  0
  -24.6203  -31.8649   23.2076 C   0  0  0  0  0  0
  -25.9076  -32.4805   23.8381 C   0  0  1  0  0  0
  -27.2281  -27.3819   20.0925 C   0  0  0  0  0  0
  -25.5915  -33.8604   24.2309 N   0  0  0  0  0  0
  -23.4098  -30.4906   21.5499 C   0  0  2  0  0  0
  -24.8536  -28.9547   20.1123 C   0  0  0  0  0  0
  -22.7438  -29.4650   22.4966 C   0  0  0  0  0  0
  -18.0279  -28.1378   22.8490 C   0  0  0  0  0  0
  -24.1489  -36.7308   23.2638 C   0  0  0  0  0  0
  -25.9460  -30.8134   21.3698 C   0  0  0  0  0  0
  -26.0199  -29.4463   20.7111 C   0  0  0  0  0  0
  -27.2079  -28.6682   20.6979 C   0  0  0  0  0  0
  -26.0305  -26.9190   19.4939 C   0  0  0  0  0  0
  -24.8564  -27.6922   19.5009 C   0  0  0  0  0  0
  -23.6198  -29.8284   20.1634 C   0  0  0  0  0  0
  -25.4111  -36.3101   24.0333 C   0  0  1  0  0  0
  -20.5873  -28.3674   23.1301 C   0  0  2  0  0  0
  -20.6770  -26.9404   22.5413 C   0  0  0  0  0  0
  -19.5747  -26.6383   21.5212 C   0  0  0  0  0  0
  -18.1926  -26.7923   22.1624 C   0  0  0  0  0  0
  -19.1529  -28.8842   23.2892 C   0  0  0  0  0  0
  -18.9456  -30.1447   23.8905 C   0  0  0  0  0  0
  -17.6458  -30.6584   24.0565 C   0  0  0  0  0  0
  -25.9043  -34.9467   23.5119 C   0  0  0  0  0  0
  -16.5348  -29.9085   23.6326 C   0  0  0  0  0  0
  -16.7267  -28.6501   23.0348 C   0  0  0  0  0  0
  -26.4483  -31.6596   25.0727 C   0  0  0  0  0  0
  -25.3737  -31.3718   26.1468 C   0  0  0  0  0  0
  -27.0317  -30.3029   24.6140 C   0  0  0  0  0  0
  -27.6052  -32.4322   25.7492 C   0  0  0  0  0  0
  -27.5581  -37.1809   24.8464 C   0  0  0  0  0  0
  -21.4159  -29.3039   22.3706 N   0  0  0  0  0  0
  -26.4295  -37.3788   23.9406 N   0  0  0  0  0  0
  -24.6773  -31.0712   22.0999 N   0  0  0  0  0  0
  -23.4190  -28.8186   23.3020 O   0  0  0  0  0  0
  -28.3781  -26.5951   20.1310 O   0  0  0  0  0  0
  -26.5606  -34.8924   22.4682 O   0  0  0  0  0  0
  -23.5384  -32.1424   23.7442 O   0  0  0  0  0  0
  -31.7983  -18.7537   21.7395 C   0  0  0  0  0  0
  -30.9992  -19.7539   21.1474 C   0  0  0  0  0  0
  -31.4472  -17.3926   21.6371 C   0  0  0  0  0  0
  -29.4611  -18.0258   20.3823 C   0  0  0  0  0  0
  -29.8137  -19.4113   20.4574 C   0  0  0  0  0  0
  -30.2788  -17.0024   20.9459 C   0  0  0  0  0  0
  -28.3552  -25.3112   19.5928 C   0  0  0  0  0  0
  -29.0075  -20.4685   19.7093 C   0  0  0  0  0  0
  -28.7381  -24.1595   20.2195 C   0  0  0  0  0  0
  -28.5851  -22.8775   19.4866 C   0  0  0  0  0  0
  -29.2861  -24.1594   21.6392 C   0  0  0  0  0  0
  -29.9004  -15.6133   20.8620 N   0  0  0  0  0  0
  -29.0872  -21.7708   20.1103 N   0  0  0  0  0  0
  -28.2980  -20.0800   18.7738 O   0  0  0  0  0  0
  -28.0329  -22.8232   18.3805 O   0  0  0  0  0  0
  -31.4714  -12.4509   19.1314 H   0  0  0  0  0  0
  -30.3425  -11.3422   19.8600 H   0  0  0  0  0  0
  -29.7491  -11.7581   17.4508 H   0  0  0  0  0  0
  -29.6541  -13.4751   17.7508 H   0  0  0  0  0  0
  -27.8475  -11.2944   18.8471 H   0  0  0  0  0  0
  -27.3674  -12.5935   17.7888 H   0  0  0  0  0  0
  -27.6817  -14.2491   19.5350 H   0  0  0  0  0  0
  -28.6919  -12.0178   21.3688 H   0  0  0  0  0  0
  -28.4615  -13.6752   21.8453 H   0  0  0  0  0  0
  -25.2757   -9.5679   22.4755 H   0  0  0  0  0  0
  -23.9997   -7.4631   22.7471 H   0  0  0  0  0  0
  -21.0833   -8.8771   19.8954 H   0  0  0  0  0  0
  -22.3688  -10.9670   19.6164 H   0  0  0  0  0  0
  -21.2009   -7.6146   23.9713 H   0  0  0  0  0  0
  -21.1480   -6.0522   25.9077 H   0  0  0  0  0  0
  -22.0599   -2.7607   23.2848 H   0  0  0  0  0  0
  -22.4103  -11.9900   22.4808 H   0  0  0  0  0  0
  -21.1108  -13.1265   22.2609 H   0  0  0  0  0  0
  -24.6565  -15.8396   20.5102 H   0  0  0  0  0  0
  -26.2705  -15.6278   20.0619 H   0  0  0  0  0  0
  -26.7146  -32.5493   23.1137 H   0  0  0  0  0  0
  -25.0064  -33.9761   25.0455 H   0  0  0  0  0  0
  -22.7008  -31.3095   21.4115 H   0  0  0  0  0  0
  -23.3747  -35.9645   23.3310 H   0  0  0  0  0  0
  -24.3581  -36.8915   22.2050 H   0  0  0  0  0  0
  -23.7249  -37.6518   23.6650 H   0  0  0  0  0  0
  -26.0701  -31.5804   20.6040 H   0  0  0  0  0  0
  -26.8297  -30.8606   21.9947 H   0  0  0  0  0  0
  -28.1062  -29.0419   21.1688 H   0  0  0  0  0  0
  -25.9664  -25.9473   19.0279 H   0  0  0  0  0  0
  -23.9581  -27.3044   19.0407 H   0  0  0  0  0  0
  -23.7345  -30.6062   19.4075 H   0  0  0  0  0  0
  -22.7410  -29.2550   19.8628 H   0  0  0  0  0  0
  -25.1289  -36.1962   25.0827 H   0  0  0  0  0  0
  -20.9964  -28.3243   24.1423 H   0  0  0  0  0  0
  -20.5673  -26.2282   23.3604 H   0  0  0  0  0  0
  -21.6641  -26.7443   22.1207 H   0  0  0  0  0  0
  -19.6910  -25.6296   21.1236 H   0  0  0  0  0  0
  -19.6685  -27.3198   20.6745 H   0  0  0  0  0  0
  -17.4195  -26.6669   21.4028 H   0  0  0  0  0  0
  -18.0329  -26.0064   22.9019 H   0  0  0  0  0  0
  -19.7933  -30.7259   24.2279 H   0  0  0  0  0  0
  -17.5014  -31.6266   24.5163 H   0  0  0  0  0  0
  -15.5350  -30.2991   23.7645 H   0  0  0  0  0  0
  -15.8666  -28.0824   22.7059 H   0  0  0  0  0  0
  -24.5904  -30.7072   25.7803 H   0  0  0  0  0  0
  -24.8937  -32.2880   26.4917 H   0  0  0  0  0  0
  -25.8079  -30.8881   27.0227 H   0  0  0  0  0  0
  -26.2876  -29.6790   24.1176 H   0  0  0  0  0  0
  -27.4049  -29.7270   25.4619 H   0  0  0  0  0  0
  -27.8730  -30.4332   23.9328 H   0  0  0  0  0  0
  -27.2664  -33.3610   26.2094 H   0  0  0  0  0  0
  -28.3847  -32.6902   25.0311 H   0  0  0  0  0  0
  -28.0737  -31.8433   26.5388 H   0  0  0  0  0  0
  -28.2604  -38.0101   24.7506 H   0  0  0  0  0  0
  -28.1071  -36.2633   24.6295 H   0  0  0  0  0  0
  -27.2299  -37.1467   25.8867 H   0  0  0  0  0  0
  -20.9322  -29.8771   21.6934 H   0  0  0  0  0  0
  -26.0181  -38.2867   24.1401 H   0  0  0  0  0  0
  -32.7013  -19.0320   22.2653 H   0  0  0  0  0  0
  -31.3261  -20.7826   21.2107 H   0  0  0  0  0  0
  -32.0848  -16.6512   22.0986 H   0  0  0  0  0  0
  -28.5652  -17.7440   19.8462 H   0  0  0  0  0  0
  -27.9886  -25.3199   18.5748 H   0  0  0  0  0  0
  -29.2973  -25.1664   22.0567 H   0  0  0  0  0  0
  -30.3095  -23.7836   21.6602 H   0  0  0  0  0  0
  -28.6686  -23.5408   22.2916 H   0  0  0  0  0  0
  -28.9196  -15.4078   20.9720 H   0  0  0  0  0  0
  -29.5903  -21.9406   20.9649 H   0  0  0  0  0  0
  1 25  1  0  0  0
  1 30  2  0  0  0
  1 82  1  0  0  0
  2  3  1  0  0  0
  2 25  1  0  0  0
  2 86  1  0  0  0
  2 87  1  0  0  0
  3  4  1  0  0  0
  3 88  1  0  0  0
  3 89  1  0  0  0
  4  5  1  0  0  0
  4 90  1  0  0  0
  4 91  1  0  0  0
  5  6  1  0  0  0
  5 26  1  0  0  0
  5 92  1  0  0  0
  6 25  1  0  0  0
  6 93  1  0  0  0
  6 94  1  0  0  0
  7  8  2  0  0  0
  7 26  1  0  0  0
  7 29  1  0  0  0
  8  9  1  0  0  0
  8 22  1  0  0  0
  9 10  1  0  0  0
  9 27  2  0  0  0
 10 11  2  0  0  0
 10 15  1  0  0  0
 11 12  1  0  0  0
 11 95  1  0  0  0
 12 13  2  0  0  0
 12 96  1  0  0  0
 13 14  1  0  0  0
 13 31  1  0  0  0
 14 15  2  0  0  0
 14 97  1  0  0  0
 15 98  1  0  0  0
 16 17  2  0  0  0
 16 21  1  0  0  0
 16 31  1  0  0  0
 17 18  1  0  0  0
 17 99  1  0  0  0
 18 19  2  0  0  0
 18100  1  0  0  0
 19 20  1  0  0  0
 19 24  1  0  0  0
 20 21  2  0  0  0
 20101  1  0  0  0
 21 23  1  0  0  0
 22 28  1  0  0  0
 22 32  2  0  0  0
 26 27  1  0  0  0
 28102  1  0  0  0
 28103  1  0  0  0
 29104  1  0  0  0
 29105  1  0  0  0
 33 34  1  0  0  0
 33 66  1  0  0  0
 33 70  2  0  0  0
 34 36  1  0  0  0
 34 59  1  0  0  0
 34106  1  0  0  0
 35 44  2  0  0  0
 35 45  1  0  0  0
 35 68  1  0  0  0
 36 56  1  0  0  0
 36107  1  0  0  0
 37 39  1  0  0  0
 37 47  1  0  0  0
 37 66  1  0  0  0
 37108  1  0  0  0
 38 43  2  0  0  0
 38 46  1  0  0  0
 38 47  1  0  0  0
 39 64  1  0  0  0
 39 67  2  0  0  0
 40 52  1  0  0  0
 40 53  2  0  0  0
 40 58  1  0  0  0
 41109  1  0  0  0
 41110  1  0  0  0
 41111  1  0  0  0
 41 48  1  0  0  0
 42 43  1  0  0  0
 42 66  1  0  0  0
 42112  1  0  0  0
 42113  1  0  0  0
 43 44  1  0  0  0
 44114  1  0  0  0
 45 46  2  0  0  0
 45115  1  0  0  0
 46116  1  0  0  0
 47117  1  0  0  0
 47118  1  0  0  0
 48 56  1  0  0  0
 48 65  1  0  0  0
 48119  1  0  0  0
 49 50  1  0  0  0
 49 53  1  0  0  0
 49 64  1  0  0  0
 49120  1  0  0  0
 50 51  1  0  0  0
 50121  1  0  0  0
 50122  1  0  0  0
 51 52  1  0  0  0
 51123  1  0  0  0
 51124  1  0  0  0
 52125  1  0  0  0
 52126  1  0  0  0
 53 54  1  0  0  0
 54 55  2  0  0  0
 54127  1  0  0  0
 55 57  1  0  0  0
 55128  1  0  0  0
 56 69  2  0  0  0
 57 58  2  0  0  0
 57129  1  0  0  0
 58130  1  0  0  0
 59 60  1  0  0  0
 59 61  1  0  0  0
 59 62  1  0  0  0
 60131  1  0  0  0
 60132  1  0  0  0
 60133  1  0  0  0
 61134  1  0  0  0
 61135  1  0  0  0
 61136  1  0  0  0
 62137  1  0  0  0
 62138  1  0  0  0
 62139  1  0  0  0
 63 65  1  0  0  0
 63140  1  0  0  0
 63141  1  0  0  0
 63142  1  0  0  0
 64143  1  0  0  0
 65144  1  0  0  0
 68 77  1  0  0  0
 71 72  2  0  0  0
 71 73  1  0  0  0
 71145  1  0  0  0
 72 75  1  0  0  0
 72146  1  0  0  0
 73 76  2  0  0  0
 73147  1  0  0  0
 74 75  2  0  0  0
 74 76  1  0  0  0
 74148  1  0  0  0
 75 78  1  0  0  0
 76 82  1  0  0  0
 77 79  2  0  0  0
 77149  1  0  0  0
 78 83  1  0  0  0
 78 84  2  0  0  0
 79 80  1  0  0  0
 79 81  1  0  0  0
 80 83  1  0  0  0
 80 85  2  0  0  0
 81150  1  0  0  0
 81151  1  0  0  0
 81152  1  0  0  0
 82153  1  0  0  0
 83154  1  0  0  0
M  ISO  4   1 100  68 101  77 101  82 100
M  END
> <chiral flag>
0

> <version>
0

> <s_m_source_file>
/data/baiqing/PycharmProjects/Reinvent-master-3.2/result/LINK_invent/BTK/process_docking_weight1_custom_product_contain_oxygen_bond_distance_aromatic_linkinvent_7_9_3/rearranged_h_0077.sdf

> <i_m_source_file_index>
91

> <r_mmod_Potential_Energy-OPLS-2005>
-146.576263427734

> <r_mmod_Stretch_Energy-OPLS-2005>
53.2053680419922

> <r_mmod_Bend_Energy-OPLS-2005>
105.847007751465

> <r_mmod_Torsional_Energy-OPLS-2005>
242.159622192383

> <r_mmod_Improper_Torsional_Energy-OPLS-2005>
5.61307764053345

> <r_mmod_Van_der_Waal_Energy-OPLS-2005>
168.70263671875

> <r_mmod_Electrostatic_Energy-OPLS-2005>
-492.484649658203

> <r_mmod_Solvation_Energy-OPLS-2005>
-255.336929321289

> <b_mmod_Minimization_Converged-OPLS-2005>
0

> <r_mmod_RMS_Derivative-OPLS-2005>
0.347001910209656

$$$$
91
                    3D
 Structure written by MMmdl.
157165  0  0  1  0            999 V2000
  -30.6638  -14.5124   20.5471 C   0  0  0  0  0  0
  -30.4274  -12.3186   19.4280 C   0  0  0  0  0  0
  -29.5013  -12.5067   18.2069 C   0  0  0  0  0  0
  -28.0194  -12.3638   18.6116 C   0  0  0  0  0  0
  -27.6588  -13.2059   19.8639 C   0  0  2  0  0  0
  -28.6981  -12.9904   20.9883 C   0  0  0  0  0  0
  -25.2570  -13.8159   20.5641 C   0  0  0  0  0  0
  -24.1829  -13.0439   20.9181 C   0  0  0  0  0  0
  -24.6380  -11.6909   20.8717 C   0  0  0  0  0  0
  -23.9038  -10.4292   21.0406 C   0  0  0  0  0  0
  -24.3598   -9.4208   21.9183 C   0  0  0  0  0  0
  -23.6278   -8.2240   22.0747 C   0  0  0  0  0  0
  -22.4261   -8.0274   21.3544 C   0  0  0  0  0  0
  -21.9892   -9.0251   20.4650 C   0  0  0  0  0  0
  -22.7212  -10.2134   20.3060 C   0  0  0  0  0  0
  -21.6846   -6.0723   22.5283 C   0  0  0  0  0  0
  -21.4006   -6.5627   23.8215 C   0  0  0  0  0  0
  -21.3658   -5.6784   24.9180 C   0  0  0  0  0  0
  -21.6047   -4.3050   24.7237 C   0  0  0  0  0  0
  -21.8819   -3.8139   23.4361 C   0  0  0  0  0  0
  -21.9190   -4.6950   22.3412 C   0  0  0  0  0  0
  -22.7847  -13.5238   21.1860 C   0  0  0  0  0  0
  -22.1663   -4.2138   21.0990 F   0  0  0  0  0  0
  -21.5630   -3.4538   25.7749 F   0  0  0  0  0  0
  -30.0306  -13.3081   20.4451 N   0  0  0  0  0  0
  -26.2996  -12.9332   20.3266 N   0  0  0  0  0  0
  -25.9299  -11.6492   20.5694 N   0  0  0  0  0  0
  -22.0472  -12.8247   22.0414 N   0  0  0  0  0  0
  -25.4298  -15.1871   20.4040 N   0  0  0  0  0  0
  -31.7961  -14.6974   20.0916 O   0  0  0  0  0  0
  -21.6633   -6.8871   21.4244 O   0  0  0  0  0  0
  -22.3541  -14.5539   20.6697 O   0  0  0  0  0  0
  -24.6186  -31.8643   23.2036 C   0  0  0  0  0  0
  -25.9056  -32.4814   23.8352 C   0  0  1  0  0  0
  -27.2349  -27.3838   20.1105 C   0  0  0  0  0  0
  -25.5889  -33.8610   24.2280 N   0  0  0  0  0  0
  -23.4099  -30.4857   21.5462 C   0  0  2  0  0  0
  -24.8567  -28.9426   20.1141 C   0  0  0  0  0  0
  -22.7437  -29.4644   22.4967 C   0  0  0  0  0  0
  -18.0271  -28.1386   22.8486 C   0  0  0  0  0  0
  -24.1487  -36.7306   23.2638 C   0  0  0  0  0  0
  -25.9425  -30.8148   21.3638 C   0  0  0  0  0  0
  -26.0192  -29.4446   20.7120 C   0  0  0  0  0  0
  -27.2096  -28.6751   20.7004 C   0  0  0  0  0  0
  -26.0540  -26.9137   19.4909 C   0  0  0  0  0  0
  -24.8726  -27.6803   19.4973 C   0  0  0  0  0  0
  -23.6203  -29.8135   20.1625 C   0  0  0  0  0  0
  -25.4114  -36.3106   24.0329 C   0  0  1  0  0  0
  -20.5864  -28.3682   23.1296 C   0  0  2  0  0  0
  -20.6759  -26.9409   22.5415 C   0  0  0  0  0  0
  -19.5738  -26.6381   21.5216 C   0  0  0  0  0  0
  -18.1917  -26.7925   22.1629 C   0  0  0  0  0  0
  -19.1521  -28.8848   23.2888 C   0  0  0  0  0  0
  -18.9454  -30.1452   23.8908 C   0  0  0  0  0  0
  -17.6459  -30.6591   24.0565 C   0  0  0  0  0  0
  -25.9044  -34.9478   23.5109 C   0  0  0  0  0  0
  -16.5348  -29.9098   23.6326 C   0  0  0  0  0  0
  -16.7263  -28.6511   23.0352 C   0  0  0  0  0  0
  -26.4463  -31.6618   25.0704 C   0  0  0  0  0  0
  -25.3694  -31.3763   26.1430 C   0  0  0  0  0  0
  -27.0298  -30.3053   24.6123 C   0  0  0  0  0  0
  -27.6034  -32.4348   25.7458 C   0  0  0  0  0  0
  -27.5589  -37.1800   24.8458 C   0  0  0  0  0  0
  -21.4157  -29.3040   22.3696 N   0  0  0  0  0  0
  -26.4297  -37.3796   23.9411 N   0  0  0  0  0  0
  -24.6756  -31.0703   22.0958 N   0  0  0  0  0  0
  -23.4185  -28.8186   23.3024 O   0  0  0  0  0  0
  -28.4003  -26.6286   20.1533 O   0  0  0  0  0  0
  -26.5625  -34.8934   22.4681 O   0  0  0  0  0  0
  -23.5367  -32.1417   23.7401 O   0  0  0  0  0  0
  -28.7791  -18.9600   20.0151 C   0  0  0  0  0  0
  -28.7776  -17.5838   20.3593 C   0  0  0  0  0  0
  -31.1474  -19.0586   20.5184 C   0  0  0  0  0  0
  -29.9745  -19.7143   20.0687 C   0  0  0  0  0  0
  -29.9659  -16.9137   20.7445 C   0  0  0  0  0  0
  -31.1506  -17.6837   20.8568 C   0  0  0  0  0  0
  -30.0662  -21.1253   19.5160 C   0  0  0  0  0  0
  -29.8081  -23.0531   20.7929 C   0  0  0  0  0  0
  -29.2282  -24.4668   21.0729 C   0  0  0  0  0  0
  -32.3721  -23.4173   20.8965 C   0  0  0  0  0  0
  -31.1289  -22.8093   21.5680 C   0  0  0  0  0  0
  -28.3316  -25.1747   20.0229 C   0  0  0  0  0  0
  -29.2719  -22.1572   20.0232 N   0  0  0  0  0  0
  -29.9013  -15.5111   21.0506 N   0  0  0  0  0  0
  -30.9261  -21.3215   18.6575 O   0  0  0  0  0  0
  -29.4897  -25.0757   22.1190 O   0  0  0  0  0  0
  -32.2983  -17.1229   21.3062 F   0  0  0  0  0  0
  -31.4737  -12.4190   19.1309 H   0  0  0  0  0  0
  -30.3288  -11.3090   19.8276 H   0  0  0  0  0  0
  -29.7489  -11.7811   17.4306 H   0  0  0  0  0  0
  -29.6690  -13.4924   17.7687 H   0  0  0  0  0  0
  -27.8274  -11.3079   18.8037 H   0  0  0  0  0  0
  -27.3766  -12.6401   17.7749 H   0  0  0  0  0  0
  -27.7007  -14.2518   19.5587 H   0  0  0  0  0  0
  -28.6767  -11.9517   21.3223 H   0  0  0  0  0  0
  -28.4493  -13.5842   21.8683 H   0  0  0  0  0  0
  -25.2747   -9.5684   22.4756 H   0  0  0  0  0  0
  -23.9989   -7.4623   22.7459 H   0  0  0  0  0  0
  -21.0820   -8.8769   19.8959 H   0  0  0  0  0  0
  -22.3666  -10.9669   19.6170 H   0  0  0  0  0  0
  -21.1989   -7.6139   23.9724 H   0  0  0  0  0  0
  -21.1482   -6.0513   25.9085 H   0  0  0  0  0  0
  -22.0599   -2.7596   23.2870 H   0  0  0  0  0  0
  -22.4075  -11.9913   22.4824 H   0  0  0  0  0  0
  -21.1090  -13.1294   22.2608 H   0  0  0  0  0  0
  -24.6644  -15.8422   20.5211 H   0  0  0  0  0  0
  -26.2646  -15.6159   20.0295 H   0  0  0  0  0  0
  -26.7125  -32.5505   23.1108 H   0  0  0  0  0  0
  -25.0012  -33.9765   25.0406 H   0  0  0  0  0  0
  -22.7007  -31.3030   21.4029 H   0  0  0  0  0  0
  -23.3758  -35.9629   23.3305 H   0  0  0  0  0  0
  -24.3577  -36.8924   22.2052 H   0  0  0  0  0  0
  -23.7231  -37.6504   23.6659 H   0  0  0  0  0  0
  -26.0594  -31.5762   20.5912 H   0  0  0  0  0  0
  -26.8292  -30.8704   21.9842 H   0  0  0  0  0  0
  -28.1076  -29.0591   21.1641 H   0  0  0  0  0  0
  -26.0250  -25.9559   18.9923 H   0  0  0  0  0  0
  -23.9808  -27.2937   19.0233 H   0  0  0  0  0  0
  -23.7310  -30.5851   19.3997 H   0  0  0  0  0  0
  -22.7434  -29.2338   19.8690 H   0  0  0  0  0  0
  -25.1294  -36.1966   25.0823 H   0  0  0  0  0  0
  -20.9959  -28.3266   24.1419 H   0  0  0  0  0  0
  -20.5654  -26.2302   23.3618 H   0  0  0  0  0  0
  -21.6631  -26.7438   22.1218 H   0  0  0  0  0  0
  -19.6897  -25.6290   21.1253 H   0  0  0  0  0  0
  -19.6674  -27.3186   20.6739 H   0  0  0  0  0  0
  -17.4180  -26.6660   21.4040 H   0  0  0  0  0  0
  -18.0330  -26.0076   22.9035 H   0  0  0  0  0  0
  -19.7935  -30.7254   24.2296 H   0  0  0  0  0  0
  -17.5020  -31.6274   24.5162 H   0  0  0  0  0  0
  -15.5353  -30.3009   23.7640 H   0  0  0  0  0  0
  -15.8659  -28.0833   22.7074 H   0  0  0  0  0  0
  -24.5808  -30.7204   25.7729 H   0  0  0  0  0  0
  -24.8951  -32.2946   26.4906 H   0  0  0  0  0  0
  -25.7978  -30.8857   27.0176 H   0  0  0  0  0  0
  -26.2860  -29.6818   24.1145 H   0  0  0  0  0  0
  -27.4022  -29.7299   25.4609 H   0  0  0  0  0  0
  -27.8713  -30.4367   23.9314 H   0  0  0  0  0  0
  -27.2658  -33.3649   26.2045 H   0  0  0  0  0  0
  -28.3821  -32.6920   25.0264 H   0  0  0  0  0  0
  -28.0728  -31.8471   26.5358 H   0  0  0  0  0  0
  -28.2594  -38.0112   24.7545 H   0  0  0  0  0  0
  -28.1101  -36.2648   24.6239 H   0  0  0  0  0  0
  -27.2308  -37.1390   25.8859 H   0  0  0  0  0  0
  -20.9334  -29.8761   21.6903 H   0  0  0  0  0  0
  -26.0188  -38.2871   24.1428 H   0  0  0  0  0  0
  -27.8639  -19.4217   19.6694 H   0  0  0  0  0  0
  -27.8501  -17.0353   20.2903 H   0  0  0  0  0  0
  -32.0748  -19.6091   20.5752 H   0  0  0  0  0  0
  -33.2645  -23.1991   21.4845 H   0  0  0  0  0  0
  -32.2937  -24.5016   20.8113 H   0  0  0  0  0  0
  -32.5352  -23.0135   19.8979 H   0  0  0  0  0  0
  -31.2935  -21.7461   21.7369 H   0  0  0  0  0  0
  -31.0402  -23.2035   22.5808 H   0  0  0  0  0  0
  -27.3218  -24.7954   20.1719 H   0  0  0  0  0  0
  -28.6525  -24.8860   19.0226 H   0  0  0  0  0  0
  -29.0059  -15.1883   21.3804 H   0  0  0  0  0  0
  1 25  1  0  0  0
  1 30  2  0  0  0
  1 84  1  0  0  0
  2  3  1  0  0  0
  2 25  1  0  0  0
  2 88  1  0  0  0
  2 89  1  0  0  0
  3  4  1  0  0  0
  3 90  1  0  0  0
  3 91  1  0  0  0
  4  5  1  0  0  0
  4 92  1  0  0  0
  4 93  1  0  0  0
  5  6  1  0  0  0
  5 26  1  0  0  0
  5 94  1  0  0  0
  6 25  1  0  0  0
  6 95  1  0  0  0
  6 96  1  0  0  0
  7  8  2  0  0  0
  7 26  1  0  0  0
  7 29  1  0  0  0
  8  9  1  0  0  0
  8 22  1  0  0  0
  9 10  1  0  0  0
  9 27  2  0  0  0
 10 11  2  0  0  0
 10 15  1  0  0  0
 11 12  1  0  0  0
 11 97  1  0  0  0
 12 13  2  0  0  0
 12 98  1  0  0  0
 13 14  1  0  0  0
 13 31  1  0  0  0
 14 15  2  0  0  0
 14 99  1  0  0  0
 15100  1  0  0  0
 16 17  2  0  0  0
 16 21  1  0  0  0
 16 31  1  0  0  0
 17 18  1  0  0  0
 17101  1  0  0  0
 18 19  2  0  0  0
 18102  1  0  0  0
 19 20  1  0  0  0
 19 24  1  0  0  0
 20 21  2  0  0  0
 20103  1  0  0  0
 21 23  1  0  0  0
 22 28  1  0  0  0
 22 32  2  0  0  0
 26 27  1  0  0  0
 28104  1  0  0  0
 28105  1  0  0  0
 29106  1  0  0  0
 29107  1  0  0  0
 33 34  1  0  0  0
 33 66  1  0  0  0
 33 70  2  0  0  0
 34 36  1  0  0  0
 34 59  1  0  0  0
 34108  1  0  0  0
 35 44  2  0  0  0
 35 45  1  0  0  0
 35 68  1  0  0  0
 36 56  1  0  0  0
 36109  1  0  0  0
 37 39  1  0  0  0
 37 47  1  0  0  0
 37 66  1  0  0  0
 37110  1  0  0  0
 38 43  2  0  0  0
 38 46  1  0  0  0
 38 47  1  0  0  0
 39 64  1  0  0  0
 39 67  2  0  0  0
 40 52  1  0  0  0
 40 53  2  0  0  0
 40 58  1  0  0  0
 41111  1  0  0  0
 41112  1  0  0  0
 41113  1  0  0  0
 41 48  1  0  0  0
 42 43  1  0  0  0
 42 66  1  0  0  0
 42114  1  0  0  0
 42115  1  0  0  0
 43 44  1  0  0  0
 44116  1  0  0  0
 45 46  2  0  0  0
 45117  1  0  0  0
 46118  1  0  0  0
 47119  1  0  0  0
 47120  1  0  0  0
 48 56  1  0  0  0
 48 65  1  0  0  0
 48121  1  0  0  0
 49 50  1  0  0  0
 49 53  1  0  0  0
 49 64  1  0  0  0
 49122  1  0  0  0
 50 51  1  0  0  0
 50123  1  0  0  0
 50124  1  0  0  0
 51 52  1  0  0  0
 51125  1  0  0  0
 51126  1  0  0  0
 52127  1  0  0  0
 52128  1  0  0  0
 53 54  1  0  0  0
 54 55  2  0  0  0
 54129  1  0  0  0
 55 57  1  0  0  0
 55130  1  0  0  0
 56 69  2  0  0  0
 57 58  2  0  0  0
 57131  1  0  0  0
 58132  1  0  0  0
 59 60  1  0  0  0
 59 61  1  0  0  0
 59 62  1  0  0  0
 60133  1  0  0  0
 60134  1  0  0  0
 60135  1  0  0  0
 61136  1  0  0  0
 61137  1  0  0  0
 61138  1  0  0  0
 62139  1  0  0  0
 62140  1  0  0  0
 62141  1  0  0  0
 63 65  1  0  0  0
 63142  1  0  0  0
 63143  1  0  0  0
 63144  1  0  0  0
 64145  1  0  0  0
 65146  1  0  0  0
 68 82  1  0  0  0
 71 72  2  0  0  0
 71 74  1  0  0  0
 71147  1  0  0  0
 72 75  1  0  0  0
 72148  1  0  0  0
 73 74  2  0  0  0
 73 76  1  0  0  0
 73149  1  0  0  0
 74 77  1  0  0  0
 75 76  2  0  0  0
 75 84  1  0  0  0
 76 87  1  0  0  0
 77 83  1  0  0  0
 77 85  2  0  0  0
 78 79  1  0  0  0
 78 81  1  0  0  0
 78 83  2  0  0  0
 79 82  1  0  0  0
 79 86  2  0  0  0
 80 81  1  0  0  0
 80150  1  0  0  0
 80151  1  0  0  0
 80152  1  0  0  0
 81153  1  0  0  0
 81154  1  0  0  0
 82155  1  0  0  0
 82156  1  0  0  0
 84157  1  0  0  0
M  ISO  4   1 100  68 101  82 101  84 100
M  END
> <chiral flag>
0

> <version>
0

> <s_m_source_file>
/data/baiqing/PycharmProjects/Reinvent-master-3.2/result/LINK_invent/BTK/process_docking_weight1_custom_product_contain_oxygen_bond_distance_aromatic_linkinvent_7_9_3/rearranged_h_0077.sdf

> <i_m_source_file_index>
92

> <r_mmod_Potential_Energy-OPLS-2005>
31.7186393737793

> <r_mmod_Stretch_Energy-OPLS-2005>
54.6050109863281

> <r_mmod_Bend_Energy-OPLS-2005>
115.995338439941

> <r_mmod_Torsional_Energy-OPLS-2005>
272.848571777344

> <r_mmod_Improper_Torsional_Energy-OPLS-2005>
6.21751260757446

> <r_mmod_Van_der_Waal_Energy-OPLS-2005>
158.63655090332

> <r_mmod_Electrostatic_Energy-OPLS-2005>
-369.902191162109

> <r_mmod_Solvation_Energy-OPLS-2005>
-226.703247070312

> <b_mmod_Minimization_Converged-OPLS-2005>
0

> <r_mmod_RMS_Derivative-OPLS-2005>
1.96155309677124

$$$$
92
                    3D
 Structure written by MMmdl.
159168  0  0  1  0            999 V2000
  -30.6035  -14.7303   20.4381 C   0  0  0  0  0  0
  -30.4435  -12.4478   19.4685 C   0  0  0  0  0  0
  -29.5267  -12.5217   18.2322 C   0  0  0  0  0  0
  -28.0523  -12.3337   18.6437 C   0  0  0  0  0  0
  -27.6471  -13.2267   19.8452 C   0  0  2  0  0  0
  -28.6912  -13.1524   20.9782 C   0  0  0  0  0  0
  -25.2491  -13.8211   20.5546 C   0  0  0  0  0  0
  -24.1794  -13.0495   20.9182 C   0  0  0  0  0  0
  -24.6358  -11.6953   20.8698 C   0  0  0  0  0  0
  -23.9009  -10.4353   21.0405 C   0  0  0  0  0  0
  -24.3545   -9.4273   21.9201 C   0  0  0  0  0  0
  -23.6238   -8.2326   22.0801 C   0  0  0  0  0  0
  -22.4217   -8.0324   21.3624 C   0  0  0  0  0  0
  -21.9846   -9.0310   20.4721 C   0  0  0  0  0  0
  -22.7176  -10.2165   20.3091 C   0  0  0  0  0  0
  -21.6902   -6.0770   22.5263 C   0  0  0  0  0  0
  -21.4081   -6.5642   23.8191 C   0  0  0  0  0  0
  -21.3631   -5.6776   24.9137 C   0  0  0  0  0  0
  -21.6005   -4.3045   24.7172 C   0  0  0  0  0  0
  -21.8811   -3.8185   23.4292 C   0  0  0  0  0  0
  -21.9207   -4.7016   22.3379 C   0  0  0  0  0  0
  -22.7802  -13.5308   21.1801 C   0  0  0  0  0  0
  -22.1662   -4.2173   21.0948 F   0  0  0  0  0  0
  -21.5563   -3.4513   25.7704 F   0  0  0  0  0  0
  -30.0071  -13.4942   20.4115 N   0  0  0  0  0  0
  -26.2940  -12.9404   20.3149 N   0  0  0  0  0  0
  -25.9257  -11.6570   20.5627 N   0  0  0  0  0  0
  -22.0313  -12.8435   22.0343 N   0  0  0  0  0  0
  -25.4156  -15.1899   20.3675 N   0  0  0  0  0  0
  -31.7877  -14.8619   20.1007 O   0  0  0  0  0  0
  -21.6658   -6.8887   21.4231 O   0  0  0  0  0  0
  -22.3527  -14.5590   20.6580 O   0  0  0  0  0  0
  -24.6243  -31.8617   23.2000 C   0  0  0  0  0  0
  -25.9106  -32.4777   23.8321 C   0  0  1  0  0  0
  -27.2317  -27.3516   20.1046 C   0  0  0  0  0  0
  -25.5834  -33.8558   24.2231 N   0  0  0  0  0  0
  -23.4167  -30.4830   21.5452 C   0  0  2  0  0  0
  -24.8701  -28.9484   20.1098 C   0  0  0  0  0  0
  -22.7443  -29.4626   22.4928 C   0  0  0  0  0  0
  -18.0259  -28.1373   22.8508 C   0  0  0  0  0  0
  -24.1489  -36.7311   23.2642 C   0  0  0  0  0  0
  -25.9563  -30.8109   21.3624 C   0  0  0  0  0  0
  -26.0394  -29.4411   20.7037 C   0  0  0  0  0  0
  -27.2290  -28.6564   20.6870 C   0  0  0  0  0  0
  -26.0419  -26.9069   19.4938 C   0  0  0  0  0  0
  -24.8712  -27.6853   19.4949 C   0  0  0  0  0  0
  -23.6306  -29.8143   20.1618 C   0  0  0  0  0  0
  -25.4099  -36.3062   24.0327 C   0  0  1  0  0  0
  -20.5863  -28.3695   23.1287 C   0  0  2  0  0  0
  -20.6748  -26.9406   22.5416 C   0  0  0  0  0  0
  -19.5744  -26.6388   21.5194 C   0  0  0  0  0  0
  -18.1911  -26.7929   22.1594 C   0  0  0  0  0  0
  -19.1517  -28.8845   23.2904 C   0  0  0  0  0  0
  -18.9455  -30.1430   23.8930 C   0  0  0  0  0  0
  -17.6464  -30.6602   24.0566 C   0  0  0  0  0  0
  -25.9002  -34.9434   23.5085 C   0  0  0  0  0  0
  -16.5349  -29.9090   23.6320 C   0  0  0  0  0  0
  -16.7250  -28.6488   23.0389 C   0  0  0  0  0  0
  -26.4482  -31.6585   25.0696 C   0  0  0  0  0  0
  -25.3707  -31.3778   26.1426 C   0  0  0  0  0  0
  -27.0287  -30.2968   24.6188 C   0  0  0  0  0  0
  -27.6049  -32.4307   25.7466 C   0  0  0  0  0  0
  -27.5568  -37.1788   24.8440 C   0  0  0  0  0  0
  -21.4150  -29.3047   22.3670 N   0  0  0  0  0  0
  -26.4260  -37.3763   23.9398 N   0  0  0  0  0  0
  -24.6852  -31.0634   22.0936 N   0  0  0  0  0  0
  -23.4178  -28.8137   23.2989 O   0  0  0  0  0  0
  -28.3350  -26.4918   20.1104 O   0  0  0  0  0  0
  -26.5640  -34.8926   22.4696 O   0  0  0  0  0  0
  -23.5421  -32.1377   23.7344 O   0  0  0  0  0  0
  -30.6952  -19.3829   19.4518 C   0  0  0  0  0  0
  -30.7623  -17.9595   19.6476 C   0  0  0  0  0  0
  -28.8841  -19.5171   21.0070 C   0  0  0  0  0  0
  -28.9073  -18.1037   21.1651 C   0  0  0  0  0  0
  -29.7414  -20.2085   20.1216 C   0  0  0  0  0  0
  -29.8621  -17.2645   20.5097 C   0  0  0  0  0  0
  -29.1651  -23.6878   18.8627 C   0  0  0  0  0  0
  -28.8215  -23.9167   20.1364 C   0  0  0  0  0  0
  -29.6181  -22.3055   18.6961 C   0  0  0  0  0  0
  -29.0886  -22.6288   20.9268 C   0  0  0  0  0  0
  -27.8011  -17.5315   22.0315 C   0  0  0  0  0  0
  -28.4568  -25.3830   22.2454 C   0  0  0  0  0  0
  -28.1180  -25.1800   20.7563 C   0  0  1  0  0  0
  -29.5782  -21.6622   19.9009 N   0  0  0  0  0  0
  -29.7773  -15.7953   20.6856 N   0  0  0  0  0  0
  -29.9542  -21.7999   17.6196 O   0  0  0  0  0  0
  -31.4868  -12.5724   19.1743 H   0  0  0  0  0  0
  -30.3725  -11.4688   19.9343 H   0  0  0  0  0  0
  -29.8102  -11.7769   17.4851 H   0  0  0  0  0  0
  -29.6531  -13.4898   17.7468 H   0  0  0  0  0  0
  -27.9026  -11.2840   18.8998 H   0  0  0  0  0  0
  -27.4065  -12.5380   17.7927 H   0  0  0  0  0  0
  -27.6420  -14.2454   19.4629 H   0  0  0  0  0  0
  -28.7044  -12.1578   21.4222 H   0  0  0  0  0  0
  -28.4172  -13.8338   21.7846 H   0  0  0  0  0  0
  -25.2654   -9.5810   22.4791 H   0  0  0  0  0  0
  -23.9968   -7.4725   22.7533 H   0  0  0  0  0  0
  -21.0792   -8.8847   19.9006 H   0  0  0  0  0  0
  -22.3641  -10.9724   19.6201 H   0  0  0  0  0  0
  -21.2153   -7.6157   23.9691 H   0  0  0  0  0  0
  -21.1413   -6.0514   25.9006 H   0  0  0  0  0  0
  -22.0612   -2.7651   23.2800 H   0  0  0  0  0  0
  -22.3785  -12.0144   22.4954 H   0  0  0  0  0  0
  -21.0932  -13.1675   22.2351 H   0  0  0  0  0  0
  -24.6217  -15.8203   20.3674 H   0  0  0  0  0  0
  -26.1822  -15.5493   19.8168 H   0  0  0  0  0  0
  -26.7168  -32.5446   23.1079 H   0  0  0  0  0  0
  -24.9920  -33.9711   25.0318 H   0  0  0  0  0  0
  -22.7107  -31.3035   21.3956 H   0  0  0  0  0  0
  -23.3708  -35.9670   23.3334 H   0  0  0  0  0  0
  -24.3589  -36.8925   22.2044 H   0  0  0  0  0  0
  -23.7301  -37.6546   23.6666 H   0  0  0  0  0  0
  -26.0764  -31.5809   20.5985 H   0  0  0  0  0  0
  -26.8324  -30.8550   21.9952 H   0  0  0  0  0  0
  -28.1286  -29.0376   21.1477 H   0  0  0  0  0  0
  -26.0137  -25.9355   19.0209 H   0  0  0  0  0  0
  -23.9749  -27.2992   19.0289 H   0  0  0  0  0  0
  -23.7337  -30.5815   19.3930 H   0  0  0  0  0  0
  -22.7568  -29.2279   19.8734 H   0  0  0  0  0  0
  -25.1276  -36.1895   25.0804 H   0  0  0  0  0  0
  -20.9980  -28.3270   24.1408 H   0  0  0  0  0  0
  -20.5630  -26.2282   23.3630 H   0  0  0  0  0  0
  -21.6634  -26.7424   22.1238 H   0  0  0  0  0  0
  -19.6889  -25.6297   21.1284 H   0  0  0  0  0  0
  -19.6671  -27.3174   20.6724 H   0  0  0  0  0  0
  -17.4167  -26.6746   21.3979 H   0  0  0  0  0  0
  -18.0259  -26.0033   22.8961 H   0  0  0  0  0  0
  -19.7901  -30.7220   24.2354 H   0  0  0  0  0  0
  -17.5020  -31.6305   24.5138 H   0  0  0  0  0  0
  -15.5379  -30.3030   23.7607 H   0  0  0  0  0  0
  -15.8662  -28.0814   22.7160 H   0  0  0  0  0  0
  -24.5811  -30.7221   25.7749 H   0  0  0  0  0  0
  -24.8985  -32.2985   26.4858 H   0  0  0  0  0  0
  -25.8004  -30.8919   27.0199 H   0  0  0  0  0  0
  -26.2838  -29.6750   24.1230 H   0  0  0  0  0  0
  -27.3919  -29.7226   25.4722 H   0  0  0  0  0  0
  -27.8742  -30.4154   23.9419 H   0  0  0  0  0  0
  -27.2625  -33.3565   26.2110 H   0  0  0  0  0  0
  -28.3830  -32.6971   25.0292 H   0  0  0  0  0  0
  -28.0775  -31.8413   26.5348 H   0  0  0  0  0  0
  -28.2597  -38.0085   24.7459 H   0  0  0  0  0  0
  -28.1063  -36.2612   24.6249 H   0  0  0  0  0  0
  -27.2311  -37.1434   25.8860 H   0  0  0  0  0  0
  -20.9292  -29.8788   21.6926 H   0  0  0  0  0  0
  -26.0158  -38.2836   24.1387 H   0  0  0  0  0  0
  -31.3915  -19.8360   18.7610 H   0  0  0  0  0  0
  -31.4969  -17.4043   19.0866 H   0  0  0  0  0  0
  -28.1287  -20.0728   21.5416 H   0  0  0  0  0  0
  -29.0271  -24.3716   18.0343 H   0  0  0  0  0  0
  -28.1766  -22.2960   21.4229 H   0  0  0  0  0  0
  -29.8472  -22.7949   21.6971 H   0  0  0  0  0  0
  -26.8693  -17.5501   21.4663 H   0  0  0  0  0  0
  -27.6615  -18.1582   22.9140 H   0  0  0  0  0  0
  -27.9761  -16.5151   22.3685 H   0  0  0  0  0  0
  -28.2215  -24.5046   22.8468 H   0  0  0  0  0  0
  -27.8755  -26.2076   22.6671 H   0  0  0  0  0  0
  -29.5114  -25.6159   22.3861 H   0  0  0  0  0  0
  -27.0596  -24.9176   20.7341 H   0  0  0  0  0  0
  -28.8732  -15.4902   21.0119 H   0  0  0  0  0  0
  1 25  1  0  0  0
  1 30  2  0  0  0
  1 85  1  0  0  0
  2  3  1  0  0  0
  2 25  1  0  0  0
  2 87  1  0  0  0
  2 88  1  0  0  0
  3  4  1  0  0  0
  3 89  1  0  0  0
  3 90  1  0  0  0
  4  5  1  0  0  0
  4 91  1  0  0  0
  4 92  1  0  0  0
  5  6  1  0  0  0
  5 26  1  0  0  0
  5 93  1  0  0  0
  6 25  1  0  0  0
  6 94  1  0  0  0
  6 95  1  0  0  0
  7  8  2  0  0  0
  7 26  1  0  0  0
  7 29  1  0  0  0
  8  9  1  0  0  0
  8 22  1  0  0  0
  9 10  1  0  0  0
  9 27  2  0  0  0
 10 11  2  0  0  0
 10 15  1  0  0  0
 11 12  1  0  0  0
 11 96  1  0  0  0
 12 13  2  0  0  0
 12 97  1  0  0  0
 13 14  1  0  0  0
 13 31  1  0  0  0
 14 15  2  0  0  0
 14 98  1  0  0  0
 15 99  1  0  0  0
 16 17  2  0  0  0
 16 21  1  0  0  0
 16 31  1  0  0  0
 17 18  1  0  0  0
 17100  1  0  0  0
 18 19  2  0  0  0
 18101  1  0  0  0
 19 20  1  0  0  0
 19 24  1  0  0  0
 20 21  2  0  0  0
 20102  1  0  0  0
 21 23  1  0  0  0
 22 28  1  0  0  0
 22 32  2  0  0  0
 26 27  1  0  0  0
 28103  1  0  0  0
 28104  1  0  0  0
 29105  1  0  0  0
 29106  1  0  0  0
 33 34  1  0  0  0
 33 66  1  0  0  0
 33 70  2  0  0  0
 34 36  1  0  0  0
 34 59  1  0  0  0
 34107  1  0  0  0
 35 44  2  0  0  0
 35 45  1  0  0  0
 35 68  1  0  0  0
 36 56  1  0  0  0
 36108  1  0  0  0
 37 39  1  0  0  0
 37 47  1  0  0  0
 37 66  1  0  0  0
 37109  1  0  0  0
 38 43  2  0  0  0
 38 46  1  0  0  0
 38 47  1  0  0  0
 39 64  1  0  0  0
 39 67  2  0  0  0
 40 52  1  0  0  0
 40 53  2  0  0  0
 40 58  1  0  0  0
 41110  1  0  0  0
 41111  1  0  0  0
 41112  1  0  0  0
 41 48  1  0  0  0
 42 43  1  0  0  0
 42 66  1  0  0  0
 42113  1  0  0  0
 42114  1  0  0  0
 43 44  1  0  0  0
 44115  1  0  0  0
 45 46  2  0  0  0
 45116  1  0  0  0
 46117  1  0  0  0
 47118  1  0  0  0
 47119  1  0  0  0
 48 56  1  0  0  0
 48 65  1  0  0  0
 48120  1  0  0  0
 49 50  1  0  0  0
 49 53  1  0  0  0
 49 64  1  0  0  0
 49121  1  0  0  0
 50 51  1  0  0  0
 50122  1  0  0  0
 50123  1  0  0  0
 51 52  1  0  0  0
 51124  1  0  0  0
 51125  1  0  0  0
 52126  1  0  0  0
 52127  1  0  0  0
 53 54  1  0  0  0
 54 55  2  0  0  0
 54128  1  0  0  0
 55 57  1  0  0  0
 55129  1  0  0  0
 56 69  2  0  0  0
 57 58  2  0  0  0
 57130  1  0  0  0
 58131  1  0  0  0
 59 60  1  0  0  0
 59 61  1  0  0  0
 59 62  1  0  0  0
 60132  1  0  0  0
 60133  1  0  0  0
 60134  1  0  0  0
 61135  1  0  0  0
 61136  1  0  0  0
 61137  1  0  0  0
 62138  1  0  0  0
 62139  1  0  0  0
 62140  1  0  0  0
 63 65  1  0  0  0
 63141  1  0  0  0
 63142  1  0  0  0
 63143  1  0  0  0
 64144  1  0  0  0
 65145  1  0  0  0
 68 83  1  0  0  0
 71 72  2  0  0  0
 71 75  1  0  0  0
 71146  1  0  0  0
 72 76  1  0  0  0
 72147  1  0  0  0
 73 74  1  0  0  0
 73 75  2  0  0  0
 73148  1  0  0  0
 74 76  2  0  0  0
 74 81  1  0  0  0
 75 84  1  0  0  0
 76 85  1  0  0  0
 77 78  2  0  0  0
 77 79  1  0  0  0
 77149  1  0  0  0
 78 80  1  0  0  0
 78 83  1  0  0  0
 79 84  1  0  0  0
 79 86  2  0  0  0
 80 84  1  0  0  0
 80150  1  0  0  0
 80151  1  0  0  0
 81152  1  0  0  0
 81153  1  0  0  0
 81154  1  0  0  0
 82155  1  0  0  0
 82156  1  0  0  0
 82157  1  0  0  0
 82 83  1  0  0  0
 83158  1  0  0  0
 85159  1  0  0  0
M  ISO  4   1 100  68 101  83 101  85 100
M  END
> <chiral flag>
0

> <version>
0

> <s_m_source_file>
/data/baiqing/PycharmProjects/Reinvent-master-3.2/result/LINK_invent/BTK/process_docking_weight1_custom_product_contain_oxygen_bond_distance_aromatic_linkinvent_7_9_3/rearranged_h_0077.sdf

> <i_m_source_file_index>
93

> <r_mmod_Potential_Energy-OPLS-2005>
139.633605957031

> <r_mmod_Stretch_Energy-OPLS-2005>
83.4102249145508

> <r_mmod_Bend_Energy-OPLS-2005>
187.805572509766

> <r_mmod_Torsional_Energy-OPLS-2005>
282.579040527344

> <r_mmod_Improper_Torsional_Energy-OPLS-2005>
7.1902437210083

> <r_mmod_Van_der_Waal_Energy-OPLS-2005>
136.229049682617

> <r_mmod_Electrostatic_Energy-OPLS-2005>
-405.932037353516

> <r_mmod_Solvation_Energy-OPLS-2005>
-215.724090576172

> <b_mmod_Minimization_Converged-OPLS-2005>
0

> <r_mmod_RMS_Derivative-OPLS-2005>
9.22537422180176

$$$$
93
                    3D
 Structure written by MMmdl.
180190  0  0  1  0            999 V2000
  -30.7108  -14.5386   20.5009 C   0  0  0  0  0  0
  -30.4105  -12.3311   19.4386 C   0  0  0  0  0  0
  -29.4912  -12.4929   18.2116 C   0  0  0  0  0  0
  -28.0147  -12.3469   18.6268 C   0  0  0  0  0  0
  -27.6486  -13.2164   19.8594 C   0  0  2  0  0  0
  -28.6973  -13.0806   20.9869 C   0  0  0  0  0  0
  -25.2558  -13.8143   20.5766 C   0  0  0  0  0  0
  -24.1823  -13.0421   20.9228 C   0  0  0  0  0  0
  -24.6386  -11.6892   20.8751 C   0  0  0  0  0  0
  -23.9052  -10.4283   21.0406 C   0  0  0  0  0  0
  -24.3601   -9.4199   21.9188 C   0  0  0  0  0  0
  -23.6275   -8.2235   22.0758 C   0  0  0  0  0  0
  -22.4258   -8.0278   21.3545 C   0  0  0  0  0  0
  -21.9894   -9.0254   20.4644 C   0  0  0  0  0  0
  -22.7221  -10.2135   20.3056 C   0  0  0  0  0  0
  -21.6844   -6.0732   22.5278 C   0  0  0  0  0  0
  -21.4013   -6.5637   23.8213 C   0  0  0  0  0  0
  -21.3659   -5.6793   24.9176 C   0  0  0  0  0  0
  -21.6044   -4.3056   24.7223 C   0  0  0  0  0  0
  -21.8820   -3.8145   23.4346 C   0  0  0  0  0  0
  -21.9189   -4.6962   22.3400 C   0  0  0  0  0  0
  -22.7854  -13.5238   21.1872 C   0  0  0  0  0  0
  -22.1659   -4.2147   21.0979 F   0  0  0  0  0  0
  -21.5629   -3.4539   25.7735 F   0  0  0  0  0  0
  -30.0180  -13.3665   20.4091 N   0  0  0  0  0  0
  -26.2973  -12.9337   20.3331 N   0  0  0  0  0  0
  -25.9309  -11.6485   20.5746 N   0  0  0  0  0  0
  -22.0482  -12.8227   22.0407 N   0  0  0  0  0  0
  -25.4256  -15.1857   20.4305 N   0  0  0  0  0  0
  -31.9002  -14.5953   20.1821 O   0  0  0  0  0  0
  -21.6626   -6.8871   21.4237 O   0  0  0  0  0  0
  -22.3560  -14.5555   20.6717 O   0  0  0  0  0  0
  -24.6191  -31.8665   23.2101 C   0  0  0  0  0  0
  -25.9076  -32.4811   23.8398 C   0  0  1  0  0  0
  -27.2199  -27.3849   20.1064 C   0  0  0  0  0  0
  -25.5922  -33.8611   24.2326 N   0  0  0  0  0  0
  -23.4090  -30.4938   21.5514 C   0  0  2  0  0  0
  -24.8540  -28.9677   20.1063 C   0  0  0  0  0  0
  -22.7449  -29.4647   22.4960 C   0  0  0  0  0  0
  -18.0285  -28.1388   22.8494 C   0  0  0  0  0  0
  -24.1478  -36.7302   23.2632 C   0  0  0  0  0  0
  -25.9453  -30.8180   21.3733 C   0  0  0  0  0  0
  -26.0188  -29.4534   20.7132 C   0  0  0  0  0  0
  -27.2037  -28.6709   20.7101 C   0  0  0  0  0  0
  -26.0384  -26.9518   19.4544 C   0  0  0  0  0  0
  -24.8631  -27.7197   19.4691 C   0  0  0  0  0  0
  -23.6181  -29.8369   20.1629 C   0  0  0  0  0  0
  -25.4100  -36.3104   24.0337 C   0  0  1  0  0  0
  -20.5886  -28.3671   23.1318 C   0  0  2  0  0  0
  -20.6769  -26.9395   22.5441 C   0  0  0  0  0  0
  -19.5754  -26.6385   21.5229 C   0  0  0  0  0  0
  -18.1925  -26.7941   22.1618 C   0  0  0  0  0  0
  -19.1539  -28.8848   23.2904 C   0  0  0  0  0  0
  -18.9456  -30.1454   23.8912 C   0  0  0  0  0  0
  -17.6454  -30.6587   24.0571 C   0  0  0  0  0  0
  -25.9045  -34.9473   23.5131 C   0  0  0  0  0  0
  -16.5346  -29.9086   23.6331 C   0  0  0  0  0  0
  -16.7270  -28.6508   23.0345 C   0  0  0  0  0  0
  -26.4484  -31.6597   25.0738 C   0  0  0  0  0  0
  -25.3732  -31.3718   26.1472 C   0  0  0  0  0  0
  -27.0318  -30.3031   24.6154 C   0  0  0  0  0  0
  -27.6063  -32.4310   25.7497 C   0  0  0  0  0  0
  -27.5607  -37.1773   24.8443 C   0  0  0  0  0  0
  -21.4169  -29.3029   22.3710 N   0  0  0  0  0  0
  -26.4278  -37.3804   23.9448 N   0  0  0  0  0  0
  -24.6762  -31.0739   22.1025 N   0  0  0  0  0  0
  -23.4206  -28.8183   23.3010 O   0  0  0  0  0  0
  -28.3500  -26.5718   20.1955 O   0  0  0  0  0  0
  -26.5612  -34.8927   22.4696 O   0  0  0  0  0  0
  -23.5373  -32.1433   23.7467 O   0  0  0  0  0  0
  -29.7069  -19.4211   20.5897 C   0  0  0  0  0  0
  -28.3007  -17.7487   19.5304 C   0  0  0  0  0  0
  -29.4340  -18.0485   20.3110 C   0  0  0  0  0  0
  -27.6785  -20.1230   19.4055 C   0  0  0  0  0  0
  -28.8679  -20.4757   20.1193 C   0  0  0  0  0  0
  -27.4297  -18.7556   19.0762 C   0  0  0  0  0  0
  -24.1359  -18.9869   17.8665 C   0  0  0  0  0  0
  -24.9063  -19.3006   16.6941 C   0  0  0  0  0  0
  -29.2760  -22.8780   19.4829 C   0  0  0  0  0  0
  -22.8363  -19.2641   18.0634 C   0  0  0  0  0  0
  -24.4635  -19.9435   15.6002 C   0  0  0  0  0  0
  -30.4103  -16.9461   20.6952 C   0  0  0  0  0  0
  -25.0280  -18.3144   18.8773 C   0  0  0  0  0  0
  -26.3224  -18.8275   16.8942 C   0  0  0  0  0  0
  -30.0444  -23.8216   21.5123 C   0  0  0  0  0  0
  -29.6224  -22.3448   21.7000 C   0  0  0  0  0  0
  -29.5066  -24.2686   20.1320 C   0  0  1  0  0  0
  -26.6611  -21.1983   19.0143 C   0  0  0  0  0  0
  -30.5863  -25.0418   19.3419 C   0  0  0  0  0  0
  -27.2075  -24.6643   21.3009 C   0  0  0  0  0  0
  -28.1673  -25.1180   20.1631 C   0  0  1  0  0  0
  -29.2284  -21.8617   20.3797 N   0  0  0  0  0  0
  -26.3639  -18.3151   18.2699 N   0  0  0  0  0  0
  -29.9645  -15.6590   20.6881 N   0  0  0  0  0  0
  -29.1888  -22.7472   18.2569 O   0  0  0  0  0  0
  -31.5642  -17.2700   20.9983 O   0  0  0  0  0  0
  -31.4574  -12.4033   19.1389 H   0  0  0  0  0  0
  -30.2922  -11.3398   19.8792 H   0  0  0  0  0  0
  -29.7393  -11.7516   17.4514 H   0  0  0  0  0  0
  -29.6497  -13.4705   17.7519 H   0  0  0  0  0  0
  -27.8384  -11.2938   18.8498 H   0  0  0  0  0  0
  -27.3608  -12.5903   17.7886 H   0  0  0  0  0  0
  -27.6624  -14.2499   19.5155 H   0  0  0  0  0  0
  -28.6851  -12.0738   21.4064 H   0  0  0  0  0  0
  -28.4678  -13.7538   21.8158 H   0  0  0  0  0  0
  -25.2745   -9.5681   22.4767 H   0  0  0  0  0  0
  -23.9982   -7.4627   22.7483 H   0  0  0  0  0  0
  -21.0825   -8.8767   19.8951 H   0  0  0  0  0  0
  -22.3668  -10.9678   19.6172 H   0  0  0  0  0  0
  -21.2008   -7.6148   23.9708 H   0  0  0  0  0  0
  -21.1484   -6.0529   25.9077 H   0  0  0  0  0  0
  -22.0600   -2.7606   23.2845 H   0  0  0  0  0  0
  -22.4084  -11.9866   22.4765 H   0  0  0  0  0  0
  -21.1108  -13.1272   22.2626 H   0  0  0  0  0  0
  -24.6469  -15.8222   20.5513 H   0  0  0  0  0  0
  -26.2476  -15.6338   20.0515 H   0  0  0  0  0  0
  -26.7146  -32.5511   23.1157 H   0  0  0  0  0  0
  -25.0048  -33.9766   25.0456 H   0  0  0  0  0  0
  -22.6983  -31.3119   21.4167 H   0  0  0  0  0  0
  -23.3784  -35.9586   23.3205 H   0  0  0  0  0  0
  -24.3583  -36.9020   22.2066 H   0  0  0  0  0  0
  -23.7159  -37.6447   23.6708 H   0  0  0  0  0  0
  -26.0698  -31.5837   20.6061 H   0  0  0  0  0  0
  -26.8295  -30.8639   21.9974 H   0  0  0  0  0  0
  -28.0940  -29.0322   21.2056 H   0  0  0  0  0  0
  -25.9778  -26.0027   18.9459 H   0  0  0  0  0  0
  -23.9722  -27.3453   18.9833 H   0  0  0  0  0  0
  -23.7271  -30.6166   19.4084 H   0  0  0  0  0  0
  -22.7400  -29.2608   19.8652 H   0  0  0  0  0  0
  -25.1258  -36.1954   25.0824 H   0  0  0  0  0  0
  -20.9990  -28.3247   24.1435 H   0  0  0  0  0  0
  -20.5670  -26.2268   23.3630 H   0  0  0  0  0  0
  -21.6635  -26.7423   22.1239 H   0  0  0  0  0  0
  -19.6905  -25.6303   21.1240 H   0  0  0  0  0  0
  -19.6720  -27.3204   20.6772 H   0  0  0  0  0  0
  -17.4218  -26.6744   21.3989 H   0  0  0  0  0  0
  -18.0272  -26.0071   22.8991 H   0  0  0  0  0  0
  -19.7924  -30.7275   24.2284 H   0  0  0  0  0  0
  -17.5003  -31.6263   24.5184 H   0  0  0  0  0  0
  -15.5345  -30.2986   23.7653 H   0  0  0  0  0  0
  -15.8674  -28.0835   22.7037 H   0  0  0  0  0  0
  -24.5948  -30.7007   25.7826 H   0  0  0  0  0  0
  -24.8857  -32.2863   26.4857 H   0  0  0  0  0  0
  -25.8076  -30.8960   27.0271 H   0  0  0  0  0  0
  -26.2877  -29.6789   24.1194 H   0  0  0  0  0  0
  -27.4054  -29.7281   25.4639 H   0  0  0  0  0  0
  -27.8729  -30.4338   23.9342 H   0  0  0  0  0  0
  -27.2708  -33.3625   26.2070 H   0  0  0  0  0  0
  -28.3870  -32.6840   25.0311 H   0  0  0  0  0  0
  -28.0730  -31.8428   26.5410 H   0  0  0  0  0  0
  -28.2530  -38.0166   24.7643 H   0  0  0  0  0  0
  -28.1198  -36.2711   24.6058 H   0  0  0  0  0  0
  -27.2363  -37.1179   25.8847 H   0  0  0  0  0  0
  -20.9318  -29.8756   21.6944 H   0  0  0  0  0  0
  -26.0164  -38.2857   24.1560 H   0  0  0  0  0  0
  -30.6067  -19.6676   21.1362 H   0  0  0  0  0  0
  -28.1001  -16.7286   19.2381 H   0  0  0  0  0  0
  -22.2345  -19.7616   17.3176 H   0  0  0  0  0  0
  -22.3499  -18.9951   18.9899 H   0  0  0  0  0  0
  -23.4427  -20.2834   15.5062 H   0  0  0  0  0  0
  -25.1276  -20.1452   14.7720 H   0  0  0  0  0  0
  -24.6839  -17.2926   19.0280 H   0  0  0  0  0  0
  -25.0004  -18.8290   19.8393 H   0  0  0  0  0  0
  -27.0373  -19.6314   16.7147 H   0  0  0  0  0  0
  -26.5430  -18.0224   16.1921 H   0  0  0  0  0  0
  -31.1341  -23.8756   21.5200 H   0  0  0  0  0  0
  -29.7184  -24.4559   22.3360 H   0  0  0  0  0  0
  -28.7692  -22.2666   22.3741 H   0  0  0  0  0  0
  -30.4365  -21.7571   22.1246 H   0  0  0  0  0  0
  -26.6871  -22.0530   19.6836 H   0  0  0  0  0  0
  -25.6374  -20.8463   19.0757 H   0  0  0  0  0  0
  -26.8359  -21.5502   17.9979 H   0  0  0  0  0  0
  -31.4755  -24.4342   19.1672 H   0  0  0  0  0  0
  -30.9015  -25.9354   19.8810 H   0  0  0  0  0  0
  -30.2104  -25.3619   18.3693 H   0  0  0  0  0  0
  -27.0563  -23.5872   21.3003 H   0  0  0  0  0  0
  -26.2123  -25.0960   21.2243 H   0  0  0  0  0  0
  -27.5825  -24.9425   22.2852 H   0  0  0  0  0  0
  -27.6898  -24.8905   19.2106 H   0  0  0  0  0  0
  -28.9687  -15.5320   20.6861 H   0  0  0  0  0  0
  1 25  1  0  0  0
  1 30  2  0  0  0
  1 94  1  0  0  0
  2  3  1  0  0  0
  2 25  1  0  0  0
  2 97  1  0  0  0
  2 98  1  0  0  0
  3  4  1  0  0  0
  3 99  1  0  0  0
  3100  1  0  0  0
  4  5  1  0  0  0
  4101  1  0  0  0
  4102  1  0  0  0
  5  6  1  0  0  0
  5 26  1  0  0  0
  5103  1  0  0  0
  6 25  1  0  0  0
  6104  1  0  0  0
  6105  1  0  0  0
  7  8  2  0  0  0
  7 26  1  0  0  0
  7 29  1  0  0  0
  8  9  1  0  0  0
  8 22  1  0  0  0
  9 10  1  0  0  0
  9 27  2  0  0  0
 10 11  2  0  0  0
 10 15  1  0  0  0
 11 12  1  0  0  0
 11106  1  0  0  0
 12 13  2  0  0  0
 12107  1  0  0  0
 13 14  1  0  0  0
 13 31  1  0  0  0
 14 15  2  0  0  0
 14108  1  0  0  0
 15109  1  0  0  0
 16 17  2  0  0  0
 16 21  1  0  0  0
 16 31  1  0  0  0
 17 18  1  0  0  0
 17110  1  0  0  0
 18 19  2  0  0  0
 18111  1  0  0  0
 19 20  1  0  0  0
 19 24  1  0  0  0
 20 21  2  0  0  0
 20112  1  0  0  0
 21 23  1  0  0  0
 22 28  1  0  0  0
 22 32  2  0  0  0
 26 27  1  0  0  0
 28113  1  0  0  0
 28114  1  0  0  0
 29115  1  0  0  0
 29116  1  0  0  0
 33 34  1  0  0  0
 33 66  1  0  0  0
 33 70  2  0  0  0
 34 36  1  0  0  0
 34 59  1  0  0  0
 34117  1  0  0  0
 35 44  2  0  0  0
 35 45  1  0  0  0
 35 68  1  0  0  0
 36 56  1  0  0  0
 36118  1  0  0  0
 37 39  1  0  0  0
 37 47  1  0  0  0
 37 66  1  0  0  0
 37119  1  0  0  0
 38 43  2  0  0  0
 38 46  1  0  0  0
 38 47  1  0  0  0
 39 64  1  0  0  0
 39 67  2  0  0  0
 40 52  1  0  0  0
 40 53  2  0  0  0
 40 58  1  0  0  0
 41120  1  0  0  0
 41121  1  0  0  0
 41122  1  0  0  0
 41 48  1  0  0  0
 42 43  1  0  0  0
 42 66  1  0  0  0
 42123  1  0  0  0
 42124  1  0  0  0
 43 44  1  0  0  0
 44125  1  0  0  0
 45 46  2  0  0  0
 45126  1  0  0  0
 46127  1  0  0  0
 47128  1  0  0  0
 47129  1  0  0  0
 48 56  1  0  0  0
 48 65  1  0  0  0
 48130  1  0  0  0
 49 50  1  0  0  0
 49 53  1  0  0  0
 49 64  1  0  0  0
 49131  1  0  0  0
 50 51  1  0  0  0
 50132  1  0  0  0
 50133  1  0  0  0
 51 52  1  0  0  0
 51134  1  0  0  0
 51135  1  0  0  0
 52136  1  0  0  0
 52137  1  0  0  0
 53 54  1  0  0  0
 54 55  2  0  0  0
 54138  1  0  0  0
 55 57  1  0  0  0
 55139  1  0  0  0
 56 69  2  0  0  0
 57 58  2  0  0  0
 57140  1  0  0  0
 58141  1  0  0  0
 59 60  1  0  0  0
 59 61  1  0  0  0
 59 62  1  0  0  0
 60142  1  0  0  0
 60143  1  0  0  0
 60144  1  0  0  0
 61145  1  0  0  0
 61146  1  0  0  0
 61147  1  0  0  0
 62148  1  0  0  0
 62149  1  0  0  0
 62150  1  0  0  0
 63 65  1  0  0  0
 63151  1  0  0  0
 63152  1  0  0  0
 63153  1  0  0  0
 64154  1  0  0  0
 65155  1  0  0  0
 68 91  1  0  0  0
 71 73  2  0  0  0
 71 75  1  0  0  0
 71156  1  0  0  0
 72 73  1  0  0  0
 72 76  2  0  0  0
 72157  1  0  0  0
 73 82  1  0  0  0
 74 75  2  0  0  0
 74 76  1  0  0  0
 74 88  1  0  0  0
 75 92  1  0  0  0
 76 93  1  0  0  0
 77 78  1  0  0  0
 77 80  2  0  0  0
 77 83  1  0  0  0
 78 81  2  0  0  0
 78 84  1  0  0  0
 79 87  1  0  0  0
 79 92  1  0  0  0
 79 95  2  0  0  0
 80158  1  0  0  0
 80159  1  0  0  0
 81160  1  0  0  0
 81161  1  0  0  0
 82 94  1  0  0  0
 82 96  2  0  0  0
 83 93  1  0  0  0
 83162  1  0  0  0
 83163  1  0  0  0
 84 93  1  0  0  0
 84164  1  0  0  0
 84165  1  0  0  0
 85 86  1  0  0  0
 85 87  1  0  0  0
 85166  1  0  0  0
 85167  1  0  0  0
 86 92  1  0  0  0
 86168  1  0  0  0
 86169  1  0  0  0
 87 89  1  0  0  0
 87 91  1  0  0  0
 88170  1  0  0  0
 88171  1  0  0  0
 88172  1  0  0  0
 89173  1  0  0  0
 89174  1  0  0  0
 89175  1  0  0  0
 90176  1  0  0  0
 90177  1  0  0  0
 90178  1  0  0  0
 90 91  1  0  0  0
 91179  1  0  0  0
 94180  1  0  0  0
M  ISO  4   1 100  68 101  91 101  94 100
M  END
> <chiral flag>
0

> <version>
0

> <s_m_source_file>
/data/baiqing/PycharmProjects/Reinvent-master-3.2/result/LINK_invent/BTK/process_docking_weight1_custom_product_contain_oxygen_bond_distance_aromatic_linkinvent_7_9_3/rearranged_h_0077.sdf

> <i_m_source_file_index>
94

> <r_mmod_Potential_Energy-OPLS-2005>
83.0391387939453

> <r_mmod_Stretch_Energy-OPLS-2005>
62.2101440429688

> <r_mmod_Bend_Energy-OPLS-2005>
196.727142333984

> <r_mmod_Torsional_Energy-OPLS-2005>
340.46337890625

> <r_mmod_Improper_Torsional_Energy-OPLS-2005>
11.6607599258423

> <r_mmod_Van_der_Waal_Energy-OPLS-2005>
169.150970458984

> <r_mmod_Electrostatic_Energy-OPLS-2005>
-499.293884277344

> <r_mmod_Solvation_Energy-OPLS-2005>
-230.179473876953

> <b_mmod_Minimization_Converged-OPLS-2005>
0

> <r_mmod_RMS_Derivative-OPLS-2005>
1.4798059463501

$$$$
94
                    3D
 Structure written by MMmdl.
162171  0  0  1  0            999 V2000
  -30.6377  -14.6252   20.6083 C   0  0  0  0  0  0
  -30.4479  -12.4215   19.4226 C   0  0  0  0  0  0
  -29.5047  -12.5521   18.2075 C   0  0  0  0  0  0
  -28.0290  -12.3720   18.6223 C   0  0  0  0  0  0
  -27.6581  -13.2142   19.8713 C   0  0  2  0  0  0
  -28.7076  -13.0224   20.9892 C   0  0  0  0  0  0
  -25.2574  -13.8123   20.5733 C   0  0  0  0  0  0
  -24.1817  -13.0415   20.9179 C   0  0  0  0  0  0
  -24.6377  -11.6889   20.8715 C   0  0  0  0  0  0
  -23.9029  -10.4300   21.0397 C   0  0  0  0  0  0
  -24.3592   -9.4231   21.9183 C   0  0  0  0  0  0
  -23.6281   -8.2260   22.0758 C   0  0  0  0  0  0
  -22.4268   -8.0281   21.3538 C   0  0  0  0  0  0
  -21.9879   -9.0249   20.4641 C   0  0  0  0  0  0
  -22.7202  -10.2132   20.3045 C   0  0  0  0  0  0
  -21.6861   -6.0731   22.5279 C   0  0  0  0  0  0
  -21.4021   -6.5629   23.8209 C   0  0  0  0  0  0
  -21.3655   -5.6778   24.9167 C   0  0  0  0  0  0
  -21.6047   -4.3041   24.7225 C   0  0  0  0  0  0
  -21.8830   -3.8134   23.4341 C   0  0  0  0  0  0
  -21.9195   -4.6956   22.3396 C   0  0  0  0  0  0
  -22.7848  -13.5235   21.1835 C   0  0  0  0  0  0
  -22.1663   -4.2141   21.0974 F   0  0  0  0  0  0
  -21.5626   -3.4523   25.7733 F   0  0  0  0  0  0
  -30.0206  -13.4085   20.4353 N   0  0  0  0  0  0
  -26.3005  -12.9309   20.3344 N   0  0  0  0  0  0
  -25.9303  -11.6464   20.5697 N   0  0  0  0  0  0
  -22.0452  -12.8259   22.0383 N   0  0  0  0  0  0
  -25.4268  -15.1837   20.4263 N   0  0  0  0  0  0
  -31.7010  -14.8743   20.0400 O   0  0  0  0  0  0
  -21.6640   -6.8874   21.4240 O   0  0  0  0  0  0
  -22.3553  -14.5544   20.6676 O   0  0  0  0  0  0
  -24.6258  -31.8611   23.2034 C   0  0  0  0  0  0
  -25.9102  -32.4786   23.8374 C   0  0  1  0  0  0
  -27.2269  -27.3168   20.1164 C   0  0  0  0  0  0
  -25.5926  -33.8590   24.2287 N   0  0  0  0  0  0
  -23.4209  -30.4832   21.5450 C   0  0  2  0  0  0
  -24.8691  -28.9358   20.1131 C   0  0  0  0  0  0
  -22.7471  -29.4637   22.4949 C   0  0  0  0  0  0
  -18.0283  -28.1389   22.8493 C   0  0  0  0  0  0
  -24.1492  -36.7308   23.2639 C   0  0  0  0  0  0
  -25.9630  -30.7863   21.3793 C   0  0  0  0  0  0
  -26.0367  -29.4114   20.7249 C   0  0  0  0  0  0
  -27.2179  -28.6115   20.7227 C   0  0  0  0  0  0
  -26.0411  -26.8987   19.4722 C   0  0  0  0  0  0
  -24.8721  -27.6840   19.4795 C   0  0  0  0  0  0
  -23.6368  -29.8162   20.1617 C   0  0  0  0  0  0
  -25.4118  -36.3099   24.0331 C   0  0  1  0  0  0
  -20.5885  -28.3698   23.1294 C   0  0  2  0  0  0
  -20.6780  -26.9427   22.5420 C   0  0  0  0  0  0
  -19.5759  -26.6387   21.5229 C   0  0  0  0  0  0
  -18.1930  -26.7932   22.1617 C   0  0  0  0  0  0
  -19.1531  -28.8856   23.2887 C   0  0  0  0  0  0
  -18.9451  -30.1453   23.8910 C   0  0  0  0  0  0
  -17.6453  -30.6601   24.0555 C   0  0  0  0  0  0
  -25.9054  -34.9456   23.5107 C   0  0  0  0  0  0
  -16.5340  -29.9098   23.6322 C   0  0  0  0  0  0
  -16.7273  -28.6503   23.0364 C   0  0  0  0  0  0
  -26.4476  -31.6596   25.0748 C   0  0  0  0  0  0
  -25.3683  -31.3745   26.1459 C   0  0  0  0  0  0
  -27.0304  -30.3007   24.6224 C   0  0  0  0  0  0
  -27.6055  -32.4314   25.7505 C   0  0  0  0  0  0
  -27.5590  -37.1811   24.8457 C   0  0  0  0  0  0
  -21.4185  -29.3047   22.3684 N   0  0  0  0  0  0
  -26.4304  -37.3788   23.9396 N   0  0  0  0  0  0
  -24.6883  -31.0610   22.0988 N   0  0  0  0  0  0
  -23.4204  -28.8180   23.3019 O   0  0  0  0  0  0
  -28.3352  -26.4541   20.1302 O   0  0  0  0  0  0
  -26.5625  -34.8918   22.4673 O   0  0  0  0  0  0
  -23.5414  -32.1412   23.7356 O   0  0  0  0  0  0
  -30.0157  -18.5348   17.9557 C   0  0  0  0  0  0
  -29.9595  -17.5481   18.9583 C   0  0  0  0  0  0
  -29.9101  -19.9057   18.2674 C   0  0  0  0  0  0
  -29.7321  -19.3228   20.6092 C   0  0  0  0  0  0
  -29.8043  -17.8945   20.3185 C   0  0  0  0  0  0
  -29.7573  -20.3518   19.6004 C   0  0  0  0  0  0
  -28.9973  -24.0268   20.0753 C   0  0  0  0  0  0
  -28.6771  -22.5883   20.2723 C   0  0  0  0  0  0
  -28.1251  -25.0664   20.3218 C   0  0  0  0  0  0
  -27.4329  -17.8736   22.3962 C   0  0  0  0  0  0
  -29.6341  -16.7734   21.3793 C   0  0  0  0  0  0
  -28.8109  -17.2489   22.5757 C   0  0  0  0  0  0
  -30.7689  -22.6604   19.2478 C   0  0  0  0  0  0
  -30.3977  -24.1303   19.5343 C   0  0  1  0  0  0
  -30.5494  -25.0589   18.3150 C   0  0  0  0  0  0
  -26.7594  -18.0833   21.3386 N   0  0  0  0  0  0
  -29.9531  -15.5000   21.4708 N   0  0  0  0  0  0
  -29.7216  -21.8097   19.8355 N   0  0  0  0  0  0
  -27.6388  -22.1371   20.7661 O   0  0  0  0  0  0
  -29.2441  -17.0734   23.7245 O   0  0  0  0  0  0
  -31.4848  -12.5671   19.1129 H   0  0  0  0  0  0
  -30.3969  -11.4111   19.8333 H   0  0  0  0  0  0
  -29.7710  -11.8243   17.4381 H   0  0  0  0  0  0
  -29.6362  -13.5360   17.7537 H   0  0  0  0  0  0
  -27.8677  -11.3129   18.8293 H   0  0  0  0  0  0
  -27.3714  -12.6250   17.7903 H   0  0  0  0  0  0
  -27.6869  -14.2610   19.5663 H   0  0  0  0  0  0
  -28.7318  -11.9797   21.3102 H   0  0  0  0  0  0
  -28.4310  -13.5895   21.8777 H   0  0  0  0  0  0
  -25.2746   -9.5735   22.4731 H   0  0  0  0  0  0
  -24.0011   -7.4663   22.7476 H   0  0  0  0  0  0
  -21.0803   -8.8756   19.8953 H   0  0  0  0  0  0
  -22.3658  -10.9655   19.6142 H   0  0  0  0  0  0
  -21.2023   -7.6140   23.9712 H   0  0  0  0  0  0
  -21.1454   -6.0503   25.9072 H   0  0  0  0  0  0
  -22.0611   -2.7597   23.2828 H   0  0  0  0  0  0
  -22.4042  -11.9943   22.4823 H   0  0  0  0  0  0
  -21.1054  -13.1309   22.2529 H   0  0  0  0  0  0
  -24.6823  -15.8480   20.6056 H   0  0  0  0  0  0
  -26.2905  -15.6285   20.1482 H   0  0  0  0  0  0
  -26.7172  -32.5455   23.1127 H   0  0  0  0  0  0
  -25.0033  -33.9740   25.0407 H   0  0  0  0  0  0
  -22.7138  -31.3034   21.4027 H   0  0  0  0  0  0
  -23.3758  -35.9644   23.3321 H   0  0  0  0  0  0
  -24.3575  -36.8909   22.2052 H   0  0  0  0  0  0
  -23.7251  -37.6519   23.6642 H   0  0  0  0  0  0
  -26.0960  -31.5477   20.6091 H   0  0  0  0  0  0
  -26.8422  -30.8351   22.0105 H   0  0  0  0  0  0
  -28.1123  -28.9696   21.2124 H   0  0  0  0  0  0
  -26.0075  -25.9424   18.9689 H   0  0  0  0  0  0
  -23.9796  -27.3185   18.9901 H   0  0  0  0  0  0
  -23.7533  -30.5910   19.4039 H   0  0  0  0  0  0
  -22.7578  -29.2431   19.8625 H   0  0  0  0  0  0
  -25.1299  -36.1962   25.0831 H   0  0  0  0  0  0
  -20.9967  -28.3279   24.1418 H   0  0  0  0  0  0
  -20.5713  -26.2310   23.3621 H   0  0  0  0  0  0
  -21.6643  -26.7477   22.1192 H   0  0  0  0  0  0
  -19.6920  -25.6296   21.1276 H   0  0  0  0  0  0
  -19.6704  -27.3184   20.6751 H   0  0  0  0  0  0
  -17.4214  -26.6704   21.4003 H   0  0  0  0  0  0
  -18.0305  -26.0068   22.9001 H   0  0  0  0  0  0
  -19.7925  -30.7261   24.2295 H   0  0  0  0  0  0
  -17.5010  -31.6280   24.5148 H   0  0  0  0  0  0
  -15.5345  -30.3005   23.7633 H   0  0  0  0  0  0
  -15.8668  -28.0824   22.7083 H   0  0  0  0  0  0
  -24.5857  -30.7109   25.7759 H   0  0  0  0  0  0
  -24.8872  -32.2911   26.4874 H   0  0  0  0  0  0
  -25.7976  -30.8907   27.0239 H   0  0  0  0  0  0
  -26.2876  -29.6773   24.1232 H   0  0  0  0  0  0
  -27.3947  -29.7258   25.4749 H   0  0  0  0  0  0
  -27.8777  -30.4266   23.9479 H   0  0  0  0  0  0
  -27.2688  -33.3606   26.2105 H   0  0  0  0  0  0
  -28.3846  -32.6879   25.0317 H   0  0  0  0  0  0
  -28.0742  -31.8420   26.5392 H   0  0  0  0  0  0
  -28.2607  -38.0107   24.7504 H   0  0  0  0  0  0
  -28.1080  -36.2638   24.6275 H   0  0  0  0  0  0
  -27.2305  -37.1452   25.8858 H   0  0  0  0  0  0
  -20.9374  -29.8754   21.6872 H   0  0  0  0  0  0
  -26.0196  -38.2873   24.1381 H   0  0  0  0  0  0
  -30.1257  -18.2330   16.9219 H   0  0  0  0  0  0
  -30.0065  -16.5113   18.6589 H   0  0  0  0  0  0
  -29.9435  -20.6143   17.4521 H   0  0  0  0  0  0
  -29.6415  -19.6579   21.6316 H   0  0  0  0  0  0
  -27.1401  -24.8636   20.7215 H   0  0  0  0  0  0
  -26.9661  -18.1690   23.3396 H   0  0  0  0  0  0
  -31.7410  -22.4065   19.6726 H   0  0  0  0  0  0
  -30.8311  -22.4890   18.1731 H   0  0  0  0  0  0
  -31.0275  -24.5013   20.3443 H   0  0  0  0  0  0
  -29.8762  -24.7752   17.5044 H   0  0  0  0  0  0
  -31.5691  -25.0246   17.9295 H   0  0  0  0  0  0
  -30.3389  -26.0969   18.5741 H   0  0  0  0  0  0
  -27.2442  -17.7938   20.4967 H   0  0  0  0  0  0
  1 25  1  0  0  0
  1 30  2  0  0  0
  1 87  1  0  0  0
  2  3  1  0  0  0
  2 25  1  0  0  0
  2 91  1  0  0  0
  2 92  1  0  0  0
  3  4  1  0  0  0
  3 93  1  0  0  0
  3 94  1  0  0  0
  4  5  1  0  0  0
  4 95  1  0  0  0
  4 96  1  0  0  0
  5  6  1  0  0  0
  5 26  1  0  0  0
  5 97  1  0  0  0
  6 25  1  0  0  0
  6 98  1  0  0  0
  6 99  1  0  0  0
  7  8  2  0  0  0
  7 26  1  0  0  0
  7 29  1  0  0  0
  8  9  1  0  0  0
  8 22  1  0  0  0
  9 10  1  0  0  0
  9 27  2  0  0  0
 10 11  2  0  0  0
 10 15  1  0  0  0
 11 12  1  0  0  0
 11100  1  0  0  0
 12 13  2  0  0  0
 12101  1  0  0  0
 13 14  1  0  0  0
 13 31  1  0  0  0
 14 15  2  0  0  0
 14102  1  0  0  0
 15103  1  0  0  0
 16 17  2  0  0  0
 16 21  1  0  0  0
 16 31  1  0  0  0
 17 18  1  0  0  0
 17104  1  0  0  0
 18 19  2  0  0  0
 18105  1  0  0  0
 19 20  1  0  0  0
 19 24  1  0  0  0
 20 21  2  0  0  0
 20106  1  0  0  0
 21 23  1  0  0  0
 22 28  1  0  0  0
 22 32  2  0  0  0
 26 27  1  0  0  0
 28107  1  0  0  0
 28108  1  0  0  0
 29109  1  0  0  0
 29110  1  0  0  0
 33 34  1  0  0  0
 33 66  1  0  0  0
 33 70  2  0  0  0
 34 36  1  0  0  0
 34 59  1  0  0  0
 34111  1  0  0  0
 35 44  2  0  0  0
 35 45  1  0  0  0
 35 68  1  0  0  0
 36 56  1  0  0  0
 36112  1  0  0  0
 37 39  1  0  0  0
 37 47  1  0  0  0
 37 66  1  0  0  0
 37113  1  0  0  0
 38 43  2  0  0  0
 38 46  1  0  0  0
 38 47  1  0  0  0
 39 64  1  0  0  0
 39 67  2  0  0  0
 40 52  1  0  0  0
 40 53  2  0  0  0
 40 58  1  0  0  0
 41114  1  0  0  0
 41115  1  0  0  0
 41116  1  0  0  0
 41 48  1  0  0  0
 42 43  1  0  0  0
 42 66  1  0  0  0
 42117  1  0  0  0
 42118  1  0  0  0
 43 44  1  0  0  0
 44119  1  0  0  0
 45 46  2  0  0  0
 45120  1  0  0  0
 46121  1  0  0  0
 47122  1  0  0  0
 47123  1  0  0  0
 48 56  1  0  0  0
 48 65  1  0  0  0
 48124  1  0  0  0
 49 50  1  0  0  0
 49 53  1  0  0  0
 49 64  1  0  0  0
 49125  1  0  0  0
 50 51  1  0  0  0
 50126  1  0  0  0
 50127  1  0  0  0
 51 52  1  0  0  0
 51128  1  0  0  0
 51129  1  0  0  0
 52130  1  0  0  0
 52131  1  0  0  0
 53 54  1  0  0  0
 54 55  2  0  0  0
 54132  1  0  0  0
 55 57  1  0  0  0
 55133  1  0  0  0
 56 69  2  0  0  0
 57 58  2  0  0  0
 57134  1  0  0  0
 58135  1  0  0  0
 59 60  1  0  0  0
 59 61  1  0  0  0
 59 62  1  0  0  0
 60136  1  0  0  0
 60137  1  0  0  0
 60138  1  0  0  0
 61139  1  0  0  0
 61140  1  0  0  0
 61141  1  0  0  0
 62142  1  0  0  0
 62143  1  0  0  0
 62144  1  0  0  0
 63 65  1  0  0  0
 63145  1  0  0  0
 63146  1  0  0  0
 63147  1  0  0  0
 64148  1  0  0  0
 65149  1  0  0  0
 68 79  1  0  0  0
 71 72  2  0  0  0
 71 73  1  0  0  0
 71150  1  0  0  0
 72 75  1  0  0  0
 72151  1  0  0  0
 73 76  2  0  0  0
 73152  1  0  0  0
 74 75  2  0  0  0
 74 76  1  0  0  0
 74153  1  0  0  0
 75 81  1  0  0  0
 76 88  1  0  0  0
 77 78  1  0  0  0
 77 79  2  0  0  0
 77 84  1  0  0  0
 78 88  1  0  0  0
 78 89  2  0  0  0
 79154  1  0  0  0
 80 82  1  0  0  0
 80 86  2  0  0  0
 80155  1  0  0  0
 81 82  1  0  0  0
 81 87  2  0  0  0
 82 90  2  0  0  0
 83 84  1  0  0  0
 83 88  1  0  0  0
 83156  1  0  0  0
 83157  1  0  0  0
 84 85  1  0  0  0
 84158  1  0  0  0
 85159  1  0  0  0
 85160  1  0  0  0
 85161  1  0  0  0
 86162  1  0  0  0
M  ISO  4   1 100  68 101  79 101  87 100
M  END
> <chiral flag>
0

> <version>
0

> <s_m_source_file>
/data/baiqing/PycharmProjects/Reinvent-master-3.2/result/LINK_invent/BTK/process_docking_weight1_custom_product_contain_oxygen_bond_distance_aromatic_linkinvent_7_9_3/rearranged_h_0077.sdf

> <i_m_source_file_index>
95

> <r_mmod_Potential_Energy-OPLS-2005>
393.382385253906

> <r_mmod_Stretch_Energy-OPLS-2005>
96.2098236083984

> <r_mmod_Bend_Energy-OPLS-2005>
222.457763671875

> <r_mmod_Torsional_Energy-OPLS-2005>
263.166595458984

> <r_mmod_Improper_Torsional_Energy-OPLS-2005>
3.19612216949463

> <r_mmod_Van_der_Waal_Energy-OPLS-2005>
140.280731201172

> <r_mmod_Electrostatic_Energy-OPLS-2005>
-166.277252197266

> <r_mmod_Solvation_Energy-OPLS-2005>
-213.149612426758

> <b_mmod_Minimization_Converged-OPLS-2005>
0

> <r_mmod_RMS_Derivative-OPLS-2005>
2.30849957466125

$$$$
95
                    3D
 Structure written by MMmdl.
164173  0  0  1  0            999 V2000
  -30.6782  -14.5256   20.5106 C   0  0  0  0  0  0
  -30.4314  -12.3316   19.4281 C   0  0  0  0  0  0
  -29.4984  -12.5069   18.2101 C   0  0  0  0  0  0
  -28.0174  -12.3691   18.6244 C   0  0  0  0  0  0
  -27.6619  -13.2031   19.8857 C   0  0  2  0  0  0
  -28.7133  -13.0130   21.0045 C   0  0  0  0  0  0
  -25.2599  -13.8133   20.5705 C   0  0  0  0  0  0
  -24.1839  -13.0429   20.9208 C   0  0  0  0  0  0
  -24.6399  -11.6897   20.8780 C   0  0  0  0  0  0
  -23.9052  -10.4303   21.0428 C   0  0  0  0  0  0
  -24.3607   -9.4220   21.9186 C   0  0  0  0  0  0
  -23.6305   -8.2246   22.0731 C   0  0  0  0  0  0
  -22.4283   -8.0287   21.3529 C   0  0  0  0  0  0
  -21.9922   -9.0280   20.4645 C   0  0  0  0  0  0
  -22.7237  -10.2165   20.3072 C   0  0  0  0  0  0
  -21.6859   -6.0760   22.5284 C   0  0  0  0  0  0
  -21.4013   -6.5652   23.8225 C   0  0  0  0  0  0
  -21.3646   -5.6789   24.9176 C   0  0  0  0  0  0
  -21.6026   -4.3056   24.7211 C   0  0  0  0  0  0
  -21.8814   -3.8164   23.4326 C   0  0  0  0  0  0
  -21.9196   -4.6990   22.3392 C   0  0  0  0  0  0
  -22.7855  -13.5256   21.1830 C   0  0  0  0  0  0
  -22.1658   -4.2180   21.0966 F   0  0  0  0  0  0
  -21.5638   -3.4540   25.7719 F   0  0  0  0  0  0
  -30.0356  -13.3257   20.4392 N   0  0  0  0  0  0
  -26.3051  -12.9299   20.3480 N   0  0  0  0  0  0
  -25.9338  -11.6479   20.5856 N   0  0  0  0  0  0
  -22.0438  -12.8313   22.0395 N   0  0  0  0  0  0
  -25.4305  -15.1844   20.4061 N   0  0  0  0  0  0
  -31.8263  -14.6939   20.0900 O   0  0  0  0  0  0
  -21.6621   -6.8903   21.4253 O   0  0  0  0  0  0
  -22.3573  -14.5571   20.6665 O   0  0  0  0  0  0
  -24.6116  -31.8681   23.2097 C   0  0  0  0  0  0
  -25.9006  -32.4829   23.8405 C   0  0  1  0  0  0
  -27.2427  -27.4386   20.1052 C   0  0  0  0  0  0
  -25.5876  -33.8627   24.2343 N   0  0  0  0  0  0
  -23.4041  -30.4894   21.5452 C   0  0  2  0  0  0
  -24.8580  -28.9577   20.1079 C   0  0  0  0  0  0
  -22.7425  -29.4636   22.4945 C   0  0  0  0  0  0
  -18.0296  -28.1366   22.8483 C   0  0  0  0  0  0
  -24.1492  -36.7316   23.2648 C   0  0  0  0  0  0
  -25.9323  -30.8367   21.3638 C   0  0  0  0  0  0
  -26.0160  -29.4712   20.7099 C   0  0  0  0  0  0
  -27.2109  -28.7161   20.7114 C   0  0  0  0  0  0
  -26.0770  -26.9446   19.4850 C   0  0  0  0  0  0
  -24.8831  -27.6934   19.4907 C   0  0  0  0  0  0
  -23.6170  -29.8207   20.1594 C   0  0  0  0  0  0
  -25.4108  -36.3124   24.0358 C   0  0  1  0  0  0
  -20.5883  -28.3648   23.1318 C   0  0  2  0  0  0
  -20.6760  -26.9376   22.5430 C   0  0  0  0  0  0
  -19.5753  -26.6364   21.5207 C   0  0  0  0  0  0
  -18.1931  -26.7914   22.1612 C   0  0  0  0  0  0
  -19.1539  -28.8827   23.2900 C   0  0  0  0  0  0
  -18.9462  -30.1424   23.8910 C   0  0  0  0  0  0
  -17.6458  -30.6565   24.0557 C   0  0  0  0  0  0
  -25.9021  -34.9484   23.5153 C   0  0  0  0  0  0
  -16.5352  -29.9063   23.6311 C   0  0  0  0  0  0
  -16.7278  -28.6489   23.0327 C   0  0  0  0  0  0
  -26.4449  -31.6598   25.0717 C   0  0  0  0  0  0
  -25.3731  -31.3687   26.1481 C   0  0  0  0  0  0
  -27.0273  -30.3050   24.6050 C   0  0  0  0  0  0
  -27.6041  -32.4311   25.7454 C   0  0  0  0  0  0
  -27.5594  -37.1812   24.8467 C   0  0  0  0  0  0
  -21.4151  -29.3017   22.3713 N   0  0  0  0  0  0
  -26.4297  -37.3800   23.9421 N   0  0  0  0  0  0
  -24.6670  -31.0791   22.0981 N   0  0  0  0  0  0
  -23.4194  -28.8176   23.2981 O   0  0  0  0  0  0
  -28.3568  -26.6308   20.1613 O   0  0  0  0  0  0
  -26.5582  -34.8936   22.4705 O   0  0  0  0  0  0
  -23.5313  -32.1418   23.7491 O   0  0  0  0  0  0
  -28.8105  -17.5977   17.9299 C   0  0  0  0  0  0
  -29.1303  -18.9047   18.3228 C   0  0  0  0  0  0
  -29.1054  -16.5189   18.7778 C   0  0  0  0  0  0
  -30.0249  -18.0571   20.4403 C   0  0  0  0  0  0
  -29.7576  -19.1525   19.5658 C   0  0  0  0  0  0
  -29.7094  -16.7238   20.0420 C   0  0  0  0  0  0
  -30.0808  -22.7839   19.9270 C   0  0  0  0  0  0
  -31.0467  -22.4551   18.9118 C   0  0  0  0  0  0
  -29.5347  -21.4967   20.3999 C   0  0  0  0  0  0
  -31.6040  -23.3016   18.0267 C   0  0  0  0  0  0
  -29.7829  -24.0659   20.2967 C   0  0  0  0  0  0
  -28.4104  -25.8375   21.2886 C   0  0  0  0  0  0
  -29.0210  -24.6315   21.4115 C   0  0  0  0  0  0
  -31.2902  -20.9831   18.9177 C   0  0  0  0  0  0
  -30.3935  -23.7270   23.3626 C   0  0  0  0  0  0
  -28.9904  -23.9702   22.7866 C   0  0  0  0  0  0
  -30.2294  -20.4872   19.7938 N   0  0  0  0  0  0
  -29.9231  -15.5825   20.8848 N   0  0  0  0  0  0
  -28.5851  -21.3065   21.1648 O   0  0  0  0  0  0
  -31.4730  -12.4469   19.1192 H   0  0  0  0  0  0
  -30.3504  -11.3221   19.8348 H   0  0  0  0  0  0
  -29.7471  -11.7762   17.4373 H   0  0  0  0  0  0
  -29.6639  -13.4844   17.7564 H   0  0  0  0  0  0
  -27.8254  -11.3142   18.8188 H   0  0  0  0  0  0
  -27.3663  -12.6463   17.7943 H   0  0  0  0  0  0
  -27.6818  -14.2475   19.5938 H   0  0  0  0  0  0
  -28.7054  -11.9846   21.3696 H   0  0  0  0  0  0
  -28.4893  -13.6377   21.8699 H   0  0  0  0  0  0
  -25.2744   -9.5740   22.4767 H   0  0  0  0  0  0
  -24.0032   -7.4648   22.7446 H   0  0  0  0  0  0
  -21.0844   -8.8819   19.8966 H   0  0  0  0  0  0
  -22.3680  -10.9723   19.6200 H   0  0  0  0  0  0
  -21.1995   -7.6159   23.9756 H   0  0  0  0  0  0
  -21.1462   -6.0491   25.9081 H   0  0  0  0  0  0
  -22.0605   -2.7638   23.2798 H   0  0  0  0  0  0
  -22.3996  -12.0007   22.4896 H   0  0  0  0  0  0
  -21.1053  -13.1427   22.2507 H   0  0  0  0  0  0
  -24.6615  -15.8382   20.4950 H   0  0  0  0  0  0
  -26.2860  -15.6260   20.0951 H   0  0  0  0  0  0
  -26.7073  -32.5553   23.1173 H   0  0  0  0  0  0
  -25.0077  -33.9785   25.0528 H   0  0  0  0  0  0
  -22.6915  -31.3044   21.4024 H   0  0  0  0  0  0
  -23.3762  -35.9639   23.3316 H   0  0  0  0  0  0
  -24.3612  -36.8916   22.2066 H   0  0  0  0  0  0
  -23.7230  -37.6521   23.6642 H   0  0  0  0  0  0
  -26.0476  -31.6059   20.5986 H   0  0  0  0  0  0
  -26.8181  -30.8892   21.9846 H   0  0  0  0  0  0
  -28.1015  -29.0945   21.1940 H   0  0  0  0  0  0
  -26.0947  -25.9710   19.0179 H   0  0  0  0  0  0
  -23.9922  -27.2927   19.0247 H   0  0  0  0  0  0
  -23.7235  -30.5948   19.3981 H   0  0  0  0  0  0
  -22.7436  -29.2371   19.8633 H   0  0  0  0  0  0
  -25.1283  -36.1999   25.0852 H   0  0  0  0  0  0
  -20.9997  -28.3215   24.1428 H   0  0  0  0  0  0
  -20.5633  -26.2258   23.3623 H   0  0  0  0  0  0
  -21.6631  -26.7379   22.1248 H   0  0  0  0  0  0
  -19.6901  -25.6272   21.1239 H   0  0  0  0  0  0
  -19.6706  -27.3175   20.6737 H   0  0  0  0  0  0
  -17.4208  -26.6694   21.4000 H   0  0  0  0  0  0
  -18.0303  -26.0042   22.8995 H   0  0  0  0  0  0
  -19.7935  -30.7232   24.2291 H   0  0  0  0  0  0
  -17.5013  -31.6248   24.5153 H   0  0  0  0  0  0
  -15.5349  -30.2963   23.7611 H   0  0  0  0  0  0
  -15.8694  -28.0810   22.7004 H   0  0  0  0  0  0
  -24.5894  -30.7036   25.7836 H   0  0  0  0  0  0
  -24.8919  -32.2827   26.4968 H   0  0  0  0  0  0
  -25.8105  -30.8842   27.0219 H   0  0  0  0  0  0
  -26.2792  -29.6822   24.1120 H   0  0  0  0  0  0
  -27.4101  -29.7269   25.4474 H   0  0  0  0  0  0
  -27.8613  -30.4418   23.9158 H   0  0  0  0  0  0
  -27.2673  -33.3604   26.2062 H   0  0  0  0  0  0
  -28.3805  -32.6882   25.0234 H   0  0  0  0  0  0
  -28.0749  -31.8411   26.5329 H   0  0  0  0  0  0
  -28.2607  -38.0115   24.7514 H   0  0  0  0  0  0
  -28.1089  -36.2645   24.6268 H   0  0  0  0  0  0
  -27.2327  -37.1447   25.8875 H   0  0  0  0  0  0
  -20.9299  -29.8780   21.6986 H   0  0  0  0  0  0
  -26.0205  -38.2884   24.1402 H   0  0  0  0  0  0
  -28.3575  -17.4127   16.9647 H   0  0  0  0  0  0
  -28.9293  -19.7181   17.6386 H   0  0  0  0  0  0
  -28.8619  -15.5296   18.4270 H   0  0  0  0  0  0
  -30.5108  -18.2351   21.3901 H   0  0  0  0  0  0
  -31.3866  -24.3585   18.0040 H   0  0  0  0  0  0
  -32.2978  -22.9375   17.2832 H   0  0  0  0  0  0
  -30.3163  -24.8320   19.7567 H   0  0  0  0  0  0
  -27.8890  -26.2947   22.1217 H   0  0  0  0  0  0
  -32.2706  -20.7511   19.3330 H   0  0  0  0  0  0
  -31.2292  -20.5768   17.9071 H   0  0  0  0  0  0
  -30.3279  -23.2884   24.3587 H   0  0  0  0  0  0
  -30.9483  -24.6610   23.4520 H   0  0  0  0  0  0
  -30.9837  -23.0508   22.7437 H   0  0  0  0  0  0
  -28.4041  -23.0556   22.7746 H   0  0  0  0  0  0
  -28.4590  -24.6205   23.4838 H   0  0  0  0  0  0
  -29.1052  -15.3077   21.4060 H   0  0  0  0  0  0
  1 25  1  0  0  0
  1 30  2  0  0  0
  1 88  1  0  0  0
  2  3  1  0  0  0
  2 25  1  0  0  0
  2 90  1  0  0  0
  2 91  1  0  0  0
  3  4  1  0  0  0
  3 92  1  0  0  0
  3 93  1  0  0  0
  4  5  1  0  0  0
  4 94  1  0  0  0
  4 95  1  0  0  0
  5  6  1  0  0  0
  5 26  1  0  0  0
  5 96  1  0  0  0
  6 25  1  0  0  0
  6 97  1  0  0  0
  6 98  1  0  0  0
  7  8  2  0  0  0
  7 26  1  0  0  0
  7 29  1  0  0  0
  8  9  1  0  0  0
  8 22  1  0  0  0
  9 10  1  0  0  0
  9 27  2  0  0  0
 10 11  2  0  0  0
 10 15  1  0  0  0
 11 12  1  0  0  0
 11 99  1  0  0  0
 12 13  2  0  0  0
 12100  1  0  0  0
 13 14  1  0  0  0
 13 31  1  0  0  0
 14 15  2  0  0  0
 14101  1  0  0  0
 15102  1  0  0  0
 16 17  2  0  0  0
 16 21  1  0  0  0
 16 31  1  0  0  0
 17 18  1  0  0  0
 17103  1  0  0  0
 18 19  2  0  0  0
 18104  1  0  0  0
 19 20  1  0  0  0
 19 24  1  0  0  0
 20 21  2  0  0  0
 20105  1  0  0  0
 21 23  1  0  0  0
 22 28  1  0  0  0
 22 32  2  0  0  0
 26 27  1  0  0  0
 28106  1  0  0  0
 28107  1  0  0  0
 29108  1  0  0  0
 29109  1  0  0  0
 33 34  1  0  0  0
 33 66  1  0  0  0
 33 70  2  0  0  0
 34 36  1  0  0  0
 34 59  1  0  0  0
 34110  1  0  0  0
 35 44  2  0  0  0
 35 45  1  0  0  0
 35 68  1  0  0  0
 36 56  1  0  0  0
 36111  1  0  0  0
 37 39  1  0  0  0
 37 47  1  0  0  0
 37 66  1  0  0  0
 37112  1  0  0  0
 38 43  2  0  0  0
 38 46  1  0  0  0
 38 47  1  0  0  0
 39 64  1  0  0  0
 39 67  2  0  0  0
 40 52  1  0  0  0
 40 53  2  0  0  0
 40 58  1  0  0  0
 41113  1  0  0  0
 41114  1  0  0  0
 41115  1  0  0  0
 41 48  1  0  0  0
 42 43  1  0  0  0
 42 66  1  0  0  0
 42116  1  0  0  0
 42117  1  0  0  0
 43 44  1  0  0  0
 44118  1  0  0  0
 45 46  2  0  0  0
 45119  1  0  0  0
 46120  1  0  0  0
 47121  1  0  0  0
 47122  1  0  0  0
 48 56  1  0  0  0
 48 65  1  0  0  0
 48123  1  0  0  0
 49 50  1  0  0  0
 49 53  1  0  0  0
 49 64  1  0  0  0
 49124  1  0  0  0
 50 51  1  0  0  0
 50125  1  0  0  0
 50126  1  0  0  0
 51 52  1  0  0  0
 51127  1  0  0  0
 51128  1  0  0  0
 52129  1  0  0  0
 52130  1  0  0  0
 53 54  1  0  0  0
 54 55  2  0  0  0
 54131  1  0  0  0
 55 57  1  0  0  0
 55132  1  0  0  0
 56 69  2  0  0  0
 57 58  2  0  0  0
 57133  1  0  0  0
 58134  1  0  0  0
 59 60  1  0  0  0
 59 61  1  0  0  0
 59 62  1  0  0  0
 60135  1  0  0  0
 60136  1  0  0  0
 60137  1  0  0  0
 61138  1  0  0  0
 61139  1  0  0  0
 61140  1  0  0  0
 62141  1  0  0  0
 62142  1  0  0  0
 62143  1  0  0  0
 63 65  1  0  0  0
 63144  1  0  0  0
 63145  1  0  0  0
 63146  1  0  0  0
 64147  1  0  0  0
 65148  1  0  0  0
 68 82  1  0  0  0
 71 72  2  0  0  0
 71 73  1  0  0  0
 71149  1  0  0  0
 72 75  1  0  0  0
 72150  1  0  0  0
 73 76  2  0  0  0
 73151  1  0  0  0
 74 75  2  0  0  0
 74 76  1  0  0  0
 74152  1  0  0  0
 75 87  1  0  0  0
 76 88  1  0  0  0
 77 78  1  0  0  0
 77 79  1  0  0  0
 77 81  2  0  0  0
 78 80  2  0  0  0
 78 84  1  0  0  0
 79 87  1  0  0  0
 79 89  2  0  0  0
 80153  1  0  0  0
 80154  1  0  0  0
 81 83  1  0  0  0
 81155  1  0  0  0
 82 83  2  0  0  0
 82156  1  0  0  0
 83 86  1  0  0  0
 84 87  1  0  0  0
 84157  1  0  0  0
 84158  1  0  0  0
 85 86  1  0  0  0
 85159  1  0  0  0
 85160  1  0  0  0
 85161  1  0  0  0
 86162  1  0  0  0
 86163  1  0  0  0
 88164  1  0  0  0
M  ISO  4   1 100  68 101  82 101  88 100
M  END
> <chiral flag>
0

> <version>
0

> <s_m_source_file>
/data/baiqing/PycharmProjects/Reinvent-master-3.2/result/LINK_invent/BTK/process_docking_weight1_custom_product_contain_oxygen_bond_distance_aromatic_linkinvent_7_9_3/rearranged_h_0077.sdf

> <i_m_source_file_index>
96

> <r_mmod_Potential_Energy-OPLS-2005>
230.960479736328

> <r_mmod_Stretch_Energy-OPLS-2005>
46.0141639709473

> <r_mmod_Bend_Energy-OPLS-2005>
176.52214050293

> <r_mmod_Torsional_Energy-OPLS-2005>
360.211486816406

> <r_mmod_Improper_Torsional_Energy-OPLS-2005>
11.5134172439575

> <r_mmod_Van_der_Waal_Energy-OPLS-2005>
145.275054931641

> <r_mmod_Electrostatic_Energy-OPLS-2005>
-319.556030273438

> <r_mmod_Solvation_Energy-OPLS-2005>
-208.409393310547

> <b_mmod_Minimization_Converged-OPLS-2005>
0

> <r_mmod_RMS_Derivative-OPLS-2005>
3.61211681365967

$$$$
96
                    3D
 Structure written by MMmdl.
149157  0  0  1  0            999 V2000
  -30.6158  -14.8229   20.4272 C   0  0  0  0  0  0
  -30.4281  -12.5010   19.4972 C   0  0  0  0  0  0
  -29.5148  -12.5084   18.2519 C   0  0  0  0  0  0
  -28.0436  -12.3219   18.6651 C   0  0  0  0  0  0
  -27.6359  -13.2439   19.8457 C   0  0  2  0  0  0
  -28.6793  -13.2364   20.9846 C   0  0  0  0  0  0
  -25.2479  -13.8219   20.5709 C   0  0  0  0  0  0
  -24.1783  -13.0446   20.9213 C   0  0  0  0  0  0
  -24.6390  -11.6928   20.8747 C   0  0  0  0  0  0
  -23.9071  -10.4295   21.0395 C   0  0  0  0  0  0
  -24.3620   -9.4212   21.9179 C   0  0  0  0  0  0
  -23.6291   -8.2247   22.0752 C   0  0  0  0  0  0
  -22.4274   -8.0279   21.3541 C   0  0  0  0  0  0
  -21.9911   -9.0253   20.4645 C   0  0  0  0  0  0
  -22.7239  -10.2131   20.3049 C   0  0  0  0  0  0
  -21.6858   -6.0728   22.5274 C   0  0  0  0  0  0
  -21.4025   -6.5634   23.8209 C   0  0  0  0  0  0
  -21.3667   -5.6790   24.9175 C   0  0  0  0  0  0
  -21.6044   -4.3051   24.7228 C   0  0  0  0  0  0
  -21.8817   -3.8136   23.4349 C   0  0  0  0  0  0
  -21.9193   -4.6952   22.3403 C   0  0  0  0  0  0
  -22.7809  -13.5218   21.1867 C   0  0  0  0  0  0
  -22.1658   -4.2132   21.0982 F   0  0  0  0  0  0
  -21.5631   -3.4537   25.7743 F   0  0  0  0  0  0
  -29.9734  -13.5964   20.3932 N   0  0  0  0  0  0
  -26.2915  -12.9448   20.3284 N   0  0  0  0  0  0
  -25.9330  -11.6579   20.5761 N   0  0  0  0  0  0
  -22.0459  -12.8205   22.0424 N   0  0  0  0  0  0
  -25.4147  -15.1947   20.4132 N   0  0  0  0  0  0
  -31.8181  -14.8392   20.1541 O   0  0  0  0  0  0
  -21.6648   -6.8869   21.4234 O   0  0  0  0  0  0
  -22.3485  -14.5522   20.6711 O   0  0  0  0  0  0
  -24.6372  -31.8515   23.1957 C   0  0  0  0  0  0
  -25.9176  -32.4733   23.8326 C   0  0  1  0  0  0
  -27.2137  -27.2131   20.1412 C   0  0  0  0  0  0
  -25.5962  -33.8541   24.2247 N   0  0  0  0  0  0
  -23.4384  -30.4724   21.5390 C   0  0  2  0  0  0
  -24.8898  -28.9181   20.1056 C   0  0  0  0  0  0
  -22.7539  -29.4577   22.4881 C   0  0  0  0  0  0
  -18.0303  -28.1388   22.8483 C   0  0  0  0  0  0
  -24.1501  -36.7280   23.2638 C   0  0  0  0  0  0
  -25.9892  -30.7476   21.3875 C   0  0  0  0  0  0
  -26.0639  -29.3674   20.7264 C   0  0  0  0  0  0
  -27.2321  -28.5264   20.7366 C   0  0  0  0  0  0
  -26.0244  -26.8528   19.4741 C   0  0  0  0  0  0
  -24.8777  -27.6707   19.4652 C   0  0  0  0  0  0
  -23.6619  -29.8098   20.1546 C   0  0  0  0  0  0
  -25.4125  -36.3059   24.0318 C   0  0  1  0  0  0
  -20.5908  -28.3712   23.1240 C   0  0  2  0  0  0
  -20.6786  -26.9424   22.5392 C   0  0  0  0  0  0
  -19.5758  -26.6382   21.5202 C   0  0  0  0  0  0
  -18.1944  -26.7926   22.1625 C   0  0  0  0  0  0
  -19.1557  -28.8867   23.2856 C   0  0  0  0  0  0
  -18.9480  -30.1467   23.8876 C   0  0  0  0  0  0
  -17.6473  -30.6590   24.0554 C   0  0  0  0  0  0
  -25.9064  -34.9428   23.5079 C   0  0  0  0  0  0
  -16.5361  -29.9079   23.6329 C   0  0  0  0  0  0
  -16.7288  -28.6495   23.0354 C   0  0  0  0  0  0
  -26.4526  -31.6568   25.0735 C   0  0  0  0  0  0
  -25.3742  -31.3739   26.1449 C   0  0  0  0  0  0
  -27.0366  -30.2968   24.6273 C   0  0  0  0  0  0
  -27.6088  -32.4304   25.7504 C   0  0  0  0  0  0
  -27.5581  -37.1797   24.8469 C   0  0  0  0  0  0
  -21.4241  -29.3054   22.3621 N   0  0  0  0  0  0
  -26.4303  -37.3755   23.9397 N   0  0  0  0  0  0
  -24.7073  -31.0423   22.0969 N   0  0  0  0  0  0
  -23.4209  -28.8117   23.3001 O   0  0  0  0  0  0
  -28.2195  -26.2048   20.2165 O   0  0  0  0  0  0
  -26.5638  -34.8910   22.4651 O   0  0  0  0  0  0
  -23.5507  -32.1363   23.7214 O   0  0  0  0  0  0
  -31.7663  -19.0560   19.1697 C   0  0  0  0  0  0
  -30.9738  -20.1698   19.5022 C   0  0  0  0  0  0
  -31.4014  -17.7444   19.5277 C   0  0  0  0  0  0
  -29.7583  -20.0357   20.2104 C   0  0  0  0  0  0
  -30.2214  -17.4594   20.2573 C   0  0  0  0  0  0
  -29.4091  -18.6484   20.5828 C   0  0  0  0  0  0
  -28.1205  -23.5960   20.8491 C   0  0  0  0  0  0
  -27.8138  -24.9727   20.8393 C   0  0  0  0  0  0
  -29.0817  -22.6406   20.1828 C   0  0  0  0  0  0
  -28.9669  -21.2793   20.5433 N   0  0  0  0  0  0
  -29.8860  -16.0168   20.5850 N   0  0  0  0  0  0
  -29.9098  -23.0283   19.3575 O   0  0  0  0  0  0
  -28.2588  -18.4509   21.2713 F   0  0  0  0  0  0
  -31.4703  -12.6142   19.1947 H   0  0  0  0  0  0
  -30.3750  -11.5413   20.0132 H   0  0  0  0  0  0
  -29.8132  -11.7201   17.5596 H   0  0  0  0  0  0
  -29.6295  -13.4511   17.7141 H   0  0  0  0  0  0
  -27.9163  -11.2771   18.9516 H   0  0  0  0  0  0
  -27.3852  -12.4842   17.8110 H   0  0  0  0  0  0
  -27.6125  -14.2544   19.4369 H   0  0  0  0  0  0
  -28.7325  -12.2568   21.4620 H   0  0  0  0  0  0
  -28.4024  -13.9453   21.7666 H   0  0  0  0  0  0
  -25.2758   -9.5696   22.4760 H   0  0  0  0  0  0
  -23.9998   -7.4643   22.7477 H   0  0  0  0  0  0
  -21.0843   -8.8772   19.8951 H   0  0  0  0  0  0
  -22.3691  -10.9672   19.6161 H   0  0  0  0  0  0
  -21.2024   -7.6143   23.9708 H   0  0  0  0  0  0
  -21.1496   -6.0524   25.9079 H   0  0  0  0  0  0
  -22.0591   -2.7594   23.2859 H   0  0  0  0  0  0
  -22.4090  -11.9875   22.4819 H   0  0  0  0  0  0
  -21.1071  -13.1217   22.2621 H   0  0  0  0  0  0
  -24.6464  -15.8466   20.5298 H   0  0  0  0  0  0
  -26.2621  -15.6396   20.0847 H   0  0  0  0  0  0
  -26.7241  -32.5365   23.1065 H   0  0  0  0  0  0
  -25.0119  -33.9673   25.0399 H   0  0  0  0  0  0
  -22.7375  -31.2966   21.3899 H   0  0  0  0  0  0
  -23.3757  -35.9623   23.3324 H   0  0  0  0  0  0
  -24.3587  -36.8884   22.2050 H   0  0  0  0  0  0
  -23.7268  -37.6494   23.6647 H   0  0  0  0  0  0
  -26.1353  -31.5088   20.6197 H   0  0  0  0  0  0
  -26.8628  -30.7964   22.0256 H   0  0  0  0  0  0
  -28.1226  -28.8545   21.2539 H   0  0  0  0  0  0
  -25.9654  -25.8868   18.9923 H   0  0  0  0  0  0
  -23.9815  -27.3214   18.9708 H   0  0  0  0  0  0
  -23.7923  -30.5897   19.4028 H   0  0  0  0  0  0
  -22.7785  -29.2491   19.8440 H   0  0  0  0  0  0
  -25.1308  -36.1911   25.0809 H   0  0  0  0  0  0
  -20.9998  -28.3302   24.1362 H   0  0  0  0  0  0
  -20.5680  -26.2336   23.3610 H   0  0  0  0  0  0
  -21.6651  -26.7433   22.1185 H   0  0  0  0  0  0
  -19.6927  -25.6291   21.1240 H   0  0  0  0  0  0
  -19.6684  -27.3185   20.6722 H   0  0  0  0  0  0
  -17.4200  -26.6668   21.4043 H   0  0  0  0  0  0
  -18.0366  -26.0073   22.9030 H   0  0  0  0  0  0
  -19.7954  -30.7291   24.2243 H   0  0  0  0  0  0
  -17.5021  -31.6267   24.5162 H   0  0  0  0  0  0
  -15.5360  -30.2971   23.7659 H   0  0  0  0  0  0
  -15.8694  -28.0798   22.7077 H   0  0  0  0  0  0
  -24.5907  -30.7102   25.7776 H   0  0  0  0  0  0
  -24.8951  -32.2916   26.4873 H   0  0  0  0  0  0
  -25.8051  -30.8908   27.0229 H   0  0  0  0  0  0
  -26.2958  -29.6709   24.1285 H   0  0  0  0  0  0
  -27.3998  -29.7247   25.4824 H   0  0  0  0  0  0
  -27.8868  -30.4212   23.9561 H   0  0  0  0  0  0
  -27.2712  -33.3626   26.2046 H   0  0  0  0  0  0
  -28.3917  -32.6823   25.0335 H   0  0  0  0  0  0
  -28.0733  -31.8445   26.5445 H   0  0  0  0  0  0
  -28.2603  -38.0088   24.7484 H   0  0  0  0  0  0
  -28.1071  -36.2615   24.6335 H   0  0  0  0  0  0
  -27.2294  -37.1486   25.8873 H   0  0  0  0  0  0
  -20.9446  -29.8781   21.6821 H   0  0  0  0  0  0
  -26.0189  -38.2837   24.1378 H   0  0  0  0  0  0
  -32.6839  -19.2119   18.6192 H   0  0  0  0  0  0
  -31.3409  -21.1360   19.1960 H   0  0  0  0  0  0
  -32.0698  -16.9638   19.2035 H   0  0  0  0  0  0
  -27.4739  -23.0739   21.5394 H   0  0  0  0  0  0
  -27.0087  -25.2206   21.5195 H   0  0  0  0  0  0
  -28.1983  -21.0973   21.1737 H   0  0  0  0  0  0
  -28.9374  -15.8774   20.8980 H   0  0  0  0  0  0
  1 25  1  0  0  0
  1 30  2  0  0  0
  1 81  1  0  0  0
  2  3  1  0  0  0
  2 25  1  0  0  0
  2 84  1  0  0  0
  2 85  1  0  0  0
  3  4  1  0  0  0
  3 86  1  0  0  0
  3 87  1  0  0  0
  4  5  1  0  0  0
  4 88  1  0  0  0
  4 89  1  0  0  0
  5  6  1  0  0  0
  5 26  1  0  0  0
  5 90  1  0  0  0
  6 25  1  0  0  0
  6 91  1  0  0  0
  6 92  1  0  0  0
  7  8  2  0  0  0
  7 26  1  0  0  0
  7 29  1  0  0  0
  8  9  1  0  0  0
  8 22  1  0  0  0
  9 10  1  0  0  0
  9 27  2  0  0  0
 10 11  2  0  0  0
 10 15  1  0  0  0
 11 12  1  0  0  0
 11 93  1  0  0  0
 12 13  2  0  0  0
 12 94  1  0  0  0
 13 14  1  0  0  0
 13 31  1  0  0  0
 14 15  2  0  0  0
 14 95  1  0  0  0
 15 96  1  0  0  0
 16 17  2  0  0  0
 16 21  1  0  0  0
 16 31  1  0  0  0
 17 18  1  0  0  0
 17 97  1  0  0  0
 18 19  2  0  0  0
 18 98  1  0  0  0
 19 20  1  0  0  0
 19 24  1  0  0  0
 20 21  2  0  0  0
 20 99  1  0  0  0
 21 23  1  0  0  0
 22 28  1  0  0  0
 22 32  2  0  0  0
 26 27  1  0  0  0
 28100  1  0  0  0
 28101  1  0  0  0
 29102  1  0  0  0
 29103  1  0  0  0
 33 34  1  0  0  0
 33 66  1  0  0  0
 33 70  2  0  0  0
 34 36  1  0  0  0
 34 59  1  0  0  0
 34104  1  0  0  0
 35 44  2  0  0  0
 35 45  1  0  0  0
 35 68  1  0  0  0
 36 56  1  0  0  0
 36105  1  0  0  0
 37 39  1  0  0  0
 37 47  1  0  0  0
 37 66  1  0  0  0
 37106  1  0  0  0
 38 43  2  0  0  0
 38 46  1  0  0  0
 38 47  1  0  0  0
 39 64  1  0  0  0
 39 67  2  0  0  0
 40 52  1  0  0  0
 40 53  2  0  0  0
 40 58  1  0  0  0
 41107  1  0  0  0
 41108  1  0  0  0
 41109  1  0  0  0
 41 48  1  0  0  0
 42 43  1  0  0  0
 42 66  1  0  0  0
 42110  1  0  0  0
 42111  1  0  0  0
 43 44  1  0  0  0
 44112  1  0  0  0
 45 46  2  0  0  0
 45113  1  0  0  0
 46114  1  0  0  0
 47115  1  0  0  0
 47116  1  0  0  0
 48 56  1  0  0  0
 48 65  1  0  0  0
 48117  1  0  0  0
 49 50  1  0  0  0
 49 53  1  0  0  0
 49 64  1  0  0  0
 49118  1  0  0  0
 50 51  1  0  0  0
 50119  1  0  0  0
 50120  1  0  0  0
 51 52  1  0  0  0
 51121  1  0  0  0
 51122  1  0  0  0
 52123  1  0  0  0
 52124  1  0  0  0
 53 54  1  0  0  0
 54 55  2  0  0  0
 54125  1  0  0  0
 55 57  1  0  0  0
 55126  1  0  0  0
 56 69  2  0  0  0
 57 58  2  0  0  0
 57127  1  0  0  0
 58128  1  0  0  0
 59 60  1  0  0  0
 59 61  1  0  0  0
 59 62  1  0  0  0
 60129  1  0  0  0
 60130  1  0  0  0
 60131  1  0  0  0
 61132  1  0  0  0
 61133  1  0  0  0
 61134  1  0  0  0
 62135  1  0  0  0
 62136  1  0  0  0
 62137  1  0  0  0
 63 65  1  0  0  0
 63138  1  0  0  0
 63139  1  0  0  0
 63140  1  0  0  0
 64141  1  0  0  0
 65142  1  0  0  0
 68 78  1  0  0  0
 71 72  2  0  0  0
 71 73  1  0  0  0
 71143  1  0  0  0
 72 74  1  0  0  0
 72144  1  0  0  0
 73 75  2  0  0  0
 73145  1  0  0  0
 74 76  2  0  0  0
 74 80  1  0  0  0
 75 76  1  0  0  0
 75 81  1  0  0  0
 76 83  1  0  0  0
 77 78  2  0  0  0
 77 79  1  0  0  0
 77146  1  0  0  0
 78147  1  0  0  0
 79 80  1  0  0  0
 79 82  2  0  0  0
 80148  1  0  0  0
 81149  1  0  0  0
M  ISO  4   1 100  68 101  78 101  81 100
M  END
> <chiral flag>
0

> <version>
0

> <s_m_source_file>
/data/baiqing/PycharmProjects/Reinvent-master-3.2/result/LINK_invent/BTK/process_docking_weight1_custom_product_contain_oxygen_bond_distance_aromatic_linkinvent_7_9_3/rearranged_h_0077.sdf

> <i_m_source_file_index>
97

> <r_mmod_Potential_Energy-OPLS-2005>
267.473724365234

> <r_mmod_Stretch_Energy-OPLS-2005>
164.477188110352

> <r_mmod_Bend_Energy-OPLS-2005>
243.644012451172

> <r_mmod_Torsional_Energy-OPLS-2005>
228.155899047852

> <r_mmod_Improper_Torsional_Energy-OPLS-2005>
4.10193920135498

> <r_mmod_Van_der_Waal_Energy-OPLS-2005>
146.459579467773

> <r_mmod_Electrostatic_Energy-OPLS-2005>
-427.460296630859

> <r_mmod_Solvation_Energy-OPLS-2005>
-224.05729675293

> <b_mmod_Minimization_Converged-OPLS-2005>
0

> <r_mmod_RMS_Derivative-OPLS-2005>
1.28998219966888

$$$$
