0
                    3D
 Structure written by MMmdl.
163172  0  0  1  0            999 V2000
  -30.7147  -14.4491   20.4566 C   0  0  0  0  0  0
  -30.4040  -12.2706   19.4180 C   0  0  0  0  0  0
  -29.4999  -12.5424   18.1982 C   0  0  0  0  0  0
  -28.0154  -12.4100   18.5918 C   0  0  0  0  0  0
  -27.6583  -13.2221   19.8677 C   0  0  2  0  0  0
  -28.7053  -13.0185   20.9896 C   0  0  0  0  0  0
  -25.2566  -13.8185   20.5688 C   0  0  0  0  0  0
  -24.1840  -13.0427   20.9179 C   0  0  0  0  0  0
  -24.6420  -11.6906   20.8735 C   0  0  0  0  0  0
  -23.9107  -10.4265   21.0409 C   0  0  0  0  0  0
  -24.3645   -9.4178   21.9181 C   0  0  0  0  0  0
  -23.6304   -8.2225   22.0789 C   0  0  0  0  0  0
  -22.4292   -8.0285   21.3563 C   0  0  0  0  0  0
  -21.9925   -9.0252   20.4663 C   0  0  0  0  0  0
  -22.7282  -10.2108   20.3055 C   0  0  0  0  0  0
  -21.6823   -6.0754   22.5283 C   0  0  0  0  0  0
  -21.4015   -6.5654   23.8224 C   0  0  0  0  0  0
  -21.3681   -5.6810   24.9185 C   0  0  0  0  0  0
  -21.6043   -4.3072   24.7227 C   0  0  0  0  0  0
  -21.8802   -3.8159   23.4348 C   0  0  0  0  0  0
  -21.9187   -4.6982   22.3409 C   0  0  0  0  0  0
  -22.7866  -13.5222   21.1835 C   0  0  0  0  0  0
  -22.1649   -4.2171   21.0988 F   0  0  0  0  0  0
  -21.5639   -3.4546   25.7732 F   0  0  0  0  0  0
  -30.0384  -13.2734   20.4242 N   0  0  0  0  0  0
  -26.3010  -12.9388   20.3304 N   0  0  0  0  0  0
  -25.9355  -11.6525   20.5703 N   0  0  0  0  0  0
  -22.0492  -12.8208   22.0371 N   0  0  0  0  0  0
  -25.4250  -15.1913   20.4184 N   0  0  0  0  0  0
  -31.9216  -14.5329   20.2376 O   0  0  0  0  0  0
  -21.6625   -6.8917   21.4258 O   0  0  0  0  0  0
  -22.3511  -14.5492   20.6649 O   0  0  0  0  0  0
  -24.6157  -31.8668   23.2090 C   0  0  0  0  0  0
  -25.9037  -32.4814   23.8406 C   0  0  1  0  0  0
  -27.2398  -27.4193   20.0827 C   0  0  0  0  0  0
  -25.5861  -33.8605   24.2316 N   0  0  0  0  0  0
  -23.4084  -30.4884   21.5472 C   0  0  2  0  0  0
  -24.8548  -28.9559   20.1050 C   0  0  0  0  0  0
  -22.7432  -29.4643   22.4948 C   0  0  0  0  0  0
  -18.0279  -28.1381   22.8516 C   0  0  0  0  0  0
  -24.1472  -36.7336   23.2644 C   0  0  0  0  0  0
  -25.9393  -30.8136   21.3783 C   0  0  0  0  0  0
  -26.0098  -29.4484   20.7257 C   0  0  0  0  0  0
  -27.1927  -28.6751   20.7341 C   0  0  0  0  0  0
  -26.0759  -26.9661   19.4205 C   0  0  0  0  0  0
  -24.8839  -27.7150   19.4481 C   0  0  0  0  0  0
  -23.6186  -29.8235   20.1588 C   0  0  0  0  0  0
  -25.4094  -36.3110   24.0342 C   0  0  1  0  0  0
  -20.5876  -28.3678   23.1302 C   0  0  2  0  0  0
  -20.6780  -26.9404   22.5429 C   0  0  0  0  0  0
  -19.5742  -26.6387   21.5236 C   0  0  0  0  0  0
  -18.1914  -26.7944   22.1628 C   0  0  0  0  0  0
  -19.1532  -28.8841   23.2917 C   0  0  0  0  0  0
  -18.9462  -30.1450   23.8930 C   0  0  0  0  0  0
  -17.6466  -30.6605   24.0560 C   0  0  0  0  0  0
  -25.9030  -34.9469   23.5137 C   0  0  0  0  0  0
  -16.5357  -29.9117   23.6303 C   0  0  0  0  0  0
  -16.7273  -28.6513   23.0368 C   0  0  0  0  0  0
  -26.4431  -31.6624   25.0766 C   0  0  0  0  0  0
  -25.3685  -31.3767   26.1516 C   0  0  0  0  0  0
  -27.0287  -30.3056   24.6223 C   0  0  0  0  0  0
  -27.5991  -32.4361   25.7531 C   0  0  0  0  0  0
  -27.5585  -37.1816   24.8449 C   0  0  0  0  0  0
  -21.4156  -29.3035   22.3682 N   0  0  0  0  0  0
  -26.4284  -37.3803   23.9412 N   0  0  0  0  0  0
  -24.6721  -31.0733   22.1016 N   0  0  0  0  0  0
  -23.4188  -28.8185   23.3009 O   0  0  0  0  0  0
  -28.4134  -26.6882   20.1485 O   0  0  0  0  0  0
  -26.5603  -34.8929   22.4709 O   0  0  0  0  0  0
  -23.5331  -32.1421   23.7447 O   0  0  0  0  0  0
  -31.3840  -17.8677   17.8128 C   0  0  0  0  0  0
  -30.8604  -19.0936   18.2326 C   0  0  0  0  0  0
  -31.0619  -16.6993   18.5203 C   0  0  0  0  0  0
  -29.6712  -17.9860   20.0598 C   0  0  0  0  0  0
  -29.9922  -19.1687   19.3401 C   0  0  0  0  0  0
  -30.2355  -16.7401   19.6760 C   0  0  0  0  0  0
  -28.3003  -20.6517   20.6624 C   0  0  0  0  0  0
  -30.5102  -21.5173   20.1835 C   0  0  0  0  0  0
  -27.6763  -22.0663   20.6214 C   0  0  0  0  0  0
  -30.0318  -22.9785   20.0909 C   0  0  0  0  0  0
  -29.4431  -20.5588   19.6601 C   0  0  1  0  0  0
  -27.9416  -24.2472   19.5239 C   0  0  0  0  0  0
  -28.6651  -25.6028   19.2409 C   0  0  0  0  0  0
  -29.9401  -15.5529   20.4264 N   0  0  0  0  0  0
  -28.5954  -23.2490   20.4394 N   0  3  1  0  0  0
  -31.4557  -12.3184   19.1357 H   0  0  0  0  0  0
  -30.2391  -11.2625   19.8033 H   0  0  0  0  0  0
  -29.7454  -11.8703   17.3766 H   0  0  0  0  0  0
  -29.6851  -13.5525   17.8196 H   0  0  0  0  0  0
  -27.7962  -11.3521   18.7390 H   0  0  0  0  0  0
  -27.3903  -12.7404   17.7606 H   0  0  0  0  0  0
  -27.6905  -14.2708   19.5761 H   0  0  0  0  0  0
  -28.6644  -11.9967   21.3702 H   0  0  0  0  0  0
  -28.5066  -13.6667   21.8456 H   0  0  0  0  0  0
  -25.2791   -9.5625   22.4746 H   0  0  0  0  0  0
  -23.9972   -7.4626   22.7539 H   0  0  0  0  0  0
  -21.0860   -8.8810   19.8973 H   0  0  0  0  0  0
  -22.3792  -10.9651   19.6160 H   0  0  0  0  0  0
  -21.1991   -7.6154   23.9743 H   0  0  0  0  0  0
  -21.1536   -6.0536   25.9093 H   0  0  0  0  0  0
  -22.0563   -2.7615   23.2843 H   0  0  0  0  0  0
  -22.4064  -11.9864   22.4747 H   0  0  0  0  0  0
  -21.1118  -13.1304   22.2573 H   0  0  0  0  0  0
  -24.6547  -15.8406   20.5474 H   0  0  0  0  0  0
  -26.2609  -15.6382   20.0630 H   0  0  0  0  0  0
  -26.7114  -32.5513   23.1175 H   0  0  0  0  0  0
  -24.9942  -33.9758   25.0411 H   0  0  0  0  0  0
  -22.7015  -31.3075   21.4079 H   0  0  0  0  0  0
  -23.3721  -35.9684   23.3282 H   0  0  0  0  0  0
  -24.3573  -36.8976   22.2066 H   0  0  0  0  0  0
  -23.7229  -37.6539   23.6673 H   0  0  0  0  0  0
  -26.0701  -31.5735   20.6067 H   0  0  0  0  0  0
  -26.8209  -30.8573   22.0068 H   0  0  0  0  0  0
  -28.0783  -29.0383   21.2361 H   0  0  0  0  0  0
  -26.0566  -26.0438   18.8620 H   0  0  0  0  0  0
  -24.0060  -27.3440   18.9345 H   0  0  0  0  0  0
  -23.7315  -30.6004   19.4028 H   0  0  0  0  0  0
  -22.7416  -29.2460   19.8588 H   0  0  0  0  0  0
  -25.1258  -36.1983   25.0839 H   0  0  0  0  0  0
  -20.9989  -28.3279   24.1415 H   0  0  0  0  0  0
  -20.5698  -26.2298   23.3639 H   0  0  0  0  0  0
  -21.6651  -26.7459   22.1210 H   0  0  0  0  0  0
  -19.6906  -25.6299   21.1267 H   0  0  0  0  0  0
  -19.6685  -27.3202   20.6769 H   0  0  0  0  0  0
  -17.4202  -26.6719   21.4009 H   0  0  0  0  0  0
  -18.0278  -26.0090   22.9008 H   0  0  0  0  0  0
  -19.7933  -30.7246   24.2347 H   0  0  0  0  0  0
  -17.5020  -31.6280   24.5160 H   0  0  0  0  0  0
  -15.5361  -30.3024   23.7616 H   0  0  0  0  0  0
  -15.8677  -28.0834   22.7091 H   0  0  0  0  0  0
  -24.5800  -30.7186   25.7843 H   0  0  0  0  0  0
  -24.8955  -32.2954   26.5006 H   0  0  0  0  0  0
  -25.8015  -30.8882   27.0259 H   0  0  0  0  0  0
  -26.2886  -29.6830   24.1193 H   0  0  0  0  0  0
  -27.3910  -29.7289   25.4743 H   0  0  0  0  0  0
  -27.8771  -30.4338   23.9500 H   0  0  0  0  0  0
  -27.2573  -33.3615   26.2184 H   0  0  0  0  0  0
  -28.3763  -32.7016   25.0351 H   0  0  0  0  0  0
  -28.0719  -31.8470   26.5402 H   0  0  0  0  0  0
  -28.2562  -38.0148   24.7532 H   0  0  0  0  0  0
  -28.1115  -36.2683   24.6206 H   0  0  0  0  0  0
  -27.2322  -37.1391   25.8854 H   0  0  0  0  0  0
  -20.9329  -29.8750   21.6887 H   0  0  0  0  0  0
  -26.0165  -38.2878   24.1428 H   0  0  0  0  0  0
  -32.0325  -17.8304   16.9478 H   0  0  0  0  0  0
  -31.1141  -19.9913   17.6865 H   0  0  0  0  0  0
  -31.4781  -15.7705   18.1521 H   0  0  0  0  0  0
  -29.0053  -18.0237   20.9094 H   0  0  0  0  0  0
  -27.5263  -19.9239   20.4169 H   0  0  0  0  0  0
  -28.6448  -20.4007   21.6655 H   0  0  0  0  0  0
  -30.7890  -21.2523   21.2032 H   0  0  0  0  0  0
  -31.4273  -21.4267   19.6025 H   0  0  0  0  0  0
  -27.0802  -22.2191   21.5207 H   0  0  0  0  0  0
  -26.9520  -22.0515   19.8071 H   0  0  0  0  0  0
  -30.2400  -23.3116   19.0745 H   0  0  0  0  0  0
  -30.6555  -23.5915   20.7450 H   0  0  0  0  0  0
  -29.0733  -20.9347   18.7024 H   0  0  0  0  0  0
  -27.8294  -23.7541   18.5553 H   0  0  0  0  0  0
  -26.9296  -24.4165   19.8855 H   0  0  0  0  0  0
  -28.4027  -25.9424   18.2385 H   0  0  0  0  0  0
  -29.7438  -25.4651   19.1994 H   0  0  0  0  0  0
  -28.9957  -15.4453   20.7625 H   0  0  0  0  0  0
  -28.6347  -23.6869   21.3497 H   0  0  0  0  0  0
  1 25  1  0  0  0
  1 30  2  0  0  0
  1 84  1  0  0  0
  2  3  1  0  0  0
  2 25  1  0  0  0
  2 86  1  0  0  0
  2 87  1  0  0  0
  3  4  1  0  0  0
  3 88  1  0  0  0
  3 89  1  0  0  0
  4  5  1  0  0  0
  4 90  1  0  0  0
  4 91  1  0  0  0
  5  6  1  0  0  0
  5 26  1  0  0  0
  5 92  1  0  0  0
  6 25  1  0  0  0
  6 93  1  0  0  0
  6 94  1  0  0  0
  7  8  2  0  0  0
  7 26  1  0  0  0
  7 29  1  0  0  0
  8  9  1  0  0  0
  8 22  1  0  0  0
  9 10  1  0  0  0
  9 27  2  0  0  0
 10 11  2  0  0  0
 10 15  1  0  0  0
 11 12  1  0  0  0
 11 95  1  0  0  0
 12 13  2  0  0  0
 12 96  1  0  0  0
 13 14  1  0  0  0
 13 31  1  0  0  0
 14 15  2  0  0  0
 14 97  1  0  0  0
 15 98  1  0  0  0
 16 17  2  0  0  0
 16 21  1  0  0  0
 16 31  1  0  0  0
 17 18  1  0  0  0
 17 99  1  0  0  0
 18 19  2  0  0  0
 18100  1  0  0  0
 19 20  1  0  0  0
 19 24  1  0  0  0
 20 21  2  0  0  0
 20101  1  0  0  0
 21 23  1  0  0  0
 22 28  1  0  0  0
 22 32  2  0  0  0
 26 27  1  0  0  0
 28102  1  0  0  0
 28103  1  0  0  0
 29104  1  0  0  0
 29105  1  0  0  0
 33 34  1  0  0  0
 33 66  1  0  0  0
 33 70  2  0  0  0
 34 36  1  0  0  0
 34 59  1  0  0  0
 34106  1  0  0  0
 35 44  2  0  0  0
 35 45  1  0  0  0
 35 68  1  0  0  0
 36 56  1  0  0  0
 36107  1  0  0  0
 37 39  1  0  0  0
 37 47  1  0  0  0
 37 66  1  0  0  0
 37108  1  0  0  0
 38 43  2  0  0  0
 38 46  1  0  0  0
 38 47  1  0  0  0
 39 64  1  0  0  0
 39 67  2  0  0  0
 40 52  1  0  0  0
 40 53  2  0  0  0
 40 58  1  0  0  0
 41109  1  0  0  0
 41110  1  0  0  0
 41111  1  0  0  0
 41 48  1  0  0  0
 42 43  1  0  0  0
 42 66  1  0  0  0
 42112  1  0  0  0
 42113  1  0  0  0
 43 44  1  0  0  0
 44114  1  0  0  0
 45 46  2  0  0  0
 45115  1  0  0  0
 46116  1  0  0  0
 47117  1  0  0  0
 47118  1  0  0  0
 48 56  1  0  0  0
 48 65  1  0  0  0
 48119  1  0  0  0
 49 50  1  0  0  0
 49 53  1  0  0  0
 49 64  1  0  0  0
 49120  1  0  0  0
 50 51  1  0  0  0
 50121  1  0  0  0
 50122  1  0  0  0
 51 52  1  0  0  0
 51123  1  0  0  0
 51124  1  0  0  0
 52125  1  0  0  0
 52126  1  0  0  0
 53 54  1  0  0  0
 54 55  2  0  0  0
 54127  1  0  0  0
 55 57  1  0  0  0
 55128  1  0  0  0
 56 69  2  0  0  0
 57 58  2  0  0  0
 57129  1  0  0  0
 58130  1  0  0  0
 59 60  1  0  0  0
 59 61  1  0  0  0
 59 62  1  0  0  0
 60131  1  0  0  0
 60132  1  0  0  0
 60133  1  0  0  0
 61134  1  0  0  0
 61135  1  0  0  0
 61136  1  0  0  0
 62137  1  0  0  0
 62138  1  0  0  0
 62139  1  0  0  0
 63 65  1  0  0  0
 63140  1  0  0  0
 63141  1  0  0  0
 63142  1  0  0  0
 64143  1  0  0  0
 65144  1  0  0  0
 68 83  1  0  0  0
 71 72  2  0  0  0
 71 73  1  0  0  0
 71145  1  0  0  0
 72 75  1  0  0  0
 72146  1  0  0  0
 73 76  2  0  0  0
 73147  1  0  0  0
 74 75  2  0  0  0
 74 76  1  0  0  0
 74148  1  0  0  0
 75 81  1  0  0  0
 76 84  1  0  0  0
 77 79  1  0  0  0
 77 81  1  0  0  0
 77149  1  0  0  0
 77150  1  0  0  0
 78 80  1  0  0  0
 78 81  1  0  0  0
 78151  1  0  0  0
 78152  1  0  0  0
 79 85  1  0  0  0
 79153  1  0  0  0
 79154  1  0  0  0
 80 85  1  0  0  0
 80155  1  0  0  0
 80156  1  0  0  0
 81157  1  0  0  0
 82 83  1  0  0  0
 82158  1  0  0  0
 82159  1  0  0  0
 82 85  1  0  0  0
 83160  1  0  0  0
 83161  1  0  0  0
 84162  1  0  0  0
 85163  1  0  0  0
M  CHG  1  85   1
M  ISO  4   1 100  68 101  83 101  84 100
M  END
> <chiral flag>
0

> <version>
0

> <s_m_source_file>
/data/baiqing/PycharmProjects/Reinvent-master-3.2/result/LINK_invent/BTK/process_docking_weight1_custom_product_contain_oxygen_bond_distance_aromatic_linkinvent_7_9_3/rearranged_h_0007.sdf

> <i_m_source_file_index>
1

> <r_mmod_Potential_Energy-OPLS-2005>
-0.898796439170837

> <r_mmod_Stretch_Energy-OPLS-2005>
42.8451461791992

> <r_mmod_Bend_Energy-OPLS-2005>
137.483917236328

> <r_mmod_Torsional_Energy-OPLS-2005>
297.32666015625

> <r_mmod_Improper_Torsional_Energy-OPLS-2005>
8.62738704681396

> <r_mmod_Van_der_Waal_Energy-OPLS-2005>
172.238891601562

> <r_mmod_Electrostatic_Energy-OPLS-2005>
-249.885101318359

> <r_mmod_Solvation_Energy-OPLS-2005>
-435.089660644531

> <b_mmod_Minimization_Converged-OPLS-2005>
0

> <r_mmod_RMS_Derivative-OPLS-2005>
5.16309595108032

$$$$
1
                    3D
 Structure written by MMmdl.
177186  0  0  1  0            999 V2000
  -30.6704  -14.5326   20.5044 C   0  0  0  0  0  0
  -30.4331  -12.3169   19.4494 C   0  0  0  0  0  0
  -29.5088  -12.4305   18.2189 C   0  0  0  0  0  0
  -28.0248  -12.3200   18.6271 C   0  0  0  0  0  0
  -27.6540  -13.2032   19.8500 C   0  0  2  0  0  0
  -28.6951  -13.0454   20.9810 C   0  0  0  0  0  0
  -25.2583  -13.8164   20.5660 C   0  0  0  0  0  0
  -24.1836  -13.0460   20.9203 C   0  0  0  0  0  0
  -24.6369  -11.6923   20.8745 C   0  0  0  0  0  0
  -23.9036  -10.4307   21.0408 C   0  0  0  0  0  0
  -24.3602   -9.4212   21.9171 C   0  0  0  0  0  0
  -23.6293   -8.2236   22.0739 C   0  0  0  0  0  0
  -22.4274   -8.0272   21.3540 C   0  0  0  0  0  0
  -21.9890   -9.0248   20.4655 C   0  0  0  0  0  0
  -22.7204  -10.2138   20.3065 C   0  0  0  0  0  0
  -21.6850   -6.0727   22.5283 C   0  0  0  0  0  0
  -21.4006   -6.5629   23.8215 C   0  0  0  0  0  0
  -21.3659   -5.6782   24.9176 C   0  0  0  0  0  0
  -21.6046   -4.3048   24.7226 C   0  0  0  0  0  0
  -21.8820   -3.8138   23.4350 C   0  0  0  0  0  0
  -21.9194   -4.6954   22.3407 C   0  0  0  0  0  0
  -22.7858  -13.5272   21.1864 C   0  0  0  0  0  0
  -22.1662   -4.2135   21.0990 F   0  0  0  0  0  0
  -21.5630   -3.4537   25.7740 F   0  0  0  0  0  0
  -30.0171  -13.3433   20.4147 N   0  0  0  0  0  0
  -26.2978  -12.9313   20.3239 N   0  0  0  0  0  0
  -25.9280  -11.6489   20.5722 N   0  0  0  0  0  0
  -22.0476  -12.8300   22.0434 N   0  0  0  0  0  0
  -25.4347  -15.1871   20.4059 N   0  0  0  0  0  0
  -31.8623  -14.6582   20.2142 O   0  0  0  0  0  0
  -21.6647   -6.8868   21.4242 O   0  0  0  0  0  0
  -22.3549  -14.5559   20.6679 O   0  0  0  0  0  0
  -24.6162  -31.8665   23.2069 C   0  0  0  0  0  0
  -25.9037  -32.4829   23.8375 C   0  0  1  0  0  0
  -27.2378  -27.4155   20.1106 C   0  0  0  0  0  0
  -25.5904  -33.8625   24.2323 N   0  0  0  0  0  0
  -23.4072  -30.4870   21.5477 C   0  0  2  0  0  0
  -24.8544  -28.9447   20.1186 C   0  0  0  0  0  0
  -22.7429  -29.4647   22.4988 C   0  0  0  0  0  0
  -18.0291  -28.1399   22.8481 C   0  0  0  0  0  0
  -24.1497  -36.7303   23.2647 C   0  0  0  0  0  0
  -25.9348  -30.8296   21.3565 C   0  0  0  0  0  0
  -26.0160  -29.4591   20.7100 C   0  0  0  0  0  0
  -27.2126  -28.7033   20.6974 C   0  0  0  0  0  0
  -26.0604  -26.9209   19.5080 C   0  0  0  0  0  0
  -24.8715  -27.6755   19.5142 C   0  0  0  0  0  0
  -23.6176  -29.8127   20.1645 C   0  0  0  0  0  0
  -25.4121  -36.3116   24.0352 C   0  0  1  0  0  0
  -20.5879  -28.3675   23.1338 C   0  0  2  0  0  0
  -20.6775  -26.9401   22.5467 C   0  0  0  0  0  0
  -19.5790  -26.6396   21.5227 C   0  0  0  0  0  0
  -18.1941  -26.7968   22.1572 C   0  0  0  0  0  0
  -19.1538  -28.8851   23.2909 C   0  0  0  0  0  0
  -18.9458  -30.1451   23.8924 C   0  0  0  0  0  0
  -17.6459  -30.6591   24.0580 C   0  0  0  0  0  0
  -25.9041  -34.9480   23.5136 C   0  0  0  0  0  0
  -16.5353  -29.9098   23.6328 C   0  0  0  0  0  0
  -16.7278  -28.6525   23.0336 C   0  0  0  0  0  0
  -26.4474  -31.6617   25.0697 C   0  0  0  0  0  0
  -25.3754  -31.3792   26.1488 C   0  0  0  0  0  0
  -27.0240  -30.3049   24.6046 C   0  0  0  0  0  0
  -27.6140  -32.4290   25.7358 C   0  0  0  0  0  0
  -27.5606  -37.1795   24.8464 C   0  0  0  0  0  0
  -21.4157  -29.3020   22.3718 N   0  0  0  0  0  0
  -26.4319  -37.3789   23.9406 N   0  0  0  0  0  0
  -24.6718  -31.0752   22.0970 N   0  0  0  0  0  0
  -23.4188  -28.8195   23.3045 O   0  0  0  0  0  0
  -28.3960  -26.6623   20.1066 O   0  0  0  0  0  0
  -26.5578  -34.8931   22.4682 O   0  0  0  0  0  0
  -23.5352  -32.1407   23.7464 O   0  0  0  0  0  0
  -29.3145  -22.1395   17.0994 C   0  0  0  0  0  0
  -27.3824  -21.1632   18.2240 C   0  0  0  0  0  0
  -27.3222  -21.5613   15.8189 C   0  0  0  0  0  0
  -28.6970  -21.6816   18.2861 C   0  0  0  0  0  0
  -28.6294  -22.0779   15.8715 C   0  0  0  0  0  0
  -26.7016  -21.0990   16.9935 C   0  0  0  0  0  0
  -31.4981  -18.2502   17.9187 C   0  0  0  0  0  0
  -31.4162  -19.4140   18.9108 C   0  0  0  0  0  0
  -29.6350  -17.8756   19.4171 C   0  0  1  0  0  0
  -30.1245  -17.5586   17.9664 C   0  0  0  0  0  0
  -29.1591  -18.1815   16.9260 C   0  0  0  0  0  0
  -30.2238  -16.0789   17.5682 C   0  0  0  0  0  0
  -30.2733  -17.0428   20.5944 C   0  0  0  0  0  0
  -29.5178  -20.3398   20.3283 C   0  0  0  0  0  0
  -28.9327  -24.2328   19.8298 C   0  0  0  0  0  0
  -28.3109  -25.3503   20.7128 C   0  0  0  0  0  0
  -29.4527  -21.7493   19.6151 C   0  0  2  0  0  0
  -30.0604  -19.2903   19.4386 N   0  0  0  0  0  0
  -29.8787  -15.6138   20.6815 N   0  0  0  0  0  0
  -28.9187  -22.8639   20.4580 N   0  3  0  0  0  0
  -29.2320  -22.5147   14.7401 F   0  0  0  0  0  0
  -25.4487  -20.5877   16.9415 F   0  0  0  0  0  0
  -31.4788  -12.4237   19.1531 H   0  0  0  0  0  0
  -30.3497  -11.3280   19.9027 H   0  0  0  0  0  0
  -29.7555  -11.6415   17.5066 H   0  0  0  0  0  0
  -29.6873  -13.3662   17.6943 H   0  0  0  0  0  0
  -27.8385  -11.2733   18.8679 H   0  0  0  0  0  0
  -27.3797  -12.5507   17.7788 H   0  0  0  0  0  0
  -27.6793  -14.2357   19.5005 H   0  0  0  0  0  0
  -28.6812  -12.0277   21.3737 H   0  0  0  0  0  0
  -28.4605  -13.6972   21.8248 H   0  0  0  0  0  0
  -25.2752   -9.5698   22.4736 H   0  0  0  0  0  0
  -24.0024   -7.4621   22.7441 H   0  0  0  0  0  0
  -21.0818   -8.8758   19.8971 H   0  0  0  0  0  0
  -22.3644  -10.9674   19.6187 H   0  0  0  0  0  0
  -21.1987   -7.6134   23.9717 H   0  0  0  0  0  0
  -21.1483   -6.0513   25.9086 H   0  0  0  0  0  0
  -22.0602   -2.7601   23.2855 H   0  0  0  0  0  0
  -22.4084  -12.0005   22.4908 H   0  0  0  0  0  0
  -21.1079  -13.1324   22.2576 H   0  0  0  0  0  0
  -24.6711  -15.8467   20.5096 H   0  0  0  0  0  0
  -26.2766  -15.6145   20.0436 H   0  0  0  0  0  0
  -26.7098  -32.5534   23.1132 H   0  0  0  0  0  0
  -25.0134  -33.9793   25.0530 H   0  0  0  0  0  0
  -22.6980  -31.3044   21.4029 H   0  0  0  0  0  0
  -23.3786  -35.9608   23.3309 H   0  0  0  0  0  0
  -24.3595  -36.8916   22.2059 H   0  0  0  0  0  0
  -23.7218  -37.6500   23.6657 H   0  0  0  0  0  0
  -26.0387  -31.5882   20.5799 H   0  0  0  0  0  0
  -26.8272  -30.8941   21.9670 H   0  0  0  0  0  0
  -28.1111  -29.0972   21.1511 H   0  0  0  0  0  0
  -26.0595  -25.9510   19.0317 H   0  0  0  0  0  0
  -23.9771  -27.2742   19.0554 H   0  0  0  0  0  0
  -23.7285  -30.5815   19.3996 H   0  0  0  0  0  0
  -22.7417  -29.2309   19.8711 H   0  0  0  0  0  0
  -25.1308  -36.1984   25.0851 H   0  0  0  0  0  0
  -20.9982  -28.3250   24.1455 H   0  0  0  0  0  0
  -20.5647  -26.2282   23.3659 H   0  0  0  0  0  0
  -21.6661  -26.7424   22.1294 H   0  0  0  0  0  0
  -19.6952  -25.6305   21.1267 H   0  0  0  0  0  0
  -19.6794  -27.3204   20.6761 H   0  0  0  0  0  0
  -17.4262  -26.6798   21.3908 H   0  0  0  0  0  0
  -18.0253  -26.0082   22.8921 H   0  0  0  0  0  0
  -19.7929  -30.7263   24.2313 H   0  0  0  0  0  0
  -17.5017  -31.6268   24.5189 H   0  0  0  0  0  0
  -15.5359  -30.3005   23.7654 H   0  0  0  0  0  0
  -15.8684  -28.0863   22.7012 H   0  0  0  0  0  0
  -24.5965  -30.7054   25.7909 H   0  0  0  0  0  0
  -24.8880  -32.2959   26.4816 H   0  0  0  0  0  0
  -25.8138  -30.9113   27.0310 H   0  0  0  0  0  0
  -26.2708  -29.6802   24.1232 H   0  0  0  0  0  0
  -27.4158  -29.7317   25.4456 H   0  0  0  0  0  0
  -27.8502  -30.4377   23.9058 H   0  0  0  0  0  0
  -27.2886  -33.3626   26.1952 H   0  0  0  0  0  0
  -28.3880  -32.6770   25.0082 H   0  0  0  0  0  0
  -28.0875  -31.8378   26.5205 H   0  0  0  0  0  0
  -28.2697  -38.0020   24.7434 H   0  0  0  0  0  0
  -28.1026  -36.2560   24.6367 H   0  0  0  0  0  0
  -27.2333  -37.1549   25.8873 H   0  0  0  0  0  0
  -20.9332  -29.8695   21.6893 H   0  0  0  0  0  0
  -26.0231  -38.2887   24.1382 H   0  0  0  0  0  0
  -30.3190  -22.5369   17.1203 H   0  0  0  0  0  0
  -26.8900  -20.7968   19.1128 H   0  0  0  0  0  0
  -26.7976  -21.5149   14.8772 H   0  0  0  0  0  0
  -32.2895  -17.5726   18.2454 H   0  0  0  0  0  0
  -31.7609  -18.5834   16.9144 H   0  0  0  0  0  0
  -31.5833  -20.3675   18.4094 H   0  0  0  0  0  0
  -32.1610  -19.3089   19.7022 H   0  0  0  0  0  0
  -28.5464  -17.8131   19.4747 H   0  0  0  0  0  0
  -29.0687  -19.2580   17.0319 H   0  0  0  0  0  0
  -28.1575  -17.7583   17.0157 H   0  0  0  0  0  0
  -29.4988  -18.0028   15.9054 H   0  0  0  0  0  0
  -31.0488  -15.5717   18.0549 H   0  0  0  0  0  0
  -30.4124  -15.9659   16.5002 H   0  0  0  0  0  0
  -29.2946  -15.5569   17.7932 H   0  0  0  0  0  0
  -29.9628  -17.4970   21.5356 H   0  0  0  0  0  0
  -31.3590  -17.1318   20.5807 H   0  0  0  0  0  0
  -28.5143  -20.0421   20.6353 H   0  0  0  0  0  0
  -30.1138  -20.3951   21.2402 H   0  0  0  0  0  0
  -29.9625  -24.4987   19.5851 H   0  0  0  0  0  0
  -28.3849  -24.2193   18.8877 H   0  0  0  0  0  0
  -28.8465  -25.3987   21.6616 H   0  0  0  0  0  0
  -27.2844  -25.0831   20.9689 H   0  0  0  0  0  0
  -30.4820  -22.0383   19.3962 H   0  0  0  0  0  0
  -28.9010  -15.4261   20.8452 H   0  0  0  0  0  0
  -27.9770  -22.6297   20.7290 H   0  0  0  0  0  0
  -29.4723  -22.8937   21.3011 H   0  0  0  0  0  0
  1 25  1  0  0  0
  1 30  2  0  0  0
  1 89  1  0  0  0
  2  3  1  0  0  0
  2 25  1  0  0  0
  2 93  1  0  0  0
  2 94  1  0  0  0
  3  4  1  0  0  0
  3 95  1  0  0  0
  3 96  1  0  0  0
  4  5  1  0  0  0
  4 97  1  0  0  0
  4 98  1  0  0  0
  5  6  1  0  0  0
  5 26  1  0  0  0
  5 99  1  0  0  0
  6 25  1  0  0  0
  6100  1  0  0  0
  6101  1  0  0  0
  7  8  2  0  0  0
  7 26  1  0  0  0
  7 29  1  0  0  0
  8  9  1  0  0  0
  8 22  1  0  0  0
  9 10  1  0  0  0
  9 27  2  0  0  0
 10 11  2  0  0  0
 10 15  1  0  0  0
 11 12  1  0  0  0
 11102  1  0  0  0
 12 13  2  0  0  0
 12103  1  0  0  0
 13 14  1  0  0  0
 13 31  1  0  0  0
 14 15  2  0  0  0
 14104  1  0  0  0
 15105  1  0  0  0
 16 17  2  0  0  0
 16 21  1  0  0  0
 16 31  1  0  0  0
 17 18  1  0  0  0
 17106  1  0  0  0
 18 19  2  0  0  0
 18107  1  0  0  0
 19 20  1  0  0  0
 19 24  1  0  0  0
 20 21  2  0  0  0
 20108  1  0  0  0
 21 23  1  0  0  0
 22 28  1  0  0  0
 22 32  2  0  0  0
 26 27  1  0  0  0
 28109  1  0  0  0
 28110  1  0  0  0
 29111  1  0  0  0
 29112  1  0  0  0
 33 34  1  0  0  0
 33 66  1  0  0  0
 33 70  2  0  0  0
 34 36  1  0  0  0
 34 59  1  0  0  0
 34113  1  0  0  0
 35 44  2  0  0  0
 35 45  1  0  0  0
 35 68  1  0  0  0
 36 56  1  0  0  0
 36114  1  0  0  0
 37 39  1  0  0  0
 37 47  1  0  0  0
 37 66  1  0  0  0
 37115  1  0  0  0
 38 43  2  0  0  0
 38 46  1  0  0  0
 38 47  1  0  0  0
 39 64  1  0  0  0
 39 67  2  0  0  0
 40 52  1  0  0  0
 40 53  2  0  0  0
 40 58  1  0  0  0
 41116  1  0  0  0
 41117  1  0  0  0
 41118  1  0  0  0
 41 48  1  0  0  0
 42 43  1  0  0  0
 42 66  1  0  0  0
 42119  1  0  0  0
 42120  1  0  0  0
 43 44  1  0  0  0
 44121  1  0  0  0
 45 46  2  0  0  0
 45122  1  0  0  0
 46123  1  0  0  0
 47124  1  0  0  0
 47125  1  0  0  0
 48 56  1  0  0  0
 48 65  1  0  0  0
 48126  1  0  0  0
 49 50  1  0  0  0
 49 53  1  0  0  0
 49 64  1  0  0  0
 49127  1  0  0  0
 50 51  1  0  0  0
 50128  1  0  0  0
 50129  1  0  0  0
 51 52  1  0  0  0
 51130  1  0  0  0
 51131  1  0  0  0
 52132  1  0  0  0
 52133  1  0  0  0
 53 54  1  0  0  0
 54 55  2  0  0  0
 54134  1  0  0  0
 55 57  1  0  0  0
 55135  1  0  0  0
 56 69  2  0  0  0
 57 58  2  0  0  0
 57136  1  0  0  0
 58137  1  0  0  0
 59 60  1  0  0  0
 59 61  1  0  0  0
 59 62  1  0  0  0
 60138  1  0  0  0
 60139  1  0  0  0
 60140  1  0  0  0
 61141  1  0  0  0
 61142  1  0  0  0
 61143  1  0  0  0
 62144  1  0  0  0
 62145  1  0  0  0
 62146  1  0  0  0
 63 65  1  0  0  0
 63147  1  0  0  0
 63148  1  0  0  0
 63149  1  0  0  0
 64150  1  0  0  0
 65151  1  0  0  0
 68 86  1  0  0  0
 71 74  2  0  0  0
 71 75  1  0  0  0
 71152  1  0  0  0
 72 74  1  0  0  0
 72 76  2  0  0  0
 72153  1  0  0  0
 73 75  2  0  0  0
 73 76  1  0  0  0
 73154  1  0  0  0
 74 87  1  0  0  0
 75 91  1  0  0  0
 76 92  1  0  0  0
 77 78  1  0  0  0
 77 80  1  0  0  0
 77155  1  0  0  0
 77156  1  0  0  0
 78 88  1  0  0  0
 78157  1  0  0  0
 78158  1  0  0  0
 79 80  1  0  0  0
 79 83  1  0  0  0
 79 88  1  0  0  0
 79159  1  0  0  0
 80 81  1  0  0  0
 80 82  1  0  0  0
 81160  1  0  0  0
 81161  1  0  0  0
 81162  1  0  0  0
 82163  1  0  0  0
 82164  1  0  0  0
 82165  1  0  0  0
 83 89  1  0  0  0
 83166  1  0  0  0
 83167  1  0  0  0
 84 88  1  0  0  0
 84168  1  0  0  0
 84169  1  0  0  0
 84 87  1  0  0  0
 85 86  1  0  0  0
 85 90  1  0  0  0
 85170  1  0  0  0
 85171  1  0  0  0
 86172  1  0  0  0
 86173  1  0  0  0
 87 90  1  0  0  0
 87174  1  0  0  0
 89175  1  0  0  0
 90176  1  0  0  0
 90177  1  0  0  0
M  CHG  1  90   1
M  ISO  4   1 100  68 101  86 101  89 100
M  END
> <chiral flag>
0

> <version>
0

> <s_m_source_file>
/data/baiqing/PycharmProjects/Reinvent-master-3.2/result/LINK_invent/BTK/process_docking_weight1_custom_product_contain_oxygen_bond_distance_aromatic_linkinvent_7_9_3/rearranged_h_0007.sdf

> <i_m_source_file_index>
2

> <r_mmod_Potential_Energy-OPLS-2005>
-108.21989440918

> <r_mmod_Stretch_Energy-OPLS-2005>
50.2982330322266

> <r_mmod_Bend_Energy-OPLS-2005>
165.630279541016

> <r_mmod_Torsional_Energy-OPLS-2005>
306.658477783203

> <r_mmod_Improper_Torsional_Energy-OPLS-2005>
5.77762269973755

> <r_mmod_Van_der_Waal_Energy-OPLS-2005>
139.635772705078

> <r_mmod_Electrostatic_Energy-OPLS-2005>
-329.470947265625

> <r_mmod_Solvation_Energy-OPLS-2005>
-471.720123291016

> <b_mmod_Minimization_Converged-OPLS-2005>
0

> <r_mmod_RMS_Derivative-OPLS-2005>
2.23106169700623

$$$$
2
                    3D
 Structure written by MMmdl.
151159  0  0  1  0            999 V2000
  -30.5124  -15.0506   20.4092 C   0  0  0  0  0  0
  -30.4401  -12.6608   19.5000 C   0  0  0  0  0  0
  -29.5247  -12.5403   18.2597 C   0  0  0  0  0  0
  -28.0639  -12.3039   18.6867 C   0  0  0  0  0  0
  -27.6220  -13.2552   19.8292 C   0  0  2  0  0  0
  -28.6643  -13.3374   20.9632 C   0  0  0  0  0  0
  -25.2439  -13.8221   20.5719 C   0  0  0  0  0  0
  -24.1769  -13.0432   20.9243 C   0  0  0  0  0  0
  -24.6396  -11.6922   20.8759 C   0  0  0  0  0  0
  -23.9083  -10.4289   21.0411 C   0  0  0  0  0  0
  -24.3629   -9.4205   21.9190 C   0  0  0  0  0  0
  -23.6297   -8.2244   22.0760 C   0  0  0  0  0  0
  -22.4280   -8.0284   21.3547 C   0  0  0  0  0  0
  -21.9919   -9.0260   20.4651 C   0  0  0  0  0  0
  -22.7252  -10.2137   20.3062 C   0  0  0  0  0  0
  -21.6852   -6.0737   22.5276 C   0  0  0  0  0  0
  -21.4013   -6.5640   23.8209 C   0  0  0  0  0  0
  -21.3653   -5.6793   24.9171 C   0  0  0  0  0  0
  -21.6046   -4.3056   24.7222 C   0  0  0  0  0  0
  -21.8816   -3.8148   23.4342 C   0  0  0  0  0  0
  -21.9195   -4.6965   22.3399 C   0  0  0  0  0  0
  -22.7790  -13.5208   21.1885 C   0  0  0  0  0  0
  -22.1663   -4.2153   21.0976 F   0  0  0  0  0  0
  -21.5627   -3.4534   25.7733 F   0  0  0  0  0  0
  -29.9212  -13.7803   20.3458 N   0  0  0  0  0  0
  -26.2855  -12.9459   20.3221 N   0  0  0  0  0  0
  -25.9328  -11.6582   20.5729 N   0  0  0  0  0  0
  -22.0435  -12.8201   22.0441 N   0  0  0  0  0  0
  -25.4069  -15.1949   20.4135 N   0  0  0  0  0  0
  -31.7316  -15.0763   20.2011 O   0  0  0  0  0  0
  -21.6640   -6.8883   21.4241 O   0  0  0  0  0  0
  -22.3478  -14.5511   20.6723 O   0  0  0  0  0  0
  -24.6504  -31.8367   23.1839 C   0  0  0  0  0  0
  -25.9244  -32.4653   23.8253 C   0  0  1  0  0  0
  -27.2123  -27.0624   20.1615 C   0  0  0  0  0  0
  -25.5970  -33.8462   24.2164 N   0  0  0  0  0  0
  -23.4584  -30.4558   21.5286 C   0  0  2  0  0  0
  -24.9092  -28.8708   20.1101 C   0  0  0  0  0  0
  -22.7592  -29.4518   22.4802 C   0  0  0  0  0  0
  -18.0316  -28.1388   22.8456 C   0  0  0  0  0  0
  -24.1500  -36.7245   23.2646 C   0  0  0  0  0  0
  -26.0196  -30.6871   21.3947 C   0  0  0  0  0  0
  -26.0898  -29.2917   20.7355 C   0  0  0  0  0  0
  -27.2421  -28.4056   20.7417 C   0  0  0  0  0  0
  -26.0053  -26.7660   19.4897 C   0  0  0  0  0  0
  -24.8837  -27.6240   19.4702 C   0  0  0  0  0  0
  -23.6913  -29.7837   20.1495 C   0  0  0  0  0  0
  -25.4129  -36.3007   24.0314 C   0  0  1  0  0  0
  -20.5928  -28.3740   23.1184 C   0  0  2  0  0  0
  -20.6794  -26.9428   22.5384 C   0  0  0  0  0  0
  -19.5775  -26.6371   21.5187 C   0  0  0  0  0  0
  -18.1957  -26.7924   22.1600 C   0  0  0  0  0  0
  -19.1572  -28.8877   23.2813 C   0  0  0  0  0  0
  -18.9492  -30.1463   23.8858 C   0  0  0  0  0  0
  -17.6490  -30.6586   24.0551 C   0  0  0  0  0  0
  -25.9079  -34.9381   23.5048 C   0  0  0  0  0  0
  -16.5379  -29.9079   23.6333 C   0  0  0  0  0  0
  -16.7300  -28.6492   23.0355 C   0  0  0  0  0  0
  -26.4547  -31.6544   25.0724 C   0  0  0  0  0  0
  -25.3721  -31.3732   26.1410 C   0  0  0  0  0  0
  -27.0433  -30.2933   24.6358 C   0  0  0  0  0  0
  -27.6062  -32.4330   25.7504 C   0  0  0  0  0  0
  -27.5574  -37.1777   24.8463 C   0  0  0  0  0  0
  -21.4275  -29.3061   22.3548 N   0  0  0  0  0  0
  -26.4289  -37.3724   23.9403 N   0  0  0  0  0  0
  -24.7298  -31.0157   22.0908 N   0  0  0  0  0  0
  -23.4193  -28.8053   23.2980 O   0  0  0  0  0  0
  -28.2360  -26.0228   20.2250 O   0  0  0  0  0  0
  -26.5672  -34.8893   22.4630 O   0  0  0  0  0  0
  -23.5604  -32.1272   23.7013 O   0  0  0  0  0  0
  -31.6271  -19.4119   21.5895 C   0  0  0  0  0  0
  -31.2755  -18.0988   21.2196 C   0  0  0  0  0  0
  -29.2197  -19.0365   20.3499 C   0  0  0  0  0  0
  -30.8088  -20.5510   21.3820 C   0  0  0  0  0  0
  -30.0392  -17.7917   20.6251 C   0  0  0  0  0  0
  -29.5755  -20.4780   20.6598 C   0  0  0  0  0  0
  -29.0028  -23.2120   20.2552 C   0  0  0  0  0  0
  -31.3066  -21.8164   22.0646 C   0  0  0  0  0  0
  -27.8817  -24.4694   20.1957 C   0  0  0  0  0  0
  -28.7373  -21.7896   20.4063 N   0  0  0  0  0  0
  -29.7299  -16.2691   20.4398 N   0  0  0  0  0  0
  -30.1644  -23.5787   20.0717 O   0  0  0  0  0  0
  -31.4691  -12.8349   19.1823 H   0  0  0  0  0  0
  -30.4573  -11.7258   20.0622 H   0  0  0  0  0  0
  -29.8638  -11.7292   17.6138 H   0  0  0  0  0  0
  -29.5898  -13.4531   17.6655 H   0  0  0  0  0  0
  -27.9877  -11.2696   19.0244 H   0  0  0  0  0  0
  -27.3949  -12.3948   17.8302 H   0  0  0  0  0  0
  -27.5671  -14.2439   19.3735 H   0  0  0  0  0  0
  -28.7815  -12.3773   21.4679 H   0  0  0  0  0  0
  -28.3470  -14.0523   21.7240 H   0  0  0  0  0  0
  -25.2767   -9.5681   22.4771 H   0  0  0  0  0  0
  -23.9995   -7.4640   22.7485 H   0  0  0  0  0  0
  -21.0845   -8.8787   19.8962 H   0  0  0  0  0  0
  -22.3707  -10.9682   19.6176 H   0  0  0  0  0  0
  -21.2004   -7.6146   23.9715 H   0  0  0  0  0  0
  -21.1475   -6.0520   25.9075 H   0  0  0  0  0  0
  -22.0600   -2.7609   23.2839 H   0  0  0  0  0  0
  -22.4052  -11.9867   22.4836 H   0  0  0  0  0  0
  -21.1052  -13.1230   22.2637 H   0  0  0  0  0  0
  -24.6327  -15.8405   20.5270 H   0  0  0  0  0  0
  -26.2396  -15.6388   20.0497 H   0  0  0  0  0  0
  -26.7306  -32.5234   23.0965 H   0  0  0  0  0  0
  -25.0092  -33.9564   25.0296 H   0  0  0  0  0  0
  -22.7674  -31.2857   21.3682 H   0  0  0  0  0  0
  -23.3767  -35.9571   23.3280 H   0  0  0  0  0  0
  -24.3589  -36.8912   22.2067 H   0  0  0  0  0  0
  -23.7254  -37.6428   23.6711 H   0  0  0  0  0  0
  -26.1848  -31.4389   20.6224 H   0  0  0  0  0  0
  -26.8865  -30.7387   22.0418 H   0  0  0  0  0  0
  -28.1390  -28.7218   21.2562 H   0  0  0  0  0  0
  -25.8872  -25.8210   18.9837 H   0  0  0  0  0  0
  -23.9855  -27.2978   18.9640 H   0  0  0  0  0  0
  -23.8394  -30.5586   19.3965 H   0  0  0  0  0  0
  -22.8046  -29.2326   19.8317 H   0  0  0  0  0  0
  -25.1316  -36.1830   25.0808 H   0  0  0  0  0  0
  -21.0022  -28.3358   24.1304 H   0  0  0  0  0  0
  -20.5666  -26.2359   23.3618 H   0  0  0  0  0  0
  -21.6663  -26.7413   22.1197 H   0  0  0  0  0  0
  -19.6949  -25.6269   21.1249 H   0  0  0  0  0  0
  -19.6725  -27.3150   20.6691 H   0  0  0  0  0  0
  -17.4219  -26.6645   21.4016 H   0  0  0  0  0  0
  -18.0379  -26.0076   22.9010 H   0  0  0  0  0  0
  -19.7979  -30.7263   24.2225 H   0  0  0  0  0  0
  -17.5063  -31.6267   24.5154 H   0  0  0  0  0  0
  -15.5382  -30.2977   23.7685 H   0  0  0  0  0  0
  -15.8694  -28.0803   22.7104 H   0  0  0  0  0  0
  -24.5927  -30.7049   25.7720 H   0  0  0  0  0  0
  -24.8878  -32.2904   26.4773 H   0  0  0  0  0  0
  -25.8004  -30.8949   27.0229 H   0  0  0  0  0  0
  -26.3067  -29.6621   24.1371 H   0  0  0  0  0  0
  -27.4021  -29.7272   25.4962 H   0  0  0  0  0  0
  -27.8986  -30.4144   23.9709 H   0  0  0  0  0  0
  -27.2661  -33.3678   26.1971 H   0  0  0  0  0  0
  -28.3926  -32.6811   25.0363 H   0  0  0  0  0  0
  -28.0672  -31.8529   26.5509 H   0  0  0  0  0  0
  -28.2564  -38.0099   24.7512 H   0  0  0  0  0  0
  -28.1103  -36.2620   24.6289 H   0  0  0  0  0  0
  -27.2289  -37.1411   25.8868 H   0  0  0  0  0  0
  -20.9495  -29.8794   21.6734 H   0  0  0  0  0  0
  -26.0152  -38.2791   24.1417 H   0  0  0  0  0  0
  -32.5675  -19.5366   22.1078 H   0  0  0  0  0  0
  -31.9683  -17.3084   21.4677 H   0  0  0  0  0  0
  -28.2578  -18.8782   19.8837 H   0  0  0  0  0  0
  -31.9223  -21.5754   22.9319 H   0  0  0  0  0  0
  -30.4871  -22.4240   22.4467 H   0  0  0  0  0  0
  -31.9250  -22.4073   21.3899 H   0  0  0  0  0  0
  -27.1785  -24.2905   21.0098 H   0  0  0  0  0  0
  -27.3251  -24.2762   19.2798 H   0  0  0  0  0  0
  -27.7447  -21.6071   20.3357 H   0  0  0  0  0  0
  -28.7433  -16.0709   20.3703 H   0  0  0  0  0  0
  1 25  1  0  0  0
  1 30  2  0  0  0
  1 81  1  0  0  0
  2  3  1  0  0  0
  2 25  1  0  0  0
  2 83  1  0  0  0
  2 84  1  0  0  0
  3  4  1  0  0  0
  3 85  1  0  0  0
  3 86  1  0  0  0
  4  5  1  0  0  0
  4 87  1  0  0  0
  4 88  1  0  0  0
  5  6  1  0  0  0
  5 26  1  0  0  0
  5 89  1  0  0  0
  6 25  1  0  0  0
  6 90  1  0  0  0
  6 91  1  0  0  0
  7  8  2  0  0  0
  7 26  1  0  0  0
  7 29  1  0  0  0
  8  9  1  0  0  0
  8 22  1  0  0  0
  9 10  1  0  0  0
  9 27  2  0  0  0
 10 11  2  0  0  0
 10 15  1  0  0  0
 11 12  1  0  0  0
 11 92  1  0  0  0
 12 13  2  0  0  0
 12 93  1  0  0  0
 13 14  1  0  0  0
 13 31  1  0  0  0
 14 15  2  0  0  0
 14 94  1  0  0  0
 15 95  1  0  0  0
 16 17  2  0  0  0
 16 21  1  0  0  0
 16 31  1  0  0  0
 17 18  1  0  0  0
 17 96  1  0  0  0
 18 19  2  0  0  0
 18 97  1  0  0  0
 19 20  1  0  0  0
 19 24  1  0  0  0
 20 21  2  0  0  0
 20 98  1  0  0  0
 21 23  1  0  0  0
 22 28  1  0  0  0
 22 32  2  0  0  0
 26 27  1  0  0  0
 28 99  1  0  0  0
 28100  1  0  0  0
 29101  1  0  0  0
 29102  1  0  0  0
 33 34  1  0  0  0
 33 66  1  0  0  0
 33 70  2  0  0  0
 34 36  1  0  0  0
 34 59  1  0  0  0
 34103  1  0  0  0
 35 44  2  0  0  0
 35 45  1  0  0  0
 35 68  1  0  0  0
 36 56  1  0  0  0
 36104  1  0  0  0
 37 39  1  0  0  0
 37 47  1  0  0  0
 37 66  1  0  0  0
 37105  1  0  0  0
 38 43  2  0  0  0
 38 46  1  0  0  0
 38 47  1  0  0  0
 39 64  1  0  0  0
 39 67  2  0  0  0
 40 52  1  0  0  0
 40 53  2  0  0  0
 40 58  1  0  0  0
 41106  1  0  0  0
 41107  1  0  0  0
 41108  1  0  0  0
 41 48  1  0  0  0
 42 43  1  0  0  0
 42 66  1  0  0  0
 42109  1  0  0  0
 42110  1  0  0  0
 43 44  1  0  0  0
 44111  1  0  0  0
 45 46  2  0  0  0
 45112  1  0  0  0
 46113  1  0  0  0
 47114  1  0  0  0
 47115  1  0  0  0
 48 56  1  0  0  0
 48 65  1  0  0  0
 48116  1  0  0  0
 49 50  1  0  0  0
 49 53  1  0  0  0
 49 64  1  0  0  0
 49117  1  0  0  0
 50 51  1  0  0  0
 50118  1  0  0  0
 50119  1  0  0  0
 51 52  1  0  0  0
 51120  1  0  0  0
 51121  1  0  0  0
 52122  1  0  0  0
 52123  1  0  0  0
 53 54  1  0  0  0
 54 55  2  0  0  0
 54124  1  0  0  0
 55 57  1  0  0  0
 55125  1  0  0  0
 56 69  2  0  0  0
 57 58  2  0  0  0
 57126  1  0  0  0
 58127  1  0  0  0
 59 60  1  0  0  0
 59 61  1  0  0  0
 59 62  1  0  0  0
 60128  1  0  0  0
 60129  1  0  0  0
 60130  1  0  0  0
 61131  1  0  0  0
 61132  1  0  0  0
 61133  1  0  0  0
 62134  1  0  0  0
 62135  1  0  0  0
 62136  1  0  0  0
 63 65  1  0  0  0
 63137  1  0  0  0
 63138  1  0  0  0
 63139  1  0  0  0
 64140  1  0  0  0
 65141  1  0  0  0
 68 79  1  0  0  0
 71 72  2  0  0  0
 71 74  1  0  0  0
 71142  1  0  0  0
 72 75  1  0  0  0
 72143  1  0  0  0
 73 75  2  0  0  0
 73 76  1  0  0  0
 73144  1  0  0  0
 74 76  2  0  0  0
 74 78  1  0  0  0
 75 81  1  0  0  0
 76 80  1  0  0  0
 77 79  1  0  0  0
 77 80  1  0  0  0
 77 82  2  0  0  0
 78145  1  0  0  0
 78146  1  0  0  0
 78147  1  0  0  0
 79148  1  0  0  0
 79149  1  0  0  0
 80150  1  0  0  0
 81151  1  0  0  0
M  ISO  4   1 100  68 101  79 101  81 100
M  END
> <chiral flag>
0

> <version>
0

> <s_m_source_file>
/data/baiqing/PycharmProjects/Reinvent-master-3.2/result/LINK_invent/BTK/process_docking_weight1_custom_product_contain_oxygen_bond_distance_aromatic_linkinvent_7_9_3/rearranged_h_0007.sdf

> <i_m_source_file_index>
3

> <r_mmod_Potential_Energy-OPLS-2005>
672.253173828125

> <r_mmod_Stretch_Energy-OPLS-2005>
351.696807861328

> <r_mmod_Bend_Energy-OPLS-2005>
278.612426757812

> <r_mmod_Torsional_Energy-OPLS-2005>
238.690216064453

> <r_mmod_Improper_Torsional_Energy-OPLS-2005>
7.22449827194214

> <r_mmod_Van_der_Waal_Energy-OPLS-2005>
139.931900024414

> <r_mmod_Electrostatic_Energy-OPLS-2005>
-367.038391113281

> <r_mmod_Solvation_Energy-OPLS-2005>
-247.221771240234

> <b_mmod_Minimization_Converged-OPLS-2005>
0

> <r_mmod_RMS_Derivative-OPLS-2005>
1.25241470336914

$$$$
3
                    3D
 Structure written by MMmdl.
151160  0  0  1  0            999 V2000
  -30.4923  -15.2372   20.3456 C   0  0  0  0  0  0
  -30.4236  -12.7794   19.5449 C   0  0  0  0  0  0
  -29.5326  -12.5628   18.2972 C   0  0  0  0  0  0
  -28.0822  -12.2849   18.7210 C   0  0  0  0  0  0
  -27.6044  -13.2711   19.8131 C   0  0  2  0  0  0
  -28.6292  -13.4840   20.9473 C   0  0  0  0  0  0
  -25.2382  -13.8236   20.5771 C   0  0  0  0  0  0
  -24.1728  -13.0432   20.9266 C   0  0  0  0  0  0
  -24.6377  -11.6930   20.8763 C   0  0  0  0  0  0
  -23.9074  -10.4290   21.0419 C   0  0  0  0  0  0
  -24.3630   -9.4205   21.9190 C   0  0  0  0  0  0
  -23.6310   -8.2237   22.0748 C   0  0  0  0  0  0
  -22.4285   -8.0273   21.3544 C   0  0  0  0  0  0
  -21.9924   -9.0246   20.4641 C   0  0  0  0  0  0
  -22.7250  -10.2130   20.3063 C   0  0  0  0  0  0
  -21.6854   -6.0739   22.5282 C   0  0  0  0  0  0
  -21.4013   -6.5647   23.8218 C   0  0  0  0  0  0
  -21.3662   -5.6801   24.9178 C   0  0  0  0  0  0
  -21.6051   -4.3061   24.7228 C   0  0  0  0  0  0
  -21.8817   -3.8149   23.4352 C   0  0  0  0  0  0
  -21.9193   -4.6969   22.3405 C   0  0  0  0  0  0
  -22.7752  -13.5185   21.1919 C   0  0  0  0  0  0
  -22.1665   -4.2154   21.0985 F   0  0  0  0  0  0
  -21.5627   -3.4543   25.7741 F   0  0  0  0  0  0
  -29.8811  -13.9505   20.3334 N   0  0  0  0  0  0
  -26.2778  -12.9501   20.3177 N   0  0  0  0  0  0
  -25.9305  -11.6615   20.5704 N   0  0  0  0  0  0
  -22.0424  -12.8155   22.0478 N   0  0  0  0  0  0
  -25.4039  -15.1959   20.4285 N   0  0  0  0  0  0
  -31.7157  -15.1479   20.1579 O   0  0  0  0  0  0
  -21.6641   -6.8876   21.4240 O   0  0  0  0  0  0
  -22.3421  -14.5480   20.6758 O   0  0  0  0  0  0
  -24.6620  -31.8265   23.1740 C   0  0  0  0  0  0
  -25.9317  -32.4601   23.8191 C   0  0  1  0  0  0
  -27.2125  -26.9544   20.1818 C   0  0  0  0  0  0
  -25.5999  -33.8410   24.2109 N   0  0  0  0  0  0
  -23.4728  -30.4411   21.5236 C   0  0  2  0  0  0
  -24.9226  -28.8328   20.1167 C   0  0  0  0  0  0
  -22.7658  -29.4452   22.4807 C   0  0  0  0  0  0
  -18.0319  -28.1402   22.8469 C   0  0  0  0  0  0
  -24.1487  -36.7209   23.2650 C   0  0  0  0  0  0
  -26.0407  -30.6437   21.3980 C   0  0  0  0  0  0
  -26.1083  -29.2358   20.7438 C   0  0  0  0  0  0
  -27.2497  -28.3186   20.7484 C   0  0  0  0  0  0
  -25.9956  -26.6970   19.5151 C   0  0  0  0  0  0
  -24.8893  -27.5818   19.4838 C   0  0  0  0  0  0
  -23.7099  -29.7600   20.1491 C   0  0  0  0  0  0
  -25.4127  -36.2967   24.0304 C   0  0  1  0  0  0
  -20.5944  -28.3737   23.1195 C   0  0  2  0  0  0
  -20.6799  -26.9422   22.5398 C   0  0  0  0  0  0
  -19.5764  -26.6370   21.5214 C   0  0  0  0  0  0
  -18.1947  -26.7935   22.1621 C   0  0  0  0  0  0
  -19.1583  -28.8893   23.2818 C   0  0  0  0  0  0
  -18.9489  -30.1490   23.8839 C   0  0  0  0  0  0
  -17.6480  -30.6593   24.0551 C   0  0  0  0  0  0
  -25.9085  -34.9349   23.5014 C   0  0  0  0  0  0
  -16.5373  -29.9070   23.6349 C   0  0  0  0  0  0
  -16.7302  -28.6497   23.0356 C   0  0  0  0  0  0
  -26.4577  -31.6527   25.0698 C   0  0  0  0  0  0
  -25.3724  -31.3774   26.1377 C   0  0  0  0  0  0
  -27.0471  -30.2898   24.6404 C   0  0  0  0  0  0
  -27.6071  -32.4337   25.7496 C   0  0  0  0  0  0
  -27.5549  -37.1773   24.8480 C   0  0  0  0  0  0
  -21.4333  -29.3034   22.3553 N   0  0  0  0  0  0
  -26.4277  -37.3693   23.9393 N   0  0  0  0  0  0
  -24.7465  -30.9964   22.0856 N   0  0  0  0  0  0
  -23.4220  -28.8022   23.3037 O   0  0  0  0  0  0
  -28.2365  -25.8787   20.2263 O   0  0  0  0  0  0
  -26.5673  -34.8877   22.4596 O   0  0  0  0  0  0
  -23.5697  -32.1216   23.6855 O   0  0  0  0  0  0
  -30.6978  -17.9786   20.8289 C   0  0  0  0  0  0
  -30.3333  -19.4216   20.7861 C   0  0  0  0  0  0
  -28.2969  -18.8404   19.9149 C   0  0  0  0  0  0
  -29.9019  -16.8135   20.4357 C   0  0  0  0  0  0
  -29.0902  -20.0072   20.3089 C   0  0  0  0  0  0
  -28.6496  -17.3915   19.9613 C   0  0  0  0  0  0
  -27.5061  -23.4612   19.0555 C   0  0  0  0  0  0
  -27.5076  -21.8927   19.3545 C   0  0  0  0  0  0
  -29.0942  -22.9453   20.6542 C   0  0  0  0  0  0
  -28.0240  -24.2477   20.2942 C   0  0  1  0  0  0
  -28.6606  -21.4971   20.1852 N   0  0  0  0  0  0
  -27.7151  -16.5372   19.4883 F   0  0  0  0  0  0
  -31.4526  -12.9394   19.2211 H   0  0  0  0  0  0
  -30.4533  -11.8782   20.1601 H   0  0  0  0  0  0
  -29.9122  -11.7381   17.6931 H   0  0  0  0  0  0
  -29.5660  -13.4513   17.6652 H   0  0  0  0  0  0
  -28.0431  -11.2641   19.1047 H   0  0  0  0  0  0
  -27.4155  -12.3148   17.8580 H   0  0  0  0  0  0
  -27.5079  -14.2172   19.2861 H   0  0  0  0  0  0
  -28.7792  -12.5728   21.5286 H   0  0  0  0  0  0
  -28.2666  -14.2430   21.6427 H   0  0  0  0  0  0
  -25.2778   -9.5684   22.4759 H   0  0  0  0  0  0
  -24.0029   -7.4624   22.7460 H   0  0  0  0  0  0
  -21.0857   -8.8759   19.8945 H   0  0  0  0  0  0
  -22.3703  -10.9669   19.6172 H   0  0  0  0  0  0
  -21.2005   -7.6156   23.9717 H   0  0  0  0  0  0
  -21.1487   -6.0534   25.9080 H   0  0  0  0  0  0
  -22.0593   -2.7610   23.2845 H   0  0  0  0  0  0
  -22.4077  -11.9835   22.4876 H   0  0  0  0  0  0
  -21.1021  -13.1126   22.2679 H   0  0  0  0  0  0
  -24.6412  -15.8504   20.5575 H   0  0  0  0  0  0
  -26.2598  -15.6407   20.1064 H   0  0  0  0  0  0
  -26.7385  -32.5150   23.0909 H   0  0  0  0  0  0
  -25.0165  -33.9493   25.0277 H   0  0  0  0  0  0
  -22.7840  -31.2725   21.3576 H   0  0  0  0  0  0
  -23.3728  -35.9566   23.3349 H   0  0  0  0  0  0
  -24.3548  -36.8811   22.2055 H   0  0  0  0  0  0
  -23.7283  -37.6427   23.6678 H   0  0  0  0  0  0
  -26.2141  -31.3838   20.6155 H   0  0  0  0  0  0
  -26.9044  -30.7021   22.0489 H   0  0  0  0  0  0
  -28.1507  -28.6282   21.2590 H   0  0  0  0  0  0
  -25.8615  -25.7499   19.0221 H   0  0  0  0  0  0
  -23.9868  -27.2636   18.9805 H   0  0  0  0  0  0
  -23.8667  -30.5296   19.3918 H   0  0  0  0  0  0
  -22.8188  -29.2170   19.8309 H   0  0  0  0  0  0
  -25.1329  -36.1770   25.0796 H   0  0  0  0  0  0
  -21.0027  -28.3333   24.1317 H   0  0  0  0  0  0
  -20.5685  -26.2348   23.3630 H   0  0  0  0  0  0
  -21.6659  -26.7407   22.1196 H   0  0  0  0  0  0
  -19.6916  -25.6270   21.1261 H   0  0  0  0  0  0
  -19.6701  -27.3166   20.6734 H   0  0  0  0  0  0
  -17.4221  -26.6687   21.4023 H   0  0  0  0  0  0
  -18.0335  -26.0088   22.9027 H   0  0  0  0  0  0
  -19.7966  -30.7328   24.2164 H   0  0  0  0  0  0
  -17.5032  -31.6264   24.5163 H   0  0  0  0  0  0
  -15.5368  -30.2946   23.7713 H   0  0  0  0  0  0
  -15.8707  -28.0802   22.7085 H   0  0  0  0  0  0
  -24.5870  -30.7167   25.7694 H   0  0  0  0  0  0
  -24.8961  -32.2977   26.4755 H   0  0  0  0  0  0
  -25.7967  -30.8950   27.0194 H   0  0  0  0  0  0
  -26.3135  -29.6578   24.1386 H   0  0  0  0  0  0
  -27.3998  -29.7253   25.5050 H   0  0  0  0  0  0
  -27.9080  -30.4102   23.9827 H   0  0  0  0  0  0
  -27.2644  -33.3679   26.1965 H   0  0  0  0  0  0
  -28.3936  -32.6840   25.0359 H   0  0  0  0  0  0
  -28.0688  -31.8536   26.5497 H   0  0  0  0  0  0
  -28.2610  -38.0023   24.7426 H   0  0  0  0  0  0
  -28.0995  -36.2539   24.6437 H   0  0  0  0  0  0
  -27.2245  -37.1585   25.8881 H   0  0  0  0  0  0
  -20.9574  -29.8748   21.6710 H   0  0  0  0  0  0
  -26.0123  -38.2760   24.1350 H   0  0  0  0  0  0
  -31.6988  -17.7622   21.1745 H   0  0  0  0  0  0
  -31.0934  -20.1143   21.1184 H   0  0  0  0  0  0
  -27.3141  -19.0529   19.5215 H   0  0  0  0  0  0
  -26.5111  -23.7702   18.7439 H   0  0  0  0  0  0
  -28.1687  -23.6637   18.2137 H   0  0  0  0  0  0
  -27.4978  -21.3306   18.4193 H   0  0  0  0  0  0
  -26.5956  -21.6271   19.8917 H   0  0  0  0  0  0
  -29.3046  -22.9320   21.7240 H   0  0  0  0  0  0
  -30.0489  -23.1549   20.1706 H   0  0  0  0  0  0
  -27.2370  -24.1593   21.0438 H   0  0  0  0  0  0
  1 25  1  0  0  0
  1 30  2  0  0  0
  1 74  1  0  0  0
  2  3  1  0  0  0
  2 25  1  0  0  0
  2 83  1  0  0  0
  2 84  1  0  0  0
  3  4  1  0  0  0
  3 85  1  0  0  0
  3 86  1  0  0  0
  4  5  1  0  0  0
  4 87  1  0  0  0
  4 88  1  0  0  0
  5  6  1  0  0  0
  5 26  1  0  0  0
  5 89  1  0  0  0
  6 25  1  0  0  0
  6 90  1  0  0  0
  6 91  1  0  0  0
  7  8  2  0  0  0
  7 26  1  0  0  0
  7 29  1  0  0  0
  8  9  1  0  0  0
  8 22  1  0  0  0
  9 10  1  0  0  0
  9 27  2  0  0  0
 10 11  2  0  0  0
 10 15  1  0  0  0
 11 12  1  0  0  0
 11 92  1  0  0  0
 12 13  2  0  0  0
 12 93  1  0  0  0
 13 14  1  0  0  0
 13 31  1  0  0  0
 14 15  2  0  0  0
 14 94  1  0  0  0
 15 95  1  0  0  0
 16 17  2  0  0  0
 16 21  1  0  0  0
 16 31  1  0  0  0
 17 18  1  0  0  0
 17 96  1  0  0  0
 18 19  2  0  0  0
 18 97  1  0  0  0
 19 20  1  0  0  0
 19 24  1  0  0  0
 20 21  2  0  0  0
 20 98  1  0  0  0
 21 23  1  0  0  0
 22 28  1  0  0  0
 22 32  2  0  0  0
 26 27  1  0  0  0
 28 99  1  0  0  0
 28100  1  0  0  0
 29101  1  0  0  0
 29102  1  0  0  0
 33 34  1  0  0  0
 33 66  1  0  0  0
 33 70  2  0  0  0
 34 36  1  0  0  0
 34 59  1  0  0  0
 34103  1  0  0  0
 35 44  2  0  0  0
 35 45  1  0  0  0
 35 68  1  0  0  0
 36 56  1  0  0  0
 36104  1  0  0  0
 37 39  1  0  0  0
 37 47  1  0  0  0
 37 66  1  0  0  0
 37105  1  0  0  0
 38 43  2  0  0  0
 38 46  1  0  0  0
 38 47  1  0  0  0
 39 64  1  0  0  0
 39 67  2  0  0  0
 40 52  1  0  0  0
 40 53  2  0  0  0
 40 58  1  0  0  0
 41106  1  0  0  0
 41107  1  0  0  0
 41108  1  0  0  0
 41 48  1  0  0  0
 42 43  1  0  0  0
 42 66  1  0  0  0
 42109  1  0  0  0
 42110  1  0  0  0
 43 44  1  0  0  0
 44111  1  0  0  0
 45 46  2  0  0  0
 45112  1  0  0  0
 46113  1  0  0  0
 47114  1  0  0  0
 47115  1  0  0  0
 48 56  1  0  0  0
 48 65  1  0  0  0
 48116  1  0  0  0
 49 50  1  0  0  0
 49 53  1  0  0  0
 49 64  1  0  0  0
 49117  1  0  0  0
 50 51  1  0  0  0
 50118  1  0  0  0
 50119  1  0  0  0
 51 52  1  0  0  0
 51120  1  0  0  0
 51121  1  0  0  0
 52122  1  0  0  0
 52123  1  0  0  0
 53 54  1  0  0  0
 54 55  2  0  0  0
 54124  1  0  0  0
 55 57  1  0  0  0
 55125  1  0  0  0
 56 69  2  0  0  0
 57 58  2  0  0  0
 57126  1  0  0  0
 58127  1  0  0  0
 59 60  1  0  0  0
 59 61  1  0  0  0
 59 62  1  0  0  0
 60128  1  0  0  0
 60129  1  0  0  0
 60130  1  0  0  0
 61131  1  0  0  0
 61132  1  0  0  0
 61133  1  0  0  0
 62134  1  0  0  0
 62135  1  0  0  0
 62136  1  0  0  0
 63 65  1  0  0  0
 63137  1  0  0  0
 63138  1  0  0  0
 63139  1  0  0  0
 64140  1  0  0  0
 65141  1  0  0  0
 68 80  1  0  0  0
 71 72  2  0  0  0
 71 74  1  0  0  0
 71142  1  0  0  0
 72 75  1  0  0  0
 72143  1  0  0  0
 73 75  2  0  0  0
 73 76  1  0  0  0
 73144  1  0  0  0
 74 76  2  0  0  0
 75 81  1  0  0  0
 76 82  1  0  0  0
 77 78  1  0  0  0
 77 80  1  0  0  0
 77145  1  0  0  0
 77146  1  0  0  0
 78 81  1  0  0  0
 78147  1  0  0  0
 78148  1  0  0  0
 79 80  1  0  0  0
 79 81  1  0  0  0
 79149  1  0  0  0
 79150  1  0  0  0
 80151  1  0  0  0
M  ISO  4   1 100  68 101  74 100  80 101
M  END
> <chiral flag>
0

> <version>
0

> <s_m_source_file>
/data/baiqing/PycharmProjects/Reinvent-master-3.2/result/LINK_invent/BTK/process_docking_weight1_custom_product_contain_oxygen_bond_distance_aromatic_linkinvent_7_9_3/rearranged_h_0007.sdf

> <i_m_source_file_index>
4

> <r_mmod_Potential_Energy-OPLS-2005>
1198.67272949219

> <r_mmod_Stretch_Energy-OPLS-2005>
436.693237304688

> <r_mmod_Bend_Energy-OPLS-2005>
480.946044921875

> <r_mmod_Torsional_Energy-OPLS-2005>
236.732727050781

> <r_mmod_Improper_Torsional_Energy-OPLS-2005>
3.27524447441101

> <r_mmod_Van_der_Waal_Energy-OPLS-2005>
129.252792358398

> <r_mmod_Electrostatic_Energy-OPLS-2005>
-299.551055908203

> <r_mmod_Solvation_Energy-OPLS-2005>
-205.415466308594

> <b_mmod_Minimization_Converged-OPLS-2005>
0

> <r_mmod_RMS_Derivative-OPLS-2005>
1.55861139297485

$$$$
4
                    3D
 Structure written by MMmdl.
154163  0  0  1  0            999 V2000
  -30.5797  -15.0953   20.3394 C   0  0  0  0  0  0
  -30.4366  -12.6844   19.4960 C   0  0  0  0  0  0
  -29.5370  -12.5356   18.2530 C   0  0  0  0  0  0
  -28.0712  -12.3132   18.6700 C   0  0  0  0  0  0
  -27.6240  -13.2730   19.8080 C   0  0  2  0  0  0
  -28.6741  -13.4062   20.9299 C   0  0  0  0  0  0
  -25.2448  -13.8269   20.5681 C   0  0  0  0  0  0
  -24.1777  -13.0455   20.9189 C   0  0  0  0  0  0
  -24.6446  -11.6957   20.8713 C   0  0  0  0  0  0
  -23.9128  -10.4330   21.0418 C   0  0  0  0  0  0
  -24.3680   -9.4218   21.9182 C   0  0  0  0  0  0
  -23.6327   -8.2267   22.0771 C   0  0  0  0  0  0
  -22.4282   -8.0321   21.3577 C   0  0  0  0  0  0
  -21.9955   -9.0299   20.4671 C   0  0  0  0  0  0
  -22.7317  -10.2166   20.3056 C   0  0  0  0  0  0
  -21.6853   -6.0751   22.5275 C   0  0  0  0  0  0
  -21.4044   -6.5645   23.8203 C   0  0  0  0  0  0
  -21.3647   -5.6777   24.9166 C   0  0  0  0  0  0
  -21.6046   -4.3049   24.7222 C   0  0  0  0  0  0
  -21.8800   -3.8148   23.4330 C   0  0  0  0  0  0
  -21.9177   -4.6967   22.3405 C   0  0  0  0  0  0
  -22.7777  -13.5214   21.1800 C   0  0  0  0  0  0
  -22.1639   -4.2165   21.0976 F   0  0  0  0  0  0
  -21.5639   -3.4522   25.7736 F   0  0  0  0  0  0
  -29.9250  -13.8480   20.2902 N   0  0  0  0  0  0
  -26.2902  -12.9555   20.3161 N   0  0  0  0  0  0
  -25.9403  -11.6671   20.5675 N   0  0  0  0  0  0
  -22.0418  -12.8260   22.0378 N   0  0  0  0  0  0
  -25.4081  -15.2018   20.4145 N   0  0  0  0  0  0
  -31.8087  -15.0180   20.2285 O   0  0  0  0  0  0
  -21.6638   -6.8917   21.4249 O   0  0  0  0  0  0
  -22.3456  -14.5473   20.6563 O   0  0  0  0  0  0
  -24.6516  -31.8339   23.1793 C   0  0  0  0  0  0
  -25.9250  -32.4627   23.8252 C   0  0  1  0  0  0
  -27.2276  -27.0320   20.1870 C   0  0  0  0  0  0
  -25.5962  -33.8411   24.2162 N   0  0  0  0  0  0
  -23.4631  -30.4524   21.5226 C   0  0  2  0  0  0
  -24.9230  -28.8609   20.1157 C   0  0  0  0  0  0
  -22.7608  -29.4478   22.4747 C   0  0  0  0  0  0
  -18.0363  -28.1409   22.8481 C   0  0  0  0  0  0
  -24.1507  -36.7214   23.2651 C   0  0  0  0  0  0
  -26.0283  -30.6729   21.4059 C   0  0  0  0  0  0
  -26.0993  -29.2757   20.7481 C   0  0  0  0  0  0
  -27.2507  -28.3796   20.7655 C   0  0  0  0  0  0
  -26.0229  -26.7487   19.5043 C   0  0  0  0  0  0
  -24.9039  -27.6154   19.4675 C   0  0  0  0  0  0
  -23.6999  -29.7737   20.1459 C   0  0  0  0  0  0
  -25.4132  -36.2964   24.0314 C   0  0  1  0  0  0
  -20.5972  -28.3728   23.1194 C   0  0  2  0  0  0
  -20.6814  -26.9420   22.5381 C   0  0  0  0  0  0
  -19.5772  -26.6388   21.5204 C   0  0  0  0  0  0
  -18.1967  -26.7944   22.1641 C   0  0  0  0  0  0
  -19.1618  -28.8893   23.2832 C   0  0  0  0  0  0
  -18.9497  -30.1495   23.8859 C   0  0  0  0  0  0
  -17.6486  -30.6582   24.0573 C   0  0  0  0  0  0
  -25.9051  -34.9359   23.5034 C   0  0  0  0  0  0
  -16.5381  -29.9055   23.6378 C   0  0  0  0  0  0
  -16.7341  -28.6491   23.0368 C   0  0  0  0  0  0
  -26.4548  -31.6526   25.0735 C   0  0  0  0  0  0
  -25.3707  -31.3747   26.1420 C   0  0  0  0  0  0
  -27.0473  -30.2914   24.6441 C   0  0  0  0  0  0
  -27.6074  -32.4333   25.7498 C   0  0  0  0  0  0
  -27.5580  -37.1761   24.8461 C   0  0  0  0  0  0
  -21.4299  -29.3033   22.3501 N   0  0  0  0  0  0
  -26.4294  -37.3693   23.9401 N   0  0  0  0  0  0
  -24.7332  -31.0115   22.0894 N   0  0  0  0  0  0
  -23.4196  -28.8060   23.2952 O   0  0  0  0  0  0
  -28.2615  -25.9828   20.2501 O   0  0  0  0  0  0
  -26.5665  -34.8843   22.4628 O   0  0  0  0  0  0
  -23.5604  -32.1251   23.6938 O   0  0  0  0  0  0
  -28.5837  -21.8137   20.4847 C   0  0  0  0  0  0
  -30.8458  -17.5576   18.3639 C   0  0  0  0  0  0
  -31.5264  -18.1330   19.6157 C   0  0  0  0  0  0
  -28.6001  -18.2831   19.2636 C   0  0  0  0  0  0
  -29.5192  -17.0163   18.9744 C   0  0  2  0  0  0
  -30.4099  -17.8725   20.6541 C   0  0  1  0  0  0
  -29.2372  -19.0632   20.4544 C   0  0  1  0  0  0
  -27.8925  -24.4582   20.2161 C   0  0  0  0  0  0
  -29.9259  -16.4097   20.2762 N   0  0  0  0  0  0
  -29.4455  -20.6706   20.2542 N   0  0  0  0  0  0
  -28.9095  -23.2070   20.2493 N   0  0  0  0  0  0
  -27.4553  -21.5732   20.9234 O   0  0  0  0  0  0
  -31.4715  -12.8259   19.1833 H   0  0  0  0  0  0
  -30.4288  -11.7713   20.0916 H   0  0  0  0  0  0
  -29.8921  -11.7166   17.6213 H   0  0  0  0  0  0
  -29.6092  -13.4363   17.6412 H   0  0  0  0  0  0
  -27.9796  -11.2789   19.0043 H   0  0  0  0  0  0
  -27.4118  -12.4100   17.8054 H   0  0  0  0  0  0
  -27.5548  -14.2565   19.3387 H   0  0  0  0  0  0
  -28.7986  -12.4640   21.4673 H   0  0  0  0  0  0
  -28.3610  -14.1509   21.6630 H   0  0  0  0  0  0
  -25.2877   -9.5661   22.4695 H   0  0  0  0  0  0
  -24.0022   -7.4669   22.7494 H   0  0  0  0  0  0
  -21.0894   -8.8865   19.8983 H   0  0  0  0  0  0
  -22.3844  -10.9696   19.6122 H   0  0  0  0  0  0
  -21.2070   -7.6158   23.9713 H   0  0  0  0  0  0
  -21.1487   -6.0519   25.9056 H   0  0  0  0  0  0
  -22.0592   -2.7613   23.2804 H   0  0  0  0  0  0
  -22.4023  -12.0044   22.4989 H   0  0  0  0  0  0
  -21.1006  -13.1281   22.2450 H   0  0  0  0  0  0
  -24.6428  -15.8554   20.5372 H   0  0  0  0  0  0
  -26.2677  -15.6490   20.1222 H   0  0  0  0  0  0
  -26.7306  -32.5185   23.0960 H   0  0  0  0  0  0
  -25.0152  -33.9541   25.0342 H   0  0  0  0  0  0
  -22.7748  -31.2839   21.3575 H   0  0  0  0  0  0
  -23.3741  -35.9574   23.3303 H   0  0  0  0  0  0
  -24.3620  -36.8854   22.2072 H   0  0  0  0  0  0
  -23.7275  -37.6408   23.6704 H   0  0  0  0  0  0
  -26.2166  -31.4232   20.6373 H   0  0  0  0  0  0
  -26.8846  -30.7168   22.0648 H   0  0  0  0  0  0
  -28.1390  -28.6924   21.2952 H   0  0  0  0  0  0
  -25.9098  -25.8102   18.9862 H   0  0  0  0  0  0
  -24.0191  -27.2972   18.9392 H   0  0  0  0  0  0
  -23.8424  -30.5450   19.3852 H   0  0  0  0  0  0
  -22.8169  -29.2152   19.8317 H   0  0  0  0  0  0
  -25.1318  -36.1801   25.0808 H   0  0  0  0  0  0
  -21.0154  -28.3337   24.1281 H   0  0  0  0  0  0
  -20.5714  -26.2328   23.3602 H   0  0  0  0  0  0
  -21.6670  -26.7382   22.1195 H   0  0  0  0  0  0
  -19.6896  -25.6277   21.1289 H   0  0  0  0  0  0
  -19.6726  -27.3152   20.6689 H   0  0  0  0  0  0
  -17.4238  -26.6737   21.4037 H   0  0  0  0  0  0
  -18.0344  -26.0075   22.9032 H   0  0  0  0  0  0
  -19.7951  -30.7370   24.2157 H   0  0  0  0  0  0
  -17.5015  -31.6273   24.5163 H   0  0  0  0  0  0
  -15.5362  -30.2943   23.7690 H   0  0  0  0  0  0
  -15.8756  -28.0802   22.7067 H   0  0  0  0  0  0
  -24.5843  -30.7165   25.7712 H   0  0  0  0  0  0
  -24.8947  -32.2945   26.4839 H   0  0  0  0  0  0
  -25.7954  -30.8896   27.0215 H   0  0  0  0  0  0
  -26.3153  -29.6556   24.1450 H   0  0  0  0  0  0
  -27.4038  -29.7304   25.5082 H   0  0  0  0  0  0
  -27.9085  -30.4125   23.9859 H   0  0  0  0  0  0
  -27.2685  -33.3650   26.2042 H   0  0  0  0  0  0
  -28.3897  -32.6870   25.0330 H   0  0  0  0  0  0
  -28.0766  -31.8494   26.5433 H   0  0  0  0  0  0
  -28.2561  -38.0082   24.7510 H   0  0  0  0  0  0
  -28.1115  -36.2610   24.6290 H   0  0  0  0  0  0
  -27.2326  -37.1420   25.8871 H   0  0  0  0  0  0
  -20.9462  -29.8715   21.6685 H   0  0  0  0  0  0
  -26.0136  -38.2761   24.1366 H   0  0  0  0  0  0
  -31.4582  -16.7785   17.9019 H   0  0  0  0  0  0
  -30.6880  -18.3120   17.5901 H   0  0  0  0  0  0
  -31.8084  -19.1824   19.5067 H   0  0  0  0  0  0
  -32.4429  -17.5921   19.8666 H   0  0  0  0  0  0
  -27.5895  -17.9538   19.5254 H   0  0  0  0  0  0
  -28.5024  -18.9131   18.3755 H   0  0  0  0  0  0
  -29.0242  -16.3064   18.3050 H   0  0  0  0  0  0
  -30.8218  -17.9052   21.6682 H   0  0  0  0  0  0
  -28.5522  -18.9682   21.2989 H   0  0  0  0  0  0
  -27.2086  -24.3014   21.0556 H   0  0  0  0  0  0
  -27.3131  -24.2794   19.3136 H   0  0  0  0  0  0
  -30.3695  -20.9142   19.9152 H   0  0  0  0  0  0
  -29.8234  -23.3847   19.8499 H   0  0  0  0  0  0
  1 25  1  0  0  0
  1 30  2  0  0  0
  1 79  1  0  0  0
  2  3  1  0  0  0
  2 25  1  0  0  0
  2 83  1  0  0  0
  2 84  1  0  0  0
  3  4  1  0  0  0
  3 85  1  0  0  0
  3 86  1  0  0  0
  4  5  1  0  0  0
  4 87  1  0  0  0
  4 88  1  0  0  0
  5  6  1  0  0  0
  5 26  1  0  0  0
  5 89  1  0  0  0
  6 25  1  0  0  0
  6 90  1  0  0  0
  6 91  1  0  0  0
  7  8  2  0  0  0
  7 26  1  0  0  0
  7 29  1  0  0  0
  8  9  1  0  0  0
  8 22  1  0  0  0
  9 10  1  0  0  0
  9 27  2  0  0  0
 10 11  2  0  0  0
 10 15  1  0  0  0
 11 12  1  0  0  0
 11 92  1  0  0  0
 12 13  2  0  0  0
 12 93  1  0  0  0
 13 14  1  0  0  0
 13 31  1  0  0  0
 14 15  2  0  0  0
 14 94  1  0  0  0
 15 95  1  0  0  0
 16 17  2  0  0  0
 16 21  1  0  0  0
 16 31  1  0  0  0
 17 18  1  0  0  0
 17 96  1  0  0  0
 18 19  2  0  0  0
 18 97  1  0  0  0
 19 20  1  0  0  0
 19 24  1  0  0  0
 20 21  2  0  0  0
 20 98  1  0  0  0
 21 23  1  0  0  0
 22 28  1  0  0  0
 22 32  2  0  0  0
 26 27  1  0  0  0
 28 99  1  0  0  0
 28100  1  0  0  0
 29101  1  0  0  0
 29102  1  0  0  0
 33 34  1  0  0  0
 33 66  1  0  0  0
 33 70  2  0  0  0
 34 36  1  0  0  0
 34 59  1  0  0  0
 34103  1  0  0  0
 35 44  2  0  0  0
 35 45  1  0  0  0
 35 68  1  0  0  0
 36 56  1  0  0  0
 36104  1  0  0  0
 37 39  1  0  0  0
 37 47  1  0  0  0
 37 66  1  0  0  0
 37105  1  0  0  0
 38 43  2  0  0  0
 38 46  1  0  0  0
 38 47  1  0  0  0
 39 64  1  0  0  0
 39 67  2  0  0  0
 40 52  1  0  0  0
 40 53  2  0  0  0
 40 58  1  0  0  0
 41106  1  0  0  0
 41107  1  0  0  0
 41108  1  0  0  0
 41 48  1  0  0  0
 42 43  1  0  0  0
 42 66  1  0  0  0
 42109  1  0  0  0
 42110  1  0  0  0
 43 44  1  0  0  0
 44111  1  0  0  0
 45 46  2  0  0  0
 45112  1  0  0  0
 46113  1  0  0  0
 47114  1  0  0  0
 47115  1  0  0  0
 48 56  1  0  0  0
 48 65  1  0  0  0
 48116  1  0  0  0
 49 50  1  0  0  0
 49 53  1  0  0  0
 49 64  1  0  0  0
 49117  1  0  0  0
 50 51  1  0  0  0
 50118  1  0  0  0
 50119  1  0  0  0
 51 52  1  0  0  0
 51120  1  0  0  0
 51121  1  0  0  0
 52122  1  0  0  0
 52123  1  0  0  0
 53 54  1  0  0  0
 54 55  2  0  0  0
 54124  1  0  0  0
 55 57  1  0  0  0
 55125  1  0  0  0
 56 69  2  0  0  0
 57 58  2  0  0  0
 57126  1  0  0  0
 58127  1  0  0  0
 59 60  1  0  0  0
 59 61  1  0  0  0
 59 62  1  0  0  0
 60128  1  0  0  0
 60129  1  0  0  0
 60130  1  0  0  0
 61131  1  0  0  0
 61132  1  0  0  0
 61133  1  0  0  0
 62134  1  0  0  0
 62135  1  0  0  0
 62136  1  0  0  0
 63 65  1  0  0  0
 63137  1  0  0  0
 63138  1  0  0  0
 63139  1  0  0  0
 64140  1  0  0  0
 65141  1  0  0  0
 68 78  1  0  0  0
 71 80  1  0  0  0
 71 81  1  0  0  0
 71 82  2  0  0  0
 72 73  1  0  0  0
 72142  1  0  0  0
 72143  1  0  0  0
 72 75  1  0  0  0
 73144  1  0  0  0
 73145  1  0  0  0
 73 76  1  0  0  0
 74 75  1  0  0  0
 74 77  1  0  0  0
 74146  1  0  0  0
 74147  1  0  0  0
 75 79  1  0  0  0
 75148  1  0  0  0
 76 77  1  0  0  0
 76 79  1  0  0  0
 76149  1  0  0  0
 77 80  1  0  0  0
 77150  1  0  0  0
 78 81  1  0  0  0
 78151  1  0  0  0
 78152  1  0  0  0
 80153  1  0  0  0
 81154  1  0  0  0
M  ISO  4   1 100  68 101  78 101  79 100
M  END
> <chiral flag>
0

> <version>
0

> <s_m_source_file>
/data/baiqing/PycharmProjects/Reinvent-master-3.2/result/LINK_invent/BTK/process_docking_weight1_custom_product_contain_oxygen_bond_distance_aromatic_linkinvent_7_9_3/rearranged_h_0007.sdf

> <i_m_source_file_index>
5

> <r_mmod_Potential_Energy-OPLS-2005>
951.291870117188

> <r_mmod_Stretch_Energy-OPLS-2005>
382.075134277344

> <r_mmod_Bend_Energy-OPLS-2005>
433.087219238281

> <r_mmod_Torsional_Energy-OPLS-2005>
364.368835449219

> <r_mmod_Improper_Torsional_Energy-OPLS-2005>
12.1629066467285

> <r_mmod_Van_der_Waal_Energy-OPLS-2005>
110.049446105957

> <r_mmod_Electrostatic_Energy-OPLS-2005>
-406.277923583984

> <r_mmod_Solvation_Energy-OPLS-2005>
-251.599411010742

> <b_mmod_Minimization_Converged-OPLS-2005>
0

> <r_mmod_RMS_Derivative-OPLS-2005>
7.79584169387817

$$$$
5
                    3D
 Structure written by MMmdl.
152160  0  0  1  0            999 V2000
  -30.5241  -14.9140   20.4248 C   0  0  0  0  0  0
  -30.4496  -12.5628   19.4915 C   0  0  0  0  0  0
  -29.5227  -12.5333   18.2527 C   0  0  0  0  0  0
  -28.0560  -12.3214   18.6719 C   0  0  0  0  0  0
  -27.6396  -13.2411   19.8490 C   0  0  2  0  0  0
  -28.6832  -13.2337   20.9874 C   0  0  0  0  0  0
  -25.2509  -13.8204   20.5718 C   0  0  0  0  0  0
  -24.1804  -13.0440   20.9192 C   0  0  0  0  0  0
  -24.6419  -11.6924   20.8756 C   0  0  0  0  0  0
  -23.9099  -10.4292   21.0419 C   0  0  0  0  0  0
  -24.3644   -9.4207   21.9195 C   0  0  0  0  0  0
  -23.6311   -8.2248   22.0767 C   0  0  0  0  0  0
  -22.4285   -8.0296   21.3551 C   0  0  0  0  0  0
  -21.9934   -9.0269   20.4650 C   0  0  0  0  0  0
  -22.7274  -10.2145   20.3063 C   0  0  0  0  0  0
  -21.6855   -6.0751   22.5276 C   0  0  0  0  0  0
  -21.4016   -6.5654   23.8211 C   0  0  0  0  0  0
  -21.3653   -5.6803   24.9166 C   0  0  0  0  0  0
  -21.6049   -4.3067   24.7215 C   0  0  0  0  0  0
  -21.8819   -3.8162   23.4332 C   0  0  0  0  0  0
  -21.9192   -4.6982   22.3394 C   0  0  0  0  0  0
  -22.7820  -13.5225   21.1845 C   0  0  0  0  0  0
  -22.1661   -4.2174   21.0967 F   0  0  0  0  0  0
  -21.5625   -3.4549   25.7723 F   0  0  0  0  0  0
  -29.9668  -13.6399   20.3991 N   0  0  0  0  0  0
  -26.2944  -12.9430   20.3294 N   0  0  0  0  0  0
  -25.9355  -11.6565   20.5763 N   0  0  0  0  0  0
  -22.0473  -12.8204   22.0406 N   0  0  0  0  0  0
  -25.4188  -15.1937   20.4193 N   0  0  0  0  0  0
  -31.7125  -15.0319   20.1071 O   0  0  0  0  0  0
  -21.6640   -6.8900   21.4244 O   0  0  0  0  0  0
  -22.3507  -14.5526   20.6698 O   0  0  0  0  0  0
  -24.6410  -31.8434   23.1899 C   0  0  0  0  0  0
  -25.9190  -32.4692   23.8273 C   0  0  1  0  0  0
  -27.2235  -27.1559   20.1377 C   0  0  0  0  0  0
  -25.5950  -33.8501   24.2198 N   0  0  0  0  0  0
  -23.4431  -30.4661   21.5326 C   0  0  2  0  0  0
  -24.8925  -28.8947   20.1080 C   0  0  0  0  0  0
  -22.7568  -29.4546   22.4842 C   0  0  0  0  0  0
  -18.0303  -28.1390   22.8441 C   0  0  0  0  0  0
  -24.1493  -36.7256   23.2649 C   0  0  0  0  0  0
  -25.9968  -30.7269   21.3834 C   0  0  0  0  0  0
  -26.0679  -29.3397   20.7232 C   0  0  0  0  0  0
  -27.2286  -28.4837   20.7265 C   0  0  0  0  0  0
  -26.0165  -26.8038   19.4929 C   0  0  0  0  0  0
  -24.8778  -27.6379   19.4845 C   0  0  0  0  0  0
  -23.6701  -29.7971   20.1507 C   0  0  0  0  0  0
  -25.4115  -36.3037   24.0337 C   0  0  1  0  0  0
  -20.5912  -28.3706   23.1228 C   0  0  2  0  0  0
  -20.6779  -26.9408   22.5404 C   0  0  0  0  0  0
  -19.5764  -26.6367   21.5200 C   0  0  0  0  0  0
  -18.1942  -26.7921   22.1598 C   0  0  0  0  0  0
  -19.1561  -28.8860   23.2822 C   0  0  0  0  0  0
  -18.9487  -30.1448   23.8855 C   0  0  0  0  0  0
  -17.6493  -30.6575   24.0548 C   0  0  0  0  0  0
  -25.9074  -34.9412   23.5078 C   0  0  0  0  0  0
  -16.5376  -29.9071   23.6335 C   0  0  0  0  0  0
  -16.7294  -28.6505   23.0324 C   0  0  0  0  0  0
  -26.4525  -31.6549   25.0703 C   0  0  0  0  0  0
  -25.3723  -31.3745   26.1416 C   0  0  0  0  0  0
  -27.0406  -30.2956   24.6267 C   0  0  0  0  0  0
  -27.6042  -32.4319   25.7482 C   0  0  0  0  0  0
  -27.5575  -37.1770   24.8464 C   0  0  0  0  0  0
  -21.4263  -29.3048   22.3617 N   0  0  0  0  0  0
  -26.4266  -37.3756   23.9437 N   0  0  0  0  0  0
  -24.7134  -31.0326   22.0915 N   0  0  0  0  0  0
  -23.4229  -28.8117   23.2993 O   0  0  0  0  0  0
  -28.3041  -26.2109   20.2404 O   0  0  0  0  0  0
  -26.5653  -34.8913   22.4653 O   0  0  0  0  0  0
  -23.5534  -32.1276   23.7151 O   0  0  0  0  0  0
  -30.6158  -19.7982   19.7829 C   0  0  0  0  0  0
  -30.7261  -18.3596   19.9412 C   0  0  0  0  0  0
  -28.4713  -19.8011   20.7349 C   0  0  0  0  0  0
  -29.4918  -20.6363   20.1646 C   0  0  0  0  0  0
  -29.6947  -17.5436   20.4909 C   0  0  0  0  0  0
  -28.5644  -18.3508   20.8766 C   0  0  0  0  0  0
  -30.7553  -22.6115   19.4647 C   0  0  0  0  0  0
  -28.5881  -23.2981   20.4998 C   0  0  0  0  0  0
  -28.3524  -24.7628   19.6801 C   0  0  0  0  0  0
  -29.6754  -16.0219   20.6532 N   0  0  0  0  0  0
  -29.4558  -22.1237   19.9374 N   0  0  0  0  0  0
  -27.5001  -17.6990   21.4040 F   0  0  0  0  0  0
  -31.4820  -12.7272   19.1778 H   0  0  0  0  0  0
  -30.4427  -11.5993   20.0035 H   0  0  0  0  0  0
  -29.8331  -11.7462   17.5643 H   0  0  0  0  0  0
  -29.6136  -13.4725   17.7048 H   0  0  0  0  0  0
  -27.9457  -11.2778   18.9673 H   0  0  0  0  0  0
  -27.3909  -12.4692   17.8207 H   0  0  0  0  0  0
  -27.6135  -14.2503   19.4376 H   0  0  0  0  0  0
  -28.7592  -12.2489   21.4506 H   0  0  0  0  0  0
  -28.3880  -13.9219   21.7811 H   0  0  0  0  0  0
  -25.2794   -9.5677   22.4765 H   0  0  0  0  0  0
  -24.0017   -7.4643   22.7494 H   0  0  0  0  0  0
  -21.0866   -8.8806   19.8952 H   0  0  0  0  0  0
  -22.3752  -10.9692   19.6175 H   0  0  0  0  0  0
  -21.2013   -7.6162   23.9723 H   0  0  0  0  0  0
  -21.1474   -6.0526   25.9070 H   0  0  0  0  0  0
  -22.0604   -2.7630   23.2818 H   0  0  0  0  0  0
  -22.4100  -11.9858   22.4759 H   0  0  0  0  0  0
  -21.1101  -13.1239   22.2635 H   0  0  0  0  0  0
  -24.6603  -15.8487   20.5679 H   0  0  0  0  0  0
  -26.2797  -15.6509   20.1507 H   0  0  0  0  0  0
  -26.7253  -32.5304   23.0996 H   0  0  0  0  0  0
  -25.0092  -33.9610   25.0344 H   0  0  0  0  0  0
  -22.7433  -31.2913   21.3798 H   0  0  0  0  0  0
  -23.3767  -35.9569   23.3270 H   0  0  0  0  0  0
  -24.3593  -36.8919   22.2074 H   0  0  0  0  0  0
  -23.7234  -37.6443   23.6695 H   0  0  0  0  0  0
  -26.1493  -31.4857   20.6145 H   0  0  0  0  0  0
  -26.8688  -30.7764   22.0242 H   0  0  0  0  0  0
  -28.1218  -28.8202   21.2351 H   0  0  0  0  0  0
  -25.8984  -25.8420   19.0229 H   0  0  0  0  0  0
  -23.9760  -27.2853   19.0034 H   0  0  0  0  0  0
  -23.8116  -30.5730   19.3972 H   0  0  0  0  0  0
  -22.7844  -29.2439   19.8351 H   0  0  0  0  0  0
  -25.1294  -36.1855   25.0826 H   0  0  0  0  0  0
  -20.9972  -28.3284   24.1360 H   0  0  0  0  0  0
  -20.5644  -26.2328   23.3626 H   0  0  0  0  0  0
  -21.6648  -26.7397   22.1223 H   0  0  0  0  0  0
  -19.6935  -25.6281   21.1228 H   0  0  0  0  0  0
  -19.6705  -27.3163   20.6722 H   0  0  0  0  0  0
  -17.4217  -26.6652   21.4003 H   0  0  0  0  0  0
  -18.0328  -26.0074   22.9004 H   0  0  0  0  0  0
  -19.7981  -30.7246   24.2205 H   0  0  0  0  0  0
  -17.5069  -31.6251   24.5158 H   0  0  0  0  0  0
  -15.5378  -30.2961   23.7693 H   0  0  0  0  0  0
  -15.8695  -28.0825   22.7034 H   0  0  0  0  0  0
  -24.5914  -30.7070   25.7761 H   0  0  0  0  0  0
  -24.8898  -32.2932   26.4760 H   0  0  0  0  0  0
  -25.8011  -30.8990   27.0245 H   0  0  0  0  0  0
  -26.3033  -29.6659   24.1277 H   0  0  0  0  0  0
  -27.4067  -29.7281   25.4835 H   0  0  0  0  0  0
  -27.8907  -30.4235   23.9560 H   0  0  0  0  0  0
  -27.2638  -33.3661   26.1966 H   0  0  0  0  0  0
  -28.3886  -32.6804   25.0319 H   0  0  0  0  0  0
  -28.0664  -31.8506   26.5477 H   0  0  0  0  0  0
  -28.2547  -38.0110   24.7542 H   0  0  0  0  0  0
  -28.1118  -36.2638   24.6221 H   0  0  0  0  0  0
  -27.2311  -37.1329   25.8872 H   0  0  0  0  0  0
  -20.9470  -29.8823   21.6854 H   0  0  0  0  0  0
  -26.0140  -38.2821   24.1454 H   0  0  0  0  0  0
  -31.4802  -20.2467   19.3186 H   0  0  0  0  0  0
  -31.6352  -17.8786   19.6103 H   0  0  0  0  0  0
  -27.5568  -20.2699   21.0671 H   0  0  0  0  0  0
  -30.9828  -22.2250   18.4702 H   0  0  0  0  0  0
  -31.5522  -22.3130   20.1473 H   0  0  0  0  0  0
  -30.8206  -23.6948   19.4033 H   0  0  0  0  0  0
  -27.6016  -22.8949   20.7344 H   0  0  0  0  0  0
  -29.0175  -23.5435   21.4710 H   0  0  0  0  0  0
  -27.5102  -24.5937   19.0169 H   0  0  0  0  0  0
  -29.1656  -24.8529   18.9647 H   0  0  0  0  0  0
  -28.7695  -15.7009   20.9602 H   0  0  0  0  0  0
  1 25  1  0  0  0
  1 30  2  0  0  0
  1 80  1  0  0  0
  2  3  1  0  0  0
  2 25  1  0  0  0
  2 83  1  0  0  0
  2 84  1  0  0  0
  3  4  1  0  0  0
  3 85  1  0  0  0
  3 86  1  0  0  0
  4  5  1  0  0  0
  4 87  1  0  0  0
  4 88  1  0  0  0
  5  6  1  0  0  0
  5 26  1  0  0  0
  5 89  1  0  0  0
  6 25  1  0  0  0
  6 90  1  0  0  0
  6 91  1  0  0  0
  7  8  2  0  0  0
  7 26  1  0  0  0
  7 29  1  0  0  0
  8  9  1  0  0  0
  8 22  1  0  0  0
  9 10  1  0  0  0
  9 27  2  0  0  0
 10 11  2  0  0  0
 10 15  1  0  0  0
 11 12  1  0  0  0
 11 92  1  0  0  0
 12 13  2  0  0  0
 12 93  1  0  0  0
 13 14  1  0  0  0
 13 31  1  0  0  0
 14 15  2  0  0  0
 14 94  1  0  0  0
 15 95  1  0  0  0
 16 17  2  0  0  0
 16 21  1  0  0  0
 16 31  1  0  0  0
 17 18  1  0  0  0
 17 96  1  0  0  0
 18 19  2  0  0  0
 18 97  1  0  0  0
 19 20  1  0  0  0
 19 24  1  0  0  0
 20 21  2  0  0  0
 20 98  1  0  0  0
 21 23  1  0  0  0
 22 28  1  0  0  0
 22 32  2  0  0  0
 26 27  1  0  0  0
 28 99  1  0  0  0
 28100  1  0  0  0
 29101  1  0  0  0
 29102  1  0  0  0
 33 34  1  0  0  0
 33 66  1  0  0  0
 33 70  2  0  0  0
 34 36  1  0  0  0
 34 59  1  0  0  0
 34103  1  0  0  0
 35 44  2  0  0  0
 35 45  1  0  0  0
 35 68  1  0  0  0
 36 56  1  0  0  0
 36104  1  0  0  0
 37 39  1  0  0  0
 37 47  1  0  0  0
 37 66  1  0  0  0
 37105  1  0  0  0
 38 43  2  0  0  0
 38 46  1  0  0  0
 38 47  1  0  0  0
 39 64  1  0  0  0
 39 67  2  0  0  0
 40 52  1  0  0  0
 40 53  2  0  0  0
 40 58  1  0  0  0
 41106  1  0  0  0
 41107  1  0  0  0
 41108  1  0  0  0
 41 48  1  0  0  0
 42 43  1  0  0  0
 42 66  1  0  0  0
 42109  1  0  0  0
 42110  1  0  0  0
 43 44  1  0  0  0
 44111  1  0  0  0
 45 46  2  0  0  0
 45112  1  0  0  0
 46113  1  0  0  0
 47114  1  0  0  0
 47115  1  0  0  0
 48 56  1  0  0  0
 48 65  1  0  0  0
 48116  1  0  0  0
 49 50  1  0  0  0
 49 53  1  0  0  0
 49 64  1  0  0  0
 49117  1  0  0  0
 50 51  1  0  0  0
 50118  1  0  0  0
 50119  1  0  0  0
 51 52  1  0  0  0
 51120  1  0  0  0
 51121  1  0  0  0
 52122  1  0  0  0
 52123  1  0  0  0
 53 54  1  0  0  0
 54 55  2  0  0  0
 54124  1  0  0  0
 55 57  1  0  0  0
 55125  1  0  0  0
 56 69  2  0  0  0
 57 58  2  0  0  0
 57126  1  0  0  0
 58127  1  0  0  0
 59 60  1  0  0  0
 59 61  1  0  0  0
 59 62  1  0  0  0
 60128  1  0  0  0
 60129  1  0  0  0
 60130  1  0  0  0
 61131  1  0  0  0
 61132  1  0  0  0
 61133  1  0  0  0
 62134  1  0  0  0
 62135  1  0  0  0
 62136  1  0  0  0
 63 65  1  0  0  0
 63137  1  0  0  0
 63138  1  0  0  0
 63139  1  0  0  0
 64140  1  0  0  0
 65141  1  0  0  0
 68 79  1  0  0  0
 71 72  2  0  0  0
 71 74  1  0  0  0
 71142  1  0  0  0
 72 75  1  0  0  0
 72143  1  0  0  0
 73 74  2  0  0  0
 73 76  1  0  0  0
 73144  1  0  0  0
 74 81  1  0  0  0
 75 76  2  0  0  0
 75 80  1  0  0  0
 76 82  1  0  0  0
 77 81  1  0  0  0
 77145  1  0  0  0
 77146  1  0  0  0
 77147  1  0  0  0
 78 79  1  0  0  0
 78 81  1  0  0  0
 78148  1  0  0  0
 78149  1  0  0  0
 79150  1  0  0  0
 79151  1  0  0  0
 80152  1  0  0  0
M  ISO  4   1 100  68 101  79 101  80 100
M  END
> <chiral flag>
0

> <version>
0

> <s_m_source_file>
/data/baiqing/PycharmProjects/Reinvent-master-3.2/result/LINK_invent/BTK/process_docking_weight1_custom_product_contain_oxygen_bond_distance_aromatic_linkinvent_7_9_3/rearranged_h_0007.sdf

> <i_m_source_file_index>
6

> <r_mmod_Potential_Energy-OPLS-2005>
422.703674316406

> <r_mmod_Stretch_Energy-OPLS-2005>
226.532485961914

> <r_mmod_Bend_Energy-OPLS-2005>
287.821533203125

> <r_mmod_Torsional_Energy-OPLS-2005>
202.968505859375

> <r_mmod_Improper_Torsional_Energy-OPLS-2005>
4.99595546722412

> <r_mmod_Van_der_Waal_Energy-OPLS-2005>
146.032180786133

> <r_mmod_Electrostatic_Energy-OPLS-2005>
-393.502685546875

> <r_mmod_Solvation_Energy-OPLS-2005>
-222.135986328125

> <b_mmod_Minimization_Converged-OPLS-2005>
0

> <r_mmod_RMS_Derivative-OPLS-2005>
2.36566257476807

$$$$
6
                    3D
 Structure written by MMmdl.
158166  0  0  1  0            999 V2000
  -30.6746  -14.5325   20.5878 C   0  0  0  0  0  0
  -30.4377  -12.3466   19.4407 C   0  0  0  0  0  0
  -29.5071  -12.5344   18.2215 C   0  0  0  0  0  0
  -28.0278  -12.3799   18.6234 C   0  0  0  0  0  0
  -27.6684  -13.2096   19.8834 C   0  0  2  0  0  0
  -28.7106  -12.9913   21.0073 C   0  0  0  0  0  0
  -25.2572  -13.8128   20.5620 C   0  0  0  0  0  0
  -24.1827  -13.0412   20.9175 C   0  0  0  0  0  0
  -24.6404  -11.6894   20.8725 C   0  0  0  0  0  0
  -23.9066  -10.4279   21.0390 C   0  0  0  0  0  0
  -24.3614   -9.4202   21.9177 C   0  0  0  0  0  0
  -23.6282   -8.2238   22.0751 C   0  0  0  0  0  0
  -22.4264   -8.0277   21.3542 C   0  0  0  0  0  0
  -21.9901   -9.0252   20.4644 C   0  0  0  0  0  0
  -22.7234  -10.2129   20.3050 C   0  0  0  0  0  0
  -21.6850   -6.0727   22.5278 C   0  0  0  0  0  0
  -21.4013   -6.5637   23.8210 C   0  0  0  0  0  0
  -21.3661   -5.6790   24.9172 C   0  0  0  0  0  0
  -21.6043   -4.3051   24.7225 C   0  0  0  0  0  0
  -21.8819   -3.8143   23.4346 C   0  0  0  0  0  0
  -21.9191   -4.6954   22.3401 C   0  0  0  0  0  0
  -22.7858  -13.5223   21.1829 C   0  0  0  0  0  0
  -22.1659   -4.2144   21.0975 F   0  0  0  0  0  0
  -21.5634   -3.4537   25.7738 F   0  0  0  0  0  0
  -30.0482  -13.3214   20.4778 N   0  0  0  0  0  0
  -26.3059  -12.9322   20.3390 N   0  0  0  0  0  0
  -25.9355  -11.6482   20.5792 N   0  0  0  0  0  0
  -22.0496  -12.8228   22.0399 N   0  0  0  0  0  0
  -25.4192  -15.1813   20.3886 N   0  0  0  0  0  0
  -31.7257  -14.7903   19.9967 O   0  0  0  0  0  0
  -21.6633   -6.8871   21.4241 O   0  0  0  0  0  0
  -22.3536  -14.5522   20.6660 O   0  0  0  0  0  0
  -24.6188  -31.8669   23.2086 C   0  0  0  0  0  0
  -25.9068  -32.4823   23.8389 C   0  0  1  0  0  0
  -27.2241  -27.3916   20.0998 C   0  0  0  0  0  0
  -25.5917  -33.8621   24.2319 N   0  0  0  0  0  0
  -23.4081  -30.4924   21.5506 C   0  0  2  0  0  0
  -24.8514  -28.9602   20.1084 C   0  0  0  0  0  0
  -22.7428  -29.4664   22.4975 C   0  0  0  0  0  0
  -18.0282  -28.1394   22.8523 C   0  0  0  0  0  0
  -24.1486  -36.7310   23.2637 C   0  0  0  0  0  0
  -25.9397  -30.8206   21.3640 C   0  0  0  0  0  0
  -26.0151  -29.4519   20.7125 C   0  0  0  0  0  0
  -27.2021  -28.6741   20.7087 C   0  0  0  0  0  0
  -26.0404  -26.9435   19.4649 C   0  0  0  0  0  0
  -24.8608  -27.7069   19.4797 C   0  0  0  0  0  0
  -23.6157  -29.8310   20.1626 C   0  0  0  0  0  0
  -25.4108  -36.3119   24.0341 C   0  0  1  0  0  0
  -20.5881  -28.3685   23.1321 C   0  0  2  0  0  0
  -20.6766  -26.9420   22.5422 C   0  0  0  0  0  0
  -19.5731  -26.6412   21.5227 C   0  0  0  0  0  0
  -18.1915  -26.7946   22.1650 C   0  0  0  0  0  0
  -19.1538  -28.8853   23.2920 C   0  0  0  0  0  0
  -18.9460  -30.1454   23.8938 C   0  0  0  0  0  0
  -17.6462  -30.6601   24.0582 C   0  0  0  0  0  0
  -25.9038  -34.9485   23.5127 C   0  0  0  0  0  0
  -16.5354  -29.9116   23.6321 C   0  0  0  0  0  0
  -16.7268  -28.6522   23.0365 C   0  0  0  0  0  0
  -26.4475  -31.6596   25.0715 C   0  0  0  0  0  0
  -25.3744  -31.3733   26.1471 C   0  0  0  0  0  0
  -27.0262  -30.3034   24.6054 C   0  0  0  0  0  0
  -27.6057  -32.4301   25.7473 C   0  0  0  0  0  0
  -27.5579  -37.1812   24.8479 C   0  0  0  0  0  0
  -21.4155  -29.3057   22.3722 N   0  0  0  0  0  0
  -26.4295  -37.3799   23.9418 N   0  0  0  0  0  0
  -24.6748  -31.0749   22.0995 N   0  0  0  0  0  0
  -23.4186  -28.8190   23.3011 O   0  0  0  0  0  0
  -28.3703  -26.6029   20.1500 O   0  0  0  0  0  0
  -26.5600  -34.8947   22.4686 O   0  0  0  0  0  0
  -23.5369  -32.1443   23.7459 O   0  0  0  0  0  0
  -30.0344  -17.9893   20.5730 C   0  0  0  0  0  0
  -28.2867  -18.0070   22.8124 C   0  0  0  0  0  0
  -28.1104  -16.8277   21.8666 C   0  0  0  0  0  0
  -28.4414  -19.2855   21.9858 C   0  0  0  0  0  0
  -29.2869  -16.6356   20.8793 C   0  0  1  0  0  0
  -29.6849  -20.4471   20.1522 C   0  0  0  0  0  0
  -29.7467  -21.8525   20.8616 C   0  0  0  0  0  0
  -28.2176  -25.1780   19.8966 C   0  0  0  0  0  0
  -29.3015  -24.2429   20.5154 C   0  0  0  0  0  0
  -29.4957  -19.1965   20.9619 N   0  0  0  0  0  0
  -30.0520  -15.4504   21.3601 N   0  0  0  0  0  0
  -31.0396  -17.9363   19.8619 O   0  0  0  0  0  0
  -29.1722  -22.8858   20.0341 O   0  0  0  0  0  0
  -31.4804  -12.4618   19.1401 H   0  0  0  0  0  0
  -30.3563  -11.3311   19.8323 H   0  0  0  0  0  0
  -29.7598  -11.8150   17.4414 H   0  0  0  0  0  0
  -29.6658  -13.5227   17.7864 H   0  0  0  0  0  0
  -27.8391  -11.3228   18.8088 H   0  0  0  0  0  0
  -27.3808  -12.6627   17.7919 H   0  0  0  0  0  0
  -27.7078  -14.2588   19.5920 H   0  0  0  0  0  0
  -28.6981  -11.9512   21.3350 H   0  0  0  0  0  0
  -28.4514  -13.5733   21.8916 H   0  0  0  0  0  0
  -25.2762   -9.5674   22.4754 H   0  0  0  0  0  0
  -23.9995   -7.4626   22.7467 H   0  0  0  0  0  0
  -21.0837   -8.8761   19.8951 H   0  0  0  0  0  0
  -22.3683  -10.9665   19.6159 H   0  0  0  0  0  0
  -21.2004   -7.6144   23.9714 H   0  0  0  0  0  0
  -21.1489   -6.0517   25.9072 H   0  0  0  0  0  0
  -22.0597   -2.7607   23.2843 H   0  0  0  0  0  0
  -22.4104  -11.9909   22.4825 H   0  0  0  0  0  0
  -21.1119  -13.1266   22.2598 H   0  0  0  0  0  0
  -24.6443  -15.8292   20.4779 H   0  0  0  0  0  0
  -26.2607  -15.6144   20.0343 H   0  0  0  0  0  0
  -26.7130  -32.5532   23.1141 H   0  0  0  0  0  0
  -25.0107  -33.9762   25.0497 H   0  0  0  0  0  0
  -22.7015  -31.3134   21.4151 H   0  0  0  0  0  0
  -23.3745  -35.9646   23.3323 H   0  0  0  0  0  0
  -24.3588  -36.8888   22.2048 H   0  0  0  0  0  0
  -23.7238  -37.6526   23.6623 H   0  0  0  0  0  0
  -26.0490  -31.5784   20.5870 H   0  0  0  0  0  0
  -26.8290  -30.8806   21.9786 H   0  0  0  0  0  0
  -28.0958  -29.0399   21.1941 H   0  0  0  0  0  0
  -25.9984  -25.9954   18.9511 H   0  0  0  0  0  0
  -23.9703  -27.3259   18.9988 H   0  0  0  0  0  0
  -23.7317  -30.6103   19.4093 H   0  0  0  0  0  0
  -22.7347  -29.2608   19.8607 H   0  0  0  0  0  0
  -25.1279  -36.1986   25.0829 H   0  0  0  0  0  0
  -20.9982  -28.3243   24.1434 H   0  0  0  0  0  0
  -20.5692  -26.2284   23.3609 H   0  0  0  0  0  0
  -21.6630  -26.7470   22.1193 H   0  0  0  0  0  0
  -19.6893  -25.6336   21.1224 H   0  0  0  0  0  0
  -19.6658  -27.3251   20.6779 H   0  0  0  0  0  0
  -17.4183  -26.6720   21.4047 H   0  0  0  0  0  0
  -18.0303  -26.0071   22.9029 H   0  0  0  0  0  0
  -19.7934  -30.7260   24.2323 H   0  0  0  0  0  0
  -17.5023  -31.6279   24.5195 H   0  0  0  0  0  0
  -15.5363  -30.3040   23.7614 H   0  0  0  0  0  0
  -15.8664  -28.0850   22.7074 H   0  0  0  0  0  0
  -24.5949  -30.7013   25.7849 H   0  0  0  0  0  0
  -24.8899  -32.2898   26.4850 H   0  0  0  0  0  0
  -25.8119  -30.8997   27.0270 H   0  0  0  0  0  0
  -26.2768  -29.6840   24.1103 H   0  0  0  0  0  0
  -27.4033  -29.7218   25.4474 H   0  0  0  0  0  0
  -27.8617  -30.4349   23.9174 H   0  0  0  0  0  0
  -27.2683  -33.3616   26.2029 H   0  0  0  0  0  0
  -28.3876  -32.6822   25.0298 H   0  0  0  0  0  0
  -28.0695  -31.8433   26.5408 H   0  0  0  0  0  0
  -28.2627  -38.0079   24.7496 H   0  0  0  0  0  0
  -28.1041  -36.2616   24.6333 H   0  0  0  0  0  0
  -27.2305  -37.1493   25.8885 H   0  0  0  0  0  0
  -20.9304  -29.8813   21.6983 H   0  0  0  0  0  0
  -26.0191  -38.2880   24.1412 H   0  0  0  0  0  0
  -29.1569  -17.8548   23.4540 H   0  0  0  0  0  0
  -27.4232  -18.0947   23.4736 H   0  0  0  0  0  0
  -27.1981  -16.9964   21.2967 H   0  0  0  0  0  0
  -27.9174  -15.9244   22.4454 H   0  0  0  0  0  0
  -28.6553  -20.0827   22.6926 H   0  0  0  0  0  0
  -27.4980  -19.5399   21.5014 H   0  0  0  0  0  0
  -28.8499  -16.3405   19.9241 H   0  0  0  0  0  0
  -30.5681  -20.3644   19.5177 H   0  0  0  0  0  0
  -28.8450  -20.4708   19.4563 H   0  0  0  0  0  0
  -30.7830  -22.1022   21.0915 H   0  0  0  0  0  0
  -29.2096  -21.8829   21.8056 H   0  0  0  0  0  0
  -27.2676  -24.8216   20.2989 H   0  0  0  0  0  0
  -28.1839  -25.0265   18.8158 H   0  0  0  0  0  0
  -29.2070  -24.2720   21.6016 H   0  0  0  0  0  0
  -30.3016  -24.6043   20.2768 H   0  0  0  0  0  0
  -29.5677  -15.0037   22.1219 H   0  0  0  0  0  0
  1 25  1  0  0  0
  1 30  2  0  0  0
  1 81  1  0  0  0
  2  3  1  0  0  0
  2 25  1  0  0  0
  2 84  1  0  0  0
  2 85  1  0  0  0
  3  4  1  0  0  0
  3 86  1  0  0  0
  3 87  1  0  0  0
  4  5  1  0  0  0
  4 88  1  0  0  0
  4 89  1  0  0  0
  5  6  1  0  0  0
  5 26  1  0  0  0
  5 90  1  0  0  0
  6 25  1  0  0  0
  6 91  1  0  0  0
  6 92  1  0  0  0
  7  8  2  0  0  0
  7 26  1  0  0  0
  7 29  1  0  0  0
  8  9  1  0  0  0
  8 22  1  0  0  0
  9 10  1  0  0  0
  9 27  2  0  0  0
 10 11  2  0  0  0
 10 15  1  0  0  0
 11 12  1  0  0  0
 11 93  1  0  0  0
 12 13  2  0  0  0
 12 94  1  0  0  0
 13 14  1  0  0  0
 13 31  1  0  0  0
 14 15  2  0  0  0
 14 95  1  0  0  0
 15 96  1  0  0  0
 16 17  2  0  0  0
 16 21  1  0  0  0
 16 31  1  0  0  0
 17 18  1  0  0  0
 17 97  1  0  0  0
 18 19  2  0  0  0
 18 98  1  0  0  0
 19 20  1  0  0  0
 19 24  1  0  0  0
 20 21  2  0  0  0
 20 99  1  0  0  0
 21 23  1  0  0  0
 22 28  1  0  0  0
 22 32  2  0  0  0
 26 27  1  0  0  0
 28100  1  0  0  0
 28101  1  0  0  0
 29102  1  0  0  0
 29103  1  0  0  0
 33 34  1  0  0  0
 33 66  1  0  0  0
 33 70  2  0  0  0
 34 36  1  0  0  0
 34 59  1  0  0  0
 34104  1  0  0  0
 35 44  2  0  0  0
 35 45  1  0  0  0
 35 68  1  0  0  0
 36 56  1  0  0  0
 36105  1  0  0  0
 37 39  1  0  0  0
 37 47  1  0  0  0
 37 66  1  0  0  0
 37106  1  0  0  0
 38 43  2  0  0  0
 38 46  1  0  0  0
 38 47  1  0  0  0
 39 64  1  0  0  0
 39 67  2  0  0  0
 40 52  1  0  0  0
 40 53  2  0  0  0
 40 58  1  0  0  0
 41107  1  0  0  0
 41108  1  0  0  0
 41109  1  0  0  0
 41 48  1  0  0  0
 42 43  1  0  0  0
 42 66  1  0  0  0
 42110  1  0  0  0
 42111  1  0  0  0
 43 44  1  0  0  0
 44112  1  0  0  0
 45 46  2  0  0  0
 45113  1  0  0  0
 46114  1  0  0  0
 47115  1  0  0  0
 47116  1  0  0  0
 48 56  1  0  0  0
 48 65  1  0  0  0
 48117  1  0  0  0
 49 50  1  0  0  0
 49 53  1  0  0  0
 49 64  1  0  0  0
 49118  1  0  0  0
 50 51  1  0  0  0
 50119  1  0  0  0
 50120  1  0  0  0
 51 52  1  0  0  0
 51121  1  0  0  0
 51122  1  0  0  0
 52123  1  0  0  0
 52124  1  0  0  0
 53 54  1  0  0  0
 54 55  2  0  0  0
 54125  1  0  0  0
 55 57  1  0  0  0
 55126  1  0  0  0
 56 69  2  0  0  0
 57 58  2  0  0  0
 57127  1  0  0  0
 58128  1  0  0  0
 59 60  1  0  0  0
 59 61  1  0  0  0
 59 62  1  0  0  0
 60129  1  0  0  0
 60130  1  0  0  0
 60131  1  0  0  0
 61132  1  0  0  0
 61133  1  0  0  0
 61134  1  0  0  0
 62135  1  0  0  0
 62136  1  0  0  0
 62137  1  0  0  0
 63 65  1  0  0  0
 63138  1  0  0  0
 63139  1  0  0  0
 63140  1  0  0  0
 64141  1  0  0  0
 65142  1  0  0  0
 68 78  1  0  0  0
 71 75  1  0  0  0
 71 80  1  0  0  0
 71 82  2  0  0  0
 72 73  1  0  0  0
 72 74  1  0  0  0
 72143  1  0  0  0
 72144  1  0  0  0
 73 75  1  0  0  0
 73145  1  0  0  0
 73146  1  0  0  0
 74 80  1  0  0  0
 74147  1  0  0  0
 74148  1  0  0  0
 75 81  1  0  0  0
 75149  1  0  0  0
 76 77  1  0  0  0
 76 80  1  0  0  0
 76150  1  0  0  0
 76151  1  0  0  0
 77 83  1  0  0  0
 77152  1  0  0  0
 77153  1  0  0  0
 78 79  1  0  0  0
 78154  1  0  0  0
 78155  1  0  0  0
 79 83  1  0  0  0
 79156  1  0  0  0
 79157  1  0  0  0
 81158  1  0  0  0
M  ISO  4   1 100  68 101  78 101  81 100
M  END
> <chiral flag>
0

> <version>
0

> <s_m_source_file>
/data/baiqing/PycharmProjects/Reinvent-master-3.2/result/LINK_invent/BTK/process_docking_weight1_custom_product_contain_oxygen_bond_distance_aromatic_linkinvent_7_9_3/rearranged_h_0007.sdf

> <i_m_source_file_index>
7

> <r_mmod_Potential_Energy-OPLS-2005>
21.6708106994629

> <r_mmod_Stretch_Energy-OPLS-2005>
58.4899063110352

> <r_mmod_Bend_Energy-OPLS-2005>
129.464050292969

> <r_mmod_Torsional_Energy-OPLS-2005>
310.697998046875

> <r_mmod_Improper_Torsional_Energy-OPLS-2005>
8.29953384399414

> <r_mmod_Van_der_Waal_Energy-OPLS-2005>
145.140701293945

> <r_mmod_Electrostatic_Energy-OPLS-2005>
-396.409454345703

> <r_mmod_Solvation_Energy-OPLS-2005>
-256.836883544922

> <b_mmod_Minimization_Converged-OPLS-2005>
0

> <r_mmod_RMS_Derivative-OPLS-2005>
2.52682304382324

$$$$
7
                    3D
 Structure written by MMmdl.
157165  0  0  1  0            999 V2000
  -30.6091  -14.7415   20.4269 C   0  0  0  0  0  0
  -30.4326  -12.4551   19.4502 C   0  0  0  0  0  0
  -29.5031  -12.4983   18.2194 C   0  0  0  0  0  0
  -28.0297  -12.3280   18.6328 C   0  0  0  0  0  0
  -27.6351  -13.2274   19.8352 C   0  0  2  0  0  0
  -28.6830  -13.1688   20.9674 C   0  0  0  0  0  0
  -25.2474  -13.8168   20.5663 C   0  0  0  0  0  0
  -24.1751  -13.0446   20.9208 C   0  0  0  0  0  0
  -24.6325  -11.6906   20.8701 C   0  0  0  0  0  0
  -23.8978  -10.4295   21.0386 C   0  0  0  0  0  0
  -24.3546   -9.4222   21.9168 C   0  0  0  0  0  0
  -23.6244   -8.2240   22.0730 C   0  0  0  0  0  0
  -22.4232   -8.0232   21.3525 C   0  0  0  0  0  0
  -21.9854   -9.0213   20.4638 C   0  0  0  0  0  0
  -22.7143  -10.2119   20.3037 C   0  0  0  0  0  0
  -21.6849   -6.0672   22.5280 C   0  0  0  0  0  0
  -21.4024   -6.5597   23.8199 C   0  0  0  0  0  0
  -21.3676   -5.6765   24.9182 C   0  0  0  0  0  0
  -21.6037   -4.3020   24.7227 C   0  0  0  0  0  0
  -21.8822   -3.8095   23.4357 C   0  0  0  0  0  0
  -21.9213   -4.6910   22.3408 C   0  0  0  0  0  0
  -22.7775  -13.5262   21.1873 C   0  0  0  0  0  0
  -22.1665   -4.2091   21.0970 F   0  0  0  0  0  0
  -21.5652   -3.4503   25.7748 F   0  0  0  0  0  0
  -29.9794  -13.5192   20.3743 N   0  0  0  0  0  0
  -26.2878  -12.9376   20.3182 N   0  0  0  0  0  0
  -25.9235  -11.6513   20.5644 N   0  0  0  0  0  0
  -22.0401  -12.8269   22.0450 N   0  0  0  0  0  0
  -25.4138  -15.1886   20.4079 N   0  0  0  0  0  0
  -31.8119  -14.8265   20.1635 O   0  0  0  0  0  0
  -21.6614   -6.8812   21.4222 O   0  0  0  0  0  0
  -22.3474  -14.5566   20.6731 O   0  0  0  0  0  0
  -24.6283  -31.8490   23.1947 C   0  0  0  0  0  0
  -25.9122  -32.4716   23.8288 C   0  0  1  0  0  0
  -27.2501  -27.2886   20.1061 C   0  0  0  0  0  0
  -25.5929  -33.8515   24.2226 N   0  0  0  0  0  0
  -23.4216  -30.4612   21.5419 C   0  0  2  0  0  0
  -24.8746  -28.9086   20.1065 C   0  0  0  0  0  0
  -22.7479  -29.4516   22.4995 C   0  0  0  0  0  0
  -18.0262  -28.1366   22.8480 C   0  0  0  0  0  0
  -24.1471  -36.7254   23.2631 C   0  0  0  0  0  0
  -25.9584  -30.7725   21.3648 C   0  0  0  0  0  0
  -26.0395  -29.3935   20.7117 C   0  0  0  0  0  0
  -27.2238  -28.5920   20.7043 C   0  0  0  0  0  0
  -26.0580  -26.8558   19.4857 C   0  0  0  0  0  0
  -24.8880  -27.6487   19.4835 C   0  0  0  0  0  0
  -23.6309  -29.7754   20.1635 C   0  0  0  0  0  0
  -25.4088  -36.3021   24.0322 C   0  0  1  0  0  0
  -20.5851  -28.3628   23.1331 C   0  0  2  0  0  0
  -20.6733  -26.9353   22.5437 C   0  0  0  0  0  0
  -19.5722  -26.6356   21.5215 C   0  0  0  0  0  0
  -18.1903  -26.7911   22.1630 C   0  0  0  0  0  0
  -19.1508  -28.8822   23.2885 C   0  0  0  0  0  0
  -18.9437  -30.1442   23.8882 C   0  0  0  0  0  0
  -17.6428  -30.6574   24.0548 C   0  0  0  0  0  0
  -25.9027  -34.9407   23.5062 C   0  0  0  0  0  0
  -16.5318  -29.9054   23.6328 C   0  0  0  0  0  0
  -16.7245  -28.6486   23.0330 C   0  0  0  0  0  0
  -26.4509  -31.6564   25.0673 C   0  0  0  0  0  0
  -25.3771  -31.3746   26.1433 C   0  0  0  0  0  0
  -27.0333  -30.2984   24.6144 C   0  0  0  0  0  0
  -27.6027  -32.4327   25.7480 C   0  0  0  0  0  0
  -27.5567  -37.1750   24.8440 C   0  0  0  0  0  0
  -21.4175  -29.2982   22.3772 N   0  0  0  0  0  0
  -26.4244  -37.3744   23.9425 N   0  0  0  0  0  0
  -24.6880  -31.0477   22.0927 N   0  0  0  0  0  0
  -23.4208  -28.8055   23.3064 O   0  0  0  0  0  0
  -28.4021  -26.4720   20.1768 O   0  0  0  0  0  0
  -26.5576  -34.8905   22.4613 O   0  0  0  0  0  0
  -23.5446  -32.1301   23.7296 O   0  0  0  0  0  0
  -29.3030  -18.5342   20.8555 C   0  0  0  0  0  0
  -30.6497  -17.8367   19.0205 C   0  0  0  0  0  0
  -30.2631  -19.3475   18.9331 C   0  0  0  0  0  0
  -30.2556  -17.3567   20.4285 C   0  0  2  0  0  0
  -28.5853  -23.7730   20.4273 C   0  0  0  0  0  0
  -29.3298  -22.4153   19.9231 C   0  0  0  0  0  0
  -28.5781  -25.1257   19.5482 C   0  0  0  0  0  0
  -28.6134  -20.9752   20.1336 C   0  0  1  0  0  0
  -27.4551  -20.8557   19.1148 C   0  0  0  0  0  0
  -29.4245  -19.6713   20.0863 N   0  0  0  0  0  0
  -29.8341  -15.8852   20.5358 N   0  0  0  0  0  0
  -28.5380  -18.4132   21.8167 O   0  0  0  0  0  0
  -26.5906  -21.8583   19.2384 F   0  0  0  0  0  0
  -26.7896  -19.7102   19.2550 F   0  0  0  0  0  0
  -31.4694  -12.5902   19.1381 H   0  0  0  0  0  0
  -30.3891  -11.4774   19.9331 H   0  0  0  0  0  0
  -29.7866  -11.7211   17.5090 H   0  0  0  0  0  0
  -29.6244  -13.4476   17.6955 H   0  0  0  0  0  0
  -27.8777  -11.2790   18.8867 H   0  0  0  0  0  0
  -27.3758  -12.5336   17.7847 H   0  0  0  0  0  0
  -27.6329  -14.2448   19.4444 H   0  0  0  0  0  0
  -28.7228  -12.1739   21.4134 H   0  0  0  0  0  0
  -28.4112  -13.8585   21.7705 H   0  0  0  0  0  0
  -25.2677   -9.5750   22.4766 H   0  0  0  0  0  0
  -23.9973   -7.4631   22.7448 H   0  0  0  0  0  0
  -21.0785   -8.8668   19.8951 H   0  0  0  0  0  0
  -22.3523  -10.9632   19.6135 H   0  0  0  0  0  0
  -21.1987   -7.6111   23.9697 H   0  0  0  0  0  0
  -21.1511   -6.0484   25.9088 H   0  0  0  0  0  0
  -22.0598   -2.7559   23.2854 H   0  0  0  0  0  0
  -22.3959  -11.9938   22.4889 H   0  0  0  0  0  0
  -21.1002  -13.1324   22.2599 H   0  0  0  0  0  0
  -24.6402  -15.8333   20.5267 H   0  0  0  0  0  0
  -26.2352  -15.6353   20.0242 H   0  0  0  0  0  0
  -26.7161  -32.5394   23.1004 H   0  0  0  0  0  0
  -25.0174  -33.9647   25.0452 H   0  0  0  0  0  0
  -22.7144  -31.2798   21.3915 H   0  0  0  0  0  0
  -23.3733  -35.9577   23.3225 H   0  0  0  0  0  0
  -24.3577  -36.8951   22.2061 H   0  0  0  0  0  0
  -23.7251  -37.6445   23.6694 H   0  0  0  0  0  0
  -26.0732  -31.5288   20.5872 H   0  0  0  0  0  0
  -26.8477  -30.8387   21.9809 H   0  0  0  0  0  0
  -28.1169  -28.9625   21.1888 H   0  0  0  0  0  0
  -26.0008  -25.8852   19.0174 H   0  0  0  0  0  0
  -23.9949  -27.2697   19.0047 H   0  0  0  0  0  0
  -23.7058  -30.5317   19.3811 H   0  0  0  0  0  0
  -22.7628  -29.1666   19.9023 H   0  0  0  0  0  0
  -25.1270  -36.1805   25.0815 H   0  0  0  0  0  0
  -20.9890  -28.3159   24.1470 H   0  0  0  0  0  0
  -20.5583  -26.2211   23.3613 H   0  0  0  0  0  0
  -21.6603  -26.7372   22.1246 H   0  0  0  0  0  0
  -19.6850  -25.6254   21.1263 H   0  0  0  0  0  0
  -19.6687  -27.3142   20.6729 H   0  0  0  0  0  0
  -17.4157  -26.6621   21.4052 H   0  0  0  0  0  0
  -18.0316  -26.0099   22.9077 H   0  0  0  0  0  0
  -19.7898  -30.7266   24.2263 H   0  0  0  0  0  0
  -17.4966  -31.6259   24.5137 H   0  0  0  0  0  0
  -15.5303  -30.2921   23.7718 H   0  0  0  0  0  0
  -15.8645  -28.0817   22.7020 H   0  0  0  0  0  0
  -24.5867  -30.7163   25.7812 H   0  0  0  0  0  0
  -24.9051  -32.2937   26.4906 H   0  0  0  0  0  0
  -25.8126  -30.8898   27.0181 H   0  0  0  0  0  0
  -26.2888  -29.6750   24.1164 H   0  0  0  0  0  0
  -27.4010  -29.7235   25.4656 H   0  0  0  0  0  0
  -27.8768  -30.4241   23.9347 H   0  0  0  0  0  0
  -27.2566  -33.3606   26.2052 H   0  0  0  0  0  0
  -28.3863  -32.6954   25.0356 H   0  0  0  0  0  0
  -28.0652  -31.8472   26.5441 H   0  0  0  0  0  0
  -28.2497  -38.0126   24.7546 H   0  0  0  0  0  0
  -28.1143  -36.2654   24.6140 H   0  0  0  0  0  0
  -27.2292  -37.1256   25.8842 H   0  0  0  0  0  0
  -20.9344  -29.8761   21.7041 H   0  0  0  0  0  0
  -26.0086  -38.2783   24.1508 H   0  0  0  0  0  0
  -31.7133  -17.6820   18.8275 H   0  0  0  0  0  0
  -30.1019  -17.2772   18.2580 H   0  0  0  0  0  0
  -29.7127  -19.5409   18.0106 H   0  0  0  0  0  0
  -31.1402  -19.9956   18.9261 H   0  0  0  0  0  0
  -31.1253  -17.4593   21.0803 H   0  0  0  0  0  0
  -29.0224  -24.0203   21.3958 H   0  0  0  0  0  0
  -27.5516  -23.5366   20.6620 H   0  0  0  0  0  0
  -30.3142  -22.3835   20.3957 H   0  0  0  0  0  0
  -29.5528  -22.5288   18.8618 H   0  0  0  0  0  0
  -27.9197  -24.9931   18.6891 H   0  0  0  0  0  0
  -29.5711  -25.1914   19.1002 H   0  0  0  0  0  0
  -28.1828  -21.0042   21.1354 H   0  0  0  0  0  0
  -27.8324  -20.8963   18.0901 H   0  0  0  0  0  0
  -28.8484  -15.7350   20.6748 H   0  0  0  0  0  0
  1 25  1  0  0  0
  1 30  2  0  0  0
  1 81  1  0  0  0
  2  3  1  0  0  0
  2 25  1  0  0  0
  2 85  1  0  0  0
  2 86  1  0  0  0
  3  4  1  0  0  0
  3 87  1  0  0  0
  3 88  1  0  0  0
  4  5  1  0  0  0
  4 89  1  0  0  0
  4 90  1  0  0  0
  5  6  1  0  0  0
  5 26  1  0  0  0
  5 91  1  0  0  0
  6 25  1  0  0  0
  6 92  1  0  0  0
  6 93  1  0  0  0
  7  8  2  0  0  0
  7 26  1  0  0  0
  7 29  1  0  0  0
  8  9  1  0  0  0
  8 22  1  0  0  0
  9 10  1  0  0  0
  9 27  2  0  0  0
 10 11  2  0  0  0
 10 15  1  0  0  0
 11 12  1  0  0  0
 11 94  1  0  0  0
 12 13  2  0  0  0
 12 95  1  0  0  0
 13 14  1  0  0  0
 13 31  1  0  0  0
 14 15  2  0  0  0
 14 96  1  0  0  0
 15 97  1  0  0  0
 16 17  2  0  0  0
 16 21  1  0  0  0
 16 31  1  0  0  0
 17 18  1  0  0  0
 17 98  1  0  0  0
 18 19  2  0  0  0
 18 99  1  0  0  0
 19 20  1  0  0  0
 19 24  1  0  0  0
 20 21  2  0  0  0
 20100  1  0  0  0
 21 23  1  0  0  0
 22 28  1  0  0  0
 22 32  2  0  0  0
 26 27  1  0  0  0
 28101  1  0  0  0
 28102  1  0  0  0
 29103  1  0  0  0
 29104  1  0  0  0
 33 34  1  0  0  0
 33 66  1  0  0  0
 33 70  2  0  0  0
 34 36  1  0  0  0
 34 59  1  0  0  0
 34105  1  0  0  0
 35 44  2  0  0  0
 35 45  1  0  0  0
 35 68  1  0  0  0
 36 56  1  0  0  0
 36106  1  0  0  0
 37 39  1  0  0  0
 37 47  1  0  0  0
 37 66  1  0  0  0
 37107  1  0  0  0
 38 43  2  0  0  0
 38 46  1  0  0  0
 38 47  1  0  0  0
 39 64  1  0  0  0
 39 67  2  0  0  0
 40 52  1  0  0  0
 40 53  2  0  0  0
 40 58  1  0  0  0
 41108  1  0  0  0
 41109  1  0  0  0
 41110  1  0  0  0
 41 48  1  0  0  0
 42 43  1  0  0  0
 42 66  1  0  0  0
 42111  1  0  0  0
 42112  1  0  0  0
 43 44  1  0  0  0
 44113  1  0  0  0
 45 46  2  0  0  0
 45114  1  0  0  0
 46115  1  0  0  0
 47116  1  0  0  0
 47117  1  0  0  0
 48 56  1  0  0  0
 48 65  1  0  0  0
 48118  1  0  0  0
 49 50  1  0  0  0
 49 53  1  0  0  0
 49 64  1  0  0  0
 49119  1  0  0  0
 50 51  1  0  0  0
 50120  1  0  0  0
 50121  1  0  0  0
 51 52  1  0  0  0
 51122  1  0  0  0
 51123  1  0  0  0
 52124  1  0  0  0
 52125  1  0  0  0
 53 54  1  0  0  0
 54 55  2  0  0  0
 54126  1  0  0  0
 55 57  1  0  0  0
 55127  1  0  0  0
 56 69  2  0  0  0
 57 58  2  0  0  0
 57128  1  0  0  0
 58129  1  0  0  0
 59 60  1  0  0  0
 59 61  1  0  0  0
 59 62  1  0  0  0
 60130  1  0  0  0
 60131  1  0  0  0
 60132  1  0  0  0
 61133  1  0  0  0
 61134  1  0  0  0
 61135  1  0  0  0
 62136  1  0  0  0
 62137  1  0  0  0
 62138  1  0  0  0
 63 65  1  0  0  0
 63139  1  0  0  0
 63140  1  0  0  0
 63141  1  0  0  0
 64142  1  0  0  0
 65143  1  0  0  0
 68 77  1  0  0  0
 71 74  1  0  0  0
 71 80  1  0  0  0
 71 82  2  0  0  0
 72 73  1  0  0  0
 72 74  1  0  0  0
 72144  1  0  0  0
 72145  1  0  0  0
 73 80  1  0  0  0
 73146  1  0  0  0
 73147  1  0  0  0
 74 81  1  0  0  0
 74148  1  0  0  0
 75 76  1  0  0  0
 75 77  1  0  0  0
 75149  1  0  0  0
 75150  1  0  0  0
 76151  1  0  0  0
 76152  1  0  0  0
 76 78  1  0  0  0
 77153  1  0  0  0
 77154  1  0  0  0
 78 79  1  0  0  0
 78 80  1  0  0  0
 78155  1  0  0  0
 79 83  1  0  0  0
 79 84  1  0  0  0
 79156  1  0  0  0
 81157  1  0  0  0
M  ISO  4   1 100  68 101  77 101  81 100
M  END
> <chiral flag>
0

> <version>
0

> <s_m_source_file>
/data/baiqing/PycharmProjects/Reinvent-master-3.2/result/LINK_invent/BTK/process_docking_weight1_custom_product_contain_oxygen_bond_distance_aromatic_linkinvent_7_9_3/rearranged_h_0007.sdf

> <i_m_source_file_index>
8

> <r_mmod_Potential_Energy-OPLS-2005>
142.061218261719

> <r_mmod_Stretch_Energy-OPLS-2005>
116.290237426758

> <r_mmod_Bend_Energy-OPLS-2005>
207.124923706055

> <r_mmod_Torsional_Energy-OPLS-2005>
278.62158203125

> <r_mmod_Improper_Torsional_Energy-OPLS-2005>
6.04910659790039

> <r_mmod_Van_der_Waal_Energy-OPLS-2005>
109.178367614746

> <r_mmod_Electrostatic_Energy-OPLS-2005>
-427.455230712891

> <r_mmod_Solvation_Energy-OPLS-2005>
-225.126129150391

> <b_mmod_Minimization_Converged-OPLS-2005>
0

> <r_mmod_RMS_Derivative-OPLS-2005>
5.64818716049194

$$$$
8
                    3D
 Structure written by MMmdl.
157166  0  0  1  0            999 V2000
  -30.5725  -14.9718   20.3992 C   0  0  0  0  0  0
  -30.4418  -12.6014   19.5084 C   0  0  0  0  0  0
  -29.5286  -12.5209   18.2632 C   0  0  0  0  0  0
  -28.0616  -12.3058   18.6820 C   0  0  0  0  0  0
  -27.6315  -13.2526   19.8341 C   0  0  2  0  0  0
  -28.6758  -13.3128   20.9713 C   0  0  0  0  0  0
  -25.2481  -13.8221   20.5704 C   0  0  0  0  0  0
  -24.1799  -13.0454   20.9240 C   0  0  0  0  0  0
  -24.6422  -11.6937   20.8761 C   0  0  0  0  0  0
  -23.9102  -10.4305   21.0395 C   0  0  0  0  0  0
  -24.3643   -9.4219   21.9176 C   0  0  0  0  0  0
  -23.6308   -8.2251   22.0743 C   0  0  0  0  0  0
  -22.4290   -8.0282   21.3530 C   0  0  0  0  0  0
  -21.9933   -9.0269   20.4641 C   0  0  0  0  0  0
  -22.7266  -10.2148   20.3050 C   0  0  0  0  0  0
  -21.6858   -6.0738   22.5280 C   0  0  0  0  0  0
  -21.4010   -6.5640   23.8219 C   0  0  0  0  0  0
  -21.3667   -5.6793   24.9181 C   0  0  0  0  0  0
  -21.6038   -4.3051   24.7225 C   0  0  0  0  0  0
  -21.8819   -3.8145   23.4349 C   0  0  0  0  0  0
  -21.9192   -4.6967   22.3407 C   0  0  0  0  0  0
  -22.7820  -13.5231   21.1864 C   0  0  0  0  0  0
  -22.1659   -4.2159   21.0980 F   0  0  0  0  0  0
  -21.5638   -3.4528   25.7733 F   0  0  0  0  0  0
  -29.9531  -13.7200   20.3695 N   0  0  0  0  0  0
  -26.2913  -12.9466   20.3245 N   0  0  0  0  0  0
  -25.9354  -11.6595   20.5743 N   0  0  0  0  0  0
  -22.0446  -12.8238   22.0426 N   0  0  0  0  0  0
  -25.4148  -15.1948   20.4112 N   0  0  0  0  0  0
  -31.7748  -15.0076   20.1162 O   0  0  0  0  0  0
  -21.6636   -6.8880   21.4237 O   0  0  0  0  0  0
  -22.3519  -14.5536   20.6696 O   0  0  0  0  0  0
  -24.6450  -31.8412   23.1857 C   0  0  0  0  0  0
  -25.9194  -32.4677   23.8263 C   0  0  1  0  0  0
  -27.2231  -27.1076   20.1455 C   0  0  0  0  0  0
  -25.5940  -33.8490   24.2185 N   0  0  0  0  0  0
  -23.4522  -30.4601   21.5302 C   0  0  2  0  0  0
  -24.9049  -28.8856   20.1024 C   0  0  0  0  0  0
  -22.7582  -29.4536   22.4816 C   0  0  0  0  0  0
  -18.0309  -28.1413   22.8489 C   0  0  0  0  0  0
  -24.1481  -36.7247   23.2645 C   0  0  0  0  0  0
  -26.0113  -30.7011   21.3955 C   0  0  0  0  0  0
  -26.0788  -29.3101   20.7358 C   0  0  0  0  0  0
  -27.2328  -28.4353   20.7463 C   0  0  0  0  0  0
  -26.0288  -26.8024   19.4519 C   0  0  0  0  0  0
  -24.8948  -27.6471   19.4441 C   0  0  0  0  0  0
  -23.6813  -29.7919   20.1474 C   0  0  0  0  0  0
  -25.4116  -36.3027   24.0319 C   0  0  1  0  0  0
  -20.5932  -28.3731   23.1234 C   0  0  2  0  0  0
  -20.6800  -26.9423   22.5420 C   0  0  0  0  0  0
  -19.5771  -26.6381   21.5233 C   0  0  0  0  0  0
  -18.1941  -26.7961   22.1628 C   0  0  0  0  0  0
  -19.1570  -28.8893   23.2860 C   0  0  0  0  0  0
  -18.9485  -30.1485   23.8883 C   0  0  0  0  0  0
  -17.6480  -30.6606   24.0577 C   0  0  0  0  0  0
  -25.9067  -34.9396   23.5065 C   0  0  0  0  0  0
  -16.5374  -29.9106   23.6337 C   0  0  0  0  0  0
  -16.7292  -28.6528   23.0352 C   0  0  0  0  0  0
  -26.4508  -31.6573   25.0724 C   0  0  0  0  0  0
  -25.3681  -31.3791   26.1417 C   0  0  0  0  0  0
  -27.0388  -30.2971   24.6339 C   0  0  0  0  0  0
  -27.6048  -32.4342   25.7498 C   0  0  0  0  0  0
  -27.5574  -37.1774   24.8450 C   0  0  0  0  0  0
  -21.4272  -29.3046   22.3591 N   0  0  0  0  0  0
  -26.4274  -37.3741   23.9417 N   0  0  0  0  0  0
  -24.7220  -31.0232   22.0919 N   0  0  0  0  0  0
  -23.4222  -28.8060   23.2960 O   0  0  0  0  0  0
  -28.2764  -26.1161   20.2495 O   0  0  0  0  0  0
  -26.5664  -34.8902   22.4646 O   0  0  0  0  0  0
  -23.5544  -32.1318   23.7042 O   0  0  0  0  0  0
  -31.7351  -19.5548   19.7195 C   0  0  0  0  0  0
  -30.0031  -21.4661   19.0352 C   0  0  0  0  0  0
  -28.9721  -20.4345   20.8456 C   0  0  0  0  0  0
  -30.3635  -19.9201   19.0708 C   0  0  2  0  0  0
  -29.3555  -19.1168   19.9182 C   0  0  1  0  0  0
  -30.2585  -17.7048   20.1792 C   0  0  2  0  0  0
  -28.8627  -23.2388   20.6141 C   0  0  0  0  0  0
  -28.1550  -24.5938   19.8613 C   0  0  0  0  0  0
  -29.8494  -16.1993   20.5196 N   0  0  0  0  0  0
  -31.6262  -18.2221   20.3884 N   0  3  0  0  0  0
  -28.9080  -21.7520   20.0045 N   0  3  1  0  0  0
  -31.4788  -12.7425   19.1986 H   0  0  0  0  0  0
  -30.4276  -11.6608   20.0614 H   0  0  0  0  0  0
  -29.8590  -11.7113   17.6108 H   0  0  0  0  0  0
  -29.6150  -13.4376   17.6795 H   0  0  0  0  0  0
  -27.9649  -11.2687   19.0048 H   0  0  0  0  0  0
  -27.3985  -12.4180   17.8228 H   0  0  0  0  0  0
  -27.5857  -14.2462   19.3864 H   0  0  0  0  0  0
  -28.7701  -12.3474   21.4724 H   0  0  0  0  0  0
  -28.3725  -14.0299   21.7362 H   0  0  0  0  0  0
  -25.2783   -9.5702   22.4764 H   0  0  0  0  0  0
  -24.0025   -7.4641   22.7463 H   0  0  0  0  0  0
  -21.0865   -8.8792   19.8956 H   0  0  0  0  0  0
  -22.3709  -10.9691   19.6171 H   0  0  0  0  0  0
  -21.1989   -7.6141   23.9735 H   0  0  0  0  0  0
  -21.1494   -6.0507   25.9093 H   0  0  0  0  0  0
  -22.0588   -2.7605   23.2838 H   0  0  0  0  0  0
  -22.4045  -11.9925   22.4872 H   0  0  0  0  0  0
  -21.1052  -13.1254   22.2559 H   0  0  0  0  0  0
  -24.6414  -15.8424   20.5180 H   0  0  0  0  0  0
  -26.2496  -15.6322   20.0454 H   0  0  0  0  0  0
  -26.7262  -32.5259   23.0989 H   0  0  0  0  0  0
  -25.0044  -33.9586   25.0312 H   0  0  0  0  0  0
  -22.7570  -31.2876   21.3749 H   0  0  0  0  0  0
  -23.3750  -35.9563   23.3267 H   0  0  0  0  0  0
  -24.3590  -36.8910   22.2064 H   0  0  0  0  0  0
  -23.7209  -37.6427   23.6707 H   0  0  0  0  0  0
  -26.1775  -31.4509   20.6209 H   0  0  0  0  0  0
  -26.8790  -30.7470   22.0403 H   0  0  0  0  0  0
  -28.1213  -28.7535   21.2742 H   0  0  0  0  0  0
  -25.9308  -25.8728   18.9141 H   0  0  0  0  0  0
  -24.0045  -27.3276   18.9198 H   0  0  0  0  0  0
  -23.8180  -30.5697   19.3945 H   0  0  0  0  0  0
  -22.7956  -29.2353   19.8342 H   0  0  0  0  0  0
  -25.1303  -36.1853   25.0808 H   0  0  0  0  0  0
  -21.0042  -28.3306   24.1348 H   0  0  0  0  0  0
  -20.5695  -26.2331   23.3640 H   0  0  0  0  0  0
  -21.6665  -26.7421   22.1213 H   0  0  0  0  0  0
  -19.6925  -25.6281   21.1269 H   0  0  0  0  0  0
  -19.6721  -27.3194   20.6762 H   0  0  0  0  0  0
  -17.4231  -26.6718   21.4007 H   0  0  0  0  0  0
  -18.0311  -26.0130   22.9037 H   0  0  0  0  0  0
  -19.7948  -30.7319   24.2243 H   0  0  0  0  0  0
  -17.5022  -31.6273   24.5195 H   0  0  0  0  0  0
  -15.5369  -30.3007   23.7673 H   0  0  0  0  0  0
  -15.8689  -28.0846   22.7070 H   0  0  0  0  0  0
  -24.5849  -30.7157   25.7736 H   0  0  0  0  0  0
  -24.8882  -32.2988   26.4770 H   0  0  0  0  0  0
  -25.7935  -30.9002   27.0244 H   0  0  0  0  0  0
  -26.3032  -29.6678   24.1332 H   0  0  0  0  0  0
  -27.3987  -29.7277   25.4916 H   0  0  0  0  0  0
  -27.8932  -30.4210   23.9692 H   0  0  0  0  0  0
  -27.2658  -33.3655   26.2045 H   0  0  0  0  0  0
  -28.3870  -32.6885   25.0335 H   0  0  0  0  0  0
  -28.0725  -31.8503   26.5433 H   0  0  0  0  0  0
  -28.2565  -38.0095   24.7549 H   0  0  0  0  0  0
  -28.1100  -36.2639   24.6219 H   0  0  0  0  0  0
  -27.2317  -37.1351   25.8854 H   0  0  0  0  0  0
  -20.9473  -29.8782   21.6793 H   0  0  0  0  0  0
  -26.0131  -38.2791   24.1466 H   0  0  0  0  0  0
  -32.0244  -20.2949   20.4683 H   0  0  0  0  0  0
  -32.5323  -19.5415   18.9738 H   0  0  0  0  0  0
  -29.6733  -21.7659   18.0405 H   0  0  0  0  0  0
  -30.8827  -22.0680   19.2658 H   0  0  0  0  0  0
  -29.7187  -20.5687   21.6313 H   0  0  0  0  0  0
  -28.0228  -20.2755   21.3566 H   0  0  0  0  0  0
  -30.3594  -19.5339   18.0494 H   0  0  0  0  0  0
  -28.4811  -18.8678   19.3138 H   0  0  0  0  0  0
  -30.3809  -17.4303   19.1279 H   0  0  0  0  0  0
  -28.3548  -23.1464   21.5755 H   0  0  0  0  0  0
  -29.8878  -23.5043   20.8756 H   0  0  0  0  0  0
  -27.0961  -24.3491   19.8177 H   0  0  0  0  0  0
  -28.4823  -24.5652   18.8215 H   0  0  0  0  0  0
  -28.8741  -16.0782   20.7453 H   0  0  0  0  0  0
  -31.8230  -18.3246   21.3716 H   0  0  0  0  0  0
  -32.3044  -17.5858   19.9997 H   0  0  0  0  0  0
  -28.0500  -21.6544   19.4777 H   0  0  0  0  0  0
  1 25  1  0  0  0
  1 30  2  0  0  0
  1 79  1  0  0  0
  2  3  1  0  0  0
  2 25  1  0  0  0
  2 82  1  0  0  0
  2 83  1  0  0  0
  3  4  1  0  0  0
  3 84  1  0  0  0
  3 85  1  0  0  0
  4  5  1  0  0  0
  4 86  1  0  0  0
  4 87  1  0  0  0
  5  6  1  0  0  0
  5 26  1  0  0  0
  5 88  1  0  0  0
  6 25  1  0  0  0
  6 89  1  0  0  0
  6 90  1  0  0  0
  7  8  2  0  0  0
  7 26  1  0  0  0
  7 29  1  0  0  0
  8  9  1  0  0  0
  8 22  1  0  0  0
  9 10  1  0  0  0
  9 27  2  0  0  0
 10 11  2  0  0  0
 10 15  1  0  0  0
 11 12  1  0  0  0
 11 91  1  0  0  0
 12 13  2  0  0  0
 12 92  1  0  0  0
 13 14  1  0  0  0
 13 31  1  0  0  0
 14 15  2  0  0  0
 14 93  1  0  0  0
 15 94  1  0  0  0
 16 17  2  0  0  0
 16 21  1  0  0  0
 16 31  1  0  0  0
 17 18  1  0  0  0
 17 95  1  0  0  0
 18 19  2  0  0  0
 18 96  1  0  0  0
 19 20  1  0  0  0
 19 24  1  0  0  0
 20 21  2  0  0  0
 20 97  1  0  0  0
 21 23  1  0  0  0
 22 28  1  0  0  0
 22 32  2  0  0  0
 26 27  1  0  0  0
 28 98  1  0  0  0
 28 99  1  0  0  0
 29100  1  0  0  0
 29101  1  0  0  0
 33 34  1  0  0  0
 33 66  1  0  0  0
 33 70  2  0  0  0
 34 36  1  0  0  0
 34 59  1  0  0  0
 34102  1  0  0  0
 35 44  2  0  0  0
 35 45  1  0  0  0
 35 68  1  0  0  0
 36 56  1  0  0  0
 36103  1  0  0  0
 37 39  1  0  0  0
 37 47  1  0  0  0
 37 66  1  0  0  0
 37104  1  0  0  0
 38 43  2  0  0  0
 38 46  1  0  0  0
 38 47  1  0  0  0
 39 64  1  0  0  0
 39 67  2  0  0  0
 40 52  1  0  0  0
 40 53  2  0  0  0
 40 58  1  0  0  0
 41105  1  0  0  0
 41106  1  0  0  0
 41107  1  0  0  0
 41 48  1  0  0  0
 42 43  1  0  0  0
 42 66  1  0  0  0
 42108  1  0  0  0
 42109  1  0  0  0
 43 44  1  0  0  0
 44110  1  0  0  0
 45 46  2  0  0  0
 45111  1  0  0  0
 46112  1  0  0  0
 47113  1  0  0  0
 47114  1  0  0  0
 48 56  1  0  0  0
 48 65  1  0  0  0
 48115  1  0  0  0
 49 50  1  0  0  0
 49 53  1  0  0  0
 49 64  1  0  0  0
 49116  1  0  0  0
 50 51  1  0  0  0
 50117  1  0  0  0
 50118  1  0  0  0
 51 52  1  0  0  0
 51119  1  0  0  0
 51120  1  0  0  0
 52121  1  0  0  0
 52122  1  0  0  0
 53 54  1  0  0  0
 54 55  2  0  0  0
 54123  1  0  0  0
 55 57  1  0  0  0
 55124  1  0  0  0
 56 69  2  0  0  0
 57 58  2  0  0  0
 57125  1  0  0  0
 58126  1  0  0  0
 59 60  1  0  0  0
 59 61  1  0  0  0
 59 62  1  0  0  0
 60127  1  0  0  0
 60128  1  0  0  0
 60129  1  0  0  0
 61130  1  0  0  0
 61131  1  0  0  0
 61132  1  0  0  0
 62133  1  0  0  0
 62134  1  0  0  0
 62135  1  0  0  0
 63 65  1  0  0  0
 63136  1  0  0  0
 63137  1  0  0  0
 63138  1  0  0  0
 64139  1  0  0  0
 65140  1  0  0  0
 68 78  1  0  0  0
 71 80  1  0  0  0
 71141  1  0  0  0
 71142  1  0  0  0
 71 74  1  0  0  0
 72 74  1  0  0  0
 72 81  1  0  0  0
 72143  1  0  0  0
 72144  1  0  0  0
 73 81  1  0  0  0
 73145  1  0  0  0
 73146  1  0  0  0
 73 75  1  0  0  0
 74 75  1  0  0  0
 74147  1  0  0  0
 75 76  1  0  0  0
 75148  1  0  0  0
 76 79  1  0  0  0
 76 80  1  0  0  0
 76149  1  0  0  0
 77 78  1  0  0  0
 77150  1  0  0  0
 77151  1  0  0  0
 77 81  1  0  0  0
 78152  1  0  0  0
 78153  1  0  0  0
 79154  1  0  0  0
 80155  1  0  0  0
 80156  1  0  0  0
 81157  1  0  0  0
M  CHG  2  80   1  81   1
M  ISO  4   1 100  68 101  78 101  79 100
M  END
> <chiral flag>
0

> <version>
0

> <s_m_source_file>
/data/baiqing/PycharmProjects/Reinvent-master-3.2/result/LINK_invent/BTK/process_docking_weight1_custom_product_contain_oxygen_bond_distance_aromatic_linkinvent_7_9_3/rearranged_h_0007.sdf

> <i_m_source_file_index>
9

> <r_mmod_Potential_Energy-OPLS-2005>
428.926483154297

> <r_mmod_Stretch_Energy-OPLS-2005>
286.001220703125

> <r_mmod_Bend_Energy-OPLS-2005>
408.59521484375

> <r_mmod_Torsional_Energy-OPLS-2005>
326.028656005859

> <r_mmod_Improper_Torsional_Energy-OPLS-2005>
5.00831604003906

> <r_mmod_Van_der_Waal_Energy-OPLS-2005>
112.481506347656

> <r_mmod_Electrostatic_Energy-OPLS-2005>
64.0811080932617

> <r_mmod_Solvation_Energy-OPLS-2005>
-987.34521484375

> <b_mmod_Minimization_Converged-OPLS-2005>
0

> <r_mmod_RMS_Derivative-OPLS-2005>
2.89902925491333

$$$$
9
                    3D
 Structure written by MMmdl.
151159  0  0  1  0            999 V2000
  -30.6108  -14.7369   20.4652 C   0  0  0  0  0  0
  -30.4303  -12.4501   19.4613 C   0  0  0  0  0  0
  -29.5092  -12.5150   18.2240 C   0  0  0  0  0  0
  -28.0329  -12.3463   18.6355 C   0  0  0  0  0  0
  -27.6403  -13.2328   19.8479 C   0  0  2  0  0  0
  -28.6879  -13.1550   20.9795 C   0  0  0  0  0  0
  -25.2497  -13.8193   20.5689 C   0  0  0  0  0  0
  -24.1799  -13.0435   20.9206 C   0  0  0  0  0  0
  -24.6398  -11.6912   20.8753 C   0  0  0  0  0  0
  -23.9079  -10.4292   21.0417 C   0  0  0  0  0  0
  -24.3631   -9.4201   21.9188 C   0  0  0  0  0  0
  -23.6308   -8.2234   22.0757 C   0  0  0  0  0  0
  -22.4287   -8.0274   21.3552 C   0  0  0  0  0  0
  -21.9919   -9.0249   20.4646 C   0  0  0  0  0  0
  -22.7255  -10.2131   20.3059 C   0  0  0  0  0  0
  -21.6853   -6.0736   22.5291 C   0  0  0  0  0  0
  -21.4009   -6.5644   23.8224 C   0  0  0  0  0  0
  -21.3658   -5.6798   24.9187 C   0  0  0  0  0  0
  -21.6049   -4.3060   24.7238 C   0  0  0  0  0  0
  -21.8812   -3.8151   23.4357 C   0  0  0  0  0  0
  -21.9192   -4.6964   22.3413 C   0  0  0  0  0  0
  -22.7822  -13.5209   21.1871 C   0  0  0  0  0  0
  -22.1660   -4.2154   21.0987 F   0  0  0  0  0  0
  -21.5634   -3.4535   25.7747 F   0  0  0  0  0  0
  -29.9861  -13.5116   20.3939 N   0  0  0  0  0  0
  -26.2928  -12.9409   20.3266 N   0  0  0  0  0  0
  -25.9322  -11.6549   20.5736 N   0  0  0  0  0  0
  -22.0474  -12.8197   22.0424 N   0  0  0  0  0  0
  -25.4157  -15.1922   20.4071 N   0  0  0  0  0  0
  -31.8076  -14.8217   20.1744 O   0  0  0  0  0  0
  -21.6643   -6.8875   21.4250 O   0  0  0  0  0  0
  -22.3494  -14.5514   20.6713 O   0  0  0  0  0  0
  -24.6315  -31.8538   23.1952 C   0  0  0  0  0  0
  -25.9134  -32.4755   23.8306 C   0  0  1  0  0  0
  -27.2287  -27.2612   20.1419 C   0  0  0  0  0  0
  -25.5939  -33.8555   24.2243 N   0  0  0  0  0  0
  -23.4291  -30.4712   21.5394 C   0  0  2  0  0  0
  -24.8790  -28.9083   20.1172 C   0  0  0  0  0  0
  -22.7498  -29.4577   22.4918 C   0  0  0  0  0  0
  -18.0293  -28.1377   22.8474 C   0  0  0  0  0  0
  -24.1498  -36.7275   23.2638 C   0  0  0  0  0  0
  -25.9726  -30.7677   21.3723 C   0  0  0  0  0  0
  -26.0492  -29.3862   20.7216 C   0  0  0  0  0  0
  -27.2298  -28.5767   20.7163 C   0  0  0  0  0  0
  -26.0371  -26.8408   19.5176 C   0  0  0  0  0  0
  -24.8772  -27.6437   19.5044 C   0  0  0  0  0  0
  -23.6486  -29.7954   20.1592 C   0  0  0  0  0  0
  -25.4130  -36.3070   24.0322 C   0  0  1  0  0  0
  -20.5895  -28.3681   23.1277 C   0  0  2  0  0  0
  -20.6776  -26.9398   22.5411 C   0  0  0  0  0  0
  -19.5758  -26.6371   21.5208 C   0  0  0  0  0  0
  -18.1939  -26.7920   22.1614 C   0  0  0  0  0  0
  -19.1545  -28.8847   23.2870 C   0  0  0  0  0  0
  -18.9463  -30.1452   23.8879 C   0  0  0  0  0  0
  -17.6460  -30.6579   24.0551 C   0  0  0  0  0  0
  -25.9065  -34.9440   23.5084 C   0  0  0  0  0  0
  -16.5352  -29.9068   23.6332 C   0  0  0  0  0  0
  -16.7278  -28.6489   23.0348 C   0  0  0  0  0  0
  -26.4508  -31.6573   25.0691 C   0  0  0  0  0  0
  -25.3734  -31.3693   26.1406 C   0  0  0  0  0  0
  -27.0353  -30.3002   24.6146 C   0  0  0  0  0  0
  -27.6080  -32.4289   25.7468 C   0  0  0  0  0  0
  -27.5587  -37.1795   24.8465 C   0  0  0  0  0  0
  -21.4208  -29.3024   22.3661 N   0  0  0  0  0  0
  -26.4302  -37.3769   23.9402 N   0  0  0  0  0  0
  -24.6966  -31.0491   22.0930 N   0  0  0  0  0  0
  -23.4192  -28.8132   23.3031 O   0  0  0  0  0  0
  -28.3401  -26.3923   20.1368 O   0  0  0  0  0  0
  -26.5625  -34.8916   22.4647 O   0  0  0  0  0  0
  -23.5464  -32.1355   23.7252 O   0  0  0  0  0  0
  -31.7791  -19.0248   21.4916 C   0  0  0  0  0  0
  -30.9240  -20.0860   21.1258 C   0  0  0  0  0  0
  -31.4139  -17.6752   21.3042 C   0  0  0  0  0  0
  -29.2982  -18.4344   20.3830 C   0  0  0  0  0  0
  -29.6543  -19.8424   20.5589 C   0  0  0  0  0  0
  -30.1678  -17.3164   20.7420 C   0  0  0  0  0  0
  -28.8016  -21.0522   20.0523 C   0  0  0  0  0  0
  -28.6137  -23.6754   19.8142 C   0  0  0  0  0  0
  -28.2221  -24.9919   20.6795 C   0  0  0  0  0  0
  -29.8175  -15.8731   20.6119 N   0  0  0  0  0  0
  -29.0181  -22.3527   20.4874 N   0  0  0  0  0  0
  -27.9350  -20.8296   19.2054 O   0  0  0  0  0  0
  -31.4735  -12.5690   19.1619 H   0  0  0  0  0  0
  -30.3648  -11.4709   19.9378 H   0  0  0  0  0  0
  -29.7881  -11.7484   17.4993 H   0  0  0  0  0  0
  -29.6415  -13.4735   17.7201 H   0  0  0  0  0  0
  -27.8719  -11.2961   18.8783 H   0  0  0  0  0  0
  -27.3838  -12.5621   17.7867 H   0  0  0  0  0  0
  -27.6343  -14.2572   19.4763 H   0  0  0  0  0  0
  -28.7234  -12.1530   21.4088 H   0  0  0  0  0  0
  -28.4304  -13.8300   21.7973 H   0  0  0  0  0  0
  -25.2778   -9.5679   22.4754 H   0  0  0  0  0  0
  -24.0027   -7.4621   22.7469 H   0  0  0  0  0  0
  -21.0851   -8.8759   19.8945 H   0  0  0  0  0  0
  -22.3709  -10.9664   19.6167 H   0  0  0  0  0  0
  -21.1989   -7.6152   23.9724 H   0  0  0  0  0  0
  -21.1498   -6.0534   25.9092 H   0  0  0  0  0  0
  -22.0594   -2.7611   23.2865 H   0  0  0  0  0  0
  -22.4094  -11.9875   22.4840 H   0  0  0  0  0  0
  -21.1078  -13.1208   22.2609 H   0  0  0  0  0  0
  -24.6384  -15.8380   20.4950 H   0  0  0  0  0  0
  -26.2490  -15.6312   20.0384 H   0  0  0  0  0  0
  -26.7189  -32.5406   23.1038 H   0  0  0  0  0  0
  -25.0109  -33.9690   25.0405 H   0  0  0  0  0  0
  -22.7261  -31.2934   21.3884 H   0  0  0  0  0  0
  -23.3772  -35.9594   23.3299 H   0  0  0  0  0  0
  -24.3585  -36.8899   22.2052 H   0  0  0  0  0  0
  -23.7236  -37.6470   23.6662 H   0  0  0  0  0  0
  -26.1057  -31.5241   20.5978 H   0  0  0  0  0  0
  -26.8520  -30.8228   22.0025 H   0  0  0  0  0  0
  -28.1319  -28.9413   21.1874 H   0  0  0  0  0  0
  -26.0012  -25.8700   19.0429 H   0  0  0  0  0  0
  -23.9804  -27.2713   19.0285 H   0  0  0  0  0  0
  -23.7736  -30.5666   19.3978 H   0  0  0  0  0  0
  -22.7672  -29.2260   19.8576 H   0  0  0  0  0  0
  -25.1319  -36.1918   25.0813 H   0  0  0  0  0  0
  -20.9990  -28.3253   24.1398 H   0  0  0  0  0  0
  -20.5676  -26.2283   23.3604 H   0  0  0  0  0  0
  -21.6645  -26.7416   22.1213 H   0  0  0  0  0  0
  -19.6923  -25.6281   21.1239 H   0  0  0  0  0  0
  -19.6719  -27.3175   20.6734 H   0  0  0  0  0  0
  -17.4214  -26.6663   21.4011 H   0  0  0  0  0  0
  -18.0344  -26.0066   22.9016 H   0  0  0  0  0  0
  -19.7936  -30.7273   24.2245 H   0  0  0  0  0  0
  -17.5010  -31.6268   24.5136 H   0  0  0  0  0  0
  -15.5347  -30.2953   23.7676 H   0  0  0  0  0  0
  -15.8682  -28.0803   22.7063 H   0  0  0  0  0  0
  -24.5932  -30.7032   25.7706 H   0  0  0  0  0  0
  -24.8901  -32.2843   26.4835 H   0  0  0  0  0  0
  -25.8059  -30.8859   27.0173 H   0  0  0  0  0  0
  -26.2914  -29.6746   24.1204 H   0  0  0  0  0  0
  -27.4087  -29.7277   25.4641 H   0  0  0  0  0  0
  -27.8767  -30.4297   23.9341 H   0  0  0  0  0  0
  -27.2724  -33.3599   26.2043 H   0  0  0  0  0  0
  -28.3902  -32.6818   25.0302 H   0  0  0  0  0  0
  -28.0726  -31.8398   26.5381 H   0  0  0  0  0  0
  -28.2605  -38.0097   24.7528 H   0  0  0  0  0  0
  -28.1088  -36.2626   24.6286 H   0  0  0  0  0  0
  -27.2295  -37.1434   25.8866 H   0  0  0  0  0  0
  -20.9392  -29.8734   21.6857 H   0  0  0  0  0  0
  -26.0185  -38.2843   24.1411 H   0  0  0  0  0  0
  -32.7464  -19.2518   21.9194 H   0  0  0  0  0  0
  -31.2726  -21.1003   21.2636 H   0  0  0  0  0  0
  -32.1187  -16.9140   21.6116 H   0  0  0  0  0  0
  -28.3384  -18.2134   19.9354 H   0  0  0  0  0  0
  -29.4737  -23.9441   19.1997 H   0  0  0  0  0  0
  -27.8079  -23.4825   19.1046 H   0  0  0  0  0  0
  -28.8750  -24.9913   21.5525 H   0  0  0  0  0  0
  -27.2218  -24.8475   21.0893 H   0  0  0  0  0  0
  -28.8304  -15.6720   20.6284 H   0  0  0  0  0  0
  -29.6825  -22.4432   21.2434 H   0  0  0  0  0  0
  1 25  1  0  0  0
  1 30  2  0  0  0
  1 80  1  0  0  0
  2  3  1  0  0  0
  2 25  1  0  0  0
  2 83  1  0  0  0
  2 84  1  0  0  0
  3  4  1  0  0  0
  3 85  1  0  0  0
  3 86  1  0  0  0
  4  5  1  0  0  0
  4 87  1  0  0  0
  4 88  1  0  0  0
  5  6  1  0  0  0
  5 26  1  0  0  0
  5 89  1  0  0  0
  6 25  1  0  0  0
  6 90  1  0  0  0
  6 91  1  0  0  0
  7  8  2  0  0  0
  7 26  1  0  0  0
  7 29  1  0  0  0
  8  9  1  0  0  0
  8 22  1  0  0  0
  9 10  1  0  0  0
  9 27  2  0  0  0
 10 11  2  0  0  0
 10 15  1  0  0  0
 11 12  1  0  0  0
 11 92  1  0  0  0
 12 13  2  0  0  0
 12 93  1  0  0  0
 13 14  1  0  0  0
 13 31  1  0  0  0
 14 15  2  0  0  0
 14 94  1  0  0  0
 15 95  1  0  0  0
 16 17  2  0  0  0
 16 21  1  0  0  0
 16 31  1  0  0  0
 17 18  1  0  0  0
 17 96  1  0  0  0
 18 19  2  0  0  0
 18 97  1  0  0  0
 19 20  1  0  0  0
 19 24  1  0  0  0
 20 21  2  0  0  0
 20 98  1  0  0  0
 21 23  1  0  0  0
 22 28  1  0  0  0
 22 32  2  0  0  0
 26 27  1  0  0  0
 28 99  1  0  0  0
 28100  1  0  0  0
 29101  1  0  0  0
 29102  1  0  0  0
 33 34  1  0  0  0
 33 66  1  0  0  0
 33 70  2  0  0  0
 34 36  1  0  0  0
 34 59  1  0  0  0
 34103  1  0  0  0
 35 44  2  0  0  0
 35 45  1  0  0  0
 35 68  1  0  0  0
 36 56  1  0  0  0
 36104  1  0  0  0
 37 39  1  0  0  0
 37 47  1  0  0  0
 37 66  1  0  0  0
 37105  1  0  0  0
 38 43  2  0  0  0
 38 46  1  0  0  0
 38 47  1  0  0  0
 39 64  1  0  0  0
 39 67  2  0  0  0
 40 52  1  0  0  0
 40 53  2  0  0  0
 40 58  1  0  0  0
 41106  1  0  0  0
 41107  1  0  0  0
 41108  1  0  0  0
 41 48  1  0  0  0
 42 43  1  0  0  0
 42 66  1  0  0  0
 42109  1  0  0  0
 42110  1  0  0  0
 43 44  1  0  0  0
 44111  1  0  0  0
 45 46  2  0  0  0
 45112  1  0  0  0
 46113  1  0  0  0
 47114  1  0  0  0
 47115  1  0  0  0
 48 56  1  0  0  0
 48 65  1  0  0  0
 48116  1  0  0  0
 49 50  1  0  0  0
 49 53  1  0  0  0
 49 64  1  0  0  0
 49117  1  0  0  0
 50 51  1  0  0  0
 50118  1  0  0  0
 50119  1  0  0  0
 51 52  1  0  0  0
 51120  1  0  0  0
 51121  1  0  0  0
 52122  1  0  0  0
 52123  1  0  0  0
 53 54  1  0  0  0
 54 55  2  0  0  0
 54124  1  0  0  0
 55 57  1  0  0  0
 55125  1  0  0  0
 56 69  2  0  0  0
 57 58  2  0  0  0
 57126  1  0  0  0
 58127  1  0  0  0
 59 60  1  0  0  0
 59 61  1  0  0  0
 59 62  1  0  0  0
 60128  1  0  0  0
 60129  1  0  0  0
 60130  1  0  0  0
 61131  1  0  0  0
 61132  1  0  0  0
 61133  1  0  0  0
 62134  1  0  0  0
 62135  1  0  0  0
 62136  1  0  0  0
 63 65  1  0  0  0
 63137  1  0  0  0
 63138  1  0  0  0
 63139  1  0  0  0
 64140  1  0  0  0
 65141  1  0  0  0
 68 79  1  0  0  0
 71 72  2  0  0  0
 71 73  1  0  0  0
 71142  1  0  0  0
 72 75  1  0  0  0
 72143  1  0  0  0
 73 76  2  0  0  0
 73144  1  0  0  0
 74 75  2  0  0  0
 74 76  1  0  0  0
 74145  1  0  0  0
 75 77  1  0  0  0
 76 80  1  0  0  0
 77 81  1  0  0  0
 77 82  2  0  0  0
 78 79  1  0  0  0
 78 81  1  0  0  0
 78146  1  0  0  0
 78147  1  0  0  0
 79148  1  0  0  0
 79149  1  0  0  0
 80150  1  0  0  0
 81151  1  0  0  0
M  ISO  4   1 100  68 101  79 101  80 100
M  END
> <chiral flag>
0

> <version>
0

> <s_m_source_file>
/data/baiqing/PycharmProjects/Reinvent-master-3.2/result/LINK_invent/BTK/process_docking_weight1_custom_product_contain_oxygen_bond_distance_aromatic_linkinvent_7_9_3/rearranged_h_0007.sdf

> <i_m_source_file_index>
10

> <r_mmod_Potential_Energy-OPLS-2005>
78.586296081543

> <r_mmod_Stretch_Energy-OPLS-2005>
125.418853759766

> <r_mmod_Bend_Energy-OPLS-2005>
158.979034423828

> <r_mmod_Torsional_Energy-OPLS-2005>
249.130096435547

> <r_mmod_Improper_Torsional_Energy-OPLS-2005>
6.98363304138184

> <r_mmod_Van_der_Waal_Energy-OPLS-2005>
135.837265014648

> <r_mmod_Electrostatic_Energy-OPLS-2005>
-442.598510742188

> <r_mmod_Solvation_Energy-OPLS-2005>
-235.281036376953

> <b_mmod_Minimization_Converged-OPLS-2005>
0

> <r_mmod_RMS_Derivative-OPLS-2005>
1.91622853279114

$$$$
10
                    3D
 Structure written by MMmdl.
162170  0  0  1  0            999 V2000
  -30.5919  -14.9152   20.4339 C   0  0  0  0  0  0
  -30.4366  -12.5698   19.4937 C   0  0  0  0  0  0
  -29.5203  -12.5087   18.2519 C   0  0  0  0  0  0
  -28.0545  -12.3012   18.6694 C   0  0  0  0  0  0
  -27.6313  -13.2448   19.8270 C   0  0  2  0  0  0
  -28.6745  -13.2888   20.9646 C   0  0  0  0  0  0
  -25.2525  -13.8236   20.5707 C   0  0  0  0  0  0
  -24.1829  -13.0458   20.9221 C   0  0  0  0  0  0
  -24.6425  -11.6939   20.8740 C   0  0  0  0  0  0
  -23.9098  -10.4307   21.0391 C   0  0  0  0  0  0
  -24.3642   -9.4209   21.9157 C   0  0  0  0  0  0
  -23.6323   -8.2247   22.0732 C   0  0  0  0  0  0
  -22.4299   -8.0289   21.3533 C   0  0  0  0  0  0
  -21.9921   -9.0252   20.4630 C   0  0  0  0  0  0
  -22.7257  -10.2137   20.3048 C   0  0  0  0  0  0
  -21.6862   -6.0745   22.5277 C   0  0  0  0  0  0
  -21.4016   -6.5634   23.8210 C   0  0  0  0  0  0
  -21.3666   -5.6779   24.9163 C   0  0  0  0  0  0
  -21.6051   -4.3042   24.7215 C   0  0  0  0  0  0
  -21.8823   -3.8144   23.4329 C   0  0  0  0  0  0
  -21.9204   -4.6971   22.3389 C   0  0  0  0  0  0
  -22.7843  -13.5225   21.1880 C   0  0  0  0  0  0
  -22.1669   -4.2148   21.0970 F   0  0  0  0  0  0
  -21.5623   -3.4539   25.7727 F   0  0  0  0  0  0
  -29.9546  -13.6786   20.3617 N   0  0  0  0  0  0
  -26.2916  -12.9445   20.3183 N   0  0  0  0  0  0
  -25.9338  -11.6582   20.5683 N   0  0  0  0  0  0
  -22.0470  -12.8228   22.0428 N   0  0  0  0  0  0
  -25.4264  -15.1974   20.4192 N   0  0  0  0  0  0
  -31.8008  -14.9439   20.1820 O   0  0  0  0  0  0
  -21.6663   -6.8890   21.4241 O   0  0  0  0  0  0
  -22.3513  -14.5520   20.6720 O   0  0  0  0  0  0
  -24.6397  -31.8436   23.1884 C   0  0  0  0  0  0
  -25.9182  -32.4689   23.8274 C   0  0  1  0  0  0
  -27.2281  -27.1729   20.1600 C   0  0  0  0  0  0
  -25.5923  -33.8495   24.2180 N   0  0  0  0  0  0
  -23.4438  -30.4587   21.5367 C   0  0  2  0  0  0
  -24.8914  -28.8829   20.1211 C   0  0  0  0  0  0
  -22.7551  -29.4531   22.4923 C   0  0  0  0  0  0
  -18.0296  -28.1391   22.8488 C   0  0  0  0  0  0
  -24.1491  -36.7271   23.2651 C   0  0  0  0  0  0
  -25.9927  -30.7325   21.3805 C   0  0  0  0  0  0
  -26.0650  -29.3399   20.7355 C   0  0  0  0  0  0
  -27.2331  -28.4967   20.7441 C   0  0  0  0  0  0
  -26.0354  -26.8043   19.5057 C   0  0  0  0  0  0
  -24.8855  -27.6250   19.4956 C   0  0  0  0  0  0
  -23.6627  -29.7774   20.1601 C   0  0  0  0  0  0
  -25.4123  -36.3041   24.0327 C   0  0  1  0  0  0
  -20.5900  -28.3708   23.1258 C   0  0  2  0  0  0
  -20.6769  -26.9410   22.5433 C   0  0  0  0  0  0
  -19.5752  -26.6382   21.5226 C   0  0  0  0  0  0
  -18.1929  -26.7940   22.1618 C   0  0  0  0  0  0
  -19.1543  -28.8871   23.2856 C   0  0  0  0  0  0
  -18.9453  -30.1472   23.8868 C   0  0  0  0  0  0
  -17.6441  -30.6590   24.0558 C   0  0  0  0  0  0
  -25.9065  -34.9408   23.5068 C   0  0  0  0  0  0
  -16.5337  -29.9077   23.6338 C   0  0  0  0  0  0
  -16.7269  -28.6498   23.0354 C   0  0  0  0  0  0
  -26.4486  -31.6561   25.0718 C   0  0  0  0  0  0
  -25.3671  -31.3748   26.1421 C   0  0  0  0  0  0
  -27.0343  -30.2951   24.6333 C   0  0  0  0  0  0
  -27.6022  -32.4328   25.7486 C   0  0  0  0  0  0
  -27.5593  -37.1779   24.8450 C   0  0  0  0  0  0
  -21.4255  -29.3026   22.3643 N   0  0  0  0  0  0
  -26.4290  -37.3772   23.9424 N   0  0  0  0  0  0
  -24.7120  -31.0326   22.0891 N   0  0  0  0  0  0
  -23.4195  -28.8102   23.3103 O   0  0  0  0  0  0
  -28.3162  -26.2424   20.1544 O   0  0  0  0  0  0
  -26.5681  -34.8895   22.4674 O   0  0  0  0  0  0
  -23.5528  -32.1286   23.7122 O   0  0  0  0  0  0
  -29.0413  -19.6761   19.4811 C   0  0  0  0  0  0
  -28.7221  -21.0926   19.3560 C   0  0  0  0  0  0
  -29.7537  -19.0923   20.5853 C   0  0  0  0  0  0
  -29.0795  -22.1054   20.3119 C   0  0  0  0  0  0
  -30.0516  -20.1102   21.5736 C   0  0  0  0  0  0
  -29.7426  -21.5255   21.4377 C   0  0  0  0  0  0
  -30.2819  -19.4486   23.9022 C   0  0  0  0  0  0
  -30.5680  -20.4872   26.1991 C   0  0  0  0  0  0
  -31.5494  -18.1899   25.7026 C   0  0  0  0  0  0
  -30.4563  -17.5897   20.5933 C   0  0  0  0  0  0
  -29.0195  -23.7221   20.0136 C   0  0  0  0  0  0
  -31.1992  -19.5730   25.1295 C   0  0  0  0  0  0
  -30.8132  -19.7818   22.7198 N   0  0  0  0  0  0
  -29.8764  -16.1304   20.5755 N   0  0  0  0  0  0
  -27.9751  -24.7426   20.5056 N   0  0  0  0  0  0
  -29.1277  -19.0321   24.0297 O   0  0  0  0  0  0
  -30.1732  -22.3696   22.4083 F   0  0  0  0  0  0
  -31.4717  -12.7152   19.1795 H   0  0  0  0  0  0
  -30.4145  -11.6252   20.0369 H   0  0  0  0  0  0
  -29.8373  -11.6979   17.5929 H   0  0  0  0  0  0
  -29.6126  -13.4280   17.6724 H   0  0  0  0  0  0
  -27.9596  -11.2628   18.9899 H   0  0  0  0  0  0
  -27.3907  -12.4155   17.8111 H   0  0  0  0  0  0
  -27.5875  -14.2431   19.3905 H   0  0  0  0  0  0
  -28.7584  -12.3208   21.4614 H   0  0  0  0  0  0
  -28.3737  -14.0112   21.7252 H   0  0  0  0  0  0
  -25.2781   -9.5705   22.4727 H   0  0  0  0  0  0
  -24.0037   -7.4655   22.7465 H   0  0  0  0  0  0
  -21.0841   -8.8788   19.8954 H   0  0  0  0  0  0
  -22.3702  -10.9685   19.6177 H   0  0  0  0  0  0
  -21.1997   -7.6137   23.9716 H   0  0  0  0  0  0
  -21.1487   -6.0503   25.9071 H   0  0  0  0  0  0
  -22.0601   -2.7617   23.2833 H   0  0  0  0  0  0
  -22.4091  -11.9918   22.4848 H   0  0  0  0  0  0
  -21.1064  -13.1252   22.2585 H   0  0  0  0  0  0
  -24.6773  -15.8632   20.5740 H   0  0  0  0  0  0
  -26.2805  -15.6275   20.0857 H   0  0  0  0  0  0
  -26.7267  -32.5304   23.1025 H   0  0  0  0  0  0
  -24.9983  -33.9617   25.0262 H   0  0  0  0  0  0
  -22.7480  -31.2848   21.3822 H   0  0  0  0  0  0
  -23.3763  -35.9587   23.3263 H   0  0  0  0  0  0
  -24.3594  -36.8954   22.2078 H   0  0  0  0  0  0
  -23.7214  -37.6443   23.6707 H   0  0  0  0  0  0
  -26.1440  -31.4855   20.6056 H   0  0  0  0  0  0
  -26.8630  -30.7839   22.0225 H   0  0  0  0  0  0
  -28.1334  -28.8495   21.2276 H   0  0  0  0  0  0
  -25.9791  -25.8462   19.0113 H   0  0  0  0  0  0
  -23.9912  -27.2710   19.0023 H   0  0  0  0  0  0
  -23.7800  -30.5423   19.3922 H   0  0  0  0  0  0
  -22.7801  -29.2049   19.8683 H   0  0  0  0  0  0
  -25.1306  -36.1872   25.0819 H   0  0  0  0  0  0
  -20.9970  -28.3281   24.1384 H   0  0  0  0  0  0
  -20.5647  -26.2315   23.3656 H   0  0  0  0  0  0
  -21.6635  -26.7420   22.1228 H   0  0  0  0  0  0
  -19.6901  -25.6285   21.1270 H   0  0  0  0  0  0
  -19.6680  -27.3188   20.6747 H   0  0  0  0  0  0
  -17.4205  -26.6703   21.4012 H   0  0  0  0  0  0
  -18.0282  -26.0079   22.8990 H   0  0  0  0  0  0
  -19.7921  -30.7317   24.2202 H   0  0  0  0  0  0
  -17.4985  -31.6268   24.5180 H   0  0  0  0  0  0
  -15.5326  -30.2956   23.7708 H   0  0  0  0  0  0
  -15.8670  -28.0818   22.7063 H   0  0  0  0  0  0
  -24.5865  -30.7076   25.7742 H   0  0  0  0  0  0
  -24.8838  -32.2915   26.4799 H   0  0  0  0  0  0
  -25.7956  -30.8958   27.0233 H   0  0  0  0  0  0
  -26.2960  -29.6676   24.1334 H   0  0  0  0  0  0
  -27.3900  -29.7263   25.4934 H   0  0  0  0  0  0
  -27.8889  -30.4159   23.9681 H   0  0  0  0  0  0
  -27.2616  -33.3625   26.2059 H   0  0  0  0  0  0
  -28.3819  -32.6910   25.0303 H   0  0  0  0  0  0
  -28.0719  -31.8471   26.5399 H   0  0  0  0  0  0
  -28.2580  -38.0106   24.7548 H   0  0  0  0  0  0
  -28.1112  -36.2645   24.6185 H   0  0  0  0  0  0
  -27.2334  -37.1332   25.8855 H   0  0  0  0  0  0
  -20.9459  -29.8691   21.6786 H   0  0  0  0  0  0
  -26.0146  -38.2838   24.1418 H   0  0  0  0  0  0
  -28.8012  -19.0373   18.6412 H   0  0  0  0  0  0
  -28.2501  -21.4216   18.4408 H   0  0  0  0  0  0
  -30.2077  -21.4176   25.7563 H   0  0  0  0  0  0
  -31.2980  -20.7508   26.9635 H   0  0  0  0  0  0
  -29.7195  -20.0100   26.6892 H   0  0  0  0  0  0
  -31.9209  -17.5185   24.9266 H   0  0  0  0  0  0
  -30.6825  -17.7130   26.1594 H   0  0  0  0  0  0
  -32.3313  -18.2659   26.4577 H   0  0  0  0  0  0
  -31.1322  -17.5736   21.4481 H   0  0  0  0  0  0
  -31.1343  -17.6259   19.7400 H   0  0  0  0  0  0
  -29.0560  -23.8222   18.9290 H   0  0  0  0  0  0
  -29.9817  -24.1104   20.3526 H   0  0  0  0  0  0
  -32.1301  -20.0429   24.8049 H   0  0  0  0  0  0
  -31.7534  -20.1523   22.7494 H   0  0  0  0  0  0
  -28.8777  -16.0447   20.6717 H   0  0  0  0  0  0
  -27.0965  -24.5581   20.0315 H   0  0  0  0  0  0
  1 25  1  0  0  0
  1 30  2  0  0  0
  1 84  1  0  0  0
  2  3  1  0  0  0
  2 25  1  0  0  0
  2 88  1  0  0  0
  2 89  1  0  0  0
  3  4  1  0  0  0
  3 90  1  0  0  0
  3 91  1  0  0  0
  4  5  1  0  0  0
  4 92  1  0  0  0
  4 93  1  0  0  0
  5  6  1  0  0  0
  5 26  1  0  0  0
  5 94  1  0  0  0
  6 25  1  0  0  0
  6 95  1  0  0  0
  6 96  1  0  0  0
  7  8  2  0  0  0
  7 26  1  0  0  0
  7 29  1  0  0  0
  8  9  1  0  0  0
  8 22  1  0  0  0
  9 10  1  0  0  0
  9 27  2  0  0  0
 10 11  2  0  0  0
 10 15  1  0  0  0
 11 12  1  0  0  0
 11 97  1  0  0  0
 12 13  2  0  0  0
 12 98  1  0  0  0
 13 14  1  0  0  0
 13 31  1  0  0  0
 14 15  2  0  0  0
 14 99  1  0  0  0
 15100  1  0  0  0
 16 17  2  0  0  0
 16 21  1  0  0  0
 16 31  1  0  0  0
 17 18  1  0  0  0
 17101  1  0  0  0
 18 19  2  0  0  0
 18102  1  0  0  0
 19 20  1  0  0  0
 19 24  1  0  0  0
 20 21  2  0  0  0
 20103  1  0  0  0
 21 23  1  0  0  0
 22 28  1  0  0  0
 22 32  2  0  0  0
 26 27  1  0  0  0
 28104  1  0  0  0
 28105  1  0  0  0
 29106  1  0  0  0
 29107  1  0  0  0
 33 34  1  0  0  0
 33 66  1  0  0  0
 33 70  2  0  0  0
 34 36  1  0  0  0
 34 59  1  0  0  0
 34108  1  0  0  0
 35 44  2  0  0  0
 35 45  1  0  0  0
 35 68  1  0  0  0
 36 56  1  0  0  0
 36109  1  0  0  0
 37 39  1  0  0  0
 37 47  1  0  0  0
 37 66  1  0  0  0
 37110  1  0  0  0
 38 43  2  0  0  0
 38 46  1  0  0  0
 38 47  1  0  0  0
 39 64  1  0  0  0
 39 67  2  0  0  0
 40 52  1  0  0  0
 40 53  2  0  0  0
 40 58  1  0  0  0
 41111  1  0  0  0
 41112  1  0  0  0
 41113  1  0  0  0
 41 48  1  0  0  0
 42 43  1  0  0  0
 42 66  1  0  0  0
 42114  1  0  0  0
 42115  1  0  0  0
 43 44  1  0  0  0
 44116  1  0  0  0
 45 46  2  0  0  0
 45117  1  0  0  0
 46118  1  0  0  0
 47119  1  0  0  0
 47120  1  0  0  0
 48 56  1  0  0  0
 48 65  1  0  0  0
 48121  1  0  0  0
 49 50  1  0  0  0
 49 53  1  0  0  0
 49 64  1  0  0  0
 49122  1  0  0  0
 50 51  1  0  0  0
 50123  1  0  0  0
 50124  1  0  0  0
 51 52  1  0  0  0
 51125  1  0  0  0
 51126  1  0  0  0
 52127  1  0  0  0
 52128  1  0  0  0
 53 54  1  0  0  0
 54 55  2  0  0  0
 54129  1  0  0  0
 55 57  1  0  0  0
 55130  1  0  0  0
 56 69  2  0  0  0
 57 58  2  0  0  0
 57131  1  0  0  0
 58132  1  0  0  0
 59 60  1  0  0  0
 59 61  1  0  0  0
 59 62  1  0  0  0
 60133  1  0  0  0
 60134  1  0  0  0
 60135  1  0  0  0
 61136  1  0  0  0
 61137  1  0  0  0
 61138  1  0  0  0
 62139  1  0  0  0
 62140  1  0  0  0
 62141  1  0  0  0
 63 65  1  0  0  0
 63142  1  0  0  0
 63143  1  0  0  0
 63144  1  0  0  0
 64145  1  0  0  0
 65146  1  0  0  0
 68 85  1  0  0  0
 71 72  2  0  0  0
 71 73  1  0  0  0
 71147  1  0  0  0
 72 74  1  0  0  0
 72148  1  0  0  0
 73 75  2  0  0  0
 73 80  1  0  0  0
 74 76  2  0  0  0
 74 81  1  0  0  0
 75 76  1  0  0  0
 75 83  1  0  0  0
 76 87  1  0  0  0
 77 82  1  0  0  0
 77 83  1  0  0  0
 77 86  2  0  0  0
 78149  1  0  0  0
 78150  1  0  0  0
 78151  1  0  0  0
 78 82  1  0  0  0
 79 82  1  0  0  0
 79152  1  0  0  0
 79153  1  0  0  0
 79154  1  0  0  0
 80 84  1  0  0  0
 80155  1  0  0  0
 80156  1  0  0  0
 81 85  1  0  0  0
 81157  1  0  0  0
 81158  1  0  0  0
 82159  1  0  0  0
 83160  1  0  0  0
 84161  1  0  0  0
 85162  1  0  0  0
M  ISO  4   1 100  68 101  84 100  85 101
M  END
> <chiral flag>
0

> <version>
0

> <s_m_source_file>
/data/baiqing/PycharmProjects/Reinvent-master-3.2/result/LINK_invent/BTK/process_docking_weight1_custom_product_contain_oxygen_bond_distance_aromatic_linkinvent_7_9_3/rearranged_h_0007.sdf

> <i_m_source_file_index>
11

> <r_mmod_Potential_Energy-OPLS-2005>
327.211242675781

> <r_mmod_Stretch_Energy-OPLS-2005>
207.269714355469

> <r_mmod_Bend_Energy-OPLS-2005>
243.290542602539

> <r_mmod_Torsional_Energy-OPLS-2005>
270.329803466797

> <r_mmod_Improper_Torsional_Energy-OPLS-2005>
10.2518739700317

> <r_mmod_Van_der_Waal_Energy-OPLS-2005>
131.783187866211

> <r_mmod_Electrostatic_Energy-OPLS-2005>
-456.400207519531

> <r_mmod_Solvation_Energy-OPLS-2005>
-241.689666748047

> <b_mmod_Minimization_Converged-OPLS-2005>
0

> <r_mmod_RMS_Derivative-OPLS-2005>
4.35611152648926

$$$$
11
                    3D
 Structure written by MMmdl.
154162  0  0  1  0            999 V2000
  -30.4163  -15.3031   20.4558 C   0  0  0  0  0  0
  -30.4439  -12.8405   19.5605 C   0  0  0  0  0  0
  -29.5528  -12.6138   18.3072 C   0  0  0  0  0  0
  -28.0994  -12.3104   18.7102 C   0  0  0  0  0  0
  -27.6159  -13.2705   19.8203 C   0  0  2  0  0  0
  -28.6301  -13.4113   20.9695 C   0  0  0  0  0  0
  -25.2402  -13.8224   20.5690 C   0  0  0  0  0  0
  -24.1746  -13.0430   20.9211 C   0  0  0  0  0  0
  -24.6389  -11.6924   20.8707 C   0  0  0  0  0  0
  -23.9076  -10.4294   21.0383 C   0  0  0  0  0  0
  -24.3613   -9.4215   21.9174 C   0  0  0  0  0  0
  -23.6279   -8.2256   22.0753 C   0  0  0  0  0  0
  -22.4263   -8.0285   21.3549 C   0  0  0  0  0  0
  -21.9900   -9.0256   20.4650 C   0  0  0  0  0  0
  -22.7235  -10.2131   20.3050 C   0  0  0  0  0  0
  -21.6851   -6.0730   22.5284 C   0  0  0  0  0  0
  -21.4028   -6.5641   23.8221 C   0  0  0  0  0  0
  -21.3665   -5.6791   24.9180 C   0  0  0  0  0  0
  -21.6035   -4.3054   24.7226 C   0  0  0  0  0  0
  -21.8818   -3.8140   23.4350 C   0  0  0  0  0  0
  -21.9194   -4.6960   22.3408 C   0  0  0  0  0  0
  -22.7773  -13.5197   21.1890 C   0  0  0  0  0  0
  -22.1657   -4.2143   21.0980 F   0  0  0  0  0  0
  -21.5621   -3.4536   25.7739 F   0  0  0  0  0  0
  -29.8815  -13.9673   20.4072 N   0  0  0  0  0  0
  -26.2805  -12.9479   20.3079 N   0  0  0  0  0  0
  -25.9319  -11.6594   20.5610 N   0  0  0  0  0  0
  -22.0417  -12.8196   22.0450 N   0  0  0  0  0  0
  -25.4086  -15.1963   20.4224 N   0  0  0  0  0  0
  -31.5670  -15.3593   19.9997 O   0  0  0  0  0  0
  -21.6633   -6.8875   21.4246 O   0  0  0  0  0  0
  -22.3472  -14.5510   20.6748 O   0  0  0  0  0  0
  -24.6656  -31.8221   23.1674 C   0  0  0  0  0  0
  -25.9325  -32.4576   23.8153 C   0  0  1  0  0  0
  -27.2268  -26.9130   20.1922 C   0  0  0  0  0  0
  -25.5982  -33.8391   24.2060 N   0  0  0  0  0  0
  -23.4805  -30.4323   21.5175 C   0  0  2  0  0  0
  -24.9362  -28.8137   20.1157 C   0  0  0  0  0  0
  -22.7680  -29.4438   22.4776 C   0  0  0  0  0  0
  -18.0330  -28.1409   22.8464 C   0  0  0  0  0  0
  -24.1503  -36.7211   23.2649 C   0  0  0  0  0  0
  -26.0510  -30.6253   21.3990 C   0  0  0  0  0  0
  -26.1204  -29.2119   20.7476 C   0  0  0  0  0  0
  -27.2604  -28.2853   20.7561 C   0  0  0  0  0  0
  -26.0101  -26.6687   19.5153 C   0  0  0  0  0  0
  -24.9071  -27.5627   19.4784 C   0  0  0  0  0  0
  -23.7225  -29.7444   20.1461 C   0  0  0  0  0  0
  -25.4139  -36.2959   24.0299 C   0  0  1  0  0  0
  -20.5957  -28.3761   23.1184 C   0  0  2  0  0  0
  -20.6808  -26.9443   22.5398 C   0  0  0  0  0  0
  -19.5780  -26.6378   21.5214 C   0  0  0  0  0  0
  -18.1962  -26.7942   22.1620 C   0  0  0  0  0  0
  -19.1589  -28.8905   23.2814 C   0  0  0  0  0  0
  -18.9497  -30.1492   23.8853 C   0  0  0  0  0  0
  -17.6489  -30.6599   24.0554 C   0  0  0  0  0  0
  -25.9098  -34.9340   23.4999 C   0  0  0  0  0  0
  -16.5381  -29.9087   23.6337 C   0  0  0  0  0  0
  -16.7308  -28.6505   23.0359 C   0  0  0  0  0  0
  -26.4562  -31.6520   25.0684 C   0  0  0  0  0  0
  -25.3682  -31.3788   26.1338 C   0  0  0  0  0  0
  -27.0452  -30.2880   24.6424 C   0  0  0  0  0  0
  -27.6044  -32.4336   25.7494 C   0  0  0  0  0  0
  -27.5565  -37.1774   24.8469 C   0  0  0  0  0  0
  -21.4349  -29.3051   22.3529 N   0  0  0  0  0  0
  -26.4283  -37.3691   23.9397 N   0  0  0  0  0  0
  -24.7538  -30.9870   22.0814 N   0  0  0  0  0  0
  -23.4215  -28.8013   23.3030 O   0  0  0  0  0  0
  -28.2424  -25.8119   20.2459 O   0  0  0  0  0  0
  -26.5713  -34.8877   22.4598 O   0  0  0  0  0  0
  -23.5723  -32.1193   23.6757 O   0  0  0  0  0  0
  -29.5466  -19.7416   20.2536 C   0  0  0  0  0  0
  -28.6311  -18.4946   22.1876 C   0  0  0  0  0  0
  -29.5508  -16.2901   22.4323 C   0  0  0  0  0  0
  -29.1053  -18.1165   20.7658 C   0  0  2  0  0  0
  -28.4609  -17.2149   22.9531 C   0  0  1  0  0  0
  -29.0630  -22.6837   20.1994 C   0  0  0  0  0  0
  -28.0044  -24.1646   20.2728 C   0  0  0  0  0  0
  -29.7104  -16.5146   20.9810 N   0  0  0  0  0  0
  -28.8134  -21.0328   20.4372 N   0  0  0  0  0  0
  -28.4616  -17.3686   24.4215 N   0  3  0  0  0  0
  -30.6357  -19.8167   19.6856 O   0  0  0  0  0  0
  -31.4640  -13.0513   19.2398 H   0  0  0  0  0  0
  -30.5202  -11.9229   20.1462 H   0  0  0  0  0  0
  -29.9515  -11.8046   17.6939 H   0  0  0  0  0  0
  -29.5780  -13.5075   17.6839 H   0  0  0  0  0  0
  -28.0606  -11.2821   19.0701 H   0  0  0  0  0  0
  -27.4413  -12.3608   17.8422 H   0  0  0  0  0  0
  -27.5416  -14.2474   19.3397 H   0  0  0  0  0  0
  -28.7983  -12.4579   21.4720 H   0  0  0  0  0  0
  -28.1768  -14.0650   21.7081 H   0  0  0  0  0  0
  -25.2759   -9.5694   22.4750 H   0  0  0  0  0  0
  -23.9990   -7.4654   22.7487 H   0  0  0  0  0  0
  -21.0826   -8.8777   19.8966 H   0  0  0  0  0  0
  -22.3685  -10.9664   19.6158 H   0  0  0  0  0  0
  -21.2038   -7.6148   23.9715 H   0  0  0  0  0  0
  -21.1480   -6.0525   25.9082 H   0  0  0  0  0  0
  -22.0587   -2.7597   23.2845 H   0  0  0  0  0  0
  -22.4016  -11.9858   22.4843 H   0  0  0  0  0  0
  -21.1048  -13.1247   22.2661 H   0  0  0  0  0  0
  -24.6311  -15.8405   20.5196 H   0  0  0  0  0  0
  -26.2458  -15.6343   20.0602 H   0  0  0  0  0  0
  -26.7397  -32.5113   23.0870 H   0  0  0  0  0  0
  -25.0077  -33.9472   25.0177 H   0  0  0  0  0  0
  -22.7938  -31.2638   21.3442 H   0  0  0  0  0  0
  -23.3754  -35.9555   23.3302 H   0  0  0  0  0  0
  -24.3572  -36.8866   22.2063 H   0  0  0  0  0  0
  -23.7280  -37.6408   23.6709 H   0  0  0  0  0  0
  -26.2302  -31.3648   20.6169 H   0  0  0  0  0  0
  -26.9103  -30.6851   22.0552 H   0  0  0  0  0  0
  -28.1593  -28.5955   21.2709 H   0  0  0  0  0  0
  -25.8816  -25.7170   19.0227 H   0  0  0  0  0  0
  -24.0099  -27.2507   18.9624 H   0  0  0  0  0  0
  -23.8829  -30.5111   19.3876 H   0  0  0  0  0  0
  -22.8313  -29.2014   19.8256 H   0  0  0  0  0  0
  -25.1342  -36.1752   25.0792 H   0  0  0  0  0  0
  -21.0038  -28.3371   24.1311 H   0  0  0  0  0  0
  -20.5695  -26.2384   23.3644 H   0  0  0  0  0  0
  -21.6673  -26.7426   22.1205 H   0  0  0  0  0  0
  -19.6944  -25.6273   21.1287 H   0  0  0  0  0  0
  -19.6711  -27.3156   20.6718 H   0  0  0  0  0  0
  -17.4230  -26.6681   21.4026 H   0  0  0  0  0  0
  -18.0357  -26.0096   22.9028 H   0  0  0  0  0  0
  -19.7972  -30.7321   24.2204 H   0  0  0  0  0  0
  -17.5039  -31.6273   24.5169 H   0  0  0  0  0  0
  -15.5378  -30.2973   23.7683 H   0  0  0  0  0  0
  -15.8712  -28.0805   22.7100 H   0  0  0  0  0  0
  -24.5878  -30.7118   25.7656 H   0  0  0  0  0  0
  -24.8855  -32.2997   26.4620 H   0  0  0  0  0  0
  -25.7911  -30.9052   27.0207 H   0  0  0  0  0  0
  -26.3113  -29.6548   24.1423 H   0  0  0  0  0  0
  -27.3968  -29.7252   25.5082 H   0  0  0  0  0  0
  -27.9063  -30.4047   23.9841 H   0  0  0  0  0  0
  -27.2598  -33.3684   26.1931 H   0  0  0  0  0  0
  -28.3927  -32.6826   25.0374 H   0  0  0  0  0  0
  -28.0625  -31.8553   26.5529 H   0  0  0  0  0  0
  -28.2589  -38.0063   24.7463 H   0  0  0  0  0  0
  -28.1057  -36.2583   24.6359 H   0  0  0  0  0  0
  -27.2274  -37.1488   25.8873 H   0  0  0  0  0  0
  -20.9610  -29.8729   21.6645 H   0  0  0  0  0  0
  -26.0131  -38.2762   24.1354 H   0  0  0  0  0  0
  -27.7058  -19.0734   22.1787 H   0  0  0  0  0  0
  -29.3868  -19.1027   22.6907 H   0  0  0  0  0  0
  -29.4071  -15.2709   22.7799 H   0  0  0  0  0  0
  -30.5013  -16.5885   22.8785 H   0  0  0  0  0  0
  -28.2190  -17.9254   20.1594 H   0  0  0  0  0  0
  -27.4977  -16.7857   22.6721 H   0  0  0  0  0  0
  -29.8699  -22.9046   20.8981 H   0  0  0  0  0  0
  -29.5483  -22.7335   19.2256 H   0  0  0  0  0  0
  -27.4278  -24.0307   21.1887 H   0  0  0  0  0  0
  -27.2746  -24.0000   19.4819 H   0  0  0  0  0  0
  -27.9215  -20.8746   20.8889 H   0  0  0  0  0  0
  -29.3301  -17.7476   24.7559 H   0  0  0  0  0  0
  -28.3148  -16.4808   24.8690 H   0  0  0  0  0  0
  -27.7195  -17.9799   24.7128 H   0  0  0  0  0  0
  1 25  1  0  0  0
  1 30  2  0  0  0
  1 78  1  0  0  0
  2  3  1  0  0  0
  2 25  1  0  0  0
  2 82  1  0  0  0
  2 83  1  0  0  0
  3  4  1  0  0  0
  3 84  1  0  0  0
  3 85  1  0  0  0
  4  5  1  0  0  0
  4 86  1  0  0  0
  4 87  1  0  0  0
  5  6  1  0  0  0
  5 26  1  0  0  0
  5 88  1  0  0  0
  6 25  1  0  0  0
  6 89  1  0  0  0
  6 90  1  0  0  0
  7  8  2  0  0  0
  7 26  1  0  0  0
  7 29  1  0  0  0
  8  9  1  0  0  0
  8 22  1  0  0  0
  9 10  1  0  0  0
  9 27  2  0  0  0
 10 11  2  0  0  0
 10 15  1  0  0  0
 11 12  1  0  0  0
 11 91  1  0  0  0
 12 13  2  0  0  0
 12 92  1  0  0  0
 13 14  1  0  0  0
 13 31  1  0  0  0
 14 15  2  0  0  0
 14 93  1  0  0  0
 15 94  1  0  0  0
 16 17  2  0  0  0
 16 21  1  0  0  0
 16 31  1  0  0  0
 17 18  1  0  0  0
 17 95  1  0  0  0
 18 19  2  0  0  0
 18 96  1  0  0  0
 19 20  1  0  0  0
 19 24  1  0  0  0
 20 21  2  0  0  0
 20 97  1  0  0  0
 21 23  1  0  0  0
 22 28  1  0  0  0
 22 32  2  0  0  0
 26 27  1  0  0  0
 28 98  1  0  0  0
 28 99  1  0  0  0
 29100  1  0  0  0
 29101  1  0  0  0
 33 34  1  0  0  0
 33 66  1  0  0  0
 33 70  2  0  0  0
 34 36  1  0  0  0
 34 59  1  0  0  0
 34102  1  0  0  0
 35 44  2  0  0  0
 35 45  1  0  0  0
 35 68  1  0  0  0
 36 56  1  0  0  0
 36103  1  0  0  0
 37 39  1  0  0  0
 37 47  1  0  0  0
 37 66  1  0  0  0
 37104  1  0  0  0
 38 43  2  0  0  0
 38 46  1  0  0  0
 38 47  1  0  0  0
 39 64  1  0  0  0
 39 67  2  0  0  0
 40 52  1  0  0  0
 40 53  2  0  0  0
 40 58  1  0  0  0
 41105  1  0  0  0
 41106  1  0  0  0
 41107  1  0  0  0
 41 48  1  0  0  0
 42 43  1  0  0  0
 42 66  1  0  0  0
 42108  1  0  0  0
 42109  1  0  0  0
 43 44  1  0  0  0
 44110  1  0  0  0
 45 46  2  0  0  0
 45111  1  0  0  0
 46112  1  0  0  0
 47113  1  0  0  0
 47114  1  0  0  0
 48 56  1  0  0  0
 48 65  1  0  0  0
 48115  1  0  0  0
 49 50  1  0  0  0
 49 53  1  0  0  0
 49 64  1  0  0  0
 49116  1  0  0  0
 50 51  1  0  0  0
 50117  1  0  0  0
 50118  1  0  0  0
 51 52  1  0  0  0
 51119  1  0  0  0
 51120  1  0  0  0
 52121  1  0  0  0
 52122  1  0  0  0
 53 54  1  0  0  0
 54 55  2  0  0  0
 54123  1  0  0  0
 55 57  1  0  0  0
 55124  1  0  0  0
 56 69  2  0  0  0
 57 58  2  0  0  0
 57125  1  0  0  0
 58126  1  0  0  0
 59 60  1  0  0  0
 59 61  1  0  0  0
 59 62  1  0  0  0
 60127  1  0  0  0
 60128  1  0  0  0
 60129  1  0  0  0
 61130  1  0  0  0
 61131  1  0  0  0
 61132  1  0  0  0
 62133  1  0  0  0
 62134  1  0  0  0
 62135  1  0  0  0
 63 65  1  0  0  0
 63136  1  0  0  0
 63137  1  0  0  0
 63138  1  0  0  0
 64139  1  0  0  0
 65140  1  0  0  0
 68 77  1  0  0  0
 71 79  1  0  0  0
 71 81  2  0  0  0
 71 74  1  0  0  0
 72 74  1  0  0  0
 72 75  1  0  0  0
 72141  1  0  0  0
 72142  1  0  0  0
 73 75  1  0  0  0
 73 78  1  0  0  0
 73143  1  0  0  0
 73144  1  0  0  0
 74 78  1  0  0  0
 74145  1  0  0  0
 75 80  1  0  0  0
 75146  1  0  0  0
 76 77  1  0  0  0
 76 79  1  0  0  0
 76147  1  0  0  0
 76148  1  0  0  0
 77149  1  0  0  0
 77150  1  0  0  0
 79151  1  0  0  0
 80152  1  0  0  0
 80153  1  0  0  0
 80154  1  0  0  0
M  CHG  1  80   1
M  ISO  4   1 100  68 101  77 101  78 100
M  END
> <chiral flag>
0

> <version>
0

> <s_m_source_file>
/data/baiqing/PycharmProjects/Reinvent-master-3.2/result/LINK_invent/BTK/process_docking_weight1_custom_product_contain_oxygen_bond_distance_aromatic_linkinvent_7_9_3/rearranged_h_0007.sdf

> <i_m_source_file_index>
12

> <r_mmod_Potential_Energy-OPLS-2005>
1181.20861816406

> <r_mmod_Stretch_Energy-OPLS-2005>
679.768310546875

> <r_mmod_Bend_Energy-OPLS-2005>
564.346313476562

> <r_mmod_Torsional_Energy-OPLS-2005>
301.011779785156

> <r_mmod_Improper_Torsional_Energy-OPLS-2005>
2.03068065643311

> <r_mmod_Van_der_Waal_Energy-OPLS-2005>
114.309539794922

> <r_mmod_Electrostatic_Energy-OPLS-2005>
-375.355377197266

> <r_mmod_Solvation_Energy-OPLS-2005>
-590.06982421875

> <b_mmod_Minimization_Converged-OPLS-2005>
0

> <r_mmod_RMS_Derivative-OPLS-2005>
1.8993866443634

$$$$
12
                    3D
 Structure written by MMmdl.
137144  0  0  1  0            999 V2000
  -29.9622  -16.5635   20.2664 C   0  0  0  0  0  0
  -30.3146  -13.7964   19.5233 C   0  0  0  0  0  0
  -29.5702  -12.9451   18.4142 C   0  0  0  0  0  0
  -28.2376  -12.3814   18.9086 C   0  0  0  0  0  0
  -27.5746  -13.4257   19.8177 C   0  0  2  0  0  0
  -28.5152  -14.1357   20.8613 C   0  0  0  0  0  0
  -25.2174  -13.8479   20.5951 C   0  0  0  0  0  0
  -24.1675  -13.0467   20.9341 C   0  0  0  0  0  0
  -24.6541  -11.7031   20.8745 C   0  0  0  0  0  0
  -23.9255  -10.4321   21.0342 C   0  0  0  0  0  0
  -24.3739   -9.4228   21.9149 C   0  0  0  0  0  0
  -23.6364   -8.2283   22.0747 C   0  0  0  0  0  0
  -22.4340   -8.0323   21.3544 C   0  0  0  0  0  0
  -22.0014   -9.0304   20.4634 C   0  0  0  0  0  0
  -22.7395  -10.2158   20.3018 C   0  0  0  0  0  0
  -21.6878   -6.0765   22.5277 C   0  0  0  0  0  0
  -21.4033   -6.5657   23.8214 C   0  0  0  0  0  0
  -21.3665   -5.6802   24.9171 C   0  0  0  0  0  0
  -21.6043   -4.3064   24.7217 C   0  0  0  0  0  0
  -21.8816   -3.8163   23.4335 C   0  0  0  0  0  0
  -21.9200   -4.6987   22.3396 C   0  0  0  0  0  0
  -22.7650  -13.5092   21.1938 C   0  0  0  0  0  0
  -22.1663   -4.2170   21.0973 F   0  0  0  0  0  0
  -21.5624   -3.4543   25.7727 F   0  0  0  0  0  0
  -29.5188  -15.0444   20.1465 N   0  0  0  0  0  0
  -26.2805  -13.0063   20.3476 N   0  0  0  0  0  0
  -25.9548  -11.6990   20.5678 N   0  0  0  0  0  0
  -22.0351  -12.8040   22.0489 N   0  0  0  0  0  0
  -25.3555  -15.2242   20.4383 N   0  0  0  0  0  0
  -31.2063  -16.3142   20.2293 O   0  0  0  0  0  0
  -21.6677   -6.8928   21.4248 O   0  0  0  0  0  0
  -22.3283  -14.5375   20.6771 O   0  0  0  0  0  0
  -24.7449  -31.7216   23.0979 C   0  0  0  0  0  0
  -25.9712  -32.4091   23.7768 C   0  0  1  0  0  0
  -27.2626  -26.0606   20.2671 C   0  0  0  0  0  0
  -25.6018  -33.7953   24.1581 N   0  0  0  0  0  0
  -23.5996  -30.2922   21.4680 C   0  0  2  0  0  0
  -25.0624  -28.4936   20.1392 C   0  0  0  0  0  0
  -22.8035  -29.3895   22.4550 C   0  0  0  0  0  0
  -18.0376  -28.1454   22.8421 C   0  0  0  0  0  0
  -24.1496  -36.6992   23.2671 C   0  0  0  0  0  0
  -26.1999  -30.2411   21.4589 C   0  0  0  0  0  0
  -26.2597  -28.7329   20.8212 C   0  0  0  0  0  0
  -27.3097  -27.5690   20.8335 C   0  0  0  0  0  0
  -26.0272  -26.1946   19.5192 C   0  0  0  0  0  0
  -25.0234  -27.2541   19.4619 C   0  0  0  0  0  0
  -23.8874  -29.5253   20.1333 C   0  0  0  0  0  0
  -25.4170  -36.2677   24.0236 C   0  0  1  0  0  0
  -20.6038  -28.3836   23.1031 C   0  0  2  0  0  0
  -20.6806  -26.9436   22.5420 C   0  0  0  0  0  0
  -19.5796  -26.6348   21.5224 C   0  0  0  0  0  0
  -18.1977  -26.7969   22.1607 C   0  0  0  0  0  0
  -19.1657  -28.8984   23.2686 C   0  0  0  0  0  0
  -18.9553  -30.1552   23.8759 C   0  0  0  0  0  0
  -17.6536  -30.6619   24.0537 C   0  0  0  0  0  0
  -25.9187  -34.9084   23.4798 C   0  0  0  0  0  0
  -16.5422  -29.9090   23.6366 C   0  0  0  0  0  0
  -16.7352  -28.6518   23.0376 C   0  0  0  0  0  0
  -26.4693  -31.6408   25.0652 C   0  0  0  0  0  0
  -25.3596  -31.3898   26.1149 C   0  0  0  0  0  0
  -27.0730  -30.2690   24.7003 C   0  0  0  0  0  0
  -27.6017  -32.4426   25.7501 C   0  0  0  0  0  0
  -27.5543  -37.1648   24.8466 C   0  0  0  0  0  0
  -21.4628  -29.2949   22.3282 N   0  0  0  0  0  0
  -26.4242  -37.3509   23.9408 N   0  0  0  0  0  0
  -24.8802  -30.8007   22.0600 N   0  0  0  0  0  0
  -23.4175  -28.7613   23.3197 O   0  0  0  0  0  0
  -28.1668  -24.5661   20.3212 O   0  0  0  0  0  0
  -26.5925  -34.8791   22.4483 O   0  0  0  0  0  0
  -23.6336  -32.0588   23.5524 O   0  0  0  0  0  0
  -29.2006  -20.3375   20.3201 C   0  0  0  0  0  0
  -28.2004  -22.4649   20.2188 C   0  0  0  0  0  0
  -29.3170  -18.2279   20.2702 N   0  0  0  0  0  0
  -31.2155  -14.1817   19.0448 H   0  0  0  0  0  0
  -30.7050  -13.1434   20.3066 H   0  0  0  0  0  0
  -30.2109  -12.1390   18.0541 H   0  0  0  0  0  0
  -29.3823  -13.5901   17.5547 H   0  0  0  0  0  0
  -28.4305  -11.4738   19.4819 H   0  0  0  0  0  0
  -27.5913  -12.1016   18.0755 H   0  0  0  0  0  0
  -27.3204  -14.2160   19.1091 H   0  0  0  0  0  0
  -28.9720  -13.4238   21.5512 H   0  0  0  0  0  0
  -27.9168  -14.7884   21.4973 H   0  0  0  0  0  0
  -25.2871   -9.5690   22.4748 H   0  0  0  0  0  0
  -24.0047   -7.4683   22.7489 H   0  0  0  0  0  0
  -21.0938   -8.8851   19.8945 H   0  0  0  0  0  0
  -22.3854  -10.9697   19.6127 H   0  0  0  0  0  0
  -21.2035   -7.6165   23.9725 H   0  0  0  0  0  0
  -21.1486   -6.0529   25.9075 H   0  0  0  0  0  0
  -22.0587   -2.7625   23.2829 H   0  0  0  0  0  0
  -22.4039  -11.9742   22.4895 H   0  0  0  0  0  0
  -21.0937  -13.0980   22.2674 H   0  0  0  0  0  0
  -24.5768  -15.8638   20.5540 H   0  0  0  0  0  0
  -26.2060  -15.6839   20.1380 H   0  0  0  0  0  0
  -26.7876  -32.4443   23.0543 H   0  0  0  0  0  0
  -24.9961  -33.8879   24.9601 H   0  0  0  0  0  0
  -22.9629  -31.1444   21.2211 H   0  0  0  0  0  0
  -23.3792  -35.9283   23.3224 H   0  0  0  0  0  0
  -24.3542  -36.8804   22.2107 H   0  0  0  0  0  0
  -23.7229  -37.6104   23.6874 H   0  0  0  0  0  0
  -26.4659  -30.9211   20.6487 H   0  0  0  0  0  0
  -27.0298  -30.3291   22.1459 H   0  0  0  0  0  0
  -28.1985  -27.7908   21.4071 H   0  0  0  0  0  0
  -25.7596  -25.3099   18.9588 H   0  0  0  0  0  0
  -24.1415  -27.0455   18.8719 H   0  0  0  0  0  0
  -24.1127  -30.2559   19.3556 H   0  0  0  0  0  0
  -22.9802  -29.0216   19.7958 H   0  0  0  0  0  0
  -25.1411  -36.1346   25.0723 H   0  0  0  0  0  0
  -21.0093  -28.3507   24.1170 H   0  0  0  0  0  0
  -20.5606  -26.2478   23.3738 H   0  0  0  0  0  0
  -21.6663  -26.7276   22.1281 H   0  0  0  0  0  0
  -19.6940  -25.6222   21.1342 H   0  0  0  0  0  0
  -19.6763  -27.3084   20.6699 H   0  0  0  0  0  0
  -17.4253  -26.6718   21.4002 H   0  0  0  0  0  0
  -18.0338  -26.0144   22.9029 H   0  0  0  0  0  0
  -19.8031  -30.7398   24.2071 H   0  0  0  0  0  0
  -17.5087  -31.6284   24.5168 H   0  0  0  0  0  0
  -15.5417  -30.2952   23.7771 H   0  0  0  0  0  0
  -15.8752  -28.0794   22.7169 H   0  0  0  0  0  0
  -24.5845  -30.7190   25.7424 H   0  0  0  0  0  0
  -24.8725  -32.3171   26.4173 H   0  0  0  0  0  0
  -25.7627  -30.9316   27.0189 H   0  0  0  0  0  0
  -26.3552  -29.6093   24.2123 H   0  0  0  0  0  0
  -27.4038  -29.7408   25.5956 H   0  0  0  0  0  0
  -27.9570  -30.3690   24.0706 H   0  0  0  0  0  0
  -27.2476  -33.3875   26.1635 H   0  0  0  0  0  0
  -28.4042  -32.6752   25.0488 H   0  0  0  0  0  0
  -28.0450  -31.8868   26.5774 H   0  0  0  0  0  0
  -28.2488  -38.0006   24.7515 H   0  0  0  0  0  0
  -28.1107  -36.2518   24.6291 H   0  0  0  0  0  0
  -27.2256  -37.1265   25.8866 H   0  0  0  0  0  0
  -21.0089  -29.8498   21.6159 H   0  0  0  0  0  0
  -26.0011  -38.2526   24.1435 H   0  0  0  0  0  0
  -30.0015  -20.5173   19.6027 H   0  0  0  0  0  0
  -29.6902  -20.4553   21.2869 H   0  0  0  0  0  0
  -27.7199  -22.3753   19.2446 H   0  0  0  0  0  0
  -27.3860  -22.2933   20.9225 H   0  0  0  0  0  0
  -30.3181  -18.3884   20.2986 H   0  0  0  0  0  0
  1 25  1  0  0  0
  1 30  2  0  0  0
  1 73  1  0  0  0
  2  3  1  0  0  0
  2 25  1  0  0  0
  2 74  1  0  0  0
  2 75  1  0  0  0
  3  4  1  0  0  0
  3 76  1  0  0  0
  3 77  1  0  0  0
  4  5  1  0  0  0
  4 78  1  0  0  0
  4 79  1  0  0  0
  5  6  1  0  0  0
  5 26  1  0  0  0
  5 80  1  0  0  0
  6 25  1  0  0  0
  6 81  1  0  0  0
  6 82  1  0  0  0
  7  8  2  0  0  0
  7 26  1  0  0  0
  7 29  1  0  0  0
  8  9  1  0  0  0
  8 22  1  0  0  0
  9 10  1  0  0  0
  9 27  2  0  0  0
 10 11  2  0  0  0
 10 15  1  0  0  0
 11 12  1  0  0  0
 11 83  1  0  0  0
 12 13  2  0  0  0
 12 84  1  0  0  0
 13 14  1  0  0  0
 13 31  1  0  0  0
 14 15  2  0  0  0
 14 85  1  0  0  0
 15 86  1  0  0  0
 16 17  2  0  0  0
 16 21  1  0  0  0
 16 31  1  0  0  0
 17 18  1  0  0  0
 17 87  1  0  0  0
 18 19  2  0  0  0
 18 88  1  0  0  0
 19 20  1  0  0  0
 19 24  1  0  0  0
 20 21  2  0  0  0
 20 89  1  0  0  0
 21 23  1  0  0  0
 22 28  1  0  0  0
 22 32  2  0  0  0
 26 27  1  0  0  0
 28 90  1  0  0  0
 28 91  1  0  0  0
 29 92  1  0  0  0
 29 93  1  0  0  0
 33 34  1  0  0  0
 33 66  1  0  0  0
 33 70  2  0  0  0
 34 36  1  0  0  0
 34 59  1  0  0  0
 34 94  1  0  0  0
 35 44  2  0  0  0
 35 45  1  0  0  0
 35 68  1  0  0  0
 36 56  1  0  0  0
 36 95  1  0  0  0
 37 39  1  0  0  0
 37 47  1  0  0  0
 37 66  1  0  0  0
 37 96  1  0  0  0
 38 43  2  0  0  0
 38 46  1  0  0  0
 38 47  1  0  0  0
 39 64  1  0  0  0
 39 67  2  0  0  0
 40 52  1  0  0  0
 40 53  2  0  0  0
 40 58  1  0  0  0
 41 97  1  0  0  0
 41 98  1  0  0  0
 41 99  1  0  0  0
 41 48  1  0  0  0
 42 43  1  0  0  0
 42 66  1  0  0  0
 42100  1  0  0  0
 42101  1  0  0  0
 43 44  1  0  0  0
 44102  1  0  0  0
 45 46  2  0  0  0
 45103  1  0  0  0
 46104  1  0  0  0
 47105  1  0  0  0
 47106  1  0  0  0
 48 56  1  0  0  0
 48 65  1  0  0  0
 48107  1  0  0  0
 49 50  1  0  0  0
 49 53  1  0  0  0
 49 64  1  0  0  0
 49108  1  0  0  0
 50 51  1  0  0  0
 50109  1  0  0  0
 50110  1  0  0  0
 51 52  1  0  0  0
 51111  1  0  0  0
 51112  1  0  0  0
 52113  1  0  0  0
 52114  1  0  0  0
 53 54  1  0  0  0
 54 55  2  0  0  0
 54115  1  0  0  0
 55 57  1  0  0  0
 55116  1  0  0  0
 56 69  2  0  0  0
 57 58  2  0  0  0
 57117  1  0  0  0
 58118  1  0  0  0
 59 60  1  0  0  0
 59 61  1  0  0  0
 59 62  1  0  0  0
 60119  1  0  0  0
 60120  1  0  0  0
 60121  1  0  0  0
 61122  1  0  0  0
 61123  1  0  0  0
 61124  1  0  0  0
 62125  1  0  0  0
 62126  1  0  0  0
 62127  1  0  0  0
 63 65  1  0  0  0
 63128  1  0  0  0
 63129  1  0  0  0
 63130  1  0  0  0
 64131  1  0  0  0
 65132  1  0  0  0
 68 72  1  0  0  0
 71 72  1  0  0  0
 71 73  1  0  0  0
 71133  1  0  0  0
 71134  1  0  0  0
 72135  1  0  0  0
 72136  1  0  0  0
 73137  1  0  0  0
M  ISO  4   1 100  68 101  72 101  73 100
M  END
> <chiral flag>
0

> <version>
0

> <s_m_source_file>
/data/baiqing/PycharmProjects/Reinvent-master-3.2/result/LINK_invent/BTK/process_docking_weight1_custom_product_contain_oxygen_bond_distance_aromatic_linkinvent_7_9_3/rearranged_h_0007.sdf

> <i_m_source_file_index>
13

> <r_mmod_Potential_Energy-OPLS-2005>
6948.9697265625

> <r_mmod_Stretch_Energy-OPLS-2005>
3136.46411132812

> <r_mmod_Bend_Energy-OPLS-2005>
1268.50207519531

> <r_mmod_Torsional_Energy-OPLS-2005>
217.324829101562

> <r_mmod_Improper_Torsional_Energy-OPLS-2005>
4.82364273071289

> <r_mmod_Van_der_Waal_Energy-OPLS-2005>
120.95548248291

> <r_mmod_Electrostatic_Energy-OPLS-2005>
-391.247985839844

> <r_mmod_Solvation_Energy-OPLS-2005>
-221.174652099609

> <b_mmod_Minimization_Converged-OPLS-2005>
1

> <r_mmod_RMS_Derivative-OPLS-2005>
0.042349461466074

$$$$
13
                    3D
 Structure written by MMmdl.
165174  0  0  1  0            999 V2000
  -30.7951  -14.3414   20.7112 C   0  0  0  0  0  0
  -30.4154  -12.2940   19.3882 C   0  0  0  0  0  0
  -29.4801  -12.5290   18.1891 C   0  0  0  0  0  0
  -28.0065  -12.3819   18.6100 C   0  0  0  0  0  0
  -27.6663  -13.2050   19.8793 C   0  0  2  0  0  0
  -28.7050  -12.9531   20.9944 C   0  0  0  0  0  0
  -25.2601  -13.8163   20.5676 C   0  0  0  0  0  0
  -24.1844  -13.0442   20.9163 C   0  0  0  0  0  0
  -24.6395  -11.6910   20.8726 C   0  0  0  0  0  0
  -23.9060  -10.4295   21.0400 C   0  0  0  0  0  0
  -24.3607   -9.4219   21.9189 C   0  0  0  0  0  0
  -23.6286   -8.2252   22.0759 C   0  0  0  0  0  0
  -22.4275   -8.0281   21.3542 C   0  0  0  0  0  0
  -21.9913   -9.0252   20.4637 C   0  0  0  0  0  0
  -22.7239  -10.2131   20.3044 C   0  0  0  0  0  0
  -21.6851   -6.0737   22.5279 C   0  0  0  0  0  0
  -21.4006   -6.5639   23.8213 C   0  0  0  0  0  0
  -21.3654   -5.6791   24.9173 C   0  0  0  0  0  0
  -21.6045   -4.3055   24.7228 C   0  0  0  0  0  0
  -21.8821   -3.8148   23.4350 C   0  0  0  0  0  0
  -21.9192   -4.6964   22.3406 C   0  0  0  0  0  0
  -22.7864  -13.5244   21.1832 C   0  0  0  0  0  0
  -22.1662   -4.2153   21.0983 F   0  0  0  0  0  0
  -21.5633   -3.4541   25.7741 F   0  0  0  0  0  0
  -30.0512  -13.2340   20.4579 N   0  0  0  0  0  0
  -26.3048  -12.9337   20.3385 N   0  0  0  0  0  0
  -25.9322  -11.6490   20.5759 N   0  0  0  0  0  0
  -22.0483  -12.8224   22.0362 N   0  0  0  0  0  0
  -25.4338  -15.1881   20.4087 N   0  0  0  0  0  0
  -31.7851  -14.6623   20.0463 O   0  0  0  0  0  0
  -21.6638   -6.8881   21.4242 O   0  0  0  0  0  0
  -22.3559  -14.5561   20.6698 O   0  0  0  0  0  0
  -24.6118  -31.8699   23.2135 C   0  0  0  0  0  0
  -25.9024  -32.4828   23.8422 C   0  0  1  0  0  0
  -27.2400  -27.4662   20.0721 C   0  0  0  0  0  0
  -25.5889  -33.8629   24.2337 N   0  0  0  0  0  0
  -23.3974  -30.4939   21.5536 C   0  0  2  0  0  0
  -24.8434  -28.9624   20.1176 C   0  0  0  0  0  0
  -22.7378  -29.4669   22.5014 C   0  0  0  0  0  0
  -18.0258  -28.1373   22.8498 C   0  0  0  0  0  0
  -24.1478  -36.7317   23.2639 C   0  0  0  0  0  0
  -25.9238  -30.8401   21.3650 C   0  0  0  0  0  0
  -26.0006  -29.4748   20.7162 C   0  0  0  0  0  0
  -27.1976  -28.7270   20.7056 C   0  0  0  0  0  0
  -26.0580  -26.9505   19.4930 C   0  0  0  0  0  0
  -24.8639  -27.6944   19.5123 C   0  0  0  0  0  0
  -23.6033  -29.8258   20.1680 C   0  0  0  0  0  0
  -25.4106  -36.3114   24.0328 C   0  0  1  0  0  0
  -20.5838  -28.3658   23.1327 C   0  0  2  0  0  0
  -20.6743  -26.9396   22.5423 C   0  0  0  0  0  0
  -19.5728  -26.6385   21.5210 C   0  0  0  0  0  0
  -18.1903  -26.7930   22.1610 C   0  0  0  0  0  0
  -19.1503  -28.8832   23.2913 C   0  0  0  0  0  0
  -18.9436  -30.1437   23.8927 C   0  0  0  0  0  0
  -17.6441  -30.6582   24.0573 C   0  0  0  0  0  0
  -25.9030  -34.9475   23.5127 C   0  0  0  0  0  0
  -16.5332  -29.9084   23.6328 C   0  0  0  0  0  0
  -16.7248  -28.6496   23.0359 C   0  0  0  0  0  0
  -26.4459  -31.6605   25.0747 C   0  0  0  0  0  0
  -25.3731  -31.3665   26.1491 C   0  0  0  0  0  0
  -27.0304  -30.3057   24.6112 C   0  0  0  0  0  0
  -27.6037  -32.4322   25.7515 C   0  0  0  0  0  0
  -27.5571  -37.1823   24.8459 C   0  0  0  0  0  0
  -21.4109  -29.3038   22.3752 N   0  0  0  0  0  0
  -26.4284  -37.3804   23.9401 N   0  0  0  0  0  0
  -24.6626  -31.0810   22.1031 N   0  0  0  0  0  0
  -23.4163  -28.8203   23.3038 O   0  0  0  0  0  0
  -28.4226  -26.7635   20.0481 O   0  0  0  0  0  0
  -26.5599  -34.8917   22.4695 O   0  0  0  0  0  0
  -23.5319  -32.1449   23.7545 O   0  0  0  0  0  0
  -32.0556  -18.1717   21.2578 C   0  0  0  0  0  0
  -31.8697  -19.4752   20.7591 C   0  0  0  0  0  0
  -29.5274  -19.3866   21.3969 C   0  0  0  0  0  0
  -30.9814  -17.4699   21.8410 C   0  0  0  0  0  0
  -30.6075  -20.1068   20.8297 C   0  0  0  0  0  0
  -29.7123  -18.0834   21.9019 C   0  0  0  0  0  0
  -31.3620  -22.4275   20.9052 C   0  0  0  0  0  0
  -29.1210  -21.9051   20.0102 C   0  0  0  0  0  0
  -31.4090  -23.6969   20.0317 C   0  0  0  0  0  0
  -29.1780  -23.1697   19.1291 C   0  0  0  0  0  0
  -31.2177  -16.0869   22.4357 C   0  0  0  0  0  0
  -30.1333  -25.4717   18.9059 C   0  0  0  0  0  0
  -28.8054  -26.2398   18.7762 C   0  0  0  0  0  0
  -30.4626  -21.4215   20.3350 N   0  0  0  0  0  0
  -30.4481  -15.0122   21.8135 N   0  0  0  0  0  0
  -30.0520  -24.2237   19.7197 N   0  3  0  0  0  0
  -28.6659  -17.4291   22.4620 F   0  0  0  0  0  0
  -31.4574  -12.3972   19.0792 H   0  0  0  0  0  0
  -30.3171  -11.2706   19.7538 H   0  0  0  0  0  0
  -29.7112  -11.8242   17.3890 H   0  0  0  0  0  0
  -29.6485  -13.5265   17.7789 H   0  0  0  0  0  0
  -27.8153  -11.3235   18.7917 H   0  0  0  0  0  0
  -27.3515  -12.6726   17.7873 H   0  0  0  0  0  0
  -27.7237  -14.2587   19.6048 H   0  0  0  0  0  0
  -28.6637  -11.9127   21.3204 H   0  0  0  0  0  0
  -28.4492  -13.5441   21.8743 H   0  0  0  0  0  0
  -25.2747   -9.5704   22.4774 H   0  0  0  0  0  0
  -23.9995   -7.4649   22.7486 H   0  0  0  0  0  0
  -21.0849   -8.8762   19.8937 H   0  0  0  0  0  0
  -22.3703  -10.9662   19.6143 H   0  0  0  0  0  0
  -21.1988   -7.6144   23.9715 H   0  0  0  0  0  0
  -21.1473   -6.0521   25.9074 H   0  0  0  0  0  0
  -22.0603   -2.7611   23.2851 H   0  0  0  0  0  0
  -22.4067  -11.9853   22.4715 H   0  0  0  0  0  0
  -21.1100  -13.1254   22.2552 H   0  0  0  0  0  0
  -24.6760  -15.8516   20.5274 H   0  0  0  0  0  0
  -26.3040  -15.6260   20.1330 H   0  0  0  0  0  0
  -26.7106  -32.5538   23.1201 H   0  0  0  0  0  0
  -25.0027  -33.9804   25.0474 H   0  0  0  0  0  0
  -22.6864  -31.3114   21.4154 H   0  0  0  0  0  0
  -23.3742  -35.9644   23.3287 H   0  0  0  0  0  0
  -24.3566  -36.8971   22.2057 H   0  0  0  0  0  0
  -23.7226  -37.6508   23.6681 H   0  0  0  0  0  0
  -26.0297  -31.6051   20.5943 H   0  0  0  0  0  0
  -26.8144  -30.8965   21.9786 H   0  0  0  0  0  0
  -28.0927  -29.1248   21.1636 H   0  0  0  0  0  0
  -26.0375  -25.9719   19.0366 H   0  0  0  0  0  0
  -23.9691  -27.2874   19.0616 H   0  0  0  0  0  0
  -23.7055  -30.5996   19.4069 H   0  0  0  0  0  0
  -22.7282  -29.2419   19.8762 H   0  0  0  0  0  0
  -25.1288  -36.1978   25.0823 H   0  0  0  0  0  0
  -20.9925  -28.3220   24.1447 H   0  0  0  0  0  0
  -20.5626  -26.2271   23.3609 H   0  0  0  0  0  0
  -21.6619  -26.7431   22.1234 H   0  0  0  0  0  0
  -19.6885  -25.6297   21.1234 H   0  0  0  0  0  0
  -19.6670  -27.3201   20.6748 H   0  0  0  0  0  0
  -17.4180  -26.6706   21.3999 H   0  0  0  0  0  0
  -18.0280  -26.0052   22.8979 H   0  0  0  0  0  0
  -19.7907  -30.7247   24.2313 H   0  0  0  0  0  0
  -17.4989  -31.6261   24.5178 H   0  0  0  0  0  0
  -15.5336  -30.2996   23.7635 H   0  0  0  0  0  0
  -15.8648  -28.0820   22.7078 H   0  0  0  0  0  0
  -24.5921  -30.7001   25.7808 H   0  0  0  0  0  0
  -24.8894  -32.2793   26.4980 H   0  0  0  0  0  0
  -25.8102  -30.8801   27.0223 H   0  0  0  0  0  0
  -26.2852  -29.6807   24.1175 H   0  0  0  0  0  0
  -27.4094  -29.7301   25.4571 H   0  0  0  0  0  0
  -27.8671  -30.4393   23.9250 H   0  0  0  0  0  0
  -27.2686  -33.3649   26.2062 H   0  0  0  0  0  0
  -28.3871  -32.6838   25.0355 H   0  0  0  0  0  0
  -28.0665  -31.8450   26.5456 H   0  0  0  0  0  0
  -28.2588  -38.0117   24.7502 H   0  0  0  0  0  0
  -28.1067  -36.2649   24.6297 H   0  0  0  0  0  0
  -27.2277  -37.1502   25.8857 H   0  0  0  0  0  0
  -20.9260  -29.8784   21.7002 H   0  0  0  0  0  0
  -26.0159  -38.2877   24.1412 H   0  0  0  0  0  0
  -33.0346  -17.7177   21.1958 H   0  0  0  0  0  0
  -32.7125  -19.9818   20.3110 H   0  0  0  0  0  0
  -28.5431  -19.8210   21.4772 H   0  0  0  0  0  0
  -31.0208  -22.6827   21.9099 H   0  0  0  0  0  0
  -32.3767  -22.0445   21.0181 H   0  0  0  0  0  0
  -28.5571  -21.1325   19.4846 H   0  0  0  0  0  0
  -28.5779  -22.1221   20.9319 H   0  0  0  0  0  0
  -31.9272  -23.4720   19.0979 H   0  0  0  0  0  0
  -32.0012  -24.4602   20.5384 H   0  0  0  0  0  0
  -28.1602  -23.5322   18.9944 H   0  0  0  0  0  0
  -29.5506  -22.9084   18.1377 H   0  0  0  0  0  0
  -30.9542  -16.1252   23.4933 H   0  0  0  0  0  0
  -32.2814  -15.8438   22.4074 H   0  0  0  0  0  0
  -30.8699  -26.1462   19.3449 H   0  0  0  0  0  0
  -30.5035  -25.2252   17.9099 H   0  0  0  0  0  0
  -28.0404  -25.6134   18.3227 H   0  0  0  0  0  0
  -28.9490  -27.0785   18.0928 H   0  0  0  0  0  0
  -29.6460  -14.6699   22.3209 H   0  0  0  0  0  0
  -29.6412  -24.4762   20.6073 H   0  0  0  0  0  0
  1 25  1  0  0  0
  1 30  2  0  0  0
  1 85  1  0  0  0
  2  3  1  0  0  0
  2 25  1  0  0  0
  2 88  1  0  0  0
  2 89  1  0  0  0
  3  4  1  0  0  0
  3 90  1  0  0  0
  3 91  1  0  0  0
  4  5  1  0  0  0
  4 92  1  0  0  0
  4 93  1  0  0  0
  5  6  1  0  0  0
  5 26  1  0  0  0
  5 94  1  0  0  0
  6 25  1  0  0  0
  6 95  1  0  0  0
  6 96  1  0  0  0
  7  8  2  0  0  0
  7 26  1  0  0  0
  7 29  1  0  0  0
  8  9  1  0  0  0
  8 22  1  0  0  0
  9 10  1  0  0  0
  9 27  2  0  0  0
 10 11  2  0  0  0
 10 15  1  0  0  0
 11 12  1  0  0  0
 11 97  1  0  0  0
 12 13  2  0  0  0
 12 98  1  0  0  0
 13 14  1  0  0  0
 13 31  1  0  0  0
 14 15  2  0  0  0
 14 99  1  0  0  0
 15100  1  0  0  0
 16 17  2  0  0  0
 16 21  1  0  0  0
 16 31  1  0  0  0
 17 18  1  0  0  0
 17101  1  0  0  0
 18 19  2  0  0  0
 18102  1  0  0  0
 19 20  1  0  0  0
 19 24  1  0  0  0
 20 21  2  0  0  0
 20103  1  0  0  0
 21 23  1  0  0  0
 22 28  1  0  0  0
 22 32  2  0  0  0
 26 27  1  0  0  0
 28104  1  0  0  0
 28105  1  0  0  0
 29106  1  0  0  0
 29107  1  0  0  0
 33 34  1  0  0  0
 33 66  1  0  0  0
 33 70  2  0  0  0
 34 36  1  0  0  0
 34 59  1  0  0  0
 34108  1  0  0  0
 35 44  2  0  0  0
 35 45  1  0  0  0
 35 68  1  0  0  0
 36 56  1  0  0  0
 36109  1  0  0  0
 37 39  1  0  0  0
 37 47  1  0  0  0
 37 66  1  0  0  0
 37110  1  0  0  0
 38 43  2  0  0  0
 38 46  1  0  0  0
 38 47  1  0  0  0
 39 64  1  0  0  0
 39 67  2  0  0  0
 40 52  1  0  0  0
 40 53  2  0  0  0
 40 58  1  0  0  0
 41111  1  0  0  0
 41112  1  0  0  0
 41113  1  0  0  0
 41 48  1  0  0  0
 42 43  1  0  0  0
 42 66  1  0  0  0
 42114  1  0  0  0
 42115  1  0  0  0
 43 44  1  0  0  0
 44116  1  0  0  0
 45 46  2  0  0  0
 45117  1  0  0  0
 46118  1  0  0  0
 47119  1  0  0  0
 47120  1  0  0  0
 48 56  1  0  0  0
 48 65  1  0  0  0
 48121  1  0  0  0
 49 50  1  0  0  0
 49 53  1  0  0  0
 49 64  1  0  0  0
 49122  1  0  0  0
 50 51  1  0  0  0
 50123  1  0  0  0
 50124  1  0  0  0
 51 52  1  0  0  0
 51125  1  0  0  0
 51126  1  0  0  0
 52127  1  0  0  0
 52128  1  0  0  0
 53 54  1  0  0  0
 54 55  2  0  0  0
 54129  1  0  0  0
 55 57  1  0  0  0
 55130  1  0  0  0
 56 69  2  0  0  0
 57 58  2  0  0  0
 57131  1  0  0  0
 58132  1  0  0  0
 59 60  1  0  0  0
 59 61  1  0  0  0
 59 62  1  0  0  0
 60133  1  0  0  0
 60134  1  0  0  0
 60135  1  0  0  0
 61136  1  0  0  0
 61137  1  0  0  0
 61138  1  0  0  0
 62139  1  0  0  0
 62140  1  0  0  0
 62141  1  0  0  0
 63 65  1  0  0  0
 63142  1  0  0  0
 63143  1  0  0  0
 63144  1  0  0  0
 64145  1  0  0  0
 65146  1  0  0  0
 68 83  1  0  0  0
 71 72  2  0  0  0
 71 74  1  0  0  0
 71147  1  0  0  0
 72 75  1  0  0  0
 72148  1  0  0  0
 73 75  2  0  0  0
 73 76  1  0  0  0
 73149  1  0  0  0
 74 76  2  0  0  0
 74 81  1  0  0  0
 75 84  1  0  0  0
 76 87  1  0  0  0
 77 79  1  0  0  0
 77 84  1  0  0  0
 77150  1  0  0  0
 77151  1  0  0  0
 78 80  1  0  0  0
 78 84  1  0  0  0
 78152  1  0  0  0
 78153  1  0  0  0
 79 86  1  0  0  0
 79154  1  0  0  0
 79155  1  0  0  0
 80 86  1  0  0  0
 80156  1  0  0  0
 80157  1  0  0  0
 81 85  1  0  0  0
 81158  1  0  0  0
 81159  1  0  0  0
 82 83  1  0  0  0
 82160  1  0  0  0
 82161  1  0  0  0
 82 86  1  0  0  0
 83162  1  0  0  0
 83163  1  0  0  0
 85164  1  0  0  0
 86165  1  0  0  0
M  CHG  1  86   1
M  ISO  4   1 100  68 101  83 101  85 100
M  END
> <chiral flag>
0

> <version>
0

> <s_m_source_file>
/data/baiqing/PycharmProjects/Reinvent-master-3.2/result/LINK_invent/BTK/process_docking_weight1_custom_product_contain_oxygen_bond_distance_aromatic_linkinvent_7_9_3/rearranged_h_0007.sdf

> <i_m_source_file_index>
14

> <r_mmod_Potential_Energy-OPLS-2005>
-102.208549499512

> <r_mmod_Stretch_Energy-OPLS-2005>
34.9452362060547

> <r_mmod_Bend_Energy-OPLS-2005>
95.4935455322266

> <r_mmod_Torsional_Energy-OPLS-2005>
273.803405761719

> <r_mmod_Improper_Torsional_Energy-OPLS-2005>
5.40495634078979

> <r_mmod_Van_der_Waal_Energy-OPLS-2005>
165.942199707031

> <r_mmod_Electrostatic_Energy-OPLS-2005>
-263.678863525391

> <r_mmod_Solvation_Energy-OPLS-2005>
-421.131103515625

> <b_mmod_Minimization_Converged-OPLS-2005>
0

> <r_mmod_RMS_Derivative-OPLS-2005>
1.20022666454315

$$$$
14
                    3D
 Structure written by MMmdl.
146153  0  0  1  0            999 V2000
  -30.1594  -16.0066   20.2966 C   0  0  0  0  0  0
  -30.3938  -13.3595   19.5608 C   0  0  0  0  0  0
  -29.5670  -12.7633   18.3719 C   0  0  0  0  0  0
  -28.1713  -12.3208   18.8268 C   0  0  0  0  0  0
  -27.5869  -13.3480   19.8169 C   0  0  2  0  0  0
  -28.5711  -13.8276   20.9221 C   0  0  0  0  0  0
  -25.2262  -13.8335   20.5850 C   0  0  0  0  0  0
  -24.1683  -13.0437   20.9294 C   0  0  0  0  0  0
  -24.6443  -11.6961   20.8741 C   0  0  0  0  0  0
  -23.9154  -10.4287   21.0361 C   0  0  0  0  0  0
  -24.3684   -9.4202   21.9156 C   0  0  0  0  0  0
  -23.6326   -8.2254   22.0761 C   0  0  0  0  0  0
  -22.4310   -8.0293   21.3553 C   0  0  0  0  0  0
  -21.9947   -9.0269   20.4652 C   0  0  0  0  0  0
  -22.7304  -10.2132   20.3025 C   0  0  0  0  0  0
  -21.6865   -6.0738   22.5271 C   0  0  0  0  0  0
  -21.4018   -6.5638   23.8202 C   0  0  0  0  0  0
  -21.3674   -5.6795   24.9164 C   0  0  0  0  0  0
  -21.6050   -4.3052   24.7210 C   0  0  0  0  0  0
  -21.8815   -3.8146   23.4335 C   0  0  0  0  0  0
  -21.9197   -4.6966   22.3389 C   0  0  0  0  0  0
  -22.7684  -13.5145   21.1885 C   0  0  0  0  0  0
  -22.1661   -4.2146   21.0965 F   0  0  0  0  0  0
  -21.5633   -3.4539   25.7726 F   0  0  0  0  0  0
  -29.6906  -14.5697   20.2584 N   0  0  0  0  0  0
  -26.2757  -12.9748   20.3298 N   0  0  0  0  0  0
  -25.9409  -11.6779   20.5687 N   0  0  0  0  0  0
  -22.0348  -12.8148   22.0448 N   0  0  0  0  0  0
  -25.3832  -15.2072   20.4298 N   0  0  0  0  0  0
  -31.3936  -15.8901   20.1029 O   0  0  0  0  0  0
  -21.6661   -6.8888   21.4242 O   0  0  0  0  0  0
  -22.3354  -14.5428   20.6691 O   0  0  0  0  0  0
  -24.7071  -31.7703   23.1293 C   0  0  0  0  0  0
  -25.9524  -32.4329   23.7943 C   0  0  1  0  0  0
  -27.2513  -26.4466   20.2363 C   0  0  0  0  0  0
  -25.5990  -33.8170   24.1804 N   0  0  0  0  0  0
  -23.5467  -30.3590   21.4880 C   0  0  2  0  0  0
  -25.0115  -28.6445   20.1240 C   0  0  0  0  0  0
  -22.7869  -29.4159   22.4625 C   0  0  0  0  0  0
  -18.0352  -28.1442   22.8451 C   0  0  0  0  0  0
  -24.1491  -36.7079   23.2661 C   0  0  0  0  0  0
  -26.1373  -30.4167   21.4368 C   0  0  0  0  0  0
  -26.2023  -28.9529   20.7904 C   0  0  0  0  0  0
  -27.2883  -27.8890   20.8128 C   0  0  0  0  0  0
  -26.0314  -26.4185   19.4925 C   0  0  0  0  0  0
  -24.9822  -27.4059   19.4503 C   0  0  0  0  0  0
  -23.8171  -29.6287   20.1355 C   0  0  0  0  0  0
  -25.4161  -36.2822   24.0263 C   0  0  1  0  0  0
  -20.5998  -28.3812   23.1088 C   0  0  2  0  0  0
  -20.6804  -26.9446   22.5409 C   0  0  0  0  0  0
  -19.5784  -26.6368   21.5219 C   0  0  0  0  0  0
  -18.1968  -26.7963   22.1621 C   0  0  0  0  0  0
  -19.1625  -28.8961   23.2745 C   0  0  0  0  0  0
  -18.9525  -30.1535   23.8812 C   0  0  0  0  0  0
  -17.6511  -30.6624   24.0552 C   0  0  0  0  0  0
  -25.9156  -34.9213   23.4901 C   0  0  0  0  0  0
  -16.5400  -29.9100   23.6363 C   0  0  0  0  0  0
  -16.7331  -28.6515   23.0393 C   0  0  0  0  0  0
  -26.4636  -31.6475   25.0671 C   0  0  0  0  0  0
  -25.3615  -31.3859   26.1214 C   0  0  0  0  0  0
  -27.0594  -30.2775   24.6774 C   0  0  0  0  0  0
  -27.6047  -32.4397   25.7494 C   0  0  0  0  0  0
  -27.5563  -37.1697   24.8466 C   0  0  0  0  0  0
  -21.4490  -29.3005   22.3367 N   0  0  0  0  0  0
  -26.4268  -37.3609   23.9409 N   0  0  0  0  0  0
  -24.8228  -30.8894   22.0684 N   0  0  0  0  0  0
  -23.4193  -28.7817   23.3096 O   0  0  0  0  0  0
  -28.1811  -25.1154   20.3733 O   0  0  0  0  0  0
  -26.5845  -34.8831   22.4548 O   0  0  0  0  0  0
  -23.6035  -32.0893   23.6081 O   0  0  0  0  0  0
  -29.8586  -21.5589   21.6057 C   0  0  0  0  0  0
  -27.4525  -20.9328   21.3300 C   0  0  0  0  0  0
  -29.3582  -19.3477   19.9976 C   0  0  0  0  0  0
  -28.3205  -23.2590   19.9813 C   0  0  0  0  0  0
  -28.7484  -21.2770   20.5833 C   0  0  0  0  0  0
  -29.4074  -17.4719   20.3748 N   0  0  0  0  0  0
  -31.3588  -13.6699   19.1605 H   0  0  0  0  0  0
  -30.6461  -12.5808   20.2828 H   0  0  0  0  0  0
  -30.1009  -11.9284   17.9140 H   0  0  0  0  0  0
  -29.4664  -13.5234   17.5950 H   0  0  0  0  0  0
  -28.2661  -11.3556   19.3266 H   0  0  0  0  0  0
  -27.5107  -12.1667   17.9716 H   0  0  0  0  0  0
  -27.4078  -14.2247   19.1923 H   0  0  0  0  0  0
  -28.9061  -13.0012   21.5506 H   0  0  0  0  0  0
  -28.0650  -14.5223   21.5939 H   0  0  0  0  0  0
  -25.2828   -9.5683   22.4737 H   0  0  0  0  0  0
  -24.0028   -7.4654   22.7507 H   0  0  0  0  0  0
  -21.0867   -8.8790   19.8976 H   0  0  0  0  0  0
  -22.3749  -10.9669   19.6130 H   0  0  0  0  0  0
  -21.2014   -7.6150   23.9693 H   0  0  0  0  0  0
  -21.1506   -6.0529   25.9065 H   0  0  0  0  0  0
  -22.0586   -2.7609   23.2819 H   0  0  0  0  0  0
  -22.4024  -11.9876   22.4911 H   0  0  0  0  0  0
  -21.0946  -13.1137   22.2608 H   0  0  0  0  0  0
  -24.6116  -15.8560   20.5398 H   0  0  0  0  0  0
  -26.2267  -15.6463   20.0871 H   0  0  0  0  0  0
  -26.7624  -32.4746   23.0661 H   0  0  0  0  0  0
  -24.9987  -33.9177   24.9857 H   0  0  0  0  0  0
  -22.8875  -31.2030   21.2738 H   0  0  0  0  0  0
  -23.3791  -35.9370   23.3275 H   0  0  0  0  0  0
  -24.3522  -36.8811   22.2082 H   0  0  0  0  0  0
  -23.7222  -37.6222   23.6790 H   0  0  0  0  0  0
  -26.3726  -31.1273   20.6441 H   0  0  0  0  0  0
  -26.9739  -30.4924   22.1173 H   0  0  0  0  0  0
  -28.1712  -28.1405   21.3827 H   0  0  0  0  0  0
  -25.8333  -25.4996   18.9576 H   0  0  0  0  0  0
  -24.0933  -27.1579   18.8870 H   0  0  0  0  0  0
  -24.0098  -30.3776   19.3661 H   0  0  0  0  0  0
  -22.9185  -29.1037   19.8069 H   0  0  0  0  0  0
  -25.1388  -36.1557   25.0754 H   0  0  0  0  0  0
  -21.0086  -28.3474   24.1211 H   0  0  0  0  0  0
  -20.5626  -26.2457   23.3701 H   0  0  0  0  0  0
  -21.6663  -26.7336   22.1256 H   0  0  0  0  0  0
  -19.6928  -25.6246   21.1331 H   0  0  0  0  0  0
  -19.6742  -27.3114   20.6698 H   0  0  0  0  0  0
  -17.4236  -26.6716   21.4026 H   0  0  0  0  0  0
  -18.0350  -26.0122   22.9035 H   0  0  0  0  0  0
  -19.8001  -30.7368   24.2154 H   0  0  0  0  0  0
  -17.5065  -31.6294   24.5168 H   0  0  0  0  0  0
  -15.5400  -30.2986   23.7723 H   0  0  0  0  0  0
  -15.8728  -28.0796   22.7182 H   0  0  0  0  0  0
  -24.5831  -30.7207   25.7455 H   0  0  0  0  0  0
  -24.8770  -32.3100   26.4369 H   0  0  0  0  0  0
  -25.7693  -30.9157   27.0169 H   0  0  0  0  0  0
  -26.3335  -29.6316   24.1822 H   0  0  0  0  0  0
  -27.3953  -29.7338   25.5616 H   0  0  0  0  0  0
  -27.9369  -30.3828   24.0391 H   0  0  0  0  0  0
  -27.2567  -33.3800   26.1783 H   0  0  0  0  0  0
  -28.3994  -32.6801   25.0417 H   0  0  0  0  0  0
  -28.0566  -31.8721   26.5639 H   0  0  0  0  0  0
  -28.2550  -38.0019   24.7511 H   0  0  0  0  0  0
  -28.1096  -36.2538   24.6317 H   0  0  0  0  0  0
  -27.2261  -37.1352   25.8862 H   0  0  0  0  0  0
  -20.9850  -29.8618   21.6355 H   0  0  0  0  0  0
  -26.0084  -38.2654   24.1418 H   0  0  0  0  0  0
  -30.0686  -20.6819   22.2186 H   0  0  0  0  0  0
  -29.5941  -22.3781   22.2743 H   0  0  0  0  0  0
  -30.7843  -21.8340   21.0964 H   0  0  0  0  0  0
  -27.5834  -20.0723   21.9871 H   0  0  0  0  0  0
  -26.6531  -20.6908   20.6283 H   0  0  0  0  0  0
  -27.1123  -21.7691   21.9410 H   0  0  0  0  0  0
  -30.4033  -19.5148   19.7349 H   0  0  0  0  0  0
  -28.8678  -19.2894   19.0248 H   0  0  0  0  0  0
  -27.4231  -23.1217   19.3776 H   0  0  0  0  0  0
  -29.1029  -23.3676   19.2306 H   0  0  0  0  0  0
  -28.4630  -17.2303   20.6449 H   0  0  0  0  0  0
  1 25  1  0  0  0
  1 30  2  0  0  0
  1 76  1  0  0  0
  2  3  1  0  0  0
  2 25  1  0  0  0
  2 77  1  0  0  0
  2 78  1  0  0  0
  3  4  1  0  0  0
  3 79  1  0  0  0
  3 80  1  0  0  0
  4  5  1  0  0  0
  4 81  1  0  0  0
  4 82  1  0  0  0
  5  6  1  0  0  0
  5 26  1  0  0  0
  5 83  1  0  0  0
  6 25  1  0  0  0
  6 84  1  0  0  0
  6 85  1  0  0  0
  7  8  2  0  0  0
  7 26  1  0  0  0
  7 29  1  0  0  0
  8  9  1  0  0  0
  8 22  1  0  0  0
  9 10  1  0  0  0
  9 27  2  0  0  0
 10 11  2  0  0  0
 10 15  1  0  0  0
 11 12  1  0  0  0
 11 86  1  0  0  0
 12 13  2  0  0  0
 12 87  1  0  0  0
 13 14  1  0  0  0
 13 31  1  0  0  0
 14 15  2  0  0  0
 14 88  1  0  0  0
 15 89  1  0  0  0
 16 17  2  0  0  0
 16 21  1  0  0  0
 16 31  1  0  0  0
 17 18  1  0  0  0
 17 90  1  0  0  0
 18 19  2  0  0  0
 18 91  1  0  0  0
 19 20  1  0  0  0
 19 24  1  0  0  0
 20 21  2  0  0  0
 20 92  1  0  0  0
 21 23  1  0  0  0
 22 28  1  0  0  0
 22 32  2  0  0  0
 26 27  1  0  0  0
 28 93  1  0  0  0
 28 94  1  0  0  0
 29 95  1  0  0  0
 29 96  1  0  0  0
 33 34  1  0  0  0
 33 66  1  0  0  0
 33 70  2  0  0  0
 34 36  1  0  0  0
 34 59  1  0  0  0
 34 97  1  0  0  0
 35 44  2  0  0  0
 35 45  1  0  0  0
 35 68  1  0  0  0
 36 56  1  0  0  0
 36 98  1  0  0  0
 37 39  1  0  0  0
 37 47  1  0  0  0
 37 66  1  0  0  0
 37 99  1  0  0  0
 38 43  2  0  0  0
 38 46  1  0  0  0
 38 47  1  0  0  0
 39 64  1  0  0  0
 39 67  2  0  0  0
 40 52  1  0  0  0
 40 53  2  0  0  0
 40 58  1  0  0  0
 41100  1  0  0  0
 41101  1  0  0  0
 41102  1  0  0  0
 41 48  1  0  0  0
 42 43  1  0  0  0
 42 66  1  0  0  0
 42103  1  0  0  0
 42104  1  0  0  0
 43 44  1  0  0  0
 44105  1  0  0  0
 45 46  2  0  0  0
 45106  1  0  0  0
 46107  1  0  0  0
 47108  1  0  0  0
 47109  1  0  0  0
 48 56  1  0  0  0
 48 65  1  0  0  0
 48110  1  0  0  0
 49 50  1  0  0  0
 49 53  1  0  0  0
 49 64  1  0  0  0
 49111  1  0  0  0
 50 51  1  0  0  0
 50112  1  0  0  0
 50113  1  0  0  0
 51 52  1  0  0  0
 51114  1  0  0  0
 51115  1  0  0  0
 52116  1  0  0  0
 52117  1  0  0  0
 53 54  1  0  0  0
 54 55  2  0  0  0
 54118  1  0  0  0
 55 57  1  0  0  0
 55119  1  0  0  0
 56 69  2  0  0  0
 57 58  2  0  0  0
 57120  1  0  0  0
 58121  1  0  0  0
 59 60  1  0  0  0
 59 61  1  0  0  0
 59 62  1  0  0  0
 60122  1  0  0  0
 60123  1  0  0  0
 60124  1  0  0  0
 61125  1  0  0  0
 61126  1  0  0  0
 61127  1  0  0  0
 62128  1  0  0  0
 62129  1  0  0  0
 62130  1  0  0  0
 63 65  1  0  0  0
 63131  1  0  0  0
 63132  1  0  0  0
 63133  1  0  0  0
 64134  1  0  0  0
 65135  1  0  0  0
 68 74  1  0  0  0
 71136  1  0  0  0
 71137  1  0  0  0
 71138  1  0  0  0
 71 75  1  0  0  0
 72 75  1  0  0  0
 72139  1  0  0  0
 72140  1  0  0  0
 72141  1  0  0  0
 73 75  1  0  0  0
 73 76  1  0  0  0
 73142  1  0  0  0
 73143  1  0  0  0
 74 75  1  0  0  0
 74144  1  0  0  0
 74145  1  0  0  0
 76146  1  0  0  0
M  ISO  4   1 100  68 101  74 101  76 100
M  END
> <chiral flag>
0

> <version>
0

> <s_m_source_file>
/data/baiqing/PycharmProjects/Reinvent-master-3.2/result/LINK_invent/BTK/process_docking_weight1_custom_product_contain_oxygen_bond_distance_aromatic_linkinvent_7_9_3/rearranged_h_0007.sdf

> <i_m_source_file_index>
15

> <r_mmod_Potential_Energy-OPLS-2005>
4154.009765625

> <r_mmod_Stretch_Energy-OPLS-2005>
1946.06066894531

> <r_mmod_Bend_Energy-OPLS-2005>
907.354675292969

> <r_mmod_Torsional_Energy-OPLS-2005>
237.135360717773

> <r_mmod_Improper_Torsional_Energy-OPLS-2005>
4.05898284912109

> <r_mmod_Van_der_Waal_Energy-OPLS-2005>
111.919425964355

> <r_mmod_Electrostatic_Energy-OPLS-2005>
-373.071075439453

> <r_mmod_Solvation_Energy-OPLS-2005>
-217.193542480469

> <b_mmod_Minimization_Converged-OPLS-2005>
0

> <r_mmod_RMS_Derivative-OPLS-2005>
2.43039011955261

$$$$
15
                    3D
 Structure written by MMmdl.
153161  0  0  1  0            999 V2000
  -30.4434  -15.2294   20.3759 C   0  0  0  0  0  0
  -30.4609  -12.8100   19.4767 C   0  0  0  0  0  0
  -29.5293  -12.5506   18.2655 C   0  0  0  0  0  0
  -28.0769  -12.3045   18.7094 C   0  0  0  0  0  0
  -27.6308  -13.2647   19.8393 C   0  0  2  0  0  0
  -28.6838  -13.4030   20.9633 C   0  0  0  0  0  0
  -25.2563  -13.8230   20.5850 C   0  0  0  0  0  0
  -24.1874  -13.0422   20.9307 C   0  0  0  0  0  0
  -24.6478  -11.6933   20.8792 C   0  0  0  0  0  0
  -23.9131  -10.4316   21.0433 C   0  0  0  0  0  0
  -24.3678   -9.4232   21.9202 C   0  0  0  0  0  0
  -23.6335   -8.2285   22.0788 C   0  0  0  0  0  0
  -22.4320   -8.0331   21.3575 C   0  0  0  0  0  0
  -21.9964   -9.0307   20.4662 C   0  0  0  0  0  0
  -22.7305  -10.2183   20.3064 C   0  0  0  0  0  0
  -21.6890   -6.0762   22.5280 C   0  0  0  0  0  0
  -21.4018   -6.5656   23.8204 C   0  0  0  0  0  0
  -21.3652   -5.6792   24.9160 C   0  0  0  0  0  0
  -21.6055   -4.3062   24.7208 C   0  0  0  0  0  0
  -21.8832   -3.8166   23.4324 C   0  0  0  0  0  0
  -21.9206   -4.6990   22.3389 C   0  0  0  0  0  0
  -22.7908  -13.5247   21.1837 C   0  0  0  0  0  0
  -22.1690   -4.2183   21.0971 F   0  0  0  0  0  0
  -21.5621   -3.4531   25.7711 F   0  0  0  0  0  0
  -29.8980  -13.9222   20.3194 N   0  0  0  0  0  0
  -26.2967  -12.9460   20.3365 N   0  0  0  0  0  0
  -25.9441  -11.6575   20.5841 N   0  0  0  0  0  0
  -22.0484  -12.8302   22.0359 N   0  0  0  0  0  0
  -25.4117  -15.1967   20.4386 N   0  0  0  0  0  0
  -31.6619  -15.2643   20.1547 O   0  0  0  0  0  0
  -21.6685   -6.8933   21.4245 O   0  0  0  0  0  0
  -22.3660  -14.5537   20.6620 O   0  0  0  0  0  0
  -24.6563  -31.8234   23.1728 C   0  0  0  0  0  0
  -25.9305  -32.4552   23.8130 C   0  0  1  0  0  0
  -27.2142  -26.9196   20.1995 C   0  0  0  0  0  0
  -25.6019  -33.8365   24.2022 N   0  0  0  0  0  0
  -23.4677  -30.4374   21.5193 C   0  0  2  0  0  0
  -24.9265  -28.8201   20.1043 C   0  0  0  0  0  0
  -22.7579  -29.4444   22.4749 C   0  0  0  0  0  0
  -18.0313  -28.1390   22.8449 C   0  0  0  0  0  0
  -24.1521  -36.7158   23.2640 C   0  0  0  0  0  0
  -26.0359  -30.6219   21.4126 C   0  0  0  0  0  0
  -26.1009  -29.2143   20.7521 C   0  0  0  0  0  0
  -27.2284  -28.2789   20.7899 C   0  0  0  0  0  0
  -26.0144  -26.6767   19.4951 C   0  0  0  0  0  0
  -24.9076  -27.5702   19.4597 C   0  0  0  0  0  0
  -23.7082  -29.7514   20.1433 C   0  0  0  0  0  0
  -25.4168  -36.2912   24.0271 C   0  0  1  0  0  0
  -20.5918  -28.3721   23.1175 C   0  0  2  0  0  0
  -20.6773  -26.9398   22.5402 C   0  0  0  0  0  0
  -19.5768  -26.6354   21.5191 C   0  0  0  0  0  0
  -18.1948  -26.7923   22.1594 C   0  0  0  0  0  0
  -19.1574  -28.8879   23.2799 C   0  0  0  0  0  0
  -18.9493  -30.1469   23.8819 C   0  0  0  0  0  0
  -17.6504  -30.6579   24.0541 C   0  0  0  0  0  0
  -25.9142  -34.9315   23.4957 C   0  0  0  0  0  0
  -16.5380  -29.9062   23.6361 C   0  0  0  0  0  0
  -16.7303  -28.6491   23.0358 C   0  0  0  0  0  0
  -26.4591  -31.6500   25.0653 C   0  0  0  0  0  0
  -25.3716  -31.3765   26.1289 C   0  0  0  0  0  0
  -27.0527  -30.2863   24.6463 C   0  0  0  0  0  0
  -27.6055  -32.4325   25.7463 C   0  0  0  0  0  0
  -27.5574  -37.1734   24.8452 C   0  0  0  0  0  0
  -21.4259  -29.3033   22.3509 N   0  0  0  0  0  0
  -26.4288  -37.3665   23.9394 N   0  0  0  0  0  0
  -24.7402  -30.9890   22.0883 N   0  0  0  0  0  0
  -23.4150  -28.8009   23.2971 O   0  0  0  0  0  0
  -28.2232  -25.8296   20.3518 O   0  0  0  0  0  0
  -26.5734  -34.8863   22.4548 O   0  0  0  0  0  0
  -23.5653  -32.1243   23.6857 O   0  0  0  0  0  0
  -30.0869  -20.4815   22.4196 C   0  0  0  0  0  0
  -28.9060  -19.5291   22.0818 C   0  0  0  0  0  0
  -30.4053  -21.2699   21.1258 C   0  0  0  0  0  0
  -28.8557  -19.5353   20.5572 C   0  0  2  0  0  0
  -29.8697  -18.0951   20.1691 C   0  0  0  0  0  0
  -28.2121  -22.5725   20.4862 C   0  0  0  0  0  0
  -28.3713  -24.2534   19.8399 C   0  0  0  0  0  0
  -29.6521  -16.4709   20.4613 N   0  0  0  0  0  0
  -29.1419  -21.1684   20.3904 N   0  3  1  0  0  0
  -31.4476  -13.0750   19.0924 H   0  0  0  0  0  0
  -30.6094  -11.9080   20.0710 H   0  0  0  0  0  0
  -29.8863  -11.6855   17.7027 H   0  0  0  0  0  0
  -29.5690  -13.3948   17.5729 H   0  0  0  0  0  0
  -28.0143  -11.2742   19.0621 H   0  0  0  0  0  0
  -27.4019  -12.3829   17.8551 H   0  0  0  0  0  0
  -27.5526  -14.2434   19.3634 H   0  0  0  0  0  0
  -28.3570  -14.1124   21.7250 H   0  0  0  0  0  0
  -28.8795  -12.4587   21.4799 H   0  0  0  0  0  0
  -25.2822   -9.5732   22.4792 H   0  0  0  0  0  0
  -24.0024   -7.4698   22.7561 H   0  0  0  0  0  0
  -21.0868   -8.8835   19.9017 H   0  0  0  0  0  0
  -22.3735  -10.9731   19.6200 H   0  0  0  0  0  0
  -21.2012   -7.6165   23.9725 H   0  0  0  0  0  0
  -21.1444   -6.0519   25.9060 H   0  0  0  0  0  0
  -22.0615   -2.7634   23.2811 H   0  0  0  0  0  0
  -22.4100  -12.0013   22.4807 H   0  0  0  0  0  0
  -21.1103  -13.1421   22.2439 H   0  0  0  0  0  0
  -24.6279  -15.8241   20.5907 H   0  0  0  0  0  0
  -26.2207  -15.6644   20.0507 H   0  0  0  0  0  0
  -26.7323  -32.5064   23.0773 H   0  0  0  0  0  0
  -25.0127  -33.9448   25.0146 H   0  0  0  0  0  0
  -22.7790  -31.2695   21.3529 H   0  0  0  0  0  0
  -23.3803  -35.9469   23.3267 H   0  0  0  0  0  0
  -24.3598  -36.8865   22.2064 H   0  0  0  0  0  0
  -23.7288  -37.6328   23.6754 H   0  0  0  0  0  0
  -26.2279  -31.3714   20.6419 H   0  0  0  0  0  0
  -26.8831  -30.6616   22.0849 H   0  0  0  0  0  0
  -28.0905  -28.5703   21.3728 H   0  0  0  0  0  0
  -25.8912  -25.7134   19.0252 H   0  0  0  0  0  0
  -24.0110  -27.2520   18.9436 H   0  0  0  0  0  0
  -23.8590  -30.5249   19.3888 H   0  0  0  0  0  0
  -22.8149  -29.2107   19.8231 H   0  0  0  0  0  0
  -25.1387  -36.1650   25.0764 H   0  0  0  0  0  0
  -21.0025  -28.3353   24.1288 H   0  0  0  0  0  0
  -20.5625  -26.2336   23.3642 H   0  0  0  0  0  0
  -21.6644  -26.7366   22.1229 H   0  0  0  0  0  0
  -19.6934  -25.6250   21.1256 H   0  0  0  0  0  0
  -19.6731  -27.3114   20.6689 H   0  0  0  0  0  0
  -17.4213  -26.6653   21.3998 H   0  0  0  0  0  0
  -18.0359  -26.0062   22.8994 H   0  0  0  0  0  0
  -19.7988  -30.7299   24.2125 H   0  0  0  0  0  0
  -17.5071  -31.6263   24.5129 H   0  0  0  0  0  0
  -15.5381  -30.2943   23.7753 H   0  0  0  0  0  0
  -15.8695  -28.0805   22.7106 H   0  0  0  0  0  0
  -24.5882  -30.7155   25.7569 H   0  0  0  0  0  0
  -24.8947  -32.2992   26.4603 H   0  0  0  0  0  0
  -25.7925  -30.8964   27.0131 H   0  0  0  0  0  0
  -26.3246  -29.6453   24.1486 H   0  0  0  0  0  0
  -27.4039  -29.7292   25.5159 H   0  0  0  0  0  0
  -27.9174  -30.3994   23.9917 H   0  0  0  0  0  0
  -27.2592  -33.3632   26.1951 H   0  0  0  0  0  0
  -28.3926  -32.6874   25.0357 H   0  0  0  0  0  0
  -28.0662  -31.8526   26.5467 H   0  0  0  0  0  0
  -28.2528  -38.0082   24.7537 H   0  0  0  0  0  0
  -28.1134  -36.2614   24.6242 H   0  0  0  0  0  0
  -27.2281  -37.1300   25.8846 H   0  0  0  0  0  0
  -20.9458  -29.8755   21.6686 H   0  0  0  0  0  0
  -26.0103  -38.2699   24.1454 H   0  0  0  0  0  0
  -30.9648  -19.9425   22.7806 H   0  0  0  0  0  0
  -29.7792  -21.1673   23.2107 H   0  0  0  0  0  0
  -27.9729  -19.9388   22.4727 H   0  0  0  0  0  0
  -29.0072  -18.5269   22.5022 H   0  0  0  0  0  0
  -31.1814  -20.7566   20.5546 H   0  0  0  0  0  0
  -30.7481  -22.2891   21.3054 H   0  0  0  0  0  0
  -27.8516  -19.3215   20.1892 H   0  0  0  0  0  0
  -30.8681  -18.3115   20.5535 H   0  0  0  0  0  0
  -30.0136  -18.0943   19.0910 H   0  0  0  0  0  0
  -27.2142  -22.2377   20.1942 H   0  0  0  0  0  0
  -28.1226  -22.7248   21.5632 H   0  0  0  0  0  0
  -29.4182  -24.2618   19.5383 H   0  0  0  0  0  0
  -27.8421  -24.2434   18.8854 H   0  0  0  0  0  0
  -28.6879  -16.2497   20.6678 H   0  0  0  0  0  0
  -28.6359  -21.1062   21.2607 H   0  0  0  0  0  0
  1 25  1  0  0  0
  1 30  2  0  0  0
  1 78  1  0  0  0
  2  3  1  0  0  0
  2 25  1  0  0  0
  2 80  1  0  0  0
  2 81  1  0  0  0
  3  4  1  0  0  0
  3 82  1  0  0  0
  3 83  1  0  0  0
  4  5  1  0  0  0
  4 84  1  0  0  0
  4 85  1  0  0  0
  5  6  1  0  0  0
  5 26  1  0  0  0
  5 86  1  0  0  0
  6 25  1  0  0  0
  6 87  1  0  0  0
  6 88  1  0  0  0
  7  8  2  0  0  0
  7 26  1  0  0  0
  7 29  1  0  0  0
  8  9  1  0  0  0
  8 22  1  0  0  0
  9 10  1  0  0  0
  9 27  2  0  0  0
 10 11  2  0  0  0
 10 15  1  0  0  0
 11 12  1  0  0  0
 11 89  1  0  0  0
 12 13  2  0  0  0
 12 90  1  0  0  0
 13 14  1  0  0  0
 13 31  1  0  0  0
 14 15  2  0  0  0
 14 91  1  0  0  0
 15 92  1  0  0  0
 16 17  2  0  0  0
 16 21  1  0  0  0
 16 31  1  0  0  0
 17 18  1  0  0  0
 17 93  1  0  0  0
 18 19  2  0  0  0
 18 94  1  0  0  0
 19 20  1  0  0  0
 19 24  1  0  0  0
 20 21  2  0  0  0
 20 95  1  0  0  0
 21 23  1  0  0  0
 22 28  1  0  0  0
 22 32  2  0  0  0
 26 27  1  0  0  0
 28 96  1  0  0  0
 28 97  1  0  0  0
 29 98  1  0  0  0
 29 99  1  0  0  0
 33 34  1  0  0  0
 33 66  1  0  0  0
 33 70  2  0  0  0
 34 36  1  0  0  0
 34 59  1  0  0  0
 34100  1  0  0  0
 35 44  2  0  0  0
 35 45  1  0  0  0
 35 68  1  0  0  0
 36 56  1  0  0  0
 36101  1  0  0  0
 37 39  1  0  0  0
 37 47  1  0  0  0
 37 66  1  0  0  0
 37102  1  0  0  0
 38 43  2  0  0  0
 38 46  1  0  0  0
 38 47  1  0  0  0
 39 64  1  0  0  0
 39 67  2  0  0  0
 40 52  1  0  0  0
 40 53  2  0  0  0
 40 58  1  0  0  0
 41103  1  0  0  0
 41104  1  0  0  0
 41105  1  0  0  0
 41 48  1  0  0  0
 42 43  1  0  0  0
 42 66  1  0  0  0
 42106  1  0  0  0
 42107  1  0  0  0
 43 44  1  0  0  0
 44108  1  0  0  0
 45 46  2  0  0  0
 45109  1  0  0  0
 46110  1  0  0  0
 47111  1  0  0  0
 47112  1  0  0  0
 48 56  1  0  0  0
 48 65  1  0  0  0
 48113  1  0  0  0
 49 50  1  0  0  0
 49 53  1  0  0  0
 49 64  1  0  0  0
 49114  1  0  0  0
 50 51  1  0  0  0
 50115  1  0  0  0
 50116  1  0  0  0
 51 52  1  0  0  0
 51117  1  0  0  0
 51118  1  0  0  0
 52119  1  0  0  0
 52120  1  0  0  0
 53 54  1  0  0  0
 54 55  2  0  0  0
 54121  1  0  0  0
 55 57  1  0  0  0
 55122  1  0  0  0
 56 69  2  0  0  0
 57 58  2  0  0  0
 57123  1  0  0  0
 58124  1  0  0  0
 59 60  1  0  0  0
 59 61  1  0  0  0
 59 62  1  0  0  0
 60125  1  0  0  0
 60126  1  0  0  0
 60127  1  0  0  0
 61128  1  0  0  0
 61129  1  0  0  0
 61130  1  0  0  0
 62131  1  0  0  0
 62132  1  0  0  0
 62133  1  0  0  0
 63 65  1  0  0  0
 63134  1  0  0  0
 63135  1  0  0  0
 63136  1  0  0  0
 64137  1  0  0  0
 65138  1  0  0  0
 68 77  1  0  0  0
 71 72  1  0  0  0
 71 73  1  0  0  0
 71139  1  0  0  0
 71140  1  0  0  0
 72 74  1  0  0  0
 72141  1  0  0  0
 72142  1  0  0  0
 73 79  1  0  0  0
 73143  1  0  0  0
 73144  1  0  0  0
 74 75  1  0  0  0
 74 79  1  0  0  0
 74145  1  0  0  0
 75 78  1  0  0  0
 75146  1  0  0  0
 75147  1  0  0  0
 76 77  1  0  0  0
 76148  1  0  0  0
 76149  1  0  0  0
 76 79  1  0  0  0
 77150  1  0  0  0
 77151  1  0  0  0
 78152  1  0  0  0
 79153  1  0  0  0
M  CHG  1  79   1
M  ISO  4   1 100  68 101  77 101  78 100
M  END
> <chiral flag>
0

> <version>
0

> <s_m_source_file>
/data/baiqing/PycharmProjects/Reinvent-master-3.2/result/LINK_invent/BTK/process_docking_weight1_custom_product_contain_oxygen_bond_distance_aromatic_linkinvent_7_9_3/rearranged_h_0007.sdf

> <i_m_source_file_index>
16

> <r_mmod_Potential_Energy-OPLS-2005>
1433.08959960938

> <r_mmod_Stretch_Energy-OPLS-2005>
602.255981445312

> <r_mmod_Bend_Energy-OPLS-2005>
687.591064453125

> <r_mmod_Torsional_Energy-OPLS-2005>
291.509338378906

> <r_mmod_Improper_Torsional_Energy-OPLS-2005>
4.98410320281982

> <r_mmod_Van_der_Waal_Energy-OPLS-2005>
106.429969787598

> <r_mmod_Electrostatic_Energy-OPLS-2005>
-250.789398193359

> <r_mmod_Solvation_Energy-OPLS-2005>
-453.558227539062

> <b_mmod_Minimization_Converged-OPLS-2005>
0

> <r_mmod_RMS_Derivative-OPLS-2005>
6.59862899780273

$$$$
16
                    3D
 Structure written by MMmdl.
155164  0  0  1  0            999 V2000
  -30.5106  -14.9569   20.4606 C   0  0  0  0  0  0
  -30.4530  -12.5973   19.5062 C   0  0  0  0  0  0
  -29.5290  -12.5429   18.2653 C   0  0  0  0  0  0
  -28.0626  -12.3217   18.6806 C   0  0  0  0  0  0
  -27.6378  -13.2440   19.8497 C   0  0  2  0  0  0
  -28.6761  -13.2442   20.9921 C   0  0  0  0  0  0
  -25.2478  -13.8177   20.5684 C   0  0  0  0  0  0
  -24.1793  -13.0422   20.9218 C   0  0  0  0  0  0
  -24.6404  -11.6910   20.8757 C   0  0  0  0  0  0
  -23.9084  -10.4289   21.0409 C   0  0  0  0  0  0
  -24.3627   -9.4203   21.9186 C   0  0  0  0  0  0
  -23.6297   -8.2243   22.0754 C   0  0  0  0  0  0
  -22.4278   -8.0282   21.3544 C   0  0  0  0  0  0
  -21.9913   -9.0259   20.4650 C   0  0  0  0  0  0
  -22.7255  -10.2130   20.3063 C   0  0  0  0  0  0
  -21.6857   -6.0741   22.5276 C   0  0  0  0  0  0
  -21.4016   -6.5640   23.8209 C   0  0  0  0  0  0
  -21.3664   -5.6790   24.9168 C   0  0  0  0  0  0
  -21.6042   -4.3056   24.7221 C   0  0  0  0  0  0
  -21.8820   -3.8153   23.4345 C   0  0  0  0  0  0
  -21.9197   -4.6967   22.3399 C   0  0  0  0  0  0
  -22.7822  -13.5214   21.1873 C   0  0  0  0  0  0
  -22.1669   -4.2158   21.0975 F   0  0  0  0  0  0
  -21.5619   -3.4538   25.7738 F   0  0  0  0  0  0
  -29.9598  -13.6733   20.4153 N   0  0  0  0  0  0
  -26.2922  -12.9419   20.3267 N   0  0  0  0  0  0
  -25.9337  -11.6554   20.5743 N   0  0  0  0  0  0
  -22.0461  -12.8216   22.0432 N   0  0  0  0  0  0
  -25.4128  -15.1883   20.4047 N   0  0  0  0  0  0
  -31.6862  -15.0873   20.1030 O   0  0  0  0  0  0
  -21.6636   -6.8887   21.4244 O   0  0  0  0  0  0
  -22.3511  -14.5528   20.6725 O   0  0  0  0  0  0
  -24.6437  -31.8444   23.1893 C   0  0  0  0  0  0
  -25.9206  -32.4704   23.8282 C   0  0  1  0  0  0
  -27.2205  -27.1331   20.1540 C   0  0  0  0  0  0
  -25.5953  -33.8509   24.2201 N   0  0  0  0  0  0
  -23.4475  -30.4645   21.5341 C   0  0  2  0  0  0
  -24.8991  -28.8937   20.1112 C   0  0  0  0  0  0
  -22.7572  -29.4553   22.4856 C   0  0  0  0  0  0
  -18.0313  -28.1393   22.8485 C   0  0  0  0  0  0
  -24.1484  -36.7251   23.2632 C   0  0  0  0  0  0
  -26.0049  -30.7192   21.3894 C   0  0  0  0  0  0
  -26.0775  -29.3305   20.7295 C   0  0  0  0  0  0
  -27.2383  -28.4661   20.7354 C   0  0  0  0  0  0
  -26.0159  -26.8065   19.4901 C   0  0  0  0  0  0
  -24.8808  -27.6443   19.4776 C   0  0  0  0  0  0
  -23.6762  -29.7957   20.1533 C   0  0  0  0  0  0
  -25.4113  -36.3037   24.0314 C   0  0  1  0  0  0
  -20.5927  -28.3723   23.1230 C   0  0  2  0  0  0
  -20.6799  -26.9423   22.5397 C   0  0  0  0  0  0
  -19.5765  -26.6388   21.5206 C   0  0  0  0  0  0
  -18.1951  -26.7934   22.1628 C   0  0  0  0  0  0
  -19.1568  -28.8873   23.2855 C   0  0  0  0  0  0
  -18.9479  -30.1468   23.8890 C   0  0  0  0  0  0
  -17.6474  -30.6590   24.0555 C   0  0  0  0  0  0
  -25.9069  -34.9416   23.5061 C   0  0  0  0  0  0
  -16.5370  -29.9080   23.6331 C   0  0  0  0  0  0
  -16.7295  -28.6493   23.0367 C   0  0  0  0  0  0
  -26.4530  -31.6570   25.0721 C   0  0  0  0  0  0
  -25.3712  -31.3759   26.1413 C   0  0  0  0  0  0
  -27.0397  -30.2969   24.6295 C   0  0  0  0  0  0
  -27.6059  -32.4338   25.7511 C   0  0  0  0  0  0
  -27.5589  -37.1760   24.8450 C   0  0  0  0  0  0
  -21.4268  -29.3050   22.3603 N   0  0  0  0  0  0
  -26.4275  -37.3756   23.9428 N   0  0  0  0  0  0
  -24.7181  -31.0304   22.0926 N   0  0  0  0  0  0
  -23.4215  -28.8098   23.3007 O   0  0  0  0  0  0
  -28.2664  -26.1357   20.2373 O   0  0  0  0  0  0
  -26.5654  -34.8908   22.4641 O   0  0  0  0  0  0
  -23.5553  -32.1318   23.7108 O   0  0  0  0  0  0
  -30.0882  -20.0092   19.9655 C   0  0  0  0  0  0
  -30.3639  -18.5630   20.0067 C   0  0  0  0  0  0
  -28.2644  -19.6867   21.4001 C   0  0  0  0  0  0
  -28.5390  -18.2646   21.4660 C   0  0  0  0  0  0
  -28.9938  -20.6677   20.6442 C   0  0  0  0  0  0
  -29.5871  -17.5925   20.7433 C   0  0  0  0  0  0
  -29.0348  -23.3865   20.1457 C   0  0  0  0  0  0
  -26.9504  -24.0354   21.0694 C   0  0  0  0  0  0
  -27.2010  -22.4976   21.1506 C   0  0  0  0  0  0
  -27.9526  -24.6113   20.0698 C   0  0  1  0  0  0
  -27.6428  -17.4409   22.3760 C   0  0  0  0  0  0
  -28.5281  -22.1523   20.6054 N   0  0  0  0  0  0
  -29.6669  -16.0504   20.7954 N   0  0  0  0  0  0
  -30.2046  -23.5504   19.7839 O   0  0  0  0  0  0
  -31.4820  -12.7780   19.1920 H   0  0  0  0  0  0
  -30.4637  -11.6369   20.0240 H   0  0  0  0  0  0
  -29.8476  -11.7468   17.5910 H   0  0  0  0  0  0
  -29.6158  -13.4741   17.7028 H   0  0  0  0  0  0
  -27.9649  -11.2797   18.9886 H   0  0  0  0  0  0
  -27.3989  -12.4552   17.8260 H   0  0  0  0  0  0
  -27.6094  -14.2507   19.4320 H   0  0  0  0  0  0
  -28.7603  -12.2554   21.4452 H   0  0  0  0  0  0
  -28.3639  -13.9170   21.7925 H   0  0  0  0  0  0
  -25.2762   -9.5674   22.4774 H   0  0  0  0  0  0
  -24.0000   -7.4635   22.7476 H   0  0  0  0  0  0
  -21.0838   -8.8795   19.8959 H   0  0  0  0  0  0
  -22.3717  -10.9677   19.6184 H   0  0  0  0  0  0
  -21.2008   -7.6148   23.9714 H   0  0  0  0  0  0
  -21.1480   -6.0519   25.9070 H   0  0  0  0  0  0
  -22.0592   -2.7614   23.2839 H   0  0  0  0  0  0
  -22.4071  -11.9876   22.4824 H   0  0  0  0  0  0
  -21.1080  -13.1249   22.2633 H   0  0  0  0  0  0
  -24.6442  -15.8393   20.5198 H   0  0  0  0  0  0
  -26.2491  -15.6248   20.0412 H   0  0  0  0  0  0
  -26.7274  -32.5326   23.1017 H   0  0  0  0  0  0
  -25.0101  -33.9621   25.0345 H   0  0  0  0  0  0
  -22.7493  -31.2899   21.3797 H   0  0  0  0  0  0
  -23.3751  -35.9579   23.3296 H   0  0  0  0  0  0
  -24.3579  -36.8867   22.2047 H   0  0  0  0  0  0
  -23.7224  -37.6442   23.6660 H   0  0  0  0  0  0
  -26.1599  -31.4750   20.6180 H   0  0  0  0  0  0
  -26.8743  -30.7709   22.0334 H   0  0  0  0  0  0
  -28.1326  -28.7949   21.2457 H   0  0  0  0  0  0
  -25.9067  -25.8563   18.9917 H   0  0  0  0  0  0
  -23.9809  -27.3024   18.9854 H   0  0  0  0  0  0
  -23.8167  -30.5697   19.3979 H   0  0  0  0  0  0
  -22.7916  -29.2380   19.8419 H   0  0  0  0  0  0
  -25.1286  -36.1864   25.0800 H   0  0  0  0  0  0
  -21.0024  -28.3311   24.1350 H   0  0  0  0  0  0
  -20.5680  -26.2332   23.3614 H   0  0  0  0  0  0
  -21.6667  -26.7426   22.1197 H   0  0  0  0  0  0
  -19.6914  -25.6289   21.1257 H   0  0  0  0  0  0
  -19.6691  -27.3185   20.6723 H   0  0  0  0  0  0
  -17.4210  -26.6676   21.4040 H   0  0  0  0  0  0
  -18.0352  -26.0085   22.9029 H   0  0  0  0  0  0
  -19.7954  -30.7282   24.2270 H   0  0  0  0  0  0
  -17.5026  -31.6280   24.5145 H   0  0  0  0  0  0
  -15.5364  -30.2970   23.7659 H   0  0  0  0  0  0
  -15.8705  -28.0790   22.7107 H   0  0  0  0  0  0
  -24.5928  -30.7053   25.7750 H   0  0  0  0  0  0
  -24.8863  -32.2936   26.4749 H   0  0  0  0  0  0
  -25.8002  -30.9019   27.0247 H   0  0  0  0  0  0
  -26.3018  -29.6700   24.1279 H   0  0  0  0  0  0
  -27.3986  -29.7258   25.4866 H   0  0  0  0  0  0
  -27.8936  -30.4208   23.9634 H   0  0  0  0  0  0
  -27.2644  -33.3637   26.2069 H   0  0  0  0  0  0
  -28.3888  -32.6894   25.0360 H   0  0  0  0  0  0
  -28.0720  -31.8487   26.5446 H   0  0  0  0  0  0
  -28.2538  -38.0125   24.7608 H   0  0  0  0  0  0
  -28.1154  -36.2667   24.6133 H   0  0  0  0  0  0
  -27.2339  -37.1239   25.8855 H   0  0  0  0  0  0
  -20.9469  -29.8758   21.6786 H   0  0  0  0  0  0
  -26.0142  -38.2804   24.1502 H   0  0  0  0  0  0
  -30.7406  -20.6208   19.3576 H   0  0  0  0  0  0
  -31.1962  -18.1947   19.4229 H   0  0  0  0  0  0
  -27.4185  -20.0267   21.9781 H   0  0  0  0  0  0
  -27.1032  -24.4943   22.0470 H   0  0  0  0  0  0
  -25.9204  -24.2443   20.7790 H   0  0  0  0  0  0
  -26.4451  -21.9608   20.5749 H   0  0  0  0  0  0
  -27.1132  -22.1811   22.1908 H   0  0  0  0  0  0
  -27.5546  -24.4913   19.0630 H   0  0  0  0  0  0
  -27.0258  -18.0723   23.0170 H   0  0  0  0  0  0
  -28.2359  -16.8028   23.0316 H   0  0  0  0  0  0
  -26.9788  -16.8118   21.7885 H   0  0  0  0  0  0
  -28.8081  -15.6674   21.1589 H   0  0  0  0  0  0
  1 25  1  0  0  0
  1 30  2  0  0  0
  1 83  1  0  0  0
  2  3  1  0  0  0
  2 25  1  0  0  0
  2 85  1  0  0  0
  2 86  1  0  0  0
  3  4  1  0  0  0
  3 87  1  0  0  0
  3 88  1  0  0  0
  4  5  1  0  0  0
  4 89  1  0  0  0
  4 90  1  0  0  0
  5  6  1  0  0  0
  5 26  1  0  0  0
  5 91  1  0  0  0
  6 25  1  0  0  0
  6 92  1  0  0  0
  6 93  1  0  0  0
  7  8  2  0  0  0
  7 26  1  0  0  0
  7 29  1  0  0  0
  8  9  1  0  0  0
  8 22  1  0  0  0
  9 10  1  0  0  0
  9 27  2  0  0  0
 10 11  2  0  0  0
 10 15  1  0  0  0
 11 12  1  0  0  0
 11 94  1  0  0  0
 12 13  2  0  0  0
 12 95  1  0  0  0
 13 14  1  0  0  0
 13 31  1  0  0  0
 14 15  2  0  0  0
 14 96  1  0  0  0
 15 97  1  0  0  0
 16 17  2  0  0  0
 16 21  1  0  0  0
 16 31  1  0  0  0
 17 18  1  0  0  0
 17 98  1  0  0  0
 18 19  2  0  0  0
 18 99  1  0  0  0
 19 20  1  0  0  0
 19 24  1  0  0  0
 20 21  2  0  0  0
 20100  1  0  0  0
 21 23  1  0  0  0
 22 28  1  0  0  0
 22 32  2  0  0  0
 26 27  1  0  0  0
 28101  1  0  0  0
 28102  1  0  0  0
 29103  1  0  0  0
 29104  1  0  0  0
 33 34  1  0  0  0
 33 66  1  0  0  0
 33 70  2  0  0  0
 34 36  1  0  0  0
 34 59  1  0  0  0
 34105  1  0  0  0
 35 44  2  0  0  0
 35 45  1  0  0  0
 35 68  1  0  0  0
 36 56  1  0  0  0
 36106  1  0  0  0
 37 39  1  0  0  0
 37 47  1  0  0  0
 37 66  1  0  0  0
 37107  1  0  0  0
 38 43  2  0  0  0
 38 46  1  0  0  0
 38 47  1  0  0  0
 39 64  1  0  0  0
 39 67  2  0  0  0
 40 52  1  0  0  0
 40 53  2  0  0  0
 40 58  1  0  0  0
 41108  1  0  0  0
 41109  1  0  0  0
 41110  1  0  0  0
 41 48  1  0  0  0
 42 43  1  0  0  0
 42 66  1  0  0  0
 42111  1  0  0  0
 42112  1  0  0  0
 43 44  1  0  0  0
 44113  1  0  0  0
 45 46  2  0  0  0
 45114  1  0  0  0
 46115  1  0  0  0
 47116  1  0  0  0
 47117  1  0  0  0
 48 56  1  0  0  0
 48 65  1  0  0  0
 48118  1  0  0  0
 49 50  1  0  0  0
 49 53  1  0  0  0
 49 64  1  0  0  0
 49119  1  0  0  0
 50 51  1  0  0  0
 50120  1  0  0  0
 50121  1  0  0  0
 51 52  1  0  0  0
 51122  1  0  0  0
 51123  1  0  0  0
 52124  1  0  0  0
 52125  1  0  0  0
 53 54  1  0  0  0
 54 55  2  0  0  0
 54126  1  0  0  0
 55 57  1  0  0  0
 55127  1  0  0  0
 56 69  2  0  0  0
 57 58  2  0  0  0
 57128  1  0  0  0
 58129  1  0  0  0
 59 60  1  0  0  0
 59 61  1  0  0  0
 59 62  1  0  0  0
 60130  1  0  0  0
 60131  1  0  0  0
 60132  1  0  0  0
 61133  1  0  0  0
 61134  1  0  0  0
 61135  1  0  0  0
 62136  1  0  0  0
 62137  1  0  0  0
 62138  1  0  0  0
 63 65  1  0  0  0
 63139  1  0  0  0
 63140  1  0  0  0
 63141  1  0  0  0
 64142  1  0  0  0
 65143  1  0  0  0
 68 80  1  0  0  0
 71 72  2  0  0  0
 71 75  1  0  0  0
 71144  1  0  0  0
 72 76  1  0  0  0
 72145  1  0  0  0
 73 74  1  0  0  0
 73 75  2  0  0  0
 73146  1  0  0  0
 74 76  2  0  0  0
 74 81  1  0  0  0
 75 82  1  0  0  0
 76 83  1  0  0  0
 77 80  1  0  0  0
 77 82  1  0  0  0
 77 84  2  0  0  0
 78 79  1  0  0  0
 78 80  1  0  0  0
 78147  1  0  0  0
 78148  1  0  0  0
 79 82  1  0  0  0
 79149  1  0  0  0
 79150  1  0  0  0
 80151  1  0  0  0
 81152  1  0  0  0
 81153  1  0  0  0
 81154  1  0  0  0
 83155  1  0  0  0
M  ISO  4   1 100  68 101  80 101  83 100
M  END
> <chiral flag>
0

> <version>
0

> <s_m_source_file>
/data/baiqing/PycharmProjects/Reinvent-master-3.2/result/LINK_invent/BTK/process_docking_weight1_custom_product_contain_oxygen_bond_distance_aromatic_linkinvent_7_9_3/rearranged_h_0007.sdf

> <i_m_source_file_index>
17

> <r_mmod_Potential_Energy-OPLS-2005>
568.242553710938

> <r_mmod_Stretch_Energy-OPLS-2005>
237.766296386719

> <r_mmod_Bend_Energy-OPLS-2005>
311.376708984375

> <r_mmod_Torsional_Energy-OPLS-2005>
255.191955566406

> <r_mmod_Improper_Torsional_Energy-OPLS-2005>
3.2741596698761

> <r_mmod_Van_der_Waal_Energy-OPLS-2005>
130.791000366211

> <r_mmod_Electrostatic_Energy-OPLS-2005>
-338.673065185547

> <r_mmod_Solvation_Energy-OPLS-2005>
-230.13525390625

> <b_mmod_Minimization_Converged-OPLS-2005>
0

> <r_mmod_RMS_Derivative-OPLS-2005>
2.19069123268127

$$$$
17
                    3D
 Structure written by MMmdl.
150158  0  0  1  0            999 V2000
  -30.4148  -15.4922   20.3454 C   0  0  0  0  0  0
  -30.4110  -12.9824   19.5307 C   0  0  0  0  0  0
  -29.5316  -12.6171   18.3075 C   0  0  0  0  0  0
  -28.0998  -12.2931   18.7540 C   0  0  0  0  0  0
  -27.5933  -13.3012   19.8128 C   0  0  2  0  0  0
  -28.6164  -13.6083   20.9311 C   0  0  0  0  0  0
  -25.2318  -13.8297   20.5816 C   0  0  0  0  0  0
  -24.1698  -13.0448   20.9295 C   0  0  0  0  0  0
  -24.6389  -11.6955   20.8780 C   0  0  0  0  0  0
  -23.9103  -10.4296   21.0409 C   0  0  0  0  0  0
  -24.3645   -9.4206   21.9185 C   0  0  0  0  0  0
  -23.6310   -8.2245   22.0753 C   0  0  0  0  0  0
  -22.4288   -8.0288   21.3547 C   0  0  0  0  0  0
  -21.9934   -9.0264   20.4647 C   0  0  0  0  0  0
  -22.7274  -10.2138   20.3057 C   0  0  0  0  0  0
  -21.6857   -6.0739   22.5278 C   0  0  0  0  0  0
  -21.4020   -6.5642   23.8212 C   0  0  0  0  0  0
  -21.3661   -5.6795   24.9175 C   0  0  0  0  0  0
  -21.6045   -4.3057   24.7224 C   0  0  0  0  0  0
  -21.8818   -3.8148   23.4345 C   0  0  0  0  0  0
  -21.9193   -4.6965   22.3401 C   0  0  0  0  0  0
  -22.7712  -13.5178   21.1930 C   0  0  0  0  0  0
  -22.1660   -4.2152   21.0978 F   0  0  0  0  0  0
  -21.5625   -3.4541   25.7736 F   0  0  0  0  0  0
  -29.8063  -14.1788   20.2668 N   0  0  0  0  0  0
  -26.2749  -12.9614   20.3259 N   0  0  0  0  0  0
  -25.9332  -11.6691   20.5733 N   0  0  0  0  0  0
  -22.0377  -12.8149   22.0478 N   0  0  0  0  0  0
  -25.3945  -15.2037   20.4269 N   0  0  0  0  0  0
  -31.6422  -15.3537   20.1831 O   0  0  0  0  0  0
  -21.6648   -6.8887   21.4242 O   0  0  0  0  0  0
  -22.3392  -14.5479   20.6769 O   0  0  0  0  0  0
  -24.6761  -31.8082   23.1573 C   0  0  0  0  0  0
  -25.9378  -32.4506   23.8095 C   0  0  1  0  0  0
  -27.2183  -26.7801   20.2035 C   0  0  0  0  0  0
  -25.5988  -33.8328   24.1988 N   0  0  0  0  0  0
  -23.4981  -30.4133   21.5094 C   0  0  2  0  0  0
  -24.9534  -28.7703   20.1125 C   0  0  0  0  0  0
  -22.7733  -29.4356   22.4730 C   0  0  0  0  0  0
  -18.0336  -28.1414   22.8464 C   0  0  0  0  0  0
  -24.1495  -36.7174   23.2652 C   0  0  0  0  0  0
  -26.0742  -30.5659   21.4102 C   0  0  0  0  0  0
  -26.1392  -29.1397   20.7580 C   0  0  0  0  0  0
  -27.2594  -28.1690   20.7749 C   0  0  0  0  0  0
  -26.0047  -26.6016   19.4972 C   0  0  0  0  0  0
  -24.9207  -27.5264   19.4589 C   0  0  0  0  0  0
  -23.7467  -29.7168   20.1409 C   0  0  0  0  0  0
  -25.4141  -36.2918   24.0287 C   0  0  1  0  0  0
  -20.5967  -28.3770   23.1160 C   0  0  2  0  0  0
  -20.6802  -26.9438   22.5404 C   0  0  0  0  0  0
  -19.5774  -26.6372   21.5219 C   0  0  0  0  0  0
  -18.1959  -26.7944   22.1626 C   0  0  0  0  0  0
  -19.1600  -28.8916   23.2795 C   0  0  0  0  0  0
  -18.9506  -30.1501   23.8837 C   0  0  0  0  0  0
  -17.6496  -30.6599   24.0554 C   0  0  0  0  0  0
  -25.9116  -34.9307   23.4971 C   0  0  0  0  0  0
  -16.5387  -29.9082   23.6346 C   0  0  0  0  0  0
  -16.7317  -28.6504   23.0366 C   0  0  0  0  0  0
  -26.4578  -31.6511   25.0687 C   0  0  0  0  0  0
  -25.3662  -31.3808   26.1315 C   0  0  0  0  0  0
  -27.0500  -30.2857   24.6532 C   0  0  0  0  0  0
  -27.6035  -32.4360   25.7504 C   0  0  0  0  0  0
  -27.5564  -37.1745   24.8468 C   0  0  0  0  0  0
  -21.4386  -29.3035   22.3489 N   0  0  0  0  0  0
  -26.4274  -37.3670   23.9406 N   0  0  0  0  0  0
  -24.7720  -30.9605   22.0785 N   0  0  0  0  0  0
  -23.4217  -28.7949   23.3039 O   0  0  0  0  0  0
  -28.1927  -25.6027   20.3084 O   0  0  0  0  0  0
  -26.5749  -34.8871   22.4582 O   0  0  0  0  0  0
  -23.5798  -32.1121   23.6578 O   0  0  0  0  0  0
  -28.5071  -17.7105   20.5805 C   0  0  0  0  0  0
  -30.5849  -18.1983   19.7660 C   0  0  0  0  0  0
  -28.2678  -19.4130   20.8770 C   0  0  0  0  0  0
  -30.3409  -19.8585   20.1141 C   0  0  0  0  0  0
  -28.9045  -22.2980   20.5810 C   0  0  0  0  0  0
  -28.0493  -23.9000   20.0444 C   0  0  0  0  0  0
  -29.8418  -16.9299   20.3046 N   0  0  0  0  0  0
  -28.9707  -20.6109   20.1293 N   0  3  0  0  0  0
  -31.4189  -13.1938   19.1716 H   0  0  0  0  0  0
  -30.5243  -12.1258   20.1973 H   0  0  0  0  0  0
  -29.9583  -11.7722   17.7652 H   0  0  0  0  0  0
  -29.5159  -13.4558   17.6099 H   0  0  0  0  0  0
  -28.1069  -11.2901   19.1826 H   0  0  0  0  0  0
  -27.4261  -12.2575   17.8971 H   0  0  0  0  0  0
  -27.4652  -14.2308   19.2561 H   0  0  0  0  0  0
  -28.8479  -12.7237   21.5263 H   0  0  0  0  0  0
  -28.2077  -14.3485   21.6208 H   0  0  0  0  0  0
  -25.2783   -9.5681   22.4771 H   0  0  0  0  0  0
  -24.0011   -7.4637   22.7477 H   0  0  0  0  0  0
  -21.0860   -8.8794   19.8954 H   0  0  0  0  0  0
  -22.3731  -10.9682   19.6172 H   0  0  0  0  0  0
  -21.2019   -7.6152   23.9718 H   0  0  0  0  0  0
  -21.1482   -6.0523   25.9079 H   0  0  0  0  0  0
  -22.0594   -2.7609   23.2843 H   0  0  0  0  0  0
  -22.4019  -11.9822   22.4865 H   0  0  0  0  0  0
  -21.0990  -13.1150   22.2692 H   0  0  0  0  0  0
  -24.6241  -15.8535   20.5418 H   0  0  0  0  0  0
  -26.2417  -15.6450   20.0948 H   0  0  0  0  0  0
  -26.7457  -32.4999   23.0809 H   0  0  0  0  0  0
  -25.0055  -33.9378   25.0086 H   0  0  0  0  0  0
  -22.8191  -31.2487   21.3262 H   0  0  0  0  0  0
  -23.3767  -35.9493   23.3276 H   0  0  0  0  0  0
  -24.3564  -36.8867   22.2074 H   0  0  0  0  0  0
  -23.7247  -37.6343   23.6746 H   0  0  0  0  0  0
  -26.2712  -31.2963   20.6245 H   0  0  0  0  0  0
  -26.9279  -30.6288   22.0728 H   0  0  0  0  0  0
  -28.1513  -28.4530   21.3153 H   0  0  0  0  0  0
  -25.8532  -25.6561   18.9966 H   0  0  0  0  0  0
  -24.0243  -27.2375   18.9273 H   0  0  0  0  0  0
  -23.9164  -30.4800   19.3805 H   0  0  0  0  0  0
  -22.8527  -29.1803   19.8184 H   0  0  0  0  0  0
  -25.1347  -36.1692   25.0778 H   0  0  0  0  0  0
  -21.0056  -28.3389   24.1284 H   0  0  0  0  0  0
  -20.5670  -26.2395   23.3660 H   0  0  0  0  0  0
  -21.6663  -26.7387   22.1219 H   0  0  0  0  0  0
  -19.6928  -25.6266   21.1289 H   0  0  0  0  0  0
  -19.6709  -27.3149   20.6721 H   0  0  0  0  0  0
  -17.4227  -26.6693   21.4029 H   0  0  0  0  0  0
  -18.0345  -26.0097   22.9033 H   0  0  0  0  0  0
  -19.7980  -30.7335   24.2177 H   0  0  0  0  0  0
  -17.5045  -31.6270   24.5172 H   0  0  0  0  0  0
  -15.5383  -30.2966   23.7696 H   0  0  0  0  0  0
  -15.8720  -28.0798   22.7115 H   0  0  0  0  0  0
  -24.5867  -30.7134   25.7620 H   0  0  0  0  0  0
  -24.8828  -32.3024   26.4565 H   0  0  0  0  0  0
  -25.7857  -30.9089   27.0209 H   0  0  0  0  0  0
  -26.3195  -29.6485   24.1536 H   0  0  0  0  0  0
  -27.3968  -29.7285   25.5243 H   0  0  0  0  0  0
  -27.9162  -30.3998   24.0013 H   0  0  0  0  0  0
  -27.2573  -33.3718   26.1904 H   0  0  0  0  0  0
  -28.3938  -32.6831   25.0404 H   0  0  0  0  0  0
  -28.0602  -31.8612   26.5570 H   0  0  0  0  0  0
  -28.2558  -38.0061   24.7505 H   0  0  0  0  0  0
  -28.1083  -36.2584   24.6306 H   0  0  0  0  0  0
  -27.2279  -37.1398   25.8870 H   0  0  0  0  0  0
  -20.9672  -29.8709   21.6583 H   0  0  0  0  0  0
  -26.0107  -38.2723   24.1408 H   0  0  0  0  0  0
  -27.8886  -17.4764   19.7135 H   0  0  0  0  0  0
  -28.0223  -17.1782   21.3995 H   0  0  0  0  0  0
  -31.6441  -18.0140   19.9484 H   0  0  0  0  0  0
  -30.4908  -18.1107   18.6828 H   0  0  0  0  0  0
  -28.4967  -19.5651   21.9330 H   0  0  0  0  0  0
  -27.1964  -19.6045   20.8119 H   0  0  0  0  0  0
  -30.9825  -20.4214   19.4362 H   0  0  0  0  0  0
  -30.7806  -20.0318   21.0978 H   0  0  0  0  0  0
  -28.7760  -22.2650   21.6623 H   0  0  0  0  0  0
  -29.9520  -22.5739   20.4635 H   0  0  0  0  0  0
  -26.9983  -23.7157   20.2660 H   0  0  0  0  0  0
  -28.0914  -23.8508   18.9566 H   0  0  0  0  0  0
  -28.6395  -20.5811   19.1761 H   0  0  0  0  0  0
  1 25  1  0  0  0
  1 30  2  0  0  0
  1 77  1  0  0  0
  2  3  1  0  0  0
  2 25  1  0  0  0
  2 79  1  0  0  0
  2 80  1  0  0  0
  3  4  1  0  0  0
  3 81  1  0  0  0
  3 82  1  0  0  0
  4  5  1  0  0  0
  4 83  1  0  0  0
  4 84  1  0  0  0
  5  6  1  0  0  0
  5 26  1  0  0  0
  5 85  1  0  0  0
  6 25  1  0  0  0
  6 86  1  0  0  0
  6 87  1  0  0  0
  7  8  2  0  0  0
  7 26  1  0  0  0
  7 29  1  0  0  0
  8  9  1  0  0  0
  8 22  1  0  0  0
  9 10  1  0  0  0
  9 27  2  0  0  0
 10 11  2  0  0  0
 10 15  1  0  0  0
 11 12  1  0  0  0
 11 88  1  0  0  0
 12 13  2  0  0  0
 12 89  1  0  0  0
 13 14  1  0  0  0
 13 31  1  0  0  0
 14 15  2  0  0  0
 14 90  1  0  0  0
 15 91  1  0  0  0
 16 17  2  0  0  0
 16 21  1  0  0  0
 16 31  1  0  0  0
 17 18  1  0  0  0
 17 92  1  0  0  0
 18 19  2  0  0  0
 18 93  1  0  0  0
 19 20  1  0  0  0
 19 24  1  0  0  0
 20 21  2  0  0  0
 20 94  1  0  0  0
 21 23  1  0  0  0
 22 28  1  0  0  0
 22 32  2  0  0  0
 26 27  1  0  0  0
 28 95  1  0  0  0
 28 96  1  0  0  0
 29 97  1  0  0  0
 29 98  1  0  0  0
 33 34  1  0  0  0
 33 66  1  0  0  0
 33 70  2  0  0  0
 34 36  1  0  0  0
 34 59  1  0  0  0
 34 99  1  0  0  0
 35 44  2  0  0  0
 35 45  1  0  0  0
 35 68  1  0  0  0
 36 56  1  0  0  0
 36100  1  0  0  0
 37 39  1  0  0  0
 37 47  1  0  0  0
 37 66  1  0  0  0
 37101  1  0  0  0
 38 43  2  0  0  0
 38 46  1  0  0  0
 38 47  1  0  0  0
 39 64  1  0  0  0
 39 67  2  0  0  0
 40 52  1  0  0  0
 40 53  2  0  0  0
 40 58  1  0  0  0
 41102  1  0  0  0
 41103  1  0  0  0
 41104  1  0  0  0
 41 48  1  0  0  0
 42 43  1  0  0  0
 42 66  1  0  0  0
 42105  1  0  0  0
 42106  1  0  0  0
 43 44  1  0  0  0
 44107  1  0  0  0
 45 46  2  0  0  0
 45108  1  0  0  0
 46109  1  0  0  0
 47110  1  0  0  0
 47111  1  0  0  0
 48 56  1  0  0  0
 48 65  1  0  0  0
 48112  1  0  0  0
 49 50  1  0  0  0
 49 53  1  0  0  0
 49 64  1  0  0  0
 49113  1  0  0  0
 50 51  1  0  0  0
 50114  1  0  0  0
 50115  1  0  0  0
 51 52  1  0  0  0
 51116  1  0  0  0
 51117  1  0  0  0
 52118  1  0  0  0
 52119  1  0  0  0
 53 54  1  0  0  0
 54 55  2  0  0  0
 54120  1  0  0  0
 55 57  1  0  0  0
 55121  1  0  0  0
 56 69  2  0  0  0
 57 58  2  0  0  0
 57122  1  0  0  0
 58123  1  0  0  0
 59 60  1  0  0  0
 59 61  1  0  0  0
 59 62  1  0  0  0
 60124  1  0  0  0
 60125  1  0  0  0
 60126  1  0  0  0
 61127  1  0  0  0
 61128  1  0  0  0
 61129  1  0  0  0
 62130  1  0  0  0
 62131  1  0  0  0
 62132  1  0  0  0
 63 65  1  0  0  0
 63133  1  0  0  0
 63134  1  0  0  0
 63135  1  0  0  0
 64136  1  0  0  0
 65137  1  0  0  0
 68 76  1  0  0  0
 71 73  1  0  0  0
 71 77  1  0  0  0
 71138  1  0  0  0
 71139  1  0  0  0
 72 74  1  0  0  0
 72 77  1  0  0  0
 72140  1  0  0  0
 72141  1  0  0  0
 73 78  1  0  0  0
 73142  1  0  0  0
 73143  1  0  0  0
 74 78  1  0  0  0
 74144  1  0  0  0
 74145  1  0  0  0
 75 76  1  0  0  0
 75146  1  0  0  0
 75147  1  0  0  0
 75 78  1  0  0  0
 76148  1  0  0  0
 76149  1  0  0  0
 78150  1  0  0  0
M  CHG  1  78   1
M  ISO  4   1 100  68 101  76 101  77 100
M  END
> <chiral flag>
0

> <version>
0

> <s_m_source_file>
/data/baiqing/PycharmProjects/Reinvent-master-3.2/result/LINK_invent/BTK/process_docking_weight1_custom_product_contain_oxygen_bond_distance_aromatic_linkinvent_7_9_3/rearranged_h_0007.sdf

> <i_m_source_file_index>
18

> <r_mmod_Potential_Energy-OPLS-2005>
2069.70849609375

> <r_mmod_Stretch_Energy-OPLS-2005>
822.303466796875

> <r_mmod_Bend_Energy-OPLS-2005>
682.106689453125

> <r_mmod_Torsional_Energy-OPLS-2005>
364.669525146484

> <r_mmod_Improper_Torsional_Energy-OPLS-2005>
7.53518962860107

> <r_mmod_Van_der_Waal_Energy-OPLS-2005>
115.253486633301

> <r_mmod_Electrostatic_Energy-OPLS-2005>
-187.556671142578

> <r_mmod_Solvation_Energy-OPLS-2005>
-448.615417480469

> <b_mmod_Minimization_Converged-OPLS-2005>
0

> <r_mmod_RMS_Derivative-OPLS-2005>
0.569041132926941

$$$$
18
                    3D
 Structure written by MMmdl.
153161  0  0  1  0            999 V2000
  -30.5991  -14.7327   20.5140 C   0  0  0  0  0  0
  -30.4377  -12.4603   19.4597 C   0  0  0  0  0  0
  -29.4988  -12.5145   18.2338 C   0  0  0  0  0  0
  -28.0330  -12.3189   18.6610 C   0  0  0  0  0  0
  -27.6414  -13.2235   19.8559 C   0  0  2  0  0  0
  -28.6886  -13.1390   20.9886 C   0  0  0  0  0  0
  -25.2515  -13.8184   20.5685 C   0  0  0  0  0  0
  -24.1801  -13.0432   20.9225 C   0  0  0  0  0  0
  -24.6375  -11.6912   20.8795 C   0  0  0  0  0  0
  -23.9085  -10.4279   21.0434 C   0  0  0  0  0  0
  -24.3628   -9.4190   21.9207 C   0  0  0  0  0  0
  -23.6282   -8.2243   22.0769 C   0  0  0  0  0  0
  -22.4261   -8.0301   21.3574 C   0  0  0  0  0  0
  -21.9926   -9.0279   20.4679 C   0  0  0  0  0  0
  -22.7265  -10.2145   20.3067 C   0  0  0  0  0  0
  -21.6849   -6.0737   22.5273 C   0  0  0  0  0  0
  -21.4021   -6.5642   23.8206 C   0  0  0  0  0  0
  -21.3657   -5.6806   24.9181 C   0  0  0  0  0  0
  -21.6015   -4.3061   24.7246 C   0  0  0  0  0  0
  -21.8815   -3.8153   23.4377 C   0  0  0  0  0  0
  -21.9192   -4.6963   22.3419 C   0  0  0  0  0  0
  -22.7819  -13.5220   21.1885 C   0  0  0  0  0  0
  -22.1663   -4.2153   21.0991 F   0  0  0  0  0  0
  -21.5635   -3.4527   25.7754 F   0  0  0  0  0  0
  -29.9871  -13.5055   20.4078 N   0  0  0  0  0  0
  -26.2935  -12.9369   20.3321 N   0  0  0  0  0  0
  -25.9302  -11.6535   20.5816 N   0  0  0  0  0  0
  -22.0505  -12.8170   22.0445 N   0  0  0  0  0  0
  -25.4173  -15.1886   20.3969 N   0  0  0  0  0  0
  -31.7914  -14.8613   20.2198 O   0  0  0  0  0  0
  -21.6636   -6.8876   21.4245 O   0  0  0  0  0  0
  -22.3481  -14.5534   20.6787 O   0  0  0  0  0  0
  -24.6300  -31.8556   23.1996 C   0  0  0  0  0  0
  -25.9124  -32.4768   23.8345 C   0  0  1  0  0  0
  -27.2062  -27.2740   20.1357 C   0  0  0  0  0  0
  -25.5916  -33.8563   24.2260 N   0  0  0  0  0  0
  -23.4252  -30.4857   21.5389 C   0  0  2  0  0  0
  -24.8713  -28.9362   20.1061 C   0  0  0  0  0  0
  -22.7479  -29.4674   22.4851 C   0  0  0  0  0  0
  -18.0321  -28.1403   22.8422 C   0  0  0  0  0  0
  -24.1502  -36.7322   23.2638 C   0  0  0  0  0  0
  -25.9689  -30.7804   21.3711 C   0  0  0  0  0  0
  -26.0399  -29.3983   20.7274 C   0  0  0  0  0  0
  -27.2098  -28.5760   20.7402 C   0  0  0  0  0  0
  -26.0259  -26.8938   19.4599 C   0  0  0  0  0  0
  -24.8696  -27.6910   19.4623 C   0  0  0  0  0  0
  -23.6426  -29.8236   20.1524 C   0  0  0  0  0  0
  -25.4115  -36.3080   24.0325 C   0  0  1  0  0  0
  -20.5915  -28.3741   23.1264 C   0  0  2  0  0  0
  -20.6837  -26.9438   22.5451 C   0  0  0  0  0  0
  -19.5851  -26.6345   21.5219 C   0  0  0  0  0  0
  -18.1999  -26.7928   22.1607 C   0  0  0  0  0  0
  -19.1561  -28.8865   23.2856 C   0  0  0  0  0  0
  -18.9450  -30.1466   23.8894 C   0  0  0  0  0  0
  -17.6452  -30.6599   24.0528 C   0  0  0  0  0  0
  -25.9053  -34.9446   23.5091 C   0  0  0  0  0  0
  -16.5362  -29.9084   23.6296 C   0  0  0  0  0  0
  -16.7304  -28.6513   23.0293 C   0  0  0  0  0  0
  -26.4502  -31.6584   25.0726 C   0  0  0  0  0  0
  -25.3726  -31.3722   26.1443 C   0  0  0  0  0  0
  -27.0334  -30.3009   24.6174 C   0  0  0  0  0  0
  -27.6080  -32.4276   25.7500 C   0  0  0  0  0  0
  -27.5568  -37.1826   24.8455 C   0  0  0  0  0  0
  -21.4186  -29.3099   22.3600 N   0  0  0  0  0  0
  -26.4282  -37.3782   23.9397 N   0  0  0  0  0  0
  -24.6940  -31.0582   22.0935 N   0  0  0  0  0  0
  -23.4194  -28.8171   23.2906 O   0  0  0  0  0  0
  -28.2834  -26.3670   20.1753 O   0  0  0  0  0  0
  -26.5639  -34.8908   22.4671 O   0  0  0  0  0  0
  -23.5461  -32.1340   23.7313 O   0  0  0  0  0  0
  -30.8468  -18.8314   22.7451 C   0  0  0  0  0  0
  -30.3276  -19.9348   22.0356 C   0  0  0  0  0  0
  -30.7154  -17.5138   22.2544 C   0  0  0  0  0  0
  -29.6377  -19.7635   20.8167 C   0  0  0  0  0  0
  -30.0268  -17.2420   21.0500 C   0  0  0  0  0  0
  -29.4751  -18.3931   20.3528 C   0  0  0  0  0  0
  -29.2231  -21.0624   19.9936 C   0  0  0  0  0  0
  -28.9090  -23.7073   20.0752 C   0  0  0  0  0  0
  -27.9916  -24.9416   20.5662 C   0  0  0  0  0  0
  -29.7719  -15.8312   20.6775 N   0  0  0  0  0  0
  -28.6694  -22.3100   20.6935 N   0  3  0  0  0  0
  -28.7874  -18.1765   19.2064 F   0  0  0  0  0  0
  -31.4687  -12.6138   19.1407 H   0  0  0  0  0  0
  -30.4151  -11.4759   19.9300 H   0  0  0  0  0  0
  -29.7790  -11.7538   17.5049 H   0  0  0  0  0  0
  -29.6054  -13.4773   17.7316 H   0  0  0  0  0  0
  -27.9184  -11.2701   18.9394 H   0  0  0  0  0  0
  -27.3572  -12.4900   17.8221 H   0  0  0  0  0  0
  -27.6403  -14.2471   19.4790 H   0  0  0  0  0  0
  -28.7292  -12.1372   21.4161 H   0  0  0  0  0  0
  -28.4246  -13.8064   21.8108 H   0  0  0  0  0  0
  -25.2773   -9.5630   22.4795 H   0  0  0  0  0  0
  -23.9996   -7.4606   22.7450 H   0  0  0  0  0  0
  -21.0882   -8.8778   19.8964 H   0  0  0  0  0  0
  -22.3731  -10.9689   19.6179 H   0  0  0  0  0  0
  -21.2018   -7.6156   23.9693 H   0  0  0  0  0  0
  -21.1479   -6.0565   25.9083 H   0  0  0  0  0  0
  -22.0598   -2.7611   23.2865 H   0  0  0  0  0  0
  -22.4177  -11.9786   22.4719 H   0  0  0  0  0  0
  -21.1138  -13.1185   22.2782 H   0  0  0  0  0  0
  -24.6312  -15.8263   20.4522 H   0  0  0  0  0  0
  -26.2405  -15.6100   19.9841 H   0  0  0  0  0  0
  -26.7200  -32.5484   23.1103 H   0  0  0  0  0  0
  -25.0013  -33.9735   25.0356 H   0  0  0  0  0  0
  -22.7223  -31.3111   21.3919 H   0  0  0  0  0  0
  -23.3745  -35.9680   23.3291 H   0  0  0  0  0  0
  -24.3597  -36.8961   22.2061 H   0  0  0  0  0  0
  -23.7284  -37.6531   23.6654 H   0  0  0  0  0  0
  -26.0935  -31.5289   20.5886 H   0  0  0  0  0  0
  -26.8546  -30.8473   21.9927 H   0  0  0  0  0  0
  -28.0996  -28.9182   21.2508 H   0  0  0  0  0  0
  -25.9848  -25.9608   18.9178 H   0  0  0  0  0  0
  -23.9825  -27.3489   18.9458 H   0  0  0  0  0  0
  -23.7674  -30.6009   19.3963 H   0  0  0  0  0  0
  -22.7622  -29.2539   19.8472 H   0  0  0  0  0  0
  -25.1303  -36.1932   25.0821 H   0  0  0  0  0  0
  -21.0058  -28.3413   24.1359 H   0  0  0  0  0  0
  -20.5747  -26.2349   23.3662 H   0  0  0  0  0  0
  -21.6755  -26.7508   22.1309 H   0  0  0  0  0  0
  -19.7058  -25.6238   21.1302 H   0  0  0  0  0  0
  -19.6755  -27.3132   20.6709 H   0  0  0  0  0  0
  -17.4279  -26.6664   21.4013 H   0  0  0  0  0  0
  -18.0372  -26.0088   22.9036 H   0  0  0  0  0  0
  -19.7901  -30.7289   24.2354 H   0  0  0  0  0  0
  -17.5002  -31.6286   24.5113 H   0  0  0  0  0  0
  -15.5367  -30.2985   23.7622 H   0  0  0  0  0  0
  -15.8733  -28.0821   22.6994 H   0  0  0  0  0  0
  -24.5958  -30.7000   25.7768 H   0  0  0  0  0  0
  -24.8864  -32.2888   26.4788 H   0  0  0  0  0  0
  -25.8069  -30.8979   27.0263 H   0  0  0  0  0  0
  -26.2896  -29.6769   24.1212 H   0  0  0  0  0  0
  -27.4030  -29.7253   25.4677 H   0  0  0  0  0  0
  -27.8768  -30.4305   23.9393 H   0  0  0  0  0  0
  -27.2737  -33.3595   26.2067 H   0  0  0  0  0  0
  -28.3918  -32.6787   25.0334 H   0  0  0  0  0  0
  -28.0700  -31.8384   26.5437 H   0  0  0  0  0  0
  -28.2596  -38.0119   24.7462 H   0  0  0  0  0  0
  -28.1060  -36.2635   24.6302 H   0  0  0  0  0  0
  -27.2298  -37.1508   25.8872 H   0  0  0  0  0  0
  -20.9309  -29.8849   21.6860 H   0  0  0  0  0  0
  -26.0164  -38.2869   24.1356 H   0  0  0  0  0  0
  -31.3643  -19.0031   23.6835 H   0  0  0  0  0  0
  -30.4843  -20.9249   22.4403 H   0  0  0  0  0  0
  -31.1189  -16.7062   22.8491 H   0  0  0  0  0  0
  -28.5034  -20.7790   19.2238 H   0  0  0  0  0  0
  -30.1156  -21.3595   19.4463 H   0  0  0  0  0  0
  -29.9493  -23.9678   20.2656 H   0  0  0  0  0  0
  -28.8161  -23.6201   18.9934 H   0  0  0  0  0  0
  -27.9838  -24.9352   21.6563 H   0  0  0  0  0  0
  -26.9692  -24.6698   20.3050 H   0  0  0  0  0  0
  -28.7920  -15.6061   20.6200 H   0  0  0  0  0  0
  -27.6766  -22.1540   20.7788 H   0  0  0  0  0  0
  -29.0371  -22.3237   21.6298 H   0  0  0  0  0  0
  1 25  1  0  0  0
  1 30  2  0  0  0
  1 80  1  0  0  0
  2  3  1  0  0  0
  2 25  1  0  0  0
  2 83  1  0  0  0
  2 84  1  0  0  0
  3  4  1  0  0  0
  3 85  1  0  0  0
  3 86  1  0  0  0
  4  5  1  0  0  0
  4 87  1  0  0  0
  4 88  1  0  0  0
  5  6  1  0  0  0
  5 26  1  0  0  0
  5 89  1  0  0  0
  6 25  1  0  0  0
  6 90  1  0  0  0
  6 91  1  0  0  0
  7  8  2  0  0  0
  7 26  1  0  0  0
  7 29  1  0  0  0
  8  9  1  0  0  0
  8 22  1  0  0  0
  9 10  1  0  0  0
  9 27  2  0  0  0
 10 11  2  0  0  0
 10 15  1  0  0  0
 11 12  1  0  0  0
 11 92  1  0  0  0
 12 13  2  0  0  0
 12 93  1  0  0  0
 13 14  1  0  0  0
 13 31  1  0  0  0
 14 15  2  0  0  0
 14 94  1  0  0  0
 15 95  1  0  0  0
 16 17  2  0  0  0
 16 21  1  0  0  0
 16 31  1  0  0  0
 17 18  1  0  0  0
 17 96  1  0  0  0
 18 19  2  0  0  0
 18 97  1  0  0  0
 19 20  1  0  0  0
 19 24  1  0  0  0
 20 21  2  0  0  0
 20 98  1  0  0  0
 21 23  1  0  0  0
 22 28  1  0  0  0
 22 32  2  0  0  0
 26 27  1  0  0  0
 28 99  1  0  0  0
 28100  1  0  0  0
 29101  1  0  0  0
 29102  1  0  0  0
 33 34  1  0  0  0
 33 66  1  0  0  0
 33 70  2  0  0  0
 34 36  1  0  0  0
 34 59  1  0  0  0
 34103  1  0  0  0
 35 44  2  0  0  0
 35 45  1  0  0  0
 35 68  1  0  0  0
 36 56  1  0  0  0
 36104  1  0  0  0
 37 39  1  0  0  0
 37 47  1  0  0  0
 37 66  1  0  0  0
 37105  1  0  0  0
 38 43  2  0  0  0
 38 46  1  0  0  0
 38 47  1  0  0  0
 39 64  1  0  0  0
 39 67  2  0  0  0
 40 52  1  0  0  0
 40 53  2  0  0  0
 40 58  1  0  0  0
 41106  1  0  0  0
 41107  1  0  0  0
 41108  1  0  0  0
 41 48  1  0  0  0
 42 43  1  0  0  0
 42 66  1  0  0  0
 42109  1  0  0  0
 42110  1  0  0  0
 43 44  1  0  0  0
 44111  1  0  0  0
 45 46  2  0  0  0
 45112  1  0  0  0
 46113  1  0  0  0
 47114  1  0  0  0
 47115  1  0  0  0
 48 56  1  0  0  0
 48 65  1  0  0  0
 48116  1  0  0  0
 49 50  1  0  0  0
 49 53  1  0  0  0
 49 64  1  0  0  0
 49117  1  0  0  0
 50 51  1  0  0  0
 50118  1  0  0  0
 50119  1  0  0  0
 51 52  1  0  0  0
 51120  1  0  0  0
 51121  1  0  0  0
 52122  1  0  0  0
 52123  1  0  0  0
 53 54  1  0  0  0
 54 55  2  0  0  0
 54124  1  0  0  0
 55 57  1  0  0  0
 55125  1  0  0  0
 56 69  2  0  0  0
 57 58  2  0  0  0
 57126  1  0  0  0
 58127  1  0  0  0
 59 60  1  0  0  0
 59 61  1  0  0  0
 59 62  1  0  0  0
 60128  1  0  0  0
 60129  1  0  0  0
 60130  1  0  0  0
 61131  1  0  0  0
 61132  1  0  0  0
 61133  1  0  0  0
 62134  1  0  0  0
 62135  1  0  0  0
 62136  1  0  0  0
 63 65  1  0  0  0
 63137  1  0  0  0
 63138  1  0  0  0
 63139  1  0  0  0
 64140  1  0  0  0
 65141  1  0  0  0
 68 79  1  0  0  0
 71 72  2  0  0  0
 71 73  1  0  0  0
 71142  1  0  0  0
 72 74  1  0  0  0
 72143  1  0  0  0
 73 75  2  0  0  0
 73144  1  0  0  0
 74 76  2  0  0  0
 74 77  1  0  0  0
 75 76  1  0  0  0
 75 80  1  0  0  0
 76 82  1  0  0  0
 77 81  1  0  0  0
 77145  1  0  0  0
 77146  1  0  0  0
 78 79  1  0  0  0
 78 81  1  0  0  0
 78147  1  0  0  0
 78148  1  0  0  0
 79149  1  0  0  0
 79150  1  0  0  0
 80151  1  0  0  0
 81152  1  0  0  0
 81153  1  0  0  0
M  CHG  1  81   1
M  ISO  4   1 100  68 101  79 101  80 100
M  END
> <chiral flag>
0

> <version>
0

> <s_m_source_file>
/data/baiqing/PycharmProjects/Reinvent-master-3.2/result/LINK_invent/BTK/process_docking_weight1_custom_product_contain_oxygen_bond_distance_aromatic_linkinvent_7_9_3/rearranged_h_0007.sdf

> <i_m_source_file_index>
19

> <r_mmod_Potential_Energy-OPLS-2005>
-39.972282409668

> <r_mmod_Stretch_Energy-OPLS-2005>
111.859512329102

> <r_mmod_Bend_Energy-OPLS-2005>
148.885345458984

> <r_mmod_Torsional_Energy-OPLS-2005>
251.186431884766

> <r_mmod_Improper_Torsional_Energy-OPLS-2005>
8.31618595123291

> <r_mmod_Van_der_Waal_Energy-OPLS-2005>
135.961685180664

> <r_mmod_Electrostatic_Energy-OPLS-2005>
-309.84130859375

> <r_mmod_Solvation_Energy-OPLS-2005>
-468.816741943359

> <b_mmod_Minimization_Converged-OPLS-2005>
0

> <r_mmod_RMS_Derivative-OPLS-2005>
5.43194723129272

$$$$
19
                    3D
 Structure written by MMmdl.
143150  0  0  1  0            999 V2000
  -30.3355  -15.5533   20.3377 C   0  0  0  0  0  0
  -30.4278  -13.0206   19.5356 C   0  0  0  0  0  0
  -29.5464  -12.6353   18.3151 C   0  0  0  0  0  0
  -28.1142  -12.2965   18.7563 C   0  0  0  0  0  0
  -27.5983  -13.2998   19.8136 C   0  0  2  0  0  0
  -28.6188  -13.6020   20.9348 C   0  0  0  0  0  0
  -25.2335  -13.8272   20.5783 C   0  0  0  0  0  0
  -24.1716  -13.0431   20.9280 C   0  0  0  0  0  0
  -24.6407  -11.6939   20.8763 C   0  0  0  0  0  0
  -23.9108  -10.4290   21.0398 C   0  0  0  0  0  0
  -24.3646   -9.4204   21.9179 C   0  0  0  0  0  0
  -23.6308   -8.2245   22.0753 C   0  0  0  0  0  0
  -22.4289   -8.0285   21.3544 C   0  0  0  0  0  0
  -21.9934   -9.0259   20.4644 C   0  0  0  0  0  0
  -22.7275  -10.2132   20.3050 C   0  0  0  0  0  0
  -21.6858   -6.0738   22.5278 C   0  0  0  0  0  0
  -21.4019   -6.5642   23.8212 C   0  0  0  0  0  0
  -21.3660   -5.6794   24.9173 C   0  0  0  0  0  0
  -21.6043   -4.3057   24.7224 C   0  0  0  0  0  0
  -21.8819   -3.8148   23.4345 C   0  0  0  0  0  0
  -21.9194   -4.6965   22.3402 C   0  0  0  0  0  0
  -22.7731  -13.5167   21.1917 C   0  0  0  0  0  0
  -22.1662   -4.2150   21.0979 F   0  0  0  0  0  0
  -21.5626   -3.4540   25.7737 F   0  0  0  0  0  0
  -29.8047  -14.1993   20.2827 N   0  0  0  0  0  0
  -26.2777  -12.9589   20.3227 N   0  0  0  0  0  0
  -25.9352  -11.6669   20.5705 N   0  0  0  0  0  0
  -22.0396  -12.8145   22.0471 N   0  0  0  0  0  0
  -25.3934  -15.2012   20.4226 N   0  0  0  0  0  0
  -31.5687  -15.5024   20.1771 O   0  0  0  0  0  0
  -21.6647   -6.8885   21.4242 O   0  0  0  0  0  0
  -22.3406  -14.5465   20.6752 O   0  0  0  0  0  0
  -24.6800  -31.8038   23.1543 C   0  0  0  0  0  0
  -25.9399  -32.4487   23.8074 C   0  0  1  0  0  0
  -27.2247  -26.7418   20.2123 C   0  0  0  0  0  0
  -25.5993  -33.8310   24.1966 N   0  0  0  0  0  0
  -23.5038  -30.4073   21.5074 C   0  0  2  0  0  0
  -24.9602  -28.7545   20.1181 C   0  0  0  0  0  0
  -22.7746  -29.4338   22.4723 C   0  0  0  0  0  0
  -18.0336  -28.1422   22.8456 C   0  0  0  0  0  0
  -24.1495  -36.7162   23.2653 C   0  0  0  0  0  0
  -26.0826  -30.5501   21.4119 C   0  0  0  0  0  0
  -26.1487  -29.1190   20.7619 C   0  0  0  0  0  0
  -27.2682  -28.1399   20.7756 C   0  0  0  0  0  0
  -26.0029  -26.5744   19.5148 C   0  0  0  0  0  0
  -24.9238  -27.5069   19.4714 C   0  0  0  0  0  0
  -23.7552  -29.7060   20.1417 C   0  0  0  0  0  0
  -25.4144  -36.2907   24.0285 C   0  0  1  0  0  0
  -20.5969  -28.3778   23.1151 C   0  0  2  0  0  0
  -20.6806  -26.9441   22.5404 C   0  0  0  0  0  0
  -19.5783  -26.6372   21.5218 C   0  0  0  0  0  0
  -18.1963  -26.7949   22.1618 C   0  0  0  0  0  0
  -19.1601  -28.8923   23.2785 C   0  0  0  0  0  0
  -18.9509  -30.1507   23.8830 C   0  0  0  0  0  0
  -17.6500  -30.6605   24.0552 C   0  0  0  0  0  0
  -25.9122  -34.9297   23.4960 C   0  0  0  0  0  0
  -16.5389  -29.9089   23.6351 C   0  0  0  0  0  0
  -16.7316  -28.6511   23.0366 C   0  0  0  0  0  0
  -26.4590  -31.6507   25.0681 C   0  0  0  0  0  0
  -25.3664  -31.3815   26.1302 C   0  0  0  0  0  0
  -27.0517  -30.2851   24.6551 C   0  0  0  0  0  0
  -27.6045  -32.4359   25.7497 C   0  0  0  0  0  0
  -27.5563  -37.1737   24.8467 C   0  0  0  0  0  0
  -21.4398  -29.3031   22.3473 N   0  0  0  0  0  0
  -26.4272  -37.3665   23.9408 N   0  0  0  0  0  0
  -24.7786  -30.9523   22.0774 N   0  0  0  0  0  0
  -23.4209  -28.7935   23.3052 O   0  0  0  0  0  0
  -28.2041  -25.5512   20.2801 O   0  0  0  0  0  0
  -26.5758  -34.8869   22.4574 O   0  0  0  0  0  0
  -23.5828  -32.1094   23.6523 O   0  0  0  0  0  0
  -28.7651  -20.2674   20.2904 C   0  0  0  0  0  0
  -29.0007  -22.1779   20.3080 C   0  0  0  0  0  0
  -29.8051  -18.6520   20.3467 C   0  0  0  0  0  0
  -28.0034  -23.8204   20.2032 C   0  0  0  0  0  0
  -29.5782  -16.9027   20.3825 N   0  0  0  0  0  0
  -31.4268  -13.2705   19.1767 H   0  0  0  0  0  0
  -30.5690  -12.1647   20.1980 H   0  0  0  0  0  0
  -29.9845  -11.7945   17.7757 H   0  0  0  0  0  0
  -29.5210  -13.4708   17.6137 H   0  0  0  0  0  0
  -28.1271  -11.2932   19.1840 H   0  0  0  0  0  0
  -27.4439  -12.2569   17.8969 H   0  0  0  0  0  0
  -27.4709  -14.2301   19.2582 H   0  0  0  0  0  0
  -28.8604  -12.7103   21.5153 H   0  0  0  0  0  0
  -28.2012  -14.3242   21.6380 H   0  0  0  0  0  0
  -25.2785   -9.5679   22.4764 H   0  0  0  0  0  0
  -24.0009   -7.4638   22.7481 H   0  0  0  0  0  0
  -21.0862   -8.8785   19.8952 H   0  0  0  0  0  0
  -22.3730  -10.9673   19.6163 H   0  0  0  0  0  0
  -21.2015   -7.6151   23.9715 H   0  0  0  0  0  0
  -21.1481   -6.0525   25.9076 H   0  0  0  0  0  0
  -22.0596   -2.7611   23.2846 H   0  0  0  0  0  0
  -22.4039  -11.9821   22.4865 H   0  0  0  0  0  0
  -21.1004  -13.1141   22.2671 H   0  0  0  0  0  0
  -24.6207  -15.8487   20.5359 H   0  0  0  0  0  0
  -26.2324  -15.6443   20.0726 H   0  0  0  0  0  0
  -26.7477  -32.4971   23.0784 H   0  0  0  0  0  0
  -25.0059  -33.9354   25.0062 H   0  0  0  0  0  0
  -22.8274  -31.2439   21.3201 H   0  0  0  0  0  0
  -23.3774  -35.9475   23.3272 H   0  0  0  0  0  0
  -24.3562  -36.8864   22.2076 H   0  0  0  0  0  0
  -23.7238  -37.6325   23.6753 H   0  0  0  0  0  0
  -26.2810  -31.2776   20.6238 H   0  0  0  0  0  0
  -26.9354  -30.6164   22.0750 H   0  0  0  0  0  0
  -28.1647  -28.4248   21.3080 H   0  0  0  0  0  0
  -25.8443  -25.6278   19.0182 H   0  0  0  0  0  0
  -24.0252  -27.2191   18.9430 H   0  0  0  0  0  0
  -23.9278  -30.4668   19.3796 H   0  0  0  0  0  0
  -22.8607  -29.1707   19.8189 H   0  0  0  0  0  0
  -25.1351  -36.1675   25.0775 H   0  0  0  0  0  0
  -21.0052  -28.3402   24.1277 H   0  0  0  0  0  0
  -20.5676  -26.2401   23.3662 H   0  0  0  0  0  0
  -21.6667  -26.7393   22.1218 H   0  0  0  0  0  0
  -19.6942  -25.6265   21.1292 H   0  0  0  0  0  0
  -19.6728  -27.3145   20.6718 H   0  0  0  0  0  0
  -17.4233  -26.6692   21.4021 H   0  0  0  0  0  0
  -18.0352  -26.0108   22.9031 H   0  0  0  0  0  0
  -19.7986  -30.7339   24.2170 H   0  0  0  0  0  0
  -17.5053  -31.6279   24.5166 H   0  0  0  0  0  0
  -15.5388  -30.2971   23.7716 H   0  0  0  0  0  0
  -15.8715  -28.0809   22.7122 H   0  0  0  0  0  0
  -24.5873  -30.7140   25.7600 H   0  0  0  0  0  0
  -24.8826  -32.3036   26.4537 H   0  0  0  0  0  0
  -25.7846  -30.9101   27.0204 H   0  0  0  0  0  0
  -26.3228  -29.6473   24.1543 H   0  0  0  0  0  0
  -27.3966  -29.7288   25.5278 H   0  0  0  0  0  0
  -27.9198  -30.3989   24.0055 H   0  0  0  0  0  0
  -27.2593  -33.3729   26.1879 H   0  0  0  0  0  0
  -28.3955  -32.6809   25.0396 H   0  0  0  0  0  0
  -28.0603  -31.8616   26.5574 H   0  0  0  0  0  0
  -28.2553  -38.0057   24.7511 H   0  0  0  0  0  0
  -28.1085  -36.2580   24.6299 H   0  0  0  0  0  0
  -27.2276  -37.1380   25.8868 H   0  0  0  0  0  0
  -20.9695  -29.8687   21.6544 H   0  0  0  0  0  0
  -26.0103  -38.2714   24.1421 H   0  0  0  0  0  0
  -28.1541  -20.1192   19.3998 H   0  0  0  0  0  0
  -28.0571  -20.1169   21.1057 H   0  0  0  0  0  0
  -29.7448  -22.3205   19.5244 H   0  0  0  0  0  0
  -29.5730  -22.3235   21.2244 H   0  0  0  0  0  0
  -30.4440  -18.8018   21.2176 H   0  0  0  0  0  0
  -30.4945  -18.7676   19.5099 H   0  0  0  0  0  0
  -27.2299  -23.6732   20.9571 H   0  0  0  0  0  0
  -27.4624  -23.7113   19.2633 H   0  0  0  0  0  0
  -28.5926  -16.6942   20.4591 H   0  0  0  0  0  0
  1 25  1  0  0  0
  1 30  2  0  0  0
  1 75  1  0  0  0
  2  3  1  0  0  0
  2 25  1  0  0  0
  2 76  1  0  0  0
  2 77  1  0  0  0
  3  4  1  0  0  0
  3 78  1  0  0  0
  3 79  1  0  0  0
  4  5  1  0  0  0
  4 80  1  0  0  0
  4 81  1  0  0  0
  5  6  1  0  0  0
  5 26  1  0  0  0
  5 82  1  0  0  0
  6 25  1  0  0  0
  6 83  1  0  0  0
  6 84  1  0  0  0
  7  8  2  0  0  0
  7 26  1  0  0  0
  7 29  1  0  0  0
  8  9  1  0  0  0
  8 22  1  0  0  0
  9 10  1  0  0  0
  9 27  2  0  0  0
 10 11  2  0  0  0
 10 15  1  0  0  0
 11 12  1  0  0  0
 11 85  1  0  0  0
 12 13  2  0  0  0
 12 86  1  0  0  0
 13 14  1  0  0  0
 13 31  1  0  0  0
 14 15  2  0  0  0
 14 87  1  0  0  0
 15 88  1  0  0  0
 16 17  2  0  0  0
 16 21  1  0  0  0
 16 31  1  0  0  0
 17 18  1  0  0  0
 17 89  1  0  0  0
 18 19  2  0  0  0
 18 90  1  0  0  0
 19 20  1  0  0  0
 19 24  1  0  0  0
 20 21  2  0  0  0
 20 91  1  0  0  0
 21 23  1  0  0  0
 22 28  1  0  0  0
 22 32  2  0  0  0
 26 27  1  0  0  0
 28 92  1  0  0  0
 28 93  1  0  0  0
 29 94  1  0  0  0
 29 95  1  0  0  0
 33 34  1  0  0  0
 33 66  1  0  0  0
 33 70  2  0  0  0
 34 36  1  0  0  0
 34 59  1  0  0  0
 34 96  1  0  0  0
 35 44  2  0  0  0
 35 45  1  0  0  0
 35 68  1  0  0  0
 36 56  1  0  0  0
 36 97  1  0  0  0
 37 39  1  0  0  0
 37 47  1  0  0  0
 37 66  1  0  0  0
 37 98  1  0  0  0
 38 43  2  0  0  0
 38 46  1  0  0  0
 38 47  1  0  0  0
 39 64  1  0  0  0
 39 67  2  0  0  0
 40 52  1  0  0  0
 40 53  2  0  0  0
 40 58  1  0  0  0
 41 99  1  0  0  0
 41100  1  0  0  0
 41101  1  0  0  0
 41 48  1  0  0  0
 42 43  1  0  0  0
 42 66  1  0  0  0
 42102  1  0  0  0
 42103  1  0  0  0
 43 44  1  0  0  0
 44104  1  0  0  0
 45 46  2  0  0  0
 45105  1  0  0  0
 46106  1  0  0  0
 47107  1  0  0  0
 47108  1  0  0  0
 48 56  1  0  0  0
 48 65  1  0  0  0
 48109  1  0  0  0
 49 50  1  0  0  0
 49 53  1  0  0  0
 49 64  1  0  0  0
 49110  1  0  0  0
 50 51  1  0  0  0
 50111  1  0  0  0
 50112  1  0  0  0
 51 52  1  0  0  0
 51113  1  0  0  0
 51114  1  0  0  0
 52115  1  0  0  0
 52116  1  0  0  0
 53 54  1  0  0  0
 54 55  2  0  0  0
 54117  1  0  0  0
 55 57  1  0  0  0
 55118  1  0  0  0
 56 69  2  0  0  0
 57 58  2  0  0  0
 57119  1  0  0  0
 58120  1  0  0  0
 59 60  1  0  0  0
 59 61  1  0  0  0
 59 62  1  0  0  0
 60121  1  0  0  0
 60122  1  0  0  0
 60123  1  0  0  0
 61124  1  0  0  0
 61125  1  0  0  0
 61126  1  0  0  0
 62127  1  0  0  0
 62128  1  0  0  0
 62129  1  0  0  0
 63 65  1  0  0  0
 63130  1  0  0  0
 63131  1  0  0  0
 63132  1  0  0  0
 64133  1  0  0  0
 65134  1  0  0  0
 68 74  1  0  0  0
 71 72  1  0  0  0
 71 73  1  0  0  0
 71135  1  0  0  0
 71136  1  0  0  0
 72 74  1  0  0  0
 72137  1  0  0  0
 72138  1  0  0  0
 73 75  1  0  0  0
 73139  1  0  0  0
 73140  1  0  0  0
 74141  1  0  0  0
 74142  1  0  0  0
 75143  1  0  0  0
M  ISO  4   1 100  68 101  74 101  75 100
M  END
> <chiral flag>
0

> <version>
0

> <s_m_source_file>
/data/baiqing/PycharmProjects/Reinvent-master-3.2/result/LINK_invent/BTK/process_docking_weight1_custom_product_contain_oxygen_bond_distance_aromatic_linkinvent_7_9_3/rearranged_h_0007.sdf

> <i_m_source_file_index>
20

> <r_mmod_Potential_Energy-OPLS-2005>
2236.59155273438

> <r_mmod_Stretch_Energy-OPLS-2005>
1088.18041992188

> <r_mmod_Bend_Energy-OPLS-2005>
600.093139648438

> <r_mmod_Torsional_Energy-OPLS-2005>
206.369812011719

> <r_mmod_Improper_Torsional_Energy-OPLS-2005>
3.66827178001404

> <r_mmod_Van_der_Waal_Energy-OPLS-2005>
110.215888977051

> <r_mmod_Electrostatic_Energy-OPLS-2005>
-352.887237548828

> <r_mmod_Solvation_Energy-OPLS-2005>
-215.827575683594

> <b_mmod_Minimization_Converged-OPLS-2005>
0

> <r_mmod_RMS_Derivative-OPLS-2005>
0.268112510442734

$$$$
20
                    3D
 Structure written by MMmdl.
153161  0  0  1  0            999 V2000
  -30.4655  -15.1565   20.3862 C   0  0  0  0  0  0
  -30.4598  -12.7193   19.5263 C   0  0  0  0  0  0
  -29.5426  -12.5323   18.2898 C   0  0  0  0  0  0
  -28.0937  -12.2604   18.7384 C   0  0  0  0  0  0
  -27.6334  -13.2466   19.8410 C   0  0  2  0  0  0
  -28.6751  -13.3652   20.9766 C   0  0  0  0  0  0
  -25.2483  -13.8187   20.5725 C   0  0  0  0  0  0
  -24.1808  -13.0446   20.9238 C   0  0  0  0  0  0
  -24.6372  -11.6889   20.8754 C   0  0  0  0  0  0
  -23.9031  -10.4276   21.0395 C   0  0  0  0  0  0
  -24.3578   -9.4197   21.9187 C   0  0  0  0  0  0
  -23.6255   -8.2236   22.0764 C   0  0  0  0  0  0
  -22.4249   -8.0256   21.3546 C   0  0  0  0  0  0
  -21.9862   -9.0229   20.4660 C   0  0  0  0  0  0
  -22.7178  -10.2111   20.3067 C   0  0  0  0  0  0
  -21.6855   -6.0693   22.5262 C   0  0  0  0  0  0
  -21.4008   -6.5607   23.8190 C   0  0  0  0  0  0
  -21.3661   -5.6776   24.9161 C   0  0  0  0  0  0
  -21.6054   -4.3037   24.7228 C   0  0  0  0  0  0
  -21.8826   -3.8108   23.4352 C   0  0  0  0  0  0
  -21.9193   -4.6916   22.3399 C   0  0  0  0  0  0
  -22.7811  -13.5193   21.1908 C   0  0  0  0  0  0
  -22.1673   -4.2088   21.0987 F   0  0  0  0  0  0
  -21.5638   -3.4543   25.7754 F   0  0  0  0  0  0
  -29.9193  -13.8517   20.3540 N   0  0  0  0  0  0
  -26.2926  -12.9416   20.3289 N   0  0  0  0  0  0
  -25.9336  -11.6538   20.5797 N   0  0  0  0  0  0
  -22.0491  -12.8192   22.0436 N   0  0  0  0  0  0
  -25.4199  -15.1929   20.4096 N   0  0  0  0  0  0
  -31.6785  -15.2153   20.1524 O   0  0  0  0  0  0
  -21.6644   -6.8834   21.4217 O   0  0  0  0  0  0
  -22.3493  -14.5510   20.6730 O   0  0  0  0  0  0
  -24.6594  -31.8186   23.1876 C   0  0  0  0  0  0
  -25.9366  -32.4375   23.8334 C   0  0  1  0  0  0
  -27.2202  -27.0136   20.1584 C   0  0  0  0  0  0
  -25.6086  -33.8204   24.2248 N   0  0  0  0  0  0
  -23.4613  -30.4367   21.5302 C   0  0  2  0  0  0
  -24.9138  -28.8456   20.1073 C   0  0  0  0  0  0
  -22.7661  -29.4407   22.4915 C   0  0  0  0  0  0
  -18.0272  -28.1277   22.8497 C   0  0  0  0  0  0
  -24.1486  -36.6912   23.2688 C   0  0  0  0  0  0
  -26.0377  -30.6477   21.4135 C   0  0  0  0  0  0
  -26.0977  -29.2662   20.7240 C   0  0  0  0  0  0
  -27.2508  -28.3760   20.7128 C   0  0  0  0  0  0
  -26.0008  -26.7131   19.5168 C   0  0  0  0  0  0
  -24.8872  -27.5891   19.4796 C   0  0  0  0  0  0
  -23.6904  -29.7514   20.1554 C   0  0  0  0  0  0
  -25.4111  -36.2742   24.0398 C   0  0  1  0  0  0
  -20.5897  -28.3591   23.1195 C   0  0  2  0  0  0
  -20.6657  -26.9275   22.5385 C   0  0  0  0  0  0
  -19.5663  -26.6330   21.5132 C   0  0  0  0  0  0
  -18.1862  -26.7826   22.1596 C   0  0  0  0  0  0
  -19.1547  -28.8798   23.2794 C   0  0  0  0  0  0
  -18.9468  -30.1394   23.8804 C   0  0  0  0  0  0
  -17.6465  -30.6514   24.0476 C   0  0  0  0  0  0
  -25.9142  -34.9146   23.5141 C   0  0  0  0  0  0
  -16.5349  -29.8952   23.6346 C   0  0  0  0  0  0
  -16.7261  -28.6331   23.0459 C   0  0  0  0  0  0
  -26.4740  -31.6226   25.0798 C   0  0  0  0  0  0
  -25.4139  -31.3222   26.1639 C   0  0  0  0  0  0
  -27.0670  -30.2568   24.6587 C   0  0  0  0  0  0
  -27.6263  -32.4078   25.7497 C   0  0  0  0  0  0
  -27.5528  -37.1557   24.8581 C   0  0  0  0  0  0
  -21.4370  -29.2859   22.3597 N   0  0  0  0  0  0
  -26.4221  -37.3519   23.9543 N   0  0  0  0  0  0
  -24.7366  -30.9996   22.0900 N   0  0  0  0  0  0
  -23.4256  -28.8094   23.3204 O   0  0  0  0  0  0
  -28.2592  -25.9789   20.2812 O   0  0  0  0  0  0
  -26.5746  -34.8695   22.4727 O   0  0  0  0  0  0
  -23.5721  -32.1150   23.7074 O   0  0  0  0  0  0
  -30.5788  -19.1530   20.7461 C   0  0  0  0  0  0
  -28.5510  -18.8251   19.4944 C   0  0  0  0  0  0
  -30.0731  -20.6905   21.1105 C   0  0  0  0  0  0
  -28.0828  -20.3952   19.7843 C   0  0  0  0  0  0
  -29.4676  -17.9986   20.5421 C   0  0  1  0  0  0
  -28.6304  -22.9597   20.7053 C   0  0  0  0  0  0
  -28.2536  -24.4245   19.8374 C   0  0  0  0  0  0
  -29.6189  -16.3463   20.4896 N   0  0  0  0  0  0
  -29.1157  -21.4731   20.1745 N   0  3  1  0  0  0
  -31.4875  -12.8964   19.2091 H   0  0  0  0  0  0
  -30.4974  -11.7961   20.1096 H   0  0  0  0  0  0
  -29.9017  -11.7094   17.6721 H   0  0  0  0  0  0
  -29.5709  -13.4237   17.6657 H   0  0  0  0  0  0
  -28.0693  -11.2473   19.1437 H   0  0  0  0  0  0
  -27.4109  -12.2708   17.8911 H   0  0  0  0  0  0
  -27.5699  -14.2184   19.3532 H   0  0  0  0  0  0
  -28.8244  -12.4084   21.4789 H   0  0  0  0  0  0
  -28.3416  -14.0633   21.7440 H   0  0  0  0  0  0
  -25.2728   -9.5698   22.4755 H   0  0  0  0  0  0
  -23.9982   -7.4638   22.7496 H   0  0  0  0  0  0
  -21.0790   -8.8712   19.8971 H   0  0  0  0  0  0
  -22.3610  -10.9642   19.6175 H   0  0  0  0  0  0
  -21.1995   -7.6123   23.9656 H   0  0  0  0  0  0
  -21.1488   -6.0533   25.9063 H   0  0  0  0  0  0
  -22.0605   -2.7566   23.2883 H   0  0  0  0  0  0
  -22.4118  -11.9827   22.4800 H   0  0  0  0  0  0
  -21.1131  -13.1225   22.2722 H   0  0  0  0  0  0
  -24.6458  -15.8446   20.5127 H   0  0  0  0  0  0
  -26.2390  -15.6103   19.9898 H   0  0  0  0  0  0
  -26.7457  -32.4856   23.1053 H   0  0  0  0  0  0
  -25.0105  -33.9251   25.0309 H   0  0  0  0  0  0
  -22.7628  -31.2593   21.3650 H   0  0  0  0  0  0
  -23.3788  -35.9190   23.3358 H   0  0  0  0  0  0
  -24.3614  -36.8494   22.2103 H   0  0  0  0  0  0
  -23.7163  -37.6099   23.6686 H   0  0  0  0  0  0
  -26.2937  -31.4218   20.6896 H   0  0  0  0  0  0
  -26.8675  -30.6231   22.1084 H   0  0  0  0  0  0
  -28.1587  -28.7175   21.1923 H   0  0  0  0  0  0
  -25.8456  -25.7394   19.0829 H   0  0  0  0  0  0
  -23.9808  -27.2440   18.9999 H   0  0  0  0  0  0
  -23.8094  -30.5132   19.3876 H   0  0  0  0  0  0
  -22.8112  -29.1759   19.8617 H   0  0  0  0  0  0
  -25.1240  -36.1513   25.0878 H   0  0  0  0  0  0
  -20.9911  -28.3083   24.1337 H   0  0  0  0  0  0
  -20.5320  -26.2205   23.3600 H   0  0  0  0  0  0
  -21.6525  -26.7100   22.1309 H   0  0  0  0  0  0
  -19.6772  -25.6272   21.1057 H   0  0  0  0  0  0
  -19.6527  -27.3218   20.6736 H   0  0  0  0  0  0
  -17.4097  -26.6598   21.4024 H   0  0  0  0  0  0
  -18.0279  -25.9904   22.8955 H   0  0  0  0  0  0
  -19.7963  -30.7199   24.2119 H   0  0  0  0  0  0
  -17.5018  -31.6204   24.5049 H   0  0  0  0  0  0
  -15.5331  -30.2815   23.7724 H   0  0  0  0  0  0
  -15.8647  -28.0556   22.7359 H   0  0  0  0  0  0
  -24.6484  -30.6273   25.8175 H   0  0  0  0  0  0
  -24.9157  -32.2201   26.5290 H   0  0  0  0  0  0
  -25.8805  -30.8464   27.0301 H   0  0  0  0  0  0
  -26.3336  -29.6107   24.1743 H   0  0  0  0  0  0
  -27.4286  -29.7014   25.5282 H   0  0  0  0  0  0
  -27.9291  -30.3641   23.9988 H   0  0  0  0  0  0
  -27.2891  -33.3470   26.1916 H   0  0  0  0  0  0
  -28.4112  -32.6484   25.0293 H   0  0  0  0  0  0
  -28.0928  -31.8316   26.5526 H   0  0  0  0  0  0
  -28.2574  -37.9832   24.7589 H   0  0  0  0  0  0
  -28.1005  -36.2353   24.6432 H   0  0  0  0  0  0
  -27.2298  -37.1218   25.9016 H   0  0  0  0  0  0
  -20.9745  -29.8366   21.6513 H   0  0  0  0  0  0
  -26.0023  -38.2552   24.1616 H   0  0  0  0  0  0
  -31.2437  -18.8533   21.5632 H   0  0  0  0  0  0
  -31.2302  -19.2036   19.8672 H   0  0  0  0  0  0
  -29.0413  -18.8025   18.5180 H   0  0  0  0  0  0
  -27.6210  -18.2689   19.3481 H   0  0  0  0  0  0
  -29.5924  -20.6348   22.0942 H   0  0  0  0  0  0
  -30.9505  -21.3228   21.2819 H   0  0  0  0  0  0
  -27.3009  -20.3704   20.5495 H   0  0  0  0  0  0
  -27.5760  -20.7513   18.8800 H   0  0  0  0  0  0
  -28.8907  -18.0577   21.4720 H   0  0  0  0  0  0
  -27.7784  -22.7841   21.3772 H   0  0  0  0  0  0
  -29.4405  -23.2646   21.3755 H   0  0  0  0  0  0
  -28.9587  -24.4374   19.0089 H   0  0  0  0  0  0
  -27.2979  -24.2201   19.3558 H   0  0  0  0  0  0
  -28.6947  -15.9669   20.6357 H   0  0  0  0  0  0
  -29.6635  -21.6445   19.3379 H   0  0  0  0  0  0
  1 25  1  0  0  0
  1 30  2  0  0  0
  1 78  1  0  0  0
  2  3  1  0  0  0
  2 25  1  0  0  0
  2 80  1  0  0  0
  2 81  1  0  0  0
  3  4  1  0  0  0
  3 82  1  0  0  0
  3 83  1  0  0  0
  4  5  1  0  0  0
  4 84  1  0  0  0
  4 85  1  0  0  0
  5  6  1  0  0  0
  5 26  1  0  0  0
  5 86  1  0  0  0
  6 25  1  0  0  0
  6 87  1  0  0  0
  6 88  1  0  0  0
  7  8  2  0  0  0
  7 26  1  0  0  0
  7 29  1  0  0  0
  8  9  1  0  0  0
  8 22  1  0  0  0
  9 10  1  0  0  0
  9 27  2  0  0  0
 10 11  2  0  0  0
 10 15  1  0  0  0
 11 12  1  0  0  0
 11 89  1  0  0  0
 12 13  2  0  0  0
 12 90  1  0  0  0
 13 14  1  0  0  0
 13 31  1  0  0  0
 14 15  2  0  0  0
 14 91  1  0  0  0
 15 92  1  0  0  0
 16 17  2  0  0  0
 16 21  1  0  0  0
 16 31  1  0  0  0
 17 18  1  0  0  0
 17 93  1  0  0  0
 18 19  2  0  0  0
 18 94  1  0  0  0
 19 20  1  0  0  0
 19 24  1  0  0  0
 20 21  2  0  0  0
 20 95  1  0  0  0
 21 23  1  0  0  0
 22 28  1  0  0  0
 22 32  2  0  0  0
 26 27  1  0  0  0
 28 96  1  0  0  0
 28 97  1  0  0  0
 29 98  1  0  0  0
 29 99  1  0  0  0
 33 34  1  0  0  0
 33 66  1  0  0  0
 33 70  2  0  0  0
 34 36  1  0  0  0
 34 59  1  0  0  0
 34100  1  0  0  0
 35 44  2  0  0  0
 35 45  1  0  0  0
 35 68  1  0  0  0
 36 56  1  0  0  0
 36101  1  0  0  0
 37 39  1  0  0  0
 37 47  1  0  0  0
 37 66  1  0  0  0
 37102  1  0  0  0
 38 43  2  0  0  0
 38 46  1  0  0  0
 38 47  1  0  0  0
 39 64  1  0  0  0
 39 67  2  0  0  0
 40 52  1  0  0  0
 40 53  2  0  0  0
 40 58  1  0  0  0
 41103  1  0  0  0
 41104  1  0  0  0
 41105  1  0  0  0
 41 48  1  0  0  0
 42 43  1  0  0  0
 42 66  1  0  0  0
 42106  1  0  0  0
 42107  1  0  0  0
 43 44  1  0  0  0
 44108  1  0  0  0
 45 46  2  0  0  0
 45109  1  0  0  0
 46110  1  0  0  0
 47111  1  0  0  0
 47112  1  0  0  0
 48 56  1  0  0  0
 48 65  1  0  0  0
 48113  1  0  0  0
 49 50  1  0  0  0
 49 53  1  0  0  0
 49 64  1  0  0  0
 49114  1  0  0  0
 50 51  1  0  0  0
 50115  1  0  0  0
 50116  1  0  0  0
 51 52  1  0  0  0
 51117  1  0  0  0
 51118  1  0  0  0
 52119  1  0  0  0
 52120  1  0  0  0
 53 54  1  0  0  0
 54 55  2  0  0  0
 54121  1  0  0  0
 55 57  1  0  0  0
 55122  1  0  0  0
 56 69  2  0  0  0
 57 58  2  0  0  0
 57123  1  0  0  0
 58124  1  0  0  0
 59 60  1  0  0  0
 59 61  1  0  0  0
 59 62  1  0  0  0
 60125  1  0  0  0
 60126  1  0  0  0
 60127  1  0  0  0
 61128  1  0  0  0
 61129  1  0  0  0
 61130  1  0  0  0
 62131  1  0  0  0
 62132  1  0  0  0
 62133  1  0  0  0
 63 65  1  0  0  0
 63134  1  0  0  0
 63135  1  0  0  0
 63136  1  0  0  0
 64137  1  0  0  0
 65138  1  0  0  0
 68 77  1  0  0  0
 71 73  1  0  0  0
 71 75  1  0  0  0
 71139  1  0  0  0
 71140  1  0  0  0
 72 74  1  0  0  0
 72 75  1  0  0  0
 72141  1  0  0  0
 72142  1  0  0  0
 73 79  1  0  0  0
 73143  1  0  0  0
 73144  1  0  0  0
 74 79  1  0  0  0
 74145  1  0  0  0
 74146  1  0  0  0
 75 78  1  0  0  0
 75147  1  0  0  0
 76 77  1  0  0  0
 76148  1  0  0  0
 76149  1  0  0  0
 76 79  1  0  0  0
 77150  1  0  0  0
 77151  1  0  0  0
 78152  1  0  0  0
 79153  1  0  0  0
M  CHG  1  79   1
M  ISO  4   1 100  68 101  77 101  78 100
M  END
> <chiral flag>
0

> <version>
0

> <s_m_source_file>
/data/baiqing/PycharmProjects/Reinvent-master-3.2/result/LINK_invent/BTK/process_docking_weight1_custom_product_contain_oxygen_bond_distance_aromatic_linkinvent_7_9_3/rearranged_h_0007.sdf

> <i_m_source_file_index>
21

> <r_mmod_Potential_Energy-OPLS-2005>
907.49267578125

> <r_mmod_Stretch_Energy-OPLS-2005>
422.123931884766

> <r_mmod_Bend_Energy-OPLS-2005>
452.849731445312

> <r_mmod_Torsional_Energy-OPLS-2005>
236.023727416992

> <r_mmod_Improper_Torsional_Energy-OPLS-2005>
4.44967126846313

> <r_mmod_Van_der_Waal_Energy-OPLS-2005>
109.575119018555

> <r_mmod_Electrostatic_Energy-OPLS-2005>
-210.960876464844

> <r_mmod_Solvation_Energy-OPLS-2005>
-454.601898193359

> <b_mmod_Minimization_Converged-OPLS-2005>
0

> <r_mmod_RMS_Derivative-OPLS-2005>
8.72944927215576

$$$$
21
                    3D
 Structure written by MMmdl.
148156  0  0  1  0            999 V2000
  -30.5089  -14.9122   20.4351 C   0  0  0  0  0  0
  -30.4555  -12.5616   19.4901 C   0  0  0  0  0  0
  -29.5264  -12.5317   18.2520 C   0  0  0  0  0  0
  -28.0565  -12.3206   18.6662 C   0  0  0  0  0  0
  -27.6389  -13.2354   19.8464 C   0  0  2  0  0  0
  -28.6835  -13.2119   20.9840 C   0  0  0  0  0  0
  -25.2500  -13.8182   20.5681 C   0  0  0  0  0  0
  -24.1806  -13.0431   20.9230 C   0  0  0  0  0  0
  -24.6402  -11.6911   20.8760 C   0  0  0  0  0  0
  -23.9076  -10.4289   21.0416 C   0  0  0  0  0  0
  -24.3624   -9.4201   21.9190 C   0  0  0  0  0  0
  -23.6294   -8.2240   22.0758 C   0  0  0  0  0  0
  -22.4276   -8.0282   21.3547 C   0  0  0  0  0  0
  -21.9915   -9.0259   20.4652 C   0  0  0  0  0  0
  -22.7249  -10.2135   20.3063 C   0  0  0  0  0  0
  -21.6853   -6.0736   22.5279 C   0  0  0  0  0  0
  -21.4015   -6.5640   23.8212 C   0  0  0  0  0  0
  -21.3659   -5.6793   24.9175 C   0  0  0  0  0  0
  -21.6044   -4.3056   24.7225 C   0  0  0  0  0  0
  -21.8818   -3.8147   23.4347 C   0  0  0  0  0  0
  -21.9192   -4.6963   22.3402 C   0  0  0  0  0  0
  -22.7826  -13.5218   21.1880 C   0  0  0  0  0  0
  -22.1661   -4.2149   21.0979 F   0  0  0  0  0  0
  -21.5626   -3.4539   25.7738 F   0  0  0  0  0  0
  -29.9682  -13.6307   20.4025 N   0  0  0  0  0  0
  -26.2925  -12.9392   20.3247 N   0  0  0  0  0  0
  -25.9332  -11.6537   20.5742 N   0  0  0  0  0  0
  -22.0465  -12.8213   22.0434 N   0  0  0  0  0  0
  -25.4162  -15.1901   20.4026 N   0  0  0  0  0  0
  -31.6970  -15.0562   20.1234 O   0  0  0  0  0  0
  -21.6639   -6.8881   21.4242 O   0  0  0  0  0  0
  -22.3518  -14.5520   20.6717 O   0  0  0  0  0  0
  -24.6422  -31.8456   23.1895 C   0  0  0  0  0  0
  -25.9199  -32.4704   23.8282 C   0  0  1  0  0  0
  -27.2214  -27.1519   20.1469 C   0  0  0  0  0  0
  -25.5952  -33.8509   24.2201 N   0  0  0  0  0  0
  -23.4453  -30.4654   21.5351 C   0  0  2  0  0  0
  -24.8953  -28.8959   20.1105 C   0  0  0  0  0  0
  -22.7562  -29.4552   22.4864 C   0  0  0  0  0  0
  -18.0305  -28.1392   22.8480 C   0  0  0  0  0  0
  -24.1492  -36.7261   23.2642 C   0  0  0  0  0  0
  -26.0006  -30.7245   21.3860 C   0  0  0  0  0  0
  -26.0728  -29.3373   20.7273 C   0  0  0  0  0  0
  -27.2369  -28.4820   20.7280 C   0  0  0  0  0  0
  -26.0152  -26.8096   19.4937 C   0  0  0  0  0  0
  -24.8787  -27.6448   19.4786 C   0  0  0  0  0  0
  -23.6712  -29.7962   20.1539 C   0  0  0  0  0  0
  -25.4122  -36.3038   24.0318 C   0  0  1  0  0  0
  -20.5917  -28.3717   23.1239 C   0  0  2  0  0  0
  -20.6789  -26.9422   22.5403 C   0  0  0  0  0  0
  -19.5760  -26.6380   21.5213 C   0  0  0  0  0  0
  -18.1944  -26.7931   22.1628 C   0  0  0  0  0  0
  -19.1562  -28.8873   23.2853 C   0  0  0  0  0  0
  -18.9477  -30.1469   23.8878 C   0  0  0  0  0  0
  -17.6473  -30.6589   24.0558 C   0  0  0  0  0  0
  -25.9071  -34.9412   23.5068 C   0  0  0  0  0  0
  -16.5365  -29.9082   23.6333 C   0  0  0  0  0  0
  -16.7289  -28.6500   23.0357 C   0  0  0  0  0  0
  -26.4522  -31.6564   25.0716 C   0  0  0  0  0  0
  -25.3712  -31.3749   26.1414 C   0  0  0  0  0  0
  -27.0385  -30.2963   24.6283 C   0  0  0  0  0  0
  -27.6053  -32.4328   25.7502 C   0  0  0  0  0  0
  -27.5575  -37.1788   24.8465 C   0  0  0  0  0  0
  -21.4255  -29.3048   22.3615 N   0  0  0  0  0  0
  -26.4286  -37.3749   23.9408 N   0  0  0  0  0  0
  -24.7158  -31.0325   22.0923 N   0  0  0  0  0  0
  -23.4210  -28.8096   23.3008 O   0  0  0  0  0  0
  -28.2796  -26.1752   20.2158 O   0  0  0  0  0  0
  -26.5655  -34.8906   22.4645 O   0  0  0  0  0  0
  -23.5543  -32.1325   23.7122 O   0  0  0  0  0  0
  -30.4979  -18.5502   20.3681 C   0  0  0  0  0  0
  -30.1918  -19.9876   20.3030 C   0  0  0  0  0  0
  -28.2013  -18.0915   20.6159 C   0  0  0  0  0  0
  -29.5058  -17.5125   20.5303 C   0  0  0  0  0  0
  -28.8604  -20.5427   20.3787 C   0  0  0  0  0  0
  -27.8953  -19.4982   20.5370 C   0  0  0  0  0  0
  -27.9814  -24.6559   20.0800 C   0  0  0  0  0  0
  -28.9666  -23.3090   20.3181 C   0  0  0  0  0  0
  -29.6181  -15.9877   20.6567 N   0  0  0  0  0  0
  -28.3436  -21.9122   20.2867 O   0  0  0  0  0  0
  -26.5907  -19.8568   20.6201 F   0  0  0  0  0  0
  -31.4867  -12.7370   19.1791 H   0  0  0  0  0  0
  -30.4561  -11.5962   19.9987 H   0  0  0  0  0  0
  -29.8377  -11.7454   17.5632 H   0  0  0  0  0  0
  -29.6191  -13.4710   17.7045 H   0  0  0  0  0  0
  -27.9424  -11.2750   18.9545 H   0  0  0  0  0  0
  -27.3955  -12.4747   17.8124 H   0  0  0  0  0  0
  -27.6160  -14.2467   19.4405 H   0  0  0  0  0  0
  -28.7608  -12.2155   21.4218 H   0  0  0  0  0  0
  -28.3869  -13.8773   21.7964 H   0  0  0  0  0  0
  -25.2769   -9.5672   22.4767 H   0  0  0  0  0  0
  -24.0000   -7.4629   22.7477 H   0  0  0  0  0  0
  -21.0844   -8.8784   19.8957 H   0  0  0  0  0  0
  -22.3712  -10.9678   19.6174 H   0  0  0  0  0  0
  -21.2010   -7.6149   23.9716 H   0  0  0  0  0  0
  -21.1480   -6.0523   25.9077 H   0  0  0  0  0  0
  -22.0597   -2.7608   23.2848 H   0  0  0  0  0  0
  -22.4083  -11.9878   22.4830 H   0  0  0  0  0  0
  -21.1084  -13.1242   22.2641 H   0  0  0  0  0  0
  -24.6295  -15.8261   20.4770 H   0  0  0  0  0  0
  -26.2182  -15.6066   19.9499 H   0  0  0  0  0  0
  -26.7265  -32.5316   23.1014 H   0  0  0  0  0  0
  -25.0077  -33.9626   25.0333 H   0  0  0  0  0  0
  -22.7472  -31.2910   21.3818 H   0  0  0  0  0  0
  -23.3757  -35.9590   23.3292 H   0  0  0  0  0  0
  -24.3578  -36.8903   22.2059 H   0  0  0  0  0  0
  -23.7245  -37.6454   23.6684 H   0  0  0  0  0  0
  -26.1536  -31.4794   20.6136 H   0  0  0  0  0  0
  -26.8721  -30.7754   22.0269 H   0  0  0  0  0  0
  -28.1335  -28.8156   21.2313 H   0  0  0  0  0  0
  -25.9102  -25.8553   19.0018 H   0  0  0  0  0  0
  -23.9801  -27.3016   18.9846 H   0  0  0  0  0  0
  -23.8070  -30.5716   19.3992 H   0  0  0  0  0  0
  -22.7864  -29.2380   19.8427 H   0  0  0  0  0  0
  -25.1309  -36.1869   25.0810 H   0  0  0  0  0  0
  -21.0010  -28.3306   24.1360 H   0  0  0  0  0  0
  -20.5685  -26.2330   23.3621 H   0  0  0  0  0  0
  -21.6654  -26.7429   22.1199 H   0  0  0  0  0  0
  -19.6921  -25.6286   21.1255 H   0  0  0  0  0  0
  -19.6694  -27.3179   20.6734 H   0  0  0  0  0  0
  -17.4210  -26.6673   21.4035 H   0  0  0  0  0  0
  -18.0346  -26.0078   22.9030 H   0  0  0  0  0  0
  -19.7952  -30.7291   24.2241 H   0  0  0  0  0  0
  -17.5025  -31.6268   24.5163 H   0  0  0  0  0  0
  -15.5364  -30.2977   23.7663 H   0  0  0  0  0  0
  -15.8691  -28.0808   22.7085 H   0  0  0  0  0  0
  -24.5894  -30.7094   25.7734 H   0  0  0  0  0  0
  -24.8898  -32.2930   26.4792 H   0  0  0  0  0  0
  -25.7998  -30.8952   27.0222 H   0  0  0  0  0  0
  -26.2998  -29.6690   24.1281 H   0  0  0  0  0  0
  -27.3997  -29.7256   25.4848 H   0  0  0  0  0  0
  -27.8906  -30.4204   23.9597 H   0  0  0  0  0  0
  -27.2645  -33.3646   26.2028 H   0  0  0  0  0  0
  -28.3892  -32.6860   25.0352 H   0  0  0  0  0  0
  -28.0689  -31.8488   26.5463 H   0  0  0  0  0  0
  -28.2585  -38.0091   24.7510 H   0  0  0  0  0  0
  -28.1079  -36.2622   24.6295 H   0  0  0  0  0  0
  -27.2293  -37.1437   25.8868 H   0  0  0  0  0  0
  -20.9461  -29.8768   21.6802 H   0  0  0  0  0  0
  -26.0155  -38.2818   24.1409 H   0  0  0  0  0  0
  -31.5349  -18.2525   20.2974 H   0  0  0  0  0  0
  -31.0171  -20.6732   20.1773 H   0  0  0  0  0  0
  -27.3590  -17.4297   20.7477 H   0  0  0  0  0  0
  -27.1214  -24.4889   20.7294 H   0  0  0  0  0  0
  -27.6025  -24.5258   19.0670 H   0  0  0  0  0  0
  -29.4518  -23.4117   21.2888 H   0  0  0  0  0  0
  -29.7707  -23.3307   19.5826 H   0  0  0  0  0  0
  -28.7268  -15.5824   20.8973 H   0  0  0  0  0  0
  1 25  1  0  0  0
  1 30  2  0  0  0
  1 79  1  0  0  0
  2  3  1  0  0  0
  2 25  1  0  0  0
  2 82  1  0  0  0
  2 83  1  0  0  0
  3  4  1  0  0  0
  3 84  1  0  0  0
  3 85  1  0  0  0
  4  5  1  0  0  0
  4 86  1  0  0  0
  4 87  1  0  0  0
  5  6  1  0  0  0
  5 26  1  0  0  0
  5 88  1  0  0  0
  6 25  1  0  0  0
  6 89  1  0  0  0
  6 90  1  0  0  0
  7  8  2  0  0  0
  7 26  1  0  0  0
  7 29  1  0  0  0
  8  9  1  0  0  0
  8 22  1  0  0  0
  9 10  1  0  0  0
  9 27  2  0  0  0
 10 11  2  0  0  0
 10 15  1  0  0  0
 11 12  1  0  0  0
 11 91  1  0  0  0
 12 13  2  0  0  0
 12 92  1  0  0  0
 13 14  1  0  0  0
 13 31  1  0  0  0
 14 15  2  0  0  0
 14 93  1  0  0  0
 15 94  1  0  0  0
 16 17  2  0  0  0
 16 21  1  0  0  0
 16 31  1  0  0  0
 17 18  1  0  0  0
 17 95  1  0  0  0
 18 19  2  0  0  0
 18 96  1  0  0  0
 19 20  1  0  0  0
 19 24  1  0  0  0
 20 21  2  0  0  0
 20 97  1  0  0  0
 21 23  1  0  0  0
 22 28  1  0  0  0
 22 32  2  0  0  0
 26 27  1  0  0  0
 28 98  1  0  0  0
 28 99  1  0  0  0
 29100  1  0  0  0
 29101  1  0  0  0
 33 34  1  0  0  0
 33 66  1  0  0  0
 33 70  2  0  0  0
 34 36  1  0  0  0
 34 59  1  0  0  0
 34102  1  0  0  0
 35 44  2  0  0  0
 35 45  1  0  0  0
 35 68  1  0  0  0
 36 56  1  0  0  0
 36103  1  0  0  0
 37 39  1  0  0  0
 37 47  1  0  0  0
 37 66  1  0  0  0
 37104  1  0  0  0
 38 43  2  0  0  0
 38 46  1  0  0  0
 38 47  1  0  0  0
 39 64  1  0  0  0
 39 67  2  0  0  0
 40 52  1  0  0  0
 40 53  2  0  0  0
 40 58  1  0  0  0
 41105  1  0  0  0
 41106  1  0  0  0
 41107  1  0  0  0
 41 48  1  0  0  0
 42 43  1  0  0  0
 42 66  1  0  0  0
 42108  1  0  0  0
 42109  1  0  0  0
 43 44  1  0  0  0
 44110  1  0  0  0
 45 46  2  0  0  0
 45111  1  0  0  0
 46112  1  0  0  0
 47113  1  0  0  0
 47114  1  0  0  0
 48 56  1  0  0  0
 48 65  1  0  0  0
 48115  1  0  0  0
 49 50  1  0  0  0
 49 53  1  0  0  0
 49 64  1  0  0  0
 49116  1  0  0  0
 50 51  1  0  0  0
 50117  1  0  0  0
 50118  1  0  0  0
 51 52  1  0  0  0
 51119  1  0  0  0
 51120  1  0  0  0
 52121  1  0  0  0
 52122  1  0  0  0
 53 54  1  0  0  0
 54 55  2  0  0  0
 54123  1  0  0  0
 55 57  1  0  0  0
 55124  1  0  0  0
 56 69  2  0  0  0
 57 58  2  0  0  0
 57125  1  0  0  0
 58126  1  0  0  0
 59 60  1  0  0  0
 59 61  1  0  0  0
 59 62  1  0  0  0
 60127  1  0  0  0
 60128  1  0  0  0
 60129  1  0  0  0
 61130  1  0  0  0
 61131  1  0  0  0
 61132  1  0  0  0
 62133  1  0  0  0
 62134  1  0  0  0
 62135  1  0  0  0
 63 65  1  0  0  0
 63136  1  0  0  0
 63137  1  0  0  0
 63138  1  0  0  0
 64139  1  0  0  0
 65140  1  0  0  0
 68 77  1  0  0  0
 71 72  2  0  0  0
 71 74  1  0  0  0
 71141  1  0  0  0
 72 75  1  0  0  0
 72142  1  0  0  0
 73 74  2  0  0  0
 73 76  1  0  0  0
 73143  1  0  0  0
 74 79  1  0  0  0
 75 76  2  0  0  0
 75 80  1  0  0  0
 76 81  1  0  0  0
 77 78  1  0  0  0
 77144  1  0  0  0
 77145  1  0  0  0
 78 80  1  0  0  0
 78146  1  0  0  0
 78147  1  0  0  0
 79148  1  0  0  0
M  ISO  4   1 100  68 101  77 101  79 100
M  END
> <chiral flag>
0

> <version>
0

> <s_m_source_file>
/data/baiqing/PycharmProjects/Reinvent-master-3.2/result/LINK_invent/BTK/process_docking_weight1_custom_product_contain_oxygen_bond_distance_aromatic_linkinvent_7_9_3/rearranged_h_0007.sdf

> <i_m_source_file_index>
22

> <r_mmod_Potential_Energy-OPLS-2005>
491.091247558594

> <r_mmod_Stretch_Energy-OPLS-2005>
216.953765869141

> <r_mmod_Bend_Energy-OPLS-2005>
302.484619140625

> <r_mmod_Torsional_Energy-OPLS-2005>
212.021713256836

> <r_mmod_Improper_Torsional_Energy-OPLS-2005>
4.76716709136963

> <r_mmod_Van_der_Waal_Energy-OPLS-2005>
130.573699951172

> <r_mmod_Electrostatic_Energy-OPLS-2005>
-337.487060546875

> <r_mmod_Solvation_Energy-OPLS-2005>
-212.451721191406

> <b_mmod_Minimization_Converged-OPLS-2005>
0

> <r_mmod_RMS_Derivative-OPLS-2005>
0.366873770952225

$$$$
22
                    3D
 Structure written by MMmdl.
163172  0  0  1  0            999 V2000
  -30.6795  -14.7319   20.4714 C   0  0  0  0  0  0
  -30.4157  -12.4676   19.4482 C   0  0  0  0  0  0
  -29.4893  -12.5070   18.2172 C   0  0  0  0  0  0
  -28.0189  -12.3369   18.6439 C   0  0  0  0  0  0
  -27.6367  -13.2338   19.8533 C   0  0  2  0  0  0
  -28.6961  -13.1542   20.9746 C   0  0  0  0  0  0
  -25.2482  -13.8203   20.5722 C   0  0  0  0  0  0
  -24.1780  -13.0440   20.9224 C   0  0  0  0  0  0
  -24.6382  -11.6921   20.8773 C   0  0  0  0  0  0
  -23.9066  -10.4293   21.0417 C   0  0  0  0  0  0
  -24.3618   -9.4205   21.9190 C   0  0  0  0  0  0
  -23.6294   -8.2239   22.0755 C   0  0  0  0  0  0
  -22.4277   -8.0279   21.3543 C   0  0  0  0  0  0
  -21.9914   -9.0254   20.4646 C   0  0  0  0  0  0
  -22.7241  -10.2134   20.3061 C   0  0  0  0  0  0
  -21.6853   -6.0735   22.5279 C   0  0  0  0  0  0
  -21.4014   -6.5640   23.8212 C   0  0  0  0  0  0
  -21.3660   -5.6792   24.9175 C   0  0  0  0  0  0
  -21.6045   -4.3055   24.7226 C   0  0  0  0  0  0
  -21.8819   -3.8147   23.4347 C   0  0  0  0  0  0
  -21.9192   -4.6963   22.3402 C   0  0  0  0  0  0
  -22.7801  -13.5217   21.1870 C   0  0  0  0  0  0
  -22.1661   -4.2149   21.0980 F   0  0  0  0  0  0
  -21.5630   -3.4539   25.7738 F   0  0  0  0  0  0
  -29.9691  -13.5506   20.3616 N   0  0  0  0  0  0
  -26.2922  -12.9419   20.3359 N   0  0  0  0  0  0
  -25.9319  -11.6557   20.5812 N   0  0  0  0  0  0
  -22.0448  -12.8208   22.0426 N   0  0  0  0  0  0
  -25.4143  -15.1923   20.4105 N   0  0  0  0  0  0
  -31.8886  -14.6766   20.2248 O   0  0  0  0  0  0
  -21.6640   -6.8877   21.4240 O   0  0  0  0  0  0
  -22.3486  -14.5521   20.6714 O   0  0  0  0  0  0
  -24.6308  -31.8568   23.2002 C   0  0  0  0  0  0
  -25.9138  -32.4762   23.8342 C   0  0  1  0  0  0
  -27.2119  -27.2709   20.1209 C   0  0  0  0  0  0
  -25.5937  -33.8564   24.2264 N   0  0  0  0  0  0
  -23.4260  -30.4817   21.5443 C   0  0  2  0  0  0
  -24.8704  -28.9336   20.1097 C   0  0  0  0  0  0
  -22.7499  -29.4613   22.4919 C   0  0  0  0  0  0
  -18.0291  -28.1388   22.8485 C   0  0  0  0  0  0
  -24.1490  -36.7285   23.2640 C   0  0  0  0  0  0
  -25.9725  -30.7728   21.3788 C   0  0  0  0  0  0
  -26.0438  -29.3977   20.7176 C   0  0  0  0  0  0
  -27.2187  -28.5797   20.7109 C   0  0  0  0  0  0
  -26.0133  -26.8766   19.4819 C   0  0  0  0  0  0
  -24.8602  -27.6812   19.4813 C   0  0  0  0  0  0
  -23.6423  -29.8200   20.1591 C   0  0  0  0  0  0
  -25.4117  -36.3074   24.0326 C   0  0  1  0  0  0
  -20.5895  -28.3698   23.1271 C   0  0  2  0  0  0
  -20.6780  -26.9417   22.5407 C   0  0  0  0  0  0
  -19.5754  -26.6385   21.5213 C   0  0  0  0  0  0
  -18.1935  -26.7930   22.1626 C   0  0  0  0  0  0
  -19.1545  -28.8860   23.2873 C   0  0  0  0  0  0
  -18.9466  -30.1461   23.8891 C   0  0  0  0  0  0
  -17.6464  -30.6588   24.0563 C   0  0  0  0  0  0
  -25.9058  -34.9444   23.5097 C   0  0  0  0  0  0
  -16.5356  -29.9085   23.6332 C   0  0  0  0  0  0
  -16.7278  -28.6503   23.0353 C   0  0  0  0  0  0
  -26.4504  -31.6585   25.0729 C   0  0  0  0  0  0
  -25.3724  -31.3733   26.1447 C   0  0  0  0  0  0
  -27.0354  -30.3001   24.6217 C   0  0  0  0  0  0
  -27.6055  -32.4328   25.7504 C   0  0  0  0  0  0
  -27.5579  -37.1801   24.8466 C   0  0  0  0  0  0
  -21.4208  -29.3047   22.3662 N   0  0  0  0  0  0
  -26.4292  -37.3772   23.9407 N   0  0  0  0  0  0
  -24.6957  -31.0544   22.0974 N   0  0  0  0  0  0
  -23.4207  -28.8147   23.3008 O   0  0  0  0  0  0
  -28.3030  -26.3738   20.1801 O   0  0  0  0  0  0
  -26.5629  -34.8915   22.4665 O   0  0  0  0  0  0
  -23.5461  -32.1386   23.7303 O   0  0  0  0  0  0
  -30.2765  -18.5003   19.6061 C   0  0  0  0  0  0
  -28.1759  -17.7832   20.6012 C   0  0  0  0  0  0
  -28.1797  -20.0607   19.3871 C   0  0  0  0  0  0
  -29.2932  -19.9636   21.5790 C   0  0  0  0  0  0
  -30.9407  -17.2247   20.2547 C   0  0  0  0  0  0
  -28.8818  -16.5018   21.2066 C   0  0  0  0  0  0
  -28.6454  -21.5625   19.2247 C   0  0  0  0  0  0
  -29.7146  -21.4768   21.3630 C   0  0  0  0  0  0
  -29.0141  -19.0869   20.3077 C   0  0  0  0  0  0
  -29.1516  -23.8035   20.4298 C   0  0  0  0  0  0
  -28.0287  -24.8985   20.0665 C   0  0  0  0  0  0
  -30.0809  -16.0107   20.4768 N   0  0  0  0  0  0
  -28.7786  -22.3017   20.5189 N   0  3  0  0  0  0
  -31.4524  -12.5758   19.1257 H   0  0  0  0  0  0
  -30.3657  -11.4955   19.9413 H   0  0  0  0  0  0
  -29.7665  -11.7260   17.5078 H   0  0  0  0  0  0
  -29.6128  -13.4561   17.6930 H   0  0  0  0  0  0
  -27.8749  -11.2876   18.9042 H   0  0  0  0  0  0
  -27.3546  -12.5335   17.8016 H   0  0  0  0  0  0
  -27.6299  -14.2566   19.4761 H   0  0  0  0  0  0
  -28.7572  -12.1368   21.3640 H   0  0  0  0  0  0
  -28.4487  -13.7662   21.8394 H   0  0  0  0  0  0
  -25.2760   -9.5683   22.4770 H   0  0  0  0  0  0
  -24.0003   -7.4630   22.7473 H   0  0  0  0  0  0
  -21.0845   -8.8774   19.8951 H   0  0  0  0  0  0
  -22.3698  -10.9676   19.6173 H   0  0  0  0  0  0
  -21.2006   -7.6148   23.9716 H   0  0  0  0  0  0
  -21.1482   -6.0522   25.9078 H   0  0  0  0  0  0
  -22.0598   -2.7609   23.2847 H   0  0  0  0  0  0
  -22.4068  -11.9871   22.4816 H   0  0  0  0  0  0
  -21.1064  -13.1229   22.2630 H   0  0  0  0  0  0
  -24.6463  -15.8447   20.5228 H   0  0  0  0  0  0
  -26.2672  -15.6335   20.0933 H   0  0  0  0  0  0
  -26.7204  -32.5411   23.1083 H   0  0  0  0  0  0
  -25.0079  -33.9703   25.0406 H   0  0  0  0  0  0
  -22.7220  -31.3041   21.4014 H   0  0  0  0  0  0
  -23.3753  -35.9617   23.3303 H   0  0  0  0  0  0
  -24.3579  -36.8908   22.2054 H   0  0  0  0  0  0
  -23.7242  -37.6486   23.6664 H   0  0  0  0  0  0
  -26.1127  -31.5359   20.6119 H   0  0  0  0  0  0
  -26.8497  -30.8181   22.0127 H   0  0  0  0  0  0
  -28.1166  -28.9297   21.2008 H   0  0  0  0  0  0
  -25.9273  -25.9238   18.9829 H   0  0  0  0  0  0
  -23.9621  -27.3223   18.9974 H   0  0  0  0  0  0
  -23.7670  -30.5984   19.4054 H   0  0  0  0  0  0
  -22.7599  -29.2551   19.8530 H   0  0  0  0  0  0
  -25.1299  -36.1923   25.0819 H   0  0  0  0  0  0
  -20.9987  -28.3275   24.1392 H   0  0  0  0  0  0
  -20.5685  -26.2307   23.3611 H   0  0  0  0  0  0
  -21.6647  -26.7445   22.1197 H   0  0  0  0  0  0
  -19.6916  -25.6295   21.1244 H   0  0  0  0  0  0
  -19.6690  -27.3194   20.6741 H   0  0  0  0  0  0
  -17.4204  -26.6676   21.4029 H   0  0  0  0  0  0
  -18.0336  -26.0073   22.9024 H   0  0  0  0  0  0
  -19.7941  -30.7280   24.2257 H   0  0  0  0  0  0
  -17.5018  -31.6267   24.5166 H   0  0  0  0  0  0
  -15.5356  -30.2985   23.7660 H   0  0  0  0  0  0
  -15.8678  -28.0821   22.7071 H   0  0  0  0  0  0
  -24.5903  -30.7080   25.7773 H   0  0  0  0  0  0
  -24.8911  -32.2902   26.4860 H   0  0  0  0  0  0
  -25.8038  -30.8919   27.0232 H   0  0  0  0  0  0
  -26.2942  -29.6746   24.1230 H   0  0  0  0  0  0
  -27.4022  -29.7268   25.4741 H   0  0  0  0  0  0
  -27.8825  -30.4276   23.9473 H   0  0  0  0  0  0
  -27.2659  -33.3632   26.2069 H   0  0  0  0  0  0
  -28.3872  -32.6884   25.0338 H   0  0  0  0  0  0
  -28.0716  -31.8464   26.5432 H   0  0  0  0  0  0
  -28.2597  -38.0097   24.7509 H   0  0  0  0  0  0
  -28.1074  -36.2627   24.6298 H   0  0  0  0  0  0
  -27.2295  -37.1456   25.8869 H   0  0  0  0  0  0
  -20.9391  -29.8775   21.6873 H   0  0  0  0  0  0
  -26.0172  -38.2846   24.1404 H   0  0  0  0  0  0
  -30.0092  -18.2323   18.5827 H   0  0  0  0  0  0
  -31.0292  -19.2833   19.5059 H   0  0  0  0  0  0
  -27.3261  -18.0400   21.2354 H   0  0  0  0  0  0
  -27.7266  -17.4654   19.6587 H   0  0  0  0  0  0
  -28.0854  -19.6214   18.3932 H   0  0  0  0  0  0
  -27.1586  -20.0905   19.7702 H   0  0  0  0  0  0
  -28.3909  -19.9706   22.1918 H   0  0  0  0  0  0
  -30.0449  -19.4704   22.1960 H   0  0  0  0  0  0
  -31.3791  -17.5007   21.2149 H   0  0  0  0  0  0
  -31.7886  -16.9815   19.6126 H   0  0  0  0  0  0
  -28.1197  -15.7342   21.2608 H   0  0  0  0  0  0
  -29.1736  -16.7033   22.2383 H   0  0  0  0  0  0
  -27.9319  -22.0904   18.5912 H   0  0  0  0  0  0
  -29.5987  -21.5911   18.6949 H   0  0  0  0  0  0
  -30.7103  -21.5106   20.9182 H   0  0  0  0  0  0
  -29.8110  -21.9491   22.3412 H   0  0  0  0  0  0
  -29.5373  -24.0912   21.4079 H   0  0  0  0  0  0
  -29.9934  -23.9147   19.7460 H   0  0  0  0  0  0
  -27.1630  -24.6830   20.6943 H   0  0  0  0  0  0
  -27.7206  -24.6964   19.0406 H   0  0  0  0  0  0
  -27.8806  -22.2600   20.9799 H   0  0  0  0  0  0
  1 25  1  0  0  0
  1 30  2  0  0  0
  1 82  1  0  0  0
  2  3  1  0  0  0
  2 25  1  0  0  0
  2 84  1  0  0  0
  2 85  1  0  0  0
  3  4  1  0  0  0
  3 86  1  0  0  0
  3 87  1  0  0  0
  4  5  1  0  0  0
  4 88  1  0  0  0
  4 89  1  0  0  0
  5  6  1  0  0  0
  5 26  1  0  0  0
  5 90  1  0  0  0
  6 25  1  0  0  0
  6 91  1  0  0  0
  6 92  1  0  0  0
  7  8  2  0  0  0
  7 26  1  0  0  0
  7 29  1  0  0  0
  8  9  1  0  0  0
  8 22  1  0  0  0
  9 10  1  0  0  0
  9 27  2  0  0  0
 10 11  2  0  0  0
 10 15  1  0  0  0
 11 12  1  0  0  0
 11 93  1  0  0  0
 12 13  2  0  0  0
 12 94  1  0  0  0
 13 14  1  0  0  0
 13 31  1  0  0  0
 14 15  2  0  0  0
 14 95  1  0  0  0
 15 96  1  0  0  0
 16 17  2  0  0  0
 16 21  1  0  0  0
 16 31  1  0  0  0
 17 18  1  0  0  0
 17 97  1  0  0  0
 18 19  2  0  0  0
 18 98  1  0  0  0
 19 20  1  0  0  0
 19 24  1  0  0  0
 20 21  2  0  0  0
 20 99  1  0  0  0
 21 23  1  0  0  0
 22 28  1  0  0  0
 22 32  2  0  0  0
 26 27  1  0  0  0
 28100  1  0  0  0
 28101  1  0  0  0
 29102  1  0  0  0
 29103  1  0  0  0
 33 34  1  0  0  0
 33 66  1  0  0  0
 33 70  2  0  0  0
 34 36  1  0  0  0
 34 59  1  0  0  0
 34104  1  0  0  0
 35 44  2  0  0  0
 35 45  1  0  0  0
 35 68  1  0  0  0
 36 56  1  0  0  0
 36105  1  0  0  0
 37 39  1  0  0  0
 37 47  1  0  0  0
 37 66  1  0  0  0
 37106  1  0  0  0
 38 43  2  0  0  0
 38 46  1  0  0  0
 38 47  1  0  0  0
 39 64  1  0  0  0
 39 67  2  0  0  0
 40 52  1  0  0  0
 40 53  2  0  0  0
 40 58  1  0  0  0
 41107  1  0  0  0
 41108  1  0  0  0
 41109  1  0  0  0
 41 48  1  0  0  0
 42 43  1  0  0  0
 42 66  1  0  0  0
 42110  1  0  0  0
 42111  1  0  0  0
 43 44  1  0  0  0
 44112  1  0  0  0
 45 46  2  0  0  0
 45113  1  0  0  0
 46114  1  0  0  0
 47115  1  0  0  0
 47116  1  0  0  0
 48 56  1  0  0  0
 48 65  1  0  0  0
 48117  1  0  0  0
 49 50  1  0  0  0
 49 53  1  0  0  0
 49 64  1  0  0  0
 49118  1  0  0  0
 50 51  1  0  0  0
 50119  1  0  0  0
 50120  1  0  0  0
 51 52  1  0  0  0
 51121  1  0  0  0
 51122  1  0  0  0
 52123  1  0  0  0
 52124  1  0  0  0
 53 54  1  0  0  0
 54 55  2  0  0  0
 54125  1  0  0  0
 55 57  1  0  0  0
 55126  1  0  0  0
 56 69  2  0  0  0
 57 58  2  0  0  0
 57127  1  0  0  0
 58128  1  0  0  0
 59 60  1  0  0  0
 59 61  1  0  0  0
 59 62  1  0  0  0
 60129  1  0  0  0
 60130  1  0  0  0
 60131  1  0  0  0
 61132  1  0  0  0
 61133  1  0  0  0
 61134  1  0  0  0
 62135  1  0  0  0
 62136  1  0  0  0
 62137  1  0  0  0
 63 65  1  0  0  0
 63138  1  0  0  0
 63139  1  0  0  0
 63140  1  0  0  0
 64141  1  0  0  0
 65142  1  0  0  0
 68 81  1  0  0  0
 71 75  1  0  0  0
 71143  1  0  0  0
 71144  1  0  0  0
 71 79  1  0  0  0
 72 76  1  0  0  0
 72 79  1  0  0  0
 72145  1  0  0  0
 72146  1  0  0  0
 73 77  1  0  0  0
 73 79  1  0  0  0
 73147  1  0  0  0
 73148  1  0  0  0
 74 78  1  0  0  0
 74 79  1  0  0  0
 74149  1  0  0  0
 74150  1  0  0  0
 75 82  1  0  0  0
 75151  1  0  0  0
 75152  1  0  0  0
 76 82  1  0  0  0
 76153  1  0  0  0
 76154  1  0  0  0
 77 83  1  0  0  0
 77155  1  0  0  0
 77156  1  0  0  0
 78 83  1  0  0  0
 78157  1  0  0  0
 78158  1  0  0  0
 80 81  1  0  0  0
 80159  1  0  0  0
 80160  1  0  0  0
 80 83  1  0  0  0
 81161  1  0  0  0
 81162  1  0  0  0
 83163  1  0  0  0
M  CHG  1  83   1
M  ISO  4   1 100  68 101  81 101  82 100
M  END
> <chiral flag>
0

> <version>
0

> <s_m_source_file>
/data/baiqing/PycharmProjects/Reinvent-master-3.2/result/LINK_invent/BTK/process_docking_weight1_custom_product_contain_oxygen_bond_distance_aromatic_linkinvent_7_9_3/rearranged_h_0007.sdf

> <i_m_source_file_index>
23

> <r_mmod_Potential_Energy-OPLS-2005>
340.579406738281

> <r_mmod_Stretch_Energy-OPLS-2005>
114.526351928711

> <r_mmod_Bend_Energy-OPLS-2005>
211.32292175293

> <r_mmod_Torsional_Energy-OPLS-2005>
345.194122314453

> <r_mmod_Improper_Torsional_Energy-OPLS-2005>
11.9003200531006

> <r_mmod_Van_der_Waal_Energy-OPLS-2005>
138.781845092773

> <r_mmod_Electrostatic_Energy-OPLS-2005>
-142.654190063477

> <r_mmod_Solvation_Energy-OPLS-2005>
-421.931793212891

> <b_mmod_Minimization_Converged-OPLS-2005>
0

> <r_mmod_RMS_Derivative-OPLS-2005>
0.132576197385788

$$$$
23
                    3D
 Structure written by MMmdl.
149157  0  0  1  0            999 V2000
  -30.3848  -15.3873   20.3425 C   0  0  0  0  0  0
  -30.4371  -12.8929   19.5429 C   0  0  0  0  0  0
  -29.5382  -12.5977   18.3111 C   0  0  0  0  0  0
  -28.1001  -12.2829   18.7496 C   0  0  0  0  0  0
  -27.6047  -13.2824   19.8201 C   0  0  2  0  0  0
  -28.6296  -13.5142   20.9537 C   0  0  0  0  0  0
  -25.2354  -13.8261   20.5756 C   0  0  0  0  0  0
  -24.1716  -13.0443   20.9273 C   0  0  0  0  0  0
  -24.6388  -11.6937   20.8771 C   0  0  0  0  0  0
  -23.9082  -10.4292   21.0398 C   0  0  0  0  0  0
  -24.3620   -9.4201   21.9183 C   0  0  0  0  0  0
  -23.6288   -8.2238   22.0750 C   0  0  0  0  0  0
  -22.4274   -8.0281   21.3538 C   0  0  0  0  0  0
  -21.9910   -9.0252   20.4636 C   0  0  0  0  0  0
  -22.7245  -10.2128   20.3047 C   0  0  0  0  0  0
  -21.6852   -6.0724   22.5267 C   0  0  0  0  0  0
  -21.4008   -6.5635   23.8197 C   0  0  0  0  0  0
  -21.3649   -5.6788   24.9163 C   0  0  0  0  0  0
  -21.6047   -4.3053   24.7219 C   0  0  0  0  0  0
  -21.8820   -3.8136   23.4348 C   0  0  0  0  0  0
  -21.9195   -4.6950   22.3400 C   0  0  0  0  0  0
  -22.7728  -13.5170   21.1925 C   0  0  0  0  0  0
  -22.1660   -4.2141   21.0977 F   0  0  0  0  0  0
  -21.5629   -3.4539   25.7731 F   0  0  0  0  0  0
  -29.8532  -14.0515   20.3322 N   0  0  0  0  0  0
  -26.2781  -12.9543   20.3207 N   0  0  0  0  0  0
  -25.9324  -11.6644   20.5717 N   0  0  0  0  0  0
  -22.0389  -12.8146   22.0474 N   0  0  0  0  0  0
  -25.3985  -15.2000   20.4172 N   0  0  0  0  0  0
  -31.6000  -15.3785   20.0827 O   0  0  0  0  0  0
  -21.6638   -6.8877   21.4237 O   0  0  0  0  0  0
  -22.3404  -14.5479   20.6767 O   0  0  0  0  0  0
  -24.6715  -31.8136   23.1604 C   0  0  0  0  0  0
  -25.9343  -32.4534   23.8113 C   0  0  1  0  0  0
  -27.2112  -26.8506   20.1870 C   0  0  0  0  0  0
  -25.5970  -33.8350   24.2036 N   0  0  0  0  0  0
  -23.4911  -30.4236   21.5099 C   0  0  2  0  0  0
  -24.9394  -28.7931   20.1070 C   0  0  0  0  0  0
  -22.7709  -29.4379   22.4710 C   0  0  0  0  0  0
  -18.0338  -28.1434   22.8462 C   0  0  0  0  0  0
  -24.1477  -36.7178   23.2655 C   0  0  0  0  0  0
  -26.0616  -30.5961   21.3992 C   0  0  0  0  0  0
  -26.1230  -29.1755   20.7488 C   0  0  0  0  0  0
  -27.2460  -28.2228   20.7667 C   0  0  0  0  0  0
  -26.0036  -26.6382   19.4817 C   0  0  0  0  0  0
  -24.9076  -27.5467   19.4559 C   0  0  0  0  0  0
  -23.7329  -29.7327   20.1380 C   0  0  0  0  0  0
  -25.4110  -36.2942   24.0320 C   0  0  1  0  0  0
  -20.5971  -28.3771   23.1164 C   0  0  2  0  0  0
  -20.6801  -26.9441   22.5388 C   0  0  0  0  0  0
  -19.5768  -26.6397   21.5222 C   0  0  0  0  0  0
  -18.1948  -26.7971   22.1617 C   0  0  0  0  0  0
  -19.1599  -28.8922   23.2812 C   0  0  0  0  0  0
  -18.9515  -30.1507   23.8859 C   0  0  0  0  0  0
  -17.6504  -30.6604   24.0568 C   0  0  0  0  0  0
  -25.9097  -34.9329   23.5008 C   0  0  0  0  0  0
  -16.5393  -29.9096   23.6352 C   0  0  0  0  0  0
  -16.7319  -28.6525   23.0356 C   0  0  0  0  0  0
  -26.4586  -31.6514   25.0681 C   0  0  0  0  0  0
  -25.3700  -31.3770   26.1334 C   0  0  0  0  0  0
  -27.0497  -30.2879   24.6432 C   0  0  0  0  0  0
  -27.6073  -32.4340   25.7475 C   0  0  0  0  0  0
  -27.5561  -37.1724   24.8466 C   0  0  0  0  0  0
  -21.4367  -29.3047   22.3488 N   0  0  0  0  0  0
  -26.4237  -37.3692   23.9455 N   0  0  0  0  0  0
  -24.7642  -30.9733   22.0778 N   0  0  0  0  0  0
  -23.4207  -28.7941   23.2990 O   0  0  0  0  0  0
  -28.2087  -25.7259   20.3148 O   0  0  0  0  0  0
  -26.5696  -34.8892   22.4603 O   0  0  0  0  0  0
  -23.5763  -32.1138   23.6647 O   0  0  0  0  0  0
  -30.8167  -19.9385   18.6529 C   0  0  0  0  0  0
  -30.6635  -18.6251   19.1759 C   0  0  0  0  0  0
  -28.9786  -19.6037   20.5931 C   0  0  0  0  0  0
  -30.0916  -21.1005   19.0552 C   0  0  0  0  0  0
  -29.1219  -21.0869   20.0939 C   0  0  0  0  0  0
  -29.7154  -18.2857   20.1626 C   0  0  0  0  0  0
  -30.4148  -22.4017   18.3364 C   0  0  0  0  0  0
  -28.5236  -22.6969   20.6213 C   0  0  0  0  0  0
  -29.6108  -16.6744   20.5150 N   0  0  0  0  0  0
  -27.9704  -24.0672   19.8479 N   0  0  0  0  0  0
  -31.4458  -13.1175   19.1942 H   0  0  0  0  0  0
  -30.5447  -12.0093   20.1748 H   0  0  0  0  0  0
  -29.9469  -11.7703   17.7292 H   0  0  0  0  0  0
  -29.5331  -13.4665   17.6519 H   0  0  0  0  0  0
  -28.0955  -11.2753   19.1679 H   0  0  0  0  0  0
  -27.4285  -12.2615   17.8917 H   0  0  0  0  0  0
  -27.5043  -14.2276   19.2858 H   0  0  0  0  0  0
  -28.8223  -12.5968   21.5125 H   0  0  0  0  0  0
  -28.2426  -14.2398   21.6697 H   0  0  0  0  0  0
  -25.2756   -9.5682   22.4772 H   0  0  0  0  0  0
  -23.9988   -7.4631   22.7476 H   0  0  0  0  0  0
  -21.0836   -8.8766   19.8946 H   0  0  0  0  0  0
  -22.3693  -10.9663   19.6162 H   0  0  0  0  0  0
  -21.1994   -7.6144   23.9700 H   0  0  0  0  0  0
  -21.1466   -6.0518   25.9064 H   0  0  0  0  0  0
  -22.0611   -2.7606   23.2845 H   0  0  0  0  0  0
  -22.4005  -11.9797   22.4841 H   0  0  0  0  0  0
  -21.1000  -13.1149   22.2679 H   0  0  0  0  0  0
  -24.6290  -15.8511   20.5330 H   0  0  0  0  0  0
  -26.2317  -15.6368   20.0443 H   0  0  0  0  0  0
  -26.7403  -32.5056   23.0822 H   0  0  0  0  0  0
  -25.0130  -33.9404   25.0199 H   0  0  0  0  0  0
  -22.8119  -31.2592   21.3280 H   0  0  0  0  0  0
  -23.3769  -35.9481   23.3259 H   0  0  0  0  0  0
  -24.3564  -36.8870   22.2083 H   0  0  0  0  0  0
  -23.7201  -37.6340   23.6730 H   0  0  0  0  0  0
  -26.2430  -31.3253   20.6084 H   0  0  0  0  0  0
  -26.9246  -30.6582   22.0517 H   0  0  0  0  0  0
  -28.1422  -28.5032   21.3026 H   0  0  0  0  0  0
  -25.8683  -25.6907   18.9776 H   0  0  0  0  0  0
  -24.0068  -27.2509   18.9340 H   0  0  0  0  0  0
  -23.8973  -30.4958   19.3764 H   0  0  0  0  0  0
  -22.8424  -29.1908   19.8155 H   0  0  0  0  0  0
  -25.1297  -36.1728   25.0805 H   0  0  0  0  0  0
  -21.0085  -28.3390   24.1288 H   0  0  0  0  0  0
  -20.5688  -26.2385   23.3643 H   0  0  0  0  0  0
  -21.6656  -26.7400   22.1197 H   0  0  0  0  0  0
  -19.6924  -25.6308   21.1242 H   0  0  0  0  0  0
  -19.6717  -27.3214   20.6755 H   0  0  0  0  0  0
  -17.4228  -26.6751   21.4015 H   0  0  0  0  0  0
  -18.0312  -26.0123   22.9018 H   0  0  0  0  0  0
  -19.7986  -30.7319   24.2213 H   0  0  0  0  0  0
  -17.5056  -31.6281   24.5187 H   0  0  0  0  0  0
  -15.5388  -30.2977   23.7710 H   0  0  0  0  0  0
  -15.8723  -28.0826   22.7092 H   0  0  0  0  0  0
  -24.5942  -30.7037   25.7652 H   0  0  0  0  0  0
  -24.8826  -32.2965   26.4582 H   0  0  0  0  0  0
  -25.7950  -30.9081   27.0224 H   0  0  0  0  0  0
  -26.3168  -29.6529   24.1427 H   0  0  0  0  0  0
  -27.4024  -29.7264   25.5096 H   0  0  0  0  0  0
  -27.9110  -30.4073   23.9854 H   0  0  0  0  0  0
  -27.2659  -33.3726   26.1850 H   0  0  0  0  0  0
  -28.3983  -32.6739   25.0357 H   0  0  0  0  0  0
  -28.0622  -31.8583   26.5555 H   0  0  0  0  0  0
  -28.2502  -38.0083   24.7570 H   0  0  0  0  0  0
  -28.1115  -36.2612   24.6199 H   0  0  0  0  0  0
  -27.2291  -37.1262   25.8862 H   0  0  0  0  0  0
  -20.9633  -29.8741   21.6619 H   0  0  0  0  0  0
  -26.0085  -38.2737   24.1513 H   0  0  0  0  0  0
  -31.5590  -20.0560   17.8764 H   0  0  0  0  0  0
  -31.2968  -17.8487   18.7696 H   0  0  0  0  0  0
  -28.2544  -19.4666   21.3830 H   0  0  0  0  0  0
  -29.5929  -22.6867   17.6785 H   0  0  0  0  0  0
  -31.3076  -22.3102   17.7177 H   0  0  0  0  0  0
  -30.5946  -23.2136   19.0389 H   0  0  0  0  0  0
  -29.3382  -23.0679   21.2410 H   0  0  0  0  0  0
  -27.7353  -22.4725   21.3409 H   0  0  0  0  0  0
  -28.7031  -16.4498   20.8936 H   0  0  0  0  0  0
  -28.1430  -24.0182   18.8488 H   0  0  0  0  0  0
  1 25  1  0  0  0
  1 30  2  0  0  0
  1 79  1  0  0  0
  2  3  1  0  0  0
  2 25  1  0  0  0
  2 81  1  0  0  0
  2 82  1  0  0  0
  3  4  1  0  0  0
  3 83  1  0  0  0
  3 84  1  0  0  0
  4  5  1  0  0  0
  4 85  1  0  0  0
  4 86  1  0  0  0
  5  6  1  0  0  0
  5 26  1  0  0  0
  5 87  1  0  0  0
  6 25  1  0  0  0
  6 88  1  0  0  0
  6 89  1  0  0  0
  7  8  2  0  0  0
  7 26  1  0  0  0
  7 29  1  0  0  0
  8  9  1  0  0  0
  8 22  1  0  0  0
  9 10  1  0  0  0
  9 27  2  0  0  0
 10 11  2  0  0  0
 10 15  1  0  0  0
 11 12  1  0  0  0
 11 90  1  0  0  0
 12 13  2  0  0  0
 12 91  1  0  0  0
 13 14  1  0  0  0
 13 31  1  0  0  0
 14 15  2  0  0  0
 14 92  1  0  0  0
 15 93  1  0  0  0
 16 17  2  0  0  0
 16 21  1  0  0  0
 16 31  1  0  0  0
 17 18  1  0  0  0
 17 94  1  0  0  0
 18 19  2  0  0  0
 18 95  1  0  0  0
 19 20  1  0  0  0
 19 24  1  0  0  0
 20 21  2  0  0  0
 20 96  1  0  0  0
 21 23  1  0  0  0
 22 28  1  0  0  0
 22 32  2  0  0  0
 26 27  1  0  0  0
 28 97  1  0  0  0
 28 98  1  0  0  0
 29 99  1  0  0  0
 29100  1  0  0  0
 33 34  1  0  0  0
 33 66  1  0  0  0
 33 70  2  0  0  0
 34 36  1  0  0  0
 34 59  1  0  0  0
 34101  1  0  0  0
 35 44  2  0  0  0
 35 45  1  0  0  0
 35 68  1  0  0  0
 36 56  1  0  0  0
 36102  1  0  0  0
 37 39  1  0  0  0
 37 47  1  0  0  0
 37 66  1  0  0  0
 37103  1  0  0  0
 38 43  2  0  0  0
 38 46  1  0  0  0
 38 47  1  0  0  0
 39 64  1  0  0  0
 39 67  2  0  0  0
 40 52  1  0  0  0
 40 53  2  0  0  0
 40 58  1  0  0  0
 41104  1  0  0  0
 41105  1  0  0  0
 41106  1  0  0  0
 41 48  1  0  0  0
 42 43  1  0  0  0
 42 66  1  0  0  0
 42107  1  0  0  0
 42108  1  0  0  0
 43 44  1  0  0  0
 44109  1  0  0  0
 45 46  2  0  0  0
 45110  1  0  0  0
 46111  1  0  0  0
 47112  1  0  0  0
 47113  1  0  0  0
 48 56  1  0  0  0
 48 65  1  0  0  0
 48114  1  0  0  0
 49 50  1  0  0  0
 49 53  1  0  0  0
 49 64  1  0  0  0
 49115  1  0  0  0
 50 51  1  0  0  0
 50116  1  0  0  0
 50117  1  0  0  0
 51 52  1  0  0  0
 51118  1  0  0  0
 51119  1  0  0  0
 52120  1  0  0  0
 52121  1  0  0  0
 53 54  1  0  0  0
 54 55  2  0  0  0
 54122  1  0  0  0
 55 57  1  0  0  0
 55123  1  0  0  0
 56 69  2  0  0  0
 57 58  2  0  0  0
 57124  1  0  0  0
 58125  1  0  0  0
 59 60  1  0  0  0
 59 61  1  0  0  0
 59 62  1  0  0  0
 60126  1  0  0  0
 60127  1  0  0  0
 60128  1  0  0  0
 61129  1  0  0  0
 61130  1  0  0  0
 61131  1  0  0  0
 62132  1  0  0  0
 62133  1  0  0  0
 62134  1  0  0  0
 63 65  1  0  0  0
 63135  1  0  0  0
 63136  1  0  0  0
 63137  1  0  0  0
 64138  1  0  0  0
 65139  1  0  0  0
 68 80  1  0  0  0
 71 72  2  0  0  0
 71 74  1  0  0  0
 71140  1  0  0  0
 72 76  1  0  0  0
 72141  1  0  0  0
 73 75  1  0  0  0
 73 76  2  0  0  0
 73142  1  0  0  0
 74 75  2  0  0  0
 74 77  1  0  0  0
 75 78  1  0  0  0
 76 79  1  0  0  0
 77143  1  0  0  0
 77144  1  0  0  0
 77145  1  0  0  0
 78 80  1  0  0  0
 78146  1  0  0  0
 78147  1  0  0  0
 79148  1  0  0  0
 80149  1  0  0  0
M  ISO  4   1 100  68 101  79 100  80 101
M  END
> <chiral flag>
0

> <version>
0

> <s_m_source_file>
/data/baiqing/PycharmProjects/Reinvent-master-3.2/result/LINK_invent/BTK/process_docking_weight1_custom_product_contain_oxygen_bond_distance_aromatic_linkinvent_7_9_3/rearranged_h_0007.sdf

> <i_m_source_file_index>
24

> <r_mmod_Potential_Energy-OPLS-2005>
1542.29150390625

> <r_mmod_Stretch_Energy-OPLS-2005>
705.959106445312

> <r_mmod_Bend_Energy-OPLS-2005>
474.744415283203

> <r_mmod_Torsional_Energy-OPLS-2005>
228.256698608398

> <r_mmod_Improper_Torsional_Energy-OPLS-2005>
3.55792856216431

> <r_mmod_Van_der_Waal_Energy-OPLS-2005>
128.089080810547

> <r_mmod_Electrostatic_Energy-OPLS-2005>
-368.720642089844

> <r_mmod_Solvation_Energy-OPLS-2005>
-220.327667236328

> <b_mmod_Minimization_Converged-OPLS-2005>
0

> <r_mmod_RMS_Derivative-OPLS-2005>
3.69775557518005

$$$$
24
                    3D
 Structure written by MMmdl.
140147  0  0  1  0            999 V2000
  -30.1611  -16.0041   20.3080 C   0  0  0  0  0  0
  -30.3940  -13.3709   19.5193 C   0  0  0  0  0  0
  -29.5602  -12.7495   18.3505 C   0  0  0  0  0  0
  -28.1679  -12.3098   18.8207 C   0  0  0  0  0  0
  -27.5837  -13.3431   19.8035 C   0  0  2  0  0  0
  -28.5794  -13.8362   20.8889 C   0  0  0  0  0  0
  -25.2278  -13.8329   20.5856 C   0  0  0  0  0  0
  -24.1700  -13.0433   20.9315 C   0  0  0  0  0  0
  -24.6450  -11.6960   20.8763 C   0  0  0  0  0  0
  -23.9156  -10.4295   21.0384 C   0  0  0  0  0  0
  -24.3676   -9.4207   21.9173 C   0  0  0  0  0  0
  -23.6326   -8.2253   22.0753 C   0  0  0  0  0  0
  -22.4305   -8.0296   21.3544 C   0  0  0  0  0  0
  -21.9960   -9.0273   20.4641 C   0  0  0  0  0  0
  -22.7315  -10.2138   20.3042 C   0  0  0  0  0  0
  -21.6863   -6.0747   22.5279 C   0  0  0  0  0  0
  -21.4022   -6.5646   23.8213 C   0  0  0  0  0  0
  -21.3661   -5.6796   24.9173 C   0  0  0  0  0  0
  -21.6044   -4.3059   24.7222 C   0  0  0  0  0  0
  -21.8818   -3.8153   23.4342 C   0  0  0  0  0  0
  -21.9196   -4.6972   22.3400 C   0  0  0  0  0  0
  -22.7702  -13.5137   21.1934 C   0  0  0  0  0  0
  -22.1662   -4.2158   21.0977 F   0  0  0  0  0  0
  -21.5626   -3.4540   25.7734 F   0  0  0  0  0  0
  -29.6775  -14.5802   20.1919 N   0  0  0  0  0  0
  -26.2769  -12.9729   20.3291 N   0  0  0  0  0  0
  -25.9412  -11.6758   20.5682 N   0  0  0  0  0  0
  -22.0374  -12.8106   22.0483 N   0  0  0  0  0  0
  -25.3817  -15.2078   20.4306 N   0  0  0  0  0  0
  -31.4087  -15.8722   20.2822 O   0  0  0  0  0  0
  -21.6655   -6.8899   21.4244 O   0  0  0  0  0  0
  -22.3368  -14.5432   20.6768 O   0  0  0  0  0  0
  -24.7122  -31.7741   23.1306 C   0  0  0  0  0  0
  -25.9575  -32.4339   23.7956 C   0  0  1  0  0  0
  -27.2357  -26.4414   20.2493 C   0  0  0  0  0  0
  -25.6043  -33.8173   24.1821 N   0  0  0  0  0  0
  -23.5502  -30.3697   21.4913 C   0  0  2  0  0  0
  -25.0042  -28.6446   20.1367 C   0  0  0  0  0  0
  -22.7896  -29.4343   22.4700 C   0  0  0  0  0  0
  -18.0162  -28.1569   22.8214 C   0  0  0  0  0  0
  -24.1498  -36.7093   23.2657 C   0  0  0  0  0  0
  -26.1405  -30.4200   21.4324 C   0  0  0  0  0  0
  -26.2010  -28.9529   20.7936 C   0  0  0  0  0  0
  -27.2917  -27.8910   20.8024 C   0  0  0  0  0  0
  -25.9991  -26.4075   19.5352 C   0  0  0  0  0  0
  -24.9575  -27.3998   19.4818 C   0  0  0  0  0  0
  -23.8153  -29.6344   20.1422 C   0  0  0  0  0  0
  -25.4158  -36.2817   24.0263 C   0  0  1  0  0  0
  -20.6073  -28.3875   23.0881 C   0  0  2  0  0  0
  -20.7786  -26.9756   22.4608 C   0  0  0  0  0  0
  -19.5498  -26.4216   21.7088 C   0  0  0  0  0  0
  -18.1097  -26.8638   22.0237 C   0  0  0  0  0  0
  -19.1588  -28.8842   23.2637 C   0  0  0  0  0  0
  -18.9570  -30.1345   23.8911 C   0  0  0  0  0  0
  -17.6624  -30.6560   24.0765 C   0  0  0  0  0  0
  -25.9160  -34.9216   23.4892 C   0  0  0  0  0  0
  -16.5419  -29.9202   23.6574 C   0  0  0  0  0  0
  -16.7219  -28.6723   23.0397 C   0  0  0  0  0  0
  -26.4648  -31.6466   25.0680 C   0  0  0  0  0  0
  -25.3637  -31.3855   26.1238 C   0  0  0  0  0  0
  -27.0614  -30.2776   24.6755 C   0  0  0  0  0  0
  -27.6047  -32.4377   25.7524 C   0  0  0  0  0  0
  -27.5558  -37.1705   24.8467 C   0  0  0  0  0  0
  -21.4495  -29.3435   22.3578 N   0  0  0  0  0  0
  -26.4262  -37.3606   23.9409 N   0  0  0  0  0  0
  -24.8283  -30.8941   22.0696 N   0  0  0  0  0  0
  -23.4210  -28.7802   23.3033 O   0  0  0  0  0  0
  -28.1967  -25.1262   20.2226 O   0  0  0  0  0  0
  -26.5824  -34.8842   22.4527 O   0  0  0  0  0  0
  -23.6085  -32.0940   23.6097 O   0  0  0  0  0  0
  -28.7705  -21.2825   19.9969 C   0  0  0  0  0  0
  -29.3625  -19.3536   20.6014 C   0  0  0  0  0  0
  -28.2110  -23.2498   20.5175 C   0  0  0  0  0  0
  -29.4079  -17.4693   20.2741 N   0  0  0  0  0  0
  -31.3466  -13.7011   19.1035 H   0  0  0  0  0  0
  -30.6640  -12.6081   20.2520 H   0  0  0  0  0  0
  -30.0920  -11.9085   17.9034 H   0  0  0  0  0  0
  -29.4512  -13.4961   17.5625 H   0  0  0  0  0  0
  -28.2677  -11.3481   19.3257 H   0  0  0  0  0  0
  -27.5014  -12.1499   17.9722 H   0  0  0  0  0  0
  -27.3925  -14.2099   19.1687 H   0  0  0  0  0  0
  -28.9347  -13.0208   21.5211 H   0  0  0  0  0  0
  -28.0774  -14.5353   21.5592 H   0  0  0  0  0  0
  -25.2813   -9.5677   22.4762 H   0  0  0  0  0  0
  -24.0020   -7.4647   22.7483 H   0  0  0  0  0  0
  -21.0888   -8.8807   19.8948 H   0  0  0  0  0  0
  -22.3776  -10.9680   19.6153 H   0  0  0  0  0  0
  -21.2018   -7.6155   23.9719 H   0  0  0  0  0  0
  -21.1482   -6.0525   25.9077 H   0  0  0  0  0  0
  -22.0594   -2.7615   23.2840 H   0  0  0  0  0  0
  -22.4027  -11.9789   22.4882 H   0  0  0  0  0  0
  -21.0974  -13.1085   22.2674 H   0  0  0  0  0  0
  -24.6092  -15.8546   20.5480 H   0  0  0  0  0  0
  -26.2271  -15.6547   20.1017 H   0  0  0  0  0  0
  -26.7689  -32.4750   23.0689 H   0  0  0  0  0  0
  -25.0068  -33.9166   24.9896 H   0  0  0  0  0  0
  -22.8946  -31.2157   21.2742 H   0  0  0  0  0  0
  -23.3788  -35.9392   23.3244 H   0  0  0  0  0  0
  -24.3558  -36.8846   22.2087 H   0  0  0  0  0  0
  -23.7232  -37.6231   23.6804 H   0  0  0  0  0  0
  -26.3681  -31.1235   20.6306 H   0  0  0  0  0  0
  -26.9832  -30.5006   22.1060 H   0  0  0  0  0  0
  -28.1975  -28.1537   21.3305 H   0  0  0  0  0  0
  -25.7911  -25.4872   19.0076 H   0  0  0  0  0  0
  -24.0632  -27.1495   18.9276 H   0  0  0  0  0  0
  -24.0136  -30.3783   19.3698 H   0  0  0  0  0  0
  -22.9130  -29.1146   19.8155 H   0  0  0  0  0  0
  -25.1379  -36.1542   25.0751 H   0  0  0  0  0  0
  -20.9993  -28.3319   24.1064 H   0  0  0  0  0  0
  -21.1583  -26.3040   23.2422 H   0  0  0  0  0  0
  -21.6163  -26.9721   21.7601 H   0  0  0  0  0  0
  -19.3880  -26.0269   22.7114 H   0  0  0  0  0  0
  -19.6128  -27.3462   21.1307 H   0  0  0  0  0  0
  -17.5815  -27.0283   21.0810 H   0  0  0  0  0  0
  -17.5017  -26.0951   22.5175 H   0  0  0  0  0  0
  -19.8097  -30.7074   24.2302 H   0  0  0  0  0  0
  -17.5302  -31.6181   24.5523 H   0  0  0  0  0  0
  -15.5460  -30.3152   23.8048 H   0  0  0  0  0  0
  -15.8546  -28.1225   22.6995 H   0  0  0  0  0  0
  -24.5858  -30.7178   25.7514 H   0  0  0  0  0  0
  -24.8793  -32.3100   26.4389 H   0  0  0  0  0  0
  -25.7743  -30.9184   27.0198 H   0  0  0  0  0  0
  -26.3378  -29.6321   24.1770 H   0  0  0  0  0  0
  -27.3966  -29.7315   25.5583 H   0  0  0  0  0  0
  -27.9387  -30.3845   24.0374 H   0  0  0  0  0  0
  -27.2557  -33.3779   26.1808 H   0  0  0  0  0  0
  -28.4013  -32.6778   25.0469 H   0  0  0  0  0  0
  -28.0543  -31.8704   26.5683 H   0  0  0  0  0  0
  -28.2525  -38.0046   24.7520 H   0  0  0  0  0  0
  -28.1104  -36.2565   24.6288 H   0  0  0  0  0  0
  -27.2271  -37.1326   25.8867 H   0  0  0  0  0  0
  -20.9859  -29.9264   21.6745 H   0  0  0  0  0  0
  -26.0065  -38.2641   24.1431 H   0  0  0  0  0  0
  -27.9479  -21.0312   19.3274 H   0  0  0  0  0  0
  -29.5799  -21.5046   19.3014 H   0  0  0  0  0  0
  -28.8623  -19.3135   21.5693 H   0  0  0  0  0  0
  -30.4044  -19.5229   20.8749 H   0  0  0  0  0  0
  -28.6621  -23.2870   21.5090 H   0  0  0  0  0  0
  -27.1534  -23.1048   20.7380 H   0  0  0  0  0  0
  -28.4467  -17.2150   20.0887 H   0  0  0  0  0  0
  1 25  1  0  0  0
  1 30  2  0  0  0
  1 74  1  0  0  0
  2  3  1  0  0  0
  2 25  1  0  0  0
  2 75  1  0  0  0
  2 76  1  0  0  0
  3  4  1  0  0  0
  3 77  1  0  0  0
  3 78  1  0  0  0
  4  5  1  0  0  0
  4 79  1  0  0  0
  4 80  1  0  0  0
  5  6  1  0  0  0
  5 26  1  0  0  0
  5 81  1  0  0  0
  6 25  1  0  0  0
  6 82  1  0  0  0
  6 83  1  0  0  0
  7  8  2  0  0  0
  7 26  1  0  0  0
  7 29  1  0  0  0
  8  9  1  0  0  0
  8 22  1  0  0  0
  9 10  1  0  0  0
  9 27  2  0  0  0
 10 11  2  0  0  0
 10 15  1  0  0  0
 11 12  1  0  0  0
 11 84  1  0  0  0
 12 13  2  0  0  0
 12 85  1  0  0  0
 13 14  1  0  0  0
 13 31  1  0  0  0
 14 15  2  0  0  0
 14 86  1  0  0  0
 15 87  1  0  0  0
 16 17  2  0  0  0
 16 21  1  0  0  0
 16 31  1  0  0  0
 17 18  1  0  0  0
 17 88  1  0  0  0
 18 19  2  0  0  0
 18 89  1  0  0  0
 19 20  1  0  0  0
 19 24  1  0  0  0
 20 21  2  0  0  0
 20 90  1  0  0  0
 21 23  1  0  0  0
 22 28  1  0  0  0
 22 32  2  0  0  0
 26 27  1  0  0  0
 28 91  1  0  0  0
 28 92  1  0  0  0
 29 93  1  0  0  0
 29 94  1  0  0  0
 33 34  1  0  0  0
 33 66  1  0  0  0
 33 70  2  0  0  0
 34 36  1  0  0  0
 34 59  1  0  0  0
 34 95  1  0  0  0
 35 44  2  0  0  0
 35 45  1  0  0  0
 35 68  1  0  0  0
 36 56  1  0  0  0
 36 96  1  0  0  0
 37 39  1  0  0  0
 37 47  1  0  0  0
 37 66  1  0  0  0
 37 97  1  0  0  0
 38 43  2  0  0  0
 38 46  1  0  0  0
 38 47  1  0  0  0
 39 64  1  0  0  0
 39 67  2  0  0  0
 40 52  1  0  0  0
 40 53  2  0  0  0
 40 58  1  0  0  0
 41 98  1  0  0  0
 41 99  1  0  0  0
 41100  1  0  0  0
 41 48  1  0  0  0
 42 43  1  0  0  0
 42 66  1  0  0  0
 42101  1  0  0  0
 42102  1  0  0  0
 43 44  1  0  0  0
 44103  1  0  0  0
 45 46  2  0  0  0
 45104  1  0  0  0
 46105  1  0  0  0
 47106  1  0  0  0
 47107  1  0  0  0
 48 56  1  0  0  0
 48 65  1  0  0  0
 48108  1  0  0  0
 49 50  1  0  0  0
 49 53  1  0  0  0
 49 64  1  0  0  0
 49109  1  0  0  0
 50 51  1  0  0  0
 50110  1  0  0  0
 50111  1  0  0  0
 51 52  1  0  0  0
 51112  1  0  0  0
 51113  1  0  0  0
 52114  1  0  0  0
 52115  1  0  0  0
 53 54  1  0  0  0
 54 55  2  0  0  0
 54116  1  0  0  0
 55 57  1  0  0  0
 55117  1  0  0  0
 56 69  2  0  0  0
 57 58  2  0  0  0
 57118  1  0  0  0
 58119  1  0  0  0
 59 60  1  0  0  0
 59 61  1  0  0  0
 59 62  1  0  0  0
 60120  1  0  0  0
 60121  1  0  0  0
 60122  1  0  0  0
 61123  1  0  0  0
 61124  1  0  0  0
 61125  1  0  0  0
 62126  1  0  0  0
 62127  1  0  0  0
 62128  1  0  0  0
 63 65  1  0  0  0
 63129  1  0  0  0
 63130  1  0  0  0
 63131  1  0  0  0
 64132  1  0  0  0
 65133  1  0  0  0
 68 73  1  0  0  0
 71 72  1  0  0  0
 71 73  1  0  0  0
 71134  1  0  0  0
 71135  1  0  0  0
 72 74  1  0  0  0
 72136  1  0  0  0
 72137  1  0  0  0
 73138  1  0  0  0
 73139  1  0  0  0
 74140  1  0  0  0
M  ISO  4   1 100  68 101  73 101  74 100
M  END
> <chiral flag>
0

> <version>
0

> <s_m_source_file>
/data/baiqing/PycharmProjects/Reinvent-master-3.2/result/LINK_invent/BTK/process_docking_weight1_custom_product_contain_oxygen_bond_distance_aromatic_linkinvent_7_9_3/rearranged_h_0007.sdf

> <i_m_source_file_index>
25

> <r_mmod_Potential_Energy-OPLS-2005>
4439.1796875

> <r_mmod_Stretch_Energy-OPLS-2005>
1928.78686523438

> <r_mmod_Bend_Energy-OPLS-2005>
1134.07287597656

> <r_mmod_Torsional_Energy-OPLS-2005>
253.740341186523

> <r_mmod_Improper_Torsional_Energy-OPLS-2005>
5.21059560775757

> <r_mmod_Van_der_Waal_Energy-OPLS-2005>
136.971328735352

> <r_mmod_Electrostatic_Energy-OPLS-2005>
-343.119842529297

> <r_mmod_Solvation_Energy-OPLS-2005>
-223.109710693359

> <b_mmod_Minimization_Converged-OPLS-2005>
0

> <r_mmod_RMS_Derivative-OPLS-2005>
0.0710311159491539

$$$$
25
                    3D
 Structure written by MMmdl.
155163  0  0  1  0            999 V2000
  -30.6978  -14.4695   20.5058 C   0  0  0  0  0  0
  -30.4219  -12.2826   19.4412 C   0  0  0  0  0  0
  -29.5002  -12.4845   18.2189 C   0  0  0  0  0  0
  -28.0213  -12.3496   18.6287 C   0  0  0  0  0  0
  -27.6624  -13.2031   19.8734 C   0  0  2  0  0  0
  -28.7046  -13.0150   21.0046 C   0  0  0  0  0  0
  -25.2601  -13.8151   20.5671 C   0  0  0  0  0  0
  -24.1850  -13.0442   20.9173 C   0  0  0  0  0  0
  -24.6398  -11.6903   20.8750 C   0  0  0  0  0  0
  -23.9057  -10.4297   21.0417 C   0  0  0  0  0  0
  -24.3613   -9.4212   21.9187 C   0  0  0  0  0  0
  -23.6289   -8.2246   22.0753 C   0  0  0  0  0  0
  -22.4270   -8.0284   21.3545 C   0  0  0  0  0  0
  -21.9906   -9.0260   20.4647 C   0  0  0  0  0  0
  -22.7235  -10.2136   20.3061 C   0  0  0  0  0  0
  -21.6850   -6.0734   22.5277 C   0  0  0  0  0  0
  -21.4014   -6.5639   23.8208 C   0  0  0  0  0  0
  -21.3658   -5.6790   24.9170 C   0  0  0  0  0  0
  -21.6043   -4.3054   24.7224 C   0  0  0  0  0  0
  -21.8820   -3.8147   23.4346 C   0  0  0  0  0  0
  -21.9192   -4.6961   22.3401 C   0  0  0  0  0  0
  -22.7869  -13.5247   21.1830 C   0  0  0  0  0  0
  -22.1663   -4.2148   21.0978 F   0  0  0  0  0  0
  -21.5626   -3.4537   25.7737 F   0  0  0  0  0  0
  -30.0426  -13.2815   20.4511 N   0  0  0  0  0  0
  -26.3031  -12.9314   20.3360 N   0  0  0  0  0  0
  -25.9328  -11.6480   20.5789 N   0  0  0  0  0  0
  -22.0510  -12.8254   22.0388 N   0  0  0  0  0  0
  -25.4339  -15.1870   20.4059 N   0  0  0  0  0  0
  -31.8545  -14.6247   20.1073 O   0  0  0  0  0  0
  -21.6639   -6.8878   21.4238 O   0  0  0  0  0  0
  -22.3558  -14.5557   20.6673 O   0  0  0  0  0  0
  -24.6127  -31.8703   23.2127 C   0  0  0  0  0  0
  -25.9032  -32.4841   23.8416 C   0  0  1  0  0  0
  -27.2314  -27.4440   20.0989 C   0  0  0  0  0  0
  -25.5895  -33.8635   24.2351 N   0  0  0  0  0  0
  -23.3995  -30.4946   21.5537 C   0  0  2  0  0  0
  -24.8454  -28.9676   20.1147 C   0  0  0  0  0  0
  -22.7401  -29.4671   22.5008 C   0  0  0  0  0  0
  -18.0269  -28.1390   22.8503 C   0  0  0  0  0  0
  -24.1484  -36.7313   23.2638 C   0  0  0  0  0  0
  -25.9274  -30.8437   21.3601 C   0  0  0  0  0  0
  -26.0073  -29.4795   20.7058 C   0  0  0  0  0  0
  -27.2040  -28.7269   20.6913 C   0  0  0  0  0  0
  -26.0493  -26.9520   19.4934 C   0  0  0  0  0  0
  -24.8612  -27.7041   19.5037 C   0  0  0  0  0  0
  -23.6057  -29.8300   20.1676 C   0  0  0  0  0  0
  -25.4108  -36.3119   24.0342 C   0  0  1  0  0  0
  -20.5853  -28.3661   23.1340 C   0  0  2  0  0  0
  -20.6761  -26.9402   22.5428 C   0  0  0  0  0  0
  -19.5741  -26.6398   21.5223 C   0  0  0  0  0  0
  -18.1918  -26.7937   22.1631 C   0  0  0  0  0  0
  -19.1518  -28.8846   23.2916 C   0  0  0  0  0  0
  -18.9441  -30.1452   23.8927 C   0  0  0  0  0  0
  -17.6442  -30.6592   24.0571 C   0  0  0  0  0  0
  -25.9031  -34.9482   23.5139 C   0  0  0  0  0  0
  -16.5337  -29.9093   23.6328 C   0  0  0  0  0  0
  -16.7259  -28.6512   23.0355 C   0  0  0  0  0  0
  -26.4475  -31.6608   25.0722 C   0  0  0  0  0  0
  -25.3743  -31.3690   26.1468 C   0  0  0  0  0  0
  -27.0291  -30.3061   24.6051 C   0  0  0  0  0  0
  -27.6070  -32.4313   25.7475 C   0  0  0  0  0  0
  -27.5580  -37.1817   24.8471 C   0  0  0  0  0  0
  -21.4132  -29.3021   22.3749 N   0  0  0  0  0  0
  -26.4300  -37.3798   23.9409 N   0  0  0  0  0  0
  -24.6653  -31.0822   22.1021 N   0  0  0  0  0  0
  -23.4184  -28.8213   23.3035 O   0  0  0  0  0  0
  -28.3944  -26.6985   20.1417 O   0  0  0  0  0  0
  -26.5587  -34.8929   22.4692 O   0  0  0  0  0  0
  -23.5325  -32.1452   23.7536 O   0  0  0  0  0  0
  -30.1671  -18.4446   21.5234 C   0  0  0  0  0  0
  -30.2630  -19.8128   21.8723 C   0  0  0  0  0  0
  -29.9880  -18.0701   20.1734 C   0  0  0  0  0  0
  -30.1684  -20.8265   20.8903 C   0  0  0  0  0  0
  -29.9147  -19.0801   19.1884 C   0  0  0  0  0  0
  -30.0076  -20.4426   19.5370 C   0  0  0  0  0  0
  -29.8737  -16.6216   19.7018 C   0  0  0  0  0  0
  -29.4406  -24.5067   20.7144 C   0  0  0  0  0  0
  -29.0987  -23.0109   20.8972 C   0  0  0  0  0  0
  -28.2089  -25.2780   20.2045 C   0  0  0  0  0  0
  -30.2458  -22.1809   21.2750 N   0  0  0  0  0  0
  -29.8943  -15.5298   20.6887 N   0  0  0  0  0  0
  -29.7552  -18.7387   17.8854 F   0  0  0  0  0  0
  -29.9575  -21.3767   18.5554 F   0  0  0  0  0  0
  -31.4701  -12.3614   19.1439 H   0  0  0  0  0  0
  -30.3029  -11.2783   19.8502 H   0  0  0  0  0  0
  -29.7389  -11.7549   17.4439 H   0  0  0  0  0  0
  -29.6725  -13.4679   17.7775 H   0  0  0  0  0  0
  -27.8340  -11.2961   18.8378 H   0  0  0  0  0  0
  -27.3707  -12.6098   17.7922 H   0  0  0  0  0  0
  -27.6966  -14.2435   19.5512 H   0  0  0  0  0  0
  -28.6679  -11.9985   21.3979 H   0  0  0  0  0  0
  -28.4805  -13.6682   21.8503 H   0  0  0  0  0  0
  -25.2764   -9.5674   22.4757 H   0  0  0  0  0  0
  -23.9993   -7.4635   22.7474 H   0  0  0  0  0  0
  -21.0827   -8.8788   19.8960 H   0  0  0  0  0  0
  -22.3703  -10.9676   19.6170 H   0  0  0  0  0  0
  -21.2017   -7.6148   23.9708 H   0  0  0  0  0  0
  -21.1473   -6.0524   25.9068 H   0  0  0  0  0  0
  -22.0603   -2.7610   23.2847 H   0  0  0  0  0  0
  -22.4118  -11.9919   22.4789 H   0  0  0  0  0  0
  -21.1128  -13.1284   22.2598 H   0  0  0  0  0  0
  -24.6669  -15.8427   20.5090 H   0  0  0  0  0  0
  -26.2827  -15.6237   20.0722 H   0  0  0  0  0  0
  -26.7090  -32.5579   23.1180 H   0  0  0  0  0  0
  -25.0064  -33.9818   25.0507 H   0  0  0  0  0  0
  -22.6863  -31.3099   21.4181 H   0  0  0  0  0  0
  -23.3749  -35.9642   23.3322 H   0  0  0  0  0  0
  -24.3570  -36.8897   22.2044 H   0  0  0  0  0  0
  -23.7238  -37.6528   23.6630 H   0  0  0  0  0  0
  -26.0282  -31.6113   20.5919 H   0  0  0  0  0  0
  -26.8196  -30.9045   21.9714 H   0  0  0  0  0  0
  -28.0998  -29.1181   21.1528 H   0  0  0  0  0  0
  -26.0242  -25.9870   19.0089 H   0  0  0  0  0  0
  -23.9670  -27.3077   19.0430 H   0  0  0  0  0  0
  -23.7093  -30.6058   19.4077 H   0  0  0  0  0  0
  -22.7313  -29.2449   19.8758 H   0  0  0  0  0  0
  -25.1283  -36.1990   25.0834 H   0  0  0  0  0  0
  -20.9951  -28.3221   24.1458 H   0  0  0  0  0  0
  -20.5679  -26.2261   23.3604 H   0  0  0  0  0  0
  -21.6631  -26.7458   22.1213 H   0  0  0  0  0  0
  -19.6897  -25.6316   21.1242 H   0  0  0  0  0  0
  -19.6692  -27.3216   20.6759 H   0  0  0  0  0  0
  -17.4192  -26.6696   21.4029 H   0  0  0  0  0  0
  -18.0312  -26.0078   22.9023 H   0  0  0  0  0  0
  -19.7911  -30.7265   24.2318 H   0  0  0  0  0  0
  -17.4993  -31.6280   24.5153 H   0  0  0  0  0  0
  -15.5338  -30.3002   23.7642 H   0  0  0  0  0  0
  -15.8659  -28.0840   22.7058 H   0  0  0  0  0  0
  -24.5929  -30.7026   25.7796 H   0  0  0  0  0  0
  -24.8926  -32.2829   26.4949 H   0  0  0  0  0  0
  -25.8110  -30.8842   27.0204 H   0  0  0  0  0  0
  -26.2804  -29.6846   24.1120 H   0  0  0  0  0  0
  -27.4089  -29.7279   25.4484 H   0  0  0  0  0  0
  -27.8629  -30.4412   23.9155 H   0  0  0  0  0  0
  -27.2710  -33.3599   26.2105 H   0  0  0  0  0  0
  -28.3852  -32.6895   25.0274 H   0  0  0  0  0  0
  -28.0761  -31.8397   26.5347 H   0  0  0  0  0  0
  -28.2626  -38.0090   24.7500 H   0  0  0  0  0  0
  -28.1051  -36.2624   24.6323 H   0  0  0  0  0  0
  -27.2294  -37.1493   25.8876 H   0  0  0  0  0  0
  -20.9289  -29.8731   21.6964 H   0  0  0  0  0  0
  -26.0195  -38.2874   24.1412 H   0  0  0  0  0  0
  -30.2353  -17.6914   22.2959 H   0  0  0  0  0  0
  -30.4017  -20.0744   22.9117 H   0  0  0  0  0  0
  -30.6352  -16.4758   18.9319 H   0  0  0  0  0  0
  -28.9242  -16.5356   19.1713 H   0  0  0  0  0  0
  -30.2599  -24.6253   20.0049 H   0  0  0  0  0  0
  -29.7752  -24.9324   21.6621 H   0  0  0  0  0  0
  -28.6220  -22.6451   19.9876 H   0  0  0  0  0  0
  -28.3428  -22.9154   21.6787 H   0  0  0  0  0  0
  -27.3781  -25.0509   20.8773 H   0  0  0  0  0  0
  -27.9418  -24.8987   19.2165 H   0  0  0  0  0  0
  -30.5288  -22.3088   22.2432 H   0  0  0  0  0  0
  -29.0004  -15.3115   21.1008 H   0  0  0  0  0  0
  1 25  1  0  0  0
  1 30  2  0  0  0
  1 82  1  0  0  0
  2  3  1  0  0  0
  2 25  1  0  0  0
  2 85  1  0  0  0
  2 86  1  0  0  0
  3  4  1  0  0  0
  3 87  1  0  0  0
  3 88  1  0  0  0
  4  5  1  0  0  0
  4 89  1  0  0  0
  4 90  1  0  0  0
  5  6  1  0  0  0
  5 26  1  0  0  0
  5 91  1  0  0  0
  6 25  1  0  0  0
  6 92  1  0  0  0
  6 93  1  0  0  0
  7  8  2  0  0  0
  7 26  1  0  0  0
  7 29  1  0  0  0
  8  9  1  0  0  0
  8 22  1  0  0  0
  9 10  1  0  0  0
  9 27  2  0  0  0
 10 11  2  0  0  0
 10 15  1  0  0  0
 11 12  1  0  0  0
 11 94  1  0  0  0
 12 13  2  0  0  0
 12 95  1  0  0  0
 13 14  1  0  0  0
 13 31  1  0  0  0
 14 15  2  0  0  0
 14 96  1  0  0  0
 15 97  1  0  0  0
 16 17  2  0  0  0
 16 21  1  0  0  0
 16 31  1  0  0  0
 17 18  1  0  0  0
 17 98  1  0  0  0
 18 19  2  0  0  0
 18 99  1  0  0  0
 19 20  1  0  0  0
 19 24  1  0  0  0
 20 21  2  0  0  0
 20100  1  0  0  0
 21 23  1  0  0  0
 22 28  1  0  0  0
 22 32  2  0  0  0
 26 27  1  0  0  0
 28101  1  0  0  0
 28102  1  0  0  0
 29103  1  0  0  0
 29104  1  0  0  0
 33 34  1  0  0  0
 33 66  1  0  0  0
 33 70  2  0  0  0
 34 36  1  0  0  0
 34 59  1  0  0  0
 34105  1  0  0  0
 35 44  2  0  0  0
 35 45  1  0  0  0
 35 68  1  0  0  0
 36 56  1  0  0  0
 36106  1  0  0  0
 37 39  1  0  0  0
 37 47  1  0  0  0
 37 66  1  0  0  0
 37107  1  0  0  0
 38 43  2  0  0  0
 38 46  1  0  0  0
 38 47  1  0  0  0
 39 64  1  0  0  0
 39 67  2  0  0  0
 40 52  1  0  0  0
 40 53  2  0  0  0
 40 58  1  0  0  0
 41108  1  0  0  0
 41109  1  0  0  0
 41110  1  0  0  0
 41 48  1  0  0  0
 42 43  1  0  0  0
 42 66  1  0  0  0
 42111  1  0  0  0
 42112  1  0  0  0
 43 44  1  0  0  0
 44113  1  0  0  0
 45 46  2  0  0  0
 45114  1  0  0  0
 46115  1  0  0  0
 47116  1  0  0  0
 47117  1  0  0  0
 48 56  1  0  0  0
 48 65  1  0  0  0
 48118  1  0  0  0
 49 50  1  0  0  0
 49 53  1  0  0  0
 49 64  1  0  0  0
 49119  1  0  0  0
 50 51  1  0  0  0
 50120  1  0  0  0
 50121  1  0  0  0
 51 52  1  0  0  0
 51122  1  0  0  0
 51123  1  0  0  0
 52124  1  0  0  0
 52125  1  0  0  0
 53 54  1  0  0  0
 54 55  2  0  0  0
 54126  1  0  0  0
 55 57  1  0  0  0
 55127  1  0  0  0
 56 69  2  0  0  0
 57 58  2  0  0  0
 57128  1  0  0  0
 58129  1  0  0  0
 59 60  1  0  0  0
 59 61  1  0  0  0
 59 62  1  0  0  0
 60130  1  0  0  0
 60131  1  0  0  0
 60132  1  0  0  0
 61133  1  0  0  0
 61134  1  0  0  0
 61135  1  0  0  0
 62136  1  0  0  0
 62137  1  0  0  0
 62138  1  0  0  0
 63 65  1  0  0  0
 63139  1  0  0  0
 63140  1  0  0  0
 63141  1  0  0  0
 64142  1  0  0  0
 65143  1  0  0  0
 68 80  1  0  0  0
 71 72  2  0  0  0
 71 73  1  0  0  0
 71144  1  0  0  0
 72 74  1  0  0  0
 72145  1  0  0  0
 73 75  2  0  0  0
 73 77  1  0  0  0
 74 76  2  0  0  0
 74 81  1  0  0  0
 75 76  1  0  0  0
 75 83  1  0  0  0
 76 84  1  0  0  0
 77 82  1  0  0  0
 77146  1  0  0  0
 77147  1  0  0  0
 78 79  1  0  0  0
 78 80  1  0  0  0
 78148  1  0  0  0
 78149  1  0  0  0
 79 81  1  0  0  0
 79150  1  0  0  0
 79151  1  0  0  0
 80152  1  0  0  0
 80153  1  0  0  0
 81154  1  0  0  0
 82155  1  0  0  0
M  ISO  4   1 100  68 101  80 101  82 100
M  END
> <chiral flag>
0

> <version>
0

> <s_m_source_file>
/data/baiqing/PycharmProjects/Reinvent-master-3.2/result/LINK_invent/BTK/process_docking_weight1_custom_product_contain_oxygen_bond_distance_aromatic_linkinvent_7_9_3/rearranged_h_0007.sdf

> <i_m_source_file_index>
26

> <r_mmod_Potential_Energy-OPLS-2005>
-5.24913263320923

> <r_mmod_Stretch_Energy-OPLS-2005>
35.2733459472656

> <r_mmod_Bend_Energy-OPLS-2005>
95.2824783325195

> <r_mmod_Torsional_Energy-OPLS-2005>
231.068969726562

> <r_mmod_Improper_Torsional_Energy-OPLS-2005>
16.7645587921143

> <r_mmod_Van_der_Waal_Energy-OPLS-2005>
160.238906860352

> <r_mmod_Electrostatic_Energy-OPLS-2005>
-337.553039550781

> <r_mmod_Solvation_Energy-OPLS-2005>
-221.881759643555

> <b_mmod_Minimization_Converged-OPLS-2005>
0

> <r_mmod_RMS_Derivative-OPLS-2005>
1.69987964630127

$$$$
26
                    3D
 Structure written by MMmdl.
159168  0  0  1  0            999 V2000
  -30.1594  -15.5447   20.3196 C   0  0  0  0  0  0
  -30.4861  -13.0914   19.4277 C   0  0  0  0  0  0
  -29.5400  -12.5259   18.3132 C   0  0  0  0  0  0
  -28.1529  -12.1522   18.8552 C   0  0  0  0  0  0
  -27.6114  -13.2380   19.8138 C   0  0  2  0  0  0
  -28.6372  -13.5089   20.9284 C   0  0  0  0  0  0
  -25.2500  -13.8062   20.5640 C   0  0  0  0  0  0
  -24.1810  -13.0371   20.9238 C   0  0  0  0  0  0
  -24.6384  -11.6856   20.8781 C   0  0  0  0  0  0
  -23.9004  -10.4269   21.0392 C   0  0  0  0  0  0
  -24.3542   -9.4162   21.9139 C   0  0  0  0  0  0
  -23.6228   -8.2189   22.0714 C   0  0  0  0  0  0
  -22.4190   -8.0219   21.3542 C   0  0  0  0  0  0
  -21.9842   -9.0184   20.4619 C   0  0  0  0  0  0
  -22.7178  -10.2083   20.3022 C   0  0  0  0  0  0
  -21.6821   -6.0668   22.5281 C   0  0  0  0  0  0
  -21.3969   -6.5585   23.8203 C   0  0  0  0  0  0
  -21.3650   -5.6757   24.9186 C   0  0  0  0  0  0
  -21.6056   -4.3022   24.7262 C   0  0  0  0  0  0
  -21.8813   -3.8094   23.4392 C   0  0  0  0  0  0
  -21.9172   -4.6897   22.3429 C   0  0  0  0  0  0
  -22.7866  -13.5187   21.1945 C   0  0  0  0  0  0
  -22.1635   -4.2070   21.1012 F   0  0  0  0  0  0
  -21.5649   -3.4519   25.7785 F   0  0  0  0  0  0
  -29.7684  -14.1559   20.2858 N   0  0  0  0  0  0
  -26.2801  -12.9242   20.3104 N   0  0  0  0  0  0
  -25.9282  -11.6406   20.5713 N   0  0  0  0  0  0
  -22.0396  -12.8205   22.0421 N   0  0  0  0  0  0
  -25.4247  -15.1753   20.3921 N   0  0  0  0  0  0
  -31.3474  -15.5696   19.9380 O   0  0  0  0  0  0
  -21.6588   -6.8787   21.4236 O   0  0  0  0  0  0
  -22.3688  -14.5543   20.6818 O   0  0  0  0  0  0
  -24.6509  -31.8629   23.1654 C   0  0  0  0  0  0
  -25.9267  -32.4763   23.8183 C   0  0  1  0  0  0
  -27.2084  -27.1439   20.2517 C   0  0  0  0  0  0
  -25.5914  -33.8518   24.2149 N   0  0  0  0  0  0
  -23.4535  -30.4867   21.5209 C   0  0  2  0  0  0
  -24.8974  -28.8897   20.1092 C   0  0  0  0  0  0
  -22.7290  -29.4928   22.4752 C   0  0  0  0  0  0
  -18.0007  -28.1942   22.8739 C   0  0  0  0  0  0
  -24.1487  -36.7286   23.2646 C   0  0  0  0  0  0
  -26.0055  -30.7553   21.3648 C   0  0  0  0  0  0
  -26.0695  -29.3553   20.7182 C   0  0  0  0  0  0
  -27.2326  -28.4972   20.7606 C   0  0  0  0  0  0
  -26.0239  -26.7790   19.6035 C   0  0  0  0  0  0
  -24.8934  -27.6233   19.5094 C   0  0  0  0  0  0
  -23.6872  -29.7923   20.1508 C   0  0  0  0  0  0
  -25.4123  -36.3050   24.0322 C   0  0  1  0  0  0
  -20.5728  -28.4193   23.0737 C   0  0  2  0  0  0
  -20.6632  -27.0199   22.4275 C   0  0  0  0  0  0
  -19.4405  -26.4323   21.7295 C   0  0  0  0  0  0
  -18.0703  -27.0172   21.9936 C   0  0  0  0  0  0
  -19.1585  -28.9144   23.2856 C   0  0  0  0  0  0
  -19.0021  -30.1397   23.8830 C   0  0  0  0  0  0
  -17.7173  -30.5947   24.2226 C   0  0  0  0  0  0
  -25.9115  -34.9408   23.5055 C   0  0  0  0  0  0
  -16.5750  -29.8642   23.8456 C   0  0  0  0  0  0
  -16.7441  -28.6589   23.1459 C   0  0  0  0  0  0
  -26.4518  -31.6566   25.0640 C   0  0  0  0  0  0
  -25.3687  -31.3713   26.1331 C   0  0  0  0  0  0
  -27.0324  -30.2949   24.6103 C   0  0  0  0  0  0
  -27.6045  -32.4325   25.7415 C   0  0  0  0  0  0
  -27.5566  -37.1781   24.8463 C   0  0  0  0  0  0
  -21.4067  -29.3977   22.3846 N   0  0  0  0  0  0
  -26.4282  -37.3769   23.9406 N   0  0  0  0  0  0
  -24.7290  -31.0461   22.0778 N   0  0  0  0  0  0
  -23.4029  -28.8145   23.2638 O   0  0  0  0  0  0
  -28.2611  -26.1831   20.3833 O   0  0  0  0  0  0
  -26.5709  -34.8939   22.4609 O   0  0  0  0  0  0
  -23.5652  -32.1372   23.6986 O   0  0  0  0  0  0
  -26.2618  -19.4064   21.7786 C   0  0  0  0  0  0
  -27.5401  -19.5864   22.3404 C   0  0  0  0  0  0
  -27.3290  -18.2654   19.8545 C   0  0  0  0  0  0
  -26.2248  -18.9777   20.4097 C   0  0  0  0  0  0
  -28.5574  -19.6334   21.3730 C   0  0  0  0  0  0
  -28.5675  -18.2345   20.5956 C   0  0  0  0  0  0
  -28.0089  -23.4883   19.5304 C   0  0  0  0  0  0
  -27.9424  -23.8389   21.9336 C   0  0  0  0  0  0
  -27.7138  -21.8977   19.9664 C   0  0  0  0  0  0
  -28.3019  -22.2169   22.1385 C   0  0  0  0  0  0
  -28.2601  -24.6209   20.6074 C   0  0  0  0  0  0
  -25.0229  -19.2984   19.5241 C   0  0  0  0  0  0
  -28.5579  -21.1725   21.0084 N   0  0  0  0  0  0
  -29.4794  -16.8488   20.8151 N   0  0  0  0  0  0
  -23.9763  -18.6787   19.9285 F   0  0  0  0  0  0
  -25.3198  -19.0033   18.2179 F   0  0  0  0  0  0
  -24.7453  -20.5874   19.5294 F   0  0  0  0  0  0
  -31.3314  -13.5225   18.8586 H   0  0  0  0  0  0
  -30.9637  -12.2841   20.0074 H   0  0  0  0  0  0
  -29.9731  -11.6508   17.8094 H   0  0  0  0  0  0
  -29.4073  -13.2858   17.5469 H   0  0  0  0  0  0
  -28.2703  -11.2246   19.4215 H   0  0  0  0  0  0
  -27.4568  -11.9065   18.0490 H   0  0  0  0  0  0
  -27.5160  -14.1394   19.2090 H   0  0  0  0  0  0
  -28.9473  -12.5808   21.4226 H   0  0  0  0  0  0
  -28.2319  -14.1821   21.6776 H   0  0  0  0  0  0
  -25.2609   -9.5688   22.4824 H   0  0  0  0  0  0
  -23.9907   -7.4574   22.7483 H   0  0  0  0  0  0
  -21.0702   -8.8645   19.8977 H   0  0  0  0  0  0
  -22.3467  -10.9606   19.6196 H   0  0  0  0  0  0
  -21.1915   -7.6082   23.9699 H   0  0  0  0  0  0
  -21.1492   -6.0488   25.9099 H   0  0  0  0  0  0
  -22.0614   -2.7551   23.2923 H   0  0  0  0  0  0
  -22.3876  -11.9831   22.4815 H   0  0  0  0  0  0
  -21.1046  -13.1339   22.2559 H   0  0  0  0  0  0
  -24.6328  -15.8051   20.4680 H   0  0  0  0  0  0
  -26.2461  -15.5922   19.9783 H   0  0  0  0  0  0
  -26.7475  -32.5492   23.1090 H   0  0  0  0  0  0
  -24.9921  -33.9640   25.0210 H   0  0  0  0  0  0
  -22.8108  -31.3322   21.3116 H   0  0  0  0  0  0
  -23.3752  -35.9617   23.3320 H   0  0  0  0  0  0
  -24.3594  -36.8896   22.2055 H   0  0  0  0  0  0
  -23.7238  -37.6486   23.6676 H   0  0  0  0  0  0
  -26.1529  -31.4964   20.5782 H   0  0  0  0  0  0
  -26.8945  -30.8362   21.9724 H   0  0  0  0  0  0
  -28.1408  -28.8612   21.2365 H   0  0  0  0  0  0
  -25.9807  -25.7975   19.1754 H   0  0  0  0  0  0
  -24.0058  -27.2609   19.0148 H   0  0  0  0  0  0
  -23.8210  -30.5416   19.3711 H   0  0  0  0  0  0
  -22.8106  -29.2278   19.8361 H   0  0  0  0  0  0
  -25.1306  -36.1892   25.0820 H   0  0  0  0  0  0
  -20.9090  -28.2960   24.0593 H   0  0  0  0  0  0
  -20.8245  -26.3896   23.2847 H   0  0  0  0  0  0
  -21.5075  -26.9698   21.7073 H   0  0  0  0  0  0
  -19.3629  -25.3554   21.9105 H   0  0  0  0  0  0
  -19.5773  -26.4915   20.6946 H   0  0  0  0  0  0
  -17.8334  -27.5317   21.0533 H   0  0  0  0  0  0
  -17.2778  -26.3074   22.1308 H   0  0  0  0  0  0
  -19.8594  -30.7401   24.1291 H   0  0  0  0  0  0
  -17.6225  -31.4826   24.7965 H   0  0  0  0  0  0
  -15.5774  -30.1947   24.0729 H   0  0  0  0  0  0
  -15.8900  -28.1937   22.7274 H   0  0  0  0  0  0
  -24.5894  -30.7076   25.7632 H   0  0  0  0  0  0
  -24.8862  -32.2857   26.4726 H   0  0  0  0  0  0
  -25.8004  -30.8885   27.0100 H   0  0  0  0  0  0
  -26.2846  -29.6714   24.1179 H   0  0  0  0  0  0
  -27.4072  -29.7241   25.4617 H   0  0  0  0  0  0
  -27.8718  -30.4226   23.9272 H   0  0  0  0  0  0
  -27.2603  -33.3605   26.1957 H   0  0  0  0  0  0
  -28.3781  -32.6914   25.0203 H   0  0  0  0  0  0
  -28.0757  -31.8472   26.5293 H   0  0  0  0  0  0
  -28.2608  -38.0067   24.7496 H   0  0  0  0  0  0
  -28.1058  -36.2583   24.6321 H   0  0  0  0  0  0
  -27.2286  -37.1449   25.8878 H   0  0  0  0  0  0
  -20.9072  -30.1245   21.8712 H   0  0  0  0  0  0
  -26.0177  -38.2866   24.1371 H   0  0  0  0  0  0
  -25.4137  -19.7076   22.3417 H   0  0  0  0  0  0
  -27.5717  -20.1981   23.2511 H   0  0  0  0  0  0
  -27.0567  -17.7945   18.9305 H   0  0  0  0  0  0
  -27.2334  -23.8907   18.8561 H   0  0  0  0  0  0
  -28.9376  -23.3875   18.9947 H   0  0  0  0  0  0
  -28.3228  -24.3856   22.7805 H   0  0  0  0  0  0
  -26.8621  -23.9777   22.0450 H   0  0  0  0  0  0
  -27.5633  -21.2250   19.0975 H   0  0  0  0  0  0
  -26.7003  -21.9723   20.4053 H   0  0  0  0  0  0
  -27.2949  -22.0075   22.5564 H   0  0  0  0  0  0
  -29.0550  -22.0520   22.9365 H   0  0  0  0  0  0
  -29.3422  -24.6376   20.7038 H   0  0  0  0  0  0
  -30.3349  -17.3371   21.0086 H   0  0  0  0  0  0
  1 25  1  0  0  0
  1 30  2  0  0  0
  1 84  1  0  0  0
  2  3  1  0  0  0
  2 25  1  0  0  0
  2 88  1  0  0  0
  2 89  1  0  0  0
  3  4  1  0  0  0
  3 90  1  0  0  0
  3 91  1  0  0  0
  4  5  1  0  0  0
  4 92  1  0  0  0
  4 93  1  0  0  0
  5  6  1  0  0  0
  5 26  1  0  0  0
  5 94  1  0  0  0
  6 25  1  0  0  0
  6 95  1  0  0  0
  6 96  1  0  0  0
  7  8  2  0  0  0
  7 26  1  0  0  0
  7 29  1  0  0  0
  8  9  1  0  0  0
  8 22  1  0  0  0
  9 10  1  0  0  0
  9 27  2  0  0  0
 10 11  2  0  0  0
 10 15  1  0  0  0
 11 12  1  0  0  0
 11 97  1  0  0  0
 12 13  2  0  0  0
 12 98  1  0  0  0
 13 14  1  0  0  0
 13 31  1  0  0  0
 14 15  2  0  0  0
 14 99  1  0  0  0
 15100  1  0  0  0
 16 17  2  0  0  0
 16 21  1  0  0  0
 16 31  1  0  0  0
 17 18  1  0  0  0
 17101  1  0  0  0
 18 19  2  0  0  0
 18102  1  0  0  0
 19 20  1  0  0  0
 19 24  1  0  0  0
 20 21  2  0  0  0
 20103  1  0  0  0
 21 23  1  0  0  0
 22 28  1  0  0  0
 22 32  2  0  0  0
 26 27  1  0  0  0
 28104  1  0  0  0
 28105  1  0  0  0
 29106  1  0  0  0
 29107  1  0  0  0
 33 34  1  0  0  0
 33 66  1  0  0  0
 33 70  2  0  0  0
 34 36  1  0  0  0
 34 59  1  0  0  0
 34108  1  0  0  0
 35 44  2  0  0  0
 35 45  1  0  0  0
 35 68  1  0  0  0
 36 56  1  0  0  0
 36109  1  0  0  0
 37 39  1  0  0  0
 37 47  1  0  0  0
 37 66  1  0  0  0
 37110  1  0  0  0
 38 43  2  0  0  0
 38 46  1  0  0  0
 38 47  1  0  0  0
 39 64  1  0  0  0
 39 67  2  0  0  0
 40 52  1  0  0  0
 40 53  2  0  0  0
 40 58  1  0  0  0
 41111  1  0  0  0
 41112  1  0  0  0
 41113  1  0  0  0
 41 48  1  0  0  0
 42 43  1  0  0  0
 42 66  1  0  0  0
 42114  1  0  0  0
 42115  1  0  0  0
 43 44  1  0  0  0
 44116  1  0  0  0
 45 46  2  0  0  0
 45117  1  0  0  0
 46118  1  0  0  0
 47119  1  0  0  0
 47120  1  0  0  0
 48 56  1  0  0  0
 48 65  1  0  0  0
 48121  1  0  0  0
 49 50  1  0  0  0
 49 53  1  0  0  0
 49 64  1  0  0  0
 49122  1  0  0  0
 50 51  1  0  0  0
 50123  1  0  0  0
 50124  1  0  0  0
 51 52  1  0  0  0
 51125  1  0  0  0
 51126  1  0  0  0
 52127  1  0  0  0
 52128  1  0  0  0
 53 54  1  0  0  0
 54 55  2  0  0  0
 54129  1  0  0  0
 55 57  1  0  0  0
 55130  1  0  0  0
 56 69  2  0  0  0
 57 58  2  0  0  0
 57131  1  0  0  0
 58132  1  0  0  0
 59 60  1  0  0  0
 59 61  1  0  0  0
 59 62  1  0  0  0
 60133  1  0  0  0
 60134  1  0  0  0
 60135  1  0  0  0
 61136  1  0  0  0
 61137  1  0  0  0
 61138  1  0  0  0
 62139  1  0  0  0
 62140  1  0  0  0
 62141  1  0  0  0
 63 65  1  0  0  0
 63142  1  0  0  0
 63143  1  0  0  0
 63144  1  0  0  0
 64145  1  0  0  0
 65146  1  0  0  0
 68 81  1  0  0  0
 71 72  2  0  0  0
 71 74  1  0  0  0
 71147  1  0  0  0
 72 75  1  0  0  0
 72148  1  0  0  0
 73 74  2  0  0  0
 73 76  1  0  0  0
 73149  1  0  0  0
 74 82  1  0  0  0
 75 76  2  0  0  0
 75 83  1  0  0  0
 76 84  1  0  0  0
 77 79  1  0  0  0
 77 81  1  0  0  0
 77150  1  0  0  0
 77151  1  0  0  0
 78 80  1  0  0  0
 78 81  1  0  0  0
 78152  1  0  0  0
 78153  1  0  0  0
 79 83  1  0  0  0
 79154  1  0  0  0
 79155  1  0  0  0
 80 83  1  0  0  0
 80156  1  0  0  0
 80157  1  0  0  0
 81158  1  0  0  0
 82 85  1  0  0  0
 82 86  1  0  0  0
 82 87  1  0  0  0
 84159  1  0  0  0
M  ISO  4   1 100  68 101  81 101  84 100
M  END
> <chiral flag>
0

> <version>
0

> <s_m_source_file>
/data/baiqing/PycharmProjects/Reinvent-master-3.2/result/LINK_invent/BTK/process_docking_weight1_custom_product_contain_oxygen_bond_distance_aromatic_linkinvent_7_9_3/rearranged_h_0007.sdf

> <i_m_source_file_index>
27

> <r_mmod_Potential_Energy-OPLS-2005>
2145.87231445312

> <r_mmod_Stretch_Energy-OPLS-2005>
593.642395019531

> <r_mmod_Bend_Energy-OPLS-2005>
751.22607421875

> <r_mmod_Torsional_Energy-OPLS-2005>
588.624877929688

> <r_mmod_Improper_Torsional_Energy-OPLS-2005>
41.6755523681641

> <r_mmod_Van_der_Waal_Energy-OPLS-2005>
187.139022827148

> <r_mmod_Electrostatic_Energy-OPLS-2005>
-433.929504394531

> <r_mmod_Solvation_Energy-OPLS-2005>
-217.334869384766

> <b_mmod_Minimization_Converged-OPLS-2005>
0

> <r_mmod_RMS_Derivative-OPLS-2005>
68.1853256225586

$$$$
27
                    3D
 Structure written by MMmdl.
155164  0  0  1  0            999 V2000
  -30.6041  -14.6714   20.4994 C   0  0  0  0  0  0
  -30.4520  -12.4073   19.4664 C   0  0  0  0  0  0
  -29.5294  -12.5176   18.2313 C   0  0  0  0  0  0
  -28.0475  -12.3429   18.6300 C   0  0  0  0  0  0
  -27.6559  -13.2153   19.8528 C   0  0  2  0  0  0
  -28.6973  -13.0791   20.9880 C   0  0  0  0  0  0
  -25.2567  -13.8160   20.5574 C   0  0  0  0  0  0
  -24.1839  -13.0431   20.9141 C   0  0  0  0  0  0
  -24.6403  -11.6904   20.8667 C   0  0  0  0  0  0
  -23.9065  -10.4293   21.0360 C   0  0  0  0  0  0
  -24.3595   -9.4217   21.9157 C   0  0  0  0  0  0
  -23.6281   -8.2241   22.0736 C   0  0  0  0  0  0
  -22.4269   -8.0259   21.3525 C   0  0  0  0  0  0
  -21.9900   -9.0251   20.4651 C   0  0  0  0  0  0
  -22.7215  -10.2136   20.3048 C   0  0  0  0  0  0
  -21.6861   -6.0719   22.5264 C   0  0  0  0  0  0
  -21.4021   -6.5622   23.8195 C   0  0  0  0  0  0
  -21.3653   -5.6772   24.9158 C   0  0  0  0  0  0
  -21.6046   -4.3039   24.7209 C   0  0  0  0  0  0
  -21.8830   -3.8134   23.4329 C   0  0  0  0  0  0
  -21.9179   -4.6950   22.3383 C   0  0  0  0  0  0
  -22.7849  -13.5228   21.1803 C   0  0  0  0  0  0
  -22.1667   -4.2137   21.0964 F   0  0  0  0  0  0
  -21.5626   -3.4525   25.7721 F   0  0  0  0  0  0
  -30.0129  -13.4345   20.4311 N   0  0  0  0  0  0
  -26.2996  -12.9340   20.3201 N   0  0  0  0  0  0
  -25.9340  -11.6512   20.5662 N   0  0  0  0  0  0
  -22.0476  -12.8266   22.0383 N   0  0  0  0  0  0
  -25.4287  -15.1861   20.3917 N   0  0  0  0  0  0
  -31.7789  -14.8353   20.1501 O   0  0  0  0  0  0
  -21.6628   -6.8855   21.4212 O   0  0  0  0  0  0
  -22.3541  -14.5509   20.6591 O   0  0  0  0  0  0
  -24.6257  -31.8592   23.2029 C   0  0  0  0  0  0
  -25.9102  -32.4762   23.8347 C   0  0  1  0  0  0
  -27.2189  -27.3110   20.1215 C   0  0  0  0  0  0
  -25.5929  -33.8561   24.2281 N   0  0  0  0  0  0
  -23.4179  -30.4817   21.5489 C   0  0  2  0  0  0
  -24.8635  -28.9429   20.1062 C   0  0  0  0  0  0
  -22.7451  -29.4615   22.4973 C   0  0  0  0  0  0
  -18.0270  -28.1375   22.8484 C   0  0  0  0  0  0
  -24.1490  -36.7316   23.2635 C   0  0  0  0  0  0
  -25.9589  -30.7889   21.3725 C   0  0  0  0  0  0
  -26.0312  -29.4151   20.7169 C   0  0  0  0  0  0
  -27.2099  -28.6113   20.7169 C   0  0  0  0  0  0
  -26.0284  -26.9001   19.4744 C   0  0  0  0  0  0
  -24.8663  -27.6923   19.4716 C   0  0  0  0  0  0
  -23.6285  -29.8184   20.1632 C   0  0  0  0  0  0
  -25.4112  -36.3086   24.0317 C   0  0  1  0  0  0
  -20.5864  -28.3672   23.1305 C   0  0  2  0  0  0
  -20.6762  -26.9399   22.5418 C   0  0  0  0  0  0
  -19.5746  -26.6376   21.5219 C   0  0  0  0  0  0
  -18.1928  -26.7919   22.1619 C   0  0  0  0  0  0
  -19.1520  -28.8846   23.2884 C   0  0  0  0  0  0
  -18.9441  -30.1466   23.8868 C   0  0  0  0  0  0
  -17.6438  -30.6576   24.0563 C   0  0  0  0  0  0
  -25.9051  -34.9441   23.5098 C   0  0  0  0  0  0
  -16.5332  -29.9068   23.6333 C   0  0  0  0  0  0
  -16.7257  -28.6492   23.0340 C   0  0  0  0  0  0
  -26.4490  -31.6553   25.0703 C   0  0  0  0  0  0
  -25.3739  -31.3693   26.1460 C   0  0  0  0  0  0
  -27.0293  -30.2969   24.6127 C   0  0  0  0  0  0
  -27.6077  -32.4263   25.7451 C   0  0  0  0  0  0
  -27.5594  -37.1796   24.8443 C   0  0  0  0  0  0
  -21.4167  -29.3023   22.3710 N   0  0  0  0  0  0
  -26.4291  -37.3782   23.9405 N   0  0  0  0  0  0
  -24.6875  -31.0590   22.0989 N   0  0  0  0  0  0
  -23.4187  -28.8170   23.3049 O   0  0  0  0  0  0
  -28.3337  -26.4557   20.1896 O   0  0  0  0  0  0
  -26.5608  -34.8901   22.4657 O   0  0  0  0  0  0
  -23.5421  -32.1410   23.7337 O   0  0  0  0  0  0
  -28.7212  -19.4246   20.6784 C   0  0  0  0  0  0
  -28.6966  -17.9910   20.6993 C   0  0  0  0  0  0
  -31.0937  -17.9141   20.6979 C   0  0  0  0  0  0
  -29.9443  -20.1475   20.6907 C   0  0  0  0  0  0
  -29.8757  -17.1860   20.7142 C   0  0  0  0  0  0
  -31.1217  -19.3411   20.6893 C   0  0  0  0  0  0
  -29.3718  -24.0641   20.0604 C   0  0  0  0  0  0
  -27.3099  -24.2938   21.1434 C   0  0  0  0  0  0
  -27.7576  -22.8034   21.1072 C   0  0  0  0  0  0
  -28.1177  -24.9892   20.0374 C   0  0  1  0  0  0
  -30.1283  -21.7207   20.7730 C   0  0  0  0  0  0
  -29.0979  -22.8013   20.5193 N   0  0  0  0  0  0
  -29.7594  -15.7188   20.7857 N   0  0  0  0  0  0
  -30.4844  -24.4610   19.6979 O   0  0  0  0  0  0
  -32.3297  -19.9552   20.7013 F   0  0  0  0  0  0
  -31.4966  -12.5348   19.1767 H   0  0  0  0  0  0
  -30.3833  -11.4136   19.9136 H   0  0  0  0  0  0
  -29.8129  -11.7766   17.4824 H   0  0  0  0  0  0
  -29.6668  -13.4923   17.7584 H   0  0  0  0  0  0
  -27.8870  -11.2893   18.8609 H   0  0  0  0  0  0
  -27.4008  -12.5692   17.7823 H   0  0  0  0  0  0
  -27.6690  -14.2464   19.4992 H   0  0  0  0  0  0
  -28.7152  -12.0588   21.3753 H   0  0  0  0  0  0
  -28.4404  -13.7104   21.8392 H   0  0  0  0  0  0
  -25.2758   -9.5692   22.4691 H   0  0  0  0  0  0
  -24.0010   -7.4626   22.7456 H   0  0  0  0  0  0
  -21.0827   -8.8751   19.8965 H   0  0  0  0  0  0
  -22.3660  -10.9644   19.6136 H   0  0  0  0  0  0
  -21.2052   -7.6137   23.9703 H   0  0  0  0  0  0
  -21.1464   -6.0498   25.9051 H   0  0  0  0  0  0
  -22.0621   -2.7599   23.2818 H   0  0  0  0  0  0
  -22.4097  -12.0001   22.4912 H   0  0  0  0  0  0
  -21.1062  -13.1300   22.2491 H   0  0  0  0  0  0
  -24.6531  -15.8354   20.4636 H   0  0  0  0  0  0
  -26.2607  -15.6015   19.9912 H   0  0  0  0  0  0
  -26.7163  -32.5423   23.1090 H   0  0  0  0  0  0
  -25.0078  -33.9686   25.0425 H   0  0  0  0  0  0
  -22.7127  -31.3033   21.4099 H   0  0  0  0  0  0
  -23.3737  -35.9665   23.3260 H   0  0  0  0  0  0
  -24.3624  -36.8984   22.2071 H   0  0  0  0  0  0
  -23.7250  -37.6502   23.6684 H   0  0  0  0  0  0
  -26.0775  -31.5534   20.6042 H   0  0  0  0  0  0
  -26.8428  -30.8460   21.9945 H   0  0  0  0  0  0
  -28.1036  -28.9661   21.2099 H   0  0  0  0  0  0
  -25.9540  -25.9530   18.9647 H   0  0  0  0  0  0
  -23.9747  -27.3328   18.9764 H   0  0  0  0  0  0
  -23.7323  -30.5933   19.4038 H   0  0  0  0  0  0
  -22.7492  -29.2408   19.8732 H   0  0  0  0  0  0
  -25.1290  -36.1947   25.0809 H   0  0  0  0  0  0
  -20.9950  -28.3239   24.1427 H   0  0  0  0  0  0
  -20.5693  -26.2264   23.3601 H   0  0  0  0  0  0
  -21.6631  -26.7452   22.1225 H   0  0  0  0  0  0
  -19.6922  -25.6291   21.1254 H   0  0  0  0  0  0
  -19.6707  -27.3171   20.6739 H   0  0  0  0  0  0
  -17.4211  -26.6657   21.4015 H   0  0  0  0  0  0
  -18.0329  -26.0065   22.9018 H   0  0  0  0  0  0
  -19.7918  -30.7299   24.2212 H   0  0  0  0  0  0
  -17.4983  -31.6249   24.5178 H   0  0  0  0  0  0
  -15.5334  -30.2950   23.7671 H   0  0  0  0  0  0
  -15.8657  -28.0815   22.7039 H   0  0  0  0  0  0
  -24.5823  -30.7166   25.7766 H   0  0  0  0  0  0
  -24.9043  -32.2872   26.5007 H   0  0  0  0  0  0
  -25.8076  -30.8736   27.0158 H   0  0  0  0  0  0
  -26.2844  -29.6731   24.1188 H   0  0  0  0  0  0
  -27.4024  -29.7217   25.4606 H   0  0  0  0  0  0
  -27.8707  -30.4215   23.9310 H   0  0  0  0  0  0
  -27.2717  -33.3535   26.2098 H   0  0  0  0  0  0
  -28.3857  -32.6867   25.0261 H   0  0  0  0  0  0
  -28.0794  -31.8344   26.5304 H   0  0  0  0  0  0
  -28.2568  -38.0129   24.7536 H   0  0  0  0  0  0
  -28.1125  -36.2660   24.6202 H   0  0  0  0  0  0
  -27.2326  -37.1398   25.8844 H   0  0  0  0  0  0
  -20.9338  -29.8723   21.6907 H   0  0  0  0  0  0
  -26.0168  -38.2855   24.1404 H   0  0  0  0  0  0
  -27.7823  -19.9605   20.6741 H   0  0  0  0  0  0
  -27.7306  -17.5029   20.7013 H   0  0  0  0  0  0
  -32.0368  -17.3902   20.7086 H   0  0  0  0  0  0
  -27.5630  -24.7348   22.1100 H   0  0  0  0  0  0
  -26.2340  -24.4078   21.0116 H   0  0  0  0  0  0
  -27.0894  -22.2264   20.4671 H   0  0  0  0  0  0
  -27.7436  -22.3506   22.0996 H   0  0  0  0  0  0
  -27.6776  -24.7830   19.0636 H   0  0  0  0  0  0
  -30.9568  -21.9308   20.0966 H   0  0  0  0  0  0
  -30.5265  -21.9224   21.7689 H   0  0  0  0  0  0
  -28.8276  -15.3911   20.9918 H   0  0  0  0  0  0
  1 25  1  0  0  0
  1 30  2  0  0  0
  1 83  1  0  0  0
  2  3  1  0  0  0
  2 25  1  0  0  0
  2 86  1  0  0  0
  2 87  1  0  0  0
  3  4  1  0  0  0
  3 88  1  0  0  0
  3 89  1  0  0  0
  4  5  1  0  0  0
  4 90  1  0  0  0
  4 91  1  0  0  0
  5  6  1  0  0  0
  5 26  1  0  0  0
  5 92  1  0  0  0
  6 25  1  0  0  0
  6 93  1  0  0  0
  6 94  1  0  0  0
  7  8  2  0  0  0
  7 26  1  0  0  0
  7 29  1  0  0  0
  8  9  1  0  0  0
  8 22  1  0  0  0
  9 10  1  0  0  0
  9 27  2  0  0  0
 10 11  2  0  0  0
 10 15  1  0  0  0
 11 12  1  0  0  0
 11 95  1  0  0  0
 12 13  2  0  0  0
 12 96  1  0  0  0
 13 14  1  0  0  0
 13 31  1  0  0  0
 14 15  2  0  0  0
 14 97  1  0  0  0
 15 98  1  0  0  0
 16 17  2  0  0  0
 16 21  1  0  0  0
 16 31  1  0  0  0
 17 18  1  0  0  0
 17 99  1  0  0  0
 18 19  2  0  0  0
 18100  1  0  0  0
 19 20  1  0  0  0
 19 24  1  0  0  0
 20 21  2  0  0  0
 20101  1  0  0  0
 21 23  1  0  0  0
 22 28  1  0  0  0
 22 32  2  0  0  0
 26 27  1  0  0  0
 28102  1  0  0  0
 28103  1  0  0  0
 29104  1  0  0  0
 29105  1  0  0  0
 33 34  1  0  0  0
 33 66  1  0  0  0
 33 70  2  0  0  0
 34 36  1  0  0  0
 34 59  1  0  0  0
 34106  1  0  0  0
 35 44  2  0  0  0
 35 45  1  0  0  0
 35 68  1  0  0  0
 36 56  1  0  0  0
 36107  1  0  0  0
 37 39  1  0  0  0
 37 47  1  0  0  0
 37 66  1  0  0  0
 37108  1  0  0  0
 38 43  2  0  0  0
 38 46  1  0  0  0
 38 47  1  0  0  0
 39 64  1  0  0  0
 39 67  2  0  0  0
 40 52  1  0  0  0
 40 53  2  0  0  0
 40 58  1  0  0  0
 41109  1  0  0  0
 41110  1  0  0  0
 41111  1  0  0  0
 41 48  1  0  0  0
 42 43  1  0  0  0
 42 66  1  0  0  0
 42112  1  0  0  0
 42113  1  0  0  0
 43 44  1  0  0  0
 44114  1  0  0  0
 45 46  2  0  0  0
 45115  1  0  0  0
 46116  1  0  0  0
 47117  1  0  0  0
 47118  1  0  0  0
 48 56  1  0  0  0
 48 65  1  0  0  0
 48119  1  0  0  0
 49 50  1  0  0  0
 49 53  1  0  0  0
 49 64  1  0  0  0
 49120  1  0  0  0
 50 51  1  0  0  0
 50121  1  0  0  0
 50122  1  0  0  0
 51 52  1  0  0  0
 51123  1  0  0  0
 51124  1  0  0  0
 52125  1  0  0  0
 52126  1  0  0  0
 53 54  1  0  0  0
 54 55  2  0  0  0
 54127  1  0  0  0
 55 57  1  0  0  0
 55128  1  0  0  0
 56 69  2  0  0  0
 57 58  2  0  0  0
 57129  1  0  0  0
 58130  1  0  0  0
 59 60  1  0  0  0
 59 61  1  0  0  0
 59 62  1  0  0  0
 60131  1  0  0  0
 60132  1  0  0  0
 60133  1  0  0  0
 61134  1  0  0  0
 61135  1  0  0  0
 61136  1  0  0  0
 62137  1  0  0  0
 62138  1  0  0  0
 62139  1  0  0  0
 63 65  1  0  0  0
 63140  1  0  0  0
 63141  1  0  0  0
 63142  1  0  0  0
 64143  1  0  0  0
 65144  1  0  0  0
 68 80  1  0  0  0
 71 72  2  0  0  0
 71 74  1  0  0  0
 71145  1  0  0  0
 72 75  1  0  0  0
 72146  1  0  0  0
 73 75  2  0  0  0
 73 76  1  0  0  0
 73147  1  0  0  0
 74 76  2  0  0  0
 74 81  1  0  0  0
 75 83  1  0  0  0
 76 85  1  0  0  0
 77 80  1  0  0  0
 77 82  1  0  0  0
 77 84  2  0  0  0
 78 79  1  0  0  0
 78 80  1  0  0  0
 78148  1  0  0  0
 78149  1  0  0  0
 79 82  1  0  0  0
 79150  1  0  0  0
 79151  1  0  0  0
 80152  1  0  0  0
 81 82  1  0  0  0
 81153  1  0  0  0
 81154  1  0  0  0
 83155  1  0  0  0
M  ISO  4   1 100  68 101  80 101  83 100
M  END
> <chiral flag>
0

> <version>
0

> <s_m_source_file>
/data/baiqing/PycharmProjects/Reinvent-master-3.2/result/LINK_invent/BTK/process_docking_weight1_custom_product_contain_oxygen_bond_distance_aromatic_linkinvent_7_9_3/rearranged_h_0007.sdf

> <i_m_source_file_index>
28

> <r_mmod_Potential_Energy-OPLS-2005>
144.584716796875

> <r_mmod_Stretch_Energy-OPLS-2005>
85.5951156616211

> <r_mmod_Bend_Energy-OPLS-2005>
198.883499145508

> <r_mmod_Torsional_Energy-OPLS-2005>
231.26432800293

> <r_mmod_Improper_Torsional_Energy-OPLS-2005>
5.80612993240356

> <r_mmod_Van_der_Waal_Energy-OPLS-2005>
137.812301635742

> <r_mmod_Electrostatic_Energy-OPLS-2005>
-330.693664550781

> <r_mmod_Solvation_Energy-OPLS-2005>
-241.349395751953

> <b_mmod_Minimization_Converged-OPLS-2005>
0

> <r_mmod_RMS_Derivative-OPLS-2005>
3.97656869888306

$$$$
28
                    3D
 Structure written by MMmdl.
151159  0  0  1  0            999 V2000
  -30.4550  -15.2602   20.4223 C   0  0  0  0  0  0
  -30.4385  -12.8055   19.5505 C   0  0  0  0  0  0
  -29.5422  -12.5968   18.3008 C   0  0  0  0  0  0
  -28.0863  -12.3175   18.7097 C   0  0  0  0  0  0
  -27.6158  -13.2746   19.8307 C   0  0  2  0  0  0
  -28.6427  -13.4074   20.9740 C   0  0  0  0  0  0
  -25.2331  -13.8183   20.5626 C   0  0  0  0  0  0
  -24.1713  -13.0388   20.9212 C   0  0  0  0  0  0
  -24.6398  -11.6900   20.8751 C   0  0  0  0  0  0
  -23.9095  -10.4268   21.0405 C   0  0  0  0  0  0
  -24.3637   -9.4188   21.9188 C   0  0  0  0  0  0
  -23.6300   -8.2231   22.0759 C   0  0  0  0  0  0
  -22.4282   -8.0274   21.3547 C   0  0  0  0  0  0
  -21.9924   -9.0248   20.4648 C   0  0  0  0  0  0
  -22.7264  -10.2118   20.3055 C   0  0  0  0  0  0
  -21.6853   -6.0733   22.5279 C   0  0  0  0  0  0
  -21.4013   -6.5638   23.8212 C   0  0  0  0  0  0
  -21.3657   -5.6791   24.9173 C   0  0  0  0  0  0
  -21.6043   -4.3054   24.7225 C   0  0  0  0  0  0
  -21.8820   -3.8145   23.4346 C   0  0  0  0  0  0
  -21.9194   -4.6961   22.3402 C   0  0  0  0  0  0
  -22.7739  -13.5153   21.1884 C   0  0  0  0  0  0
  -22.1665   -4.2149   21.0980 F   0  0  0  0  0  0
  -21.5628   -3.4537   25.7737 F   0  0  0  0  0  0
  -29.8893  -13.9435   20.3885 N   0  0  0  0  0  0
  -26.2813  -12.9497   20.3193 N   0  0  0  0  0  0
  -25.9344  -11.6605   20.5727 N   0  0  0  0  0  0
  -22.0415  -12.8146   22.0462 N   0  0  0  0  0  0
  -25.3840  -15.1884   20.3918 N   0  0  0  0  0  0
  -31.6261  -15.2714   20.0116 O   0  0  0  0  0  0
  -21.6639   -6.8877   21.4243 O   0  0  0  0  0  0
  -22.3410  -14.5459   20.6739 O   0  0  0  0  0  0
  -24.6620  -31.8238   23.1702 C   0  0  0  0  0  0
  -25.9305  -32.4589   23.8165 C   0  0  1  0  0  0
  -27.2261  -26.9385   20.1851 C   0  0  0  0  0  0
  -25.5976  -33.8403   24.2075 N   0  0  0  0  0  0
  -23.4767  -30.4340   21.5190 C   0  0  2  0  0  0
  -24.9319  -28.8208   20.1120 C   0  0  0  0  0  0
  -22.7663  -29.4438   22.4784 C   0  0  0  0  0  0
  -18.0322  -28.1407   22.8467 C   0  0  0  0  0  0
  -24.1492  -36.7205   23.2647 C   0  0  0  0  0  0
  -26.0445  -30.6343   21.3982 C   0  0  0  0  0  0
  -26.1145  -29.2243   20.7441 C   0  0  0  0  0  0
  -27.2557  -28.3041   20.7552 C   0  0  0  0  0  0
  -26.0144  -26.6834   19.5043 C   0  0  0  0  0  0
  -24.9065  -27.5706   19.4717 C   0  0  0  0  0  0
  -23.7164  -29.7467   20.1460 C   0  0  0  0  0  0
  -25.4134  -36.2967   24.0299 C   0  0  1  0  0  0
  -20.5945  -28.3750   23.1191 C   0  0  2  0  0  0
  -20.6796  -26.9431   22.5403 C   0  0  0  0  0  0
  -19.5772  -26.6377   21.5212 C   0  0  0  0  0  0
  -18.1954  -26.7940   22.1621 C   0  0  0  0  0  0
  -19.1582  -28.8899   23.2816 C   0  0  0  0  0  0
  -18.9493  -30.1489   23.8851 C   0  0  0  0  0  0
  -17.6486  -30.6597   24.0553 C   0  0  0  0  0  0
  -25.9098  -34.9350   23.5008 C   0  0  0  0  0  0
  -16.5377  -29.9083   23.6342 C   0  0  0  0  0  0
  -16.7303  -28.6503   23.0363 C   0  0  0  0  0  0
  -26.4561  -31.6534   25.0691 C   0  0  0  0  0  0
  -25.3690  -31.3782   26.1348 C   0  0  0  0  0  0
  -27.0459  -30.2904   24.6417 C   0  0  0  0  0  0
  -27.6054  -32.4342   25.7497 C   0  0  0  0  0  0
  -27.5568  -37.1760   24.8467 C   0  0  0  0  0  0
  -21.4333  -29.3039   22.3537 N   0  0  0  0  0  0
  -26.4279  -37.3703   23.9407 N   0  0  0  0  0  0
  -24.7490  -30.9908   22.0831 N   0  0  0  0  0  0
  -23.4213  -28.8015   23.3030 O   0  0  0  0  0  0
  -28.2374  -25.8458   20.2735 O   0  0  0  0  0  0
  -26.5708  -34.8886   22.4603 O   0  0  0  0  0  0
  -23.5692  -32.1204   23.6802 O   0  0  0  0  0  0
  -27.7553  -17.2969   21.8178 C   0  0  0  0  0  0
  -27.7963  -17.8296   20.3777 C   0  0  0  0  0  0
  -29.1282  -16.6533   22.0638 C   0  0  0  0  0  0
  -29.2889  -18.0125   20.1041 C   0  0  1  0  0  0
  -29.5368  -19.7426   20.5523 C   0  0  0  0  0  0
  -28.0129  -24.2226   20.0771 C   0  0  0  0  0  0
  -28.9509  -22.7184   20.4423 C   0  0  0  0  0  0
  -29.7537  -16.5405   20.7505 N   0  0  0  0  0  0
  -28.7402  -21.1175   20.1235 O   0  0  0  0  0  0
  -31.4623  -12.9950   19.2260 H   0  0  0  0  0  0
  -30.4977  -11.8871   20.1370 H   0  0  0  0  0  0
  -29.9243  -11.7780   17.6897 H   0  0  0  0  0  0
  -29.5803  -13.4902   17.6759 H   0  0  0  0  0  0
  -28.0323  -11.2866   19.0616 H   0  0  0  0  0  0
  -27.4251  -12.3821   17.8449 H   0  0  0  0  0  0
  -27.5435  -14.2549   19.3580 H   0  0  0  0  0  0
  -28.8056  -12.4501   21.4712 H   0  0  0  0  0  0
  -28.2358  -14.0662   21.7341 H   0  0  0  0  0  0
  -25.2780   -9.5663   22.4767 H   0  0  0  0  0  0
  -24.0003   -7.4622   22.7483 H   0  0  0  0  0  0
  -21.0854   -8.8772   19.8955 H   0  0  0  0  0  0
  -22.3726  -10.9658   19.6164 H   0  0  0  0  0  0
  -21.2005   -7.6146   23.9714 H   0  0  0  0  0  0
  -21.1479   -6.0521   25.9076 H   0  0  0  0  0  0
  -22.0602   -2.7608   23.2845 H   0  0  0  0  0  0
  -22.4055  -11.9818   22.4849 H   0  0  0  0  0  0
  -21.1036  -13.1164   22.2691 H   0  0  0  0  0  0
  -24.6125  -15.8350   20.5125 H   0  0  0  0  0  0
  -26.2394  -15.6387   20.0963 H   0  0  0  0  0  0
  -26.7374  -32.5134   23.0881 H   0  0  0  0  0  0
  -25.0077  -33.9480   25.0195 H   0  0  0  0  0  0
  -22.7895  -31.2651   21.3472 H   0  0  0  0  0  0
  -23.3765  -35.9524   23.3282 H   0  0  0  0  0  0
  -24.3569  -36.8878   22.2066 H   0  0  0  0  0  0
  -23.7240  -37.6383   23.6719 H   0  0  0  0  0  0
  -26.2214  -31.3757   20.6178 H   0  0  0  0  0  0
  -26.9056  -30.6934   22.0521 H   0  0  0  0  0  0
  -28.1507  -28.6112   21.2777 H   0  0  0  0  0  0
  -25.8910  -25.7269   19.0172 H   0  0  0  0  0  0
  -24.0077  -27.2556   18.9596 H   0  0  0  0  0  0
  -23.8697  -30.5136   19.3859 H   0  0  0  0  0  0
  -22.8268  -29.1986   19.8305 H   0  0  0  0  0  0
  -25.1333  -36.1762   25.0790 H   0  0  0  0  0  0
  -21.0034  -28.3356   24.1314 H   0  0  0  0  0  0
  -20.5673  -26.2368   23.3642 H   0  0  0  0  0  0
  -21.6661  -26.7406   22.1212 H   0  0  0  0  0  0
  -19.6930  -25.6275   21.1273 H   0  0  0  0  0  0
  -19.6712  -27.3159   20.6721 H   0  0  0  0  0  0
  -17.4222  -26.6682   21.4025 H   0  0  0  0  0  0
  -18.0351  -26.0095   22.9030 H   0  0  0  0  0  0
  -19.7968  -30.7317   24.2201 H   0  0  0  0  0  0
  -17.5037  -31.6273   24.5163 H   0  0  0  0  0  0
  -15.5374  -30.2969   23.7693 H   0  0  0  0  0  0
  -15.8705  -28.0804   22.7107 H   0  0  0  0  0  0
  -24.5890  -30.7112   25.7657 H   0  0  0  0  0  0
  -24.8859  -32.2981   26.4649 H   0  0  0  0  0  0
  -25.7924  -30.9033   27.0208 H   0  0  0  0  0  0
  -26.3124  -29.6579   24.1404 H   0  0  0  0  0  0
  -27.3976  -29.7268   25.5069 H   0  0  0  0  0  0
  -27.9069  -30.4090   23.9837 H   0  0  0  0  0  0
  -27.2623  -33.3686   26.1951 H   0  0  0  0  0  0
  -28.3931  -32.6833   25.0375 H   0  0  0  0  0  0
  -28.0647  -31.8551   26.5517 H   0  0  0  0  0  0
  -28.2571  -38.0069   24.7509 H   0  0  0  0  0  0
  -28.1079  -36.2595   24.6303 H   0  0  0  0  0  0
  -27.2283  -37.1412   25.8869 H   0  0  0  0  0  0
  -20.9588  -29.8721   21.6659 H   0  0  0  0  0  0
  -26.0126  -38.2760   24.1415 H   0  0  0  0  0  0
  -26.9458  -16.5842   21.9636 H   0  0  0  0  0  0
  -27.5917  -18.1078   22.5292 H   0  0  0  0  0  0
  -27.2111  -18.7416   20.2493 H   0  0  0  0  0  0
  -27.3887  -17.0897   19.6881 H   0  0  0  0  0  0
  -29.0736  -15.7315   22.6384 H   0  0  0  0  0  0
  -29.7466  -17.3255   22.6608 H   0  0  0  0  0  0
  -29.4650  -17.9438   19.0298 H   0  0  0  0  0  0
  -30.5799  -19.9526   20.3145 H   0  0  0  0  0  0
  -29.5068  -19.7644   21.6419 H   0  0  0  0  0  0
  -27.0461  -24.0490   20.5496 H   0  0  0  0  0  0
  -27.8002  -24.1429   19.0111 H   0  0  0  0  0  0
  -29.0911  -22.7417   21.5230 H   0  0  0  0  0  0
  -29.9461  -22.9157   20.0436 H   0  0  0  0  0  0
  1 25  1  0  0  0
  1 30  2  0  0  0
  1 78  1  0  0  0
  2  3  1  0  0  0
  2 25  1  0  0  0
  2 80  1  0  0  0
  2 81  1  0  0  0
  3  4  1  0  0  0
  3 82  1  0  0  0
  3 83  1  0  0  0
  4  5  1  0  0  0
  4 84  1  0  0  0
  4 85  1  0  0  0
  5  6  1  0  0  0
  5 26  1  0  0  0
  5 86  1  0  0  0
  6 25  1  0  0  0
  6 87  1  0  0  0
  6 88  1  0  0  0
  7  8  2  0  0  0
  7 26  1  0  0  0
  7 29  1  0  0  0
  8  9  1  0  0  0
  8 22  1  0  0  0
  9 10  1  0  0  0
  9 27  2  0  0  0
 10 11  2  0  0  0
 10 15  1  0  0  0
 11 12  1  0  0  0
 11 89  1  0  0  0
 12 13  2  0  0  0
 12 90  1  0  0  0
 13 14  1  0  0  0
 13 31  1  0  0  0
 14 15  2  0  0  0
 14 91  1  0  0  0
 15 92  1  0  0  0
 16 17  2  0  0  0
 16 21  1  0  0  0
 16 31  1  0  0  0
 17 18  1  0  0  0
 17 93  1  0  0  0
 18 19  2  0  0  0
 18 94  1  0  0  0
 19 20  1  0  0  0
 19 24  1  0  0  0
 20 21  2  0  0  0
 20 95  1  0  0  0
 21 23  1  0  0  0
 22 28  1  0  0  0
 22 32  2  0  0  0
 26 27  1  0  0  0
 28 96  1  0  0  0
 28 97  1  0  0  0
 29 98  1  0  0  0
 29 99  1  0  0  0
 33 34  1  0  0  0
 33 66  1  0  0  0
 33 70  2  0  0  0
 34 36  1  0  0  0
 34 59  1  0  0  0
 34100  1  0  0  0
 35 44  2  0  0  0
 35 45  1  0  0  0
 35 68  1  0  0  0
 36 56  1  0  0  0
 36101  1  0  0  0
 37 39  1  0  0  0
 37 47  1  0  0  0
 37 66  1  0  0  0
 37102  1  0  0  0
 38 43  2  0  0  0
 38 46  1  0  0  0
 38 47  1  0  0  0
 39 64  1  0  0  0
 39 67  2  0  0  0
 40 52  1  0  0  0
 40 53  2  0  0  0
 40 58  1  0  0  0
 41103  1  0  0  0
 41104  1  0  0  0
 41105  1  0  0  0
 41 48  1  0  0  0
 42 43  1  0  0  0
 42 66  1  0  0  0
 42106  1  0  0  0
 42107  1  0  0  0
 43 44  1  0  0  0
 44108  1  0  0  0
 45 46  2  0  0  0
 45109  1  0  0  0
 46110  1  0  0  0
 47111  1  0  0  0
 47112  1  0  0  0
 48 56  1  0  0  0
 48 65  1  0  0  0
 48113  1  0  0  0
 49 50  1  0  0  0
 49 53  1  0  0  0
 49 64  1  0  0  0
 49114  1  0  0  0
 50 51  1  0  0  0
 50115  1  0  0  0
 50116  1  0  0  0
 51 52  1  0  0  0
 51117  1  0  0  0
 51118  1  0  0  0
 52119  1  0  0  0
 52120  1  0  0  0
 53 54  1  0  0  0
 54 55  2  0  0  0
 54121  1  0  0  0
 55 57  1  0  0  0
 55122  1  0  0  0
 56 69  2  0  0  0
 57 58  2  0  0  0
 57123  1  0  0  0
 58124  1  0  0  0
 59 60  1  0  0  0
 59 61  1  0  0  0
 59 62  1  0  0  0
 60125  1  0  0  0
 60126  1  0  0  0
 60127  1  0  0  0
 61128  1  0  0  0
 61129  1  0  0  0
 61130  1  0  0  0
 62131  1  0  0  0
 62132  1  0  0  0
 62133  1  0  0  0
 63 65  1  0  0  0
 63134  1  0  0  0
 63135  1  0  0  0
 63136  1  0  0  0
 64137  1  0  0  0
 65138  1  0  0  0
 68 76  1  0  0  0
 71 72  1  0  0  0
 71 73  1  0  0  0
 71139  1  0  0  0
 71140  1  0  0  0
 72 74  1  0  0  0
 72141  1  0  0  0
 72142  1  0  0  0
 73 78  1  0  0  0
 73143  1  0  0  0
 73144  1  0  0  0
 74 75  1  0  0  0
 74 78  1  0  0  0
 74145  1  0  0  0
 75 79  1  0  0  0
 75146  1  0  0  0
 75147  1  0  0  0
 76 77  1  0  0  0
 76148  1  0  0  0
 76149  1  0  0  0
 77 79  1  0  0  0
 77150  1  0  0  0
 77151  1  0  0  0
M  ISO  4   1 100  68 101  76 101  78 100
M  END
> <chiral flag>
0

> <version>
0

> <s_m_source_file>
/data/baiqing/PycharmProjects/Reinvent-master-3.2/result/LINK_invent/BTK/process_docking_weight1_custom_product_contain_oxygen_bond_distance_aromatic_linkinvent_7_9_3/rearranged_h_0007.sdf

> <i_m_source_file_index>
29

> <r_mmod_Potential_Energy-OPLS-2005>
1600.15209960938

> <r_mmod_Stretch_Energy-OPLS-2005>
639.165222167969

> <r_mmod_Bend_Energy-OPLS-2005>
523.793151855469

> <r_mmod_Torsional_Energy-OPLS-2005>
359.438446044922

> <r_mmod_Improper_Torsional_Energy-OPLS-2005>
2.83910655975342

> <r_mmod_Van_der_Waal_Energy-OPLS-2005>
107.486633300781

> <r_mmod_Electrostatic_Energy-OPLS-2005>
-266.297424316406

> <r_mmod_Solvation_Energy-OPLS-2005>
-206.304183959961

> <b_mmod_Minimization_Converged-OPLS-2005>
0

> <r_mmod_RMS_Derivative-OPLS-2005>
0.259978741407394

$$$$
29
                    3D
 Structure written by MMmdl.
148156  0  0  1  0            999 V2000
  -30.5089  -14.9122   20.4351 C   0  0  0  0  0  0
  -30.4555  -12.5616   19.4901 C   0  0  0  0  0  0
  -29.5264  -12.5317   18.2520 C   0  0  0  0  0  0
  -28.0565  -12.3206   18.6662 C   0  0  0  0  0  0
  -27.6389  -13.2354   19.8464 C   0  0  2  0  0  0
  -28.6835  -13.2119   20.9840 C   0  0  0  0  0  0
  -25.2500  -13.8182   20.5681 C   0  0  0  0  0  0
  -24.1806  -13.0431   20.9230 C   0  0  0  0  0  0
  -24.6402  -11.6911   20.8760 C   0  0  0  0  0  0
  -23.9076  -10.4289   21.0416 C   0  0  0  0  0  0
  -24.3624   -9.4201   21.9190 C   0  0  0  0  0  0
  -23.6294   -8.2240   22.0758 C   0  0  0  0  0  0
  -22.4276   -8.0282   21.3547 C   0  0  0  0  0  0
  -21.9915   -9.0259   20.4652 C   0  0  0  0  0  0
  -22.7249  -10.2135   20.3063 C   0  0  0  0  0  0
  -21.6853   -6.0736   22.5279 C   0  0  0  0  0  0
  -21.4015   -6.5640   23.8212 C   0  0  0  0  0  0
  -21.3659   -5.6793   24.9175 C   0  0  0  0  0  0
  -21.6044   -4.3056   24.7225 C   0  0  0  0  0  0
  -21.8818   -3.8147   23.4347 C   0  0  0  0  0  0
  -21.9192   -4.6963   22.3402 C   0  0  0  0  0  0
  -22.7826  -13.5218   21.1880 C   0  0  0  0  0  0
  -22.1661   -4.2149   21.0979 F   0  0  0  0  0  0
  -21.5626   -3.4539   25.7738 F   0  0  0  0  0  0
  -29.9682  -13.6307   20.4025 N   0  0  0  0  0  0
  -26.2925  -12.9392   20.3247 N   0  0  0  0  0  0
  -25.9332  -11.6537   20.5742 N   0  0  0  0  0  0
  -22.0465  -12.8213   22.0434 N   0  0  0  0  0  0
  -25.4162  -15.1901   20.4026 N   0  0  0  0  0  0
  -31.6970  -15.0562   20.1234 O   0  0  0  0  0  0
  -21.6639   -6.8881   21.4242 O   0  0  0  0  0  0
  -22.3518  -14.5520   20.6717 O   0  0  0  0  0  0
  -24.6422  -31.8456   23.1895 C   0  0  0  0  0  0
  -25.9199  -32.4704   23.8282 C   0  0  1  0  0  0
  -27.2214  -27.1519   20.1469 C   0  0  0  0  0  0
  -25.5952  -33.8509   24.2201 N   0  0  0  0  0  0
  -23.4453  -30.4654   21.5351 C   0  0  2  0  0  0
  -24.8953  -28.8959   20.1105 C   0  0  0  0  0  0
  -22.7562  -29.4552   22.4864 C   0  0  0  0  0  0
  -18.0305  -28.1392   22.8480 C   0  0  0  0  0  0
  -24.1492  -36.7261   23.2642 C   0  0  0  0  0  0
  -26.0006  -30.7245   21.3860 C   0  0  0  0  0  0
  -26.0728  -29.3373   20.7273 C   0  0  0  0  0  0
  -27.2369  -28.4820   20.7280 C   0  0  0  0  0  0
  -26.0152  -26.8096   19.4937 C   0  0  0  0  0  0
  -24.8787  -27.6448   19.4786 C   0  0  0  0  0  0
  -23.6712  -29.7962   20.1539 C   0  0  0  0  0  0
  -25.4122  -36.3038   24.0318 C   0  0  1  0  0  0
  -20.5917  -28.3717   23.1239 C   0  0  2  0  0  0
  -20.6789  -26.9422   22.5403 C   0  0  0  0  0  0
  -19.5760  -26.6380   21.5213 C   0  0  0  0  0  0
  -18.1944  -26.7931   22.1628 C   0  0  0  0  0  0
  -19.1562  -28.8873   23.2853 C   0  0  0  0  0  0
  -18.9477  -30.1469   23.8878 C   0  0  0  0  0  0
  -17.6473  -30.6589   24.0558 C   0  0  0  0  0  0
  -25.9071  -34.9412   23.5068 C   0  0  0  0  0  0
  -16.5365  -29.9082   23.6333 C   0  0  0  0  0  0
  -16.7289  -28.6500   23.0357 C   0  0  0  0  0  0
  -26.4522  -31.6564   25.0716 C   0  0  0  0  0  0
  -25.3712  -31.3749   26.1414 C   0  0  0  0  0  0
  -27.0385  -30.2963   24.6283 C   0  0  0  0  0  0
  -27.6053  -32.4328   25.7502 C   0  0  0  0  0  0
  -27.5575  -37.1788   24.8465 C   0  0  0  0  0  0
  -21.4255  -29.3048   22.3615 N   0  0  0  0  0  0
  -26.4286  -37.3749   23.9408 N   0  0  0  0  0  0
  -24.7158  -31.0325   22.0923 N   0  0  0  0  0  0
  -23.4210  -28.8096   23.3008 O   0  0  0  0  0  0
  -28.2796  -26.1752   20.2158 O   0  0  0  0  0  0
  -26.5655  -34.8906   22.4645 O   0  0  0  0  0  0
  -23.5543  -32.1325   23.7122 O   0  0  0  0  0  0
  -30.4979  -18.5502   20.3681 C   0  0  0  0  0  0
  -30.1918  -19.9876   20.3030 C   0  0  0  0  0  0
  -28.2013  -18.0915   20.6159 C   0  0  0  0  0  0
  -29.5058  -17.5125   20.5303 C   0  0  0  0  0  0
  -28.8604  -20.5427   20.3787 C   0  0  0  0  0  0
  -27.8953  -19.4982   20.5370 C   0  0  0  0  0  0
  -27.9814  -24.6559   20.0800 C   0  0  0  0  0  0
  -28.9666  -23.3090   20.3181 C   0  0  0  0  0  0
  -29.6181  -15.9877   20.6567 N   0  0  0  0  0  0
  -28.3436  -21.9122   20.2867 O   0  0  0  0  0  0
  -26.5907  -19.8568   20.6201 F   0  0  0  0  0  0
  -31.4867  -12.7370   19.1791 H   0  0  0  0  0  0
  -30.4561  -11.5962   19.9987 H   0  0  0  0  0  0
  -29.8377  -11.7454   17.5632 H   0  0  0  0  0  0
  -29.6191  -13.4710   17.7045 H   0  0  0  0  0  0
  -27.9424  -11.2750   18.9545 H   0  0  0  0  0  0
  -27.3955  -12.4747   17.8124 H   0  0  0  0  0  0
  -27.6160  -14.2467   19.4405 H   0  0  0  0  0  0
  -28.7608  -12.2155   21.4218 H   0  0  0  0  0  0
  -28.3869  -13.8773   21.7964 H   0  0  0  0  0  0
  -25.2769   -9.5672   22.4767 H   0  0  0  0  0  0
  -24.0000   -7.4629   22.7477 H   0  0  0  0  0  0
  -21.0844   -8.8784   19.8957 H   0  0  0  0  0  0
  -22.3712  -10.9678   19.6174 H   0  0  0  0  0  0
  -21.2010   -7.6149   23.9716 H   0  0  0  0  0  0
  -21.1480   -6.0523   25.9077 H   0  0  0  0  0  0
  -22.0597   -2.7608   23.2848 H   0  0  0  0  0  0
  -22.4083  -11.9878   22.4830 H   0  0  0  0  0  0
  -21.1084  -13.1242   22.2641 H   0  0  0  0  0  0
  -24.6295  -15.8261   20.4770 H   0  0  0  0  0  0
  -26.2182  -15.6066   19.9499 H   0  0  0  0  0  0
  -26.7265  -32.5316   23.1014 H   0  0  0  0  0  0
  -25.0077  -33.9626   25.0333 H   0  0  0  0  0  0
  -22.7472  -31.2910   21.3818 H   0  0  0  0  0  0
  -23.3757  -35.9590   23.3292 H   0  0  0  0  0  0
  -24.3578  -36.8903   22.2059 H   0  0  0  0  0  0
  -23.7245  -37.6454   23.6684 H   0  0  0  0  0  0
  -26.1536  -31.4794   20.6136 H   0  0  0  0  0  0
  -26.8721  -30.7754   22.0269 H   0  0  0  0  0  0
  -28.1335  -28.8156   21.2313 H   0  0  0  0  0  0
  -25.9102  -25.8553   19.0018 H   0  0  0  0  0  0
  -23.9801  -27.3016   18.9846 H   0  0  0  0  0  0
  -23.8070  -30.5716   19.3992 H   0  0  0  0  0  0
  -22.7864  -29.2380   19.8427 H   0  0  0  0  0  0
  -25.1309  -36.1869   25.0810 H   0  0  0  0  0  0
  -21.0010  -28.3306   24.1360 H   0  0  0  0  0  0
  -20.5685  -26.2330   23.3621 H   0  0  0  0  0  0
  -21.6654  -26.7429   22.1199 H   0  0  0  0  0  0
  -19.6921  -25.6286   21.1255 H   0  0  0  0  0  0
  -19.6694  -27.3179   20.6734 H   0  0  0  0  0  0
  -17.4210  -26.6673   21.4035 H   0  0  0  0  0  0
  -18.0346  -26.0078   22.9030 H   0  0  0  0  0  0
  -19.7952  -30.7291   24.2241 H   0  0  0  0  0  0
  -17.5025  -31.6268   24.5163 H   0  0  0  0  0  0
  -15.5364  -30.2977   23.7663 H   0  0  0  0  0  0
  -15.8691  -28.0808   22.7085 H   0  0  0  0  0  0
  -24.5894  -30.7094   25.7734 H   0  0  0  0  0  0
  -24.8898  -32.2930   26.4792 H   0  0  0  0  0  0
  -25.7998  -30.8952   27.0222 H   0  0  0  0  0  0
  -26.2998  -29.6690   24.1281 H   0  0  0  0  0  0
  -27.3997  -29.7256   25.4848 H   0  0  0  0  0  0
  -27.8906  -30.4204   23.9597 H   0  0  0  0  0  0
  -27.2645  -33.3646   26.2028 H   0  0  0  0  0  0
  -28.3892  -32.6860   25.0352 H   0  0  0  0  0  0
  -28.0689  -31.8488   26.5463 H   0  0  0  0  0  0
  -28.2585  -38.0091   24.7510 H   0  0  0  0  0  0
  -28.1079  -36.2622   24.6295 H   0  0  0  0  0  0
  -27.2293  -37.1437   25.8868 H   0  0  0  0  0  0
  -20.9461  -29.8768   21.6802 H   0  0  0  0  0  0
  -26.0155  -38.2818   24.1409 H   0  0  0  0  0  0
  -31.5349  -18.2525   20.2974 H   0  0  0  0  0  0
  -31.0171  -20.6732   20.1773 H   0  0  0  0  0  0
  -27.3590  -17.4297   20.7477 H   0  0  0  0  0  0
  -27.1214  -24.4889   20.7294 H   0  0  0  0  0  0
  -27.6025  -24.5258   19.0670 H   0  0  0  0  0  0
  -29.4518  -23.4117   21.2888 H   0  0  0  0  0  0
  -29.7707  -23.3307   19.5826 H   0  0  0  0  0  0
  -28.7268  -15.5824   20.8973 H   0  0  0  0  0  0
  1 25  1  0  0  0
  1 30  2  0  0  0
  1 79  1  0  0  0
  2  3  1  0  0  0
  2 25  1  0  0  0
  2 82  1  0  0  0
  2 83  1  0  0  0
  3  4  1  0  0  0
  3 84  1  0  0  0
  3 85  1  0  0  0
  4  5  1  0  0  0
  4 86  1  0  0  0
  4 87  1  0  0  0
  5  6  1  0  0  0
  5 26  1  0  0  0
  5 88  1  0  0  0
  6 25  1  0  0  0
  6 89  1  0  0  0
  6 90  1  0  0  0
  7  8  2  0  0  0
  7 26  1  0  0  0
  7 29  1  0  0  0
  8  9  1  0  0  0
  8 22  1  0  0  0
  9 10  1  0  0  0
  9 27  2  0  0  0
 10 11  2  0  0  0
 10 15  1  0  0  0
 11 12  1  0  0  0
 11 91  1  0  0  0
 12 13  2  0  0  0
 12 92  1  0  0  0
 13 14  1  0  0  0
 13 31  1  0  0  0
 14 15  2  0  0  0
 14 93  1  0  0  0
 15 94  1  0  0  0
 16 17  2  0  0  0
 16 21  1  0  0  0
 16 31  1  0  0  0
 17 18  1  0  0  0
 17 95  1  0  0  0
 18 19  2  0  0  0
 18 96  1  0  0  0
 19 20  1  0  0  0
 19 24  1  0  0  0
 20 21  2  0  0  0
 20 97  1  0  0  0
 21 23  1  0  0  0
 22 28  1  0  0  0
 22 32  2  0  0  0
 26 27  1  0  0  0
 28 98  1  0  0  0
 28 99  1  0  0  0
 29100  1  0  0  0
 29101  1  0  0  0
 33 34  1  0  0  0
 33 66  1  0  0  0
 33 70  2  0  0  0
 34 36  1  0  0  0
 34 59  1  0  0  0
 34102  1  0  0  0
 35 44  2  0  0  0
 35 45  1  0  0  0
 35 68  1  0  0  0
 36 56  1  0  0  0
 36103  1  0  0  0
 37 39  1  0  0  0
 37 47  1  0  0  0
 37 66  1  0  0  0
 37104  1  0  0  0
 38 43  2  0  0  0
 38 46  1  0  0  0
 38 47  1  0  0  0
 39 64  1  0  0  0
 39 67  2  0  0  0
 40 52  1  0  0  0
 40 53  2  0  0  0
 40 58  1  0  0  0
 41105  1  0  0  0
 41106  1  0  0  0
 41107  1  0  0  0
 41 48  1  0  0  0
 42 43  1  0  0  0
 42 66  1  0  0  0
 42108  1  0  0  0
 42109  1  0  0  0
 43 44  1  0  0  0
 44110  1  0  0  0
 45 46  2  0  0  0
 45111  1  0  0  0
 46112  1  0  0  0
 47113  1  0  0  0
 47114  1  0  0  0
 48 56  1  0  0  0
 48 65  1  0  0  0
 48115  1  0  0  0
 49 50  1  0  0  0
 49 53  1  0  0  0
 49 64  1  0  0  0
 49116  1  0  0  0
 50 51  1  0  0  0
 50117  1  0  0  0
 50118  1  0  0  0
 51 52  1  0  0  0
 51119  1  0  0  0
 51120  1  0  0  0
 52121  1  0  0  0
 52122  1  0  0  0
 53 54  1  0  0  0
 54 55  2  0  0  0
 54123  1  0  0  0
 55 57  1  0  0  0
 55124  1  0  0  0
 56 69  2  0  0  0
 57 58  2  0  0  0
 57125  1  0  0  0
 58126  1  0  0  0
 59 60  1  0  0  0
 59 61  1  0  0  0
 59 62  1  0  0  0
 60127  1  0  0  0
 60128  1  0  0  0
 60129  1  0  0  0
 61130  1  0  0  0
 61131  1  0  0  0
 61132  1  0  0  0
 62133  1  0  0  0
 62134  1  0  0  0
 62135  1  0  0  0
 63 65  1  0  0  0
 63136  1  0  0  0
 63137  1  0  0  0
 63138  1  0  0  0
 64139  1  0  0  0
 65140  1  0  0  0
 68 77  1  0  0  0
 71 72  2  0  0  0
 71 74  1  0  0  0
 71141  1  0  0  0
 72 75  1  0  0  0
 72142  1  0  0  0
 73 74  2  0  0  0
 73 76  1  0  0  0
 73143  1  0  0  0
 74 79  1  0  0  0
 75 76  2  0  0  0
 75 80  1  0  0  0
 76 81  1  0  0  0
 77 78  1  0  0  0
 77144  1  0  0  0
 77145  1  0  0  0
 78 80  1  0  0  0
 78146  1  0  0  0
 78147  1  0  0  0
 79148  1  0  0  0
M  ISO  4   1 100  68 101  77 101  79 100
M  END
> <chiral flag>
0

> <version>
0

> <s_m_source_file>
/data/baiqing/PycharmProjects/Reinvent-master-3.2/result/LINK_invent/BTK/process_docking_weight1_custom_product_contain_oxygen_bond_distance_aromatic_linkinvent_7_9_3/rearranged_h_0007.sdf

> <i_m_source_file_index>
30

> <r_mmod_Potential_Energy-OPLS-2005>
491.091247558594

> <r_mmod_Stretch_Energy-OPLS-2005>
216.953765869141

> <r_mmod_Bend_Energy-OPLS-2005>
302.484619140625

> <r_mmod_Torsional_Energy-OPLS-2005>
212.021713256836

> <r_mmod_Improper_Torsional_Energy-OPLS-2005>
4.76716709136963

> <r_mmod_Van_der_Waal_Energy-OPLS-2005>
130.573699951172

> <r_mmod_Electrostatic_Energy-OPLS-2005>
-337.487060546875

> <r_mmod_Solvation_Energy-OPLS-2005>
-212.451721191406

> <b_mmod_Minimization_Converged-OPLS-2005>
0

> <r_mmod_RMS_Derivative-OPLS-2005>
0.366873770952225

$$$$
30
                    3D
 Structure written by MMmdl.
151159  0  0  1  0            999 V2000
  -30.5270  -14.9800   20.4282 C   0  0  0  0  0  0
  -30.4374  -12.6013   19.5327 C   0  0  0  0  0  0
  -29.5331  -12.5426   18.2779 C   0  0  0  0  0  0
  -28.0629  -12.3240   18.6800 C   0  0  0  0  0  0
  -27.6312  -13.2546   19.8430 C   0  0  2  0  0  0
  -28.6624  -13.2825   20.9898 C   0  0  0  0  0  0
  -25.2462  -13.8239   20.5704 C   0  0  0  0  0  0
  -24.1779  -13.0450   20.9209 C   0  0  0  0  0  0
  -24.6401  -11.6938   20.8734 C   0  0  0  0  0  0
  -23.9082  -10.4303   21.0384 C   0  0  0  0  0  0
  -24.3624   -9.4218   21.9167 C   0  0  0  0  0  0
  -23.6296   -8.2253   22.0747 C   0  0  0  0  0  0
  -22.4275   -8.0286   21.3541 C   0  0  0  0  0  0
  -21.9910   -9.0265   20.4642 C   0  0  0  0  0  0
  -22.7246  -10.2142   20.3047 C   0  0  0  0  0  0
  -21.6860   -6.0735   22.5278 C   0  0  0  0  0  0
  -21.4019   -6.5640   23.8212 C   0  0  0  0  0  0
  -21.3656   -5.6792   24.9175 C   0  0  0  0  0  0
  -21.6044   -4.3055   24.7226 C   0  0  0  0  0  0
  -21.8817   -3.8145   23.4347 C   0  0  0  0  0  0
  -21.9190   -4.6961   22.3403 C   0  0  0  0  0  0
  -22.7798  -13.5211   21.1885 C   0  0  0  0  0  0
  -22.1653   -4.2142   21.0980 F   0  0  0  0  0  0
  -21.5626   -3.4538   25.7737 F   0  0  0  0  0  0
  -29.9476  -13.7040   20.4192 N   0  0  0  0  0  0
  -26.2884  -12.9480   20.3228 N   0  0  0  0  0  0
  -25.9339  -11.6599   20.5719 N   0  0  0  0  0  0
  -22.0453  -12.8195   22.0442 N   0  0  0  0  0  0
  -25.4166  -15.1967   20.4182 N   0  0  0  0  0  0
  -31.6895  -15.0436   20.0113 O   0  0  0  0  0  0
  -21.6644   -6.8880   21.4241 O   0  0  0  0  0  0
  -22.3469  -14.5515   20.6737 O   0  0  0  0  0  0
  -24.6433  -31.8409   23.1827 C   0  0  0  0  0  0
  -25.9201  -32.4669   23.8224 C   0  0  1  0  0  0
  -27.2221  -27.1114   20.1545 C   0  0  0  0  0  0
  -25.5949  -33.8476   24.2150 N   0  0  0  0  0  0
  -23.4482  -30.4544   21.5284 C   0  0  2  0  0  0
  -24.8989  -28.8697   20.1044 C   0  0  0  0  0  0
  -22.7571  -29.4525   22.4858 C   0  0  0  0  0  0
  -18.0305  -28.1390   22.8473 C   0  0  0  0  0  0
  -24.1492  -36.7236   23.2642 C   0  0  0  0  0  0
  -26.0022  -30.7047   21.3840 C   0  0  0  0  0  0
  -26.0717  -29.3118   20.7280 C   0  0  0  0  0  0
  -27.2271  -28.4455   20.7386 C   0  0  0  0  0  0
  -26.0275  -26.7701   19.4863 C   0  0  0  0  0  0
  -24.8915  -27.6157   19.4676 C   0  0  0  0  0  0
  -23.6741  -29.7726   20.1502 C   0  0  0  0  0  0
  -25.4128  -36.3014   24.0310 C   0  0  1  0  0  0
  -20.5921  -28.3719   23.1220 C   0  0  2  0  0  0
  -20.6814  -26.9430   22.5367 C   0  0  0  0  0  0
  -19.5759  -26.6341   21.5219 C   0  0  0  0  0  0
  -18.1939  -26.7920   22.1636 C   0  0  0  0  0  0
  -19.1563  -28.8866   23.2842 C   0  0  0  0  0  0
  -18.9484  -30.1456   23.8880 C   0  0  0  0  0  0
  -17.6482  -30.6584   24.0563 C   0  0  0  0  0  0
  -25.9084  -34.9395   23.5045 C   0  0  0  0  0  0
  -16.5368  -29.9089   23.6333 C   0  0  0  0  0  0
  -16.7290  -28.6505   23.0354 C   0  0  0  0  0  0
  -26.4528  -31.6543   25.0673 C   0  0  0  0  0  0
  -25.3708  -31.3734   26.1360 C   0  0  0  0  0  0
  -27.0395  -30.2935   24.6257 C   0  0  0  0  0  0
  -27.6046  -32.4318   25.7470 C   0  0  0  0  0  0
  -27.5571  -37.1776   24.8469 C   0  0  0  0  0  0
  -21.4258  -29.3064   22.3616 N   0  0  0  0  0  0
  -26.4285  -37.3733   23.9409 N   0  0  0  0  0  0
  -24.7177  -31.0238   22.0866 N   0  0  0  0  0  0
  -23.4212  -28.8084   23.3018 O   0  0  0  0  0  0
  -28.2937  -26.1528   20.2919 O   0  0  0  0  0  0
  -26.5680  -34.8906   22.4630 O   0  0  0  0  0  0
  -23.5552  -32.1298   23.7039 O   0  0  0  0  0  0
  -29.7098  -17.6724   20.1671 C   0  0  0  0  0  0
  -29.4165  -16.4490   22.2398 C   0  0  0  0  0  0
  -28.8041  -18.8475   22.0851 C   0  0  0  0  0  0
  -29.8351  -16.3659   20.8946 C   0  0  0  0  0  0
  -29.1704  -18.9566   20.7272 C   0  0  0  0  0  0
  -28.9259  -17.6426   22.8147 C   0  0  0  0  0  0
  -28.7348  -20.3846   19.9801 C   0  0  0  0  0  0
  -28.1367  -23.1513   20.4190 C   0  0  0  0  0  0
  -28.4393  -24.6859   19.7469 C   0  0  0  0  0  0
  -29.1208  -21.8821   20.3712 N   0  3  0  0  0  0
  -28.5536  -17.6324   24.1162 F   0  0  0  0  0  0
  -31.4767  -12.7407   19.2343 H   0  0  0  0  0  0
  -30.4152  -11.6501   20.0655 H   0  0  0  0  0  0
  -29.8641  -11.7442   17.6136 H   0  0  0  0  0  0
  -29.6283  -13.4717   17.7139 H   0  0  0  0  0  0
  -27.9583  -11.2821   18.9857 H   0  0  0  0  0  0
  -27.4066  -12.4578   17.8194 H   0  0  0  0  0  0
  -27.5984  -14.2591   19.4200 H   0  0  0  0  0  0
  -28.7486  -12.3050   21.4668 H   0  0  0  0  0  0
  -28.3367  -13.9717   21.7667 H   0  0  0  0  0  0
  -25.2765   -9.5697   22.4748 H   0  0  0  0  0  0
  -24.0000   -7.4648   22.7471 H   0  0  0  0  0  0
  -21.0835   -8.8793   19.8951 H   0  0  0  0  0  0
  -22.3695  -10.9683   19.6160 H   0  0  0  0  0  0
  -21.2018   -7.6147   23.9716 H   0  0  0  0  0  0
  -21.1474   -6.0518   25.9075 H   0  0  0  0  0  0
  -22.0595   -2.7602   23.2856 H   0  0  0  0  0  0
  -22.4072  -11.9861   22.4839 H   0  0  0  0  0  0
  -21.1076  -13.1219   22.2669 H   0  0  0  0  0  0
  -24.6571  -15.8562   20.5508 H   0  0  0  0  0  0
  -26.2804  -15.6394   20.1308 H   0  0  0  0  0  0
  -26.7255  -32.5264   23.0938 H   0  0  0  0  0  0
  -25.0060  -33.9580   25.0273 H   0  0  0  0  0  0
  -22.7511  -31.2797   21.3696 H   0  0  0  0  0  0
  -23.3764  -35.9559   23.3297 H   0  0  0  0  0  0
  -24.3571  -36.8878   22.2059 H   0  0  0  0  0  0
  -23.7241  -37.6423   23.6691 H   0  0  0  0  0  0
  -26.1590  -31.4565   20.6094 H   0  0  0  0  0  0
  -26.8721  -30.7578   22.0269 H   0  0  0  0  0  0
  -28.1178  -28.7738   21.2556 H   0  0  0  0  0  0
  -25.9402  -25.8033   19.0135 H   0  0  0  0  0  0
  -23.9942  -27.2745   18.9688 H   0  0  0  0  0  0
  -23.8067  -30.5416   19.3890 H   0  0  0  0  0  0
  -22.7892  -29.2100   19.8441 H   0  0  0  0  0  0
  -25.1322  -36.1831   25.0801 H   0  0  0  0  0  0
  -20.9993  -28.3302   24.1350 H   0  0  0  0  0  0
  -20.5794  -26.2320   23.3577 H   0  0  0  0  0  0
  -21.6654  -26.7505   22.1063 H   0  0  0  0  0  0
  -19.6912  -25.6228   21.1301 H   0  0  0  0  0  0
  -19.6682  -27.3093   20.6708 H   0  0  0  0  0  0
  -17.4213  -26.6679   21.4034 H   0  0  0  0  0  0
  -18.0323  -26.0072   22.9033 H   0  0  0  0  0  0
  -19.7971  -30.7254   24.2251 H   0  0  0  0  0  0
  -17.5035  -31.6266   24.5164 H   0  0  0  0  0  0
  -15.5370  -30.2991   23.7657 H   0  0  0  0  0  0
  -15.8687  -28.0823   22.7080 H   0  0  0  0  0  0
  -24.5899  -30.7072   25.7674 H   0  0  0  0  0  0
  -24.8885  -32.2920   26.4712 H   0  0  0  0  0  0
  -25.7986  -30.8954   27.0180 H   0  0  0  0  0  0
  -26.3010  -29.6652   24.1263 H   0  0  0  0  0  0
  -27.4007  -29.7237   25.4827 H   0  0  0  0  0  0
  -27.8919  -30.4166   23.9573 H   0  0  0  0  0  0
  -27.2625  -33.3636   26.1986 H   0  0  0  0  0  0
  -28.3896  -32.6849   25.0332 H   0  0  0  0  0  0
  -28.0672  -31.8484   26.5438 H   0  0  0  0  0  0
  -28.2589  -38.0071   24.7510 H   0  0  0  0  0  0
  -28.1066  -36.2600   24.6311 H   0  0  0  0  0  0
  -27.2284  -37.1441   25.8870 H   0  0  0  0  0  0
  -20.9486  -29.8803   21.6806 H   0  0  0  0  0  0
  -26.0145  -38.2798   24.1415 H   0  0  0  0  0  0
  -30.0123  -17.6761   19.1283 H   0  0  0  0  0  0
  -29.5072  -15.5817   22.8791 H   0  0  0  0  0  0
  -28.3763  -19.7036   22.5886 H   0  0  0  0  0  0
  -27.6453  -20.3671   19.9953 H   0  0  0  0  0  0
  -28.9840  -20.2704   18.9243 H   0  0  0  0  0  0
  -27.1787  -22.8195   20.0174 H   0  0  0  0  0  0
  -27.9345  -23.3140   21.4773 H   0  0  0  0  0  0
  -27.9851  -24.6861   18.7559 H   0  0  0  0  0  0
  -29.5052  -24.6532   19.5224 H   0  0  0  0  0  0
  -29.8871  -22.1226   19.7630 H   0  0  0  0  0  0
  -29.5322  -21.8221   21.2877 H   0  0  0  0  0  0
  1 25  1  0  0  0
  1 30  2  0  0  0
  1 74  1  0  0  0
  2  3  1  0  0  0
  2 25  1  0  0  0
  2 82  1  0  0  0
  2 83  1  0  0  0
  3  4  1  0  0  0
  3 84  1  0  0  0
  3 85  1  0  0  0
  4  5  1  0  0  0
  4 86  1  0  0  0
  4 87  1  0  0  0
  5  6  1  0  0  0
  5 26  1  0  0  0
  5 88  1  0  0  0
  6 25  1  0  0  0
  6 89  1  0  0  0
  6 90  1  0  0  0
  7  8  2  0  0  0
  7 26  1  0  0  0
  7 29  1  0  0  0
  8  9  1  0  0  0
  8 22  1  0  0  0
  9 10  1  0  0  0
  9 27  2  0  0  0
 10 11  2  0  0  0
 10 15  1  0  0  0
 11 12  1  0  0  0
 11 91  1  0  0  0
 12 13  2  0  0  0
 12 92  1  0  0  0
 13 14  1  0  0  0
 13 31  1  0  0  0
 14 15  2  0  0  0
 14 93  1  0  0  0
 15 94  1  0  0  0
 16 17  2  0  0  0
 16 21  1  0  0  0
 16 31  1  0  0  0
 17 18  1  0  0  0
 17 95  1  0  0  0
 18 19  2  0  0  0
 18 96  1  0  0  0
 19 20  1  0  0  0
 19 24  1  0  0  0
 20 21  2  0  0  0
 20 97  1  0  0  0
 21 23  1  0  0  0
 22 28  1  0  0  0
 22 32  2  0  0  0
 26 27  1  0  0  0
 28 98  1  0  0  0
 28 99  1  0  0  0
 29100  1  0  0  0
 29101  1  0  0  0
 33 34  1  0  0  0
 33 66  1  0  0  0
 33 70  2  0  0  0
 34 36  1  0  0  0
 34 59  1  0  0  0
 34102  1  0  0  0
 35 44  2  0  0  0
 35 45  1  0  0  0
 35 68  1  0  0  0
 36 56  1  0  0  0
 36103  1  0  0  0
 37 39  1  0  0  0
 37 47  1  0  0  0
 37 66  1  0  0  0
 37104  1  0  0  0
 38 43  2  0  0  0
 38 46  1  0  0  0
 38 47  1  0  0  0
 39 64  1  0  0  0
 39 67  2  0  0  0
 40 52  1  0  0  0
 40 53  2  0  0  0
 40 58  1  0  0  0
 41105  1  0  0  0
 41106  1  0  0  0
 41107  1  0  0  0
 41 48  1  0  0  0
 42 43  1  0  0  0
 42 66  1  0  0  0
 42108  1  0  0  0
 42109  1  0  0  0
 43 44  1  0  0  0
 44110  1  0  0  0
 45 46  2  0  0  0
 45111  1  0  0  0
 46112  1  0  0  0
 47113  1  0  0  0
 47114  1  0  0  0
 48 56  1  0  0  0
 48 65  1  0  0  0
 48115  1  0  0  0
 49 50  1  0  0  0
 49 53  1  0  0  0
 49 64  1  0  0  0
 49116  1  0  0  0
 50 51  1  0  0  0
 50117  1  0  0  0
 50118  1  0  0  0
 51 52  1  0  0  0
 51119  1  0  0  0
 51120  1  0  0  0
 52121  1  0  0  0
 52122  1  0  0  0
 53 54  1  0  0  0
 54 55  2  0  0  0
 54123  1  0  0  0
 55 57  1  0  0  0
 55124  1  0  0  0
 56 69  2  0  0  0
 57 58  2  0  0  0
 57125  1  0  0  0
 58126  1  0  0  0
 59 60  1  0  0  0
 59 61  1  0  0  0
 59 62  1  0  0  0
 60127  1  0  0  0
 60128  1  0  0  0
 60129  1  0  0  0
 61130  1  0  0  0
 61131  1  0  0  0
 61132  1  0  0  0
 62133  1  0  0  0
 62134  1  0  0  0
 62135  1  0  0  0
 63 65  1  0  0  0
 63136  1  0  0  0
 63137  1  0  0  0
 63138  1  0  0  0
 64139  1  0  0  0
 65140  1  0  0  0
 68 79  1  0  0  0
 71 74  2  0  0  0
 71 75  1  0  0  0
 71141  1  0  0  0
 72 74  1  0  0  0
 72 76  2  0  0  0
 72142  1  0  0  0
 73 75  2  0  0  0
 73 76  1  0  0  0
 73143  1  0  0  0
 75 77  1  0  0  0
 76 81  1  0  0  0
 77 80  1  0  0  0
 77144  1  0  0  0
 77145  1  0  0  0
 78 79  1  0  0  0
 78 80  1  0  0  0
 78146  1  0  0  0
 78147  1  0  0  0
 79148  1  0  0  0
 79149  1  0  0  0
 80150  1  0  0  0
 80151  1  0  0  0
M  CHG  1  80   1
M  ISO  4   1 100  68 101  74 100  79 101
M  END
> <chiral flag>
0

> <version>
0

> <s_m_source_file>
/data/baiqing/PycharmProjects/Reinvent-master-3.2/result/LINK_invent/BTK/process_docking_weight1_custom_product_contain_oxygen_bond_distance_aromatic_linkinvent_7_9_3/rearranged_h_0007.sdf

> <i_m_source_file_index>
31

> <r_mmod_Potential_Energy-OPLS-2005>
468.137176513672

> <r_mmod_Stretch_Energy-OPLS-2005>
288.784973144531

> <r_mmod_Bend_Energy-OPLS-2005>
319.341217041016

> <r_mmod_Torsional_Energy-OPLS-2005>
209.95719909668

> <r_mmod_Improper_Torsional_Energy-OPLS-2005>
3.49298739433289

> <r_mmod_Van_der_Waal_Energy-OPLS-2005>
123.290565490723

> <r_mmod_Electrostatic_Energy-OPLS-2005>
-231.968765258789

> <r_mmod_Solvation_Energy-OPLS-2005>
-456.697143554688

> <b_mmod_Minimization_Converged-OPLS-2005>
0

> <r_mmod_RMS_Derivative-OPLS-2005>
1.6027809381485

$$$$
31
                    3D
 Structure written by MMmdl.
162171  0  0  1  0            999 V2000
  -30.7315  -14.4041   20.6502 C   0  0  0  0  0  0
  -30.4251  -12.2905   19.4104 C   0  0  0  0  0  0
  -29.4940  -12.5215   18.2028 C   0  0  0  0  0  0
  -28.0156  -12.3808   18.6127 C   0  0  0  0  0  0
  -27.6696  -13.2009   19.8835 C   0  0  2  0  0  0
  -28.7061  -12.9384   21.0002 C   0  0  0  0  0  0
  -25.2619  -13.8154   20.5654 C   0  0  0  0  0  0
  -24.1860  -13.0445   20.9161 C   0  0  0  0  0  0
  -24.6402  -11.6905   20.8725 C   0  0  0  0  0  0
  -23.9060  -10.4297   21.0407 C   0  0  0  0  0  0
  -24.3611   -9.4211   21.9186 C   0  0  0  0  0  0
  -23.6287   -8.2248   22.0755 C   0  0  0  0  0  0
  -22.4269   -8.0283   21.3541 C   0  0  0  0  0  0
  -21.9905   -9.0260   20.4651 C   0  0  0  0  0  0
  -22.7230  -10.2142   20.3060 C   0  0  0  0  0  0
  -21.6855   -6.0733   22.5275 C   0  0  0  0  0  0
  -21.4019   -6.5640   23.8206 C   0  0  0  0  0  0
  -21.3657   -5.6792   24.9168 C   0  0  0  0  0  0
  -21.6044   -4.3054   24.7219 C   0  0  0  0  0  0
  -21.8821   -3.8141   23.4345 C   0  0  0  0  0  0
  -21.9194   -4.6959   22.3401 C   0  0  0  0  0  0
  -22.7883  -13.5251   21.1818 C   0  0  0  0  0  0
  -22.1661   -4.2144   21.0982 F   0  0  0  0  0  0
  -21.5626   -3.4542   25.7734 F   0  0  0  0  0  0
  -30.0513  -13.2399   20.4703 N   0  0  0  0  0  0
  -26.3059  -12.9314   20.3375 N   0  0  0  0  0  0
  -25.9330  -11.6478   20.5760 N   0  0  0  0  0  0
  -22.0513  -12.8252   22.0380 N   0  0  0  0  0  0
  -25.4358  -15.1864   20.4024 N   0  0  0  0  0  0
  -31.7762  -14.6697   20.0493 O   0  0  0  0  0  0
  -21.6636   -6.8876   21.4236 O   0  0  0  0  0  0
  -22.3572  -14.5559   20.6666 O   0  0  0  0  0  0
  -24.6129  -31.8692   23.2121 C   0  0  0  0  0  0
  -25.9030  -32.4831   23.8409 C   0  0  1  0  0  0
  -27.2409  -27.4512   20.0779 C   0  0  0  0  0  0
  -25.5893  -33.8629   24.2338 N   0  0  0  0  0  0
  -23.4001  -30.4939   21.5517 C   0  0  2  0  0  0
  -24.8465  -28.9635   20.1139 C   0  0  0  0  0  0
  -22.7397  -29.4665   22.4987 C   0  0  0  0  0  0
  -18.0270  -28.1376   22.8491 C   0  0  0  0  0  0
  -24.1486  -36.7321   23.2637 C   0  0  0  0  0  0
  -25.9281  -30.8369   21.3655 C   0  0  0  0  0  0
  -26.0040  -29.4719   20.7136 C   0  0  0  0  0  0
  -27.1976  -28.7174   20.7047 C   0  0  0  0  0  0
  -26.0570  -26.9495   19.4852 C   0  0  0  0  0  0
  -24.8660  -27.6986   19.5038 C   0  0  0  0  0  0
  -23.6081  -29.8286   20.1651 C   0  0  0  0  0  0
  -25.4107  -36.3118   24.0339 C   0  0  1  0  0  0
  -20.5858  -28.3662   23.1322 C   0  0  2  0  0  0
  -20.6758  -26.9399   22.5421 C   0  0  0  0  0  0
  -19.5745  -26.6387   21.5210 C   0  0  0  0  0  0
  -18.1920  -26.7926   22.1617 C   0  0  0  0  0  0
  -19.1518  -28.8835   23.2908 C   0  0  0  0  0  0
  -18.9446  -30.1440   23.8922 C   0  0  0  0  0  0
  -17.6450  -30.6585   24.0569 C   0  0  0  0  0  0
  -25.9032  -34.9479   23.5136 C   0  0  0  0  0  0
  -16.5343  -29.9090   23.6324 C   0  0  0  0  0  0
  -16.7259  -28.6506   23.0348 C   0  0  0  0  0  0
  -26.4468  -31.6608   25.0727 C   0  0  0  0  0  0
  -25.3743  -31.3719   26.1485 C   0  0  0  0  0  0
  -27.0292  -30.3050   24.6096 C   0  0  0  0  0  0
  -27.6055  -32.4320   25.7477 C   0  0  0  0  0  0
  -27.5584  -37.1814   24.8460 C   0  0  0  0  0  0
  -21.4126  -29.3033   22.3727 N   0  0  0  0  0  0
  -26.4296  -37.3797   23.9407 N   0  0  0  0  0  0
  -24.6651  -31.0807   22.1018 N   0  0  0  0  0  0
  -23.4177  -28.8201   23.3020 O   0  0  0  0  0  0
  -28.4260  -26.7441   20.1134 O   0  0  0  0  0  0
  -26.5589  -34.8926   22.4694 O   0  0  0  0  0  0
  -23.5323  -32.1433   23.7527 O   0  0  0  0  0  0
  -31.1264  -18.8697   21.1173 C   0  0  0  0  0  0
  -28.8349  -17.2639   21.3016 C   0  0  0  0  0  0
  -29.8556  -19.4774   20.9767 C   0  0  0  0  0  0
  -30.1062  -16.6592   21.3732 C   0  0  0  0  0  0
  -31.2571  -17.4793   21.3189 C   0  0  0  0  0  0
  -28.7052  -18.6516   21.1008 C   0  0  0  0  0  0
  -30.4363  -21.8124   21.5890 C   0  0  0  0  0  0
  -28.6323  -21.3857   19.9460 C   0  0  0  0  0  0
  -30.7716  -23.1367   20.8610 C   0  0  0  0  0  0
  -29.0020  -22.6858   19.2071 C   0  0  0  0  0  0
  -29.9553  -24.9788   19.4242 C   0  0  0  0  0  0
  -28.7406  -25.8552   19.0390 C   0  0  0  0  0  0
  -29.7763  -20.8633   20.6908 N   0  0  0  0  0  0
  -30.1677  -15.2476   21.5294 N   0  0  0  0  0  0
  -29.6070  -23.7008   20.1183 N   0  3  0  0  0  0
  -32.4931  -16.9480   21.4744 F   0  0  0  0  0  0
  -27.4556  -19.1730   21.0324 F   0  0  0  0  0  0
  -31.4692  -12.3927   19.1090 H   0  0  0  0  0  0
  -30.3249  -11.2684   19.7788 H   0  0  0  0  0  0
  -29.7284  -11.8133   17.4069 H   0  0  0  0  0  0
  -29.6683  -13.5156   17.7875 H   0  0  0  0  0  0
  -27.8187  -11.3225   18.7888 H   0  0  0  0  0  0
  -27.3672  -12.6764   17.7870 H   0  0  0  0  0  0
  -27.7285  -14.2555   19.6136 H   0  0  0  0  0  0
  -28.6708  -11.8920   21.3071 H   0  0  0  0  0  0
  -28.4491  -13.5019   21.8975 H   0  0  0  0  0  0
  -25.2768   -9.5681   22.4749 H   0  0  0  0  0  0
  -23.9992   -7.4646   22.7483 H   0  0  0  0  0  0
  -21.0827   -8.8785   19.8970 H   0  0  0  0  0  0
  -22.3692  -10.9679   19.6162 H   0  0  0  0  0  0
  -21.2019   -7.6148   23.9708 H   0  0  0  0  0  0
  -21.1474   -6.0524   25.9069 H   0  0  0  0  0  0
  -22.0603   -2.7600   23.2850 H   0  0  0  0  0  0
  -22.4116  -11.9911   22.4777 H   0  0  0  0  0  0
  -21.1143  -13.1296   22.2588 H   0  0  0  0  0  0
  -24.6660  -15.8403   20.4970 H   0  0  0  0  0  0
  -26.2732  -15.6135   20.0287 H   0  0  0  0  0  0
  -26.7101  -32.5553   23.1176 H   0  0  0  0  0  0
  -25.0048  -33.9794   25.0486 H   0  0  0  0  0  0
  -22.6882  -31.3106   21.4143 H   0  0  0  0  0  0
  -23.3740  -35.9663   23.3312 H   0  0  0  0  0  0
  -24.3580  -36.8920   22.2049 H   0  0  0  0  0  0
  -23.7244  -37.6534   23.6639 H   0  0  0  0  0  0
  -26.0390  -31.6031   20.5971 H   0  0  0  0  0  0
  -26.8164  -30.8900   21.9830 H   0  0  0  0  0  0
  -28.0908  -29.1070   21.1733 H   0  0  0  0  0  0
  -26.0095  -25.9766   19.0226 H   0  0  0  0  0  0
  -23.9715  -27.2957   19.0493 H   0  0  0  0  0  0
  -23.7161  -30.6055   19.4070 H   0  0  0  0  0  0
  -22.7321  -29.2491   19.8680 H   0  0  0  0  0  0
  -25.1282  -36.1990   25.0832 H   0  0  0  0  0  0
  -20.9951  -28.3230   24.1444 H   0  0  0  0  0  0
  -20.5652  -26.2272   23.3606 H   0  0  0  0  0  0
  -21.6633  -26.7439   22.1225 H   0  0  0  0  0  0
  -19.6910  -25.6302   21.1230 H   0  0  0  0  0  0
  -19.6698  -27.3209   20.6751 H   0  0  0  0  0  0
  -17.4193  -26.6678   21.4014 H   0  0  0  0  0  0
  -18.0323  -26.0061   22.9006 H   0  0  0  0  0  0
  -19.7922  -30.7244   24.2310 H   0  0  0  0  0  0
  -17.5007  -31.6268   24.5167 H   0  0  0  0  0  0
  -15.5344  -30.3005   23.7633 H   0  0  0  0  0  0
  -15.8658  -28.0836   22.7051 H   0  0  0  0  0  0
  -24.5912  -30.7065   25.7832 H   0  0  0  0  0  0
  -24.8943  -32.2879   26.4939 H   0  0  0  0  0  0
  -25.8103  -30.8887   27.0237 H   0  0  0  0  0  0
  -26.2829  -29.6816   24.1154 H   0  0  0  0  0  0
  -27.4067  -29.7283   25.4550 H   0  0  0  0  0  0
  -27.8666  -30.4371   23.9240 H   0  0  0  0  0  0
  -27.2684  -33.3608   26.2095 H   0  0  0  0  0  0
  -28.3841  -32.6898   25.0284 H   0  0  0  0  0  0
  -28.0750  -31.8419   26.5357 H   0  0  0  0  0  0
  -28.2610  -38.0102   24.7498 H   0  0  0  0  0  0
  -28.1068  -36.2634   24.6290 H   0  0  0  0  0  0
  -27.2301  -37.1470   25.8863 H   0  0  0  0  0  0
  -20.9274  -29.8766   21.6967 H   0  0  0  0  0  0
  -26.0188  -38.2878   24.1405 H   0  0  0  0  0  0
  -32.0250  -19.4623   21.0431 H   0  0  0  0  0  0
  -27.9402  -16.6650   21.3770 H   0  0  0  0  0  0
  -29.7744  -22.0159   22.4323 H   0  0  0  0  0  0
  -31.3487  -21.3942   22.0155 H   0  0  0  0  0  0
  -28.2837  -20.6527   19.2160 H   0  0  0  0  0  0
  -27.8035  -21.5727   20.6314 H   0  0  0  0  0  0
  -31.5902  -22.9644   20.1603 H   0  0  0  0  0  0
  -31.1363  -23.8635   21.5882 H   0  0  0  0  0  0
  -28.1056  -23.0702   18.7237 H   0  0  0  0  0  0
  -29.7074  -22.4559   18.4069 H   0  0  0  0  0  0
  -30.6275  -25.5761   20.0421 H   0  0  0  0  0  0
  -30.5222  -24.7365   18.5242 H   0  0  0  0  0  0
  -27.9102  -25.2332   18.7203 H   0  0  0  0  0  0
  -29.0063  -26.4729   18.1800 H   0  0  0  0  0  0
  -29.3816  -14.8348   22.0056 H   0  0  0  0  0  0
  -28.9153  -23.9161   20.8219 H   0  0  0  0  0  0
  1 25  1  0  0  0
  1 30  2  0  0  0
  1 84  1  0  0  0
  2  3  1  0  0  0
  2 25  1  0  0  0
  2 88  1  0  0  0
  2 89  1  0  0  0
  3  4  1  0  0  0
  3 90  1  0  0  0
  3 91  1  0  0  0
  4  5  1  0  0  0
  4 92  1  0  0  0
  4 93  1  0  0  0
  5  6  1  0  0  0
  5 26  1  0  0  0
  5 94  1  0  0  0
  6 25  1  0  0  0
  6 95  1  0  0  0
  6 96  1  0  0  0
  7  8  2  0  0  0
  7 26  1  0  0  0
  7 29  1  0  0  0
  8  9  1  0  0  0
  8 22  1  0  0  0
  9 10  1  0  0  0
  9 27  2  0  0  0
 10 11  2  0  0  0
 10 15  1  0  0  0
 11 12  1  0  0  0
 11 97  1  0  0  0
 12 13  2  0  0  0
 12 98  1  0  0  0
 13 14  1  0  0  0
 13 31  1  0  0  0
 14 15  2  0  0  0
 14 99  1  0  0  0
 15100  1  0  0  0
 16 17  2  0  0  0
 16 21  1  0  0  0
 16 31  1  0  0  0
 17 18  1  0  0  0
 17101  1  0  0  0
 18 19  2  0  0  0
 18102  1  0  0  0
 19 20  1  0  0  0
 19 24  1  0  0  0
 20 21  2  0  0  0
 20103  1  0  0  0
 21 23  1  0  0  0
 22 28  1  0  0  0
 22 32  2  0  0  0
 26 27  1  0  0  0
 28104  1  0  0  0
 28105  1  0  0  0
 29106  1  0  0  0
 29107  1  0  0  0
 33 34  1  0  0  0
 33 66  1  0  0  0
 33 70  2  0  0  0
 34 36  1  0  0  0
 34 59  1  0  0  0
 34108  1  0  0  0
 35 44  2  0  0  0
 35 45  1  0  0  0
 35 68  1  0  0  0
 36 56  1  0  0  0
 36109  1  0  0  0
 37 39  1  0  0  0
 37 47  1  0  0  0
 37 66  1  0  0  0
 37110  1  0  0  0
 38 43  2  0  0  0
 38 46  1  0  0  0
 38 47  1  0  0  0
 39 64  1  0  0  0
 39 67  2  0  0  0
 40 52  1  0  0  0
 40 53  2  0  0  0
 40 58  1  0  0  0
 41111  1  0  0  0
 41112  1  0  0  0
 41113  1  0  0  0
 41 48  1  0  0  0
 42 43  1  0  0  0
 42 66  1  0  0  0
 42114  1  0  0  0
 42115  1  0  0  0
 43 44  1  0  0  0
 44116  1  0  0  0
 45 46  2  0  0  0
 45117  1  0  0  0
 46118  1  0  0  0
 47119  1  0  0  0
 47120  1  0  0  0
 48 56  1  0  0  0
 48 65  1  0  0  0
 48121  1  0  0  0
 49 50  1  0  0  0
 49 53  1  0  0  0
 49 64  1  0  0  0
 49122  1  0  0  0
 50 51  1  0  0  0
 50123  1  0  0  0
 50124  1  0  0  0
 51 52  1  0  0  0
 51125  1  0  0  0
 51126  1  0  0  0
 52127  1  0  0  0
 52128  1  0  0  0
 53 54  1  0  0  0
 54 55  2  0  0  0
 54129  1  0  0  0
 55 57  1  0  0  0
 55130  1  0  0  0
 56 69  2  0  0  0
 57 58  2  0  0  0
 57131  1  0  0  0
 58132  1  0  0  0
 59 60  1  0  0  0
 59 61  1  0  0  0
 59 62  1  0  0  0
 60133  1  0  0  0
 60134  1  0  0  0
 60135  1  0  0  0
 61136  1  0  0  0
 61137  1  0  0  0
 61138  1  0  0  0
 62139  1  0  0  0
 62140  1  0  0  0
 62141  1  0  0  0
 63 65  1  0  0  0
 63142  1  0  0  0
 63143  1  0  0  0
 63144  1  0  0  0
 64145  1  0  0  0
 65146  1  0  0  0
 68 82  1  0  0  0
 71 73  2  0  0  0
 71 75  1  0  0  0
 71147  1  0  0  0
 72 74  1  0  0  0
 72 76  2  0  0  0
 72148  1  0  0  0
 73 76  1  0  0  0
 73 83  1  0  0  0
 74 75  2  0  0  0
 74 84  1  0  0  0
 75 86  1  0  0  0
 76 87  1  0  0  0
 77 79  1  0  0  0
 77 83  1  0  0  0
 77149  1  0  0  0
 77150  1  0  0  0
 78 80  1  0  0  0
 78 83  1  0  0  0
 78151  1  0  0  0
 78152  1  0  0  0
 79 85  1  0  0  0
 79153  1  0  0  0
 79154  1  0  0  0
 80 85  1  0  0  0
 80155  1  0  0  0
 80156  1  0  0  0
 81 82  1  0  0  0
 81157  1  0  0  0
 81158  1  0  0  0
 81 85  1  0  0  0
 82159  1  0  0  0
 82160  1  0  0  0
 84161  1  0  0  0
 85162  1  0  0  0
M  CHG  1  85   1
M  ISO  4   1 100  68 101  82 101  84 100
M  END
> <chiral flag>
0

> <version>
0

> <s_m_source_file>
/data/baiqing/PycharmProjects/Reinvent-master-3.2/result/LINK_invent/BTK/process_docking_weight1_custom_product_contain_oxygen_bond_distance_aromatic_linkinvent_7_9_3/rearranged_h_0007.sdf

> <i_m_source_file_index>
32

> <r_mmod_Potential_Energy-OPLS-2005>
-35.482666015625

> <r_mmod_Stretch_Energy-OPLS-2005>
38.2948417663574

> <r_mmod_Bend_Energy-OPLS-2005>
108.536865234375

> <r_mmod_Torsional_Energy-OPLS-2005>
299.947448730469

> <r_mmod_Improper_Torsional_Energy-OPLS-2005>
6.44995307922363

> <r_mmod_Van_der_Waal_Energy-OPLS-2005>
167.971282958984

> <r_mmod_Electrostatic_Energy-OPLS-2005>
-232.649841308594

> <r_mmod_Solvation_Energy-OPLS-2005>
-432.616455078125

> <b_mmod_Minimization_Converged-OPLS-2005>
0

> <r_mmod_RMS_Derivative-OPLS-2005>
0.902681291103363

$$$$
32
                    3D
 Structure written by MMmdl.
155164  0  0  1  0            999 V2000
  -30.5707  -14.7475   20.4706 C   0  0  0  0  0  0
  -30.4387  -12.4571   19.4532 C   0  0  0  0  0  0
  -29.5200  -12.5161   18.2142 C   0  0  0  0  0  0
  -28.0369  -12.3451   18.6166 C   0  0  0  0  0  0
  -27.6366  -13.2263   19.8357 C   0  0  2  0  0  0
  -28.6823  -13.1460   20.9661 C   0  0  0  0  0  0
  -25.2515  -13.8162   20.5667 C   0  0  0  0  0  0
  -24.1822  -13.0409   20.9182 C   0  0  0  0  0  0
  -24.6406  -11.6885   20.8682 C   0  0  0  0  0  0
  -23.9065  -10.4271   21.0361 C   0  0  0  0  0  0
  -24.3625   -9.4198   21.9154 C   0  0  0  0  0  0
  -23.6306   -8.2236   22.0750 C   0  0  0  0  0  0
  -22.4284   -8.0274   21.3557 C   0  0  0  0  0  0
  -21.9904   -9.0229   20.4653 C   0  0  0  0  0  0
  -22.7217  -10.2097   20.3027 C   0  0  0  0  0  0
  -21.6864   -6.0736   22.5284 C   0  0  0  0  0  0
  -21.4011   -6.5629   23.8220 C   0  0  0  0  0  0
  -21.3675   -5.6786   24.9188 C   0  0  0  0  0  0
  -21.6043   -4.3042   24.7226 C   0  0  0  0  0  0
  -21.8819   -3.8141   23.4349 C   0  0  0  0  0  0
  -21.9199   -4.6964   22.3410 C   0  0  0  0  0  0
  -22.7848  -13.5191   21.1838 C   0  0  0  0  0  0
  -22.1667   -4.2164   21.0988 F   0  0  0  0  0  0
  -21.5634   -3.4514   25.7730 F   0  0  0  0  0  0
  -29.9749  -13.5125   20.3776 N   0  0  0  0  0  0
  -26.2925  -12.9358   20.3170 N   0  0  0  0  0  0
  -25.9335  -11.6510   20.5659 N   0  0  0  0  0  0
  -22.0478  -12.8245   22.0397 N   0  0  0  0  0  0
  -25.4109  -15.1907   20.4200 N   0  0  0  0  0  0
  -31.7832  -14.8717   20.2770 O   0  0  0  0  0  0
  -21.6649   -6.8869   21.4247 O   0  0  0  0  0  0
  -22.3536  -14.5496   20.6664 O   0  0  0  0  0  0
  -24.6266  -31.8558   23.1968 C   0  0  0  0  0  0
  -25.9106  -32.4768   23.8308 C   0  0  1  0  0  0
  -27.2255  -27.2704   20.1561 C   0  0  0  0  0  0
  -25.5899  -33.8576   24.2244 N   0  0  0  0  0  0
  -23.4238  -30.4733   21.5395 C   0  0  2  0  0  0
  -24.8769  -28.9165   20.1169 C   0  0  0  0  0  0
  -22.7467  -29.4564   22.4896 C   0  0  0  0  0  0
  -18.0274  -28.1364   22.8495 C   0  0  0  0  0  0
  -24.1488  -36.7286   23.2643 C   0  0  0  0  0  0
  -25.9688  -30.7726   21.3782 C   0  0  0  0  0  0
  -26.0450  -29.3948   20.7252 C   0  0  0  0  0  0
  -27.2234  -28.5849   20.7305 C   0  0  0  0  0  0
  -26.0359  -26.8488   19.5287 C   0  0  0  0  0  0
  -24.8768  -27.6510   19.5074 C   0  0  0  0  0  0
  -23.6480  -29.8055   20.1562 C   0  0  0  0  0  0
  -25.4127  -36.3079   24.0323 C   0  0  1  0  0  0
  -20.5879  -28.3668   23.1286 C   0  0  2  0  0  0
  -20.6768  -26.9387   22.5424 C   0  0  0  0  0  0
  -19.5739  -26.6361   21.5234 C   0  0  0  0  0  0
  -18.1914  -26.7908   22.1638 C   0  0  0  0  0  0
  -19.1527  -28.8832   23.2891 C   0  0  0  0  0  0
  -18.9455  -30.1443   23.8890 C   0  0  0  0  0  0
  -17.6456  -30.6577   24.0557 C   0  0  0  0  0  0
  -25.9066  -34.9451   23.5090 C   0  0  0  0  0  0
  -16.5345  -29.9073   23.6333 C   0  0  0  0  0  0
  -16.7262  -28.6490   23.0355 C   0  0  0  0  0  0
  -26.4474  -31.6587   25.0694 C   0  0  0  0  0  0
  -25.3689  -31.3772   26.1409 C   0  0  0  0  0  0
  -27.0330  -30.2983   24.6224 C   0  0  0  0  0  0
  -27.6011  -32.4338   25.7481 C   0  0  0  0  0  0
  -27.5587  -37.1799   24.8457 C   0  0  0  0  0  0
  -21.4178  -29.3018   22.3681 N   0  0  0  0  0  0
  -26.4299  -37.3779   23.9390 N   0  0  0  0  0  0
  -24.6920  -31.0500   22.0952 N   0  0  0  0  0  0
  -23.4166  -28.8128   23.3007 O   0  0  0  0  0  0
  -28.3337  -26.3992   20.1711 O   0  0  0  0  0  0
  -26.5653  -34.8917   22.4667 O   0  0  0  0  0  0
  -23.5411  -32.1394   23.7261 O   0  0  0  0  0  0
  -29.4223  -18.5577   22.9762 C   0  0  0  0  0  0
  -29.1915  -19.7303   22.2278 C   0  0  0  0  0  0
  -29.6941  -17.3193   22.3557 C   0  0  0  0  0  0
  -29.5315  -18.4420   20.2034 C   0  0  0  0  0  0
  -29.2886  -19.7466   20.8203 C   0  0  0  0  0  0
  -29.7273  -17.2049   20.9504 C   0  0  0  0  0  0
  -29.4920  -23.1269   21.6163 C   0  0  0  0  0  0
  -29.1831  -24.6332   21.7405 C   0  0  0  0  0  0
  -28.3892  -23.6950   19.7128 C   0  0  0  0  0  0
  -28.1726  -24.9757   20.6367 C   0  0  2  0  0  0
  -29.0846  -21.1082   19.9897 C   0  0  0  0  0  0
  -28.9183  -22.5452   20.5423 N   0  0  0  0  0  0
  -29.7185  -15.8404   20.3778 N   0  0  0  0  0  0
  -30.2355  -22.5760   22.4300 O   0  0  0  0  0  0
  -31.4812  -12.5982   19.1627 H   0  0  0  0  0  0
  -30.3811  -11.4763   19.9278 H   0  0  0  0  0  0
  -29.8065  -11.7512   17.4908 H   0  0  0  0  0  0
  -29.6570  -13.4756   17.7120 H   0  0  0  0  0  0
  -27.8807  -11.2925   18.8514 H   0  0  0  0  0  0
  -27.3940  -12.5643   17.7614 H   0  0  0  0  0  0
  -27.6226  -14.2515   19.4684 H   0  0  0  0  0  0
  -28.7258  -12.1403   21.3832 H   0  0  0  0  0  0
  -28.4174  -13.8154   21.7862 H   0  0  0  0  0  0
  -25.2774   -9.5702   22.4720 H   0  0  0  0  0  0
  -24.0035   -7.4637   22.7476 H   0  0  0  0  0  0
  -21.0836   -8.8722   19.8973 H   0  0  0  0  0  0
  -22.3658  -10.9633   19.6145 H   0  0  0  0  0  0
  -21.1990   -7.6130   23.9736 H   0  0  0  0  0  0
  -21.1505   -6.0499   25.9089 H   0  0  0  0  0  0
  -22.0591   -2.7614   23.2832 H   0  0  0  0  0  0
  -22.4072  -11.9942   22.4877 H   0  0  0  0  0  0
  -21.1086  -13.1291   22.2526 H   0  0  0  0  0  0
  -24.6303  -15.8221   20.5655 H   0  0  0  0  0  0
  -26.2557  -15.6708   20.1406 H   0  0  0  0  0  0
  -26.7159  -32.5433   23.1044 H   0  0  0  0  0  0
  -24.9975  -33.9708   25.0336 H   0  0  0  0  0  0
  -22.7185  -31.2946   21.3902 H   0  0  0  0  0  0
  -23.3760  -35.9603   23.3307 H   0  0  0  0  0  0
  -24.3575  -36.8919   22.2053 H   0  0  0  0  0  0
  -23.7233  -37.6480   23.6686 H   0  0  0  0  0  0
  -26.1090  -31.5346   20.6108 H   0  0  0  0  0  0
  -26.8428  -30.8189   22.0159 H   0  0  0  0  0  0
  -28.1189  -28.9462   21.2176 H   0  0  0  0  0  0
  -25.9979  -25.8722   19.0677 H   0  0  0  0  0  0
  -23.9815  -27.2756   19.0324 H   0  0  0  0  0  0
  -23.7770  -30.5842   19.4016 H   0  0  0  0  0  0
  -22.7684  -29.2386   19.8487 H   0  0  0  0  0  0
  -25.1317  -36.1918   25.0818 H   0  0  0  0  0  0
  -20.9970  -28.3250   24.1409 H   0  0  0  0  0  0
  -20.5669  -26.2280   23.3627 H   0  0  0  0  0  0
  -21.6637  -26.7415   22.1221 H   0  0  0  0  0  0
  -19.6909  -25.6273   21.1261 H   0  0  0  0  0  0
  -19.6692  -27.3184   20.6768 H   0  0  0  0  0  0
  -17.4204  -26.6662   21.4025 H   0  0  0  0  0  0
  -18.0302  -26.0040   22.9012 H   0  0  0  0  0  0
  -19.7932  -30.7258   24.2260 H   0  0  0  0  0  0
  -17.5008  -31.6262   24.5135 H   0  0  0  0  0  0
  -15.5342  -30.2979   23.7640 H   0  0  0  0  0  0
  -15.8659  -28.0802   22.7079 H   0  0  0  0  0  0
  -24.5776  -30.7250   25.7696 H   0  0  0  0  0  0
  -24.9003  -32.2986   26.4875 H   0  0  0  0  0  0
  -25.7949  -30.8846   27.0159 H   0  0  0  0  0  0
  -26.2941  -29.6721   24.1206 H   0  0  0  0  0  0
  -27.3934  -29.7248   25.4778 H   0  0  0  0  0  0
  -27.8850  -30.4221   23.9537 H   0  0  0  0  0  0
  -27.2570  -33.3592   26.2112 H   0  0  0  0  0  0
  -28.3791  -32.6986   25.0312 H   0  0  0  0  0  0
  -28.0727  -31.8453   26.5361 H   0  0  0  0  0  0
  -28.2595  -38.0102   24.7509 H   0  0  0  0  0  0
  -28.1087  -36.2631   24.6278 H   0  0  0  0  0  0
  -27.2301  -37.1446   25.8858 H   0  0  0  0  0  0
  -20.9342  -29.8743   21.6915 H   0  0  0  0  0  0
  -26.0177  -38.2848   24.1394 H   0  0  0  0  0  0
  -29.3566  -18.6083   24.0542 H   0  0  0  0  0  0
  -28.9313  -20.6260   22.7676 H   0  0  0  0  0  0
  -29.7990  -16.4404   22.9775 H   0  0  0  0  0  0
  -29.5427  -18.3867   19.1244 H   0  0  0  0  0  0
  -30.1127  -25.1813   21.5894 H   0  0  0  0  0  0
  -28.8049  -24.8807   22.7332 H   0  0  0  0  0  0
  -29.1369  -23.9203   18.9499 H   0  0  0  0  0  0
  -27.4708  -23.4234   19.1893 H   0  0  0  0  0  0
  -27.1830  -24.8789   21.0898 H   0  0  0  0  0  0
  -28.2147  -20.9250   19.3578 H   0  0  0  0  0  0
  -29.9234  -21.1603   19.2963 H   0  0  0  0  0  0
  -28.8026  -15.5585   20.0634 H   0  0  0  0  0  0
  1 25  1  0  0  0
  1 30  2  0  0  0
  1 83  1  0  0  0
  2  3  1  0  0  0
  2 25  1  0  0  0
  2 85  1  0  0  0
  2 86  1  0  0  0
  3  4  1  0  0  0
  3 87  1  0  0  0
  3 88  1  0  0  0
  4  5  1  0  0  0
  4 89  1  0  0  0
  4 90  1  0  0  0
  5  6  1  0  0  0
  5 26  1  0  0  0
  5 91  1  0  0  0
  6 25  1  0  0  0
  6 92  1  0  0  0
  6 93  1  0  0  0
  7  8  2  0  0  0
  7 26  1  0  0  0
  7 29  1  0  0  0
  8  9  1  0  0  0
  8 22  1  0  0  0
  9 10  1  0  0  0
  9 27  2  0  0  0
 10 11  2  0  0  0
 10 15  1  0  0  0
 11 12  1  0  0  0
 11 94  1  0  0  0
 12 13  2  0  0  0
 12 95  1  0  0  0
 13 14  1  0  0  0
 13 31  1  0  0  0
 14 15  2  0  0  0
 14 96  1  0  0  0
 15 97  1  0  0  0
 16 17  2  0  0  0
 16 21  1  0  0  0
 16 31  1  0  0  0
 17 18  1  0  0  0
 17 98  1  0  0  0
 18 19  2  0  0  0
 18 99  1  0  0  0
 19 20  1  0  0  0
 19 24  1  0  0  0
 20 21  2  0  0  0
 20100  1  0  0  0
 21 23  1  0  0  0
 22 28  1  0  0  0
 22 32  2  0  0  0
 26 27  1  0  0  0
 28101  1  0  0  0
 28102  1  0  0  0
 29103  1  0  0  0
 29104  1  0  0  0
 33 34  1  0  0  0
 33 66  1  0  0  0
 33 70  2  0  0  0
 34 36  1  0  0  0
 34 59  1  0  0  0
 34105  1  0  0  0
 35 44  2  0  0  0
 35 45  1  0  0  0
 35 68  1  0  0  0
 36 56  1  0  0  0
 36106  1  0  0  0
 37 39  1  0  0  0
 37 47  1  0  0  0
 37 66  1  0  0  0
 37107  1  0  0  0
 38 43  2  0  0  0
 38 46  1  0  0  0
 38 47  1  0  0  0
 39 64  1  0  0  0
 39 67  2  0  0  0
 40 52  1  0  0  0
 40 53  2  0  0  0
 40 58  1  0  0  0
 41108  1  0  0  0
 41109  1  0  0  0
 41110  1  0  0  0
 41 48  1  0  0  0
 42 43  1  0  0  0
 42 66  1  0  0  0
 42111  1  0  0  0
 42112  1  0  0  0
 43 44  1  0  0  0
 44113  1  0  0  0
 45 46  2  0  0  0
 45114  1  0  0  0
 46115  1  0  0  0
 47116  1  0  0  0
 47117  1  0  0  0
 48 56  1  0  0  0
 48 65  1  0  0  0
 48118  1  0  0  0
 49 50  1  0  0  0
 49 53  1  0  0  0
 49 64  1  0  0  0
 49119  1  0  0  0
 50 51  1  0  0  0
 50120  1  0  0  0
 50121  1  0  0  0
 51 52  1  0  0  0
 51122  1  0  0  0
 51123  1  0  0  0
 52124  1  0  0  0
 52125  1  0  0  0
 53 54  1  0  0  0
 54 55  2  0  0  0
 54126  1  0  0  0
 55 57  1  0  0  0
 55127  1  0  0  0
 56 69  2  0  0  0
 57 58  2  0  0  0
 57128  1  0  0  0
 58129  1  0  0  0
 59 60  1  0  0  0
 59 61  1  0  0  0
 59 62  1  0  0  0
 60130  1  0  0  0
 60131  1  0  0  0
 60132  1  0  0  0
 61133  1  0  0  0
 61134  1  0  0  0
 61135  1  0  0  0
 62136  1  0  0  0
 62137  1  0  0  0
 62138  1  0  0  0
 63 65  1  0  0  0
 63139  1  0  0  0
 63140  1  0  0  0
 63141  1  0  0  0
 64142  1  0  0  0
 65143  1  0  0  0
 68 80  1  0  0  0
 71 72  2  0  0  0
 71 73  1  0  0  0
 71144  1  0  0  0
 72 75  1  0  0  0
 72145  1  0  0  0
 73 76  2  0  0  0
 73146  1  0  0  0
 74 75  2  0  0  0
 74 76  1  0  0  0
 74147  1  0  0  0
 75 81  1  0  0  0
 76 83  1  0  0  0
 77 78  1  0  0  0
 77 82  1  0  0  0
 77 84  2  0  0  0
 78 80  1  0  0  0
 78148  1  0  0  0
 78149  1  0  0  0
 79 80  1  0  0  0
 79 82  1  0  0  0
 79150  1  0  0  0
 79151  1  0  0  0
 80152  1  0  0  0
 81 82  1  0  0  0
 81153  1  0  0  0
 81154  1  0  0  0
 83155  1  0  0  0
M  ISO  4   1 100  68 101  80 101  83 100
M  END
> <chiral flag>
0

> <version>
0

> <s_m_source_file>
/data/baiqing/PycharmProjects/Reinvent-master-3.2/result/LINK_invent/BTK/process_docking_weight1_custom_product_contain_oxygen_bond_distance_aromatic_linkinvent_7_9_3/rearranged_h_0007.sdf

> <i_m_source_file_index>
33

> <r_mmod_Potential_Energy-OPLS-2005>
219.408737182617

> <r_mmod_Stretch_Energy-OPLS-2005>
121.584701538086

> <r_mmod_Bend_Energy-OPLS-2005>
206.840744018555

> <r_mmod_Torsional_Energy-OPLS-2005>
288.060546875

> <r_mmod_Improper_Torsional_Energy-OPLS-2005>
14.1784563064575

> <r_mmod_Van_der_Waal_Energy-OPLS-2005>
127.862182617188

> <r_mmod_Electrostatic_Energy-OPLS-2005>
-383.781280517578

> <r_mmod_Solvation_Energy-OPLS-2005>
-242.247406005859

> <b_mmod_Minimization_Converged-OPLS-2005>
0

> <r_mmod_RMS_Derivative-OPLS-2005>
3.78903603553772

$$$$
33
                    3D
 Structure written by MMmdl.
161169  0  0  1  0            999 V2000
  -30.6775  -14.4277   20.5434 C   0  0  0  0  0  0
  -30.4327  -12.2553   19.4370 C   0  0  0  0  0  0
  -29.5033  -12.4693   18.2206 C   0  0  0  0  0  0
  -28.0231  -12.3365   18.6338 C   0  0  0  0  0  0
  -27.6706  -13.1827   19.8848 C   0  0  2  0  0  0
  -28.7089  -12.9364   21.0084 C   0  0  0  0  0  0
  -25.2654  -13.8106   20.5684 C   0  0  0  0  0  0
  -24.1859  -13.0427   20.9167 C   0  0  0  0  0  0
  -24.6378  -11.6880   20.8764 C   0  0  0  0  0  0
  -23.9020  -10.4295   21.0428 C   0  0  0  0  0  0
  -24.3578   -9.4205   21.9198 C   0  0  0  0  0  0
  -23.6266   -8.2236   22.0772 C   0  0  0  0  0  0
  -22.4255   -8.0273   21.3545 C   0  0  0  0  0  0
  -21.9862   -9.0243   20.4658 C   0  0  0  0  0  0
  -22.7193  -10.2125   20.3066 C   0  0  0  0  0  0
  -21.6837   -6.0723   22.5273 C   0  0  0  0  0  0
  -21.4016   -6.5634   23.8207 C   0  0  0  0  0  0
  -21.3661   -5.6787   24.9171 C   0  0  0  0  0  0
  -21.6033   -4.3041   24.7232 C   0  0  0  0  0  0
  -21.8816   -3.8134   23.4356 C   0  0  0  0  0  0
  -21.9190   -4.6949   22.3408 C   0  0  0  0  0  0
  -22.7886  -13.5267   21.1814 C   0  0  0  0  0  0
  -22.1653   -4.2130   21.0988 F   0  0  0  0  0  0
  -21.5629   -3.4530   25.7758 F   0  0  0  0  0  0
  -30.0488  -13.2277   20.4678 N   0  0  0  0  0  0
  -26.3062  -12.9223   20.3396 N   0  0  0  0  0  0
  -25.9294  -11.6402   20.5794 N   0  0  0  0  0  0
  -22.0488  -12.8282   22.0376 N   0  0  0  0  0  0
  -25.4449  -15.1818   20.4134 N   0  0  0  0  0  0
  -31.8039  -14.6454   20.0863 O   0  0  0  0  0  0
  -21.6617   -6.8867   21.4237 O   0  0  0  0  0  0
  -22.3584  -14.5580   20.6673 O   0  0  0  0  0  0
  -24.6082  -31.8710   23.2080 C   0  0  0  0  0  0
  -25.9008  -32.4823   23.8375 C   0  0  1  0  0  0
  -27.2527  -27.4692   20.1047 C   0  0  0  0  0  0
  -25.5884  -33.8617   24.2317 N   0  0  0  0  0  0
  -23.3963  -30.4887   21.5465 C   0  0  2  0  0  0
  -24.8485  -28.9576   20.1252 C   0  0  0  0  0  0
  -22.7366  -29.4665   22.4983 C   0  0  0  0  0  0
  -18.0276  -28.1381   22.8501 C   0  0  0  0  0  0
  -24.1497  -36.7299   23.2635 C   0  0  0  0  0  0
  -25.9185  -30.8536   21.3550 C   0  0  0  0  0  0
  -26.0046  -29.4877   20.7074 C   0  0  0  0  0  0
  -27.2089  -28.7542   20.6889 C   0  0  0  0  0  0
  -26.0736  -26.9393   19.5329 C   0  0  0  0  0  0
  -24.8762  -27.6796   19.5390 C   0  0  0  0  0  0
  -23.6073  -29.8143   20.1650 C   0  0  0  0  0  0
  -25.4121  -36.3092   24.0324 C   0  0  1  0  0  0
  -20.5858  -28.3667   23.1330 C   0  0  2  0  0  0
  -20.6769  -26.9408   22.5423 C   0  0  0  0  0  0
  -19.5751  -26.6400   21.5222 C   0  0  0  0  0  0
  -18.1923  -26.7932   22.1626 C   0  0  0  0  0  0
  -19.1516  -28.8846   23.2914 C   0  0  0  0  0  0
  -18.9443  -30.1450   23.8922 C   0  0  0  0  0  0
  -17.6439  -30.6592   24.0567 C   0  0  0  0  0  0
  -25.9045  -34.9465   23.5124 C   0  0  0  0  0  0
  -16.5342  -29.9088   23.6322 C   0  0  0  0  0  0
  -16.7261  -28.6507   23.0358 C   0  0  0  0  0  0
  -26.4495  -31.6575   25.0667 C   0  0  0  0  0  0
  -25.3748  -31.3675   26.1397 C   0  0  0  0  0  0
  -27.0300  -30.3002   24.6011 C   0  0  0  0  0  0
  -27.6086  -32.4277   25.7434 C   0  0  0  0  0  0
  -27.5582  -37.1804   24.8475 C   0  0  0  0  0  0
  -21.4111  -29.3011   22.3716 N   0  0  0  0  0  0
  -26.4311  -37.3772   23.9401 N   0  0  0  0  0  0
  -24.6581  -31.0854   22.0952 N   0  0  0  0  0  0
  -23.4168  -28.8226   23.3028 O   0  0  0  0  0  0
  -28.4715  -26.8257   20.0732 O   0  0  0  0  0  0
  -26.5584  -34.8911   22.4673 O   0  0  0  0  0  0
  -23.5274  -32.1451   23.7493 O   0  0  0  0  0  0
  -31.3624  -18.4045   20.6164 C   0  0  0  0  0  0
  -29.0078  -18.7288   21.1599 C   0  0  0  0  0  0
  -31.6390  -19.7208   21.0341 C   0  0  0  0  0  0
  -29.2888  -20.0399   21.5919 C   0  0  0  0  0  0
  -30.0379  -17.9222   20.6369 C   0  0  0  0  0  0
  -30.6012  -20.5571   21.4977 C   0  0  0  0  0  0
  -29.7067  -16.5919   19.9967 C   0  0  0  0  0  0
  -30.5265  -22.4096   23.1055 C   0  0  0  0  0  0
  -29.1313  -23.0632   23.1594 C   0  0  0  0  0  0
  -28.4611  -24.9719   21.6587 C   0  0  0  0  0  0
  -28.5348  -25.4046   20.1810 C   0  0  0  0  0  0
  -30.8944  -21.8994   21.7802 N   0  0  0  0  0  0
  -29.8559  -15.4304   20.8644 N   0  0  0  0  0  0
  -28.7551  -23.5262   21.8110 N   0  3  0  0  0  0
  -31.4804  -12.3505   19.1461 H   0  0  0  0  0  0
  -30.3294  -11.2435   19.8308 H   0  0  0  0  0  0
  -29.7394  -11.7425   17.4414 H   0  0  0  0  0  0
  -29.6763  -13.4548   17.7867 H   0  0  0  0  0  0
  -27.8357  -11.2832   18.8457 H   0  0  0  0  0  0
  -27.3694  -12.5982   17.8012 H   0  0  0  0  0  0
  -27.7213  -14.2288   19.5808 H   0  0  0  0  0  0
  -28.6721  -11.8959   21.3338 H   0  0  0  0  0  0
  -28.4869  -13.5236   21.9003 H   0  0  0  0  0  0
  -25.2706   -9.5668   22.4786 H   0  0  0  0  0  0
  -23.9950   -7.4618   22.7494 H   0  0  0  0  0  0
  -21.0779   -8.8775   19.8974 H   0  0  0  0  0  0
  -22.3645  -10.9677   19.6186 H   0  0  0  0  0  0
  -21.2009   -7.6141   23.9708 H   0  0  0  0  0  0
  -21.1480   -6.0520   25.9069 H   0  0  0  0  0  0
  -22.0595   -2.7606   23.2865 H   0  0  0  0  0  0
  -22.4023  -11.9914   22.4766 H   0  0  0  0  0  0
  -21.1142  -13.1394   22.2610 H   0  0  0  0  0  0
  -24.6892  -15.8477   20.5386 H   0  0  0  0  0  0
  -26.3018  -15.6122   20.0900 H   0  0  0  0  0  0
  -26.7076  -32.5595   23.1142 H   0  0  0  0  0  0
  -25.0044  -33.9817   25.0461 H   0  0  0  0  0  0
  -22.6809  -31.2984   21.3990 H   0  0  0  0  0  0
  -23.3744  -35.9650   23.3336 H   0  0  0  0  0  0
  -24.3569  -36.8871   22.2043 H   0  0  0  0  0  0
  -23.7278  -37.6521   23.6630 H   0  0  0  0  0  0
  -26.0229  -31.6238   20.5883 H   0  0  0  0  0  0
  -26.8074  -30.9110   21.9717 H   0  0  0  0  0  0
  -28.1079  -29.1742   21.1184 H   0  0  0  0  0  0
  -26.0603  -25.9712   19.0557 H   0  0  0  0  0  0
  -23.9833  -27.2645   19.0935 H   0  0  0  0  0  0
  -23.7104  -30.5794   19.3938 H   0  0  0  0  0  0
  -22.7412  -29.2173   19.8778 H   0  0  0  0  0  0
  -25.1309  -36.1955   25.0810 H   0  0  0  0  0  0
  -20.9959  -28.3237   24.1448 H   0  0  0  0  0  0
  -20.5695  -26.2255   23.3596 H   0  0  0  0  0  0
  -21.6636  -26.7469   22.1201 H   0  0  0  0  0  0
  -19.6914  -25.6320   21.1227 H   0  0  0  0  0  0
  -19.6707  -27.3221   20.6760 H   0  0  0  0  0  0
  -17.4200  -26.6688   21.4024 H   0  0  0  0  0  0
  -18.0330  -26.0080   22.9019 H   0  0  0  0  0  0
  -19.7916  -30.7259   24.2306 H   0  0  0  0  0  0
  -17.5001  -31.6283   24.5143 H   0  0  0  0  0  0
  -15.5338  -30.3002   23.7641 H   0  0  0  0  0  0
  -15.8661  -28.0826   22.7075 H   0  0  0  0  0  0
  -24.5924  -30.7049   25.7696 H   0  0  0  0  0  0
  -24.8948  -32.2835   26.4842 H   0  0  0  0  0  0
  -25.8073  -30.8816   27.0137 H   0  0  0  0  0  0
  -26.2814  -29.6756   24.1109 H   0  0  0  0  0  0
  -27.4121  -29.7262   25.4461 H   0  0  0  0  0  0
  -27.8641  -30.4318   23.9105 H   0  0  0  0  0  0
  -27.2718  -33.3551   26.2077 H   0  0  0  0  0  0
  -28.3864  -32.6855   25.0232 H   0  0  0  0  0  0
  -28.0778  -31.8331   26.5285 H   0  0  0  0  0  0
  -28.2625  -38.0071   24.7458 H   0  0  0  0  0  0
  -28.1040  -36.2590   24.6386 H   0  0  0  0  0  0
  -27.2270  -37.1555   25.8869 H   0  0  0  0  0  0
  -20.9257  -29.8672   21.6893 H   0  0  0  0  0  0
  -26.0194  -38.2842   24.1379 H   0  0  0  0  0  0
  -32.1604  -17.7893   20.2248 H   0  0  0  0  0  0
  -27.9876  -18.3682   21.1950 H   0  0  0  0  0  0
  -32.6554  -20.0832   20.9556 H   0  0  0  0  0  0
  -28.4642  -20.6420   21.9398 H   0  0  0  0  0  0
  -30.2961  -16.4887   19.0831 H   0  0  0  0  0  0
  -28.6696  -16.6152   19.6543 H   0  0  0  0  0  0
  -30.6204  -21.6371   23.8717 H   0  0  0  0  0  0
  -31.2701  -23.1690   23.3613 H   0  0  0  0  0  0
  -29.1176  -23.8723   23.8904 H   0  0  0  0  0  0
  -28.3999  -22.3328   23.5072 H   0  0  0  0  0  0
  -27.4788  -25.1989   22.0773 H   0  0  0  0  0  0
  -29.1882  -25.5447   22.2341 H   0  0  0  0  0  0
  -29.5065  -25.1164   19.7731 H   0  0  0  0  0  0
  -27.7970  -24.8863   19.5716 H   0  0  0  0  0  0
  -31.8526  -22.1355   21.5240 H   0  0  0  0  0  0
  -29.0051  -15.1369   21.3178 H   0  0  0  0  0  0
  -27.9834  -22.9753   21.4768 H   0  0  0  0  0  0
  -29.5742  -23.2459   21.2794 H   0  0  0  0  0  0
  1 25  1  0  0  0
  1 30  2  0  0  0
  1 83  1  0  0  0
  2  3  1  0  0  0
  2 25  1  0  0  0
  2 85  1  0  0  0
  2 86  1  0  0  0
  3  4  1  0  0  0
  3 87  1  0  0  0
  3 88  1  0  0  0
  4  5  1  0  0  0
  4 89  1  0  0  0
  4 90  1  0  0  0
  5  6  1  0  0  0
  5 26  1  0  0  0
  5 91  1  0  0  0
  6 25  1  0  0  0
  6 92  1  0  0  0
  6 93  1  0  0  0
  7  8  2  0  0  0
  7 26  1  0  0  0
  7 29  1  0  0  0
  8  9  1  0  0  0
  8 22  1  0  0  0
  9 10  1  0  0  0
  9 27  2  0  0  0
 10 11  2  0  0  0
 10 15  1  0  0  0
 11 12  1  0  0  0
 11 94  1  0  0  0
 12 13  2  0  0  0
 12 95  1  0  0  0
 13 14  1  0  0  0
 13 31  1  0  0  0
 14 15  2  0  0  0
 14 96  1  0  0  0
 15 97  1  0  0  0
 16 17  2  0  0  0
 16 21  1  0  0  0
 16 31  1  0  0  0
 17 18  1  0  0  0
 17 98  1  0  0  0
 18 19  2  0  0  0
 18 99  1  0  0  0
 19 20  1  0  0  0
 19 24  1  0  0  0
 20 21  2  0  0  0
 20100  1  0  0  0
 21 23  1  0  0  0
 22 28  1  0  0  0
 22 32  2  0  0  0
 26 27  1  0  0  0
 28101  1  0  0  0
 28102  1  0  0  0
 29103  1  0  0  0
 29104  1  0  0  0
 33 34  1  0  0  0
 33 66  1  0  0  0
 33 70  2  0  0  0
 34 36  1  0  0  0
 34 59  1  0  0  0
 34105  1  0  0  0
 35 44  2  0  0  0
 35 45  1  0  0  0
 35 68  1  0  0  0
 36 56  1  0  0  0
 36106  1  0  0  0
 37 39  1  0  0  0
 37 47  1  0  0  0
 37 66  1  0  0  0
 37107  1  0  0  0
 38 43  2  0  0  0
 38 46  1  0  0  0
 38 47  1  0  0  0
 39 64  1  0  0  0
 39 67  2  0  0  0
 40 52  1  0  0  0
 40 53  2  0  0  0
 40 58  1  0  0  0
 41108  1  0  0  0
 41109  1  0  0  0
 41110  1  0  0  0
 41 48  1  0  0  0
 42 43  1  0  0  0
 42 66  1  0  0  0
 42111  1  0  0  0
 42112  1  0  0  0
 43 44  1  0  0  0
 44113  1  0  0  0
 45 46  2  0  0  0
 45114  1  0  0  0
 46115  1  0  0  0
 47116  1  0  0  0
 47117  1  0  0  0
 48 56  1  0  0  0
 48 65  1  0  0  0
 48118  1  0  0  0
 49 50  1  0  0  0
 49 53  1  0  0  0
 49 64  1  0  0  0
 49119  1  0  0  0
 50 51  1  0  0  0
 50120  1  0  0  0
 50121  1  0  0  0
 51 52  1  0  0  0
 51122  1  0  0  0
 51123  1  0  0  0
 52124  1  0  0  0
 52125  1  0  0  0
 53 54  1  0  0  0
 54 55  2  0  0  0
 54126  1  0  0  0
 55 57  1  0  0  0
 55127  1  0  0  0
 56 69  2  0  0  0
 57 58  2  0  0  0
 57128  1  0  0  0
 58129  1  0  0  0
 59 60  1  0  0  0
 59 61  1  0  0  0
 59 62  1  0  0  0
 60130  1  0  0  0
 60131  1  0  0  0
 60132  1  0  0  0
 61133  1  0  0  0
 61134  1  0  0  0
 61135  1  0  0  0
 62136  1  0  0  0
 62137  1  0  0  0
 62138  1  0  0  0
 63 65  1  0  0  0
 63139  1  0  0  0
 63140  1  0  0  0
 63141  1  0  0  0
 64142  1  0  0  0
 65143  1  0  0  0
 68 81  1  0  0  0
 71 73  2  0  0  0
 71 75  1  0  0  0
 71144  1  0  0  0
 72 74  1  0  0  0
 72 75  2  0  0  0
 72145  1  0  0  0
 73 76  1  0  0  0
 73146  1  0  0  0
 74 76  2  0  0  0
 74147  1  0  0  0
 75 77  1  0  0  0
 76 82  1  0  0  0
 77 83  1  0  0  0
 77148  1  0  0  0
 77149  1  0  0  0
 78 79  1  0  0  0
 78 82  1  0  0  0
 78150  1  0  0  0
 78151  1  0  0  0
 79 84  1  0  0  0
 79152  1  0  0  0
 79153  1  0  0  0
 80 81  1  0  0  0
 80 84  1  0  0  0
 80154  1  0  0  0
 80155  1  0  0  0
 81156  1  0  0  0
 81157  1  0  0  0
 82158  1  0  0  0
 83159  1  0  0  0
 84160  1  0  0  0
 84161  1  0  0  0
M  CHG  1  84   1
M  ISO  4   1 100  68 101  81 101  83 100
M  END
> <chiral flag>
0

> <version>
0

> <s_m_source_file>
/data/baiqing/PycharmProjects/Reinvent-master-3.2/result/LINK_invent/BTK/process_docking_weight1_custom_product_contain_oxygen_bond_distance_aromatic_linkinvent_7_9_3/rearranged_h_0007.sdf

> <i_m_source_file_index>
34

> <r_mmod_Potential_Energy-OPLS-2005>
-228.69189453125

> <r_mmod_Stretch_Energy-OPLS-2005>
32.370491027832

> <r_mmod_Bend_Energy-OPLS-2005>
103.378433227539

> <r_mmod_Torsional_Energy-OPLS-2005>
274.188323974609

> <r_mmod_Improper_Torsional_Energy-OPLS-2005>
16.2236595153809

> <r_mmod_Van_der_Waal_Energy-OPLS-2005>
158.740188598633

> <r_mmod_Electrostatic_Energy-OPLS-2005>
-385.940734863281

> <r_mmod_Solvation_Energy-OPLS-2005>
-439.556915283203

> <b_mmod_Minimization_Converged-OPLS-2005>
0

> <r_mmod_RMS_Derivative-OPLS-2005>
3.95187020301819

$$$$
34
                    3D
 Structure written by MMmdl.
166174  0  0  1  0            999 V2000
  -30.7040  -14.4356   20.5757 C   0  0  0  0  0  0
  -30.4254  -12.2865   19.4179 C   0  0  0  0  0  0
  -29.4983  -12.4961   18.2022 C   0  0  0  0  0  0
  -28.0165  -12.3633   18.6099 C   0  0  0  0  0  0
  -27.6643  -13.1932   19.8731 C   0  0  2  0  0  0
  -28.7013  -12.9533   20.9912 C   0  0  0  0  0  0
  -25.2629  -13.8141   20.5650 C   0  0  0  0  0  0
  -24.1864  -13.0451   20.9188 C   0  0  0  0  0  0
  -24.6374  -11.6896   20.8729 C   0  0  0  0  0  0
  -23.9037  -10.4297   21.0399 C   0  0  0  0  0  0
  -24.3596   -9.4219   21.9179 C   0  0  0  0  0  0
  -23.6277   -8.2256   22.0769 C   0  0  0  0  0  0
  -22.4256   -8.0295   21.3562 C   0  0  0  0  0  0
  -21.9882   -9.0268   20.4666 C   0  0  0  0  0  0
  -22.7209  -10.2144   20.3062 C   0  0  0  0  0  0
  -21.6865   -6.0724   22.5277 C   0  0  0  0  0  0
  -21.4017   -6.5636   23.8206 C   0  0  0  0  0  0
  -21.3654   -5.6799   24.9175 C   0  0  0  0  0  0
  -21.6035   -4.3058   24.7226 C   0  0  0  0  0  0
  -21.8823   -3.8139   23.4351 C   0  0  0  0  0  0
  -21.9202   -4.6949   22.3399 C   0  0  0  0  0  0
  -22.7897  -13.5279   21.1843 C   0  0  0  0  0  0
  -22.1659   -4.2125   21.0978 F   0  0  0  0  0  0
  -21.5634   -3.4547   25.7738 F   0  0  0  0  0  0
  -30.0333  -13.2617   20.4449 N   0  0  0  0  0  0
  -26.3032  -12.9269   20.3320 N   0  0  0  0  0  0
  -25.9290  -11.6443   20.5727 N   0  0  0  0  0  0
  -22.0530  -12.8294   22.0400 N   0  0  0  0  0  0
  -25.4417  -15.1852   20.3996 N   0  0  0  0  0  0
  -31.8363  -14.6255   20.1326 O   0  0  0  0  0  0
  -21.6644   -6.8875   21.4245 O   0  0  0  0  0  0
  -22.3596  -14.5590   20.6689 O   0  0  0  0  0  0
  -24.6146  -31.8705   23.2120 C   0  0  0  0  0  0
  -25.9048  -32.4833   23.8401 C   0  0  1  0  0  0
  -27.2282  -27.4513   20.0755 C   0  0  0  0  0  0
  -25.5916  -33.8630   24.2330 N   0  0  0  0  0  0
  -23.3989  -30.4977   21.5549 C   0  0  2  0  0  0
  -24.8378  -28.9671   20.1168 C   0  0  0  0  0  0
  -22.7389  -29.4682   22.5012 C   0  0  0  0  0  0
  -18.0283  -28.1396   22.8523 C   0  0  0  0  0  0
  -24.1490  -36.7318   23.2632 C   0  0  0  0  0  0
  -25.9275  -30.8399   21.3624 C   0  0  0  0  0  0
  -25.9994  -29.4769   20.7067 C   0  0  0  0  0  0
  -27.1957  -28.7255   20.6845 C   0  0  0  0  0  0
  -26.0378  -26.9462   19.4987 C   0  0  0  0  0  0
  -24.8499  -27.6975   19.5147 C   0  0  0  0  0  0
  -23.6025  -29.8370   20.1668 C   0  0  0  0  0  0
  -25.4109  -36.3111   24.0331 C   0  0  1  0  0  0
  -20.5867  -28.3665   23.1360 C   0  0  2  0  0  0
  -20.6757  -26.9394   22.5482 C   0  0  0  0  0  0
  -19.5748  -26.6405   21.5255 C   0  0  0  0  0  0
  -18.1928  -26.7940   22.1662 C   0  0  0  0  0  0
  -19.1528  -28.8857   23.2940 C   0  0  0  0  0  0
  -18.9453  -30.1464   23.8944 C   0  0  0  0  0  0
  -17.6453  -30.6592   24.0608 C   0  0  0  0  0  0
  -25.9042  -34.9482   23.5127 C   0  0  0  0  0  0
  -16.5346  -29.9100   23.6352 C   0  0  0  0  0  0
  -16.7274  -28.6523   23.0358 C   0  0  0  0  0  0
  -26.4479  -31.6607   25.0725 C   0  0  0  0  0  0
  -25.3753  -31.3717   26.1482 C   0  0  0  0  0  0
  -27.0303  -30.3053   24.6095 C   0  0  0  0  0  0
  -27.6058  -32.4330   25.7489 C   0  0  0  0  0  0
  -27.5584  -37.1812   24.8463 C   0  0  0  0  0  0
  -21.4115  -29.3023   22.3741 N   0  0  0  0  0  0
  -26.4296  -37.3790   23.9402 N   0  0  0  0  0  0
  -24.6657  -31.0818   22.1022 N   0  0  0  0  0  0
  -23.4174  -28.8214   23.3037 O   0  0  0  0  0  0
  -28.4272  -26.7661   20.0617 O   0  0  0  0  0  0
  -26.5590  -34.8933   22.4684 O   0  0  0  0  0  0
  -23.5353  -32.1435   23.7551 O   0  0  0  0  0  0
  -26.8798  -19.3421   22.1848 C   0  0  0  0  0  0
  -28.7488  -18.2632   21.1396 C   0  0  0  0  0  0
  -26.9632  -18.4799   23.4676 C   0  0  0  0  0  0
  -28.4759  -17.0642   22.1010 C   0  0  2  0  0  0
  -27.0296  -22.8230   18.8099 C   0  0  0  0  0  0
  -29.6365  -16.0355   22.1476 C   0  0  0  0  0  0
  -28.1854  -20.5412   20.4932 C   0  0  0  0  0  0
  -27.8731  -21.9978   20.9166 C   0  0  0  0  0  0
  -27.9877  -24.3645   20.3987 C   0  0  0  0  0  0
  -28.5003  -25.4751   19.4517 C   0  0  0  0  0  0
  -28.2008  -19.5621   21.5867 N   0  0  0  0  0  0
  -29.9347  -15.5037   20.8176 N   0  0  0  0  0  0
  -28.0432  -22.9975   19.8536 N   0  0  0  0  0  0
  -28.1355  -17.5705   23.4499 N   0  3  0  0  0  0
  -31.4693  -12.3905   19.1171 H   0  0  0  0  0  0
  -30.3300  -11.2704   19.8058 H   0  0  0  0  0  0
  -29.7393  -11.7747   17.4199 H   0  0  0  0  0  0
  -29.6736  -13.4813   17.7680 H   0  0  0  0  0  0
  -27.8218  -11.3076   18.7961 H   0  0  0  0  0  0
  -27.3724  -12.6494   17.7779 H   0  0  0  0  0  0
  -27.7186  -14.2440   19.5902 H   0  0  0  0  0  0
  -28.6702  -11.9125   21.3165 H   0  0  0  0  0  0
  -28.4540  -13.5383   21.8747 H   0  0  0  0  0  0
  -25.2744   -9.5699   22.4752 H   0  0  0  0  0  0
  -23.9999   -7.4647   22.7476 H   0  0  0  0  0  0
  -21.0830   -8.8782   19.8956 H   0  0  0  0  0  0
  -22.3671  -10.9691   19.6173 H   0  0  0  0  0  0
  -21.2001   -7.6143   23.9699 H   0  0  0  0  0  0
  -21.1473   -6.0529   25.9078 H   0  0  0  0  0  0
  -22.0596   -2.7597   23.2863 H   0  0  0  0  0  0
  -22.4117  -11.9910   22.4738 H   0  0  0  0  0  0
  -21.1148  -13.1342   22.2585 H   0  0  0  0  0  0
  -24.6526  -15.8217   20.4348 H   0  0  0  0  0  0
  -26.2423  -15.5724   19.9184 H   0  0  0  0  0  0
  -26.7121  -32.5538   23.1164 H   0  0  0  0  0  0
  -25.0118  -33.9795   25.0508 H   0  0  0  0  0  0
  -22.6874  -31.3162   21.4222 H   0  0  0  0  0  0
  -23.3754  -35.9657   23.3317 H   0  0  0  0  0  0
  -24.3577  -36.8903   22.2043 H   0  0  0  0  0  0
  -23.7242  -37.6527   23.6638 H   0  0  0  0  0  0
  -26.0436  -31.6099   20.5995 H   0  0  0  0  0  0
  -26.8149  -30.8864   21.9812 H   0  0  0  0  0  0
  -28.0982  -29.1222   21.1270 H   0  0  0  0  0  0
  -25.9942  -25.9748   19.0297 H   0  0  0  0  0  0
  -23.9532  -27.2941   19.0648 H   0  0  0  0  0  0
  -23.7112  -30.6181   19.4124 H   0  0  0  0  0  0
  -22.7247  -29.2626   19.8688 H   0  0  0  0  0  0
  -25.1291  -36.1981   25.0822 H   0  0  0  0  0  0
  -20.9970  -28.3270   24.1470 H   0  0  0  0  0  0
  -20.5561  -26.2295   23.3681 H   0  0  0  0  0  0
  -21.6658  -26.7398   22.1339 H   0  0  0  0  0  0
  -19.6899  -25.6327   21.1259 H   0  0  0  0  0  0
  -19.6708  -27.3245   20.6821 H   0  0  0  0  0  0
  -17.4193  -26.6682   21.4074 H   0  0  0  0  0  0
  -18.0347  -26.0092   22.9077 H   0  0  0  0  0  0
  -19.7929  -30.7279   24.2307 H   0  0  0  0  0  0
  -17.4998  -31.6270   24.5197 H   0  0  0  0  0  0
  -15.5349  -30.3001   23.7665 H   0  0  0  0  0  0
  -15.8682  -28.0851   22.7035 H   0  0  0  0  0  0
  -24.5913  -30.7074   25.7815 H   0  0  0  0  0  0
  -24.8971  -32.2883   26.4962 H   0  0  0  0  0  0
  -25.8116  -30.8854   27.0215 H   0  0  0  0  0  0
  -26.2833  -29.6819   24.1168 H   0  0  0  0  0  0
  -27.4081  -29.7292   25.4544 H   0  0  0  0  0  0
  -27.8671  -30.4372   23.9238 H   0  0  0  0  0  0
  -27.2672  -33.3610   26.2123 H   0  0  0  0  0  0
  -28.3849  -32.6918   25.0303 H   0  0  0  0  0  0
  -28.0761  -31.8419   26.5359 H   0  0  0  0  0  0
  -28.2613  -38.0100   24.7505 H   0  0  0  0  0  0
  -28.1070  -36.2630   24.6311 H   0  0  0  0  0  0
  -27.2306  -37.1489   25.8867 H   0  0  0  0  0  0
  -20.9230  -29.8757   21.7016 H   0  0  0  0  0  0
  -26.0199  -38.2872   24.1395 H   0  0  0  0  0  0
  -26.3955  -20.2842   22.4396 H   0  0  0  0  0  0
  -26.2259  -18.8544   21.4571 H   0  0  0  0  0  0
  -28.3452  -18.0006   20.1583 H   0  0  0  0  0  0
  -29.8228  -18.3751   20.9883 H   0  0  0  0  0  0
  -26.0433  -17.9012   23.5705 H   0  0  0  0  0  0
  -27.0342  -19.1152   24.3513 H   0  0  0  0  0  0
  -27.5879  -16.5424   21.7431 H   0  0  0  0  0  0
  -26.0235  -22.9828   19.2039 H   0  0  0  0  0  0
  -27.0603  -21.8215   18.3831 H   0  0  0  0  0  0
  -27.1839  -23.5097   17.9770 H   0  0  0  0  0  0
  -29.4051  -15.2298   22.8451 H   0  0  0  0  0  0
  -30.5382  -16.5152   22.5332 H   0  0  0  0  0  0
  -29.1683  -20.5463   20.0183 H   0  0  0  0  0  0
  -27.4850  -20.2115   19.7233 H   0  0  0  0  0  0
  -28.5467  -22.2390   21.7417 H   0  0  0  0  0  0
  -26.8634  -22.0662   21.3242 H   0  0  0  0  0  0
  -26.9687  -24.5906   20.7181 H   0  0  0  0  0  0
  -28.5945  -24.4173   21.3036 H   0  0  0  0  0  0
  -29.5500  -25.2838   19.2303 H   0  0  0  0  0  0
  -28.0052  -25.4705   18.4809 H   0  0  0  0  0  0
  -30.2107  -16.2476   20.1935 H   0  0  0  0  0  0
  -27.9824  -16.8176   24.0995 H   0  0  0  0  0  0
  -28.9231  -18.1114   23.7684 H   0  0  0  0  0  0
  1 25  1  0  0  0
  1 30  2  0  0  0
  1 82  1  0  0  0
  2  3  1  0  0  0
  2 25  1  0  0  0
  2 85  1  0  0  0
  2 86  1  0  0  0
  3  4  1  0  0  0
  3 87  1  0  0  0
  3 88  1  0  0  0
  4  5  1  0  0  0
  4 89  1  0  0  0
  4 90  1  0  0  0
  5  6  1  0  0  0
  5 26  1  0  0  0
  5 91  1  0  0  0
  6 25  1  0  0  0
  6 92  1  0  0  0
  6 93  1  0  0  0
  7  8  2  0  0  0
  7 26  1  0  0  0
  7 29  1  0  0  0
  8  9  1  0  0  0
  8 22  1  0  0  0
  9 10  1  0  0  0
  9 27  2  0  0  0
 10 11  2  0  0  0
 10 15  1  0  0  0
 11 12  1  0  0  0
 11 94  1  0  0  0
 12 13  2  0  0  0
 12 95  1  0  0  0
 13 14  1  0  0  0
 13 31  1  0  0  0
 14 15  2  0  0  0
 14 96  1  0  0  0
 15 97  1  0  0  0
 16 17  2  0  0  0
 16 21  1  0  0  0
 16 31  1  0  0  0
 17 18  1  0  0  0
 17 98  1  0  0  0
 18 19  2  0  0  0
 18 99  1  0  0  0
 19 20  1  0  0  0
 19 24  1  0  0  0
 20 21  2  0  0  0
 20100  1  0  0  0
 21 23  1  0  0  0
 22 28  1  0  0  0
 22 32  2  0  0  0
 26 27  1  0  0  0
 28101  1  0  0  0
 28102  1  0  0  0
 29103  1  0  0  0
 29104  1  0  0  0
 33 34  1  0  0  0
 33 66  1  0  0  0
 33 70  2  0  0  0
 34 36  1  0  0  0
 34 59  1  0  0  0
 34105  1  0  0  0
 35 44  2  0  0  0
 35 45  1  0  0  0
 35 68  1  0  0  0
 36 56  1  0  0  0
 36106  1  0  0  0
 37 39  1  0  0  0
 37 47  1  0  0  0
 37 66  1  0  0  0
 37107  1  0  0  0
 38 43  2  0  0  0
 38 46  1  0  0  0
 38 47  1  0  0  0
 39 64  1  0  0  0
 39 67  2  0  0  0
 40 52  1  0  0  0
 40 53  2  0  0  0
 40 58  1  0  0  0
 41108  1  0  0  0
 41109  1  0  0  0
 41110  1  0  0  0
 41 48  1  0  0  0
 42 43  1  0  0  0
 42 66  1  0  0  0
 42111  1  0  0  0
 42112  1  0  0  0
 43 44  1  0  0  0
 44113  1  0  0  0
 45 46  2  0  0  0
 45114  1  0  0  0
 46115  1  0  0  0
 47116  1  0  0  0
 47117  1  0  0  0
 48 56  1  0  0  0
 48 65  1  0  0  0
 48118  1  0  0  0
 49 50  1  0  0  0
 49 53  1  0  0  0
 49 64  1  0  0  0
 49119  1  0  0  0
 50 51  1  0  0  0
 50120  1  0  0  0
 50121  1  0  0  0
 51 52  1  0  0  0
 51122  1  0  0  0
 51123  1  0  0  0
 52124  1  0  0  0
 52125  1  0  0  0
 53 54  1  0  0  0
 54 55  2  0  0  0
 54126  1  0  0  0
 55 57  1  0  0  0
 55127  1  0  0  0
 56 69  2  0  0  0
 57 58  2  0  0  0
 57128  1  0  0  0
 58129  1  0  0  0
 59 60  1  0  0  0
 59 61  1  0  0  0
 59 62  1  0  0  0
 60130  1  0  0  0
 60131  1  0  0  0
 60132  1  0  0  0
 61133  1  0  0  0
 61134  1  0  0  0
 61135  1  0  0  0
 62136  1  0  0  0
 62137  1  0  0  0
 62138  1  0  0  0
 63 65  1  0  0  0
 63139  1  0  0  0
 63140  1  0  0  0
 63141  1  0  0  0
 64142  1  0  0  0
 65143  1  0  0  0
 68 80  1  0  0  0
 71 73  1  0  0  0
 71 81  1  0  0  0
 71144  1  0  0  0
 71145  1  0  0  0
 72 74  1  0  0  0
 72 81  1  0  0  0
 72146  1  0  0  0
 72147  1  0  0  0
 73 84  1  0  0  0
 73148  1  0  0  0
 73149  1  0  0  0
 74 76  1  0  0  0
 74 84  1  0  0  0
 74150  1  0  0  0
 75 83  1  0  0  0
 75151  1  0  0  0
 75152  1  0  0  0
 75153  1  0  0  0
 76 82  1  0  0  0
 76154  1  0  0  0
 76155  1  0  0  0
 77 78  1  0  0  0
 77 81  1  0  0  0
 77156  1  0  0  0
 77157  1  0  0  0
 78 83  1  0  0  0
 78158  1  0  0  0
 78159  1  0  0  0
 79 80  1  0  0  0
 79 83  1  0  0  0
 79160  1  0  0  0
 79161  1  0  0  0
 80162  1  0  0  0
 80163  1  0  0  0
 82164  1  0  0  0
 84165  1  0  0  0
 84166  1  0  0  0
M  CHG  1  84   1
M  ISO  4   1 100  68 101  80 101  82 100
M  END
> <chiral flag>
0

> <version>
0

> <s_m_source_file>
/data/baiqing/PycharmProjects/Reinvent-master-3.2/result/LINK_invent/BTK/process_docking_weight1_custom_product_contain_oxygen_bond_distance_aromatic_linkinvent_7_9_3/rearranged_h_0007.sdf

> <i_m_source_file_index>
35

> <r_mmod_Potential_Energy-OPLS-2005>
-26.2263469696045

> <r_mmod_Stretch_Energy-OPLS-2005>
37.3369255065918

> <r_mmod_Bend_Energy-OPLS-2005>
107.320869445801

> <r_mmod_Torsional_Energy-OPLS-2005>
362.580352783203

> <r_mmod_Improper_Torsional_Energy-OPLS-2005>
17.5949096679688

> <r_mmod_Van_der_Waal_Energy-OPLS-2005>
151.826446533203

> <r_mmod_Electrostatic_Energy-OPLS-2005>
-229.654434204102

> <r_mmod_Solvation_Energy-OPLS-2005>
-484.571960449219

> <b_mmod_Minimization_Converged-OPLS-2005>
0

> <r_mmod_RMS_Derivative-OPLS-2005>
3.10461187362671

$$$$
35
                    3D
 Structure written by MMmdl.
165173  0  0  1  0            999 V2000
  -30.7664  -14.3633   20.7004 C   0  0  0  0  0  0
  -30.4189  -12.3015   19.3771 C   0  0  0  0  0  0
  -29.4786  -12.5376   18.1812 C   0  0  0  0  0  0
  -28.0053  -12.3836   18.6030 C   0  0  0  0  0  0
  -27.6672  -13.1955   19.8799 C   0  0  2  0  0  0
  -28.7090  -12.9127   20.9848 C   0  0  0  0  0  0
  -25.2623  -13.8138   20.5669 C   0  0  0  0  0  0
  -24.1861  -13.0435   20.9164 C   0  0  0  0  0  0
  -24.6394  -11.6893   20.8733 C   0  0  0  0  0  0
  -23.9058  -10.4285   21.0406 C   0  0  0  0  0  0
  -24.3609   -9.4205   21.9190 C   0  0  0  0  0  0
  -23.6284   -8.2242   22.0759 C   0  0  0  0  0  0
  -22.4268   -8.0279   21.3546 C   0  0  0  0  0  0
  -21.9904   -9.0256   20.4650 C   0  0  0  0  0  0
  -22.7232  -10.2132   20.3059 C   0  0  0  0  0  0
  -21.6849   -6.0735   22.5281 C   0  0  0  0  0  0
  -21.4012   -6.5636   23.8215 C   0  0  0  0  0  0
  -21.3662   -5.6791   24.9175 C   0  0  0  0  0  0
  -21.6044   -4.3055   24.7228 C   0  0  0  0  0  0
  -21.8820   -3.8145   23.4350 C   0  0  0  0  0  0
  -21.9188   -4.6960   22.3403 C   0  0  0  0  0  0
  -22.7884  -13.5245   21.1824 C   0  0  0  0  0  0
  -22.1658   -4.2142   21.0985 F   0  0  0  0  0  0
  -21.5630   -3.4546   25.7747 F   0  0  0  0  0  0
  -30.0461  -13.2341   20.4527 N   0  0  0  0  0  0
  -26.3057  -12.9286   20.3385 N   0  0  0  0  0  0
  -25.9314  -11.6451   20.5748 N   0  0  0  0  0  0
  -22.0512  -12.8251   22.0378 N   0  0  0  0  0  0
  -25.4363  -15.1853   20.4088 N   0  0  0  0  0  0
  -31.7858  -14.6571   20.0640 O   0  0  0  0  0  0
  -21.6630   -6.8881   21.4246 O   0  0  0  0  0  0
  -22.3573  -14.5553   20.6666 O   0  0  0  0  0  0
  -24.6104  -31.8696   23.2125 C   0  0  0  0  0  0
  -25.9008  -32.4833   23.8404 C   0  0  1  0  0  0
  -27.2388  -27.4737   20.0846 C   0  0  0  0  0  0
  -25.5882  -33.8628   24.2345 N   0  0  0  0  0  0
  -23.3981  -30.4923   21.5508 C   0  0  2  0  0  0
  -24.8467  -28.9612   20.1132 C   0  0  0  0  0  0
  -22.7401  -29.4655   22.5001 C   0  0  0  0  0  0
  -18.0267  -28.1384   22.8487 C   0  0  0  0  0  0
  -24.1476  -36.7319   23.2641 C   0  0  0  0  0  0
  -25.9213  -30.8488   21.3559 C   0  0  0  0  0  0
  -26.0027  -29.4834   20.7086 C   0  0  0  0  0  0
  -27.2039  -28.7432   20.6974 C   0  0  0  0  0  0
  -26.0726  -26.9534   19.4916 C   0  0  0  0  0  0
  -24.8734  -27.6921   19.5045 C   0  0  0  0  0  0
  -23.6063  -29.8240   20.1637 C   0  0  0  0  0  0
  -25.4097  -36.3122   24.0353 C   0  0  1  0  0  0
  -20.5863  -28.3654   23.1340 C   0  0  2  0  0  0
  -20.6762  -26.9389   22.5431 C   0  0  0  0  0  0
  -19.5744  -26.6385   21.5222 C   0  0  0  0  0  0
  -18.1915  -26.7924   22.1625 C   0  0  0  0  0  0
  -19.1518  -28.8832   23.2912 C   0  0  0  0  0  0
  -18.9451  -30.1443   23.8914 C   0  0  0  0  0  0
  -17.6456  -30.6588   24.0557 C   0  0  0  0  0  0
  -25.9031  -34.9481   23.5145 C   0  0  0  0  0  0
  -16.5342  -29.9097   23.6319 C   0  0  0  0  0  0
  -16.7257  -28.6521   23.0328 C   0  0  0  0  0  0
  -26.4459  -31.6613   25.0714 C   0  0  0  0  0  0
  -25.3745  -31.3712   26.1481 C   0  0  0  0  0  0
  -27.0276  -30.3068   24.6051 C   0  0  0  0  0  0
  -27.6041  -32.4327   25.7467 C   0  0  0  0  0  0
  -27.5576  -37.1814   24.8471 C   0  0  0  0  0  0
  -21.4133  -29.3027   22.3748 N   0  0  0  0  0  0
  -26.4285  -37.3808   23.9420 N   0  0  0  0  0  0
  -24.6614  -31.0837   22.0990 N   0  0  0  0  0  0
  -23.4189  -28.8191   23.3031 O   0  0  0  0  0  0
  -28.3841  -26.7261   20.0761 O   0  0  0  0  0  0
  -26.5589  -34.8923   22.4706 O   0  0  0  0  0  0
  -23.5311  -32.1418   23.7561 O   0  0  0  0  0  0
  -29.6698  -23.9727   20.6653 C   0  0  0  0  0  0
  -27.3199  -23.8260   21.2856 C   0  0  0  0  0  0
  -29.7264  -22.5682   20.5322 C   0  0  0  0  0  0
  -27.3600  -22.4235   21.1333 C   0  0  0  0  0  0
  -28.4760  -24.6010   21.0684 C   0  0  0  0  0  0
  -28.5805  -21.7863   20.8004 C   0  0  0  0  0  0
  -31.0277  -21.9041   20.1236 C   0  0  0  0  0  0
  -26.0873  -21.6193   21.3358 C   0  0  0  0  0  0
  -31.4925  -15.1639   22.8799 C   0  0  0  0  0  0
  -29.6799  -17.4067   21.6994 C   0  0  0  0  0  0
  -28.4940  -18.3301   22.0347 C   0  0  0  0  0  0
  -29.3214  -15.9287   21.9690 C   0  0  0  0  0  0
  -28.8214  -19.8316   22.0479 C   0  0  0  0  0  0
  -28.4437  -25.9796   21.2872 N   0  0  0  0  0  0
  -30.4638  -15.0090   21.8484 N   0  0  0  0  0  0
  -28.6651  -20.4149   20.7558 O   0  0  0  0  0  0
  -31.4598  -12.4126   19.0671 H   0  0  0  0  0  0
  -30.3273  -11.2726   19.7297 H   0  0  0  0  0  0
  -29.7114  -11.8404   17.3752 H   0  0  0  0  0  0
  -29.6427  -13.5380   17.7766 H   0  0  0  0  0  0
  -27.8177  -11.3241   18.7783 H   0  0  0  0  0  0
  -27.3474  -12.6771   17.7843 H   0  0  0  0  0  0
  -27.7270  -14.2498   19.6114 H   0  0  0  0  0  0
  -28.6827  -11.8572   21.2582 H   0  0  0  0  0  0
  -28.4605  -13.4387   21.9047 H   0  0  0  0  0  0
  -25.2759   -9.5669   22.4763 H   0  0  0  0  0  0
  -23.9987   -7.4632   22.7479 H   0  0  0  0  0  0
  -21.0834   -8.8776   19.8957 H   0  0  0  0  0  0
  -22.3698  -10.9672   19.6163 H   0  0  0  0  0  0
  -21.2008   -7.6145   23.9716 H   0  0  0  0  0  0
  -21.1486   -6.0523   25.9079 H   0  0  0  0  0  0
  -22.0599   -2.7607   23.2853 H   0  0  0  0  0  0
  -22.4119  -11.9912   22.4778 H   0  0  0  0  0  0
  -21.1135  -13.1291   22.2583 H   0  0  0  0  0  0
  -24.6715  -15.8421   20.5164 H   0  0  0  0  0  0
  -26.2924  -15.6229   20.0931 H   0  0  0  0  0  0
  -26.7066  -32.5559   23.1164 H   0  0  0  0  0  0
  -25.0029  -33.9791   25.0491 H   0  0  0  0  0  0
  -22.6866  -31.3096   21.4135 H   0  0  0  0  0  0
  -23.3729  -35.9659   23.3326 H   0  0  0  0  0  0
  -24.3566  -36.8911   22.2047 H   0  0  0  0  0  0
  -23.7239  -37.6543   23.6633 H   0  0  0  0  0  0
  -26.0235  -31.6145   20.5851 H   0  0  0  0  0  0
  -26.8128  -30.9085   21.9678 H   0  0  0  0  0  0
  -28.0993  -29.1383   21.1563 H   0  0  0  0  0  0
  -26.0988  -25.9769   19.0276 H   0  0  0  0  0  0
  -23.9836  -27.2827   19.0463 H   0  0  0  0  0  0
  -23.7131  -30.5988   19.4038 H   0  0  0  0  0  0
  -22.7322  -29.2405   19.8681 H   0  0  0  0  0  0
  -25.1273  -36.1994   25.0849 H   0  0  0  0  0  0
  -20.9951  -28.3200   24.1465 H   0  0  0  0  0  0
  -20.5679  -26.2240   23.3605 H   0  0  0  0  0  0
  -21.6629  -26.7436   22.1215 H   0  0  0  0  0  0
  -19.6893  -25.6303   21.1231 H   0  0  0  0  0  0
  -19.6694  -27.3215   20.6769 H   0  0  0  0  0  0
  -17.4194  -26.6681   21.4016 H   0  0  0  0  0  0
  -18.0295  -26.0078   22.9030 H   0  0  0  0  0  0
  -19.7928  -30.7253   24.2292 H   0  0  0  0  0  0
  -17.5013  -31.6266   24.5157 H   0  0  0  0  0  0
  -15.5345  -30.2999   23.7645 H   0  0  0  0  0  0
  -15.8659  -28.0856   22.7013 H   0  0  0  0  0  0
  -24.5919  -30.7054   25.7832 H   0  0  0  0  0  0
  -24.8925  -32.2860   26.4941 H   0  0  0  0  0  0
  -25.8122  -30.8885   27.0227 H   0  0  0  0  0  0
  -26.2798  -29.6844   24.1123 H   0  0  0  0  0  0
  -27.4100  -29.7298   25.4485 H   0  0  0  0  0  0
  -27.8609  -30.4428   23.9151 H   0  0  0  0  0  0
  -27.2674  -33.3619   26.2080 H   0  0  0  0  0  0
  -28.3826  -32.6914   25.0271 H   0  0  0  0  0  0
  -28.0729  -31.8422   26.5354 H   0  0  0  0  0  0
  -28.2615  -38.0091   24.7507 H   0  0  0  0  0  0
  -28.1050  -36.2630   24.6308 H   0  0  0  0  0  0
  -27.2292  -37.1487   25.8873 H   0  0  0  0  0  0
  -20.9287  -29.8773   21.6993 H   0  0  0  0  0  0
  -26.0178  -38.2887   24.1418 H   0  0  0  0  0  0
  -30.5537  -24.5707   20.4917 H   0  0  0  0  0  0
  -26.3950  -24.3059   21.5743 H   0  0  0  0  0  0
  -31.7100  -22.6203   19.6659 H   0  0  0  0  0  0
  -30.8427  -21.1078   19.4015 H   0  0  0  0  0  0
  -31.5210  -21.4673   20.9918 H   0  0  0  0  0  0
  -25.2028  -22.2335   21.1626 H   0  0  0  0  0  0
  -26.0336  -21.2305   22.3526 H   0  0  0  0  0  0
  -26.0457  -20.7783   20.6439 H   0  0  0  0  0  0
  -31.0854  -15.5876   23.7988 H   0  0  0  0  0  0
  -32.2975  -15.8142   22.5344 H   0  0  0  0  0  0
  -31.9266  -14.1948   23.1331 H   0  0  0  0  0  0
  -30.5363  -17.6942   22.3124 H   0  0  0  0  0  0
  -29.9856  -17.5492   20.6621 H   0  0  0  0  0  0
  -28.1466  -18.0718   23.0354 H   0  0  0  0  0  0
  -27.6529  -18.1349   21.3677 H   0  0  0  0  0  0
  -28.5226  -15.6448   21.2850 H   0  0  0  0  0  0
  -28.9029  -15.8191   22.9710 H   0  0  0  0  0  0
  -28.1534  -20.3126   22.7647 H   0  0  0  0  0  0
  -29.8312  -20.0079   22.4194 H   0  0  0  0  0  0
  -27.6375  -26.2699   21.8343 H   0  0  0  0  0  0
  1 25  1  0  0  0
  1 30  2  0  0  0
  1 85  1  0  0  0
  2  3  1  0  0  0
  2 25  1  0  0  0
  2 87  1  0  0  0
  2 88  1  0  0  0
  3  4  1  0  0  0
  3 89  1  0  0  0
  3 90  1  0  0  0
  4  5  1  0  0  0
  4 91  1  0  0  0
  4 92  1  0  0  0
  5  6  1  0  0  0
  5 26  1  0  0  0
  5 93  1  0  0  0
  6 25  1  0  0  0
  6 94  1  0  0  0
  6 95  1  0  0  0
  7  8  2  0  0  0
  7 26  1  0  0  0
  7 29  1  0  0  0
  8  9  1  0  0  0
  8 22  1  0  0  0
  9 10  1  0  0  0
  9 27  2  0  0  0
 10 11  2  0  0  0
 10 15  1  0  0  0
 11 12  1  0  0  0
 11 96  1  0  0  0
 12 13  2  0  0  0
 12 97  1  0  0  0
 13 14  1  0  0  0
 13 31  1  0  0  0
 14 15  2  0  0  0
 14 98  1  0  0  0
 15 99  1  0  0  0
 16 17  2  0  0  0
 16 21  1  0  0  0
 16 31  1  0  0  0
 17 18  1  0  0  0
 17100  1  0  0  0
 18 19  2  0  0  0
 18101  1  0  0  0
 19 20  1  0  0  0
 19 24  1  0  0  0
 20 21  2  0  0  0
 20102  1  0  0  0
 21 23  1  0  0  0
 22 28  1  0  0  0
 22 32  2  0  0  0
 26 27  1  0  0  0
 28103  1  0  0  0
 28104  1  0  0  0
 29105  1  0  0  0
 29106  1  0  0  0
 33 34  1  0  0  0
 33 66  1  0  0  0
 33 70  2  0  0  0
 34 36  1  0  0  0
 34 59  1  0  0  0
 34107  1  0  0  0
 35 44  2  0  0  0
 35 45  1  0  0  0
 35 68  1  0  0  0
 36 56  1  0  0  0
 36108  1  0  0  0
 37 39  1  0  0  0
 37 47  1  0  0  0
 37 66  1  0  0  0
 37109  1  0  0  0
 38 43  2  0  0  0
 38 46  1  0  0  0
 38 47  1  0  0  0
 39 64  1  0  0  0
 39 67  2  0  0  0
 40 52  1  0  0  0
 40 53  2  0  0  0
 40 58  1  0  0  0
 41110  1  0  0  0
 41111  1  0  0  0
 41112  1  0  0  0
 41 48  1  0  0  0
 42 43  1  0  0  0
 42 66  1  0  0  0
 42113  1  0  0  0
 42114  1  0  0  0
 43 44  1  0  0  0
 44115  1  0  0  0
 45 46  2  0  0  0
 45116  1  0  0  0
 46117  1  0  0  0
 47118  1  0  0  0
 47119  1  0  0  0
 48 56  1  0  0  0
 48 65  1  0  0  0
 48120  1  0  0  0
 49 50  1  0  0  0
 49 53  1  0  0  0
 49 64  1  0  0  0
 49121  1  0  0  0
 50 51  1  0  0  0
 50122  1  0  0  0
 50123  1  0  0  0
 51 52  1  0  0  0
 51124  1  0  0  0
 51125  1  0  0  0
 52126  1  0  0  0
 52127  1  0  0  0
 53 54  1  0  0  0
 54 55  2  0  0  0
 54128  1  0  0  0
 55 57  1  0  0  0
 55129  1  0  0  0
 56 69  2  0  0  0
 57 58  2  0  0  0
 57130  1  0  0  0
 58131  1  0  0  0
 59 60  1  0  0  0
 59 61  1  0  0  0
 59 62  1  0  0  0
 60132  1  0  0  0
 60133  1  0  0  0
 60134  1  0  0  0
 61135  1  0  0  0
 61136  1  0  0  0
 61137  1  0  0  0
 62138  1  0  0  0
 62139  1  0  0  0
 62140  1  0  0  0
 63 65  1  0  0  0
 63141  1  0  0  0
 63142  1  0  0  0
 63143  1  0  0  0
 64144  1  0  0  0
 65145  1  0  0  0
 68 84  1  0  0  0
 71 73  2  0  0  0
 71 75  1  0  0  0
 71146  1  0  0  0
 72 74  1  0  0  0
 72 75  2  0  0  0
 72147  1  0  0  0
 73 76  1  0  0  0
 73 77  1  0  0  0
 74 76  2  0  0  0
 74 78  1  0  0  0
 75 84  1  0  0  0
 76 86  1  0  0  0
 77148  1  0  0  0
 77149  1  0  0  0
 77150  1  0  0  0
 78151  1  0  0  0
 78152  1  0  0  0
 78153  1  0  0  0
 79 85  1  0  0  0
 79154  1  0  0  0
 79155  1  0  0  0
 79156  1  0  0  0
 80 81  1  0  0  0
 80 82  1  0  0  0
 80157  1  0  0  0
 80158  1  0  0  0
 81 83  1  0  0  0
 81159  1  0  0  0
 81160  1  0  0  0
 82 85  1  0  0  0
 82161  1  0  0  0
 82162  1  0  0  0
 83 86  1  0  0  0
 83163  1  0  0  0
 83164  1  0  0  0
 84165  1  0  0  0
M  ISO  4   1 100  68 101  84 101  85 100
M  END
> <chiral flag>
0

> <version>
0

> <s_m_source_file>
/data/baiqing/PycharmProjects/Reinvent-master-3.2/result/LINK_invent/BTK/process_docking_weight1_custom_product_contain_oxygen_bond_distance_aromatic_linkinvent_7_9_3/rearranged_h_0007.sdf

> <i_m_source_file_index>
36

> <r_mmod_Potential_Energy-OPLS-2005>
50.0568466186523

> <r_mmod_Stretch_Energy-OPLS-2005>
33.4717826843262

> <r_mmod_Bend_Energy-OPLS-2005>
84.814323425293

> <r_mmod_Torsional_Energy-OPLS-2005>
305.967193603516

> <r_mmod_Improper_Torsional_Energy-OPLS-2005>
13.0045471191406

> <r_mmod_Van_der_Waal_Energy-OPLS-2005>
142.595718383789

> <r_mmod_Electrostatic_Energy-OPLS-2005>
-339.446136474609

> <r_mmod_Solvation_Energy-OPLS-2005>
-197.4033203125

> <b_mmod_Minimization_Converged-OPLS-2005>
0

> <r_mmod_RMS_Derivative-OPLS-2005>
1.67179465293884

$$$$
36
                    3D
 Structure written by MMmdl.
151160  0  0  1  0            999 V2000
  -30.0721  -16.2148   20.2879 C   0  0  0  0  0  0
  -30.3777  -13.5232   19.5336 C   0  0  0  0  0  0
  -29.5718  -12.8193   18.3820 C   0  0  0  0  0  0
  -28.2000  -12.3314   18.8596 C   0  0  0  0  0  0
  -27.5830  -13.3716   19.8103 C   0  0  2  0  0  0
  -28.5590  -13.9405   20.8865 C   0  0  0  0  0  0
  -25.2229  -13.8347   20.5875 C   0  0  0  0  0  0
  -24.1693  -13.0418   20.9334 C   0  0  0  0  0  0
  -24.6497  -11.6966   20.8768 C   0  0  0  0  0  0
  -23.9207  -10.4292   21.0374 C   0  0  0  0  0  0
  -24.3710   -9.4202   21.9169 C   0  0  0  0  0  0
  -23.6344   -8.2258   22.0754 C   0  0  0  0  0  0
  -22.4318   -8.0308   21.3549 C   0  0  0  0  0  0
  -21.9986   -9.0289   20.4640 C   0  0  0  0  0  0
  -22.7360  -10.2143   20.3035 C   0  0  0  0  0  0
  -21.6866   -6.0758   22.5279 C   0  0  0  0  0  0
  -21.4024   -6.5654   23.8212 C   0  0  0  0  0  0
  -21.3656   -5.6799   24.9172 C   0  0  0  0  0  0
  -21.6042   -4.3062   24.7217 C   0  0  0  0  0  0
  -21.8819   -3.8160   23.4336 C   0  0  0  0  0  0
  -21.9199   -4.6983   22.3395 C   0  0  0  0  0  0
  -22.7686  -13.5104   21.1937 C   0  0  0  0  0  0
  -22.1665   -4.2170   21.0972 F   0  0  0  0  0  0
  -21.5623   -3.4540   25.7728 F   0  0  0  0  0  0
  -29.6324  -14.7433   20.1935 N   0  0  0  0  0  0
  -26.2789  -12.9831   20.3348 N   0  0  0  0  0  0
  -25.9476  -11.6825   20.5690 N   0  0  0  0  0  0
  -22.0368  -12.8070   22.0489 N   0  0  0  0  0  0
  -25.3646  -15.2085   20.4273 N   0  0  0  0  0  0
  -31.3228  -16.0752   20.2093 O   0  0  0  0  0  0
  -21.6658   -6.8915   21.4246 O   0  0  0  0  0  0
  -22.3345  -14.5395   20.6764 O   0  0  0  0  0  0
  -24.7197  -31.7546   23.1182 C   0  0  0  0  0  0
  -25.9591  -32.4247   23.7870 C   0  0  1  0  0  0
  -27.2516  -26.3078   20.2523 C   0  0  0  0  0  0
  -25.6016  -33.8089   24.1735 N   0  0  0  0  0  0
  -23.5641  -30.3376   21.4806 C   0  0  2  0  0  0
  -25.0264  -28.5920   20.1325 C   0  0  0  0  0  0
  -22.7925  -29.4077   22.4601 C   0  0  0  0  0  0
  -18.0357  -28.1450   22.8440 C   0  0  0  0  0  0
  -24.1490  -36.7042   23.2666 C   0  0  0  0  0  0
  -26.1585  -30.3583   21.4399 C   0  0  0  0  0  0
  -26.2219  -28.8771   20.8011 C   0  0  0  0  0  0
  -27.2966  -27.7770   20.8158 C   0  0  0  0  0  0
  -26.0162  -26.3337   19.5194 C   0  0  0  0  0  0
  -24.9862  -27.3500   19.4667 C   0  0  0  0  0  0
  -23.8401  -29.5950   20.1351 C   0  0  0  0  0  0
  -25.4157  -36.2764   24.0261 C   0  0  1  0  0  0
  -20.6011  -28.3824   23.1076 C   0  0  2  0  0  0
  -20.6807  -26.9449   22.5414 C   0  0  0  0  0  0
  -19.5787  -26.6367   21.5226 C   0  0  0  0  0  0
  -18.1967  -26.7973   22.1614 C   0  0  0  0  0  0
  -19.1634  -28.8967   23.2728 C   0  0  0  0  0  0
  -18.9538  -30.1539   23.8794 C   0  0  0  0  0  0
  -17.6526  -30.6626   24.0547 C   0  0  0  0  0  0
  -25.9155  -34.9164   23.4862 C   0  0  0  0  0  0
  -16.5409  -29.9105   23.6366 C   0  0  0  0  0  0
  -16.7335  -28.6524   23.0387 C   0  0  0  0  0  0
  -26.4652  -31.6439   25.0644 C   0  0  0  0  0  0
  -25.3616  -31.3858   26.1186 C   0  0  0  0  0  0
  -27.0642  -30.2741   24.6808 C   0  0  0  0  0  0
  -27.6036  -32.4372   25.7484 C   0  0  0  0  0  0
  -27.5533  -37.1690   24.8482 C   0  0  0  0  0  0
  -21.4535  -29.2997   22.3353 N   0  0  0  0  0  0
  -26.4251  -37.3565   23.9400 N   0  0  0  0  0  0
  -24.8425  -30.8598   22.0648 N   0  0  0  0  0  0
  -23.4185  -28.7744   23.3125 O   0  0  0  0  0  0
  -28.1920  -24.9269   20.3148 O   0  0  0  0  0  0
  -26.5839  -34.8823   22.4509 O   0  0  0  0  0  0
  -23.6133  -32.0796   23.5896 O   0  0  0  0  0  0
  -27.0533  -19.1951   19.9845 C   0  0  0  0  0  0
  -26.8104  -20.5494   20.8770 C   0  0  0  0  0  0
  -27.7596  -17.7928   20.4336 C   0  0  0  0  0  0
  -29.1167  -20.5879   21.6147 C   0  0  0  0  0  0
  -29.2357  -21.4061   19.5875 C   0  0  0  0  0  0
  -27.9257  -21.6628   21.2660 C   0  0  1  0  0  0
  -28.2384  -22.9510   20.1976 C   0  0  1  0  0  0
  -29.2380  -17.6898   20.2644 N   0  0  0  0  0  0
  -29.6291  -19.8683   20.3846 N   0  3  2  0  0  0
  -31.3138  -13.8750   19.0986 H   0  0  0  0  0  0
  -30.6902  -12.7955   20.2849 H   0  0  0  0  0  0
  -30.1443  -11.9898   17.9643 H   0  0  0  0  0  0
  -29.4308  -13.5325   17.5691 H   0  0  0  0  0  0
  -28.3376  -11.3913   19.3958 H   0  0  0  0  0  0
  -27.5418  -12.1190   18.0162 H   0  0  0  0  0  0
  -27.3703  -14.2118   19.1471 H   0  0  0  0  0  0
  -28.9481  -13.1571   21.5396 H   0  0  0  0  0  0
  -28.0184  -14.6238   21.5427 H   0  0  0  0  0  0
  -25.2848   -9.5664   22.4757 H   0  0  0  0  0  0
  -24.0029   -7.4654   22.7491 H   0  0  0  0  0  0
  -21.0910   -8.8838   19.8953 H   0  0  0  0  0  0
  -22.3832  -10.9686   19.6141 H   0  0  0  0  0  0
  -21.2019   -7.6163   23.9724 H   0  0  0  0  0  0
  -21.1471   -6.0525   25.9074 H   0  0  0  0  0  0
  -22.0597   -2.7624   23.2827 H   0  0  0  0  0  0
  -22.4028  -11.9759   22.4887 H   0  0  0  0  0  0
  -21.0967  -13.1041   22.2682 H   0  0  0  0  0  0
  -24.5761  -15.8398   20.5203 H   0  0  0  0  0  0
  -26.1883  -15.6501   20.0459 H   0  0  0  0  0  0
  -26.7703  -32.4644   23.0603 H   0  0  0  0  0  0
  -25.0061  -33.9061   24.9825 H   0  0  0  0  0  0
  -22.9114  -31.1833   21.2548 H   0  0  0  0  0  0
  -23.3767  -35.9356   23.3299 H   0  0  0  0  0  0
  -24.3537  -36.8746   22.2086 H   0  0  0  0  0  0
  -23.7245  -37.6201   23.6786 H   0  0  0  0  0  0
  -26.3944  -31.0545   20.6342 H   0  0  0  0  0  0
  -26.9982  -30.4471   22.1161 H   0  0  0  0  0  0
  -28.1883  -28.0228   21.3752 H   0  0  0  0  0  0
  -25.7830  -25.4241   18.9840 H   0  0  0  0  0  0
  -24.0956  -27.1156   18.9003 H   0  0  0  0  0  0
  -24.0442  -30.3358   19.3609 H   0  0  0  0  0  0
  -22.9380  -29.0772   19.8052 H   0  0  0  0  0  0
  -25.1397  -36.1471   25.0751 H   0  0  0  0  0  0
  -21.0078  -28.3476   24.1207 H   0  0  0  0  0  0
  -20.5637  -26.2459   23.3711 H   0  0  0  0  0  0
  -21.6668  -26.7340   22.1255 H   0  0  0  0  0  0
  -19.6944  -25.6250   21.1325 H   0  0  0  0  0  0
  -19.6754  -27.3125   20.6716 H   0  0  0  0  0  0
  -17.4245  -26.6718   21.4008 H   0  0  0  0  0  0
  -18.0338  -26.0149   22.9035 H   0  0  0  0  0  0
  -19.8017  -30.7376   24.2123 H   0  0  0  0  0  0
  -17.5085  -31.6302   24.5162 H   0  0  0  0  0  0
  -15.5410  -30.2984   23.7762 H   0  0  0  0  0  0
  -15.8726  -28.0813   22.7179 H   0  0  0  0  0  0
  -24.5861  -30.7148   25.7474 H   0  0  0  0  0  0
  -24.8740  -32.3112   26.4264 H   0  0  0  0  0  0
  -25.7712  -30.9249   27.0180 H   0  0  0  0  0  0
  -26.3431  -29.6237   24.1858 H   0  0  0  0  0  0
  -27.3987  -29.7340   25.5672 H   0  0  0  0  0  0
  -27.9438  -30.3793   24.0454 H   0  0  0  0  0  0
  -27.2548  -33.3791   26.1725 H   0  0  0  0  0  0
  -28.4033  -32.6733   25.0449 H   0  0  0  0  0  0
  -28.0499  -31.8714   26.5674 H   0  0  0  0  0  0
  -28.2553  -37.9975   24.7468 H   0  0  0  0  0  0
  -28.1020  -36.2493   24.6398 H   0  0  0  0  0  0
  -27.2236  -37.1433   25.8882 H   0  0  0  0  0  0
  -20.9918  -29.8570   21.6302 H   0  0  0  0  0  0
  -26.0041  -38.2598   24.1392 H   0  0  0  0  0  0
  -27.4096  -19.4640   18.9904 H   0  0  0  0  0  0
  -26.0312  -18.8786   19.7694 H   0  0  0  0  0  0
  -26.3858  -20.1990   21.8192 H   0  0  0  0  0  0
  -25.9874  -21.0937   20.4119 H   0  0  0  0  0  0
  -27.3398  -16.9981   19.8185 H   0  0  0  0  0  0
  -27.4970  -17.5529   21.4645 H   0  0  0  0  0  0
  -28.8015  -19.8590   22.3617 H   0  0  0  0  0  0
  -29.9535  -21.1223   22.0670 H   0  0  0  0  0  0
  -30.2258  -21.8169   19.3870 H   0  0  0  0  0  0
  -28.8825  -21.1616   18.5863 H   0  0  0  0  0  0
  -27.6038  -22.1310   22.1964 H   0  0  0  0  0  0
  -27.3779  -22.9134   19.5306 H   0  0  0  0  0  0
  -30.6349  -19.9003   20.4707 H   0  0  0  0  0  0
  1 25  1  0  0  0
  1 30  2  0  0  0
  1 78  1  0  0  0
  2  3  1  0  0  0
  2 25  1  0  0  0
  2 80  1  0  0  0
  2 81  1  0  0  0
  3  4  1  0  0  0
  3 82  1  0  0  0
  3 83  1  0  0  0
  4  5  1  0  0  0
  4 84  1  0  0  0
  4 85  1  0  0  0
  5  6  1  0  0  0
  5 26  1  0  0  0
  5 86  1  0  0  0
  6 25  1  0  0  0
  6 87  1  0  0  0
  6 88  1  0  0  0
  7  8  2  0  0  0
  7 26  1  0  0  0
  7 29  1  0  0  0
  8  9  1  0  0  0
  8 22  1  0  0  0
  9 10  1  0  0  0
  9 27  2  0  0  0
 10 11  2  0  0  0
 10 15  1  0  0  0
 11 12  1  0  0  0
 11 89  1  0  0  0
 12 13  2  0  0  0
 12 90  1  0  0  0
 13 14  1  0  0  0
 13 31  1  0  0  0
 14 15  2  0  0  0
 14 91  1  0  0  0
 15 92  1  0  0  0
 16 17  2  0  0  0
 16 21  1  0  0  0
 16 31  1  0  0  0
 17 18  1  0  0  0
 17 93  1  0  0  0
 18 19  2  0  0  0
 18 94  1  0  0  0
 19 20  1  0  0  0
 19 24  1  0  0  0
 20 21  2  0  0  0
 20 95  1  0  0  0
 21 23  1  0  0  0
 22 28  1  0  0  0
 22 32  2  0  0  0
 26 27  1  0  0  0
 28 96  1  0  0  0
 28 97  1  0  0  0
 29 98  1  0  0  0
 29 99  1  0  0  0
 33 34  1  0  0  0
 33 66  1  0  0  0
 33 70  2  0  0  0
 34 36  1  0  0  0
 34 59  1  0  0  0
 34100  1  0  0  0
 35 44  2  0  0  0
 35 45  1  0  0  0
 35 68  1  0  0  0
 36 56  1  0  0  0
 36101  1  0  0  0
 37 39  1  0  0  0
 37 47  1  0  0  0
 37 66  1  0  0  0
 37102  1  0  0  0
 38 43  2  0  0  0
 38 46  1  0  0  0
 38 47  1  0  0  0
 39 64  1  0  0  0
 39 67  2  0  0  0
 40 52  1  0  0  0
 40 53  2  0  0  0
 40 58  1  0  0  0
 41103  1  0  0  0
 41104  1  0  0  0
 41105  1  0  0  0
 41 48  1  0  0  0
 42 43  1  0  0  0
 42 66  1  0  0  0
 42106  1  0  0  0
 42107  1  0  0  0
 43 44  1  0  0  0
 44108  1  0  0  0
 45 46  2  0  0  0
 45109  1  0  0  0
 46110  1  0  0  0
 47111  1  0  0  0
 47112  1  0  0  0
 48 56  1  0  0  0
 48 65  1  0  0  0
 48113  1  0  0  0
 49 50  1  0  0  0
 49 53  1  0  0  0
 49 64  1  0  0  0
 49114  1  0  0  0
 50 51  1  0  0  0
 50115  1  0  0  0
 50116  1  0  0  0
 51 52  1  0  0  0
 51117  1  0  0  0
 51118  1  0  0  0
 52119  1  0  0  0
 52120  1  0  0  0
 53 54  1  0  0  0
 54 55  2  0  0  0
 54121  1  0  0  0
 55 57  1  0  0  0
 55122  1  0  0  0
 56 69  2  0  0  0
 57 58  2  0  0  0
 57123  1  0  0  0
 58124  1  0  0  0
 59 60  1  0  0  0
 59 61  1  0  0  0
 59 62  1  0  0  0
 60125  1  0  0  0
 60126  1  0  0  0
 60127  1  0  0  0
 61128  1  0  0  0
 61129  1  0  0  0
 61130  1  0  0  0
 62131  1  0  0  0
 62132  1  0  0  0
 62133  1  0  0  0
 63 65  1  0  0  0
 63134  1  0  0  0
 63135  1  0  0  0
 63136  1  0  0  0
 64137  1  0  0  0
 65138  1  0  0  0
 68 77  1  0  0  0
 71 72  1  0  0  0
 71 73  1  0  0  0
 71139  1  0  0  0
 71140  1  0  0  0
 72141  1  0  0  0
 72142  1  0  0  0
 72 76  1  0  0  0
 73 78  1  0  0  0
 73143  1  0  0  0
 73144  1  0  0  0
 74 76  1  0  0  0
 74 79  1  0  0  0
 74145  1  0  0  0
 74146  1  0  0  0
 75 77  1  0  0  0
 75147  1  0  0  0
 75148  1  0  0  0
 75 79  1  0  0  0
 76 77  1  0  0  0
 76149  1  0  0  0
 77150  1  0  0  0
 78 79  1  0  0  0
 79151  1  0  0  0
M  CHG  1  79   1
M  ISO  4   1 100  68 101  77 101  78 100
M  END
> <chiral flag>
0

> <version>
0

> <s_m_source_file>
/data/baiqing/PycharmProjects/Reinvent-master-3.2/result/LINK_invent/BTK/process_docking_weight1_custom_product_contain_oxygen_bond_distance_aromatic_linkinvent_7_9_3/rearranged_h_0007.sdf

> <i_m_source_file_index>
37

> <r_mmod_Potential_Energy-OPLS-2005>
5055.61865234375

> <r_mmod_Stretch_Energy-OPLS-2005>
2040.83215332031

> <r_mmod_Bend_Energy-OPLS-2005>
1243.57458496094

> <r_mmod_Torsional_Energy-OPLS-2005>
346.428375244141

> <r_mmod_Improper_Torsional_Energy-OPLS-2005>
5.71938753128052

> <r_mmod_Van_der_Waal_Energy-OPLS-2005>
125.852584838867

> <r_mmod_Electrostatic_Energy-OPLS-2005>
-224.434982299805

> <r_mmod_Solvation_Energy-OPLS-2005>
-442.897033691406

> <b_mmod_Minimization_Converged-OPLS-2005>
0

> <r_mmod_RMS_Derivative-OPLS-2005>
1.1421332359314

$$$$
37
                    3D
 Structure written by MMmdl.
158167  0  0  1  0            999 V2000
  -30.6017  -14.6756   20.4856 C   0  0  0  0  0  0
  -30.4420  -12.4111   19.4585 C   0  0  0  0  0  0
  -29.5105  -12.5100   18.2285 C   0  0  0  0  0  0
  -28.0334  -12.3420   18.6391 C   0  0  0  0  0  0
  -27.6520  -13.2178   19.8622 C   0  0  2  0  0  0
  -28.6970  -13.0853   20.9930 C   0  0  0  0  0  0
  -25.2559  -13.8168   20.5682 C   0  0  0  0  0  0
  -24.1830  -13.0435   20.9202 C   0  0  0  0  0  0
  -24.6403  -11.6905   20.8752 C   0  0  0  0  0  0
  -23.9067  -10.4288   21.0414 C   0  0  0  0  0  0
  -24.3617   -9.4201   21.9186 C   0  0  0  0  0  0
  -23.6295   -8.2236   22.0751 C   0  0  0  0  0  0
  -22.4275   -8.0277   21.3547 C   0  0  0  0  0  0
  -21.9912   -9.0249   20.4644 C   0  0  0  0  0  0
  -22.7240  -10.2134   20.3059 C   0  0  0  0  0  0
  -21.6851   -6.0739   22.5281 C   0  0  0  0  0  0
  -21.4010   -6.5641   23.8215 C   0  0  0  0  0  0
  -21.3661   -5.6793   24.9174 C   0  0  0  0  0  0
  -21.6043   -4.3057   24.7221 C   0  0  0  0  0  0
  -21.8819   -3.8150   23.4342 C   0  0  0  0  0  0
  -21.9192   -4.6968   22.3402 C   0  0  0  0  0  0
  -22.7850  -13.5230   21.1858 C   0  0  0  0  0  0
  -22.1662   -4.2154   21.0981 F   0  0  0  0  0  0
  -21.5629   -3.4542   25.7736 F   0  0  0  0  0  0
  -30.0089  -13.4380   20.4287 N   0  0  0  0  0  0
  -26.2987  -12.9353   20.3317 N   0  0  0  0  0  0
  -25.9332  -11.6508   20.5764 N   0  0  0  0  0  0
  -22.0496  -12.8222   22.0416 N   0  0  0  0  0  0
  -25.4258  -15.1882   20.4045 N   0  0  0  0  0  0
  -31.7706  -14.8347   20.1202 O   0  0  0  0  0  0
  -21.6640   -6.8877   21.4241 O   0  0  0  0  0  0
  -22.3540  -14.5539   20.6708 O   0  0  0  0  0  0
  -24.6267  -31.8580   23.2017 C   0  0  0  0  0  0
  -25.9110  -32.4768   23.8343 C   0  0  1  0  0  0
  -27.2234  -27.3079   20.1256 C   0  0  0  0  0  0
  -25.5921  -33.8570   24.2270 N   0  0  0  0  0  0
  -23.4216  -30.4816   21.5435 C   0  0  2  0  0  0
  -24.8692  -28.9331   20.1109 C   0  0  0  0  0  0
  -22.7474  -29.4619   22.4926 C   0  0  0  0  0  0
  -18.0284  -28.1383   22.8485 C   0  0  0  0  0  0
  -24.1489  -36.7285   23.2634 C   0  0  0  0  0  0
  -25.9638  -30.7857   21.3754 C   0  0  0  0  0  0
  -26.0381  -29.4122   20.7169 C   0  0  0  0  0  0
  -27.2200  -28.6120   20.7122 C   0  0  0  0  0  0
  -26.0369  -26.8864   19.4870 C   0  0  0  0  0  0
  -24.8713  -27.6762   19.4852 C   0  0  0  0  0  0
  -23.6372  -29.8148   20.1590 C   0  0  0  0  0  0
  -25.4107  -36.3074   24.0331 C   0  0  1  0  0  0
  -20.5887  -28.3685   23.1281 C   0  0  2  0  0  0
  -20.6778  -26.9406   22.5409 C   0  0  0  0  0  0
  -19.5755  -26.6380   21.5216 C   0  0  0  0  0  0
  -18.1931  -26.7925   22.1621 C   0  0  0  0  0  0
  -19.1539  -28.8848   23.2881 C   0  0  0  0  0  0
  -18.9465  -30.1449   23.8895 C   0  0  0  0  0  0
  -17.6467  -30.6586   24.0566 C   0  0  0  0  0  0
  -25.9048  -34.9447   23.5106 C   0  0  0  0  0  0
  -16.5355  -29.9086   23.6334 C   0  0  0  0  0  0
  -16.7271  -28.6505   23.0351 C   0  0  0  0  0  0
  -26.4489  -31.6590   25.0723 C   0  0  0  0  0  0
  -25.3719  -31.3735   26.1449 C   0  0  0  0  0  0
  -27.0337  -30.3012   24.6183 C   0  0  0  0  0  0
  -27.6046  -32.4329   25.7495 C   0  0  0  0  0  0
  -27.5596  -37.1763   24.8437 C   0  0  0  0  0  0
  -21.4186  -29.3043   22.3673 N   0  0  0  0  0  0
  -26.4267  -37.3790   23.9445 N   0  0  0  0  0  0
  -24.6894  -31.0578   22.0971 N   0  0  0  0  0  0
  -23.4195  -28.8155   23.3008 O   0  0  0  0  0  0
  -28.3310  -26.4460   20.1549 O   0  0  0  0  0  0
  -26.5627  -34.8925   22.4679 O   0  0  0  0  0  0
  -23.5430  -32.1381   23.7335 O   0  0  0  0  0  0
  -30.9405  -19.3397   20.0593 C   0  0  0  0  0  0
  -30.9917  -17.9295   20.2884 C   0  0  0  0  0  0
  -28.6226  -17.9454   20.6507 C   0  0  0  0  0  0
  -29.7366  -20.1037   20.0941 C   0  0  0  0  0  0
  -28.5631  -19.3572   20.4016 C   0  0  0  0  0  0
  -29.8229  -17.1789   20.5765 C   0  0  0  0  0  0
  -28.6082  -23.9086   19.5737 C   0  0  0  0  0  0
  -28.8237  -24.5796   21.8190 C   0  0  0  0  0  0
  -29.0829  -23.0543   21.6595 C   0  0  0  0  0  0
  -28.0957  -25.0229   20.5419 C   0  0  1  0  0  0
  -27.2074  -20.0398   20.4150 C   0  0  0  0  0  0
  -29.7728  -21.6131   19.6024 C   0  0  0  0  0  0
  -29.0427  -22.7833   20.2250 N   0  0  0  0  0  0
  -29.7678  -15.7242   20.8013 N   0  0  0  0  0  0
  -28.6113  -24.0592   18.3482 O   0  0  0  0  0  0
  -31.4824  -12.5437   19.1559 H   0  0  0  0  0  0
  -30.3861  -11.4182   19.9068 H   0  0  0  0  0  0
  -29.7798  -11.7546   17.4892 H   0  0  0  0  0  0
  -29.6468  -13.4767   17.7408 H   0  0  0  0  0  0
  -27.8743  -11.2897   18.8763 H   0  0  0  0  0  0
  -27.3779  -12.5652   17.7961 H   0  0  0  0  0  0
  -27.6652  -14.2505   19.5139 H   0  0  0  0  0  0
  -28.7161  -12.0657   21.3804 H   0  0  0  0  0  0
  -28.4386  -13.7205   21.8417 H   0  0  0  0  0  0
  -25.2762   -9.5682   22.4764 H   0  0  0  0  0  0
  -24.0004   -7.4627   22.7471 H   0  0  0  0  0  0
  -21.0843   -8.8767   19.8949 H   0  0  0  0  0  0
  -22.3693  -10.9675   19.6170 H   0  0  0  0  0  0
  -21.2001   -7.6149   23.9719 H   0  0  0  0  0  0
  -21.1485   -6.0524   25.9077 H   0  0  0  0  0  0
  -22.0599   -2.7613   23.2841 H   0  0  0  0  0  0
  -22.4109  -11.9878   22.4797 H   0  0  0  0  0  0
  -21.1111  -13.1244   22.2623 H   0  0  0  0  0  0
  -24.6487  -15.8343   20.4894 H   0  0  0  0  0  0
  -26.2525  -15.6146   20.0075 H   0  0  0  0  0  0
  -26.7173  -32.5435   23.1088 H   0  0  0  0  0  0
  -25.0063  -33.9717   25.0410 H   0  0  0  0  0  0
  -22.7168  -31.3029   21.3986 H   0  0  0  0  0  0
  -23.3773  -35.9589   23.3231 H   0  0  0  0  0  0
  -24.3601  -36.8973   22.2064 H   0  0  0  0  0  0
  -23.7200  -37.6452   23.6690 H   0  0  0  0  0  0
  -26.0980  -31.5487   20.6072 H   0  0  0  0  0  0
  -26.8436  -30.8328   22.0055 H   0  0  0  0  0  0
  -28.1172  -28.9728   21.1950 H   0  0  0  0  0  0
  -26.0010  -25.9267   18.9914 H   0  0  0  0  0  0
  -23.9779  -27.3058   19.0025 H   0  0  0  0  0  0
  -23.7564  -30.5910   19.4025 H   0  0  0  0  0  0
  -22.7568  -29.2448   19.8562 H   0  0  0  0  0  0
  -25.1276  -36.1907   25.0818 H   0  0  0  0  0  0
  -20.9985  -28.3255   24.1400 H   0  0  0  0  0  0
  -20.5685  -26.2291   23.3609 H   0  0  0  0  0  0
  -21.6644  -26.7435   22.1195 H   0  0  0  0  0  0
  -19.6926  -25.6296   21.1233 H   0  0  0  0  0  0
  -19.6697  -27.3197   20.6759 H   0  0  0  0  0  0
  -17.4203  -26.6668   21.4018 H   0  0  0  0  0  0
  -18.0327  -26.0067   22.9019 H   0  0  0  0  0  0
  -19.7945  -30.7269   24.2254 H   0  0  0  0  0  0
  -17.5024  -31.6268   24.5164 H   0  0  0  0  0  0
  -15.5355  -30.2997   23.7667 H   0  0  0  0  0  0
  -15.8664  -28.0834   22.7069 H   0  0  0  0  0  0
  -24.5889  -30.7093   25.7777 H   0  0  0  0  0  0
  -24.8920  -32.2910   26.4863 H   0  0  0  0  0  0
  -25.8037  -30.8913   27.0230 H   0  0  0  0  0  0
  -26.2921  -29.6762   24.1192 H   0  0  0  0  0  0
  -27.4029  -29.7261   25.4687 H   0  0  0  0  0  0
  -27.8788  -30.4302   23.9419 H   0  0  0  0  0  0
  -27.2638  -33.3615   26.2082 H   0  0  0  0  0  0
  -28.3842  -32.6913   25.0319 H   0  0  0  0  0  0
  -28.0724  -31.8456   26.5403 H   0  0  0  0  0  0
  -28.2501  -38.0173   24.7653 H   0  0  0  0  0  0
  -28.1209  -36.2717   24.6035 H   0  0  0  0  0  0
  -27.2349  -37.1131   25.8841 H   0  0  0  0  0  0
  -20.9355  -29.8763   21.6885 H   0  0  0  0  0  0
  -26.0140  -38.2837   24.1558 H   0  0  0  0  0  0
  -31.8659  -19.8379   19.8045 H   0  0  0  0  0  0
  -31.9481  -17.4309   20.2213 H   0  0  0  0  0  0
  -27.6987  -17.4290   20.8701 H   0  0  0  0  0  0
  -29.7732  -25.1092   21.9024 H   0  0  0  0  0  0
  -28.2470  -24.8018   22.7174 H   0  0  0  0  0  0
  -28.3017  -22.4767   22.1537 H   0  0  0  0  0  0
  -30.0397  -22.7615   22.0945 H   0  0  0  0  0  0
  -27.0341  -24.8258   20.6935 H   0  0  0  0  0  0
  -26.3984  -19.3129   20.3373 H   0  0  0  0  0  0
  -27.1051  -20.7281   19.5760 H   0  0  0  0  0  0
  -27.0681  -20.5994   21.3394 H   0  0  0  0  0  0
  -29.4746  -21.5718   18.5542 H   0  0  0  0  0  0
  -30.8199  -21.9168   19.5710 H   0  0  0  0  0  0
  -28.8651  -15.3936   21.1051 H   0  0  0  0  0  0
  1 25  1  0  0  0
  1 30  2  0  0  0
  1 84  1  0  0  0
  2  3  1  0  0  0
  2 25  1  0  0  0
  2 86  1  0  0  0
  2 87  1  0  0  0
  3  4  1  0  0  0
  3 88  1  0  0  0
  3 89  1  0  0  0
  4  5  1  0  0  0
  4 90  1  0  0  0
  4 91  1  0  0  0
  5  6  1  0  0  0
  5 26  1  0  0  0
  5 92  1  0  0  0
  6 25  1  0  0  0
  6 93  1  0  0  0
  6 94  1  0  0  0
  7  8  2  0  0  0
  7 26  1  0  0  0
  7 29  1  0  0  0
  8  9  1  0  0  0
  8 22  1  0  0  0
  9 10  1  0  0  0
  9 27  2  0  0  0
 10 11  2  0  0  0
 10 15  1  0  0  0
 11 12  1  0  0  0
 11 95  1  0  0  0
 12 13  2  0  0  0
 12 96  1  0  0  0
 13 14  1  0  0  0
 13 31  1  0  0  0
 14 15  2  0  0  0
 14 97  1  0  0  0
 15 98  1  0  0  0
 16 17  2  0  0  0
 16 21  1  0  0  0
 16 31  1  0  0  0
 17 18  1  0  0  0
 17 99  1  0  0  0
 18 19  2  0  0  0
 18100  1  0  0  0
 19 20  1  0  0  0
 19 24  1  0  0  0
 20 21  2  0  0  0
 20101  1  0  0  0
 21 23  1  0  0  0
 22 28  1  0  0  0
 22 32  2  0  0  0
 26 27  1  0  0  0
 28102  1  0  0  0
 28103  1  0  0  0
 29104  1  0  0  0
 29105  1  0  0  0
 33 34  1  0  0  0
 33 66  1  0  0  0
 33 70  2  0  0  0
 34 36  1  0  0  0
 34 59  1  0  0  0
 34106  1  0  0  0
 35 44  2  0  0  0
 35 45  1  0  0  0
 35 68  1  0  0  0
 36 56  1  0  0  0
 36107  1  0  0  0
 37 39  1  0  0  0
 37 47  1  0  0  0
 37 66  1  0  0  0
 37108  1  0  0  0
 38 43  2  0  0  0
 38 46  1  0  0  0
 38 47  1  0  0  0
 39 64  1  0  0  0
 39 67  2  0  0  0
 40 52  1  0  0  0
 40 53  2  0  0  0
 40 58  1  0  0  0
 41109  1  0  0  0
 41110  1  0  0  0
 41111  1  0  0  0
 41 48  1  0  0  0
 42 43  1  0  0  0
 42 66  1  0  0  0
 42112  1  0  0  0
 42113  1  0  0  0
 43 44  1  0  0  0
 44114  1  0  0  0
 45 46  2  0  0  0
 45115  1  0  0  0
 46116  1  0  0  0
 47117  1  0  0  0
 47118  1  0  0  0
 48 56  1  0  0  0
 48 65  1  0  0  0
 48119  1  0  0  0
 49 50  1  0  0  0
 49 53  1  0  0  0
 49 64  1  0  0  0
 49120  1  0  0  0
 50 51  1  0  0  0
 50121  1  0  0  0
 50122  1  0  0  0
 51 52  1  0  0  0
 51123  1  0  0  0
 51124  1  0  0  0
 52125  1  0  0  0
 52126  1  0  0  0
 53 54  1  0  0  0
 54 55  2  0  0  0
 54127  1  0  0  0
 55 57  1  0  0  0
 55128  1  0  0  0
 56 69  2  0  0  0
 57 58  2  0  0  0
 57129  1  0  0  0
 58130  1  0  0  0
 59 60  1  0  0  0
 59 61  1  0  0  0
 59 62  1  0  0  0
 60131  1  0  0  0
 60132  1  0  0  0
 60133  1  0  0  0
 61134  1  0  0  0
 61135  1  0  0  0
 61136  1  0  0  0
 62137  1  0  0  0
 62138  1  0  0  0
 62139  1  0  0  0
 63 65  1  0  0  0
 63140  1  0  0  0
 63141  1  0  0  0
 63142  1  0  0  0
 64143  1  0  0  0
 65144  1  0  0  0
 68 80  1  0  0  0
 71 72  2  0  0  0
 71 74  1  0  0  0
 71145  1  0  0  0
 72 76  1  0  0  0
 72146  1  0  0  0
 73 75  1  0  0  0
 73 76  2  0  0  0
 73147  1  0  0  0
 74 75  2  0  0  0
 74 82  1  0  0  0
 75 81  1  0  0  0
 76 84  1  0  0  0
 77 80  1  0  0  0
 77 83  1  0  0  0
 77 85  2  0  0  0
 78 79  1  0  0  0
 78 80  1  0  0  0
 78148  1  0  0  0
 78149  1  0  0  0
 79 83  1  0  0  0
 79150  1  0  0  0
 79151  1  0  0  0
 80152  1  0  0  0
 81153  1  0  0  0
 81154  1  0  0  0
 81155  1  0  0  0
 82 83  1  0  0  0
 82156  1  0  0  0
 82157  1  0  0  0
 84158  1  0  0  0
M  ISO  4   1 100  68 101  80 101  84 100
M  END
> <chiral flag>
0

> <version>
0

> <s_m_source_file>
/data/baiqing/PycharmProjects/Reinvent-master-3.2/result/LINK_invent/BTK/process_docking_weight1_custom_product_contain_oxygen_bond_distance_aromatic_linkinvent_7_9_3/rearranged_h_0007.sdf

> <i_m_source_file_index>
38

> <r_mmod_Potential_Energy-OPLS-2005>
141.611526489258

> <r_mmod_Stretch_Energy-OPLS-2005>
86.5821380615234

> <r_mmod_Bend_Energy-OPLS-2005>
183.970840454102

> <r_mmod_Torsional_Energy-OPLS-2005>
257.399993896484

> <r_mmod_Improper_Torsional_Energy-OPLS-2005>
6.40034914016724

> <r_mmod_Van_der_Waal_Energy-OPLS-2005>
130.965438842773

> <r_mmod_Electrostatic_Energy-OPLS-2005>
-353.833984375

> <r_mmod_Solvation_Energy-OPLS-2005>
-227.386978149414

> <b_mmod_Minimization_Converged-OPLS-2005>
0

> <r_mmod_RMS_Derivative-OPLS-2005>
1.07799279689789

$$$$
38
                    3D
 Structure written by MMmdl.
169178  0  0  1  0            999 V2000
  -30.6339  -14.7269   20.4468 C   0  0  0  0  0  0
  -30.4121  -12.4359   19.4898 C   0  0  0  0  0  0
  -29.5065  -12.4901   18.2412 C   0  0  0  0  0  0
  -28.0307  -12.3204   18.6474 C   0  0  0  0  0  0
  -27.6291  -13.2331   19.8372 C   0  0  2  0  0  0
  -28.6644  -13.1924   20.9787 C   0  0  0  0  0  0
  -25.2459  -13.8215   20.5643 C   0  0  0  0  0  0
  -24.1756  -13.0440   20.9177 C   0  0  0  0  0  0
  -24.6342  -11.6932   20.8725 C   0  0  0  0  0  0
  -23.9034  -10.4291   21.0392 C   0  0  0  0  0  0
  -24.3615   -9.4216   21.9159 C   0  0  0  0  0  0
  -23.6295   -8.2238   22.0732 C   0  0  0  0  0  0
  -22.4264   -8.0273   21.3527 C   0  0  0  0  0  0
  -21.9896   -9.0238   20.4620 C   0  0  0  0  0  0
  -22.7222  -10.2124   20.3037 C   0  0  0  0  0  0
  -21.6874   -6.0742   22.5271 C   0  0  0  0  0  0
  -21.4014   -6.5623   23.8209 C   0  0  0  0  0  0
  -21.3675   -5.6764   24.9159 C   0  0  0  0  0  0
  -21.6069   -4.3035   24.7198 C   0  0  0  0  0  0
  -21.8830   -3.8138   23.4311 C   0  0  0  0  0  0
  -21.9185   -4.6962   22.3377 C   0  0  0  0  0  0
  -22.7781  -13.5205   21.1842 C   0  0  0  0  0  0
  -22.1660   -4.2151   21.0960 F   0  0  0  0  0  0
  -21.5632   -3.4522   25.7708 F   0  0  0  0  0  0
  -29.9727  -13.5191   20.4011 N   0  0  0  0  0  0
  -26.2842  -12.9391   20.3184 N   0  0  0  0  0  0
  -25.9255  -11.6546   20.5694 N   0  0  0  0  0  0
  -22.0426  -12.8213   22.0445 N   0  0  0  0  0  0
  -25.4163  -15.1940   20.4081 N   0  0  0  0  0  0
  -31.8374  -14.7378   20.1893 O   0  0  0  0  0  0
  -21.6654   -6.8878   21.4223 O   0  0  0  0  0  0
  -22.3445  -14.5497   20.6689 O   0  0  0  0  0  0
  -24.6307  -31.8576   23.1991 C   0  0  0  0  0  0
  -25.9155  -32.4772   23.8300 C   0  0  1  0  0  0
  -27.1999  -27.2776   20.1369 C   0  0  0  0  0  0
  -25.5968  -33.8571   24.2220 N   0  0  0  0  0  0
  -23.4232  -30.4900   21.5344 C   0  0  2  0  0  0
  -24.8717  -28.9536   20.0899 C   0  0  0  0  0  0
  -22.7470  -29.4653   22.4783 C   0  0  0  0  0  0
  -18.0313  -28.1409   22.8473 C   0  0  0  0  0  0
  -24.1507  -36.7302   23.2618 C   0  0  0  0  0  0
  -25.9686  -30.7825   21.3776 C   0  0  0  0  0  0
  -26.0409  -29.4105   20.7102 C   0  0  0  0  0  0
  -27.2100  -28.5868   20.7216 C   0  0  0  0  0  0
  -26.0133  -26.8944   19.4720 C   0  0  0  0  0  0
  -24.8635  -27.7035   19.4559 C   0  0  0  0  0  0
  -23.6401  -29.8353   20.1437 C   0  0  0  0  0  0
  -25.4131  -36.3055   24.0288 C   0  0  1  0  0  0
  -20.5921  -28.3726   23.1220 C   0  0  2  0  0  0
  -20.6819  -26.9432   22.5377 C   0  0  0  0  0  0
  -19.5777  -26.6382   21.5209 C   0  0  0  0  0  0
  -18.1950  -26.7955   22.1613 C   0  0  0  0  0  0
  -19.1568  -28.8878   23.2866 C   0  0  0  0  0  0
  -18.9488  -30.1482   23.8880 C   0  0  0  0  0  0
  -17.6484  -30.6599   24.0587 C   0  0  0  0  0  0
  -25.9068  -34.9443   23.5043 C   0  0  0  0  0  0
  -16.5384  -29.9093   23.6350 C   0  0  0  0  0  0
  -16.7296  -28.6527   23.0339 C   0  0  0  0  0  0
  -26.4528  -31.6605   25.0687 C   0  0  0  0  0  0
  -25.3724  -31.3836   26.1396 C   0  0  0  0  0  0
  -27.0365  -30.2987   24.6217 C   0  0  0  0  0  0
  -27.6062  -32.4370   25.7477 C   0  0  0  0  0  0
  -27.5576  -37.1792   24.8444 C   0  0  0  0  0  0
  -21.4181  -29.3095   22.3575 N   0  0  0  0  0  0
  -26.4302  -37.3747   23.9370 N   0  0  0  0  0  0
  -24.6915  -31.0566   22.0961 N   0  0  0  0  0  0
  -23.4186  -28.8150   23.2841 O   0  0  0  0  0  0
  -28.2629  -26.3540   20.2440 O   0  0  0  0  0  0
  -26.5590  -34.8931   22.4586 O   0  0  0  0  0  0
  -23.5466  -32.1399   23.7303 O   0  0  0  0  0  0
  -30.7706  -20.1670   22.4999 C   0  0  0  0  0  0
  -29.9557  -21.2278   22.0639 C   0  0  0  0  0  0
  -29.0543  -19.7743   20.3336 C   0  0  0  0  0  0
  -30.8131  -18.9464   21.7920 C   0  0  0  0  0  0
  -29.8854  -18.6625   20.7704 C   0  0  0  0  0  0
  -29.1354  -21.1034   20.9188 C   0  0  0  0  0  0
  -32.0305  -18.0735   21.9176 C   0  0  0  0  0  0
  -31.6677  -17.5191   19.5467 C   0  0  0  0  0  0
  -30.1752  -17.3292   19.9600 C   0  0  2  0  0  0
  -34.9935  -17.7845   21.5742 C   0  0  0  0  0  0
  -34.5279  -16.9935   19.2829 C   0  0  0  0  0  0
  -34.2011  -19.4193   19.8576 C   0  0  0  0  0  0
  -28.8601  -23.7157   20.7230 C   0  0  0  0  0  0
  -27.9271  -24.8912   20.1394 C   0  0  0  0  0  0
  -34.0311  -17.9698   20.3736 C   0  0  0  0  0  0
  -32.5832  -17.7523   20.7091 N   0  0  0  0  0  0
  -28.4679  -22.2814   20.4125 N   0  0  0  0  0  0
  -29.8983  -15.9108   20.5205 N   0  0  0  0  0  0
  -32.5340  -17.8757   23.0274 O   0  0  0  0  0  0
  -31.4627  -12.5280   19.2033 H   0  0  0  0  0  0
  -30.3179  -11.4646   19.9791 H   0  0  0  0  0  0
  -29.7888  -11.7072   17.5345 H   0  0  0  0  0  0
  -29.6484  -13.4446   17.7285 H   0  0  0  0  0  0
  -27.8844  -11.2739   18.9158 H   0  0  0  0  0  0
  -27.3824  -12.5064   17.7901 H   0  0  0  0  0  0
  -27.6150  -14.2475   19.4391 H   0  0  0  0  0  0
  -28.6786  -12.2080   21.4490 H   0  0  0  0  0  0
  -28.3954  -13.9041   21.7582 H   0  0  0  0  0  0
  -25.2770   -9.5702   22.4714 H   0  0  0  0  0  0
  -24.0033   -7.4624   22.7439 H   0  0  0  0  0  0
  -21.0844   -8.8751   19.8906 H   0  0  0  0  0  0
  -22.3689  -10.9652   19.6136 H   0  0  0  0  0  0
  -21.2015   -7.6135   23.9706 H   0  0  0  0  0  0
  -21.1496   -6.0500   25.9077 H   0  0  0  0  0  0
  -22.0597   -2.7596   23.2813 H   0  0  0  0  0  0
  -22.4085  -11.9936   22.4916 H   0  0  0  0  0  0
  -21.1003  -13.1204   22.2568 H   0  0  0  0  0  0
  -24.6434  -15.8454   20.4990 H   0  0  0  0  0  0
  -26.2673  -15.6382   20.0905 H   0  0  0  0  0  0
  -26.7215  -32.5437   23.1039 H   0  0  0  0  0  0
  -25.0193  -33.9703   25.0412 H   0  0  0  0  0  0
  -22.7248  -31.3173   21.3902 H   0  0  0  0  0  0
  -23.3755  -35.9656   23.3287 H   0  0  0  0  0  0
  -24.3590  -36.8912   22.2030 H   0  0  0  0  0  0
  -23.7286  -37.6512   23.6659 H   0  0  0  0  0  0
  -26.1057  -31.5558   20.6203 H   0  0  0  0  0  0
  -26.8506  -30.8242   22.0077 H   0  0  0  0  0  0
  -28.0961  -28.9266   21.2401 H   0  0  0  0  0  0
  -25.9379  -25.9375   18.9817 H   0  0  0  0  0  0
  -23.9732  -27.3506   18.9555 H   0  0  0  0  0  0
  -23.7552  -30.6219   19.3963 H   0  0  0  0  0  0
  -22.7644  -29.2622   19.8321 H   0  0  0  0  0  0
  -25.1324  -36.1894   25.0779 H   0  0  0  0  0  0
  -21.0079  -28.3350   24.1318 H   0  0  0  0  0  0
  -20.5747  -26.2332   23.3587 H   0  0  0  0  0  0
  -21.6675  -26.7467   22.1153 H   0  0  0  0  0  0
  -19.6952  -25.6287   21.1242 H   0  0  0  0  0  0
  -19.6751  -27.3197   20.6750 H   0  0  0  0  0  0
  -17.4234  -26.6731   21.4008 H   0  0  0  0  0  0
  -18.0357  -26.0104   22.9017 H   0  0  0  0  0  0
  -19.7967  -30.7322   24.2208 H   0  0  0  0  0  0
  -17.5045  -31.6269   24.5204 H   0  0  0  0  0  0
  -15.5388  -30.2998   23.7668 H   0  0  0  0  0  0
  -15.8706  -28.0860   22.7017 H   0  0  0  0  0  0
  -24.5928  -30.7128   25.7755 H   0  0  0  0  0  0
  -24.8902  -32.3067   26.4647 H   0  0  0  0  0  0
  -25.8025  -30.9147   27.0254 H   0  0  0  0  0  0
  -26.2945  -29.6735   24.1240 H   0  0  0  0  0  0
  -27.3986  -29.7264   25.4764 H   0  0  0  0  0  0
  -27.8856  -30.4181   23.9486 H   0  0  0  0  0  0
  -27.2629  -33.3680   26.2001 H   0  0  0  0  0  0
  -28.3930  -32.6926   25.0369 H   0  0  0  0  0  0
  -28.0681  -31.8536   26.5445 H   0  0  0  0  0  0
  -28.2589  -38.0094   24.7489 H   0  0  0  0  0  0
  -28.1070  -36.2617   24.6299 H   0  0  0  0  0  0
  -27.2263  -37.1462   25.8835 H   0  0  0  0  0  0
  -20.9294  -29.8818   21.6828 H   0  0  0  0  0  0
  -26.0180  -38.2809   24.1410 H   0  0  0  0  0  0
  -31.4703  -20.3508   23.3031 H   0  0  0  0  0  0
  -30.0450  -22.1660   22.5875 H   0  0  0  0  0  0
  -28.4227  -19.6264   19.4666 H   0  0  0  0  0  0
  -31.7177  -18.4093   18.9179 H   0  0  0  0  0  0
  -31.9937  -16.7190   18.8881 H   0  0  0  0  0  0
  -29.5647  -17.3975   19.0574 H   0  0  0  0  0  0
  -36.0362  -17.8663   21.2639 H   0  0  0  0  0  0
  -34.8733  -16.8010   22.0301 H   0  0  0  0  0  0
  -34.8597  -18.5431   22.3480 H   0  0  0  0  0  0
  -35.6083  -17.0698   19.1523 H   0  0  0  0  0  0
  -34.0949  -17.2048   18.3060 H   0  0  0  0  0  0
  -34.3106  -15.9554   19.5393 H   0  0  0  0  0  0
  -35.2485  -19.6544   19.6685 H   0  0  0  0  0  0
  -33.8283  -20.1612   20.5688 H   0  0  0  0  0  0
  -33.6759  -19.5756   18.9149 H   0  0  0  0  0  0
  -28.8881  -23.8322   21.8063 H   0  0  0  0  0  0
  -29.8843  -23.8685   20.3804 H   0  0  0  0  0  0
  -27.7592  -24.6755   19.0838 H   0  0  0  0  0  0
  -26.9668  -24.7441   20.6381 H   0  0  0  0  0  0
  -27.8299  -22.1567   19.6296 H   0  0  0  0  0  0
  -28.9289  -15.7591   20.7578 H   0  0  0  0  0  0
  1 25  1  0  0  0
  1 30  2  0  0  0
  1 88  1  0  0  0
  2  3  1  0  0  0
  2 25  1  0  0  0
  2 90  1  0  0  0
  2 91  1  0  0  0
  3  4  1  0  0  0
  3 92  1  0  0  0
  3 93  1  0  0  0
  4  5  1  0  0  0
  4 94  1  0  0  0
  4 95  1  0  0  0
  5  6  1  0  0  0
  5 26  1  0  0  0
  5 96  1  0  0  0
  6 25  1  0  0  0
  6 97  1  0  0  0
  6 98  1  0  0  0
  7  8  2  0  0  0
  7 26  1  0  0  0
  7 29  1  0  0  0
  8  9  1  0  0  0
  8 22  1  0  0  0
  9 10  1  0  0  0
  9 27  2  0  0  0
 10 11  2  0  0  0
 10 15  1  0  0  0
 11 12  1  0  0  0
 11 99  1  0  0  0
 12 13  2  0  0  0
 12100  1  0  0  0
 13 14  1  0  0  0
 13 31  1  0  0  0
 14 15  2  0  0  0
 14101  1  0  0  0
 15102  1  0  0  0
 16 17  2  0  0  0
 16 21  1  0  0  0
 16 31  1  0  0  0
 17 18  1  0  0  0
 17103  1  0  0  0
 18 19  2  0  0  0
 18104  1  0  0  0
 19 20  1  0  0  0
 19 24  1  0  0  0
 20 21  2  0  0  0
 20105  1  0  0  0
 21 23  1  0  0  0
 22 28  1  0  0  0
 22 32  2  0  0  0
 26 27  1  0  0  0
 28106  1  0  0  0
 28107  1  0  0  0
 29108  1  0  0  0
 29109  1  0  0  0
 33 34  1  0  0  0
 33 66  1  0  0  0
 33 70  2  0  0  0
 34 36  1  0  0  0
 34 59  1  0  0  0
 34110  1  0  0  0
 35 44  2  0  0  0
 35 45  1  0  0  0
 35 68  1  0  0  0
 36 56  1  0  0  0
 36111  1  0  0  0
 37 39  1  0  0  0
 37 47  1  0  0  0
 37 66  1  0  0  0
 37112  1  0  0  0
 38 43  2  0  0  0
 38 46  1  0  0  0
 38 47  1  0  0  0
 39 64  1  0  0  0
 39 67  2  0  0  0
 40 52  1  0  0  0
 40 53  2  0  0  0
 40 58  1  0  0  0
 41113  1  0  0  0
 41114  1  0  0  0
 41115  1  0  0  0
 41 48  1  0  0  0
 42 43  1  0  0  0
 42 66  1  0  0  0
 42116  1  0  0  0
 42117  1  0  0  0
 43 44  1  0  0  0
 44118  1  0  0  0
 45 46  2  0  0  0
 45119  1  0  0  0
 46120  1  0  0  0
 47121  1  0  0  0
 47122  1  0  0  0
 48 56  1  0  0  0
 48 65  1  0  0  0
 48123  1  0  0  0
 49 50  1  0  0  0
 49 53  1  0  0  0
 49 64  1  0  0  0
 49124  1  0  0  0
 50 51  1  0  0  0
 50125  1  0  0  0
 50126  1  0  0  0
 51 52  1  0  0  0
 51127  1  0  0  0
 51128  1  0  0  0
 52129  1  0  0  0
 52130  1  0  0  0
 53 54  1  0  0  0
 54 55  2  0  0  0
 54131  1  0  0  0
 55 57  1  0  0  0
 55132  1  0  0  0
 56 69  2  0  0  0
 57 58  2  0  0  0
 57133  1  0  0  0
 58134  1  0  0  0
 59 60  1  0  0  0
 59 61  1  0  0  0
 59 62  1  0  0  0
 60135  1  0  0  0
 60136  1  0  0  0
 60137  1  0  0  0
 61138  1  0  0  0
 61139  1  0  0  0
 61140  1  0  0  0
 62141  1  0  0  0
 62142  1  0  0  0
 62143  1  0  0  0
 63 65  1  0  0  0
 63144  1  0  0  0
 63145  1  0  0  0
 63146  1  0  0  0
 64147  1  0  0  0
 65148  1  0  0  0
 68 84  1  0  0  0
 71 72  2  0  0  0
 71 74  1  0  0  0
 71149  1  0  0  0
 72 76  1  0  0  0
 72150  1  0  0  0
 73 75  1  0  0  0
 73 76  2  0  0  0
 73151  1  0  0  0
 74 75  2  0  0  0
 74 77  1  0  0  0
 75 79  1  0  0  0
 76 87  1  0  0  0
 77 86  1  0  0  0
 77 89  2  0  0  0
 78 79  1  0  0  0
 78 86  1  0  0  0
 78152  1  0  0  0
 78153  1  0  0  0
 79 88  1  0  0  0
 79154  1  0  0  0
 80155  1  0  0  0
 80156  1  0  0  0
 80157  1  0  0  0
 80 85  1  0  0  0
 81 85  1  0  0  0
 81158  1  0  0  0
 81159  1  0  0  0
 81160  1  0  0  0
 82 85  1  0  0  0
 82161  1  0  0  0
 82162  1  0  0  0
 82163  1  0  0  0
 83 84  1  0  0  0
 83 87  1  0  0  0
 83164  1  0  0  0
 83165  1  0  0  0
 84166  1  0  0  0
 84167  1  0  0  0
 85 86  1  0  0  0
 87168  1  0  0  0
 88169  1  0  0  0
M  ISO  4   1 100  68 101  84 101  88 100
M  END
> <chiral flag>
0

> <version>
0

> <s_m_source_file>
/data/baiqing/PycharmProjects/Reinvent-master-3.2/result/LINK_invent/BTK/process_docking_weight1_custom_product_contain_oxygen_bond_distance_aromatic_linkinvent_7_9_3/rearranged_h_0007.sdf

> <i_m_source_file_index>
39

> <r_mmod_Potential_Energy-OPLS-2005>
334.521728515625

> <r_mmod_Stretch_Energy-OPLS-2005>
128.623519897461

> <r_mmod_Bend_Energy-OPLS-2005>
192.850433349609

> <r_mmod_Torsional_Energy-OPLS-2005>
332.462707519531

> <r_mmod_Improper_Torsional_Energy-OPLS-2005>
17.1697998046875

> <r_mmod_Van_der_Waal_Energy-OPLS-2005>
182.630096435547

> <r_mmod_Electrostatic_Energy-OPLS-2005>
-376.083984375

> <r_mmod_Solvation_Energy-OPLS-2005>
-230.460876464844

> <b_mmod_Minimization_Converged-OPLS-2005>
0

> <r_mmod_RMS_Derivative-OPLS-2005>
5.21309280395508

$$$$
39
                    3D
 Structure written by MMmdl.
158167  0  0  1  0            999 V2000
  -30.7381  -14.6344   20.5285 C   0  0  0  0  0  0
  -30.4115  -12.4005   19.4729 C   0  0  0  0  0  0
  -29.5001  -12.5082   18.2350 C   0  0  0  0  0  0
  -28.0244  -12.3616   18.6437 C   0  0  0  0  0  0
  -27.6492  -13.2418   19.8665 C   0  0  2  0  0  0
  -28.6950  -13.1404   20.9987 C   0  0  0  0  0  0
  -25.2512  -13.8232   20.5731 C   0  0  0  0  0  0
  -24.1809  -13.0455   20.9211 C   0  0  0  0  0  0
  -24.6420  -11.6938   20.8758 C   0  0  0  0  0  0
  -23.9099  -10.4300   21.0410 C   0  0  0  0  0  0
  -24.3634   -9.4206   21.9195 C   0  0  0  0  0  0
  -23.6299   -8.2250   22.0765 C   0  0  0  0  0  0
  -22.4285   -8.0282   21.3548 C   0  0  0  0  0  0
  -21.9929   -9.0264   20.4647 C   0  0  0  0  0  0
  -22.7271  -10.2141   20.3063 C   0  0  0  0  0  0
  -21.6859   -6.0739   22.5270 C   0  0  0  0  0  0
  -21.4019   -6.5637   23.8206 C   0  0  0  0  0  0
  -21.3660   -5.6790   24.9167 C   0  0  0  0  0  0
  -21.6046   -4.3053   24.7215 C   0  0  0  0  0  0
  -21.8816   -3.8148   23.4334 C   0  0  0  0  0  0
  -21.9190   -4.6966   22.3395 C   0  0  0  0  0  0
  -22.7813  -13.5214   21.1847 C   0  0  0  0  0  0
  -22.1659   -4.2156   21.0971 F   0  0  0  0  0  0
  -21.5633   -3.4536   25.7726 F   0  0  0  0  0  0
  -30.0120  -13.4650   20.4275 N   0  0  0  0  0  0
  -26.2980  -12.9478   20.3376 N   0  0  0  0  0  0
  -25.9361  -11.6600   20.5801 N   0  0  0  0  0  0
  -22.0452  -12.8207   22.0396 N   0  0  0  0  0  0
  -25.4160  -15.1966   20.4166 N   0  0  0  0  0  0
  -31.8616  -14.6762   20.0192 O   0  0  0  0  0  0
  -21.6651   -6.8884   21.4234 O   0  0  0  0  0  0
  -22.3491  -14.5512   20.6682 O   0  0  0  0  0  0
  -24.6292  -31.8578   23.2021 C   0  0  0  0  0  0
  -25.9135  -32.4762   23.8346 C   0  0  1  0  0  0
  -27.2168  -27.3076   20.1118 C   0  0  0  0  0  0
  -25.5950  -33.8562   24.2269 N   0  0  0  0  0  0
  -23.4213  -30.4845   21.5450 C   0  0  2  0  0  0
  -24.8676  -28.9457   20.1089 C   0  0  0  0  0  0
  -22.7494  -29.4607   22.4914 C   0  0  0  0  0  0
  -18.0293  -28.1371   22.8468 C   0  0  0  0  0  0
  -24.1494  -36.7292   23.2634 C   0  0  0  0  0  0
  -25.9670  -30.7852   21.3771 C   0  0  0  0  0  0
  -26.0396  -29.4146   20.7164 C   0  0  0  0  0  0
  -27.2183  -28.6068   20.7090 C   0  0  0  0  0  0
  -26.0197  -26.9047   19.4726 C   0  0  0  0  0  0
  -24.8606  -27.6967   19.4788 C   0  0  0  0  0  0
  -23.6355  -29.8243   20.1599 C   0  0  0  0  0  0
  -25.4117  -36.3067   24.0315 C   0  0  1  0  0  0
  -20.5895  -28.3678   23.1277 C   0  0  2  0  0  0
  -20.6790  -26.9395   22.5410 C   0  0  0  0  0  0
  -19.5767  -26.6359   21.5217 C   0  0  0  0  0  0
  -18.1933  -26.7916   22.1600 C   0  0  0  0  0  0
  -19.1544  -28.8845   23.2866 C   0  0  0  0  0  0
  -18.9472  -30.1463   23.8870 C   0  0  0  0  0  0
  -17.6466  -30.6577   24.0570 C   0  0  0  0  0  0
  -25.9048  -34.9439   23.5083 C   0  0  0  0  0  0
  -16.5358  -29.9074   23.6348 C   0  0  0  0  0  0
  -16.7281  -28.6502   23.0335 C   0  0  0  0  0  0
  -26.4515  -31.6582   25.0722 C   0  0  0  0  0  0
  -25.3736  -31.3738   26.1445 C   0  0  0  0  0  0
  -27.0375  -30.2999   24.6193 C   0  0  0  0  0  0
  -27.6063  -32.4338   25.7492 C   0  0  0  0  0  0
  -27.5590  -37.1795   24.8455 C   0  0  0  0  0  0
  -21.4195  -29.3044   22.3694 N   0  0  0  0  0  0
  -26.4288  -37.3766   23.9409 N   0  0  0  0  0  0
  -24.6909  -31.0586   22.0982 N   0  0  0  0  0  0
  -23.4216  -28.8134   23.2980 O   0  0  0  0  0  0
  -28.3141  -26.4255   20.1734 O   0  0  0  0  0  0
  -26.5607  -34.8916   22.4647 O   0  0  0  0  0  0
  -23.5453  -32.1370   23.7357 O   0  0  0  0  0  0
  -28.7433  -18.7763   20.9151 C   0  0  0  0  0  0
  -30.2857  -20.9868   20.1057 C   0  0  0  0  0  0
  -30.0890  -18.5263   20.5525 C   0  0  0  0  0  0
  -28.9513  -21.2447   20.5021 C   0  0  0  0  0  0
  -28.1938  -20.0958   20.8858 C   0  0  0  0  0  0
  -30.8280  -19.6689   20.1172 C   0  0  0  0  0  0
  -30.8631  -16.9166   23.0939 C   0  0  0  0  0  0
  -31.7697  -17.3216   21.9422 C   0  0  0  0  0  0
  -29.9622  -15.8233   22.4956 C   0  0  0  0  0  0
  -30.8500  -17.1492   20.7279 C   0  0  1  0  0  0
  -28.0133  -24.9777   20.0178 C   0  0  0  0  0  0
  -29.0299  -23.7991   20.3536 C   0  0  0  0  0  0
  -30.1858  -15.8075   21.0363 N   0  0  0  0  0  0
  -28.3325  -22.5158   20.5174 O   0  0  0  0  0  0
  -26.9035  -20.2625   21.2611 F   0  0  0  0  0  0
  -32.1170  -19.5091   19.7302 F   0  0  0  0  0  0
  -31.4575  -12.4635   19.1690 H   0  0  0  0  0  0
  -30.3096  -11.4185   19.9372 H   0  0  0  0  0  0
  -29.7612  -11.7398   17.5064 H   0  0  0  0  0  0
  -29.6578  -13.4678   17.7409 H   0  0  0  0  0  0
  -27.8515  -11.3109   18.8775 H   0  0  0  0  0  0
  -27.3746  -12.5972   17.7997 H   0  0  0  0  0  0
  -27.6572  -14.2756   19.5195 H   0  0  0  0  0  0
  -28.7052  -12.1366   21.4266 H   0  0  0  0  0  0
  -28.4249  -13.8083   21.8148 H   0  0  0  0  0  0
  -25.2775   -9.5684   22.4774 H   0  0  0  0  0  0
  -24.0006   -7.4643   22.7492 H   0  0  0  0  0  0
  -21.0870   -8.8783   19.8945 H   0  0  0  0  0  0
  -22.3733  -10.9684   19.6173 H   0  0  0  0  0  0
  -21.2016   -7.6147   23.9713 H   0  0  0  0  0  0
  -21.1489   -6.0522   25.9072 H   0  0  0  0  0  0
  -22.0595   -2.7608   23.2834 H   0  0  0  0  0  0
  -22.4069  -11.9888   22.4822 H   0  0  0  0  0  0
  -21.1050  -13.1213   22.2562 H   0  0  0  0  0  0
  -24.6483  -15.8466   20.5481 H   0  0  0  0  0  0
  -26.2633  -15.6438   20.0911 H   0  0  0  0  0  0
  -26.7207  -32.5415   23.1092 H   0  0  0  0  0  0
  -25.0199  -33.9727   25.0486 H   0  0  0  0  0  0
  -22.7148  -31.3058   21.4040 H   0  0  0  0  0  0
  -23.3756  -35.9624   23.3270 H   0  0  0  0  0  0
  -24.3591  -36.8935   22.2056 H   0  0  0  0  0  0
  -23.7243  -37.6479   23.6683 H   0  0  0  0  0  0
  -26.1024  -31.5477   20.6088 H   0  0  0  0  0  0
  -26.8488  -30.8290   22.0061 H   0  0  0  0  0  0
  -28.1146  -28.9582   21.2002 H   0  0  0  0  0  0
  -25.9338  -25.9538   18.9706 H   0  0  0  0  0  0
  -23.9641  -27.3349   18.9949 H   0  0  0  0  0  0
  -23.7500  -30.6017   19.4041 H   0  0  0  0  0  0
  -22.7550  -29.2527   19.8577 H   0  0  0  0  0  0
  -25.1289  -36.1915   25.0800 H   0  0  0  0  0  0
  -21.0001  -28.3262   24.1390 H   0  0  0  0  0  0
  -20.5717  -26.2267   23.3601 H   0  0  0  0  0  0
  -21.6656  -26.7430   22.1181 H   0  0  0  0  0  0
  -19.6931  -25.6270   21.1241 H   0  0  0  0  0  0
  -19.6726  -27.3185   20.6764 H   0  0  0  0  0  0
  -17.4217  -26.6703   21.3984 H   0  0  0  0  0  0
  -18.0304  -26.0043   22.8974 H   0  0  0  0  0  0
  -19.7952  -30.7308   24.2179 H   0  0  0  0  0  0
  -17.5012  -31.6247   24.5184 H   0  0  0  0  0  0
  -15.5362  -30.2964   23.7685 H   0  0  0  0  0  0
  -15.8673  -28.0840   22.7028 H   0  0  0  0  0  0
  -24.5967  -30.6998   25.7811 H   0  0  0  0  0  0
  -24.8861  -32.2905   26.4782 H   0  0  0  0  0  0
  -25.8058  -30.9022   27.0278 H   0  0  0  0  0  0
  -26.2970  -29.6715   24.1229 H   0  0  0  0  0  0
  -27.4102  -29.7276   25.4698 H   0  0  0  0  0  0
  -27.8804  -30.4282   23.9396 H   0  0  0  0  0  0
  -27.2684  -33.3693   26.1975 H   0  0  0  0  0  0
  -28.3931  -32.6814   25.0347 H   0  0  0  0  0  0
  -28.0651  -31.8505   26.5487 H   0  0  0  0  0  0
  -28.2573  -38.0129   24.7547 H   0  0  0  0  0  0
  -28.1128  -36.2661   24.6229 H   0  0  0  0  0  0
  -27.2308  -37.1369   25.8854 H   0  0  0  0  0  0
  -20.9377  -29.8783   21.6916 H   0  0  0  0  0  0
  -26.0163  -38.2827   24.1447 H   0  0  0  0  0  0
  -28.1245  -17.9583   21.2532 H   0  0  0  0  0  0
  -30.9229  -21.7968   19.7886 H   0  0  0  0  0  0
  -30.2571  -17.7698   23.4048 H   0  0  0  0  0  0
  -31.4300  -16.5820   23.9635 H   0  0  0  0  0  0
  -32.6109  -16.6295   21.8767 H   0  0  0  0  0  0
  -32.1911  -18.3207   22.0575 H   0  0  0  0  0  0
  -28.9127  -16.0153   22.7196 H   0  0  0  0  0  0
  -30.2161  -14.8678   22.9639 H   0  0  0  0  0  0
  -31.4524  -17.0635   19.8209 H   0  0  0  0  0  0
  -27.1323  -24.7743   20.6294 H   0  0  0  0  0  0
  -27.7194  -24.8083   18.9818 H   0  0  0  0  0  0
  -29.5548  -24.0191   21.2840 H   0  0  0  0  0  0
  -29.7828  -23.7385   19.5680 H   0  0  0  0  0  0
  1 25  1  0  0  0
  1 30  2  0  0  0
  1 83  1  0  0  0
  2  3  1  0  0  0
  2 25  1  0  0  0
  2 87  1  0  0  0
  2 88  1  0  0  0
  3  4  1  0  0  0
  3 89  1  0  0  0
  3 90  1  0  0  0
  4  5  1  0  0  0
  4 91  1  0  0  0
  4 92  1  0  0  0
  5  6  1  0  0  0
  5 26  1  0  0  0
  5 93  1  0  0  0
  6 25  1  0  0  0
  6 94  1  0  0  0
  6 95  1  0  0  0
  7  8  2  0  0  0
  7 26  1  0  0  0
  7 29  1  0  0  0
  8  9  1  0  0  0
  8 22  1  0  0  0
  9 10  1  0  0  0
  9 27  2  0  0  0
 10 11  2  0  0  0
 10 15  1  0  0  0
 11 12  1  0  0  0
 11 96  1  0  0  0
 12 13  2  0  0  0
 12 97  1  0  0  0
 13 14  1  0  0  0
 13 31  1  0  0  0
 14 15  2  0  0  0
 14 98  1  0  0  0
 15 99  1  0  0  0
 16 17  2  0  0  0
 16 21  1  0  0  0
 16 31  1  0  0  0
 17 18  1  0  0  0
 17100  1  0  0  0
 18 19  2  0  0  0
 18101  1  0  0  0
 19 20  1  0  0  0
 19 24  1  0  0  0
 20 21  2  0  0  0
 20102  1  0  0  0
 21 23  1  0  0  0
 22 28  1  0  0  0
 22 32  2  0  0  0
 26 27  1  0  0  0
 28103  1  0  0  0
 28104  1  0  0  0
 29105  1  0  0  0
 29106  1  0  0  0
 33 34  1  0  0  0
 33 66  1  0  0  0
 33 70  2  0  0  0
 34 36  1  0  0  0
 34 59  1  0  0  0
 34107  1  0  0  0
 35 44  2  0  0  0
 35 45  1  0  0  0
 35 68  1  0  0  0
 36 56  1  0  0  0
 36108  1  0  0  0
 37 39  1  0  0  0
 37 47  1  0  0  0
 37 66  1  0  0  0
 37109  1  0  0  0
 38 43  2  0  0  0
 38 46  1  0  0  0
 38 47  1  0  0  0
 39 64  1  0  0  0
 39 67  2  0  0  0
 40 52  1  0  0  0
 40 53  2  0  0  0
 40 58  1  0  0  0
 41110  1  0  0  0
 41111  1  0  0  0
 41112  1  0  0  0
 41 48  1  0  0  0
 42 43  1  0  0  0
 42 66  1  0  0  0
 42113  1  0  0  0
 42114  1  0  0  0
 43 44  1  0  0  0
 44115  1  0  0  0
 45 46  2  0  0  0
 45116  1  0  0  0
 46117  1  0  0  0
 47118  1  0  0  0
 47119  1  0  0  0
 48 56  1  0  0  0
 48 65  1  0  0  0
 48120  1  0  0  0
 49 50  1  0  0  0
 49 53  1  0  0  0
 49 64  1  0  0  0
 49121  1  0  0  0
 50 51  1  0  0  0
 50122  1  0  0  0
 50123  1  0  0  0
 51 52  1  0  0  0
 51124  1  0  0  0
 51125  1  0  0  0
 52126  1  0  0  0
 52127  1  0  0  0
 53 54  1  0  0  0
 54 55  2  0  0  0
 54128  1  0  0  0
 55 57  1  0  0  0
 55129  1  0  0  0
 56 69  2  0  0  0
 57 58  2  0  0  0
 57130  1  0  0  0
 58131  1  0  0  0
 59 60  1  0  0  0
 59 61  1  0  0  0
 59 62  1  0  0  0
 60132  1  0  0  0
 60133  1  0  0  0
 60134  1  0  0  0
 61135  1  0  0  0
 61136  1  0  0  0
 61137  1  0  0  0
 62138  1  0  0  0
 62139  1  0  0  0
 62140  1  0  0  0
 63 65  1  0  0  0
 63141  1  0  0  0
 63142  1  0  0  0
 63143  1  0  0  0
 64144  1  0  0  0
 65145  1  0  0  0
 68 81  1  0  0  0
 71 73  2  0  0  0
 71 75  1  0  0  0
 71146  1  0  0  0
 72 74  1  0  0  0
 72 76  2  0  0  0
 72147  1  0  0  0
 73 76  1  0  0  0
 73 80  1  0  0  0
 74 75  2  0  0  0
 74 84  1  0  0  0
 75 85  1  0  0  0
 76 86  1  0  0  0
 77 78  1  0  0  0
 77 79  1  0  0  0
 77148  1  0  0  0
 77149  1  0  0  0
 78 80  1  0  0  0
 78150  1  0  0  0
 78151  1  0  0  0
 79 83  1  0  0  0
 79152  1  0  0  0
 79153  1  0  0  0
 80 83  1  0  0  0
 80154  1  0  0  0
 81 82  1  0  0  0
 81155  1  0  0  0
 81156  1  0  0  0
 82 84  1  0  0  0
 82157  1  0  0  0
 82158  1  0  0  0
M  ISO  4   1 100  68 101  81 101  83 100
M  END
> <chiral flag>
0

> <version>
0

> <s_m_source_file>
/data/baiqing/PycharmProjects/Reinvent-master-3.2/result/LINK_invent/BTK/process_docking_weight1_custom_product_contain_oxygen_bond_distance_aromatic_linkinvent_7_9_3/rearranged_h_0007.sdf

> <i_m_source_file_index>
40

> <r_mmod_Potential_Energy-OPLS-2005>
373.239105224609

> <r_mmod_Stretch_Energy-OPLS-2005>
94.0114898681641

> <r_mmod_Bend_Energy-OPLS-2005>
211.141967773438

> <r_mmod_Torsional_Energy-OPLS-2005>
310.185638427734

> <r_mmod_Improper_Torsional_Energy-OPLS-2005>
9.13155746459961

> <r_mmod_Van_der_Waal_Energy-OPLS-2005>
157.167053222656

> <r_mmod_Electrostatic_Energy-OPLS-2005>
-271.280395507812

> <r_mmod_Solvation_Energy-OPLS-2005>
-191.148162841797

> <b_mmod_Minimization_Converged-OPLS-2005>
0

> <r_mmod_RMS_Derivative-OPLS-2005>
2.44385695457458

$$$$
40
                    3D
 Structure written by MMmdl.
157166  0  0  1  0            999 V2000
  -30.6993  -14.4448   20.5676 C   0  0  0  0  0  0
  -30.4178  -12.2850   19.4277 C   0  0  0  0  0  0
  -29.4913  -12.4957   18.2125 C   0  0  0  0  0  0
  -28.0128  -12.3538   18.6233 C   0  0  0  0  0  0
  -27.6608  -13.2000   19.8761 C   0  0  2  0  0  0
  -28.6972  -12.9790   21.0018 C   0  0  0  0  0  0
  -25.2596  -13.8170   20.5699 C   0  0  0  0  0  0
  -24.1838  -13.0461   20.9163 C   0  0  0  0  0  0
  -24.6365  -11.6920   20.8712 C   0  0  0  0  0  0
  -23.9039  -10.4314   21.0385 C   0  0  0  0  0  0
  -24.3606   -9.4241   21.9166 C   0  0  0  0  0  0
  -23.6290   -8.2272   22.0746 C   0  0  0  0  0  0
  -22.4266   -8.0300   21.3546 C   0  0  0  0  0  0
  -21.9902   -9.0267   20.4642 C   0  0  0  0  0  0
  -22.7216  -10.2149   20.3038 C   0  0  0  0  0  0
  -21.6875   -6.0745   22.5281 C   0  0  0  0  0  0
  -21.4026   -6.5642   23.8214 C   0  0  0  0  0  0
  -21.3648   -5.6787   24.9170 C   0  0  0  0  0  0
  -21.6031   -4.3050   24.7214 C   0  0  0  0  0  0
  -21.8823   -3.8153   23.4335 C   0  0  0  0  0  0
  -21.9206   -4.6974   22.3398 C   0  0  0  0  0  0
  -22.7865  -13.5260   21.1835 C   0  0  0  0  0  0
  -22.1669   -4.2159   21.0976 F   0  0  0  0  0  0
  -21.5610   -3.4529   25.7721 F   0  0  0  0  0  0
  -30.0343  -13.2661   20.4536 N   0  0  0  0  0  0
  -26.3011  -12.9320   20.3367 N   0  0  0  0  0  0
  -25.9288  -11.6484   20.5757 N   0  0  0  0  0  0
  -22.0506  -12.8246   22.0375 N   0  0  0  0  0  0
  -25.4353  -15.1898   20.4183 N   0  0  0  0  0  0
  -31.8272  -14.6352   20.1055 O   0  0  0  0  0  0
  -21.6641   -6.8891   21.4241 O   0  0  0  0  0  0
  -22.3553  -14.5578   20.6692 O   0  0  0  0  0  0
  -24.6121  -31.8701   23.2122 C   0  0  0  0  0  0
  -25.9033  -32.4836   23.8402 C   0  0  1  0  0  0
  -27.2366  -27.4448   20.0949 C   0  0  0  0  0  0
  -25.5900  -33.8631   24.2335 N   0  0  0  0  0  0
  -23.3985  -30.4953   21.5525 C   0  0  2  0  0  0
  -24.8419  -28.9566   20.1188 C   0  0  0  0  0  0
  -22.7368  -29.4700   22.5008 C   0  0  0  0  0  0
  -18.0260  -28.1368   22.8461 C   0  0  0  0  0  0
  -24.1486  -36.7320   23.2637 C   0  0  0  0  0  0
  -25.9246  -30.8379   21.3633 C   0  0  0  0  0  0
  -25.9993  -29.4708   20.7143 C   0  0  0  0  0  0
  -27.1932  -28.7186   20.7054 C   0  0  0  0  0  0
  -26.0533  -26.9325   19.5114 C   0  0  0  0  0  0
  -24.8612  -27.6835   19.5216 C   0  0  0  0  0  0
  -23.6049  -29.8246   20.1675 C   0  0  0  0  0  0
  -25.4109  -36.3124   24.0338 C   0  0  1  0  0  0
  -20.5836  -28.3668   23.1303 C   0  0  2  0  0  0
  -20.6749  -26.9416   22.5370 C   0  0  0  0  0  0
  -19.5719  -26.6393   21.5192 C   0  0  0  0  0  0
  -18.1899  -26.7905   22.1599 C   0  0  0  0  0  0
  -19.1494  -28.8835   23.2879 C   0  0  0  0  0  0
  -18.9422  -30.1423   23.8918 C   0  0  0  0  0  0
  -17.6425  -30.6560   24.0573 C   0  0  0  0  0  0
  -25.9033  -34.9485   23.5128 C   0  0  0  0  0  0
  -16.5327  -29.9066   23.6313 C   0  0  0  0  0  0
  -16.7255  -28.6496   23.0307 C   0  0  0  0  0  0
  -26.4457  -31.6607   25.0721 C   0  0  0  0  0  0
  -25.3724  -31.3702   26.1468 C   0  0  0  0  0  0
  -27.0293  -30.3060   24.6087 C   0  0  0  0  0  0
  -27.6035  -32.4321   25.7484 C   0  0  0  0  0  0
  -27.5579  -37.1822   24.8469 C   0  0  0  0  0  0
  -21.4095  -29.3071   22.3742 N   0  0  0  0  0  0
  -26.4297  -37.3806   23.9407 N   0  0  0  0  0  0
  -24.6634  -31.0814   22.1019 N   0  0  0  0  0  0
  -23.4138  -28.8223   23.3033 O   0  0  0  0  0  0
  -28.4410  -26.7714   20.1049 O   0  0  0  0  0  0
  -26.5586  -34.8941   22.4685 O   0  0  0  0  0  0
  -23.5321  -32.1461   23.7528 O   0  0  0  0  0  0
  -28.2261  -18.5887   23.4707 C   0  0  0  0  0  0
  -28.0834  -19.8952   22.9709 C   0  0  0  0  0  0
  -29.8680  -19.6584   19.7110 C   0  0  0  0  0  0
  -28.9084  -17.6156   22.7188 C   0  0  0  0  0  0
  -29.7130  -20.9760   19.2387 C   0  0  0  0  0  0
  -28.4791  -21.5656   21.2403 C   0  0  0  0  0  0
  -28.6278  -20.2414   21.7187 C   0  0  0  0  0  0
  -29.3225  -19.2631   20.9553 C   0  0  0  0  0  0
  -29.4585  -17.9330   21.4550 C   0  0  0  0  0  0
  -29.0235  -21.9449   19.9894 C   0  0  0  0  0  0
  -30.2240  -16.8642   20.6653 C   0  0  0  0  0  0
  -28.3805  -24.2841   20.1781 C   0  0  0  0  0  0
  -28.6123  -25.5680   19.3522 C   0  0  0  0  0  0
  -29.9588  -15.4662   21.0226 N   0  0  0  0  0  0
  -28.9308  -23.2014   19.4282 O   0  0  0  0  0  0
  -31.4627  -12.3772   19.1275 H   0  0  0  0  0  0
  -30.3111  -11.2727   19.8211 H   0  0  0  0  0  0
  -29.7316  -11.7790   17.4256 H   0  0  0  0  0  0
  -29.6601  -13.4861   17.7879 H   0  0  0  0  0  0
  -27.8224  -11.2981   18.8231 H   0  0  0  0  0  0
  -27.3624  -12.6260   17.7907 H   0  0  0  0  0  0
  -27.7084  -14.2463   19.5735 H   0  0  0  0  0  0
  -28.6617  -11.9464   21.3542 H   0  0  0  0  0  0
  -28.4606  -13.5916   21.8730 H   0  0  0  0  0  0
  -25.2751   -9.5735   22.4737 H   0  0  0  0  0  0
  -24.0017   -7.4665   22.7464 H   0  0  0  0  0  0
  -21.0842   -8.8775   19.8946 H   0  0  0  0  0  0
  -22.3668  -10.9685   19.6150 H   0  0  0  0  0  0
  -21.2020   -7.6154   23.9713 H   0  0  0  0  0  0
  -21.1461   -6.0520   25.9071 H   0  0  0  0  0  0
  -22.0614   -2.7619   23.2832 H   0  0  0  0  0  0
  -22.4128  -11.9902   22.4749 H   0  0  0  0  0  0
  -21.1123  -13.1276   22.2575 H   0  0  0  0  0  0
  -24.6764  -15.8498   20.5531 H   0  0  0  0  0  0
  -26.3000  -15.6370   20.1396 H   0  0  0  0  0  0
  -26.7104  -32.5543   23.1168 H   0  0  0  0  0  0
  -25.0077  -33.9796   25.0496 H   0  0  0  0  0  0
  -22.6879  -31.3126   21.4136 H   0  0  0  0  0  0
  -23.3748  -35.9654   23.3322 H   0  0  0  0  0  0
  -24.3571  -36.8909   22.2046 H   0  0  0  0  0  0
  -23.7242  -37.6535   23.6631 H   0  0  0  0  0  0
  -26.0282  -31.6016   20.5921 H   0  0  0  0  0  0
  -26.8152  -30.8946   21.9778 H   0  0  0  0  0  0
  -28.0866  -29.1179   21.1659 H   0  0  0  0  0  0
  -26.0244  -25.9551   19.0536 H   0  0  0  0  0  0
  -23.9645  -27.2750   19.0751 H   0  0  0  0  0  0
  -23.7143  -30.5997   19.4081 H   0  0  0  0  0  0
  -22.7280  -29.2476   19.8709 H   0  0  0  0  0  0
  -25.1290  -36.1992   25.0834 H   0  0  0  0  0  0
  -20.9897  -28.3193   24.1435 H   0  0  0  0  0  0
  -20.5708  -26.2232   23.3510 H   0  0  0  0  0  0
  -21.6602  -26.7503   22.1101 H   0  0  0  0  0  0
  -19.6934  -25.6323   21.1209 H   0  0  0  0  0  0
  -19.6615  -27.3208   20.6731 H   0  0  0  0  0  0
  -17.4184  -26.6665   21.3982 H   0  0  0  0  0  0
  -18.0315  -26.0014   22.8965 H   0  0  0  0  0  0
  -19.7882  -30.7241   24.2333 H   0  0  0  0  0  0
  -17.4958  -31.6226   24.5192 H   0  0  0  0  0  0
  -15.5325  -30.2940   23.7648 H   0  0  0  0  0  0
  -15.8664  -28.0809   22.7010 H   0  0  0  0  0  0
  -24.5883  -30.7074   25.7793 H   0  0  0  0  0  0
  -24.8929  -32.2854   26.4955 H   0  0  0  0  0  0
  -25.8072  -30.8832   27.0203 H   0  0  0  0  0  0
  -26.2845  -29.6831   24.1130 H   0  0  0  0  0  0
  -27.4058  -29.7288   25.4538 H   0  0  0  0  0  0
  -27.8669  -30.4392   23.9240 H   0  0  0  0  0  0
  -27.2657  -33.3605   26.2105 H   0  0  0  0  0  0
  -28.3824  -32.6915   25.0300 H   0  0  0  0  0  0
  -28.0729  -31.8420   26.5368 H   0  0  0  0  0  0
  -28.2623  -38.0097   24.7506 H   0  0  0  0  0  0
  -28.1051  -36.2630   24.6317 H   0  0  0  0  0  0
  -27.2286  -37.1501   25.8870 H   0  0  0  0  0  0
  -20.9233  -29.8782   21.6971 H   0  0  0  0  0  0
  -26.0191  -38.2882   24.1417 H   0  0  0  0  0  0
  -27.8173  -18.3351   24.4401 H   0  0  0  0  0  0
  -27.5616  -20.6339   23.5624 H   0  0  0  0  0  0
  -30.4215  -18.9718   19.0890 H   0  0  0  0  0  0
  -29.0134  -16.6249   23.1370 H   0  0  0  0  0  0
  -30.1369  -21.2484   18.2823 H   0  0  0  0  0  0
  -27.9390  -22.2800   21.8441 H   0  0  0  0  0  0
  -29.9621  -16.9455   19.6096 H   0  0  0  0  0  0
  -31.2890  -17.0893   20.7469 H   0  0  0  0  0  0
  -27.3196  -24.1274   20.3735 H   0  0  0  0  0  0
  -28.8975  -24.3709   21.1355 H   0  0  0  0  0  0
  -28.0498  -25.5596   18.4177 H   0  0  0  0  0  0
  -29.6583  -25.5767   19.0421 H   0  0  0  0  0  0
  -29.0376  -15.2368   21.3614 H   0  0  0  0  0  0
  1 25  1  0  0  0
  1 30  2  0  0  0
  1 84  1  0  0  0
  2  3  1  0  0  0
  2 25  1  0  0  0
  2 86  1  0  0  0
  2 87  1  0  0  0
  3  4  1  0  0  0
  3 88  1  0  0  0
  3 89  1  0  0  0
  4  5  1  0  0  0
  4 90  1  0  0  0
  4 91  1  0  0  0
  5  6  1  0  0  0
  5 26  1  0  0  0
  5 92  1  0  0  0
  6 25  1  0  0  0
  6 93  1  0  0  0
  6 94  1  0  0  0
  7  8  2  0  0  0
  7 26  1  0  0  0
  7 29  1  0  0  0
  8  9  1  0  0  0
  8 22  1  0  0  0
  9 10  1  0  0  0
  9 27  2  0  0  0
 10 11  2  0  0  0
 10 15  1  0  0  0
 11 12  1  0  0  0
 11 95  1  0  0  0
 12 13  2  0  0  0
 12 96  1  0  0  0
 13 14  1  0  0  0
 13 31  1  0  0  0
 14 15  2  0  0  0
 14 97  1  0  0  0
 15 98  1  0  0  0
 16 17  2  0  0  0
 16 21  1  0  0  0
 16 31  1  0  0  0
 17 18  1  0  0  0
 17 99  1  0  0  0
 18 19  2  0  0  0
 18100  1  0  0  0
 19 20  1  0  0  0
 19 24  1  0  0  0
 20 21  2  0  0  0
 20101  1  0  0  0
 21 23  1  0  0  0
 22 28  1  0  0  0
 22 32  2  0  0  0
 26 27  1  0  0  0
 28102  1  0  0  0
 28103  1  0  0  0
 29104  1  0  0  0
 29105  1  0  0  0
 33 34  1  0  0  0
 33 66  1  0  0  0
 33 70  2  0  0  0
 34 36  1  0  0  0
 34 59  1  0  0  0
 34106  1  0  0  0
 35 44  2  0  0  0
 35 45  1  0  0  0
 35 68  1  0  0  0
 36 56  1  0  0  0
 36107  1  0  0  0
 37 39  1  0  0  0
 37 47  1  0  0  0
 37 66  1  0  0  0
 37108  1  0  0  0
 38 43  2  0  0  0
 38 46  1  0  0  0
 38 47  1  0  0  0
 39 64  1  0  0  0
 39 67  2  0  0  0
 40 52  1  0  0  0
 40 53  2  0  0  0
 40 58  1  0  0  0
 41109  1  0  0  0
 41110  1  0  0  0
 41111  1  0  0  0
 41 48  1  0  0  0
 42 43  1  0  0  0
 42 66  1  0  0  0
 42112  1  0  0  0
 42113  1  0  0  0
 43 44  1  0  0  0
 44114  1  0  0  0
 45 46  2  0  0  0
 45115  1  0  0  0
 46116  1  0  0  0
 47117  1  0  0  0
 47118  1  0  0  0
 48 56  1  0  0  0
 48 65  1  0  0  0
 48119  1  0  0  0
 49 50  1  0  0  0
 49 53  1  0  0  0
 49 64  1  0  0  0
 49120  1  0  0  0
 50 51  1  0  0  0
 50121  1  0  0  0
 50122  1  0  0  0
 51 52  1  0  0  0
 51123  1  0  0  0
 51124  1  0  0  0
 52125  1  0  0  0
 52126  1  0  0  0
 53 54  1  0  0  0
 54 55  2  0  0  0
 54127  1  0  0  0
 55 57  1  0  0  0
 55128  1  0  0  0
 56 69  2  0  0  0
 57 58  2  0  0  0
 57129  1  0  0  0
 58130  1  0  0  0
 59 60  1  0  0  0
 59 61  1  0  0  0
 59 62  1  0  0  0
 60131  1  0  0  0
 60132  1  0  0  0
 60133  1  0  0  0
 61134  1  0  0  0
 61135  1  0  0  0
 61136  1  0  0  0
 62137  1  0  0  0
 62138  1  0  0  0
 62139  1  0  0  0
 63 65  1  0  0  0
 63140  1  0  0  0
 63141  1  0  0  0
 63142  1  0  0  0
 64143  1  0  0  0
 65144  1  0  0  0
 68 83  1  0  0  0
 71 72  2  0  0  0
 71 74  1  0  0  0
 71145  1  0  0  0
 72 77  1  0  0  0
 72146  1  0  0  0
 73 75  1  0  0  0
 73 78  2  0  0  0
 73147  1  0  0  0
 74 79  2  0  0  0
 74148  1  0  0  0
 75 80  2  0  0  0
 75149  1  0  0  0
 76 77  2  0  0  0
 76 80  1  0  0  0
 76150  1  0  0  0
 77 78  1  0  0  0
 78 79  1  0  0  0
 79 81  1  0  0  0
 80 85  1  0  0  0
 81 84  1  0  0  0
 81151  1  0  0  0
 81152  1  0  0  0
 82 83  1  0  0  0
 82 85  1  0  0  0
 82153  1  0  0  0
 82154  1  0  0  0
 83155  1  0  0  0
 83156  1  0  0  0
 84157  1  0  0  0
M  ISO  4   1 100  68 101  83 101  84 100
M  END
> <chiral flag>
0

> <version>
0

> <s_m_source_file>
/data/baiqing/PycharmProjects/Reinvent-master-3.2/result/LINK_invent/BTK/process_docking_weight1_custom_product_contain_oxygen_bond_distance_aromatic_linkinvent_7_9_3/rearranged_h_0007.sdf

> <i_m_source_file_index>
41

> <r_mmod_Potential_Energy-OPLS-2005>
-88.7393798828125

> <r_mmod_Stretch_Energy-OPLS-2005>
36.5594749450684

> <r_mmod_Bend_Energy-OPLS-2005>
108.620391845703

> <r_mmod_Torsional_Energy-OPLS-2005>
190.531768798828

> <r_mmod_Improper_Torsional_Energy-OPLS-2005>
5.8540301322937

> <r_mmod_Van_der_Waal_Energy-OPLS-2005>
178.280090332031

> <r_mmod_Electrostatic_Energy-OPLS-2005>
-407.391967773438

> <r_mmod_Solvation_Energy-OPLS-2005>
-212.658386230469

> <b_mmod_Minimization_Converged-OPLS-2005>
0

> <r_mmod_RMS_Derivative-OPLS-2005>
2.26192593574524

$$$$
41
                    3D
 Structure written by MMmdl.
153162  0  0  1  0            999 V2000
  -30.5041  -14.9487   20.4277 C   0  0  0  0  0  0
  -30.4546  -12.5902   19.4880 C   0  0  0  0  0  0
  -29.5250  -12.5287   18.2517 C   0  0  0  0  0  0
  -28.0582  -12.3085   18.6739 C   0  0  0  0  0  0
  -27.6339  -13.2393   19.8399 C   0  0  2  0  0  0
  -28.6783  -13.2464   20.9767 C   0  0  0  0  0  0
  -25.2496  -13.8204   20.5718 C   0  0  0  0  0  0
  -24.1801  -13.0435   20.9234 C   0  0  0  0  0  0
  -24.6400  -11.6915   20.8762 C   0  0  0  0  0  0
  -23.9078  -10.4289   21.0417 C   0  0  0  0  0  0
  -24.3627   -9.4204   21.9189 C   0  0  0  0  0  0
  -23.6299   -8.2241   22.0758 C   0  0  0  0  0  0
  -22.4280   -8.0284   21.3547 C   0  0  0  0  0  0
  -21.9918   -9.0258   20.4646 C   0  0  0  0  0  0
  -22.7253  -10.2133   20.3058 C   0  0  0  0  0  0
  -21.6852   -6.0742   22.5281 C   0  0  0  0  0  0
  -21.4013   -6.5643   23.8215 C   0  0  0  0  0  0
  -21.3659   -5.6793   24.9174 C   0  0  0  0  0  0
  -21.6043   -4.3057   24.7221 C   0  0  0  0  0  0
  -21.8819   -3.8149   23.4342 C   0  0  0  0  0  0
  -21.9192   -4.6969   22.3402 C   0  0  0  0  0  0
  -22.7816  -13.5211   21.1889 C   0  0  0  0  0  0
  -22.1658   -4.2157   21.0981 F   0  0  0  0  0  0
  -21.5629   -3.4539   25.7733 F   0  0  0  0  0  0
  -29.9540  -13.6702   20.3818 N   0  0  0  0  0  0
  -26.2908  -12.9410   20.3238 N   0  0  0  0  0  0
  -25.9330  -11.6549   20.5738 N   0  0  0  0  0  0
  -22.0458  -12.8197   22.0434 N   0  0  0  0  0  0
  -25.4149  -15.1943   20.4162 N   0  0  0  0  0  0
  -31.7096  -15.0666   20.1789 O   0  0  0  0  0  0
  -21.6640   -6.8886   21.4242 O   0  0  0  0  0  0
  -22.3499  -14.5522   20.6739 O   0  0  0  0  0  0
  -24.6432  -31.8427   23.1850 C   0  0  0  0  0  0
  -25.9197  -32.4697   23.8249 C   0  0  1  0  0  0
  -27.2259  -27.1367   20.1660 C   0  0  0  0  0  0
  -25.5945  -33.8500   24.2180 N   0  0  0  0  0  0
  -23.4479  -30.4591   21.5304 C   0  0  2  0  0  0
  -24.8984  -28.8748   20.1182 C   0  0  0  0  0  0
  -22.7566  -29.4542   22.4858 C   0  0  0  0  0  0
  -18.0300  -28.1404   22.8483 C   0  0  0  0  0  0
  -24.1480  -36.7244   23.2642 C   0  0  0  0  0  0
  -26.0014  -30.7197   21.3784 C   0  0  0  0  0  0
  -26.0754  -29.3263   20.7290 C   0  0  0  0  0  0
  -27.2427  -28.4757   20.7276 C   0  0  0  0  0  0
  -26.0215  -26.7733   19.5305 C   0  0  0  0  0  0
  -24.8829  -27.6117   19.5033 C   0  0  0  0  0  0
  -23.6752  -29.7783   20.1534 C   0  0  0  0  0  0
  -25.4111  -36.3028   24.0319 C   0  0  1  0  0  0
  -20.5915  -28.3722   23.1240 C   0  0  2  0  0  0
  -20.6783  -26.9425   22.5405 C   0  0  0  0  0  0
  -19.5754  -26.6387   21.5216 C   0  0  0  0  0  0
  -18.1935  -26.7946   22.1625 C   0  0  0  0  0  0
  -19.1558  -28.8879   23.2857 C   0  0  0  0  0  0
  -18.9481  -30.1477   23.8882 C   0  0  0  0  0  0
  -17.6479  -30.6603   24.0566 C   0  0  0  0  0  0
  -25.9068  -34.9410   23.5059 C   0  0  0  0  0  0
  -16.5367  -29.9101   23.6342 C   0  0  0  0  0  0
  -16.7285  -28.6518   23.0363 C   0  0  0  0  0  0
  -26.4524  -31.6563   25.0689 C   0  0  0  0  0  0
  -25.3722  -31.3760   26.1398 C   0  0  0  0  0  0
  -27.0376  -30.2964   24.6237 C   0  0  0  0  0  0
  -27.6060  -32.4319   25.7476 C   0  0  0  0  0  0
  -27.5572  -37.1764   24.8460 C   0  0  0  0  0  0
  -21.4258  -29.3055   22.3613 N   0  0  0  0  0  0
  -26.4267  -37.3751   23.9432 N   0  0  0  0  0  0
  -24.7178  -31.0284   22.0876 N   0  0  0  0  0  0
  -23.4207  -28.8095   23.3016 O   0  0  0  0  0  0
  -28.3080  -26.1877   20.1615 O   0  0  0  0  0  0
  -26.5656  -34.8913   22.4638 O   0  0  0  0  0  0
  -23.5550  -32.1284   23.7075 O   0  0  0  0  0  0
  -30.2724  -19.9540   21.1842 C   0  0  0  0  0  0
  -30.4759  -18.5089   21.1566 C   0  0  0  0  0  0
  -28.4171  -19.7578   19.7614 C   0  0  0  0  0  0
  -29.2301  -20.6841   20.4977 C   0  0  0  0  0  0
  -29.6301  -17.5898   20.4517 C   0  0  0  0  0  0
  -28.5875  -18.3078   19.7625 C   0  0  0  0  0  0
  -29.2036  -24.3813   21.6978 C   0  0  0  0  0  0
  -29.2786  -22.8317   21.9033 C   0  0  0  0  0  0
  -28.4313  -23.2906   19.7547 C   0  0  0  0  0  0
  -28.1731  -24.6957   20.5955 C   0  0  2  0  0  0
  -29.0260  -22.1660   20.6225 N   0  0  0  0  0  0
  -29.6201  -16.0545   20.5264 N   0  0  0  0  0  0
  -27.6779  -17.5666   19.0837 F   0  0  0  0  0  0
  -31.4824  -12.7750   19.1718 H   0  0  0  0  0  0
  -30.4699  -11.6337   20.0126 H   0  0  0  0  0  0
  -29.8448  -11.7327   17.5778 H   0  0  0  0  0  0
  -29.6054  -13.4584   17.6865 H   0  0  0  0  0  0
  -27.9592  -11.2672   18.9830 H   0  0  0  0  0  0
  -27.3916  -12.4364   17.8201 H   0  0  0  0  0  0
  -27.6001  -14.2432   19.4162 H   0  0  0  0  0  0
  -28.7685  -12.2610   21.4366 H   0  0  0  0  0  0
  -28.3779  -13.9302   21.7728 H   0  0  0  0  0  0
  -25.2775   -9.5681   22.4761 H   0  0  0  0  0  0
  -24.0007   -7.4633   22.7479 H   0  0  0  0  0  0
  -21.0850   -8.8780   19.8949 H   0  0  0  0  0  0
  -22.3720  -10.9673   19.6164 H   0  0  0  0  0  0
  -21.2003   -7.6151   23.9722 H   0  0  0  0  0  0
  -21.1480   -6.0521   25.9079 H   0  0  0  0  0  0
  -22.0599   -2.7611   23.2838 H   0  0  0  0  0  0
  -22.4066  -11.9845   22.4809 H   0  0  0  0  0  0
  -21.1074  -13.1221   22.2641 H   0  0  0  0  0  0
  -24.6406  -15.8370   20.5432 H   0  0  0  0  0  0
  -26.2372  -15.6466   20.0374 H   0  0  0  0  0  0
  -26.7264  -32.5309   23.0978 H   0  0  0  0  0  0
  -25.0088  -33.9609   25.0330 H   0  0  0  0  0  0
  -22.7514  -31.2845   21.3702 H   0  0  0  0  0  0
  -23.3760  -35.9558   23.3274 H   0  0  0  0  0  0
  -24.3570  -36.8896   22.2061 H   0  0  0  0  0  0
  -23.7203  -37.6424   23.6686 H   0  0  0  0  0  0
  -26.1457  -31.4684   20.5980 H   0  0  0  0  0  0
  -26.8771  -30.7813   22.0130 H   0  0  0  0  0  0
  -28.1477  -28.8247   21.2046 H   0  0  0  0  0  0
  -25.9524  -25.8025   19.0594 H   0  0  0  0  0  0
  -23.9827  -27.2592   19.0189 H   0  0  0  0  0  0
  -23.8138  -30.5472   19.3925 H   0  0  0  0  0  0
  -22.7910  -29.2178   19.8442 H   0  0  0  0  0  0
  -25.1292  -36.1846   25.0810 H   0  0  0  0  0  0
  -21.0006  -28.3305   24.1361 H   0  0  0  0  0  0
  -20.5671  -26.2338   23.3626 H   0  0  0  0  0  0
  -21.6647  -26.7426   22.1200 H   0  0  0  0  0  0
  -19.6915  -25.6295   21.1250 H   0  0  0  0  0  0
  -19.6694  -27.3197   20.6747 H   0  0  0  0  0  0
  -17.4205  -26.6696   21.4028 H   0  0  0  0  0  0
  -18.0329  -26.0097   22.9026 H   0  0  0  0  0  0
  -19.7960  -30.7299   24.2240 H   0  0  0  0  0  0
  -17.5038  -31.6284   24.5167 H   0  0  0  0  0  0
  -15.5369  -30.3004   23.7684 H   0  0  0  0  0  0
  -15.8680  -28.0836   22.7093 H   0  0  0  0  0  0
  -24.5904  -30.7097   25.7730 H   0  0  0  0  0  0
  -24.8917  -32.2953   26.4757 H   0  0  0  0  0  0
  -25.8021  -30.8982   27.0210 H   0  0  0  0  0  0
  -26.2974  -29.6698   24.1247 H   0  0  0  0  0  0
  -27.4017  -29.7241   25.4780 H   0  0  0  0  0  0
  -27.8868  -30.4213   23.9515 H   0  0  0  0  0  0
  -27.2669  -33.3665   26.1953 H   0  0  0  0  0  0
  -28.3934  -32.6790   25.0344 H   0  0  0  0  0  0
  -28.0651  -31.8498   26.5475 H   0  0  0  0  0  0
  -28.2545  -38.0106   24.7564 H   0  0  0  0  0  0
  -28.1109  -36.2635   24.6205 H   0  0  0  0  0  0
  -27.2306  -37.1310   25.8866 H   0  0  0  0  0  0
  -20.9464  -29.8775   21.6799 H   0  0  0  0  0  0
  -26.0126  -38.2803   24.1496 H   0  0  0  0  0  0
  -30.9723  -20.5185   21.7831 H   0  0  0  0  0  0
  -31.2846  -18.1031   21.7470 H   0  0  0  0  0  0
  -27.5822  -20.1552   19.2042 H   0  0  0  0  0  0
  -30.1810  -24.7370   21.3703 H   0  0  0  0  0  0
  -28.9774  -24.9026   22.6282 H   0  0  0  0  0  0
  -28.5104  -22.5178   22.6114 H   0  0  0  0  0  0
  -30.2415  -22.5510   22.3301 H   0  0  0  0  0  0
  -29.1354  -23.4884   18.9457 H   0  0  0  0  0  0
  -27.5066  -22.9572   19.2810 H   0  0  0  0  0  0
  -27.1868  -24.6017   21.0531 H   0  0  0  0  0  0
  -28.6743  -15.7065   20.5422 H   0  0  0  0  0  0
  1 25  1  0  0  0
  1 30  2  0  0  0
  1 82  1  0  0  0
  2  3  1  0  0  0
  2 25  1  0  0  0
  2 84  1  0  0  0
  2 85  1  0  0  0
  3  4  1  0  0  0
  3 86  1  0  0  0
  3 87  1  0  0  0
  4  5  1  0  0  0
  4 88  1  0  0  0
  4 89  1  0  0  0
  5  6  1  0  0  0
  5 26  1  0  0  0
  5 90  1  0  0  0
  6 25  1  0  0  0
  6 91  1  0  0  0
  6 92  1  0  0  0
  7  8  2  0  0  0
  7 26  1  0  0  0
  7 29  1  0  0  0
  8  9  1  0  0  0
  8 22  1  0  0  0
  9 10  1  0  0  0
  9 27  2  0  0  0
 10 11  2  0  0  0
 10 15  1  0  0  0
 11 12  1  0  0  0
 11 93  1  0  0  0
 12 13  2  0  0  0
 12 94  1  0  0  0
 13 14  1  0  0  0
 13 31  1  0  0  0
 14 15  2  0  0  0
 14 95  1  0  0  0
 15 96  1  0  0  0
 16 17  2  0  0  0
 16 21  1  0  0  0
 16 31  1  0  0  0
 17 18  1  0  0  0
 17 97  1  0  0  0
 18 19  2  0  0  0
 18 98  1  0  0  0
 19 20  1  0  0  0
 19 24  1  0  0  0
 20 21  2  0  0  0
 20 99  1  0  0  0
 21 23  1  0  0  0
 22 28  1  0  0  0
 22 32  2  0  0  0
 26 27  1  0  0  0
 28100  1  0  0  0
 28101  1  0  0  0
 29102  1  0  0  0
 29103  1  0  0  0
 33 34  1  0  0  0
 33 66  1  0  0  0
 33 70  2  0  0  0
 34 36  1  0  0  0
 34 59  1  0  0  0
 34104  1  0  0  0
 35 44  2  0  0  0
 35 45  1  0  0  0
 35 68  1  0  0  0
 36 56  1  0  0  0
 36105  1  0  0  0
 37 39  1  0  0  0
 37 47  1  0  0  0
 37 66  1  0  0  0
 37106  1  0  0  0
 38 43  2  0  0  0
 38 46  1  0  0  0
 38 47  1  0  0  0
 39 64  1  0  0  0
 39 67  2  0  0  0
 40 52  1  0  0  0
 40 53  2  0  0  0
 40 58  1  0  0  0
 41107  1  0  0  0
 41108  1  0  0  0
 41109  1  0  0  0
 41 48  1  0  0  0
 42 43  1  0  0  0
 42 66  1  0  0  0
 42110  1  0  0  0
 42111  1  0  0  0
 43 44  1  0  0  0
 44112  1  0  0  0
 45 46  2  0  0  0
 45113  1  0  0  0
 46114  1  0  0  0
 47115  1  0  0  0
 47116  1  0  0  0
 48 56  1  0  0  0
 48 65  1  0  0  0
 48117  1  0  0  0
 49 50  1  0  0  0
 49 53  1  0  0  0
 49 64  1  0  0  0
 49118  1  0  0  0
 50 51  1  0  0  0
 50119  1  0  0  0
 50120  1  0  0  0
 51 52  1  0  0  0
 51121  1  0  0  0
 51122  1  0  0  0
 52123  1  0  0  0
 52124  1  0  0  0
 53 54  1  0  0  0
 54 55  2  0  0  0
 54125  1  0  0  0
 55 57  1  0  0  0
 55126  1  0  0  0
 56 69  2  0  0  0
 57 58  2  0  0  0
 57127  1  0  0  0
 58128  1  0  0  0
 59 60  1  0  0  0
 59 61  1  0  0  0
 59 62  1  0  0  0
 60129  1  0  0  0
 60130  1  0  0  0
 60131  1  0  0  0
 61132  1  0  0  0
 61133  1  0  0  0
 61134  1  0  0  0
 62135  1  0  0  0
 62136  1  0  0  0
 62137  1  0  0  0
 63 65  1  0  0  0
 63138  1  0  0  0
 63139  1  0  0  0
 63140  1  0  0  0
 64141  1  0  0  0
 65142  1  0  0  0
 68 80  1  0  0  0
 71 72  2  0  0  0
 71 74  1  0  0  0
 71143  1  0  0  0
 72 75  1  0  0  0
 72144  1  0  0  0
 73 74  2  0  0  0
 73 76  1  0  0  0
 73145  1  0  0  0
 74 81  1  0  0  0
 75 76  2  0  0  0
 75 82  1  0  0  0
 76 83  1  0  0  0
 77 78  1  0  0  0
 77 80  1  0  0  0
 77146  1  0  0  0
 77147  1  0  0  0
 78 81  1  0  0  0
 78148  1  0  0  0
 78149  1  0  0  0
 79 80  1  0  0  0
 79 81  1  0  0  0
 79150  1  0  0  0
 79151  1  0  0  0
 80152  1  0  0  0
 82153  1  0  0  0
M  ISO  4   1 100  68 101  80 101  82 100
M  END
> <chiral flag>
0

> <version>
0

> <s_m_source_file>
/data/baiqing/PycharmProjects/Reinvent-master-3.2/result/LINK_invent/BTK/process_docking_weight1_custom_product_contain_oxygen_bond_distance_aromatic_linkinvent_7_9_3/rearranged_h_0007.sdf

> <i_m_source_file_index>
42

> <r_mmod_Potential_Energy-OPLS-2005>
511.134216308594

> <r_mmod_Stretch_Energy-OPLS-2005>
215.138229370117

> <r_mmod_Bend_Energy-OPLS-2005>
311.854766845703

> <r_mmod_Torsional_Energy-OPLS-2005>
297.146484375

> <r_mmod_Improper_Torsional_Energy-OPLS-2005>
6.74517917633057

> <r_mmod_Van_der_Waal_Energy-OPLS-2005>
122.15104675293

> <r_mmod_Electrostatic_Energy-OPLS-2005>
-410.138092041016

> <r_mmod_Solvation_Energy-OPLS-2005>
-221.11376953125

> <b_mmod_Minimization_Converged-OPLS-2005>
0

> <r_mmod_RMS_Derivative-OPLS-2005>
0.983909428119659

$$$$
42
                    3D
 Structure written by MMmdl.
142149  0  0  1  0            999 V2000
  -30.0350  -16.3435   20.2812 C   0  0  0  0  0  0
  -30.3499  -13.6251   19.5339 C   0  0  0  0  0  0
  -29.5680  -12.8656   18.3955 C   0  0  0  0  0  0
  -28.2107  -12.3480   18.8779 C   0  0  0  0  0  0
  -27.5778  -13.3901   19.8137 C   0  0  2  0  0  0
  -28.5389  -14.0124   20.8807 C   0  0  0  0  0  0
  -25.2215  -13.8411   20.5908 C   0  0  0  0  0  0
  -24.1683  -13.0449   20.9329 C   0  0  0  0  0  0
  -24.6497  -11.6998   20.8748 C   0  0  0  0  0  0
  -23.9210  -10.4309   21.0356 C   0  0  0  0  0  0
  -24.3712   -9.4217   21.9153 C   0  0  0  0  0  0
  -23.6349   -8.2268   22.0744 C   0  0  0  0  0  0
  -22.4323   -8.0310   21.3543 C   0  0  0  0  0  0
  -21.9990   -9.0287   20.4633 C   0  0  0  0  0  0
  -22.7359  -10.2146   20.3024 C   0  0  0  0  0  0
  -21.6869   -6.0756   22.5278 C   0  0  0  0  0  0
  -21.4026   -6.5650   23.8214 C   0  0  0  0  0  0
  -21.3663   -5.6799   24.9172 C   0  0  0  0  0  0
  -21.6045   -4.3061   24.7219 C   0  0  0  0  0  0
  -21.8817   -3.8158   23.4337 C   0  0  0  0  0  0
  -21.9197   -4.6981   22.3397 C   0  0  0  0  0  0
  -22.7671  -13.5109   21.1941 C   0  0  0  0  0  0
  -22.1662   -4.2165   21.0974 F   0  0  0  0  0  0
  -21.5628   -3.4541   25.7729 F   0  0  0  0  0  0
  -29.5865  -14.8567   20.1819 N   0  0  0  0  0  0
  -26.2781  -12.9910   20.3397 N   0  0  0  0  0  0
  -25.9485  -11.6883   20.5683 N   0  0  0  0  0  0
  -22.0364  -12.8060   22.0490 N   0  0  0  0  0  0
  -25.3679  -15.2169   20.4351 N   0  0  0  0  0  0
  -31.2823  -16.1507   20.2058 O   0  0  0  0  0  0
  -21.6666   -6.8914   21.4247 O   0  0  0  0  0  0
  -22.3315  -14.5398   20.6779 O   0  0  0  0  0  0
  -24.7296  -31.7412   23.1112 C   0  0  0  0  0  0
  -25.9642  -32.4180   23.7839 C   0  0  1  0  0  0
  -27.2514  -26.2085   20.2638 C   0  0  0  0  0  0
  -25.6018  -33.8034   24.1673 N   0  0  0  0  0  0
  -23.5783  -30.3195   21.4761 C   0  0  2  0  0  0
  -25.0413  -28.5529   20.1366 C   0  0  0  0  0  0
  -22.7970  -29.3996   22.4578 C   0  0  0  0  0  0
  -18.0369  -28.1445   22.8424 C   0  0  0  0  0  0
  -24.1502  -36.7036   23.2670 C   0  0  0  0  0  0
  -26.1746  -30.3074   21.4546 C   0  0  0  0  0  0
  -26.2330  -28.8148   20.8203 C   0  0  0  0  0  0
  -27.2933  -27.6865   20.8425 C   0  0  0  0  0  0
  -26.0298  -26.2883   19.5031 C   0  0  0  0  0  0
  -25.0075  -27.3188   19.4536 C   0  0  0  0  0  0
  -23.8604  -29.5678   20.1344 C   0  0  0  0  0  0
  -25.4169  -36.2728   24.0246 C   0  0  1  0  0  0
  -20.6022  -28.3824   23.1052 C   0  0  2  0  0  0
  -20.6807  -26.9438   22.5411 C   0  0  0  0  0  0
  -19.5796  -26.6353   21.5217 C   0  0  0  0  0  0
  -18.1977  -26.7963   22.1604 C   0  0  0  0  0  0
  -19.1645  -28.8970   23.2706 C   0  0  0  0  0  0
  -18.9544  -30.1541   23.8773 C   0  0  0  0  0  0
  -17.6528  -30.6612   24.0538 C   0  0  0  0  0  0
  -25.9172  -34.9130   23.4833 C   0  0  0  0  0  0
  -16.5415  -29.9084   23.6360 C   0  0  0  0  0  0
  -16.7346  -28.6512   23.0369 C   0  0  0  0  0  0
  -26.4671  -31.6430   25.0664 C   0  0  0  0  0  0
  -25.3609  -31.3878   26.1185 C   0  0  0  0  0  0
  -27.0689  -30.2720   24.6927 C   0  0  0  0  0  0
  -27.6019  -32.4416   25.7508 C   0  0  0  0  0  0
  -27.5542  -37.1683   24.8474 C   0  0  0  0  0  0
  -21.4574  -29.2975   22.3322 N   0  0  0  0  0  0
  -26.4260  -37.3534   23.9392 N   0  0  0  0  0  0
  -24.8571  -30.8354   22.0652 N   0  0  0  0  0  0
  -23.4184  -28.7683   23.3152 O   0  0  0  0  0  0
  -28.1913  -24.7931   20.2739 O   0  0  0  0  0  0
  -26.5881  -34.8800   22.4500 O   0  0  0  0  0  0
  -23.6215  -32.0722   23.5749 O   0  0  0  0  0  0
  -28.6432  -21.7527   20.2825 C   0  0  0  0  0  0
  -28.3252  -23.1412   20.2781 C   0  0  0  0  0  0
  -30.3526  -20.0983   21.5020 C   0  0  0  0  0  0
  -30.2895  -20.0834   19.0120 C   0  0  0  0  0  0
  -29.4302  -19.9351   20.2800 C   0  0  0  0  0  0
  -29.3095  -17.9142   20.2967 N   0  0  0  0  0  0
  -31.2731  -13.9881   19.0812 H   0  0  0  0  0  0
  -30.6924  -12.9243   20.2978 H   0  0  0  0  0  0
  -30.1668  -12.0446   17.9990 H   0  0  0  0  0  0
  -29.4081  -13.5548   17.5650 H   0  0  0  0  0  0
  -28.3693  -11.4190   19.4276 H   0  0  0  0  0  0
  -27.5559  -12.1121   18.0378 H   0  0  0  0  0  0
  -27.3507  -14.2120   19.1323 H   0  0  0  0  0  0
  -28.9541  -13.2548   21.5478 H   0  0  0  0  0  0
  -27.9752  -14.6842   21.5287 H   0  0  0  0  0  0
  -25.2844   -9.5684   22.4747 H   0  0  0  0  0  0
  -24.0038   -7.4666   22.7480 H   0  0  0  0  0  0
  -21.0916   -8.8826   19.8941 H   0  0  0  0  0  0
  -22.3816  -10.9686   19.6137 H   0  0  0  0  0  0
  -21.2023   -7.6158   23.9721 H   0  0  0  0  0  0
  -21.1485   -6.0526   25.9076 H   0  0  0  0  0  0
  -22.0591   -2.7620   23.2830 H   0  0  0  0  0  0
  -22.4042  -11.9755   22.4890 H   0  0  0  0  0  0
  -21.0955  -13.1014   22.2681 H   0  0  0  0  0  0
  -24.5917  -15.8604   20.5466 H   0  0  0  0  0  0
  -26.2158  -15.6671   20.1168 H   0  0  0  0  0  0
  -26.7784  -32.4547   23.0593 H   0  0  0  0  0  0
  -24.9993  -33.8991   24.9713 H   0  0  0  0  0  0
  -22.9327  -31.1686   21.2418 H   0  0  0  0  0  0
  -23.3775  -35.9352   23.3267 H   0  0  0  0  0  0
  -24.3545  -36.8791   22.2097 H   0  0  0  0  0  0
  -23.7267  -37.6181   23.6831 H   0  0  0  0  0  0
  -26.4269  -30.9942   20.6457 H   0  0  0  0  0  0
  -27.0092  -30.3950   22.1363 H   0  0  0  0  0  0
  -28.1826  -27.9188   21.4111 H   0  0  0  0  0  0
  -25.7969  -25.3982   18.9357 H   0  0  0  0  0  0
  -24.1283  -27.1010   18.8627 H   0  0  0  0  0  0
  -24.0771  -30.3051   19.3606 H   0  0  0  0  0  0
  -22.9562  -29.0579   19.7978 H   0  0  0  0  0  0
  -25.1410  -36.1423   25.0735 H   0  0  0  0  0  0
  -21.0088  -28.3486   24.1186 H   0  0  0  0  0  0
  -20.5617  -26.2463   23.3717 H   0  0  0  0  0  0
  -21.6666  -26.7298   22.1268 H   0  0  0  0  0  0
  -19.6943  -25.6231   21.1329 H   0  0  0  0  0  0
  -19.6757  -27.3092   20.6693 H   0  0  0  0  0  0
  -17.4251  -26.6708   21.4003 H   0  0  0  0  0  0
  -18.0346  -26.0133   22.9024 H   0  0  0  0  0  0
  -19.8021  -30.7384   24.2090 H   0  0  0  0  0  0
  -17.5078  -31.6276   24.5171 H   0  0  0  0  0  0
  -15.5410  -30.2950   23.7753 H   0  0  0  0  0  0
  -15.8747  -28.0793   22.7150 H   0  0  0  0  0  0
  -24.5869  -30.7150   25.7477 H   0  0  0  0  0  0
  -24.8720  -32.3133   26.4234 H   0  0  0  0  0  0
  -25.7680  -30.9297   27.0208 H   0  0  0  0  0  0
  -26.3497  -29.6168   24.2010 H   0  0  0  0  0  0
  -27.4007  -29.7381   25.5844 H   0  0  0  0  0  0
  -27.9513  -30.3741   24.0609 H   0  0  0  0  0  0
  -27.2494  -33.3851   26.1688 H   0  0  0  0  0  0
  -28.4026  -32.6766   25.0482 H   0  0  0  0  0  0
  -28.0472  -31.8823   26.5747 H   0  0  0  0  0  0
  -28.2533  -37.9996   24.7457 H   0  0  0  0  0  0
  -28.1062  -36.2506   24.6386 H   0  0  0  0  0  0
  -27.2241  -37.1407   25.8874 H   0  0  0  0  0  0
  -20.9996  -29.8563   21.6254 H   0  0  0  0  0  0
  -26.0045  -38.2571   24.1366 H   0  0  0  0  0  0
  -31.1295  -19.3334   21.5267 H   0  0  0  0  0  0
  -29.7841  -20.0144   22.4287 H   0  0  0  0  0  0
  -30.8620  -21.0632   21.5161 H   0  0  0  0  0  0
  -31.0450  -19.3005   18.9409 H   0  0  0  0  0  0
  -30.8198  -21.0364   18.9781 H   0  0  0  0  0  0
  -29.6697  -20.0214   18.1172 H   0  0  0  0  0  0
  -28.3195  -17.7051   20.3084 H   0  0  0  0  0  0
  1 25  1  0  0  0
  1 30  2  0  0  0
  1 76  1  0  0  0
  2  3  1  0  0  0
  2 25  1  0  0  0
  2 77  1  0  0  0
  2 78  1  0  0  0
  3  4  1  0  0  0
  3 79  1  0  0  0
  3 80  1  0  0  0
  4  5  1  0  0  0
  4 81  1  0  0  0
  4 82  1  0  0  0
  5  6  1  0  0  0
  5 26  1  0  0  0
  5 83  1  0  0  0
  6 25  1  0  0  0
  6 84  1  0  0  0
  6 85  1  0  0  0
  7  8  2  0  0  0
  7 26  1  0  0  0
  7 29  1  0  0  0
  8  9  1  0  0  0
  8 22  1  0  0  0
  9 10  1  0  0  0
  9 27  2  0  0  0
 10 11  2  0  0  0
 10 15  1  0  0  0
 11 12  1  0  0  0
 11 86  1  0  0  0
 12 13  2  0  0  0
 12 87  1  0  0  0
 13 14  1  0  0  0
 13 31  1  0  0  0
 14 15  2  0  0  0
 14 88  1  0  0  0
 15 89  1  0  0  0
 16 17  2  0  0  0
 16 21  1  0  0  0
 16 31  1  0  0  0
 17 18  1  0  0  0
 17 90  1  0  0  0
 18 19  2  0  0  0
 18 91  1  0  0  0
 19 20  1  0  0  0
 19 24  1  0  0  0
 20 21  2  0  0  0
 20 92  1  0  0  0
 21 23  1  0  0  0
 22 28  1  0  0  0
 22 32  2  0  0  0
 26 27  1  0  0  0
 28 93  1  0  0  0
 28 94  1  0  0  0
 29 95  1  0  0  0
 29 96  1  0  0  0
 33 34  1  0  0  0
 33 66  1  0  0  0
 33 70  2  0  0  0
 34 36  1  0  0  0
 34 59  1  0  0  0
 34 97  1  0  0  0
 35 44  2  0  0  0
 35 45  1  0  0  0
 35 68  1  0  0  0
 36 56  1  0  0  0
 36 98  1  0  0  0
 37 39  1  0  0  0
 37 47  1  0  0  0
 37 66  1  0  0  0
 37 99  1  0  0  0
 38 43  2  0  0  0
 38 46  1  0  0  0
 38 47  1  0  0  0
 39 64  1  0  0  0
 39 67  2  0  0  0
 40 52  1  0  0  0
 40 53  2  0  0  0
 40 58  1  0  0  0
 41100  1  0  0  0
 41101  1  0  0  0
 41102  1  0  0  0
 41 48  1  0  0  0
 42 43  1  0  0  0
 42 66  1  0  0  0
 42103  1  0  0  0
 42104  1  0  0  0
 43 44  1  0  0  0
 44105  1  0  0  0
 45 46  2  0  0  0
 45106  1  0  0  0
 46107  1  0  0  0
 47108  1  0  0  0
 47109  1  0  0  0
 48 56  1  0  0  0
 48 65  1  0  0  0
 48110  1  0  0  0
 49 50  1  0  0  0
 49 53  1  0  0  0
 49 64  1  0  0  0
 49111  1  0  0  0
 50 51  1  0  0  0
 50112  1  0  0  0
 50113  1  0  0  0
 51 52  1  0  0  0
 51114  1  0  0  0
 51115  1  0  0  0
 52116  1  0  0  0
 52117  1  0  0  0
 53 54  1  0  0  0
 54 55  2  0  0  0
 54118  1  0  0  0
 55 57  1  0  0  0
 55119  1  0  0  0
 56 69  2  0  0  0
 57 58  2  0  0  0
 57120  1  0  0  0
 58121  1  0  0  0
 59 60  1  0  0  0
 59 61  1  0  0  0
 59 62  1  0  0  0
 60122  1  0  0  0
 60123  1  0  0  0
 60124  1  0  0  0
 61125  1  0  0  0
 61126  1  0  0  0
 61127  1  0  0  0
 62128  1  0  0  0
 62129  1  0  0  0
 62130  1  0  0  0
 63 65  1  0  0  0
 63131  1  0  0  0
 63132  1  0  0  0
 63133  1  0  0  0
 64134  1  0  0  0
 65135  1  0  0  0
 68 72  1  0  0  0
 71 72  3  0  0  0
 71 75  1  0  0  0
 73136  1  0  0  0
 73137  1  0  0  0
 73138  1  0  0  0
 73 75  1  0  0  0
 74 75  1  0  0  0
 74139  1  0  0  0
 74140  1  0  0  0
 74141  1  0  0  0
 75 76  1  0  0  0
 76142  1  0  0  0
M  ISO  4   1 100  68 101  72 101  76 100
M  END
> <chiral flag>
0

> <version>
0

> <s_m_source_file>
/data/baiqing/PycharmProjects/Reinvent-master-3.2/result/LINK_invent/BTK/process_docking_weight1_custom_product_contain_oxygen_bond_distance_aromatic_linkinvent_7_9_3/rearranged_h_0007.sdf

> <i_m_source_file_index>
43

> <r_mmod_Potential_Energy-OPLS-2005>
5133.88134765625

> <r_mmod_Stretch_Energy-OPLS-2005>
2212.09814453125

> <r_mmod_Bend_Energy-OPLS-2005>
876.037109375

> <r_mmod_Torsional_Energy-OPLS-2005>
202.600036621094

> <r_mmod_Improper_Torsional_Energy-OPLS-2005>
4.29656887054443

> <r_mmod_Van_der_Waal_Energy-OPLS-2005>
117.772575378418

> <r_mmod_Electrostatic_Energy-OPLS-2005>
-320.274780273438

> <r_mmod_Solvation_Energy-OPLS-2005>
-216.720489501953

> <b_mmod_Minimization_Converged-OPLS-2005>
0

> <r_mmod_RMS_Derivative-OPLS-2005>
0.69040459394455

$$$$
43
                    3D
 Structure written by MMmdl.
137144  0  0  1  0            999 V2000
  -29.9622  -16.5635   20.2664 C   0  0  0  0  0  0
  -30.3146  -13.7964   19.5233 C   0  0  0  0  0  0
  -29.5702  -12.9451   18.4142 C   0  0  0  0  0  0
  -28.2376  -12.3814   18.9086 C   0  0  0  0  0  0
  -27.5746  -13.4257   19.8177 C   0  0  2  0  0  0
  -28.5152  -14.1357   20.8613 C   0  0  0  0  0  0
  -25.2174  -13.8479   20.5951 C   0  0  0  0  0  0
  -24.1675  -13.0467   20.9341 C   0  0  0  0  0  0
  -24.6541  -11.7031   20.8745 C   0  0  0  0  0  0
  -23.9255  -10.4321   21.0342 C   0  0  0  0  0  0
  -24.3739   -9.4228   21.9149 C   0  0  0  0  0  0
  -23.6364   -8.2283   22.0747 C   0  0  0  0  0  0
  -22.4340   -8.0323   21.3544 C   0  0  0  0  0  0
  -22.0014   -9.0304   20.4634 C   0  0  0  0  0  0
  -22.7395  -10.2158   20.3018 C   0  0  0  0  0  0
  -21.6878   -6.0765   22.5277 C   0  0  0  0  0  0
  -21.4033   -6.5657   23.8214 C   0  0  0  0  0  0
  -21.3665   -5.6802   24.9171 C   0  0  0  0  0  0
  -21.6043   -4.3064   24.7217 C   0  0  0  0  0  0
  -21.8816   -3.8163   23.4335 C   0  0  0  0  0  0
  -21.9200   -4.6987   22.3396 C   0  0  0  0  0  0
  -22.7650  -13.5092   21.1938 C   0  0  0  0  0  0
  -22.1663   -4.2170   21.0973 F   0  0  0  0  0  0
  -21.5624   -3.4543   25.7727 F   0  0  0  0  0  0
  -29.5188  -15.0444   20.1465 N   0  0  0  0  0  0
  -26.2805  -13.0063   20.3476 N   0  0  0  0  0  0
  -25.9548  -11.6990   20.5678 N   0  0  0  0  0  0
  -22.0351  -12.8040   22.0489 N   0  0  0  0  0  0
  -25.3555  -15.2242   20.4383 N   0  0  0  0  0  0
  -31.2063  -16.3142   20.2293 O   0  0  0  0  0  0
  -21.6677   -6.8928   21.4248 O   0  0  0  0  0  0
  -22.3283  -14.5375   20.6771 O   0  0  0  0  0  0
  -24.7449  -31.7216   23.0979 C   0  0  0  0  0  0
  -25.9712  -32.4091   23.7768 C   0  0  1  0  0  0
  -27.2626  -26.0606   20.2671 C   0  0  0  0  0  0
  -25.6018  -33.7953   24.1581 N   0  0  0  0  0  0
  -23.5996  -30.2922   21.4680 C   0  0  2  0  0  0
  -25.0624  -28.4936   20.1392 C   0  0  0  0  0  0
  -22.8035  -29.3895   22.4550 C   0  0  0  0  0  0
  -18.0376  -28.1454   22.8421 C   0  0  0  0  0  0
  -24.1496  -36.6992   23.2671 C   0  0  0  0  0  0
  -26.1999  -30.2411   21.4589 C   0  0  0  0  0  0
  -26.2597  -28.7329   20.8212 C   0  0  0  0  0  0
  -27.3097  -27.5690   20.8335 C   0  0  0  0  0  0
  -26.0272  -26.1946   19.5192 C   0  0  0  0  0  0
  -25.0234  -27.2541   19.4619 C   0  0  0  0  0  0
  -23.8874  -29.5253   20.1333 C   0  0  0  0  0  0
  -25.4170  -36.2677   24.0236 C   0  0  1  0  0  0
  -20.6038  -28.3836   23.1031 C   0  0  2  0  0  0
  -20.6806  -26.9436   22.5420 C   0  0  0  0  0  0
  -19.5796  -26.6348   21.5224 C   0  0  0  0  0  0
  -18.1977  -26.7969   22.1607 C   0  0  0  0  0  0
  -19.1657  -28.8984   23.2686 C   0  0  0  0  0  0
  -18.9553  -30.1552   23.8759 C   0  0  0  0  0  0
  -17.6536  -30.6619   24.0537 C   0  0  0  0  0  0
  -25.9187  -34.9084   23.4798 C   0  0  0  0  0  0
  -16.5422  -29.9090   23.6366 C   0  0  0  0  0  0
  -16.7352  -28.6518   23.0376 C   0  0  0  0  0  0
  -26.4693  -31.6408   25.0652 C   0  0  0  0  0  0
  -25.3596  -31.3898   26.1149 C   0  0  0  0  0  0
  -27.0730  -30.2690   24.7003 C   0  0  0  0  0  0
  -27.6017  -32.4426   25.7501 C   0  0  0  0  0  0
  -27.5543  -37.1648   24.8466 C   0  0  0  0  0  0
  -21.4628  -29.2949   22.3282 N   0  0  0  0  0  0
  -26.4242  -37.3509   23.9408 N   0  0  0  0  0  0
  -24.8802  -30.8007   22.0600 N   0  0  0  0  0  0
  -23.4175  -28.7613   23.3197 O   0  0  0  0  0  0
  -28.1668  -24.5661   20.3212 O   0  0  0  0  0  0
  -26.5925  -34.8791   22.4483 O   0  0  0  0  0  0
  -23.6336  -32.0588   23.5524 O   0  0  0  0  0  0
  -29.2006  -20.3375   20.3201 C   0  0  0  0  0  0
  -28.2004  -22.4649   20.2188 C   0  0  0  0  0  0
  -29.3170  -18.2279   20.2702 N   0  0  0  0  0  0
  -31.2155  -14.1817   19.0448 H   0  0  0  0  0  0
  -30.7050  -13.1434   20.3066 H   0  0  0  0  0  0
  -30.2109  -12.1390   18.0541 H   0  0  0  0  0  0
  -29.3823  -13.5901   17.5547 H   0  0  0  0  0  0
  -28.4305  -11.4738   19.4819 H   0  0  0  0  0  0
  -27.5913  -12.1016   18.0755 H   0  0  0  0  0  0
  -27.3204  -14.2160   19.1091 H   0  0  0  0  0  0
  -28.9720  -13.4238   21.5512 H   0  0  0  0  0  0
  -27.9168  -14.7884   21.4973 H   0  0  0  0  0  0
  -25.2871   -9.5690   22.4748 H   0  0  0  0  0  0
  -24.0047   -7.4683   22.7489 H   0  0  0  0  0  0
  -21.0938   -8.8851   19.8945 H   0  0  0  0  0  0
  -22.3854  -10.9697   19.6127 H   0  0  0  0  0  0
  -21.2035   -7.6165   23.9725 H   0  0  0  0  0  0
  -21.1486   -6.0529   25.9075 H   0  0  0  0  0  0
  -22.0587   -2.7625   23.2829 H   0  0  0  0  0  0
  -22.4039  -11.9742   22.4895 H   0  0  0  0  0  0
  -21.0937  -13.0980   22.2674 H   0  0  0  0  0  0
  -24.5768  -15.8638   20.5540 H   0  0  0  0  0  0
  -26.2060  -15.6839   20.1380 H   0  0  0  0  0  0
  -26.7876  -32.4443   23.0543 H   0  0  0  0  0  0
  -24.9961  -33.8879   24.9601 H   0  0  0  0  0  0
  -22.9629  -31.1444   21.2211 H   0  0  0  0  0  0
  -23.3792  -35.9283   23.3224 H   0  0  0  0  0  0
  -24.3542  -36.8804   22.2107 H   0  0  0  0  0  0
  -23.7229  -37.6104   23.6874 H   0  0  0  0  0  0
  -26.4659  -30.9211   20.6487 H   0  0  0  0  0  0
  -27.0298  -30.3291   22.1459 H   0  0  0  0  0  0
  -28.1985  -27.7908   21.4071 H   0  0  0  0  0  0
  -25.7596  -25.3099   18.9588 H   0  0  0  0  0  0
  -24.1415  -27.0455   18.8719 H   0  0  0  0  0  0
  -24.1127  -30.2559   19.3556 H   0  0  0  0  0  0
  -22.9802  -29.0216   19.7958 H   0  0  0  0  0  0
  -25.1411  -36.1346   25.0723 H   0  0  0  0  0  0
  -21.0093  -28.3507   24.1170 H   0  0  0  0  0  0
  -20.5606  -26.2478   23.3738 H   0  0  0  0  0  0
  -21.6663  -26.7276   22.1281 H   0  0  0  0  0  0
  -19.6940  -25.6222   21.1342 H   0  0  0  0  0  0
  -19.6763  -27.3084   20.6699 H   0  0  0  0  0  0
  -17.4253  -26.6718   21.4002 H   0  0  0  0  0  0
  -18.0338  -26.0144   22.9029 H   0  0  0  0  0  0
  -19.8031  -30.7398   24.2071 H   0  0  0  0  0  0
  -17.5087  -31.6284   24.5168 H   0  0  0  0  0  0
  -15.5417  -30.2952   23.7771 H   0  0  0  0  0  0
  -15.8752  -28.0794   22.7169 H   0  0  0  0  0  0
  -24.5845  -30.7190   25.7424 H   0  0  0  0  0  0
  -24.8725  -32.3171   26.4173 H   0  0  0  0  0  0
  -25.7627  -30.9316   27.0189 H   0  0  0  0  0  0
  -26.3552  -29.6093   24.2123 H   0  0  0  0  0  0
  -27.4038  -29.7408   25.5956 H   0  0  0  0  0  0
  -27.9570  -30.3690   24.0706 H   0  0  0  0  0  0
  -27.2476  -33.3875   26.1635 H   0  0  0  0  0  0
  -28.4042  -32.6752   25.0488 H   0  0  0  0  0  0
  -28.0450  -31.8868   26.5774 H   0  0  0  0  0  0
  -28.2488  -38.0006   24.7515 H   0  0  0  0  0  0
  -28.1107  -36.2518   24.6291 H   0  0  0  0  0  0
  -27.2256  -37.1265   25.8866 H   0  0  0  0  0  0
  -21.0089  -29.8498   21.6159 H   0  0  0  0  0  0
  -26.0011  -38.2526   24.1435 H   0  0  0  0  0  0
  -30.0015  -20.5173   19.6027 H   0  0  0  0  0  0
  -29.6902  -20.4553   21.2869 H   0  0  0  0  0  0
  -27.7199  -22.3753   19.2446 H   0  0  0  0  0  0
  -27.3860  -22.2933   20.9225 H   0  0  0  0  0  0
  -30.3181  -18.3884   20.2986 H   0  0  0  0  0  0
  1 25  1  0  0  0
  1 30  2  0  0  0
  1 73  1  0  0  0
  2  3  1  0  0  0
  2 25  1  0  0  0
  2 74  1  0  0  0
  2 75  1  0  0  0
  3  4  1  0  0  0
  3 76  1  0  0  0
  3 77  1  0  0  0
  4  5  1  0  0  0
  4 78  1  0  0  0
  4 79  1  0  0  0
  5  6  1  0  0  0
  5 26  1  0  0  0
  5 80  1  0  0  0
  6 25  1  0  0  0
  6 81  1  0  0  0
  6 82  1  0  0  0
  7  8  2  0  0  0
  7 26  1  0  0  0
  7 29  1  0  0  0
  8  9  1  0  0  0
  8 22  1  0  0  0
  9 10  1  0  0  0
  9 27  2  0  0  0
 10 11  2  0  0  0
 10 15  1  0  0  0
 11 12  1  0  0  0
 11 83  1  0  0  0
 12 13  2  0  0  0
 12 84  1  0  0  0
 13 14  1  0  0  0
 13 31  1  0  0  0
 14 15  2  0  0  0
 14 85  1  0  0  0
 15 86  1  0  0  0
 16 17  2  0  0  0
 16 21  1  0  0  0
 16 31  1  0  0  0
 17 18  1  0  0  0
 17 87  1  0  0  0
 18 19  2  0  0  0
 18 88  1  0  0  0
 19 20  1  0  0  0
 19 24  1  0  0  0
 20 21  2  0  0  0
 20 89  1  0  0  0
 21 23  1  0  0  0
 22 28  1  0  0  0
 22 32  2  0  0  0
 26 27  1  0  0  0
 28 90  1  0  0  0
 28 91  1  0  0  0
 29 92  1  0  0  0
 29 93  1  0  0  0
 33 34  1  0  0  0
 33 66  1  0  0  0
 33 70  2  0  0  0
 34 36  1  0  0  0
 34 59  1  0  0  0
 34 94  1  0  0  0
 35 44  2  0  0  0
 35 45  1  0  0  0
 35 68  1  0  0  0
 36 56  1  0  0  0
 36 95  1  0  0  0
 37 39  1  0  0  0
 37 47  1  0  0  0
 37 66  1  0  0  0
 37 96  1  0  0  0
 38 43  2  0  0  0
 38 46  1  0  0  0
 38 47  1  0  0  0
 39 64  1  0  0  0
 39 67  2  0  0  0
 40 52  1  0  0  0
 40 53  2  0  0  0
 40 58  1  0  0  0
 41 97  1  0  0  0
 41 98  1  0  0  0
 41 99  1  0  0  0
 41 48  1  0  0  0
 42 43  1  0  0  0
 42 66  1  0  0  0
 42100  1  0  0  0
 42101  1  0  0  0
 43 44  1  0  0  0
 44102  1  0  0  0
 45 46  2  0  0  0
 45103  1  0  0  0
 46104  1  0  0  0
 47105  1  0  0  0
 47106  1  0  0  0
 48 56  1  0  0  0
 48 65  1  0  0  0
 48107  1  0  0  0
 49 50  1  0  0  0
 49 53  1  0  0  0
 49 64  1  0  0  0
 49108  1  0  0  0
 50 51  1  0  0  0
 50109  1  0  0  0
 50110  1  0  0  0
 51 52  1  0  0  0
 51111  1  0  0  0
 51112  1  0  0  0
 52113  1  0  0  0
 52114  1  0  0  0
 53 54  1  0  0  0
 54 55  2  0  0  0
 54115  1  0  0  0
 55 57  1  0  0  0
 55116  1  0  0  0
 56 69  2  0  0  0
 57 58  2  0  0  0
 57117  1  0  0  0
 58118  1  0  0  0
 59 60  1  0  0  0
 59 61  1  0  0  0
 59 62  1  0  0  0
 60119  1  0  0  0
 60120  1  0  0  0
 60121  1  0  0  0
 61122  1  0  0  0
 61123  1  0  0  0
 61124  1  0  0  0
 62125  1  0  0  0
 62126  1  0  0  0
 62127  1  0  0  0
 63 65  1  0  0  0
 63128  1  0  0  0
 63129  1  0  0  0
 63130  1  0  0  0
 64131  1  0  0  0
 65132  1  0  0  0
 68 72  1  0  0  0
 71 72  1  0  0  0
 71 73  1  0  0  0
 71133  1  0  0  0
 71134  1  0  0  0
 72135  1  0  0  0
 72136  1  0  0  0
 73137  1  0  0  0
M  ISO  4   1 100  68 101  72 101  73 100
M  END
> <chiral flag>
0

> <version>
0

> <s_m_source_file>
/data/baiqing/PycharmProjects/Reinvent-master-3.2/result/LINK_invent/BTK/process_docking_weight1_custom_product_contain_oxygen_bond_distance_aromatic_linkinvent_7_9_3/rearranged_h_0007.sdf

> <i_m_source_file_index>
44

> <r_mmod_Potential_Energy-OPLS-2005>
6948.9697265625

> <r_mmod_Stretch_Energy-OPLS-2005>
3136.46411132812

> <r_mmod_Bend_Energy-OPLS-2005>
1268.50207519531

> <r_mmod_Torsional_Energy-OPLS-2005>
217.324829101562

> <r_mmod_Improper_Torsional_Energy-OPLS-2005>
4.82364273071289

> <r_mmod_Van_der_Waal_Energy-OPLS-2005>
120.95548248291

> <r_mmod_Electrostatic_Energy-OPLS-2005>
-391.247985839844

> <r_mmod_Solvation_Energy-OPLS-2005>
-221.174652099609

> <b_mmod_Minimization_Converged-OPLS-2005>
1

> <r_mmod_RMS_Derivative-OPLS-2005>
0.042349461466074

$$$$
44
                    3D
 Structure written by MMmdl.
155164  0  0  1  0            999 V2000
  -30.5302  -15.0580   20.3639 C   0  0  0  0  0  0
  -30.4342  -12.6639   19.4829 C   0  0  0  0  0  0
  -29.5146  -12.5196   18.2500 C   0  0  0  0  0  0
  -28.0564  -12.2829   18.6857 C   0  0  0  0  0  0
  -27.6116  -13.2411   19.8197 C   0  0  2  0  0  0
  -28.6627  -13.3644   20.9408 C   0  0  0  0  0  0
  -25.2434  -13.8194   20.5755 C   0  0  0  0  0  0
  -24.1752  -13.0428   20.9272 C   0  0  0  0  0  0
  -24.6361  -11.6909   20.8791 C   0  0  0  0  0  0
  -23.9039  -10.4289   21.0449 C   0  0  0  0  0  0
  -24.3607   -9.4196   21.9200 C   0  0  0  0  0  0
  -23.6298   -8.2226   22.0743 C   0  0  0  0  0  0
  -22.4265   -8.0280   21.3552 C   0  0  0  0  0  0
  -21.9903   -9.0251   20.4653 C   0  0  0  0  0  0
  -22.7227  -10.2136   20.3085 C   0  0  0  0  0  0
  -21.6845   -6.0737   22.5281 C   0  0  0  0  0  0
  -21.4011   -6.5636   23.8220 C   0  0  0  0  0  0
  -21.3661   -5.6783   24.9178 C   0  0  0  0  0  0
  -21.6051   -4.3047   24.7226 C   0  0  0  0  0  0
  -21.8820   -3.8144   23.4343 C   0  0  0  0  0  0
  -21.9191   -4.6969   22.3399 C   0  0  0  0  0  0
  -22.7769  -13.5204   21.1906 C   0  0  0  0  0  0
  -22.1661   -4.2149   21.0982 F   0  0  0  0  0  0
  -21.5627   -3.4532   25.7738 F   0  0  0  0  0  0
  -29.9118  -13.8004   20.2992 N   0  0  0  0  0  0
  -26.2815  -12.9380   20.3260 N   0  0  0  0  0  0
  -25.9286  -11.6526   20.5763 N   0  0  0  0  0  0
  -22.0403  -12.8211   22.0469 N   0  0  0  0  0  0
  -25.4141  -15.1925   20.4221 N   0  0  0  0  0  0
  -31.7646  -15.0446   20.2731 O   0  0  0  0  0  0
  -21.6636   -6.8874   21.4242 O   0  0  0  0  0  0
  -22.3465  -14.5506   20.6734 O   0  0  0  0  0  0
  -24.6527  -31.8359   23.1792 C   0  0  0  0  0  0
  -25.9266  -32.4644   23.8209 C   0  0  1  0  0  0
  -27.2169  -27.0582   20.1570 C   0  0  0  0  0  0
  -25.5978  -33.8449   24.2129 N   0  0  0  0  0  0
  -23.4594  -30.4512   21.5280 C   0  0  2  0  0  0
  -24.9076  -28.8629   20.1102 C   0  0  0  0  0  0
  -22.7620  -29.4493   22.4837 C   0  0  0  0  0  0
  -18.0318  -28.1398   22.8468 C   0  0  0  0  0  0
  -24.1492  -36.7227   23.2641 C   0  0  0  0  0  0
  -26.0201  -30.6833   21.3892 C   0  0  0  0  0  0
  -26.0889  -29.2871   20.7305 C   0  0  0  0  0  0
  -27.2439  -28.4040   20.7299 C   0  0  0  0  0  0
  -26.0044  -26.7519   19.5002 C   0  0  0  0  0  0
  -24.8823  -27.6108   19.4785 C   0  0  0  0  0  0
  -23.6892  -29.7758   20.1498 C   0  0  0  0  0  0
  -25.4126  -36.2993   24.0307 C   0  0  1  0  0  0
  -20.5932  -28.3726   23.1215 C   0  0  2  0  0  0
  -20.6793  -26.9420   22.5399 C   0  0  0  0  0  0
  -19.5760  -26.6375   21.5213 C   0  0  0  0  0  0
  -18.1946  -26.7933   22.1628 C   0  0  0  0  0  0
  -19.1576  -28.8882   23.2830 C   0  0  0  0  0  0
  -18.9490  -30.1478   23.8852 C   0  0  0  0  0  0
  -17.6482  -30.6584   24.0556 C   0  0  0  0  0  0
  -25.9082  -34.9383   23.5031 C   0  0  0  0  0  0
  -16.5371  -29.9073   23.6338 C   0  0  0  0  0  0
  -16.7304  -28.6500   23.0350 C   0  0  0  0  0  0
  -26.4555  -31.6537   25.0687 C   0  0  0  0  0  0
  -25.3727  -31.3769   26.1382 C   0  0  0  0  0  0
  -27.0438  -30.2924   24.6323 C   0  0  0  0  0  0
  -27.6053  -32.4338   25.7489 C   0  0  0  0  0  0
  -27.5564  -37.1776   24.8474 C   0  0  0  0  0  0
  -21.4303  -29.3040   22.3583 N   0  0  0  0  0  0
  -26.4279  -37.3722   23.9405 N   0  0  0  0  0  0
  -24.7308  -31.0144   22.0862 N   0  0  0  0  0  0
  -23.4237  -28.8051   23.3011 O   0  0  0  0  0  0
  -28.2579  -26.0337   20.2123 O   0  0  0  0  0  0
  -26.5670  -34.8891   22.4612 O   0  0  0  0  0  0
  -23.5624  -32.1269   23.6964 O   0  0  0  0  0  0
  -28.7275  -17.9286   18.7056 C   0  0  0  0  0  0
  -29.0469  -16.6709   19.1673 C   0  0  0  0  0  0
  -30.0326  -17.6218   21.1651 C   0  0  0  0  0  0
  -28.4285  -20.6616   19.1723 C   0  0  0  0  0  0
  -29.6020  -20.5733   21.2240 C   0  0  0  0  0  0
  -29.2853  -19.2951   19.1801 C   0  0  1  0  0  0
  -30.0065  -19.1579   20.4997 C   0  0  2  0  0  0
  -29.0881  -23.1301   20.2283 C   0  0  0  0  0  0
  -27.9884  -24.4606   20.1547 C   0  0  0  0  0  0
  -29.8171  -16.3265   20.3166 N   0  0  0  0  0  0
  -28.7458  -21.5452   20.3644 N   0  3  1  0  0  0
  -31.4596  -12.8417   19.1541 H   0  0  0  0  0  0
  -30.4602  -11.7415   20.0668 H   0  0  0  0  0  0
  -29.8536  -11.6950   17.6212 H   0  0  0  0  0  0
  -29.5775  -13.4203   17.6372 H   0  0  0  0  0  0
  -27.9848  -11.2500   19.0319 H   0  0  0  0  0  0
  -27.3859  -12.3608   17.8292 H   0  0  0  0  0  0
  -27.5219  -14.2116   19.3429 H   0  0  0  0  0  0
  -28.7898  -12.4215   21.4750 H   0  0  0  0  0  0
  -28.3450  -14.1052   21.6771 H   0  0  0  0  0  0
  -25.2761   -9.5670   22.4760 H   0  0  0  0  0  0
  -24.0017   -7.4609   22.7438 H   0  0  0  0  0  0
  -21.0833   -8.8781   19.8960 H   0  0  0  0  0  0
  -22.3697  -10.9676   19.6192 H   0  0  0  0  0  0
  -21.2006   -7.6141   23.9725 H   0  0  0  0  0  0
  -21.1473   -6.0511   25.9083 H   0  0  0  0  0  0
  -22.0600   -2.7601   23.2841 H   0  0  0  0  0  0
  -22.3995  -11.9890   22.4905 H   0  0  0  0  0  0
  -21.1015  -13.1245   22.2630 H   0  0  0  0  0  0
  -24.6510  -15.8481   20.5509 H   0  0  0  0  0  0
  -26.2779  -15.6410   20.1429 H   0  0  0  0  0  0
  -26.7338  -32.5220   23.0926 H   0  0  0  0  0  0
  -25.0123  -33.9549   25.0277 H   0  0  0  0  0  0
  -22.7657  -31.2788   21.3667 H   0  0  0  0  0  0
  -23.3747  -35.9571   23.3311 H   0  0  0  0  0  0
  -24.3557  -36.8856   22.2051 H   0  0  0  0  0  0
  -23.7266  -37.6428   23.6682 H   0  0  0  0  0  0
  -26.1867  -31.4306   20.6119 H   0  0  0  0  0  0
  -26.8877  -30.7328   22.0364 H   0  0  0  0  0  0
  -28.1426  -28.7249   21.2369 H   0  0  0  0  0  0
  -25.8864  -25.7978   19.0113 H   0  0  0  0  0  0
  -23.9806  -27.2804   18.9810 H   0  0  0  0  0  0
  -23.8361  -30.5470   19.3927 H   0  0  0  0  0  0
  -22.8025  -29.2232   19.8353 H   0  0  0  0  0  0
  -25.1326  -36.1799   25.0802 H   0  0  0  0  0  0
  -21.0019  -28.3307   24.1341 H   0  0  0  0  0  0
  -20.5675  -26.2337   23.3627 H   0  0  0  0  0  0
  -21.6656  -26.7406   22.1201 H   0  0  0  0  0  0
  -19.6912  -25.6283   21.1247 H   0  0  0  0  0  0
  -19.6688  -27.3184   20.6743 H   0  0  0  0  0  0
  -17.4216  -26.6677   21.4032 H   0  0  0  0  0  0
  -18.0335  -26.0088   22.9036 H   0  0  0  0  0  0
  -19.7969  -30.7311   24.2186 H   0  0  0  0  0  0
  -17.5038  -31.6260   24.5172 H   0  0  0  0  0  0
  -15.5369  -30.2963   23.7689 H   0  0  0  0  0  0
  -15.8708  -28.0815   22.7070 H   0  0  0  0  0  0
  -24.5895  -30.7123   25.7711 H   0  0  0  0  0  0
  -24.8934  -32.2975   26.4730 H   0  0  0  0  0  0
  -25.8003  -30.8992   27.0210 H   0  0  0  0  0  0
  -26.3083  -29.6620   24.1310 H   0  0  0  0  0  0
  -27.4009  -29.7252   25.4924 H   0  0  0  0  0  0
  -27.9006  -30.4138   23.9692 H   0  0  0  0  0  0
  -27.2605  -33.3656   26.1995 H   0  0  0  0  0  0
  -28.3906  -32.6882   25.0352 H   0  0  0  0  0  0
  -28.0687  -31.8520   26.5472 H   0  0  0  0  0  0
  -28.2600  -38.0049   24.7472 H   0  0  0  0  0  0
  -28.1037  -36.2576   24.6369 H   0  0  0  0  0  0
  -27.2271  -37.1510   25.8874 H   0  0  0  0  0  0
  -20.9530  -29.8765   21.6762 H   0  0  0  0  0  0
  -26.0130  -38.2789   24.1389 H   0  0  0  0  0  0
  -28.1040  -17.9842   17.8244 H   0  0  0  0  0  0
  -28.6625  -15.8099   18.6469 H   0  0  0  0  0  0
  -29.2357  -17.5905   21.9081 H   0  0  0  0  0  0
  -30.9442  -17.5083   21.7528 H   0  0  0  0  0  0
  -27.3652  -20.4250   19.2172 H   0  0  0  0  0  0
  -28.5785  -21.2079   18.2405 H   0  0  0  0  0  0
  -29.0221  -20.3454   22.1177 H   0  0  0  0  0  0
  -30.4998  -21.0839   21.5739 H   0  0  0  0  0  0
  -30.0605  -19.4853   18.4357 H   0  0  0  0  0  0
  -31.0595  -19.3048   20.2517 H   0  0  0  0  0  0
  -29.7081  -23.3464   21.0984 H   0  0  0  0  0  0
  -29.7704  -23.2246   19.3836 H   0  0  0  0  0  0
  -27.4287  -24.2929   19.2361 H   0  0  0  0  0  0
  -27.2703  -24.2871   20.9555 H   0  0  0  0  0  0
  -27.8698  -21.5523   20.8678 H   0  0  0  0  0  0
  1 25  1  0  0  0
  1 30  2  0  0  0
  1 80  1  0  0  0
  2  3  1  0  0  0
  2 25  1  0  0  0
  2 82  1  0  0  0
  2 83  1  0  0  0
  3  4  1  0  0  0
  3 84  1  0  0  0
  3 85  1  0  0  0
  4  5  1  0  0  0
  4 86  1  0  0  0
  4 87  1  0  0  0
  5  6  1  0  0  0
  5 26  1  0  0  0
  5 88  1  0  0  0
  6 25  1  0  0  0
  6 89  1  0  0  0
  6 90  1  0  0  0
  7  8  2  0  0  0
  7 26  1  0  0  0
  7 29  1  0  0  0
  8  9  1  0  0  0
  8 22  1  0  0  0
  9 10  1  0  0  0
  9 27  2  0  0  0
 10 11  2  0  0  0
 10 15  1  0  0  0
 11 12  1  0  0  0
 11 91  1  0  0  0
 12 13  2  0  0  0
 12 92  1  0  0  0
 13 14  1  0  0  0
 13 31  1  0  0  0
 14 15  2  0  0  0
 14 93  1  0  0  0
 15 94  1  0  0  0
 16 17  2  0  0  0
 16 21  1  0  0  0
 16 31  1  0  0  0
 17 18  1  0  0  0
 17 95  1  0  0  0
 18 19  2  0  0  0
 18 96  1  0  0  0
 19 20  1  0  0  0
 19 24  1  0  0  0
 20 21  2  0  0  0
 20 97  1  0  0  0
 21 23  1  0  0  0
 22 28  1  0  0  0
 22 32  2  0  0  0
 26 27  1  0  0  0
 28 98  1  0  0  0
 28 99  1  0  0  0
 29100  1  0  0  0
 29101  1  0  0  0
 33 34  1  0  0  0
 33 66  1  0  0  0
 33 70  2  0  0  0
 34 36  1  0  0  0
 34 59  1  0  0  0
 34102  1  0  0  0
 35 44  2  0  0  0
 35 45  1  0  0  0
 35 68  1  0  0  0
 36 56  1  0  0  0
 36103  1  0  0  0
 37 39  1  0  0  0
 37 47  1  0  0  0
 37 66  1  0  0  0
 37104  1  0  0  0
 38 43  2  0  0  0
 38 46  1  0  0  0
 38 47  1  0  0  0
 39 64  1  0  0  0
 39 67  2  0  0  0
 40 52  1  0  0  0
 40 53  2  0  0  0
 40 58  1  0  0  0
 41105  1  0  0  0
 41106  1  0  0  0
 41107  1  0  0  0
 41 48  1  0  0  0
 42 43  1  0  0  0
 42 66  1  0  0  0
 42108  1  0  0  0
 42109  1  0  0  0
 43 44  1  0  0  0
 44110  1  0  0  0
 45 46  2  0  0  0
 45111  1  0  0  0
 46112  1  0  0  0
 47113  1  0  0  0
 47114  1  0  0  0
 48 56  1  0  0  0
 48 65  1  0  0  0
 48115  1  0  0  0
 49 50  1  0  0  0
 49 53  1  0  0  0
 49 64  1  0  0  0
 49116  1  0  0  0
 50 51  1  0  0  0
 50117  1  0  0  0
 50118  1  0  0  0
 51 52  1  0  0  0
 51119  1  0  0  0
 51120  1  0  0  0
 52121  1  0  0  0
 52122  1  0  0  0
 53 54  1  0  0  0
 54 55  2  0  0  0
 54123  1  0  0  0
 55 57  1  0  0  0
 55124  1  0  0  0
 56 69  2  0  0  0
 57 58  2  0  0  0
 57125  1  0  0  0
 58126  1  0  0  0
 59 60  1  0  0  0
 59 61  1  0  0  0
 59 62  1  0  0  0
 60127  1  0  0  0
 60128  1  0  0  0
 60129  1  0  0  0
 61130  1  0  0  0
 61131  1  0  0  0
 61132  1  0  0  0
 62133  1  0  0  0
 62134  1  0  0  0
 62135  1  0  0  0
 63 65  1  0  0  0
 63136  1  0  0  0
 63137  1  0  0  0
 63138  1  0  0  0
 64139  1  0  0  0
 65140  1  0  0  0
 68 79  1  0  0  0
 71 72  2  0  0  0
 71 76  1  0  0  0
 71141  1  0  0  0
 72 80  1  0  0  0
 72142  1  0  0  0
 73 80  1  0  0  0
 73143  1  0  0  0
 73144  1  0  0  0
 73 77  1  0  0  0
 74 81  1  0  0  0
 74145  1  0  0  0
 74146  1  0  0  0
 74 76  1  0  0  0
 75 77  1  0  0  0
 75 81  1  0  0  0
 75147  1  0  0  0
 75148  1  0  0  0
 76 77  1  0  0  0
 76149  1  0  0  0
 77150  1  0  0  0
 78 79  1  0  0  0
 78151  1  0  0  0
 78152  1  0  0  0
 78 81  1  0  0  0
 79153  1  0  0  0
 79154  1  0  0  0
 81155  1  0  0  0
M  CHG  1  81   1
M  ISO  4   1 100  68 101  79 101  80 100
M  END
> <chiral flag>
0

> <version>
0

> <s_m_source_file>
/data/baiqing/PycharmProjects/Reinvent-master-3.2/result/LINK_invent/BTK/process_docking_weight1_custom_product_contain_oxygen_bond_distance_aromatic_linkinvent_7_9_3/rearranged_h_0007.sdf

> <i_m_source_file_index>
45

> <r_mmod_Potential_Energy-OPLS-2005>
881.268432617188

> <r_mmod_Stretch_Energy-OPLS-2005>
320.828002929688

> <r_mmod_Bend_Energy-OPLS-2005>
349.532867431641

> <r_mmod_Torsional_Energy-OPLS-2005>
398.406280517578

> <r_mmod_Improper_Torsional_Energy-OPLS-2005>
5.13866758346558

> <r_mmod_Van_der_Waal_Energy-OPLS-2005>
113.34245300293

> <r_mmod_Electrostatic_Energy-OPLS-2005>
-153.198104858398

> <r_mmod_Solvation_Energy-OPLS-2005>
-431.394958496094

> <b_mmod_Minimization_Converged-OPLS-2005>
0

> <r_mmod_RMS_Derivative-OPLS-2005>
2.77145338058472

$$$$
45
                    3D
 Structure written by MMmdl.
152161  0  0  1  0            999 V2000
  -30.5088  -14.9329   20.4132 C   0  0  0  0  0  0
  -30.4520  -12.5725   19.4863 C   0  0  0  0  0  0
  -29.5222  -12.5301   18.2492 C   0  0  0  0  0  0
  -28.0560  -12.3144   18.6711 C   0  0  0  0  0  0
  -27.6380  -13.2375   19.8435 C   0  0  2  0  0  0
  -28.6841  -13.2326   20.9797 C   0  0  0  0  0  0
  -25.2515  -13.8204   20.5711 C   0  0  0  0  0  0
  -24.1807  -13.0453   20.9231 C   0  0  0  0  0  0
  -24.6403  -11.6930   20.8759 C   0  0  0  0  0  0
  -23.9072  -10.4306   21.0412 C   0  0  0  0  0  0
  -24.3617   -9.4218   21.9186 C   0  0  0  0  0  0
  -23.6290   -8.2254   22.0753 C   0  0  0  0  0  0
  -22.4270   -8.0291   21.3545 C   0  0  0  0  0  0
  -21.9899   -9.0273   20.4650 C   0  0  0  0  0  0
  -22.7239  -10.2147   20.3064 C   0  0  0  0  0  0
  -21.6858   -6.0725   22.5276 C   0  0  0  0  0  0
  -21.4014   -6.5626   23.8207 C   0  0  0  0  0  0
  -21.3666   -5.6782   24.9169 C   0  0  0  0  0  0
  -21.6048   -4.3043   24.7234 C   0  0  0  0  0  0
  -21.8820   -3.8135   23.4351 C   0  0  0  0  0  0
  -21.9197   -4.6947   22.3400 C   0  0  0  0  0  0
  -22.7832  -13.5240   21.1896 C   0  0  0  0  0  0
  -22.1666   -4.2129   21.0980 F   0  0  0  0  0  0
  -21.5627   -3.4535   25.7752 F   0  0  0  0  0  0
  -29.9657  -13.6510   20.3903 N   0  0  0  0  0  0
  -26.2930  -12.9412   20.3265 N   0  0  0  0  0  0
  -25.9334  -11.6555   20.5742 N   0  0  0  0  0  0
  -22.0463  -12.8238   22.0441 N   0  0  0  0  0  0
  -25.4192  -15.1934   20.4115 N   0  0  0  0  0  0
  -31.6986  -15.0638   20.0990 O   0  0  0  0  0  0
  -21.6640   -6.8883   21.4242 O   0  0  0  0  0  0
  -22.3531  -14.5553   20.6751 O   0  0  0  0  0  0
  -24.6449  -31.8436   23.1890 C   0  0  0  0  0  0
  -25.9215  -32.4696   23.8285 C   0  0  1  0  0  0
  -27.2198  -27.1261   20.1400 C   0  0  0  0  0  0
  -25.5965  -33.8502   24.2204 N   0  0  0  0  0  0
  -23.4501  -30.4633   21.5348 C   0  0  2  0  0  0
  -24.9014  -28.8938   20.1064 C   0  0  0  0  0  0
  -22.7584  -29.4538   22.4854 C   0  0  0  0  0  0
  -18.0312  -28.1393   22.8488 C   0  0  0  0  0  0
  -24.1483  -36.7247   23.2642 C   0  0  0  0  0  0
  -26.0092  -30.7096   21.3951 C   0  0  0  0  0  0
  -26.0784  -29.3211   20.7338 C   0  0  0  0  0  0
  -27.2353  -28.4513   20.7408 C   0  0  0  0  0  0
  -26.0232  -26.8195   19.4529 C   0  0  0  0  0  0
  -24.8873  -27.6553   19.4504 C   0  0  0  0  0  0
  -23.6785  -29.7973   20.1523 C   0  0  0  0  0  0
  -25.4113  -36.3037   24.0323 C   0  0  1  0  0  0
  -20.5929  -28.3718   23.1234 C   0  0  2  0  0  0
  -20.6795  -26.9413   22.5409 C   0  0  0  0  0  0
  -19.5759  -26.6376   21.5222 C   0  0  0  0  0  0
  -18.1942  -26.7933   22.1640 C   0  0  0  0  0  0
  -19.1569  -28.8872   23.2857 C   0  0  0  0  0  0
  -18.9486  -30.1470   23.8884 C   0  0  0  0  0  0
  -17.6475  -30.6586   24.0554 C   0  0  0  0  0  0
  -25.9072  -34.9408   23.5071 C   0  0  0  0  0  0
  -16.5366  -29.9076   23.6330 C   0  0  0  0  0  0
  -16.7294  -28.6493   23.0358 C   0  0  0  0  0  0
  -26.4516  -31.6574   25.0740 C   0  0  0  0  0  0
  -25.3707  -31.3790   26.1454 C   0  0  0  0  0  0
  -27.0364  -30.2958   24.6346 C   0  0  0  0  0  0
  -27.6065  -32.4320   25.7507 C   0  0  0  0  0  0
  -27.5575  -37.1773   24.8458 C   0  0  0  0  0  0
  -21.4274  -29.3038   22.3602 N   0  0  0  0  0  0
  -26.4276  -37.3752   23.9417 N   0  0  0  0  0  0
  -24.7211  -31.0269   22.0938 N   0  0  0  0  0  0
  -23.4221  -28.8081   23.3006 O   0  0  0  0  0  0
  -28.2574  -26.1184   20.2239 O   0  0  0  0  0  0
  -26.5649  -34.8907   22.4646 O   0  0  0  0  0  0
  -23.5560  -32.1321   23.7094 O   0  0  0  0  0  0
  -30.1571  -20.0066   20.0100 C   0  0  0  0  0  0
  -28.0283  -19.5908   20.9060 C   0  0  0  0  0  0
  -30.4524  -18.5633   20.0570 C   0  0  0  0  0  0
  -28.3184  -18.1766   20.9581 C   0  0  0  0  0  0
  -28.9143  -20.6202   20.4314 C   0  0  0  0  0  0
  -29.5354  -17.5548   20.5390 C   0  0  0  0  0  0
  -29.0225  -23.3662   20.0937 C   0  0  0  0  0  0
  -26.8629  -23.9690   20.8133 C   0  0  0  0  0  0
  -27.0536  -22.4274   20.7080 C   0  0  0  0  0  0
  -27.9583  -24.6042   19.9543 C   0  0  1  0  0  0
  -28.4568  -22.1066   20.3909 N   0  0  0  0  0  0
  -29.6298  -16.0228   20.6348 N   0  0  0  0  0  0
  -30.2325  -23.5454   19.9162 O   0  0  0  0  0  0
  -31.4831  -12.7403   19.1718 H   0  0  0  0  0  0
  -30.4502  -11.6119   20.0040 H   0  0  0  0  0  0
  -29.8334  -11.7359   17.5694 H   0  0  0  0  0  0
  -29.6107  -13.4635   17.6922 H   0  0  0  0  0  0
  -27.9521  -11.2720   18.9726 H   0  0  0  0  0  0
  -27.3903  -12.4558   17.8188 H   0  0  0  0  0  0
  -27.6109  -14.2437   19.4271 H   0  0  0  0  0  0
  -28.7664  -12.2434   21.4320 H   0  0  0  0  0  0
  -28.3845  -13.9096   21.7816 H   0  0  0  0  0  0
  -25.2759   -9.5688   22.4763 H   0  0  0  0  0  0
  -23.9996   -7.4643   22.7476 H   0  0  0  0  0  0
  -21.0816   -8.8817   19.8963 H   0  0  0  0  0  0
  -22.3707  -10.9696   19.6178 H   0  0  0  0  0  0
  -21.1998   -7.6133   23.9707 H   0  0  0  0  0  0
  -21.1481   -6.0507   25.9071 H   0  0  0  0  0  0
  -22.0589   -2.7594   23.2869 H   0  0  0  0  0  0
  -22.4055  -11.9901   22.4850 H   0  0  0  0  0  0
  -21.1088  -13.1292   22.2646 H   0  0  0  0  0  0
  -24.6422  -15.8385   20.5017 H   0  0  0  0  0  0
  -26.2443  -15.6268   20.0183 H   0  0  0  0  0  0
  -26.7289  -32.5295   23.1017 H   0  0  0  0  0  0
  -25.0090  -33.9599   25.0339 H   0  0  0  0  0  0
  -22.7537  -31.2900   21.3807 H   0  0  0  0  0  0
  -23.3758  -35.9568   23.3292 H   0  0  0  0  0  0
  -24.3569  -36.8874   22.2057 H   0  0  0  0  0  0
  -23.7218  -37.6437   23.6671 H   0  0  0  0  0  0
  -26.1730  -31.4646   20.6245 H   0  0  0  0  0  0
  -26.8763  -30.7557   22.0425 H   0  0  0  0  0  0
  -28.1255  -28.7682   21.2653 H   0  0  0  0  0  0
  -25.9254  -25.8886   18.9172 H   0  0  0  0  0  0
  -23.9954  -27.3284   18.9338 H   0  0  0  0  0  0
  -23.8183  -30.5741   19.3995 H   0  0  0  0  0  0
  -22.7926  -29.2425   19.8379 H   0  0  0  0  0  0
  -25.1291  -36.1871   25.0816 H   0  0  0  0  0  0
  -21.0029  -28.3309   24.1350 H   0  0  0  0  0  0
  -20.5679  -26.2321   23.3627 H   0  0  0  0  0  0
  -21.6664  -26.7398   22.1205 H   0  0  0  0  0  0
  -19.6895  -25.6280   21.1262 H   0  0  0  0  0  0
  -19.6684  -27.3181   20.6747 H   0  0  0  0  0  0
  -17.4206  -26.6684   21.4052 H   0  0  0  0  0  0
  -18.0322  -26.0080   22.9036 H   0  0  0  0  0  0
  -19.7960  -30.7297   24.2248 H   0  0  0  0  0  0
  -17.5023  -31.6270   24.5146 H   0  0  0  0  0  0
  -15.5362  -30.2960   23.7664 H   0  0  0  0  0  0
  -15.8703  -28.0791   22.7085 H   0  0  0  0  0  0
  -24.5831  -30.7192   25.7791 H   0  0  0  0  0  0
  -24.8971  -32.2991   26.4890 H   0  0  0  0  0  0
  -25.7991  -30.8941   27.0235 H   0  0  0  0  0  0
  -26.2982  -29.6691   24.1334 H   0  0  0  0  0  0
  -27.3926  -29.7253   25.4934 H   0  0  0  0  0  0
  -27.8921  -30.4169   23.9700 H   0  0  0  0  0  0
  -27.2680  -33.3630   26.2059 H   0  0  0  0  0  0
  -28.3891  -32.6852   25.0346 H   0  0  0  0  0  0
  -28.0722  -31.8465   26.5442 H   0  0  0  0  0  0
  -28.2589  -38.0077   24.7533 H   0  0  0  0  0  0
  -28.1075  -36.2614   24.6245 H   0  0  0  0  0  0
  -27.2299  -37.1380   25.8862 H   0  0  0  0  0  0
  -20.9477  -29.8754   21.6789 H   0  0  0  0  0  0
  -26.0147  -38.2819   24.1441 H   0  0  0  0  0  0
  -30.9271  -20.6541   19.6128 H   0  0  0  0  0  0
  -27.0446  -19.8637   21.2551 H   0  0  0  0  0  0
  -31.4176  -18.2345   19.6965 H   0  0  0  0  0  0
  -27.5357  -17.5374   21.3435 H   0  0  0  0  0  0
  -26.9795  -24.2932   21.8478 H   0  0  0  0  0  0
  -25.8597  -24.2533   20.5000 H   0  0  0  0  0  0
  -26.4300  -22.0266   19.9060 H   0  0  0  0  0  0
  -26.7356  -21.9644   21.6419 H   0  0  0  0  0  0
  -27.6598  -24.5415   18.9080 H   0  0  0  0  0  0
  -28.7431  -15.6307   20.9116 H   0  0  0  0  0  0
  1 25  1  0  0  0
  1 30  2  0  0  0
  1 82  1  0  0  0
  2  3  1  0  0  0
  2 25  1  0  0  0
  2 84  1  0  0  0
  2 85  1  0  0  0
  3  4  1  0  0  0
  3 86  1  0  0  0
  3 87  1  0  0  0
  4  5  1  0  0  0
  4 88  1  0  0  0
  4 89  1  0  0  0
  5  6  1  0  0  0
  5 26  1  0  0  0
  5 90  1  0  0  0
  6 25  1  0  0  0
  6 91  1  0  0  0
  6 92  1  0  0  0
  7  8  2  0  0  0
  7 26  1  0  0  0
  7 29  1  0  0  0
  8  9  1  0  0  0
  8 22  1  0  0  0
  9 10  1  0  0  0
  9 27  2  0  0  0
 10 11  2  0  0  0
 10 15  1  0  0  0
 11 12  1  0  0  0
 11 93  1  0  0  0
 12 13  2  0  0  0
 12 94  1  0  0  0
 13 14  1  0  0  0
 13 31  1  0  0  0
 14 15  2  0  0  0
 14 95  1  0  0  0
 15 96  1  0  0  0
 16 17  2  0  0  0
 16 21  1  0  0  0
 16 31  1  0  0  0
 17 18  1  0  0  0
 17 97  1  0  0  0
 18 19  2  0  0  0
 18 98  1  0  0  0
 19 20  1  0  0  0
 19 24  1  0  0  0
 20 21  2  0  0  0
 20 99  1  0  0  0
 21 23  1  0  0  0
 22 28  1  0  0  0
 22 32  2  0  0  0
 26 27  1  0  0  0
 28100  1  0  0  0
 28101  1  0  0  0
 29102  1  0  0  0
 29103  1  0  0  0
 33 34  1  0  0  0
 33 66  1  0  0  0
 33 70  2  0  0  0
 34 36  1  0  0  0
 34 59  1  0  0  0
 34104  1  0  0  0
 35 44  2  0  0  0
 35 45  1  0  0  0
 35 68  1  0  0  0
 36 56  1  0  0  0
 36105  1  0  0  0
 37 39  1  0  0  0
 37 47  1  0  0  0
 37 66  1  0  0  0
 37106  1  0  0  0
 38 43  2  0  0  0
 38 46  1  0  0  0
 38 47  1  0  0  0
 39 64  1  0  0  0
 39 67  2  0  0  0
 40 52  1  0  0  0
 40 53  2  0  0  0
 40 58  1  0  0  0
 41107  1  0  0  0
 41108  1  0  0  0
 41109  1  0  0  0
 41 48  1  0  0  0
 42 43  1  0  0  0
 42 66  1  0  0  0
 42110  1  0  0  0
 42111  1  0  0  0
 43 44  1  0  0  0
 44112  1  0  0  0
 45 46  2  0  0  0
 45113  1  0  0  0
 46114  1  0  0  0
 47115  1  0  0  0
 47116  1  0  0  0
 48 56  1  0  0  0
 48 65  1  0  0  0
 48117  1  0  0  0
 49 50  1  0  0  0
 49 53  1  0  0  0
 49 64  1  0  0  0
 49118  1  0  0  0
 50 51  1  0  0  0
 50119  1  0  0  0
 50120  1  0  0  0
 51 52  1  0  0  0
 51121  1  0  0  0
 51122  1  0  0  0
 52123  1  0  0  0
 52124  1  0  0  0
 53 54  1  0  0  0
 54 55  2  0  0  0
 54125  1  0  0  0
 55 57  1  0  0  0
 55126  1  0  0  0
 56 69  2  0  0  0
 57 58  2  0  0  0
 57127  1  0  0  0
 58128  1  0  0  0
 59 60  1  0  0  0
 59 61  1  0  0  0
 59 62  1  0  0  0
 60129  1  0  0  0
 60130  1  0  0  0
 60131  1  0  0  0
 61132  1  0  0  0
 61133  1  0  0  0
 61134  1  0  0  0
 62135  1  0  0  0
 62136  1  0  0  0
 62137  1  0  0  0
 63 65  1  0  0  0
 63138  1  0  0  0
 63139  1  0  0  0
 63140  1  0  0  0
 64141  1  0  0  0
 65142  1  0  0  0
 68 80  1  0  0  0
 71 73  2  0  0  0
 71 75  1  0  0  0
 71143  1  0  0  0
 72 74  1  0  0  0
 72 75  2  0  0  0
 72144  1  0  0  0
 73 76  1  0  0  0
 73145  1  0  0  0
 74 76  2  0  0  0
 74146  1  0  0  0
 75 81  1  0  0  0
 76 82  1  0  0  0
 77 80  1  0  0  0
 77 81  1  0  0  0
 77 83  2  0  0  0
 78 79  1  0  0  0
 78 80  1  0  0  0
 78147  1  0  0  0
 78148  1  0  0  0
 79 81  1  0  0  0
 79149  1  0  0  0
 79150  1  0  0  0
 80151  1  0  0  0
 82152  1  0  0  0
M  ISO  4   1 100  68 101  80 101  82 100
M  END
> <chiral flag>
0

> <version>
0

> <s_m_source_file>
/data/baiqing/PycharmProjects/Reinvent-master-3.2/result/LINK_invent/BTK/process_docking_weight1_custom_product_contain_oxygen_bond_distance_aromatic_linkinvent_7_9_3/rearranged_h_0007.sdf

> <i_m_source_file_index>
46

> <r_mmod_Potential_Energy-OPLS-2005>
578.300842285156

> <r_mmod_Stretch_Energy-OPLS-2005>
232.756225585938

> <r_mmod_Bend_Energy-OPLS-2005>
320.357879638672

> <r_mmod_Torsional_Energy-OPLS-2005>
246.945434570312

> <r_mmod_Improper_Torsional_Energy-OPLS-2005>
4.10524368286133

> <r_mmod_Van_der_Waal_Energy-OPLS-2005>
130.211456298828

> <r_mmod_Electrostatic_Energy-OPLS-2005>
-317.91796875

> <r_mmod_Solvation_Energy-OPLS-2005>
-233.450637817383

> <b_mmod_Minimization_Converged-OPLS-2005>
0

> <r_mmod_RMS_Derivative-OPLS-2005>
2.13818335533142

$$$$
46
                    3D
 Structure written by MMmdl.
161170  0  0  1  0            999 V2000
  -30.6263  -14.6512   20.4769 C   0  0  0  0  0  0
  -30.4415  -12.3948   19.4526 C   0  0  0  0  0  0
  -29.5085  -12.5001   18.2256 C   0  0  0  0  0  0
  -28.0321  -12.3404   18.6415 C   0  0  0  0  0  0
  -27.6538  -13.2191   19.8638 C   0  0  2  0  0  0
  -28.7026  -13.0861   20.9919 C   0  0  0  0  0  0
  -25.2553  -13.8165   20.5691 C   0  0  0  0  0  0
  -24.1820  -13.0425   20.9172 C   0  0  0  0  0  0
  -24.6402  -11.6905   20.8737 C   0  0  0  0  0  0
  -23.9072  -10.4288   21.0407 C   0  0  0  0  0  0
  -24.3620   -9.4205   21.9187 C   0  0  0  0  0  0
  -23.6295   -8.2241   22.0756 C   0  0  0  0  0  0
  -22.4276   -8.0279   21.3546 C   0  0  0  0  0  0
  -21.9915   -9.0252   20.4644 C   0  0  0  0  0  0
  -22.7247  -10.2131   20.3054 C   0  0  0  0  0  0
  -21.6852   -6.0743   22.5280 C   0  0  0  0  0  0
  -21.4012   -6.5645   23.8214 C   0  0  0  0  0  0
  -21.3659   -5.6795   24.9172 C   0  0  0  0  0  0
  -21.6043   -4.3058   24.7221 C   0  0  0  0  0  0
  -21.8821   -3.8153   23.4340 C   0  0  0  0  0  0
  -21.9194   -4.6972   22.3399 C   0  0  0  0  0  0
  -22.7841  -13.5215   21.1844 C   0  0  0  0  0  0
  -22.1664   -4.2162   21.0976 F   0  0  0  0  0  0
  -21.5629   -3.4538   25.7731 F   0  0  0  0  0  0
  -30.0185  -13.4230   20.4229 N   0  0  0  0  0  0
  -26.3002  -12.9364   20.3356 N   0  0  0  0  0  0
  -25.9341  -11.6514   20.5784 N   0  0  0  0  0  0
  -22.0490  -12.8204   22.0406 N   0  0  0  0  0  0
  -25.4204  -15.1890   20.4166 N   0  0  0  0  0  0
  -31.7952  -14.8055   20.1121 O   0  0  0  0  0  0
  -21.6639   -6.8883   21.4241 O   0  0  0  0  0  0
  -22.3519  -14.5527   20.6712 O   0  0  0  0  0  0
  -24.6245  -31.8594   23.2005 C   0  0  0  0  0  0
  -25.9086  -32.4784   23.8349 C   0  0  1  0  0  0
  -27.2374  -27.3360   20.1214 C   0  0  0  0  0  0
  -25.5904  -33.8580   24.2285 N   0  0  0  0  0  0
  -23.4187  -30.4803   21.5419 C   0  0  2  0  0  0
  -24.8692  -28.9304   20.1164 C   0  0  0  0  0  0
  -22.7465  -29.4618   22.4931 C   0  0  0  0  0  0
  -18.0282  -28.1396   22.8489 C   0  0  0  0  0  0
  -24.1477  -36.7287   23.2645 C   0  0  0  0  0  0
  -25.9569  -30.7987   21.3644 C   0  0  0  0  0  0
  -26.0358  -29.4225   20.7158 C   0  0  0  0  0  0
  -27.2259  -28.6375   20.7063 C   0  0  0  0  0  0
  -26.0502  -26.8852   19.5076 C   0  0  0  0  0  0
  -24.8760  -27.6640   19.5062 C   0  0  0  0  0  0
  -23.6343  -29.8081   20.1600 C   0  0  0  0  0  0
  -25.4101  -36.3085   24.0338 C   0  0  1  0  0  0
  -20.5881  -28.3685   23.1298 C   0  0  2  0  0  0
  -20.6769  -26.9411   22.5415 C   0  0  0  0  0  0
  -19.5744  -26.6397   21.5216 C   0  0  0  0  0  0
  -18.1921  -26.7945   22.1620 C   0  0  0  0  0  0
  -19.1536  -28.8853   23.2895 C   0  0  0  0  0  0
  -18.9465  -30.1457   23.8906 C   0  0  0  0  0  0
  -17.6467  -30.6598   24.0563 C   0  0  0  0  0  0
  -25.9032  -34.9458   23.5112 C   0  0  0  0  0  0
  -16.5352  -29.9102   23.6331 C   0  0  0  0  0  0
  -16.7269  -28.6518   23.0353 C   0  0  0  0  0  0
  -26.4487  -31.6580   25.0699 C   0  0  0  0  0  0
  -25.3736  -31.3700   26.1432 C   0  0  0  0  0  0
  -27.0324  -30.3014   24.6107 C   0  0  0  0  0  0
  -27.6053  -32.4304   25.7479 C   0  0  0  0  0  0
  -27.5569  -37.1799   24.8475 C   0  0  0  0  0  0
  -21.4178  -29.3041   22.3693 N   0  0  0  0  0  0
  -26.4277  -37.3780   23.9417 N   0  0  0  0  0  0
  -24.6858  -31.0623   22.0936 N   0  0  0  0  0  0
  -23.4197  -28.8153   23.3001 O   0  0  0  0  0  0
  -28.3659  -26.5104   20.1001 O   0  0  0  0  0  0
  -26.5613  -34.8927   22.4686 O   0  0  0  0  0  0
  -23.5412  -32.1377   23.7335 O   0  0  0  0  0  0
  -31.0046  -19.3230   20.1398 C   0  0  0  0  0  0
  -31.0611  -17.9096   20.3494 C   0  0  0  0  0  0
  -28.6099  -19.2832   20.3239 C   0  0  0  0  0  0
  -29.7814  -20.0548   20.1151 C   0  0  0  0  0  0
  -29.8815  -17.1449   20.5489 C   0  0  0  0  0  0
  -28.6628  -17.8742   20.5390 C   0  0  0  0  0  0
  -29.0603  -23.9981   20.0600 C   0  0  0  0  0  0
  -29.2249  -22.1232   24.0094 C   0  0  0  0  0  0
  -28.7589  -23.2583   23.0980 C   0  0  0  0  0  0
  -29.8951  -21.5483   22.7607 C   0  0  0  0  0  0
  -28.7840  -22.2403   21.9337 C   0  0  0  0  0  0
  -29.7528  -21.5896   19.7280 C   0  0  0  0  0  0
  -28.2512  -25.1833   20.7442 C   0  0  0  0  0  0
  -29.8058  -15.7016   20.7836 N   0  0  0  0  0  0
  -29.2118  -22.7164   20.5959 N   0  0  0  0  0  0
  -29.5464  -24.2492   18.9516 O   0  0  0  0  0  0
  -27.5064  -17.1923   20.7154 F   0  0  0  0  0  0
  -31.4813  -12.5215   19.1469 H   0  0  0  0  0  0
  -30.3805  -11.4030   19.9028 H   0  0  0  0  0  0
  -29.7713  -11.7412   17.4875 H   0  0  0  0  0  0
  -29.6494  -13.4651   17.7366 H   0  0  0  0  0  0
  -27.8728  -11.2883   18.8823 H   0  0  0  0  0  0
  -27.3749  -12.5611   17.7994 H   0  0  0  0  0  0
  -27.6653  -14.2522   19.5157 H   0  0  0  0  0  0
  -28.7146  -12.0702   21.3890 H   0  0  0  0  0  0
  -28.4509  -13.7314   21.8354 H   0  0  0  0  0  0
  -25.2763   -9.5685   22.4764 H   0  0  0  0  0  0
  -24.0008   -7.4631   22.7472 H   0  0  0  0  0  0
  -21.0851   -8.8767   19.8943 H   0  0  0  0  0  0
  -22.3706  -10.9669   19.6161 H   0  0  0  0  0  0
  -21.2000   -7.6154   23.9719 H   0  0  0  0  0  0
  -21.1480   -6.0525   25.9076 H   0  0  0  0  0  0
  -22.0601   -2.7618   23.2833 H   0  0  0  0  0  0
  -22.4104  -11.9852   22.4770 H   0  0  0  0  0  0
  -21.1108  -13.1227   22.2621 H   0  0  0  0  0  0
  -24.6561  -15.8378   20.5629 H   0  0  0  0  0  0
  -26.2940  -15.6615   20.2124 H   0  0  0  0  0  0
  -26.7154  -32.5459   23.1103 H   0  0  0  0  0  0
  -25.0048  -33.9738   25.0431 H   0  0  0  0  0  0
  -22.7125  -31.3005   21.3943 H   0  0  0  0  0  0
  -23.3743  -35.9615   23.3310 H   0  0  0  0  0  0
  -24.3573  -36.8895   22.2060 H   0  0  0  0  0  0
  -23.7233  -37.6491   23.6655 H   0  0  0  0  0  0
  -26.0771  -31.5584   20.5905 H   0  0  0  0  0  0
  -26.8424  -30.8586   21.9855 H   0  0  0  0  0  0
  -28.1262  -29.0169   21.1683 H   0  0  0  0  0  0
  -26.0312  -25.9162   19.0291 H   0  0  0  0  0  0
  -23.9803  -27.2792   19.0379 H   0  0  0  0  0  0
  -23.7524  -30.5806   19.3994 H   0  0  0  0  0  0
  -22.7562  -29.2341   19.8577 H   0  0  0  0  0  0
  -25.1286  -36.1933   25.0831 H   0  0  0  0  0  0
  -20.9974  -28.3242   24.1415 H   0  0  0  0  0  0
  -20.5656  -26.2288   23.3603 H   0  0  0  0  0  0
  -21.6641  -26.7441   22.1209 H   0  0  0  0  0  0
  -19.6899  -25.6315   21.1227 H   0  0  0  0  0  0
  -19.6686  -27.3226   20.6757 H   0  0  0  0  0  0
  -17.4192  -26.6695   21.4021 H   0  0  0  0  0  0
  -18.0308  -26.0101   22.9024 H   0  0  0  0  0  0
  -19.7942  -30.7272   24.2277 H   0  0  0  0  0  0
  -17.5027  -31.6280   24.5170 H   0  0  0  0  0  0
  -15.5356  -30.3009   23.7672 H   0  0  0  0  0  0
  -15.8663  -28.0848   22.7067 H   0  0  0  0  0  0
  -24.5934  -30.7015   25.7771 H   0  0  0  0  0  0
  -24.8903  -32.2856   26.4842 H   0  0  0  0  0  0
  -25.8085  -30.8906   27.0212 H   0  0  0  0  0  0
  -26.2878  -29.6771   24.1150 H   0  0  0  0  0  0
  -27.4082  -29.7251   25.4569 H   0  0  0  0  0  0
  -27.8712  -30.4329   23.9273 H   0  0  0  0  0  0
  -27.2670  -33.3616   26.2035 H   0  0  0  0  0  0
  -28.3881  -32.6833   25.0316 H   0  0  0  0  0  0
  -28.0689  -31.8431   26.5412 H   0  0  0  0  0  0
  -28.2598  -38.0086   24.7511 H   0  0  0  0  0  0
  -28.1053  -36.2616   24.6305 H   0  0  0  0  0  0
  -27.2291  -37.1463   25.8882 H   0  0  0  0  0  0
  -20.9335  -29.8762   21.6916 H   0  0  0  0  0  0
  -26.0153  -38.2850   24.1425 H   0  0  0  0  0  0
  -31.9338  -19.8510   19.9709 H   0  0  0  0  0  0
  -32.0257  -17.4221   20.3468 H   0  0  0  0  0  0
  -27.6451  -19.7660   20.2906 H   0  0  0  0  0  0
  -28.4066  -21.5040   24.3828 H   0  0  0  0  0  0
  -29.9100  -22.4162   24.8062 H   0  0  0  0  0  0
  -29.5342  -24.0257   23.0617 H   0  0  0  0  0  0
  -27.7784  -23.6667   23.3460 H   0  0  0  0  0  0
  -29.8986  -20.4590   22.7405 H   0  0  0  0  0  0
  -30.8946  -21.9528   22.5834 H   0  0  0  0  0  0
  -27.8646  -21.6513   21.9051 H   0  0  0  0  0  0
  -29.2121  -21.6296   18.7804 H   0  0  0  0  0  0
  -30.7773  -21.8668   19.4745 H   0  0  0  0  0  0
  -28.6338  -25.3730   21.7399 H   0  0  0  0  0  0
  -27.2133  -24.8708   20.8611 H   0  0  0  0  0  0
  -28.8819  -15.4000   21.0533 H   0  0  0  0  0  0
  1 25  1  0  0  0
  1 30  2  0  0  0
  1 84  1  0  0  0
  2  3  1  0  0  0
  2 25  1  0  0  0
  2 88  1  0  0  0
  2 89  1  0  0  0
  3  4  1  0  0  0
  3 90  1  0  0  0
  3 91  1  0  0  0
  4  5  1  0  0  0
  4 92  1  0  0  0
  4 93  1  0  0  0
  5  6  1  0  0  0
  5 26  1  0  0  0
  5 94  1  0  0  0
  6 25  1  0  0  0
  6 95  1  0  0  0
  6 96  1  0  0  0
  7  8  2  0  0  0
  7 26  1  0  0  0
  7 29  1  0  0  0
  8  9  1  0  0  0
  8 22  1  0  0  0
  9 10  1  0  0  0
  9 27  2  0  0  0
 10 11  2  0  0  0
 10 15  1  0  0  0
 11 12  1  0  0  0
 11 97  1  0  0  0
 12 13  2  0  0  0
 12 98  1  0  0  0
 13 14  1  0  0  0
 13 31  1  0  0  0
 14 15  2  0  0  0
 14 99  1  0  0  0
 15100  1  0  0  0
 16 17  2  0  0  0
 16 21  1  0  0  0
 16 31  1  0  0  0
 17 18  1  0  0  0
 17101  1  0  0  0
 18 19  2  0  0  0
 18102  1  0  0  0
 19 20  1  0  0  0
 19 24  1  0  0  0
 20 21  2  0  0  0
 20103  1  0  0  0
 21 23  1  0  0  0
 22 28  1  0  0  0
 22 32  2  0  0  0
 26 27  1  0  0  0
 28104  1  0  0  0
 28105  1  0  0  0
 29106  1  0  0  0
 29107  1  0  0  0
 33 34  1  0  0  0
 33 66  1  0  0  0
 33 70  2  0  0  0
 34 36  1  0  0  0
 34 59  1  0  0  0
 34108  1  0  0  0
 35 44  2  0  0  0
 35 45  1  0  0  0
 35 68  1  0  0  0
 36 56  1  0  0  0
 36109  1  0  0  0
 37 39  1  0  0  0
 37 47  1  0  0  0
 37 66  1  0  0  0
 37110  1  0  0  0
 38 43  2  0  0  0
 38 46  1  0  0  0
 38 47  1  0  0  0
 39 64  1  0  0  0
 39 67  2  0  0  0
 40 52  1  0  0  0
 40 53  2  0  0  0
 40 58  1  0  0  0
 41111  1  0  0  0
 41112  1  0  0  0
 41113  1  0  0  0
 41 48  1  0  0  0
 42 43  1  0  0  0
 42 66  1  0  0  0
 42114  1  0  0  0
 42115  1  0  0  0
 43 44  1  0  0  0
 44116  1  0  0  0
 45 46  2  0  0  0
 45117  1  0  0  0
 46118  1  0  0  0
 47119  1  0  0  0
 47120  1  0  0  0
 48 56  1  0  0  0
 48 65  1  0  0  0
 48121  1  0  0  0
 49 50  1  0  0  0
 49 53  1  0  0  0
 49 64  1  0  0  0
 49122  1  0  0  0
 50 51  1  0  0  0
 50123  1  0  0  0
 50124  1  0  0  0
 51 52  1  0  0  0
 51125  1  0  0  0
 51126  1  0  0  0
 52127  1  0  0  0
 52128  1  0  0  0
 53 54  1  0  0  0
 54 55  2  0  0  0
 54129  1  0  0  0
 55 57  1  0  0  0
 55130  1  0  0  0
 56 69  2  0  0  0
 57 58  2  0  0  0
 57131  1  0  0  0
 58132  1  0  0  0
 59 60  1  0  0  0
 59 61  1  0  0  0
 59 62  1  0  0  0
 60133  1  0  0  0
 60134  1  0  0  0
 60135  1  0  0  0
 61136  1  0  0  0
 61137  1  0  0  0
 61138  1  0  0  0
 62139  1  0  0  0
 62140  1  0  0  0
 62141  1  0  0  0
 63 65  1  0  0  0
 63142  1  0  0  0
 63143  1  0  0  0
 63144  1  0  0  0
 64145  1  0  0  0
 65146  1  0  0  0
 68 83  1  0  0  0
 71 72  2  0  0  0
 71 74  1  0  0  0
 71147  1  0  0  0
 72 75  1  0  0  0
 72148  1  0  0  0
 73 74  2  0  0  0
 73 76  1  0  0  0
 73149  1  0  0  0
 74 82  1  0  0  0
 75 76  2  0  0  0
 75 84  1  0  0  0
 76 87  1  0  0  0
 77 83  1  0  0  0
 77 85  1  0  0  0
 77 86  2  0  0  0
 78 79  1  0  0  0
 78 80  1  0  0  0
 78150  1  0  0  0
 78151  1  0  0  0
 79 81  1  0  0  0
 79152  1  0  0  0
 79153  1  0  0  0
 80 81  1  0  0  0
 80154  1  0  0  0
 80155  1  0  0  0
 81 85  1  0  0  0
 81156  1  0  0  0
 82 85  1  0  0  0
 82157  1  0  0  0
 82158  1  0  0  0
 83159  1  0  0  0
 83160  1  0  0  0
 84161  1  0  0  0
M  ISO  4   1 100  68 101  83 101  84 100
M  END
> <chiral flag>
0

> <version>
0

> <s_m_source_file>
/data/baiqing/PycharmProjects/Reinvent-master-3.2/result/LINK_invent/BTK/process_docking_weight1_custom_product_contain_oxygen_bond_distance_aromatic_linkinvent_7_9_3/rearranged_h_0007.sdf

> <i_m_source_file_index>
47

> <r_mmod_Potential_Energy-OPLS-2005>
147.494995117188

> <r_mmod_Stretch_Energy-OPLS-2005>
88.4043426513672

> <r_mmod_Bend_Energy-OPLS-2005>
183.301010131836

> <r_mmod_Torsional_Energy-OPLS-2005>
287.347259521484

> <r_mmod_Improper_Torsional_Energy-OPLS-2005>
5.16519594192505

> <r_mmod_Van_der_Waal_Energy-OPLS-2005>
152.783218383789

> <r_mmod_Electrostatic_Energy-OPLS-2005>
-391.684539794922

> <r_mmod_Solvation_Energy-OPLS-2005>
-223.391510009766

> <b_mmod_Minimization_Converged-OPLS-2005>
0

> <r_mmod_RMS_Derivative-OPLS-2005>
1.3746532201767

$$$$
47
                    3D
 Structure written by MMmdl.
146154  0  0  1  0            999 V2000
  -30.3846  -15.3817   20.3446 C   0  0  0  0  0  0
  -30.4349  -12.8841   19.5524 C   0  0  0  0  0  0
  -29.5451  -12.6065   18.3112 C   0  0  0  0  0  0
  -28.0985  -12.3057   18.7348 C   0  0  0  0  0  0
  -27.6086  -13.2877   19.8266 C   0  0  2  0  0  0
  -28.6322  -13.5041   20.9643 C   0  0  0  0  0  0
  -25.2366  -13.8267   20.5761 C   0  0  0  0  0  0
  -24.1729  -13.0440   20.9261 C   0  0  0  0  0  0
  -24.6401  -11.6942   20.8758 C   0  0  0  0  0  0
  -23.9101  -10.4295   21.0400 C   0  0  0  0  0  0
  -24.3643   -9.4208   21.9180 C   0  0  0  0  0  0
  -23.6308   -8.2248   22.0753 C   0  0  0  0  0  0
  -22.4289   -8.0286   21.3544 C   0  0  0  0  0  0
  -21.9932   -9.0261   20.4645 C   0  0  0  0  0  0
  -22.7270  -10.2135   20.3051 C   0  0  0  0  0  0
  -21.6858   -6.0740   22.5279 C   0  0  0  0  0  0
  -21.4018   -6.5642   23.8212 C   0  0  0  0  0  0
  -21.3660   -5.6794   24.9174 C   0  0  0  0  0  0
  -21.6044   -4.3057   24.7224 C   0  0  0  0  0  0
  -21.8818   -3.8149   23.4345 C   0  0  0  0  0  0
  -21.9194   -4.6967   22.3402 C   0  0  0  0  0  0
  -22.7745  -13.5183   21.1906 C   0  0  0  0  0  0
  -22.1661   -4.2152   21.0979 F   0  0  0  0  0  0
  -21.5627   -3.4539   25.7736 F   0  0  0  0  0  0
  -29.8564  -14.0438   20.3452 N   0  0  0  0  0  0
  -26.2802  -12.9563   20.3231 N   0  0  0  0  0  0
  -25.9343  -11.6654   20.5716 N   0  0  0  0  0  0
  -22.0408  -12.8161   22.0461 N   0  0  0  0  0  0
  -25.3992  -15.2006   20.4210 N   0  0  0  0  0  0
  -31.5958  -15.3752   20.0684 O   0  0  0  0  0  0
  -21.6647   -6.8886   21.4242 O   0  0  0  0  0  0
  -22.3421  -14.5483   20.6746 O   0  0  0  0  0  0
  -24.6685  -31.8148   23.1633 C   0  0  0  0  0  0
  -25.9336  -32.4539   23.8125 C   0  0  1  0  0  0
  -27.2245  -26.8510   20.1952 C   0  0  0  0  0  0
  -25.5976  -33.8360   24.2023 N   0  0  0  0  0  0
  -23.4877  -30.4212   21.5128 C   0  0  2  0  0  0
  -24.9440  -28.7907   20.1094 C   0  0  0  0  0  0
  -22.7695  -29.4387   22.4751 C   0  0  0  0  0  0
  -18.0326  -28.1412   22.8463 C   0  0  0  0  0  0
  -24.1494  -36.7187   23.2650 C   0  0  0  0  0  0
  -26.0590  -30.5938   21.4075 C   0  0  0  0  0  0
  -26.1245  -29.1746   20.7557 C   0  0  0  0  0  0
  -27.2502  -28.2238   20.7783 C   0  0  0  0  0  0
  -26.0205  -26.6411   19.4834 C   0  0  0  0  0  0
  -24.9215  -27.5470   19.4529 C   0  0  0  0  0  0
  -23.7325  -29.7277   20.1418 C   0  0  0  0  0  0
  -25.4139  -36.2940   24.0292 C   0  0  1  0  0  0
  -20.5953  -28.3760   23.1174 C   0  0  2  0  0  0
  -20.6797  -26.9433   22.5406 C   0  0  0  0  0  0
  -19.5773  -26.6373   21.5216 C   0  0  0  0  0  0
  -18.1955  -26.7944   22.1620 C   0  0  0  0  0  0
  -19.1589  -28.8909   23.2803 C   0  0  0  0  0  0
  -18.9498  -30.1496   23.8842 C   0  0  0  0  0  0
  -17.6490  -30.6599   24.0553 C   0  0  0  0  0  0
  -25.9108  -34.9325   23.4987 C   0  0  0  0  0  0
  -16.5380  -29.9085   23.6345 C   0  0  0  0  0  0
  -16.7307  -28.6506   23.0363 C   0  0  0  0  0  0
  -26.4567  -31.6522   25.0690 C   0  0  0  0  0  0
  -25.3673  -31.3797   26.1332 C   0  0  0  0  0  0
  -27.0483  -30.2879   24.6490 C   0  0  0  0  0  0
  -27.6041  -32.4356   25.7498 C   0  0  0  0  0  0
  -27.5568  -37.1750   24.8466 C   0  0  0  0  0  0
  -21.4357  -29.3032   22.3508 N   0  0  0  0  0  0
  -26.4277  -37.3685   23.9408 N   0  0  0  0  0  0
  -24.7601  -30.9733   22.0808 N   0  0  0  0  0  0
  -23.4208  -28.7974   23.3032 O   0  0  0  0  0  0
  -28.2301  -25.7269   20.3166 O   0  0  0  0  0  0
  -26.5733  -34.8877   22.4593 O   0  0  0  0  0  0
  -23.5739  -32.1158   23.6678 O   0  0  0  0  0  0
  -30.5266  -19.8739   18.4066 C   0  0  0  0  0  0
  -29.9030  -21.0491   18.9162 C   0  0  0  0  0  0
  -30.4379  -18.5721   18.9777 C   0  0  0  0  0  0
  -29.0356  -19.6098   20.6437 C   0  0  0  0  0  0
  -29.1113  -21.0759   20.0851 C   0  0  0  0  0  0
  -29.6818  -18.2722   20.1327 C   0  0  0  0  0  0
  -28.6218  -22.7150   20.6229 C   0  0  0  0  0  0
  -29.6186  -16.6703   20.5392 N   0  0  0  0  0  0
  -27.9945  -24.0604   19.8633 N   0  0  0  0  0  0
  -31.4520  -13.0946   19.2201 H   0  0  0  0  0  0
  -30.5178  -11.9913   20.1745 H   0  0  0  0  0  0
  -29.9482  -11.7765   17.7295 H   0  0  0  0  0  0
  -29.5591  -13.4781   17.6550 H   0  0  0  0  0  0
  -28.0726  -11.2866   19.1223 H   0  0  0  0  0  0
  -27.4327  -12.3234   17.8711 H   0  0  0  0  0  0
  -27.5116  -14.2443   19.3117 H   0  0  0  0  0  0
  -28.8203  -12.5822   21.5166 H   0  0  0  0  0  0
  -28.2458  -14.2239   21.6874 H   0  0  0  0  0  0
  -25.2783   -9.5684   22.4762 H   0  0  0  0  0  0
  -24.0012   -7.4640   22.7477 H   0  0  0  0  0  0
  -21.0861   -8.8786   19.8952 H   0  0  0  0  0  0
  -22.3726  -10.9676   19.6163 H   0  0  0  0  0  0
  -21.2013   -7.6151   23.9717 H   0  0  0  0  0  0
  -21.1481   -6.0524   25.9077 H   0  0  0  0  0  0
  -22.0596   -2.7611   23.2844 H   0  0  0  0  0  0
  -22.4047  -11.9835   22.4853 H   0  0  0  0  0  0
  -21.1017  -13.1161   22.2664 H   0  0  0  0  0  0
  -24.6275  -15.8492   20.5336 H   0  0  0  0  0  0
  -26.2391  -15.6431   20.0710 H   0  0  0  0  0  0
  -26.7406  -32.5052   23.0834 H   0  0  0  0  0  0
  -25.0053  -33.9424   25.0127 H   0  0  0  0  0  0
  -22.8049  -31.2545   21.3344 H   0  0  0  0  0  0
  -23.3771  -35.9502   23.3271 H   0  0  0  0  0  0
  -24.3568  -36.8882   22.2072 H   0  0  0  0  0  0
  -23.7237  -37.6354   23.6741 H   0  0  0  0  0  0
  -26.2484  -31.3283   20.6236 H   0  0  0  0  0  0
  -26.9155  -30.6545   22.0667 H   0  0  0  0  0  0
  -28.1383  -28.5127   21.3222 H   0  0  0  0  0  0
  -25.8910  -25.6952   18.9781 H   0  0  0  0  0  0
  -24.0275  -27.2491   18.9225 H   0  0  0  0  0  0
  -23.8929  -30.4924   19.3810 H   0  0  0  0  0  0
  -22.8409  -29.1846   19.8236 H   0  0  0  0  0  0
  -25.1342  -36.1723   25.0783 H   0  0  0  0  0  0
  -21.0040  -28.3375   24.1298 H   0  0  0  0  0  0
  -20.5668  -26.2381   23.3654 H   0  0  0  0  0  0
  -21.6660  -26.7395   22.1219 H   0  0  0  0  0  0
  -19.6931  -25.6269   21.1282 H   0  0  0  0  0  0
  -19.6716  -27.3152   20.6721 H   0  0  0  0  0  0
  -17.4225  -26.6687   21.4023 H   0  0  0  0  0  0
  -18.0346  -26.0099   22.9029 H   0  0  0  0  0  0
  -19.7974  -30.7326   24.2187 H   0  0  0  0  0  0
  -17.5041  -31.6274   24.5166 H   0  0  0  0  0  0
  -15.5378  -30.2969   23.7701 H   0  0  0  0  0  0
  -15.8708  -28.0806   22.7110 H   0  0  0  0  0  0
  -24.5877  -30.7123   25.7640 H   0  0  0  0  0  0
  -24.8838  -32.3005   26.4604 H   0  0  0  0  0  0
  -25.7886  -30.9066   27.0211 H   0  0  0  0  0  0
  -26.3170  -29.6525   24.1483 H   0  0  0  0  0  0
  -27.3966  -29.7281   25.5181 H   0  0  0  0  0  0
  -27.9129  -30.4039   23.9953 H   0  0  0  0  0  0
  -27.2595  -33.3711   26.1917 H   0  0  0  0  0  0
  -28.3931  -32.6832   25.0385 H   0  0  0  0  0  0
  -28.0621  -31.8592   26.5545 H   0  0  0  0  0  0
  -28.2560  -38.0069   24.7515 H   0  0  0  0  0  0
  -28.1089  -36.2593   24.6291 H   0  0  0  0  0  0
  -27.2283  -37.1386   25.8868 H   0  0  0  0  0  0
  -20.9628  -29.8704   21.6611 H   0  0  0  0  0  0
  -26.0117  -38.2739   24.1418 H   0  0  0  0  0  0
  -31.1246  -19.9799   17.5119 H   0  0  0  0  0  0
  -30.0770  -21.9826   18.3977 H   0  0  0  0  0  0
  -30.9585  -17.7686   18.4753 H   0  0  0  0  0  0
  -28.4485  -19.5084   21.5455 H   0  0  0  0  0  0
  -29.5398  -23.0940   21.0728 H   0  0  0  0  0  0
  -27.9662  -22.5438   21.4774 H   0  0  0  0  0  0
  -28.7373  -16.4480   20.9798 H   0  0  0  0  0  0
  -26.9858  -23.9420   19.8946 H   0  0  0  0  0  0
  1 25  1  0  0  0
  1 30  2  0  0  0
  1 78  1  0  0  0
  2  3  1  0  0  0
  2 25  1  0  0  0
  2 80  1  0  0  0
  2 81  1  0  0  0
  3  4  1  0  0  0
  3 82  1  0  0  0
  3 83  1  0  0  0
  4  5  1  0  0  0
  4 84  1  0  0  0
  4 85  1  0  0  0
  5  6  1  0  0  0
  5 26  1  0  0  0
  5 86  1  0  0  0
  6 25  1  0  0  0
  6 87  1  0  0  0
  6 88  1  0  0  0
  7  8  2  0  0  0
  7 26  1  0  0  0
  7 29  1  0  0  0
  8  9  1  0  0  0
  8 22  1  0  0  0
  9 10  1  0  0  0
  9 27  2  0  0  0
 10 11  2  0  0  0
 10 15  1  0  0  0
 11 12  1  0  0  0
 11 89  1  0  0  0
 12 13  2  0  0  0
 12 90  1  0  0  0
 13 14  1  0  0  0
 13 31  1  0  0  0
 14 15  2  0  0  0
 14 91  1  0  0  0
 15 92  1  0  0  0
 16 17  2  0  0  0
 16 21  1  0  0  0
 16 31  1  0  0  0
 17 18  1  0  0  0
 17 93  1  0  0  0
 18 19  2  0  0  0
 18 94  1  0  0  0
 19 20  1  0  0  0
 19 24  1  0  0  0
 20 21  2  0  0  0
 20 95  1  0  0  0
 21 23  1  0  0  0
 22 28  1  0  0  0
 22 32  2  0  0  0
 26 27  1  0  0  0
 28 96  1  0  0  0
 28 97  1  0  0  0
 29 98  1  0  0  0
 29 99  1  0  0  0
 33 34  1  0  0  0
 33 66  1  0  0  0
 33 70  2  0  0  0
 34 36  1  0  0  0
 34 59  1  0  0  0
 34100  1  0  0  0
 35 44  2  0  0  0
 35 45  1  0  0  0
 35 68  1  0  0  0
 36 56  1  0  0  0
 36101  1  0  0  0
 37 39  1  0  0  0
 37 47  1  0  0  0
 37 66  1  0  0  0
 37102  1  0  0  0
 38 43  2  0  0  0
 38 46  1  0  0  0
 38 47  1  0  0  0
 39 64  1  0  0  0
 39 67  2  0  0  0
 40 52  1  0  0  0
 40 53  2  0  0  0
 40 58  1  0  0  0
 41103  1  0  0  0
 41104  1  0  0  0
 41105  1  0  0  0
 41 48  1  0  0  0
 42 43  1  0  0  0
 42 66  1  0  0  0
 42106  1  0  0  0
 42107  1  0  0  0
 43 44  1  0  0  0
 44108  1  0  0  0
 45 46  2  0  0  0
 45109  1  0  0  0
 46110  1  0  0  0
 47111  1  0  0  0
 47112  1  0  0  0
 48 56  1  0  0  0
 48 65  1  0  0  0
 48113  1  0  0  0
 49 50  1  0  0  0
 49 53  1  0  0  0
 49 64  1  0  0  0
 49114  1  0  0  0
 50 51  1  0  0  0
 50115  1  0  0  0
 50116  1  0  0  0
 51 52  1  0  0  0
 51117  1  0  0  0
 51118  1  0  0  0
 52119  1  0  0  0
 52120  1  0  0  0
 53 54  1  0  0  0
 54 55  2  0  0  0
 54121  1  0  0  0
 55 57  1  0  0  0
 55122  1  0  0  0
 56 69  2  0  0  0
 57 58  2  0  0  0
 57123  1  0  0  0
 58124  1  0  0  0
 59 60  1  0  0  0
 59 61  1  0  0  0
 59 62  1  0  0  0
 60125  1  0  0  0
 60126  1  0  0  0
 60127  1  0  0  0
 61128  1  0  0  0
 61129  1  0  0  0
 61130  1  0  0  0
 62131  1  0  0  0
 62132  1  0  0  0
 62133  1  0  0  0
 63 65  1  0  0  0
 63134  1  0  0  0
 63135  1  0  0  0
 63136  1  0  0  0
 64137  1  0  0  0
 65138  1  0  0  0
 68 79  1  0  0  0
 71 72  2  0  0  0
 71 73  1  0  0  0
 71139  1  0  0  0
 72 75  1  0  0  0
 72140  1  0  0  0
 73 76  2  0  0  0
 73141  1  0  0  0
 74 75  2  0  0  0
 74 76  1  0  0  0
 74142  1  0  0  0
 75 77  1  0  0  0
 76 78  1  0  0  0
 77 79  1  0  0  0
 77143  1  0  0  0
 77144  1  0  0  0
 78145  1  0  0  0
 79146  1  0  0  0
M  ISO  4   1 100  68 101  78 100  79 101
M  END
> <chiral flag>
0

> <version>
0

> <s_m_source_file>
/data/baiqing/PycharmProjects/Reinvent-master-3.2/result/LINK_invent/BTK/process_docking_weight1_custom_product_contain_oxygen_bond_distance_aromatic_linkinvent_7_9_3/rearranged_h_0007.sdf

> <i_m_source_file_index>
48

> <r_mmod_Potential_Energy-OPLS-2005>
1534.412109375

> <r_mmod_Stretch_Energy-OPLS-2005>
709.199584960938

> <r_mmod_Bend_Energy-OPLS-2005>
472.935668945312

> <r_mmod_Torsional_Energy-OPLS-2005>
228.662231445312

> <r_mmod_Improper_Torsional_Energy-OPLS-2005>
3.37873363494873

> <r_mmod_Van_der_Waal_Energy-OPLS-2005>
124.188858032227

> <r_mmod_Electrostatic_Energy-OPLS-2005>
-361.182037353516

> <r_mmod_Solvation_Energy-OPLS-2005>
-225.971664428711

> <b_mmod_Minimization_Converged-OPLS-2005>
0

> <r_mmod_RMS_Derivative-OPLS-2005>
0.0840858966112137

$$$$
48
                    3D
 Structure written by MMmdl.
149157  0  0  1  0            999 V2000
  -30.5352  -15.0146   20.4103 C   0  0  0  0  0  0
  -30.4333  -12.6272   19.5249 C   0  0  0  0  0  0
  -29.5321  -12.5467   18.2705 C   0  0  0  0  0  0
  -28.0639  -12.3225   18.6734 C   0  0  0  0  0  0
  -27.6214  -13.2586   19.8295 C   0  0  2  0  0  0
  -28.6551  -13.3322   20.9742 C   0  0  0  0  0  0
  -25.2415  -13.8215   20.5710 C   0  0  0  0  0  0
  -24.1738  -13.0426   20.9205 C   0  0  0  0  0  0
  -24.6356  -11.6914   20.8688 C   0  0  0  0  0  0
  -23.9044  -10.4290   21.0359 C   0  0  0  0  0  0
  -24.3614   -9.4217   21.9148 C   0  0  0  0  0  0
  -23.6292   -8.2255   22.0728 C   0  0  0  0  0  0
  -22.4273   -8.0275   21.3527 C   0  0  0  0  0  0
  -21.9897   -9.0229   20.4621 C   0  0  0  0  0  0
  -22.7208  -10.2115   20.3014 C   0  0  0  0  0  0
  -21.6869   -6.0715   22.5281 C   0  0  0  0  0  0
  -21.4017   -6.5617   23.8209 C   0  0  0  0  0  0
  -21.3664   -5.6772   24.9173 C   0  0  0  0  0  0
  -21.6049   -4.3031   24.7233 C   0  0  0  0  0  0
  -21.8809   -3.8119   23.4350 C   0  0  0  0  0  0
  -21.9193   -4.6937   22.3408 C   0  0  0  0  0  0
  -22.7754  -13.5178   21.1891 C   0  0  0  0  0  0
  -22.1652   -4.2109   21.0981 F   0  0  0  0  0  0
  -21.5644   -3.4520   25.7752 F   0  0  0  0  0  0
  -29.9332  -13.7496   20.3791 N   0  0  0  0  0  0
  -26.2826  -12.9470   20.3165 N   0  0  0  0  0  0
  -25.9281  -11.6580   20.5624 N   0  0  0  0  0  0
  -22.0426  -12.8174   22.0467 N   0  0  0  0  0  0
  -25.4090  -15.1962   20.4222 N   0  0  0  0  0  0
  -31.7378  -15.0542   20.1308 O   0  0  0  0  0  0
  -21.6642   -6.8866   21.4238 O   0  0  0  0  0  0
  -22.3426  -14.5480   20.6743 O   0  0  0  0  0  0
  -24.6455  -31.8415   23.1839 C   0  0  0  0  0  0
  -25.9208  -32.4688   23.8251 C   0  0  1  0  0  0
  -27.2226  -27.0985   20.1615 C   0  0  0  0  0  0
  -25.5946  -33.8498   24.2177 N   0  0  0  0  0  0
  -23.4529  -30.4578   21.5299 C   0  0  2  0  0  0
  -24.9048  -28.8734   20.1148 C   0  0  0  0  0  0
  -22.7592  -29.4521   22.4826 C   0  0  0  0  0  0
  -18.0309  -28.1419   22.8476 C   0  0  0  0  0  0
  -24.1481  -36.7246   23.2640 C   0  0  0  0  0  0
  -26.0106  -30.7003   21.3930 C   0  0  0  0  0  0
  -26.0805  -29.3033   20.7448 C   0  0  0  0  0  0
  -27.2363  -28.4283   20.7592 C   0  0  0  0  0  0
  -26.0267  -26.7852   19.4789 C   0  0  0  0  0  0
  -24.8919  -27.6280   19.4676 C   0  0  0  0  0  0
  -23.6850  -29.7827   20.1502 C   0  0  0  0  0  0
  -25.4117  -36.3036   24.0315 C   0  0  1  0  0  0
  -20.5918  -28.3737   23.1228 C   0  0  2  0  0  0
  -20.6788  -26.9434   22.5414 C   0  0  0  0  0  0
  -19.5752  -26.6387   21.5221 C   0  0  0  0  0  0
  -18.1940  -26.7952   22.1633 C   0  0  0  0  0  0
  -19.1564  -28.8895   23.2850 C   0  0  0  0  0  0
  -18.9478  -30.1489   23.8870 C   0  0  0  0  0  0
  -17.6475  -30.6605   24.0561 C   0  0  0  0  0  0
  -25.9075  -34.9411   23.5064 C   0  0  0  0  0  0
  -16.5365  -29.9102   23.6334 C   0  0  0  0  0  0
  -16.7294  -28.6528   23.0343 C   0  0  0  0  0  0
  -26.4516  -31.6571   25.0711 C   0  0  0  0  0  0
  -25.3678  -31.3772   26.1386 C   0  0  0  0  0  0
  -27.0373  -30.2958   24.6314 C   0  0  0  0  0  0
  -27.6062  -32.4316   25.7501 C   0  0  0  0  0  0
  -27.5574  -37.1780   24.8464 C   0  0  0  0  0  0
  -21.4274  -29.3059   22.3597 N   0  0  0  0  0  0
  -26.4273  -37.3749   23.9426 N   0  0  0  0  0  0
  -24.7230  -31.0234   22.0899 N   0  0  0  0  0  0
  -23.4223  -28.8088   23.2995 O   0  0  0  0  0  0
  -28.2724  -26.0958   20.1727 O   0  0  0  0  0  0
  -26.5664  -34.8909   22.4643 O   0  0  0  0  0  0
  -23.5559  -32.1306   23.7024 O   0  0  0  0  0  0
  -28.1558  -18.9629   21.5117 C   0  0  0  0  0  0
  -27.3528  -20.0519   21.9212 C   0  0  0  0  0  0
  -29.4276  -20.5663   20.2149 C   0  0  0  0  0  0
  -29.2392  -19.1332   20.6348 C   0  0  0  0  0  0
  -28.6101  -21.7631   20.6231 C   0  0  0  0  0  0
  -27.5604  -21.3938   21.5152 C   0  0  0  0  0  0
  -30.1330  -17.7686   20.2640 C   0  0  0  0  0  0
  -28.8396  -23.3826   20.2054 C   0  0  0  0  0  0
  -29.7813  -16.2301   20.5394 N   0  0  0  0  0  0
  -27.8217  -24.5683   20.4244 N   0  0  0  0  0  0
  -26.4711  -22.5457   22.2028 Cl  0  0  0  0  0  0
  -31.4716  -12.7777   19.2253 H   0  0  0  0  0  0
  -30.4211  -11.6859   20.0752 H   0  0  0  0  0  0
  -29.8693  -11.7501   17.6053 H   0  0  0  0  0  0
  -29.6195  -13.4748   17.7054 H   0  0  0  0  0  0
  -27.9639  -11.2819   18.9856 H   0  0  0  0  0  0
  -27.4117  -12.4449   17.8079 H   0  0  0  0  0  0
  -27.5723  -14.2541   19.3867 H   0  0  0  0  0  0
  -28.7423  -12.3730   21.4861 H   0  0  0  0  0  0
  -28.3309  -14.0582   21.7231 H   0  0  0  0  0  0
  -25.2755   -9.5716   22.4725 H   0  0  0  0  0  0
  -24.0005   -7.4639   22.7435 H   0  0  0  0  0  0
  -21.0833   -8.8697   19.8932 H   0  0  0  0  0  0
  -22.3619  -10.9631   19.6123 H   0  0  0  0  0  0
  -21.1993   -7.6123   23.9706 H   0  0  0  0  0  0
  -21.1515   -6.0501   25.9083 H   0  0  0  0  0  0
  -22.0596   -2.7582   23.2856 H   0  0  0  0  0  0
  -22.4068  -11.9859   22.4878 H   0  0  0  0  0  0
  -21.1026  -13.1168   22.2655 H   0  0  0  0  0  0
  -24.6410  -15.8480   20.5396 H   0  0  0  0  0  0
  -26.2583  -15.6423   20.1033 H   0  0  0  0  0  0
  -26.7289  -32.5295   23.0993 H   0  0  0  0  0  0
  -25.0076  -33.9626   25.0312 H   0  0  0  0  0  0
  -22.7564  -31.2843   21.3689 H   0  0  0  0  0  0
  -23.3757  -35.9562   23.3281 H   0  0  0  0  0  0
  -24.3567  -36.8890   22.2058 H   0  0  0  0  0  0
  -23.7214  -37.6432   23.6679 H   0  0  0  0  0  0
  -26.1678  -31.4453   20.6120 H   0  0  0  0  0  0
  -26.8811  -30.7608   22.0330 H   0  0  0  0  0  0
  -28.1329  -28.7504   21.2706 H   0  0  0  0  0  0
  -25.9506  -25.8406   18.9607 H   0  0  0  0  0  0
  -24.0013  -27.2974   18.9513 H   0  0  0  0  0  0
  -23.8315  -30.5560   19.3940 H   0  0  0  0  0  0
  -22.8001  -29.2290   19.8322 H   0  0  0  0  0  0
  -25.1298  -36.1862   25.0801 H   0  0  0  0  0  0
  -21.0023  -28.3334   24.1348 H   0  0  0  0  0  0
  -20.5657  -26.2359   23.3644 H   0  0  0  0  0  0
  -21.6653  -26.7417   22.1220 H   0  0  0  0  0  0
  -19.6905  -25.6291   21.1278 H   0  0  0  0  0  0
  -19.6690  -27.3182   20.6736 H   0  0  0  0  0  0
  -17.4207  -26.6693   21.4045 H   0  0  0  0  0  0
  -18.0330  -26.0111   22.9042 H   0  0  0  0  0  0
  -19.7948  -30.7319   24.2229 H   0  0  0  0  0  0
  -17.5018  -31.6277   24.5179 H   0  0  0  0  0  0
  -15.5360  -30.2994   23.7657 H   0  0  0  0  0  0
  -15.8697  -28.0840   22.7050 H   0  0  0  0  0  0
  -24.5904  -30.7067   25.7700 H   0  0  0  0  0  0
  -24.8807  -32.2950   26.4689 H   0  0  0  0  0  0
  -25.7939  -30.9043   27.0241 H   0  0  0  0  0  0
  -26.2991  -29.6692   24.1295 H   0  0  0  0  0  0
  -27.3942  -29.7252   25.4902 H   0  0  0  0  0  0
  -27.8919  -30.4181   23.9655 H   0  0  0  0  0  0
  -27.2684  -33.3641   26.2022 H   0  0  0  0  0  0
  -28.3906  -32.6816   25.0352 H   0  0  0  0  0  0
  -28.0679  -31.8461   26.5459 H   0  0  0  0  0  0
  -28.2568  -38.0103   24.7541 H   0  0  0  0  0  0
  -28.1092  -36.2634   24.6242 H   0  0  0  0  0  0
  -27.2300  -37.1365   25.8867 H   0  0  0  0  0  0
  -20.9490  -29.8795   21.6790 H   0  0  0  0  0  0
  -26.0138  -38.2809   24.1452 H   0  0  0  0  0  0
  -27.9344  -17.9808   21.9028 H   0  0  0  0  0  0
  -26.5400  -19.8468   22.6032 H   0  0  0  0  0  0
  -30.2567  -20.7635   19.5495 H   0  0  0  0  0  0
  -31.1110  -17.9340   20.7214 H   0  0  0  0  0  0
  -30.3296  -17.8350   19.1938 H   0  0  0  0  0  0
  -29.0958  -23.3890   19.1447 H   0  0  0  0  0  0
  -29.7566  -23.6774   20.7168 H   0  0  0  0  0  0
  -28.8060  -16.0726   20.7394 H   0  0  0  0  0  0
  -27.0416  -24.4224   19.7920 H   0  0  0  0  0  0
  1 25  1  0  0  0
  1 30  2  0  0  0
  1 79  1  0  0  0
  2  3  1  0  0  0
  2 25  1  0  0  0
  2 82  1  0  0  0
  2 83  1  0  0  0
  3  4  1  0  0  0
  3 84  1  0  0  0
  3 85  1  0  0  0
  4  5  1  0  0  0
  4 86  1  0  0  0
  4 87  1  0  0  0
  5  6  1  0  0  0
  5 26  1  0  0  0
  5 88  1  0  0  0
  6 25  1  0  0  0
  6 89  1  0  0  0
  6 90  1  0  0  0
  7  8  2  0  0  0
  7 26  1  0  0  0
  7 29  1  0  0  0
  8  9  1  0  0  0
  8 22  1  0  0  0
  9 10  1  0  0  0
  9 27  2  0  0  0
 10 11  2  0  0  0
 10 15  1  0  0  0
 11 12  1  0  0  0
 11 91  1  0  0  0
 12 13  2  0  0  0
 12 92  1  0  0  0
 13 14  1  0  0  0
 13 31  1  0  0  0
 14 15  2  0  0  0
 14 93  1  0  0  0
 15 94  1  0  0  0
 16 17  2  0  0  0
 16 21  1  0  0  0
 16 31  1  0  0  0
 17 18  1  0  0  0
 17 95  1  0  0  0
 18 19  2  0  0  0
 18 96  1  0  0  0
 19 20  1  0  0  0
 19 24  1  0  0  0
 20 21  2  0  0  0
 20 97  1  0  0  0
 21 23  1  0  0  0
 22 28  1  0  0  0
 22 32  2  0  0  0
 26 27  1  0  0  0
 28 98  1  0  0  0
 28 99  1  0  0  0
 29100  1  0  0  0
 29101  1  0  0  0
 33 34  1  0  0  0
 33 66  1  0  0  0
 33 70  2  0  0  0
 34 36  1  0  0  0
 34 59  1  0  0  0
 34102  1  0  0  0
 35 44  2  0  0  0
 35 45  1  0  0  0
 35 68  1  0  0  0
 36 56  1  0  0  0
 36103  1  0  0  0
 37 39  1  0  0  0
 37 47  1  0  0  0
 37 66  1  0  0  0
 37104  1  0  0  0
 38 43  2  0  0  0
 38 46  1  0  0  0
 38 47  1  0  0  0
 39 64  1  0  0  0
 39 67  2  0  0  0
 40 52  1  0  0  0
 40 53  2  0  0  0
 40 58  1  0  0  0
 41105  1  0  0  0
 41106  1  0  0  0
 41107  1  0  0  0
 41 48  1  0  0  0
 42 43  1  0  0  0
 42 66  1  0  0  0
 42108  1  0  0  0
 42109  1  0  0  0
 43 44  1  0  0  0
 44110  1  0  0  0
 45 46  2  0  0  0
 45111  1  0  0  0
 46112  1  0  0  0
 47113  1  0  0  0
 47114  1  0  0  0
 48 56  1  0  0  0
 48 65  1  0  0  0
 48115  1  0  0  0
 49 50  1  0  0  0
 49 53  1  0  0  0
 49 64  1  0  0  0
 49116  1  0  0  0
 50 51  1  0  0  0
 50117  1  0  0  0
 50118  1  0  0  0
 51 52  1  0  0  0
 51119  1  0  0  0
 51120  1  0  0  0
 52121  1  0  0  0
 52122  1  0  0  0
 53 54  1  0  0  0
 54 55  2  0  0  0
 54123  1  0  0  0
 55 57  1  0  0  0
 55124  1  0  0  0
 56 69  2  0  0  0
 57 58  2  0  0  0
 57125  1  0  0  0
 58126  1  0  0  0
 59 60  1  0  0  0
 59 61  1  0  0  0
 59 62  1  0  0  0
 60127  1  0  0  0
 60128  1  0  0  0
 60129  1  0  0  0
 61130  1  0  0  0
 61131  1  0  0  0
 61132  1  0  0  0
 62133  1  0  0  0
 62134  1  0  0  0
 62135  1  0  0  0
 63 65  1  0  0  0
 63136  1  0  0  0
 63137  1  0  0  0
 63138  1  0  0  0
 64139  1  0  0  0
 65140  1  0  0  0
 68 80  1  0  0  0
 71 72  2  0  0  0
 71 74  1  0  0  0
 71141  1  0  0  0
 72 76  1  0  0  0
 72142  1  0  0  0
 73 74  2  0  0  0
 73 75  1  0  0  0
 73143  1  0  0  0
 74 77  1  0  0  0
 75 76  2  0  0  0
 75 78  1  0  0  0
 76 81  1  0  0  0
 77 79  1  0  0  0
 77144  1  0  0  0
 77145  1  0  0  0
 78 80  1  0  0  0
 78146  1  0  0  0
 78147  1  0  0  0
 79148  1  0  0  0
 80149  1  0  0  0
M  ISO  4   1 100  68 101  79 100  80 101
M  END
> <chiral flag>
0

> <version>
0

> <s_m_source_file>
/data/baiqing/PycharmProjects/Reinvent-master-3.2/result/LINK_invent/BTK/process_docking_weight1_custom_product_contain_oxygen_bond_distance_aromatic_linkinvent_7_9_3/rearranged_h_0007.sdf

> <i_m_source_file_index>
49

> <r_mmod_Potential_Energy-OPLS-2005>
543.1396484375

> <r_mmod_Stretch_Energy-OPLS-2005>
312.112426757812

> <r_mmod_Bend_Energy-OPLS-2005>
264.431701660156

> <r_mmod_Torsional_Energy-OPLS-2005>
202.206100463867

> <r_mmod_Improper_Torsional_Energy-OPLS-2005>
4.608314037323

> <r_mmod_Van_der_Waal_Energy-OPLS-2005>
130.596328735352

> <r_mmod_Electrostatic_Energy-OPLS-2005>
-379.111236572266

> <r_mmod_Solvation_Energy-OPLS-2005>
-225.207168579102

> <b_mmod_Minimization_Converged-OPLS-2005>
0

> <r_mmod_RMS_Derivative-OPLS-2005>
2.61118578910828

$$$$
49
                    3D
 Structure written by MMmdl.
163172  0  0  1  0            999 V2000
  -30.7276  -14.3799   20.6771 C   0  0  0  0  0  0
  -30.4217  -12.2715   19.4179 C   0  0  0  0  0  0
  -29.4891  -12.4974   18.2113 C   0  0  0  0  0  0
  -28.0119  -12.3571   18.6303 C   0  0  0  0  0  0
  -27.6680  -13.1893   19.8895 C   0  0  2  0  0  0
  -28.6968  -12.9152   21.0074 C   0  0  0  0  0  0
  -25.2615  -13.8131   20.5717 C   0  0  0  0  0  0
  -24.1830  -13.0408   20.9201 C   0  0  0  0  0  0
  -24.6360  -11.6893   20.8825 C   0  0  0  0  0  0
  -23.9050  -10.4265   21.0493 C   0  0  0  0  0  0
  -24.3612   -9.4162   21.9253 C   0  0  0  0  0  0
  -23.6262   -8.2206   22.0776 C   0  0  0  0  0  0
  -22.4266   -8.0275   21.3538 C   0  0  0  0  0  0
  -21.9920   -9.0264   20.4671 C   0  0  0  0  0  0
  -22.7247  -10.2138   20.3094 C   0  0  0  0  0  0
  -21.6832   -6.0738   22.5285 C   0  0  0  0  0  0
  -21.3988   -6.5639   23.8216 C   0  0  0  0  0  0
  -21.3670   -5.6800   24.9185 C   0  0  0  0  0  0
  -21.6031   -4.3058   24.7247 C   0  0  0  0  0  0
  -21.8803   -3.8149   23.4371 C   0  0  0  0  0  0
  -21.9160   -4.6953   22.3422 C   0  0  0  0  0  0
  -22.7873  -13.5247   21.1862 C   0  0  0  0  0  0
  -22.1640   -4.2126   21.1007 F   0  0  0  0  0  0
  -21.5648   -3.4565   25.7770 F   0  0  0  0  0  0
  -30.0444  -13.2200   20.4780 N   0  0  0  0  0  0
  -26.3034  -12.9256   20.3479 N   0  0  0  0  0  0
  -25.9281  -11.6447   20.5927 N   0  0  0  0  0  0
  -22.0463  -12.8251   22.0432 N   0  0  0  0  0  0
  -25.4418  -15.1832   20.4142 N   0  0  0  0  0  0
  -31.7833  -14.6611   20.0909 O   0  0  0  0  0  0
  -21.6581   -6.8905   21.4261 O   0  0  0  0  0  0
  -22.3616  -14.5544   20.6705 O   0  0  0  0  0  0
  -24.6099  -31.8722   23.2230 C   0  0  0  0  0  0
  -25.9007  -32.4797   23.8494 C   0  0  1  0  0  0
  -27.2315  -27.4723   20.0812 C   0  0  0  0  0  0
  -25.5875  -33.8608   24.2363 N   0  0  0  0  0  0
  -23.3971  -30.4983   21.5624 C   0  0  2  0  0  0
  -24.8457  -28.9902   20.1071 C   0  0  0  0  0  0
  -22.7387  -29.4670   22.5050 C   0  0  0  0  0  0
  -18.0275  -28.1330   22.8450 C   0  0  0  0  0  0
  -24.1497  -36.7303   23.2641 C   0  0  0  0  0  0
  -25.9295  -30.8472   21.3777 C   0  0  0  0  0  0
  -26.0027  -29.4925   20.7107 C   0  0  0  0  0  0
  -27.1971  -28.7392   20.6973 C   0  0  0  0  0  0
  -26.0610  -26.9989   19.4438 C   0  0  0  0  0  0
  -24.8675  -27.7369   19.4707 C   0  0  0  0  0  0
  -23.6034  -29.8479   20.1695 C   0  0  0  0  0  0
  -25.4121  -36.3098   24.0325 C   0  0  1  0  0  0
  -20.5842  -28.3594   23.1334 C   0  0  2  0  0  0
  -20.6729  -26.9345   22.5407 C   0  0  0  0  0  0
  -19.5735  -26.6396   21.5177 C   0  0  0  0  0  0
  -18.1909  -26.7914   22.1540 C   0  0  0  0  0  0
  -19.1502  -28.8792   23.2900 C   0  0  0  0  0  0
  -18.9423  -30.1389   23.8937 C   0  0  0  0  0  0
  -17.6424  -30.6533   24.0592 C   0  0  0  0  0  0
  -25.9022  -34.9454   23.5157 C   0  0  0  0  0  0
  -16.5321  -29.9050   23.6297 C   0  0  0  0  0  0
  -16.7254  -28.6466   23.0298 C   0  0  0  0  0  0
  -26.4449  -31.6574   25.0774 C   0  0  0  0  0  0
  -25.3729  -31.3705   26.1540 C   0  0  0  0  0  0
  -27.0231  -30.3011   24.6103 C   0  0  0  0  0  0
  -27.6006  -32.4302   25.7524 C   0  0  0  0  0  0
  -27.5597  -37.1784   24.8476 C   0  0  0  0  0  0
  -21.4120  -29.2973   22.3744 N   0  0  0  0  0  0
  -26.4314  -37.3765   23.9383 N   0  0  0  0  0  0
  -24.6624  -31.0875   22.1111 N   0  0  0  0  0  0
  -23.4181  -28.8203   23.3067 O   0  0  0  0  0  0
  -28.3932  -26.7309   20.1756 O   0  0  0  0  0  0
  -26.5593  -34.8877   22.4706 O   0  0  0  0  0  0
  -23.5288  -32.1530   23.7592 O   0  0  0  0  0  0
  -25.9570  -22.9249   21.3284 C   0  0  0  0  0  0
  -27.7912  -23.3288   22.8695 C   0  0  0  0  0  0
  -26.5320  -23.8229   20.4156 C   0  0  0  0  0  0
  -28.3506  -24.2584   21.9633 C   0  0  0  0  0  0
  -29.1971  -17.4010   21.8797 C   0  0  0  0  0  0
  -31.6320  -17.1621   21.9194 C   0  0  0  0  0  0
  -30.5975  -19.3493   22.2705 C   0  0  0  0  0  0
  -26.6029  -22.6426   22.5470 C   0  0  0  0  0  0
  -27.7315  -24.4981   20.7166 C   0  0  0  0  0  0
  -30.3483  -16.5877   21.7622 C   0  0  0  0  0  0
  -29.3179  -18.7886   22.1378 C   0  0  0  0  0  0
  -31.7461  -18.5434   22.1792 C   0  0  0  0  0  0
  -26.0030  -21.6261   23.5026 C   0  0  0  0  0  0
  -26.0210  -20.1647   22.9857 C   0  0  0  0  0  0
  -27.2965  -19.3391   23.2326 C   0  0  0  0  0  0
  -30.1507  -15.1946   21.5702 N   0  0  0  0  0  0
  -28.2573  -25.3691   19.7475 N   0  0  0  0  0  0
  -28.2462  -19.6397   22.2213 O   0  0  0  0  0  0
  -32.9626  -19.1084   22.3705 F   0  0  0  0  0  0
  -31.4662  -12.3794   19.1238 H   0  0  0  0  0  0
  -30.3365  -11.2471   19.7790 H   0  0  0  0  0  0
  -29.7113  -11.7897   17.4125 H   0  0  0  0  0  0
  -29.6830  -13.4901   17.8043 H   0  0  0  0  0  0
  -27.8323  -11.3054   18.8505 H   0  0  0  0  0  0
  -27.3498  -12.6070   17.7980 H   0  0  0  0  0  0
  -27.7372  -14.2408   19.6112 H   0  0  0  0  0  0
  -28.6578  -11.8649   21.3081 H   0  0  0  0  0  0
  -28.4286  -13.4662   21.9092 H   0  0  0  0  0  0
  -25.2741   -9.5581   22.4881 H   0  0  0  0  0  0
  -23.9906   -7.4567   22.7485 H   0  0  0  0  0  0
  -21.0846   -8.8785   19.8999 H   0  0  0  0  0  0
  -22.3707  -10.9684   19.6216 H   0  0  0  0  0  0
  -21.1964   -7.6140   23.9711 H   0  0  0  0  0  0
  -21.1538   -6.0554   25.9092 H   0  0  0  0  0  0
  -22.0572   -2.7611   23.2881 H   0  0  0  0  0  0
  -22.4035  -11.9864   22.4728 H   0  0  0  0  0  0
  -21.1124  -13.1395   22.2692 H   0  0  0  0  0  0
  -24.6907  -15.8583   20.5080 H   0  0  0  0  0  0
  -26.3063  -15.5979   20.0921 H   0  0  0  0  0  0
  -26.7067  -32.5550   23.1253 H   0  0  0  0  0  0
  -25.0004  -33.9827   25.0469 H   0  0  0  0  0  0
  -22.6808  -31.3138   21.4366 H   0  0  0  0  0  0
  -23.3748  -35.9651   23.3337 H   0  0  0  0  0  0
  -24.3651  -36.8896   22.2064 H   0  0  0  0  0  0
  -23.7275  -37.6515   23.6669 H   0  0  0  0  0  0
  -26.0590  -31.6315   20.6322 H   0  0  0  0  0  0
  -26.8146  -30.8843   22.0014 H   0  0  0  0  0  0
  -28.0912  -29.1169   21.1707 H   0  0  0  0  0  0
  -26.0401  -26.0590   18.9192 H   0  0  0  0  0  0
  -23.9845  -27.3399   18.9910 H   0  0  0  0  0  0
  -23.7079  -30.6424   19.4298 H   0  0  0  0  0  0
  -22.7285  -29.2692   19.8647 H   0  0  0  0  0  0
  -25.1302  -36.1974   25.0821 H   0  0  0  0  0  0
  -20.9925  -28.3112   24.1465 H   0  0  0  0  0  0
  -20.5656  -26.2189   23.3556 H   0  0  0  0  0  0
  -21.6601  -26.7434   22.1210 H   0  0  0  0  0  0
  -19.6917  -25.6372   21.1056 H   0  0  0  0  0  0
  -19.6649  -27.3304   20.6753 H   0  0  0  0  0  0
  -17.4204  -26.6718   21.3916 H   0  0  0  0  0  0
  -18.0306  -26.0020   22.8882 H   0  0  0  0  0  0
  -19.7899  -30.7180   24.2369 H   0  0  0  0  0  0
  -17.4949  -31.6197   24.5210 H   0  0  0  0  0  0
  -15.5315  -30.2928   23.7610 H   0  0  0  0  0  0
  -15.8650  -28.0811   22.6990 H   0  0  0  0  0  0
  -24.5895  -30.7034   25.7952 H   0  0  0  0  0  0
  -24.8923  -32.2887   26.4959 H   0  0  0  0  0  0
  -25.8111  -30.8947   27.0309 H   0  0  0  0  0  0
  -26.2763  -29.6844   24.1102 H   0  0  0  0  0  0
  -27.3959  -29.7157   25.4526 H   0  0  0  0  0  0
  -27.8637  -30.4354   23.9282 H   0  0  0  0  0  0
  -27.2601  -33.3581   26.2122 H   0  0  0  0  0  0
  -28.3799  -32.6893   25.0366 H   0  0  0  0  0  0
  -28.0667  -31.8437   26.5428 H   0  0  0  0  0  0
  -28.2587  -38.0090   24.7499 H   0  0  0  0  0  0
  -28.1080  -36.2626   24.6305 H   0  0  0  0  0  0
  -27.2325  -37.1441   25.8876 H   0  0  0  0  0  0
  -20.9293  -29.8715   21.6952 H   0  0  0  0  0  0
  -26.0194  -38.2834   24.1388 H   0  0  0  0  0  0
  -25.0169  -22.4540   21.0774 H   0  0  0  0  0  0
  -28.2714  -23.1476   23.8184 H   0  0  0  0  0  0
  -26.0482  -23.9819   19.4644 H   0  0  0  0  0  0
  -29.2650  -24.7712   22.2246 H   0  0  0  0  0  0
  -28.2267  -16.9484   21.7407 H   0  0  0  0  0  0
  -32.5259  -16.5544   21.8855 H   0  0  0  0  0  0
  -30.6891  -20.4072   22.4700 H   0  0  0  0  0  0
  -24.9621  -21.9245   23.6400 H   0  0  0  0  0  0
  -26.4534  -21.7049   24.4942 H   0  0  0  0  0  0
  -25.7594  -20.1235   21.9283 H   0  0  0  0  0  0
  -25.2271  -19.6336   23.5067 H   0  0  0  0  0  0
  -27.7311  -19.5401   24.2147 H   0  0  0  0  0  0
  -27.0301  -18.2773   23.2210 H   0  0  0  0  0  0
  -29.2989  -14.8194   21.9586 H   0  0  0  0  0  0
  -29.1344  -25.1020   19.3074 H   0  0  0  0  0  0
  1 25  1  0  0  0
  1 30  2  0  0  0
  1 86  1  0  0  0
  2  3  1  0  0  0
  2 25  1  0  0  0
  2 90  1  0  0  0
  2 91  1  0  0  0
  3  4  1  0  0  0
  3 92  1  0  0  0
  3 93  1  0  0  0
  4  5  1  0  0  0
  4 94  1  0  0  0
  4 95  1  0  0  0
  5  6  1  0  0  0
  5 26  1  0  0  0
  5 96  1  0  0  0
  6 25  1  0  0  0
  6 97  1  0  0  0
  6 98  1  0  0  0
  7  8  2  0  0  0
  7 26  1  0  0  0
  7 29  1  0  0  0
  8  9  1  0  0  0
  8 22  1  0  0  0
  9 10  1  0  0  0
  9 27  2  0  0  0
 10 11  2  0  0  0
 10 15  1  0  0  0
 11 12  1  0  0  0
 11 99  1  0  0  0
 12 13  2  0  0  0
 12100  1  0  0  0
 13 14  1  0  0  0
 13 31  1  0  0  0
 14 15  2  0  0  0
 14101  1  0  0  0
 15102  1  0  0  0
 16 17  2  0  0  0
 16 21  1  0  0  0
 16 31  1  0  0  0
 17 18  1  0  0  0
 17103  1  0  0  0
 18 19  2  0  0  0
 18104  1  0  0  0
 19 20  1  0  0  0
 19 24  1  0  0  0
 20 21  2  0  0  0
 20105  1  0  0  0
 21 23  1  0  0  0
 22 28  1  0  0  0
 22 32  2  0  0  0
 26 27  1  0  0  0
 28106  1  0  0  0
 28107  1  0  0  0
 29108  1  0  0  0
 29109  1  0  0  0
 33 34  1  0  0  0
 33 66  1  0  0  0
 33 70  2  0  0  0
 34 36  1  0  0  0
 34 59  1  0  0  0
 34110  1  0  0  0
 35 44  2  0  0  0
 35 45  1  0  0  0
 35 68  1  0  0  0
 36 56  1  0  0  0
 36111  1  0  0  0
 37 39  1  0  0  0
 37 47  1  0  0  0
 37 66  1  0  0  0
 37112  1  0  0  0
 38 43  2  0  0  0
 38 46  1  0  0  0
 38 47  1  0  0  0
 39 64  1  0  0  0
 39 67  2  0  0  0
 40 52  1  0  0  0
 40 53  2  0  0  0
 40 58  1  0  0  0
 41113  1  0  0  0
 41114  1  0  0  0
 41115  1  0  0  0
 41 48  1  0  0  0
 42 43  1  0  0  0
 42 66  1  0  0  0
 42116  1  0  0  0
 42117  1  0  0  0
 43 44  1  0  0  0
 44118  1  0  0  0
 45 46  2  0  0  0
 45119  1  0  0  0
 46120  1  0  0  0
 47121  1  0  0  0
 47122  1  0  0  0
 48 56  1  0  0  0
 48 65  1  0  0  0
 48123  1  0  0  0
 49 50  1  0  0  0
 49 53  1  0  0  0
 49 64  1  0  0  0
 49124  1  0  0  0
 50 51  1  0  0  0
 50125  1  0  0  0
 50126  1  0  0  0
 51 52  1  0  0  0
 51127  1  0  0  0
 51128  1  0  0  0
 52129  1  0  0  0
 52130  1  0  0  0
 53 54  1  0  0  0
 54 55  2  0  0  0
 54131  1  0  0  0
 55 57  1  0  0  0
 55132  1  0  0  0
 56 69  2  0  0  0
 57 58  2  0  0  0
 57133  1  0  0  0
 58134  1  0  0  0
 59 60  1  0  0  0
 59 61  1  0  0  0
 59 62  1  0  0  0
 60135  1  0  0  0
 60136  1  0  0  0
 60137  1  0  0  0
 61138  1  0  0  0
 61139  1  0  0  0
 61140  1  0  0  0
 62141  1  0  0  0
 62142  1  0  0  0
 62143  1  0  0  0
 63 65  1  0  0  0
 63144  1  0  0  0
 63145  1  0  0  0
 63146  1  0  0  0
 64147  1  0  0  0
 65148  1  0  0  0
 68 87  1  0  0  0
 71 73  2  0  0  0
 71 78  1  0  0  0
 71149  1  0  0  0
 72 74  1  0  0  0
 72 78  2  0  0  0
 72150  1  0  0  0
 73 79  1  0  0  0
 73151  1  0  0  0
 74 79  2  0  0  0
 74152  1  0  0  0
 75 80  2  0  0  0
 75 81  1  0  0  0
 75153  1  0  0  0
 76 80  1  0  0  0
 76 82  2  0  0  0
 76154  1  0  0  0
 77 81  2  0  0  0
 77 82  1  0  0  0
 77155  1  0  0  0
 78 83  1  0  0  0
 79 87  1  0  0  0
 80 86  1  0  0  0
 81 88  1  0  0  0
 82 89  1  0  0  0
 83 84  1  0  0  0
 83156  1  0  0  0
 83157  1  0  0  0
 84 85  1  0  0  0
 84158  1  0  0  0
 84159  1  0  0  0
 85 88  1  0  0  0
 85160  1  0  0  0
 85161  1  0  0  0
 86162  1  0  0  0
 87163  1  0  0  0
M  ISO  4   1 100  68 101  86 100  87 101
M  END
> <chiral flag>
0

> <version>
0

> <s_m_source_file>
/data/baiqing/PycharmProjects/Reinvent-master-3.2/result/LINK_invent/BTK/process_docking_weight1_custom_product_contain_oxygen_bond_distance_aromatic_linkinvent_7_9_3/rearranged_h_0007.sdf

> <i_m_source_file_index>
50

> <r_mmod_Potential_Energy-OPLS-2005>
-4.619140625

> <r_mmod_Stretch_Energy-OPLS-2005>
34.1778564453125

> <r_mmod_Bend_Energy-OPLS-2005>
103.402008056641

> <r_mmod_Torsional_Energy-OPLS-2005>
258.606811523438

> <r_mmod_Improper_Torsional_Energy-OPLS-2005>
8.40417385101318

> <r_mmod_Van_der_Waal_Energy-OPLS-2005>
173.849212646484

> <r_mmod_Electrostatic_Energy-OPLS-2005>
-372.778869628906

> <r_mmod_Solvation_Energy-OPLS-2005>
-221.549667358398

> <b_mmod_Minimization_Converged-OPLS-2005>
0

> <r_mmod_RMS_Derivative-OPLS-2005>
7.12400817871094

$$$$
50
                    3D
 Structure written by MMmdl.
153162  0  0  1  0            999 V2000
  -30.5041  -14.9487   20.4277 C   0  0  0  0  0  0
  -30.4546  -12.5902   19.4880 C   0  0  0  0  0  0
  -29.5250  -12.5287   18.2517 C   0  0  0  0  0  0
  -28.0582  -12.3085   18.6739 C   0  0  0  0  0  0
  -27.6339  -13.2393   19.8399 C   0  0  2  0  0  0
  -28.6783  -13.2464   20.9767 C   0  0  0  0  0  0
  -25.2496  -13.8204   20.5718 C   0  0  0  0  0  0
  -24.1801  -13.0435   20.9234 C   0  0  0  0  0  0
  -24.6400  -11.6915   20.8762 C   0  0  0  0  0  0
  -23.9078  -10.4289   21.0417 C   0  0  0  0  0  0
  -24.3627   -9.4204   21.9189 C   0  0  0  0  0  0
  -23.6299   -8.2241   22.0758 C   0  0  0  0  0  0
  -22.4280   -8.0284   21.3547 C   0  0  0  0  0  0
  -21.9918   -9.0258   20.4646 C   0  0  0  0  0  0
  -22.7253  -10.2133   20.3058 C   0  0  0  0  0  0
  -21.6852   -6.0742   22.5281 C   0  0  0  0  0  0
  -21.4013   -6.5643   23.8215 C   0  0  0  0  0  0
  -21.3659   -5.6793   24.9174 C   0  0  0  0  0  0
  -21.6043   -4.3057   24.7221 C   0  0  0  0  0  0
  -21.8819   -3.8149   23.4342 C   0  0  0  0  0  0
  -21.9192   -4.6969   22.3402 C   0  0  0  0  0  0
  -22.7816  -13.5211   21.1889 C   0  0  0  0  0  0
  -22.1658   -4.2157   21.0981 F   0  0  0  0  0  0
  -21.5629   -3.4539   25.7733 F   0  0  0  0  0  0
  -29.9540  -13.6702   20.3818 N   0  0  0  0  0  0
  -26.2908  -12.9410   20.3238 N   0  0  0  0  0  0
  -25.9330  -11.6549   20.5738 N   0  0  0  0  0  0
  -22.0458  -12.8197   22.0434 N   0  0  0  0  0  0
  -25.4149  -15.1943   20.4162 N   0  0  0  0  0  0
  -31.7096  -15.0666   20.1789 O   0  0  0  0  0  0
  -21.6640   -6.8886   21.4242 O   0  0  0  0  0  0
  -22.3499  -14.5522   20.6739 O   0  0  0  0  0  0
  -24.6432  -31.8427   23.1850 C   0  0  0  0  0  0
  -25.9197  -32.4697   23.8249 C   0  0  1  0  0  0
  -27.2259  -27.1367   20.1660 C   0  0  0  0  0  0
  -25.5945  -33.8500   24.2180 N   0  0  0  0  0  0
  -23.4479  -30.4591   21.5304 C   0  0  2  0  0  0
  -24.8984  -28.8748   20.1182 C   0  0  0  0  0  0
  -22.7566  -29.4542   22.4858 C   0  0  0  0  0  0
  -18.0300  -28.1404   22.8483 C   0  0  0  0  0  0
  -24.1480  -36.7244   23.2642 C   0  0  0  0  0  0
  -26.0014  -30.7197   21.3784 C   0  0  0  0  0  0
  -26.0754  -29.3263   20.7290 C   0  0  0  0  0  0
  -27.2427  -28.4757   20.7276 C   0  0  0  0  0  0
  -26.0215  -26.7733   19.5305 C   0  0  0  0  0  0
  -24.8829  -27.6117   19.5033 C   0  0  0  0  0  0
  -23.6752  -29.7783   20.1534 C   0  0  0  0  0  0
  -25.4111  -36.3028   24.0319 C   0  0  1  0  0  0
  -20.5915  -28.3722   23.1240 C   0  0  2  0  0  0
  -20.6783  -26.9425   22.5405 C   0  0  0  0  0  0
  -19.5754  -26.6387   21.5216 C   0  0  0  0  0  0
  -18.1935  -26.7946   22.1625 C   0  0  0  0  0  0
  -19.1558  -28.8879   23.2857 C   0  0  0  0  0  0
  -18.9481  -30.1477   23.8882 C   0  0  0  0  0  0
  -17.6479  -30.6603   24.0566 C   0  0  0  0  0  0
  -25.9068  -34.9410   23.5059 C   0  0  0  0  0  0
  -16.5367  -29.9101   23.6342 C   0  0  0  0  0  0
  -16.7285  -28.6518   23.0363 C   0  0  0  0  0  0
  -26.4524  -31.6563   25.0689 C   0  0  0  0  0  0
  -25.3722  -31.3760   26.1398 C   0  0  0  0  0  0
  -27.0376  -30.2964   24.6237 C   0  0  0  0  0  0
  -27.6060  -32.4319   25.7476 C   0  0  0  0  0  0
  -27.5572  -37.1764   24.8460 C   0  0  0  0  0  0
  -21.4258  -29.3055   22.3613 N   0  0  0  0  0  0
  -26.4267  -37.3751   23.9432 N   0  0  0  0  0  0
  -24.7178  -31.0284   22.0876 N   0  0  0  0  0  0
  -23.4207  -28.8095   23.3016 O   0  0  0  0  0  0
  -28.3080  -26.1877   20.1615 O   0  0  0  0  0  0
  -26.5656  -34.8913   22.4638 O   0  0  0  0  0  0
  -23.5550  -32.1284   23.7075 O   0  0  0  0  0  0
  -30.2724  -19.9540   21.1842 C   0  0  0  0  0  0
  -30.4759  -18.5089   21.1566 C   0  0  0  0  0  0
  -28.4171  -19.7578   19.7614 C   0  0  0  0  0  0
  -29.2301  -20.6841   20.4977 C   0  0  0  0  0  0
  -29.6301  -17.5898   20.4517 C   0  0  0  0  0  0
  -28.5875  -18.3078   19.7625 C   0  0  0  0  0  0
  -29.2036  -24.3813   21.6978 C   0  0  0  0  0  0
  -29.2786  -22.8317   21.9033 C   0  0  0  0  0  0
  -28.4313  -23.2906   19.7547 C   0  0  0  0  0  0
  -28.1731  -24.6957   20.5955 C   0  0  2  0  0  0
  -29.0260  -22.1660   20.6225 N   0  0  0  0  0  0
  -29.6201  -16.0545   20.5264 N   0  0  0  0  0  0
  -27.6779  -17.5666   19.0837 F   0  0  0  0  0  0
  -31.4824  -12.7750   19.1718 H   0  0  0  0  0  0
  -30.4699  -11.6337   20.0126 H   0  0  0  0  0  0
  -29.8448  -11.7327   17.5778 H   0  0  0  0  0  0
  -29.6054  -13.4584   17.6865 H   0  0  0  0  0  0
  -27.9592  -11.2672   18.9830 H   0  0  0  0  0  0
  -27.3916  -12.4364   17.8201 H   0  0  0  0  0  0
  -27.6001  -14.2432   19.4162 H   0  0  0  0  0  0
  -28.7685  -12.2610   21.4366 H   0  0  0  0  0  0
  -28.3779  -13.9302   21.7728 H   0  0  0  0  0  0
  -25.2775   -9.5681   22.4761 H   0  0  0  0  0  0
  -24.0007   -7.4633   22.7479 H   0  0  0  0  0  0
  -21.0850   -8.8780   19.8949 H   0  0  0  0  0  0
  -22.3720  -10.9673   19.6164 H   0  0  0  0  0  0
  -21.2003   -7.6151   23.9722 H   0  0  0  0  0  0
  -21.1480   -6.0521   25.9079 H   0  0  0  0  0  0
  -22.0599   -2.7611   23.2838 H   0  0  0  0  0  0
  -22.4066  -11.9845   22.4809 H   0  0  0  0  0  0
  -21.1074  -13.1221   22.2641 H   0  0  0  0  0  0
  -24.6406  -15.8370   20.5432 H   0  0  0  0  0  0
  -26.2372  -15.6466   20.0374 H   0  0  0  0  0  0
  -26.7264  -32.5309   23.0978 H   0  0  0  0  0  0
  -25.0088  -33.9609   25.0330 H   0  0  0  0  0  0
  -22.7514  -31.2845   21.3702 H   0  0  0  0  0  0
  -23.3760  -35.9558   23.3274 H   0  0  0  0  0  0
  -24.3570  -36.8896   22.2061 H   0  0  0  0  0  0
  -23.7203  -37.6424   23.6686 H   0  0  0  0  0  0
  -26.1457  -31.4684   20.5980 H   0  0  0  0  0  0
  -26.8771  -30.7813   22.0130 H   0  0  0  0  0  0
  -28.1477  -28.8247   21.2046 H   0  0  0  0  0  0
  -25.9524  -25.8025   19.0594 H   0  0  0  0  0  0
  -23.9827  -27.2592   19.0189 H   0  0  0  0  0  0
  -23.8138  -30.5472   19.3925 H   0  0  0  0  0  0
  -22.7910  -29.2178   19.8442 H   0  0  0  0  0  0
  -25.1292  -36.1846   25.0810 H   0  0  0  0  0  0
  -21.0006  -28.3305   24.1361 H   0  0  0  0  0  0
  -20.5671  -26.2338   23.3626 H   0  0  0  0  0  0
  -21.6647  -26.7426   22.1200 H   0  0  0  0  0  0
  -19.6915  -25.6295   21.1250 H   0  0  0  0  0  0
  -19.6694  -27.3197   20.6747 H   0  0  0  0  0  0
  -17.4205  -26.6696   21.4028 H   0  0  0  0  0  0
  -18.0329  -26.0097   22.9026 H   0  0  0  0  0  0
  -19.7960  -30.7299   24.2240 H   0  0  0  0  0  0
  -17.5038  -31.6284   24.5167 H   0  0  0  0  0  0
  -15.5369  -30.3004   23.7684 H   0  0  0  0  0  0
  -15.8680  -28.0836   22.7093 H   0  0  0  0  0  0
  -24.5904  -30.7097   25.7730 H   0  0  0  0  0  0
  -24.8917  -32.2953   26.4757 H   0  0  0  0  0  0
  -25.8021  -30.8982   27.0210 H   0  0  0  0  0  0
  -26.2974  -29.6698   24.1247 H   0  0  0  0  0  0
  -27.4017  -29.7241   25.4780 H   0  0  0  0  0  0
  -27.8868  -30.4213   23.9515 H   0  0  0  0  0  0
  -27.2669  -33.3665   26.1953 H   0  0  0  0  0  0
  -28.3934  -32.6790   25.0344 H   0  0  0  0  0  0
  -28.0651  -31.8498   26.5475 H   0  0  0  0  0  0
  -28.2545  -38.0106   24.7564 H   0  0  0  0  0  0
  -28.1109  -36.2635   24.6205 H   0  0  0  0  0  0
  -27.2306  -37.1310   25.8866 H   0  0  0  0  0  0
  -20.9464  -29.8775   21.6799 H   0  0  0  0  0  0
  -26.0126  -38.2803   24.1496 H   0  0  0  0  0  0
  -30.9723  -20.5185   21.7831 H   0  0  0  0  0  0
  -31.2846  -18.1031   21.7470 H   0  0  0  0  0  0
  -27.5822  -20.1552   19.2042 H   0  0  0  0  0  0
  -30.1810  -24.7370   21.3703 H   0  0  0  0  0  0
  -28.9774  -24.9026   22.6282 H   0  0  0  0  0  0
  -28.5104  -22.5178   22.6114 H   0  0  0  0  0  0
  -30.2415  -22.5510   22.3301 H   0  0  0  0  0  0
  -29.1354  -23.4884   18.9457 H   0  0  0  0  0  0
  -27.5066  -22.9572   19.2810 H   0  0  0  0  0  0
  -27.1868  -24.6017   21.0531 H   0  0  0  0  0  0
  -28.6743  -15.7065   20.5422 H   0  0  0  0  0  0
  1 25  1  0  0  0
  1 30  2  0  0  0
  1 82  1  0  0  0
  2  3  1  0  0  0
  2 25  1  0  0  0
  2 84  1  0  0  0
  2 85  1  0  0  0
  3  4  1  0  0  0
  3 86  1  0  0  0
  3 87  1  0  0  0
  4  5  1  0  0  0
  4 88  1  0  0  0
  4 89  1  0  0  0
  5  6  1  0  0  0
  5 26  1  0  0  0
  5 90  1  0  0  0
  6 25  1  0  0  0
  6 91  1  0  0  0
  6 92  1  0  0  0
  7  8  2  0  0  0
  7 26  1  0  0  0
  7 29  1  0  0  0
  8  9  1  0  0  0
  8 22  1  0  0  0
  9 10  1  0  0  0
  9 27  2  0  0  0
 10 11  2  0  0  0
 10 15  1  0  0  0
 11 12  1  0  0  0
 11 93  1  0  0  0
 12 13  2  0  0  0
 12 94  1  0  0  0
 13 14  1  0  0  0
 13 31  1  0  0  0
 14 15  2  0  0  0
 14 95  1  0  0  0
 15 96  1  0  0  0
 16 17  2  0  0  0
 16 21  1  0  0  0
 16 31  1  0  0  0
 17 18  1  0  0  0
 17 97  1  0  0  0
 18 19  2  0  0  0
 18 98  1  0  0  0
 19 20  1  0  0  0
 19 24  1  0  0  0
 20 21  2  0  0  0
 20 99  1  0  0  0
 21 23  1  0  0  0
 22 28  1  0  0  0
 22 32  2  0  0  0
 26 27  1  0  0  0
 28100  1  0  0  0
 28101  1  0  0  0
 29102  1  0  0  0
 29103  1  0  0  0
 33 34  1  0  0  0
 33 66  1  0  0  0
 33 70  2  0  0  0
 34 36  1  0  0  0
 34 59  1  0  0  0
 34104  1  0  0  0
 35 44  2  0  0  0
 35 45  1  0  0  0
 35 68  1  0  0  0
 36 56  1  0  0  0
 36105  1  0  0  0
 37 39  1  0  0  0
 37 47  1  0  0  0
 37 66  1  0  0  0
 37106  1  0  0  0
 38 43  2  0  0  0
 38 46  1  0  0  0
 38 47  1  0  0  0
 39 64  1  0  0  0
 39 67  2  0  0  0
 40 52  1  0  0  0
 40 53  2  0  0  0
 40 58  1  0  0  0
 41107  1  0  0  0
 41108  1  0  0  0
 41109  1  0  0  0
 41 48  1  0  0  0
 42 43  1  0  0  0
 42 66  1  0  0  0
 42110  1  0  0  0
 42111  1  0  0  0
 43 44  1  0  0  0
 44112  1  0  0  0
 45 46  2  0  0  0
 45113  1  0  0  0
 46114  1  0  0  0
 47115  1  0  0  0
 47116  1  0  0  0
 48 56  1  0  0  0
 48 65  1  0  0  0
 48117  1  0  0  0
 49 50  1  0  0  0
 49 53  1  0  0  0
 49 64  1  0  0  0
 49118  1  0  0  0
 50 51  1  0  0  0
 50119  1  0  0  0
 50120  1  0  0  0
 51 52  1  0  0  0
 51121  1  0  0  0
 51122  1  0  0  0
 52123  1  0  0  0
 52124  1  0  0  0
 53 54  1  0  0  0
 54 55  2  0  0  0
 54125  1  0  0  0
 55 57  1  0  0  0
 55126  1  0  0  0
 56 69  2  0  0  0
 57 58  2  0  0  0
 57127  1  0  0  0
 58128  1  0  0  0
 59 60  1  0  0  0
 59 61  1  0  0  0
 59 62  1  0  0  0
 60129  1  0  0  0
 60130  1  0  0  0
 60131  1  0  0  0
 61132  1  0  0  0
 61133  1  0  0  0
 61134  1  0  0  0
 62135  1  0  0  0
 62136  1  0  0  0
 62137  1  0  0  0
 63 65  1  0  0  0
 63138  1  0  0  0
 63139  1  0  0  0
 63140  1  0  0  0
 64141  1  0  0  0
 65142  1  0  0  0
 68 80  1  0  0  0
 71 72  2  0  0  0
 71 74  1  0  0  0
 71143  1  0  0  0
 72 75  1  0  0  0
 72144  1  0  0  0
 73 74  2  0  0  0
 73 76  1  0  0  0
 73145  1  0  0  0
 74 81  1  0  0  0
 75 76  2  0  0  0
 75 82  1  0  0  0
 76 83  1  0  0  0
 77 78  1  0  0  0
 77 80  1  0  0  0
 77146  1  0  0  0
 77147  1  0  0  0
 78 81  1  0  0  0
 78148  1  0  0  0
 78149  1  0  0  0
 79 80  1  0  0  0
 79 81  1  0  0  0
 79150  1  0  0  0
 79151  1  0  0  0
 80152  1  0  0  0
 82153  1  0  0  0
M  ISO  4   1 100  68 101  80 101  82 100
M  END
> <chiral flag>
0

> <version>
0

> <s_m_source_file>
/data/baiqing/PycharmProjects/Reinvent-master-3.2/result/LINK_invent/BTK/process_docking_weight1_custom_product_contain_oxygen_bond_distance_aromatic_linkinvent_7_9_3/rearranged_h_0007.sdf

> <i_m_source_file_index>
51

> <r_mmod_Potential_Energy-OPLS-2005>
511.134216308594

> <r_mmod_Stretch_Energy-OPLS-2005>
215.138229370117

> <r_mmod_Bend_Energy-OPLS-2005>
311.854766845703

> <r_mmod_Torsional_Energy-OPLS-2005>
297.146484375

> <r_mmod_Improper_Torsional_Energy-OPLS-2005>
6.74517917633057

> <r_mmod_Van_der_Waal_Energy-OPLS-2005>
122.15104675293

> <r_mmod_Electrostatic_Energy-OPLS-2005>
-410.138092041016

> <r_mmod_Solvation_Energy-OPLS-2005>
-221.11376953125

> <b_mmod_Minimization_Converged-OPLS-2005>
0

> <r_mmod_RMS_Derivative-OPLS-2005>
0.983909428119659

$$$$
51
                    3D
 Structure written by MMmdl.
151159  0  0  1  0            999 V2000
  -30.4327  -15.3119   20.3546 C   0  0  0  0  0  0
  -30.4389  -12.8361   19.5475 C   0  0  0  0  0  0
  -29.5426  -12.5784   18.3092 C   0  0  0  0  0  0
  -28.0969  -12.2844   18.7424 C   0  0  0  0  0  0
  -27.6115  -13.2774   19.8255 C   0  0  2  0  0  0
  -28.6382  -13.4884   20.9612 C   0  0  0  0  0  0
  -25.2379  -13.8251   20.5755 C   0  0  0  0  0  0
  -24.1740  -13.0438   20.9268 C   0  0  0  0  0  0
  -24.6404  -11.6941   20.8775 C   0  0  0  0  0  0
  -23.9097  -10.4292   21.0421 C   0  0  0  0  0  0
  -24.3633   -9.4198   21.9200 C   0  0  0  0  0  0
  -23.6293   -8.2242   22.0760 C   0  0  0  0  0  0
  -22.4267   -8.0289   21.3555 C   0  0  0  0  0  0
  -21.9914   -9.0270   20.4664 C   0  0  0  0  0  0
  -22.7256  -10.2144   20.3077 C   0  0  0  0  0  0
  -21.6851   -6.0745   22.5290 C   0  0  0  0  0  0
  -21.4023   -6.5652   23.8221 C   0  0  0  0  0  0
  -21.3656   -5.6804   24.9182 C   0  0  0  0  0  0
  -21.6035   -4.3068   24.7228 C   0  0  0  0  0  0
  -21.8810   -3.8157   23.4349 C   0  0  0  0  0  0
  -21.9186   -4.6976   22.3406 C   0  0  0  0  0  0
  -22.7756  -13.5199   21.1894 C   0  0  0  0  0  0
  -22.1656   -4.2159   21.0984 F   0  0  0  0  0  0
  -21.5606   -3.4549   25.7741 F   0  0  0  0  0  0
  -29.8721  -13.9963   20.3384 N   0  0  0  0  0  0
  -26.2817  -12.9529   20.3234 N   0  0  0  0  0  0
  -25.9339  -11.6632   20.5741 N   0  0  0  0  0  0
  -22.0384  -12.8220   22.0457 N   0  0  0  0  0  0
  -25.4016  -15.1988   20.4192 N   0  0  0  0  0  0
  -31.6448  -15.2995   20.0950 O   0  0  0  0  0  0
  -21.6626   -6.8890   21.4252 O   0  0  0  0  0  0
  -22.3451  -14.5496   20.6699 O   0  0  0  0  0  0
  -24.6642  -31.8194   23.1666 C   0  0  0  0  0  0
  -25.9311  -32.4556   23.8139 C   0  0  1  0  0  0
  -27.2251  -26.9058   20.1802 C   0  0  0  0  0  0
  -25.5976  -33.8373   24.2043 N   0  0  0  0  0  0
  -23.4797  -30.4296   21.5157 C   0  0  2  0  0  0
  -24.9348  -28.8103   20.1056 C   0  0  0  0  0  0
  -22.7663  -29.4418   22.4757 C   0  0  0  0  0  0
  -18.0320  -28.1400   22.8468 C   0  0  0  0  0  0
  -24.1498  -36.7199   23.2648 C   0  0  0  0  0  0
  -26.0485  -30.6182   21.4001 C   0  0  0  0  0  0
  -26.1166  -29.2057   20.7438 C   0  0  0  0  0  0
  -27.2501  -28.2736   20.7585 C   0  0  0  0  0  0
  -26.0168  -26.6682   19.4869 C   0  0  0  0  0  0
  -24.9120  -27.5629   19.4579 C   0  0  0  0  0  0
  -23.7206  -29.7407   20.1422 C   0  0  0  0  0  0
  -25.4136  -36.2943   24.0293 C   0  0  1  0  0  0
  -20.5946  -28.3741   23.1179 C   0  0  2  0  0  0
  -20.6793  -26.9422   22.5394 C   0  0  0  0  0  0
  -19.5770  -26.6368   21.5206 C   0  0  0  0  0  0
  -18.1956  -26.7934   22.1620 C   0  0  0  0  0  0
  -19.1582  -28.8891   23.2812 C   0  0  0  0  0  0
  -18.9496  -30.1481   23.8850 C   0  0  0  0  0  0
  -17.6491  -30.6590   24.0553 C   0  0  0  0  0  0
  -25.9107  -34.9328   23.4990 C   0  0  0  0  0  0
  -16.5379  -29.9081   23.6338 C   0  0  0  0  0  0
  -16.7303  -28.6496   23.0363 C   0  0  0  0  0  0
  -26.4571  -31.6516   25.0674 C   0  0  0  0  0  0
  -25.3700  -31.3768   26.1334 C   0  0  0  0  0  0
  -27.0468  -30.2878   24.6415 C   0  0  0  0  0  0
  -27.6045  -32.4346   25.7480 C   0  0  0  0  0  0
  -27.5566  -37.1751   24.8466 C   0  0  0  0  0  0
  -21.4328  -29.3034   22.3515 N   0  0  0  0  0  0
  -26.4277  -37.3679   23.9408 N   0  0  0  0  0  0
  -24.7525  -30.9840   22.0809 N   0  0  0  0  0  0
  -23.4203  -28.7990   23.3009 O   0  0  0  0  0  0
  -28.2347  -25.8052   20.3142 O   0  0  0  0  0  0
  -26.5722  -34.8872   22.4592 O   0  0  0  0  0  0
  -23.5708  -32.1181   23.6745 O   0  0  0  0  0  0
  -28.8702  -19.6619   20.3891 C   0  0  0  0  0  0
  -31.5998  -20.0765   19.8339 C   0  0  0  0  0  0
  -31.2496  -18.7578   20.5772 C   0  0  0  0  0  0
  -30.6963  -21.3096   20.1608 C   0  0  0  0  0  0
  -29.8681  -18.2439   20.1419 C   0  0  1  0  0  0
  -28.5150  -22.5833   20.6513 C   0  0  0  0  0  0
  -28.2725  -24.2019   19.8542 C   0  0  0  0  0  0
  -29.2349  -21.1005   20.2576 N   0  0  0  0  0  0
  -29.6847  -16.5983   20.4861 N   0  0  0  0  0  0
  -27.7087  -19.4057   20.7155 O   0  0  0  0  0  0
  -31.4574  -13.0360   19.2141 H   0  0  0  0  0  0
  -30.5109  -11.9441   20.1725 H   0  0  0  0  0  0
  -29.9365  -11.7491   17.7217 H   0  0  0  0  0  0
  -29.5604  -13.4547   17.6589 H   0  0  0  0  0  0
  -28.0780  -11.2719   19.1499 H   0  0  0  0  0  0
  -27.4243  -12.2812   17.8844 H   0  0  0  0  0  0
  -27.5158  -14.2295   19.3031 H   0  0  0  0  0  0
  -28.8119  -12.5699   21.5230 H   0  0  0  0  0  0
  -28.2648  -14.2227   21.6768 H   0  0  0  0  0  0
  -25.2764   -9.5665   22.4798 H   0  0  0  0  0  0
  -23.9982   -7.4635   22.7487 H   0  0  0  0  0  0
  -21.0826   -8.8806   19.8988 H   0  0  0  0  0  0
  -22.3702  -10.9691   19.6204 H   0  0  0  0  0  0
  -21.2038   -7.6166   23.9733 H   0  0  0  0  0  0
  -21.1476   -6.0534   25.9087 H   0  0  0  0  0  0
  -22.0586   -2.7620   23.2846 H   0  0  0  0  0  0
  -22.3977  -11.9900   22.4883 H   0  0  0  0  0  0
  -21.1022  -13.1304   22.2645 H   0  0  0  0  0  0
  -24.6265  -15.8455   20.5207 H   0  0  0  0  0  0
  -26.2390  -15.6403   20.0622 H   0  0  0  0  0  0
  -26.7370  -32.5092   23.0840 H   0  0  0  0  0  0
  -25.0060  -33.9443   25.0153 H   0  0  0  0  0  0
  -22.7938  -31.2617   21.3427 H   0  0  0  0  0  0
  -23.3760  -35.9534   23.3280 H   0  0  0  0  0  0
  -24.3574  -36.8877   22.2070 H   0  0  0  0  0  0
  -23.7268  -37.6379   23.6734 H   0  0  0  0  0  0
  -26.2308  -31.3575   20.6193 H   0  0  0  0  0  0
  -26.9080  -30.6767   22.0561 H   0  0  0  0  0  0
  -28.1407  -28.5733   21.2928 H   0  0  0  0  0  0
  -25.8840  -25.7151   18.9976 H   0  0  0  0  0  0
  -24.0142  -27.2549   18.9404 H   0  0  0  0  0  0
  -23.8748  -30.5094   19.3837 H   0  0  0  0  0  0
  -22.8298  -29.1955   19.8255 H   0  0  0  0  0  0
  -25.1339  -36.1725   25.0783 H   0  0  0  0  0  0
  -21.0037  -28.3360   24.1302 H   0  0  0  0  0  0
  -20.5661  -26.2368   23.3636 H   0  0  0  0  0  0
  -21.6661  -26.7389   22.1216 H   0  0  0  0  0  0
  -19.6931  -25.6265   21.1273 H   0  0  0  0  0  0
  -19.6711  -27.3144   20.6707 H   0  0  0  0  0  0
  -17.4220  -26.6663   21.4031 H   0  0  0  0  0  0
  -18.0362  -26.0084   22.9023 H   0  0  0  0  0  0
  -19.7972  -30.7305   24.2206 H   0  0  0  0  0  0
  -17.5042  -31.6268   24.5152 H   0  0  0  0  0  0
  -15.5380  -30.2969   23.7675 H   0  0  0  0  0  0
  -15.8703  -28.0787   22.7119 H   0  0  0  0  0  0
  -24.5857  -30.7157   25.7633 H   0  0  0  0  0  0
  -24.8937  -32.2979   26.4702 H   0  0  0  0  0  0
  -25.7934  -30.8949   27.0153 H   0  0  0  0  0  0
  -26.3127  -29.6543   24.1421 H   0  0  0  0  0  0
  -27.3994  -29.7256   25.5073 H   0  0  0  0  0  0
  -27.9080  -30.4054   23.9830 H   0  0  0  0  0  0
  -27.2576  -33.3662   26.1960 H   0  0  0  0  0  0
  -28.3901  -32.6886   25.0353 H   0  0  0  0  0  0
  -28.0666  -31.8553   26.5480 H   0  0  0  0  0  0
  -28.2562  -38.0061   24.7492 H   0  0  0  0  0  0
  -28.1076  -36.2586   24.6315 H   0  0  0  0  0  0
  -27.2279  -37.1416   25.8864 H   0  0  0  0  0  0
  -20.9573  -29.8720   21.6645 H   0  0  0  0  0  0
  -26.0117  -38.2734   24.1413 H   0  0  0  0  0  0
  -31.5843  -19.8960   18.7581 H   0  0  0  0  0  0
  -32.6354  -20.3414   20.0582 H   0  0  0  0  0  0
  -31.2823  -18.8976   21.6587 H   0  0  0  0  0  0
  -32.0133  -18.0171   20.3418 H   0  0  0  0  0  0
  -30.8902  -22.0933   19.4270 H   0  0  0  0  0  0
  -31.0249  -21.7134   21.1194 H   0  0  0  0  0  0
  -29.8985  -18.2026   19.0519 H   0  0  0  0  0  0
  -27.5187  -22.2946   20.9856 H   0  0  0  0  0  0
  -29.0112  -22.8409   21.5859 H   0  0  0  0  0  0
  -27.3831  -24.0679   19.2401 H   0  0  0  0  0  0
  -29.0720  -24.2256   19.1136 H   0  0  0  0  0  0
  -28.7264  -16.4113   20.7403 H   0  0  0  0  0  0
  1 25  1  0  0  0
  1 30  2  0  0  0
  1 79  1  0  0  0
  2  3  1  0  0  0
  2 25  1  0  0  0
  2 81  1  0  0  0
  2 82  1  0  0  0
  3  4  1  0  0  0
  3 83  1  0  0  0
  3 84  1  0  0  0
  4  5  1  0  0  0
  4 85  1  0  0  0
  4 86  1  0  0  0
  5  6  1  0  0  0
  5 26  1  0  0  0
  5 87  1  0  0  0
  6 25  1  0  0  0
  6 88  1  0  0  0
  6 89  1  0  0  0
  7  8  2  0  0  0
  7 26  1  0  0  0
  7 29  1  0  0  0
  8  9  1  0  0  0
  8 22  1  0  0  0
  9 10  1  0  0  0
  9 27  2  0  0  0
 10 11  2  0  0  0
 10 15  1  0  0  0
 11 12  1  0  0  0
 11 90  1  0  0  0
 12 13  2  0  0  0
 12 91  1  0  0  0
 13 14  1  0  0  0
 13 31  1  0  0  0
 14 15  2  0  0  0
 14 92  1  0  0  0
 15 93  1  0  0  0
 16 17  2  0  0  0
 16 21  1  0  0  0
 16 31  1  0  0  0
 17 18  1  0  0  0
 17 94  1  0  0  0
 18 19  2  0  0  0
 18 95  1  0  0  0
 19 20  1  0  0  0
 19 24  1  0  0  0
 20 21  2  0  0  0
 20 96  1  0  0  0
 21 23  1  0  0  0
 22 28  1  0  0  0
 22 32  2  0  0  0
 26 27  1  0  0  0
 28 97  1  0  0  0
 28 98  1  0  0  0
 29 99  1  0  0  0
 29100  1  0  0  0
 33 34  1  0  0  0
 33 66  1  0  0  0
 33 70  2  0  0  0
 34 36  1  0  0  0
 34 59  1  0  0  0
 34101  1  0  0  0
 35 44  2  0  0  0
 35 45  1  0  0  0
 35 68  1  0  0  0
 36 56  1  0  0  0
 36102  1  0  0  0
 37 39  1  0  0  0
 37 47  1  0  0  0
 37 66  1  0  0  0
 37103  1  0  0  0
 38 43  2  0  0  0
 38 46  1  0  0  0
 38 47  1  0  0  0
 39 64  1  0  0  0
 39 67  2  0  0  0
 40 52  1  0  0  0
 40 53  2  0  0  0
 40 58  1  0  0  0
 41104  1  0  0  0
 41105  1  0  0  0
 41106  1  0  0  0
 41 48  1  0  0  0
 42 43  1  0  0  0
 42 66  1  0  0  0
 42107  1  0  0  0
 42108  1  0  0  0
 43 44  1  0  0  0
 44109  1  0  0  0
 45 46  2  0  0  0
 45110  1  0  0  0
 46111  1  0  0  0
 47112  1  0  0  0
 47113  1  0  0  0
 48 56  1  0  0  0
 48 65  1  0  0  0
 48114  1  0  0  0
 49 50  1  0  0  0
 49 53  1  0  0  0
 49 64  1  0  0  0
 49115  1  0  0  0
 50 51  1  0  0  0
 50116  1  0  0  0
 50117  1  0  0  0
 51 52  1  0  0  0
 51118  1  0  0  0
 51119  1  0  0  0
 52120  1  0  0  0
 52121  1  0  0  0
 53 54  1  0  0  0
 54 55  2  0  0  0
 54122  1  0  0  0
 55 57  1  0  0  0
 55123  1  0  0  0
 56 69  2  0  0  0
 57 58  2  0  0  0
 57124  1  0  0  0
 58125  1  0  0  0
 59 60  1  0  0  0
 59 61  1  0  0  0
 59 62  1  0  0  0
 60126  1  0  0  0
 60127  1  0  0  0
 60128  1  0  0  0
 61129  1  0  0  0
 61130  1  0  0  0
 61131  1  0  0  0
 62132  1  0  0  0
 62133  1  0  0  0
 62134  1  0  0  0
 63 65  1  0  0  0
 63135  1  0  0  0
 63136  1  0  0  0
 63137  1  0  0  0
 64138  1  0  0  0
 65139  1  0  0  0
 68 77  1  0  0  0
 71 75  1  0  0  0
 71 78  1  0  0  0
 71 80  2  0  0  0
 72 73  1  0  0  0
 72 74  1  0  0  0
 72140  1  0  0  0
 72141  1  0  0  0
 73 75  1  0  0  0
 73142  1  0  0  0
 73143  1  0  0  0
 74 78  1  0  0  0
 74144  1  0  0  0
 74145  1  0  0  0
 75 79  1  0  0  0
 75146  1  0  0  0
 76 77  1  0  0  0
 76 78  1  0  0  0
 76147  1  0  0  0
 76148  1  0  0  0
 77149  1  0  0  0
 77150  1  0  0  0
 79151  1  0  0  0
M  ISO  4   1 100  68 101  77 101  79 100
M  END
> <chiral flag>
0

> <version>
0

> <s_m_source_file>
/data/baiqing/PycharmProjects/Reinvent-master-3.2/result/LINK_invent/BTK/process_docking_weight1_custom_product_contain_oxygen_bond_distance_aromatic_linkinvent_7_9_3/rearranged_h_0007.sdf

> <i_m_source_file_index>
52

> <r_mmod_Potential_Energy-OPLS-2005>
1347.36401367188

> <r_mmod_Stretch_Energy-OPLS-2005>
646.296936035156

> <r_mmod_Bend_Energy-OPLS-2005>
480.332641601562

> <r_mmod_Torsional_Energy-OPLS-2005>
248.21662902832

> <r_mmod_Improper_Torsional_Energy-OPLS-2005>
5.10523223876953

> <r_mmod_Van_der_Waal_Energy-OPLS-2005>
117.170478820801

> <r_mmod_Electrostatic_Energy-OPLS-2005>
-411.973571777344

> <r_mmod_Solvation_Energy-OPLS-2005>
-239.129699707031

> <b_mmod_Minimization_Converged-OPLS-2005>
0

> <r_mmod_RMS_Derivative-OPLS-2005>
2.25668716430664

$$$$
52
                    3D
 Structure written by MMmdl.
154162  0  0  1  0            999 V2000
  -30.7504  -14.4424   20.6531 C   0  0  0  0  0  0
  -30.4158  -12.3243   19.4160 C   0  0  0  0  0  0
  -29.4891  -12.5254   18.2028 C   0  0  0  0  0  0
  -28.0133  -12.3756   18.6163 C   0  0  0  0  0  0
  -27.6601  -13.2132   19.8739 C   0  0  2  0  0  0
  -28.6999  -13.0004   20.9969 C   0  0  0  0  0  0
  -25.2523  -13.8156   20.5607 C   0  0  0  0  0  0
  -24.1814  -13.0433   20.9187 C   0  0  0  0  0  0
  -24.6392  -11.6903   20.8753 C   0  0  0  0  0  0
  -23.9067  -10.4293   21.0409 C   0  0  0  0  0  0
  -24.3617   -9.4205   21.9184 C   0  0  0  0  0  0
  -23.6288   -8.2242   22.0762 C   0  0  0  0  0  0
  -22.4271   -8.0282   21.3549 C   0  0  0  0  0  0
  -21.9906   -9.0259   20.4654 C   0  0  0  0  0  0
  -22.7239  -10.2134   20.3058 C   0  0  0  0  0  0
  -21.6847   -6.0730   22.5279 C   0  0  0  0  0  0
  -21.4013   -6.5635   23.8214 C   0  0  0  0  0  0
  -21.3658   -5.6789   24.9175 C   0  0  0  0  0  0
  -21.6039   -4.3054   24.7224 C   0  0  0  0  0  0
  -21.8820   -3.8141   23.4349 C   0  0  0  0  0  0
  -21.9196   -4.6956   22.3402 C   0  0  0  0  0  0
  -22.7834  -13.5225   21.1850 C   0  0  0  0  0  0
  -22.1661   -4.2144   21.0978 F   0  0  0  0  0  0
  -21.5628   -3.4536   25.7739 F   0  0  0  0  0  0
  -30.0353  -13.2986   20.4546 N   0  0  0  0  0  0
  -26.3005  -12.9359   20.3342 N   0  0  0  0  0  0
  -25.9323  -11.6513   20.5770 N   0  0  0  0  0  0
  -22.0467  -12.8230   22.0406 N   0  0  0  0  0  0
  -25.4138  -15.1854   20.3835 N   0  0  0  0  0  0
  -31.8015  -14.6813   20.0535 O   0  0  0  0  0  0
  -21.6638   -6.8875   21.4242 O   0  0  0  0  0  0
  -22.3513  -14.5522   20.6690 O   0  0  0  0  0  0
  -24.6155  -31.8672   23.2079 C   0  0  0  0  0  0
  -25.9039  -32.4817   23.8376 C   0  0  1  0  0  0
  -27.2335  -27.4283   20.1030 C   0  0  0  0  0  0
  -25.5890  -33.8617   24.2300 N   0  0  0  0  0  0
  -23.4039  -30.4912   21.5481 C   0  0  2  0  0  0
  -24.8519  -28.9524   20.1159 C   0  0  0  0  0  0
  -22.7420  -29.4669   22.4986 C   0  0  0  0  0  0
  -18.0284  -28.1384   22.8498 C   0  0  0  0  0  0
  -24.1488  -36.7318   23.2642 C   0  0  0  0  0  0
  -25.9331  -30.8329   21.3596 C   0  0  0  0  0  0
  -26.0128  -29.4651   20.7108 C   0  0  0  0  0  0
  -27.2100  -28.7107   20.7001 C   0  0  0  0  0  0
  -26.0603  -26.9289   19.5042 C   0  0  0  0  0  0
  -24.8706  -27.6836   19.5082 C   0  0  0  0  0  0
  -23.6129  -29.8200   20.1634 C   0  0  0  0  0  0
  -25.4110  -36.3109   24.0333 C   0  0  1  0  0  0
  -20.5877  -28.3672   23.1318 C   0  0  2  0  0  0
  -20.6779  -26.9410   22.5421 C   0  0  0  0  0  0
  -19.5749  -26.6402   21.5220 C   0  0  0  0  0  0
  -18.1925  -26.7934   22.1629 C   0  0  0  0  0  0
  -19.1535  -28.8843   23.2908 C   0  0  0  0  0  0
  -18.9461  -30.1455   23.8912 C   0  0  0  0  0  0
  -17.6463  -30.6588   24.0574 C   0  0  0  0  0  0
  -25.9036  -34.9478   23.5115 C   0  0  0  0  0  0
  -16.5352  -29.9092   23.6332 C   0  0  0  0  0  0
  -16.7274  -28.6511   23.0342 C   0  0  0  0  0  0
  -26.4462  -31.6607   25.0716 C   0  0  0  0  0  0
  -25.3727  -31.3729   26.1469 C   0  0  0  0  0  0
  -27.0274  -30.3045   24.6082 C   0  0  0  0  0  0
  -27.6034  -32.4331   25.7472 C   0  0  0  0  0  0
  -27.5578  -37.1816   24.8468 C   0  0  0  0  0  0
  -21.4149  -29.3034   22.3719 N   0  0  0  0  0  0
  -26.4293  -37.3798   23.9410 N   0  0  0  0  0  0
  -24.6694  -31.0782   22.0972 N   0  0  0  0  0  0
  -23.4196  -28.8228   23.3039 O   0  0  0  0  0  0
  -28.3763  -26.6588   20.0952 O   0  0  0  0  0  0
  -26.5614  -34.8929   22.4688 O   0  0  0  0  0  0
  -23.5346  -32.1409   23.7484 O   0  0  0  0  0  0
  -30.0917  -19.0019   21.4397 C   0  0  0  0  0  0
  -30.6357  -17.6941   21.4436 C   0  0  0  0  0  0
  -28.3999  -16.7575   21.4424 C   0  0  0  0  0  0
  -28.6901  -19.2109   21.4689 C   0  0  0  0  0  0
  -29.7955  -16.5559   21.4584 C   0  0  0  0  0  0
  -27.8517  -18.0628   21.4439 C   0  0  0  0  0  0
  -28.1103  -20.5970   21.6973 C   0  0  0  0  0  0
  -28.5479  -24.1564   20.4530 C   0  0  0  0  0  0
  -28.4643  -23.0637   21.5562 C   0  0  0  0  0  0
  -28.3758  -25.5827   21.0521 C   0  0  0  0  0  0
  -30.3531  -15.2524   21.6511 N   0  0  0  0  0  0
  -28.7141  -21.6664   21.1320 N   0  0  0  0  0  0
  -27.1231  -20.7319   22.4256 O   0  0  0  0  0  0
  -26.5023  -18.1885   21.4608 F   0  0  0  0  0  0
  -31.4594  -12.4208   19.1119 H   0  0  0  0  0  0
  -30.3170  -11.3098   19.8065 H   0  0  0  0  0  0
  -29.7340  -11.8072   17.4192 H   0  0  0  0  0  0
  -29.6551  -13.5150   17.7731 H   0  0  0  0  0  0
  -27.8280  -11.3183   18.8089 H   0  0  0  0  0  0
  -27.3616  -12.6513   17.7867 H   0  0  0  0  0  0
  -27.7039  -14.2616   19.5785 H   0  0  0  0  0  0
  -28.6729  -11.9677   21.3470 H   0  0  0  0  0  0
  -28.4509  -13.6100   21.8654 H   0  0  0  0  0  0
  -25.2765   -9.5676   22.4754 H   0  0  0  0  0  0
  -24.0001   -7.4628   22.7474 H   0  0  0  0  0  0
  -21.0842   -8.8775   19.8954 H   0  0  0  0  0  0
  -22.3701  -10.9675   19.6165 H   0  0  0  0  0  0
  -21.2000   -7.6142   23.9716 H   0  0  0  0  0  0
  -21.1481   -6.0517   25.9078 H   0  0  0  0  0  0
  -22.0602   -2.7605   23.2851 H   0  0  0  0  0  0
  -22.4101  -11.9922   22.4849 H   0  0  0  0  0  0
  -21.1088  -13.1270   22.2615 H   0  0  0  0  0  0
  -24.6428  -15.8351   20.4903 H   0  0  0  0  0  0
  -26.2473  -15.6237   20.0161 H   0  0  0  0  0  0
  -26.7114  -32.5523   23.1144 H   0  0  0  0  0  0
  -25.0040  -33.9770   25.0442 H   0  0  0  0  0  0
  -22.6952  -31.3095   21.4066 H   0  0  0  0  0  0
  -23.3734  -35.9666   23.3320 H   0  0  0  0  0  0
  -24.3589  -36.8927   22.2055 H   0  0  0  0  0  0
  -23.7254  -37.6535   23.6647 H   0  0  0  0  0  0
  -26.0461  -31.5986   20.5897 H   0  0  0  0  0  0
  -26.8215  -30.8895   21.9764 H   0  0  0  0  0  0
  -28.1069  -29.1017   21.1610 H   0  0  0  0  0  0
  -26.0689  -25.9538   19.0378 H   0  0  0  0  0  0
  -23.9785  -27.2835   19.0457 H   0  0  0  0  0  0
  -23.7231  -30.5939   19.4031 H   0  0  0  0  0  0
  -22.7354  -29.2434   19.8648 H   0  0  0  0  0  0
  -25.1287  -36.1969   25.0826 H   0  0  0  0  0  0
  -20.9976  -28.3237   24.1437 H   0  0  0  0  0  0
  -20.5706  -26.2272   23.3602 H   0  0  0  0  0  0
  -21.6639  -26.7471   22.1190 H   0  0  0  0  0  0
  -19.6908  -25.6324   21.1225 H   0  0  0  0  0  0
  -19.6676  -27.3234   20.6762 H   0  0  0  0  0  0
  -17.4202  -26.6708   21.4024 H   0  0  0  0  0  0
  -18.0305  -26.0068   22.9011 H   0  0  0  0  0  0
  -19.7938  -30.7274   24.2271 H   0  0  0  0  0  0
  -17.5015  -31.6261   24.5186 H   0  0  0  0  0  0
  -15.5350  -30.2994   23.7642 H   0  0  0  0  0  0
  -15.8679  -28.0841   22.7024 H   0  0  0  0  0  0
  -24.5873  -30.7105   25.7804 H   0  0  0  0  0  0
  -24.8946  -32.2899   26.4929 H   0  0  0  0  0  0
  -25.8076  -30.8879   27.0216 H   0  0  0  0  0  0
  -26.2801  -29.6841   24.1114 H   0  0  0  0  0  0
  -27.4025  -29.7254   25.4529 H   0  0  0  0  0  0
  -27.8648  -30.4365   23.9228 H   0  0  0  0  0  0
  -27.2638  -33.3619   26.2071 H   0  0  0  0  0  0
  -28.3817  -32.6930   25.0288 H   0  0  0  0  0  0
  -28.0719  -31.8452   26.5375 H   0  0  0  0  0  0
  -28.2607  -38.0103   24.7502 H   0  0  0  0  0  0
  -28.1062  -36.2637   24.6295 H   0  0  0  0  0  0
  -27.2305  -37.1471   25.8876 H   0  0  0  0  0  0
  -20.9309  -29.8743   21.6929 H   0  0  0  0  0  0
  -26.0179  -38.2876   24.1405 H   0  0  0  0  0  0
  -30.7643  -19.8466   21.4829 H   0  0  0  0  0  0
  -31.7104  -17.5721   21.4757 H   0  0  0  0  0  0
  -27.7339  -15.9110   21.4984 H   0  0  0  0  0  0
  -27.7765  -23.9794   19.7043 H   0  0  0  0  0  0
  -29.5039  -24.0956   19.9327 H   0  0  0  0  0  0
  -27.4854  -23.1484   22.0304 H   0  0  0  0  0  0
  -29.1875  -23.2931   22.3402 H   0  0  0  0  0  0
  -29.1982  -25.7731   21.7436 H   0  0  0  0  0  0
  -27.4728  -25.6074   21.6650 H   0  0  0  0  0  0
  -31.1295  -15.3143   22.2930 H   0  0  0  0  0  0
  -29.5026  -21.4884   20.5254 H   0  0  0  0  0  0
  1 25  1  0  0  0
  1 30  2  0  0  0
  1 81  1  0  0  0
  2  3  1  0  0  0
  2 25  1  0  0  0
  2 85  1  0  0  0
  2 86  1  0  0  0
  3  4  1  0  0  0
  3 87  1  0  0  0
  3 88  1  0  0  0
  4  5  1  0  0  0
  4 89  1  0  0  0
  4 90  1  0  0  0
  5  6  1  0  0  0
  5 26  1  0  0  0
  5 91  1  0  0  0
  6 25  1  0  0  0
  6 92  1  0  0  0
  6 93  1  0  0  0
  7  8  2  0  0  0
  7 26  1  0  0  0
  7 29  1  0  0  0
  8  9  1  0  0  0
  8 22  1  0  0  0
  9 10  1  0  0  0
  9 27  2  0  0  0
 10 11  2  0  0  0
 10 15  1  0  0  0
 11 12  1  0  0  0
 11 94  1  0  0  0
 12 13  2  0  0  0
 12 95  1  0  0  0
 13 14  1  0  0  0
 13 31  1  0  0  0
 14 15  2  0  0  0
 14 96  1  0  0  0
 15 97  1  0  0  0
 16 17  2  0  0  0
 16 21  1  0  0  0
 16 31  1  0  0  0
 17 18  1  0  0  0
 17 98  1  0  0  0
 18 19  2  0  0  0
 18 99  1  0  0  0
 19 20  1  0  0  0
 19 24  1  0  0  0
 20 21  2  0  0  0
 20100  1  0  0  0
 21 23  1  0  0  0
 22 28  1  0  0  0
 22 32  2  0  0  0
 26 27  1  0  0  0
 28101  1  0  0  0
 28102  1  0  0  0
 29103  1  0  0  0
 29104  1  0  0  0
 33 34  1  0  0  0
 33 66  1  0  0  0
 33 70  2  0  0  0
 34 36  1  0  0  0
 34 59  1  0  0  0
 34105  1  0  0  0
 35 44  2  0  0  0
 35 45  1  0  0  0
 35 68  1  0  0  0
 36 56  1  0  0  0
 36106  1  0  0  0
 37 39  1  0  0  0
 37 47  1  0  0  0
 37 66  1  0  0  0
 37107  1  0  0  0
 38 43  2  0  0  0
 38 46  1  0  0  0
 38 47  1  0  0  0
 39 64  1  0  0  0
 39 67  2  0  0  0
 40 52  1  0  0  0
 40 53  2  0  0  0
 40 58  1  0  0  0
 41108  1  0  0  0
 41109  1  0  0  0
 41110  1  0  0  0
 41 48  1  0  0  0
 42 43  1  0  0  0
 42 66  1  0  0  0
 42111  1  0  0  0
 42112  1  0  0  0
 43 44  1  0  0  0
 44113  1  0  0  0
 45 46  2  0  0  0
 45114  1  0  0  0
 46115  1  0  0  0
 47116  1  0  0  0
 47117  1  0  0  0
 48 56  1  0  0  0
 48 65  1  0  0  0
 48118  1  0  0  0
 49 50  1  0  0  0
 49 53  1  0  0  0
 49 64  1  0  0  0
 49119  1  0  0  0
 50 51  1  0  0  0
 50120  1  0  0  0
 50121  1  0  0  0
 51 52  1  0  0  0
 51122  1  0  0  0
 51123  1  0  0  0
 52124  1  0  0  0
 52125  1  0  0  0
 53 54  1  0  0  0
 54 55  2  0  0  0
 54126  1  0  0  0
 55 57  1  0  0  0
 55127  1  0  0  0
 56 69  2  0  0  0
 57 58  2  0  0  0
 57128  1  0  0  0
 58129  1  0  0  0
 59 60  1  0  0  0
 59 61  1  0  0  0
 59 62  1  0  0  0
 60130  1  0  0  0
 60131  1  0  0  0
 60132  1  0  0  0
 61133  1  0  0  0
 61134  1  0  0  0
 61135  1  0  0  0
 62136  1  0  0  0
 62137  1  0  0  0
 62138  1  0  0  0
 63 65  1  0  0  0
 63139  1  0  0  0
 63140  1  0  0  0
 63141  1  0  0  0
 64142  1  0  0  0
 65143  1  0  0  0
 68 80  1  0  0  0
 71 72  2  0  0  0
 71 74  1  0  0  0
 71144  1  0  0  0
 72 75  1  0  0  0
 72145  1  0  0  0
 73 75  2  0  0  0
 73 76  1  0  0  0
 73146  1  0  0  0
 74 76  2  0  0  0
 74 77  1  0  0  0
 75 81  1  0  0  0
 76 84  1  0  0  0
 77 82  1  0  0  0
 77 83  2  0  0  0
 78 79  1  0  0  0
 78 80  1  0  0  0
 78147  1  0  0  0
 78148  1  0  0  0
 79 82  1  0  0  0
 79149  1  0  0  0
 79150  1  0  0  0
 80151  1  0  0  0
 80152  1  0  0  0
 81153  1  0  0  0
 82154  1  0  0  0
M  ISO  4   1 100  68 101  80 101  81 100
M  END
> <chiral flag>
0

> <version>
0

> <s_m_source_file>
/data/baiqing/PycharmProjects/Reinvent-master-3.2/result/LINK_invent/BTK/process_docking_weight1_custom_product_contain_oxygen_bond_distance_aromatic_linkinvent_7_9_3/rearranged_h_0007.sdf

> <i_m_source_file_index>
53

> <r_mmod_Potential_Energy-OPLS-2005>
21.9414215087891

> <r_mmod_Stretch_Energy-OPLS-2005>
40.9112396240234

> <r_mmod_Bend_Energy-OPLS-2005>
106.40217590332

> <r_mmod_Torsional_Energy-OPLS-2005>
307.336486816406

> <r_mmod_Improper_Torsional_Energy-OPLS-2005>
10.3106174468994

> <r_mmod_Van_der_Waal_Energy-OPLS-2005>
141.815414428711

> <r_mmod_Electrostatic_Energy-OPLS-2005>
-371.860229492188

> <r_mmod_Solvation_Energy-OPLS-2005>
-224.117111206055

> <b_mmod_Minimization_Converged-OPLS-2005>
0

> <r_mmod_RMS_Derivative-OPLS-2005>
1.62689161300659

$$$$
53
                    3D
 Structure written by MMmdl.
152160  0  0  1  0            999 V2000
  -30.4227  -15.2454   20.3759 C   0  0  0  0  0  0
  -30.4500  -12.7919   19.5286 C   0  0  0  0  0  0
  -29.5403  -12.5776   18.2906 C   0  0  0  0  0  0
  -28.0888  -12.2978   18.7181 C   0  0  0  0  0  0
  -27.6181  -13.2686   19.8274 C   0  0  2  0  0  0
  -28.6518  -13.4214   20.9652 C   0  0  0  0  0  0
  -25.2395  -13.8215   20.5670 C   0  0  0  0  0  0
  -24.1759  -13.0416   20.9245 C   0  0  0  0  0  0
  -24.6416  -11.6917   20.8767 C   0  0  0  0  0  0
  -23.9109  -10.4287   21.0409 C   0  0  0  0  0  0
  -24.3643   -9.4198   21.9184 C   0  0  0  0  0  0
  -23.6300   -8.2249   22.0759 C   0  0  0  0  0  0
  -22.4287   -8.0291   21.3546 C   0  0  0  0  0  0
  -21.9931   -9.0273   20.4653 C   0  0  0  0  0  0
  -22.7283  -10.2136   20.3055 C   0  0  0  0  0  0
  -21.6850   -6.0741   22.5280 C   0  0  0  0  0  0
  -21.4023   -6.5644   23.8218 C   0  0  0  0  0  0
  -21.3649   -5.6790   24.9174 C   0  0  0  0  0  0
  -21.6041   -4.3056   24.7221 C   0  0  0  0  0  0
  -21.8816   -3.8151   23.4343 C   0  0  0  0  0  0
  -21.9197   -4.6967   22.3401 C   0  0  0  0  0  0
  -22.7776  -13.5171   21.1876 C   0  0  0  0  0  0
  -22.1656   -4.2152   21.0979 F   0  0  0  0  0  0
  -21.5618   -3.4533   25.7735 F   0  0  0  0  0  0
  -29.8936  -13.9240   20.3537 N   0  0  0  0  0  0
  -26.2842  -12.9487   20.3212 N   0  0  0  0  0  0
  -25.9355  -11.6604   20.5758 N   0  0  0  0  0  0
  -22.0429  -12.8183   22.0450 N   0  0  0  0  0  0
  -25.3976  -15.1929   20.3934 N   0  0  0  0  0  0
  -31.6342  -15.2891   20.1182 O   0  0  0  0  0  0
  -21.6643   -6.8889   21.4243 O   0  0  0  0  0  0
  -22.3464  -14.5473   20.6712 O   0  0  0  0  0  0
  -24.6582  -31.8250   23.1713 C   0  0  0  0  0  0
  -25.9267  -32.4592   23.8181 C   0  0  1  0  0  0
  -27.2196  -26.9456   20.1906 C   0  0  0  0  0  0
  -25.5945  -33.8414   24.2074 N   0  0  0  0  0  0
  -23.4731  -30.4352   21.5202 C   0  0  2  0  0  0
  -24.9290  -28.8237   20.1140 C   0  0  0  0  0  0
  -22.7650  -29.4427   22.4786 C   0  0  0  0  0  0
  -18.0303  -28.1442   22.8462 C   0  0  0  0  0  0
  -24.1468  -36.7190   23.2657 C   0  0  0  0  0  0
  -26.0405  -30.6375   21.3996 C   0  0  0  0  0  0
  -26.1086  -29.2259   20.7513 C   0  0  0  0  0  0
  -27.2469  -28.3050   20.7694 C   0  0  0  0  0  0
  -26.0143  -26.6893   19.5032 C   0  0  0  0  0  0
  -24.9039  -27.5742   19.4729 C   0  0  0  0  0  0
  -23.7138  -29.7499   20.1461 C   0  0  0  0  0  0
  -25.4110  -36.2953   24.0305 C   0  0  1  0  0  0
  -20.5935  -28.3745   23.1204 C   0  0  2  0  0  0
  -20.6782  -26.9431   22.5402 C   0  0  0  0  0  0
  -19.5755  -26.6385   21.5221 C   0  0  0  0  0  0
  -18.1934  -26.7976   22.1622 C   0  0  0  0  0  0
  -19.1574  -28.8906   23.2818 C   0  0  0  0  0  0
  -18.9511  -30.1509   23.8840 C   0  0  0  0  0  0
  -17.6508  -30.6627   24.0566 C   0  0  0  0  0  0
  -25.9081  -34.9351   23.4999 C   0  0  0  0  0  0
  -16.5383  -29.9122   23.6368 C   0  0  0  0  0  0
  -16.7289  -28.6548   23.0360 C   0  0  0  0  0  0
  -26.4535  -31.6549   25.0704 C   0  0  0  0  0  0
  -25.3666  -31.3846   26.1364 C   0  0  0  0  0  0
  -27.0421  -30.2910   24.6423 C   0  0  0  0  0  0
  -27.6039  -32.4355   25.7477 C   0  0  0  0  0  0
  -27.5546  -37.1731   24.8477 C   0  0  0  0  0  0
  -21.4321  -29.3036   22.3546 N   0  0  0  0  0  0
  -26.4246  -37.3699   23.9427 N   0  0  0  0  0  0
  -24.7456  -30.9924   22.0848 N   0  0  0  0  0  0
  -23.4207  -28.7996   23.3009 O   0  0  0  0  0  0
  -28.2574  -25.8814   20.1965 O   0  0  0  0  0  0
  -26.5714  -34.8880   22.4608 O   0  0  0  0  0  0
  -23.5648  -32.1217   23.6806 O   0  0  0  0  0  0
  -30.1833  -20.5301   19.7751 C   0  0  0  0  0  0
  -28.1959  -20.3482   20.8931 C   0  0  0  0  0  0
  -29.0696  -21.3351   20.2806 C   0  0  0  0  0  0
  -30.4063  -19.0561   19.8349 C   0  0  0  0  0  0
  -28.3946  -18.8688   20.9681 C   0  0  0  0  0  0
  -29.5176  -18.0711   20.4460 C   0  0  0  0  0  0
  -31.6782  -18.5412   19.1883 C   0  0  0  0  0  0
  -27.2953  -18.0959   21.6759 C   0  0  0  0  0  0
  -29.0057  -23.0872   20.1684 C   0  0  0  0  0  0
  -29.5801  -16.4499   20.5382 N   0  0  0  0  0  0
  -27.8832  -24.2414   20.3754 N   0  0  0  0  0  0
  -31.4658  -13.0071   19.1951 H   0  0  0  0  0  0
  -30.5234  -11.8785   20.1207 H   0  0  0  0  0  0
  -29.9178  -11.7579   17.6784 H   0  0  0  0  0  0
  -29.5695  -13.4694   17.6629 H   0  0  0  0  0  0
  -28.0470  -11.2736   19.0875 H   0  0  0  0  0  0
  -27.4191  -12.3380   17.8581 H   0  0  0  0  0  0
  -27.5421  -14.2391   19.3359 H   0  0  0  0  0  0
  -28.8106  -12.4784   21.4907 H   0  0  0  0  0  0
  -28.2902  -14.1304   21.7096 H   0  0  0  0  0  0
  -25.2778   -9.5664   22.4767 H   0  0  0  0  0  0
  -23.9990   -7.4644   22.7471 H   0  0  0  0  0  0
  -21.0869   -8.8812   19.8958 H   0  0  0  0  0  0
  -22.3755  -10.9684   19.6171 H   0  0  0  0  0  0
  -21.2023   -7.6155   23.9729 H   0  0  0  0  0  0
  -21.1462   -6.0515   25.9074 H   0  0  0  0  0  0
  -22.0603   -2.7614   23.2847 H   0  0  0  0  0  0
  -22.4030  -11.9856   22.4887 H   0  0  0  0  0  0
  -21.1052  -13.1239   22.2633 H   0  0  0  0  0  0
  -24.6011  -15.8191   20.4388 H   0  0  0  0  0  0
  -26.2073  -15.6169   19.9629 H   0  0  0  0  0  0
  -26.7316  -32.5138   23.0887 H   0  0  0  0  0  0
  -25.0038  -33.9516   25.0182 H   0  0  0  0  0  0
  -22.7844  -31.2646   21.3469 H   0  0  0  0  0  0
  -23.3741  -35.9510   23.3288 H   0  0  0  0  0  0
  -24.3547  -36.8856   22.2079 H   0  0  0  0  0  0
  -23.7190  -37.6351   23.6727 H   0  0  0  0  0  0
  -26.2143  -31.3773   20.6171 H   0  0  0  0  0  0
  -26.9040  -30.7009   22.0504 H   0  0  0  0  0  0
  -28.1459  -28.6114   21.2859 H   0  0  0  0  0  0
  -25.9086  -25.7333   19.0110 H   0  0  0  0  0  0
  -24.0064  -27.2570   18.9621 H   0  0  0  0  0  0
  -23.8661  -30.5204   19.3887 H   0  0  0  0  0  0
  -22.8241  -29.2023   19.8266 H   0  0  0  0  0  0
  -25.1298  -36.1752   25.0793 H   0  0  0  0  0  0
  -21.0006  -28.3335   24.1332 H   0  0  0  0  0  0
  -20.5671  -26.2363   23.3640 H   0  0  0  0  0  0
  -21.6646  -26.7421   22.1204 H   0  0  0  0  0  0
  -19.6937  -25.6291   21.1268 H   0  0  0  0  0  0
  -19.6720  -27.3180   20.6755 H   0  0  0  0  0  0
  -17.4208  -26.6711   21.4027 H   0  0  0  0  0  0
  -18.0311  -26.0159   22.9053 H   0  0  0  0  0  0
  -19.7999  -30.7331   24.2169 H   0  0  0  0  0  0
  -17.5078  -31.6309   24.5176 H   0  0  0  0  0  0
  -15.5388  -30.3015   23.7758 H   0  0  0  0  0  0
  -15.8682  -28.0867   22.7104 H   0  0  0  0  0  0
  -24.5841  -30.7209   25.7662 H   0  0  0  0  0  0
  -24.8908  -32.3106   26.4621 H   0  0  0  0  0  0
  -25.7896  -30.9109   27.0243 H   0  0  0  0  0  0
  -26.3109  -29.6576   24.1404 H   0  0  0  0  0  0
  -27.3925  -29.7257   25.5066 H   0  0  0  0  0  0
  -27.9035  -30.4062   23.9848 H   0  0  0  0  0  0
  -27.2627  -33.3736   26.1860 H   0  0  0  0  0  0
  -28.3941  -32.6778   25.0361 H   0  0  0  0  0  0
  -28.0596  -31.8622   26.5554 H   0  0  0  0  0  0
  -28.2532  -38.0055   24.7506 H   0  0  0  0  0  0
  -28.1051  -36.2571   24.6294 H   0  0  0  0  0  0
  -27.2284  -37.1360   25.8888 H   0  0  0  0  0  0
  -20.9554  -29.8707   21.6679 H   0  0  0  0  0  0
  -26.0081  -38.2731   24.1507 H   0  0  0  0  0  0
  -30.9590  -21.1058   19.2874 H   0  0  0  0  0  0
  -27.3002  -20.7445   21.3515 H   0  0  0  0  0  0
  -32.1225  -19.2894   18.5320 H   0  0  0  0  0  0
  -31.4812  -17.6550   18.5846 H   0  0  0  0  0  0
  -32.4108  -18.2855   19.9535 H   0  0  0  0  0  0
  -26.5926  -18.7545   22.1881 H   0  0  0  0  0  0
  -27.7111  -17.4228   22.4271 H   0  0  0  0  0  0
  -26.7294  -17.5038   20.9566 H   0  0  0  0  0  0
  -29.3559  -23.2761   19.1536 H   0  0  0  0  0  0
  -29.8327  -23.4111   20.8012 H   0  0  0  0  0  0
  -28.6706  -16.1080   20.8049 H   0  0  0  0  0  0
  -27.5325  -24.1576   21.3254 H   0  0  0  0  0  0
  1 25  1  0  0  0
  1 30  2  0  0  0
  1 80  1  0  0  0
  2  3  1  0  0  0
  2 25  1  0  0  0
  2 82  1  0  0  0
  2 83  1  0  0  0
  3  4  1  0  0  0
  3 84  1  0  0  0
  3 85  1  0  0  0
  4  5  1  0  0  0
  4 86  1  0  0  0
  4 87  1  0  0  0
  5  6  1  0  0  0
  5 26  1  0  0  0
  5 88  1  0  0  0
  6 25  1  0  0  0
  6 89  1  0  0  0
  6 90  1  0  0  0
  7  8  2  0  0  0
  7 26  1  0  0  0
  7 29  1  0  0  0
  8  9  1  0  0  0
  8 22  1  0  0  0
  9 10  1  0  0  0
  9 27  2  0  0  0
 10 11  2  0  0  0
 10 15  1  0  0  0
 11 12  1  0  0  0
 11 91  1  0  0  0
 12 13  2  0  0  0
 12 92  1  0  0  0
 13 14  1  0  0  0
 13 31  1  0  0  0
 14 15  2  0  0  0
 14 93  1  0  0  0
 15 94  1  0  0  0
 16 17  2  0  0  0
 16 21  1  0  0  0
 16 31  1  0  0  0
 17 18  1  0  0  0
 17 95  1  0  0  0
 18 19  2  0  0  0
 18 96  1  0  0  0
 19 20  1  0  0  0
 19 24  1  0  0  0
 20 21  2  0  0  0
 20 97  1  0  0  0
 21 23  1  0  0  0
 22 28  1  0  0  0
 22 32  2  0  0  0
 26 27  1  0  0  0
 28 98  1  0  0  0
 28 99  1  0  0  0
 29100  1  0  0  0
 29101  1  0  0  0
 33 34  1  0  0  0
 33 66  1  0  0  0
 33 70  2  0  0  0
 34 36  1  0  0  0
 34 59  1  0  0  0
 34102  1  0  0  0
 35 44  2  0  0  0
 35 45  1  0  0  0
 35 68  1  0  0  0
 36 56  1  0  0  0
 36103  1  0  0  0
 37 39  1  0  0  0
 37 47  1  0  0  0
 37 66  1  0  0  0
 37104  1  0  0  0
 38 43  2  0  0  0
 38 46  1  0  0  0
 38 47  1  0  0  0
 39 64  1  0  0  0
 39 67  2  0  0  0
 40 52  1  0  0  0
 40 53  2  0  0  0
 40 58  1  0  0  0
 41105  1  0  0  0
 41106  1  0  0  0
 41107  1  0  0  0
 41 48  1  0  0  0
 42 43  1  0  0  0
 42 66  1  0  0  0
 42108  1  0  0  0
 42109  1  0  0  0
 43 44  1  0  0  0
 44110  1  0  0  0
 45 46  2  0  0  0
 45111  1  0  0  0
 46112  1  0  0  0
 47113  1  0  0  0
 47114  1  0  0  0
 48 56  1  0  0  0
 48 65  1  0  0  0
 48115  1  0  0  0
 49 50  1  0  0  0
 49 53  1  0  0  0
 49 64  1  0  0  0
 49116  1  0  0  0
 50 51  1  0  0  0
 50117  1  0  0  0
 50118  1  0  0  0
 51 52  1  0  0  0
 51119  1  0  0  0
 51120  1  0  0  0
 52121  1  0  0  0
 52122  1  0  0  0
 53 54  1  0  0  0
 54 55  2  0  0  0
 54123  1  0  0  0
 55 57  1  0  0  0
 55124  1  0  0  0
 56 69  2  0  0  0
 57 58  2  0  0  0
 57125  1  0  0  0
 58126  1  0  0  0
 59 60  1  0  0  0
 59 61  1  0  0  0
 59 62  1  0  0  0
 60127  1  0  0  0
 60128  1  0  0  0
 60129  1  0  0  0
 61130  1  0  0  0
 61131  1  0  0  0
 61132  1  0  0  0
 62133  1  0  0  0
 62134  1  0  0  0
 62135  1  0  0  0
 63 65  1  0  0  0
 63136  1  0  0  0
 63137  1  0  0  0
 63138  1  0  0  0
 64139  1  0  0  0
 65140  1  0  0  0
 68 81  1  0  0  0
 71 73  2  0  0  0
 71 74  1  0  0  0
 71141  1  0  0  0
 72 73  1  0  0  0
 72 75  2  0  0  0
 72142  1  0  0  0
 73 79  1  0  0  0
 74 76  2  0  0  0
 74 77  1  0  0  0
 75 76  1  0  0  0
 75 78  1  0  0  0
 76 80  1  0  0  0
 77143  1  0  0  0
 77144  1  0  0  0
 77145  1  0  0  0
 78146  1  0  0  0
 78147  1  0  0  0
 78148  1  0  0  0
 79 81  1  0  0  0
 79149  1  0  0  0
 79150  1  0  0  0
 80151  1  0  0  0
 81152  1  0  0  0
M  ISO  4   1 100  68 101  80 100  81 101
M  END
> <chiral flag>
0

> <version>
0

> <s_m_source_file>
/data/baiqing/PycharmProjects/Reinvent-master-3.2/result/LINK_invent/BTK/process_docking_weight1_custom_product_contain_oxygen_bond_distance_aromatic_linkinvent_7_9_3/rearranged_h_0007.sdf

> <i_m_source_file_index>
54

> <r_mmod_Potential_Energy-OPLS-2005>
1079.77160644531

> <r_mmod_Stretch_Energy-OPLS-2005>
495.296356201172

> <r_mmod_Bend_Energy-OPLS-2005>
432.076293945312

> <r_mmod_Torsional_Energy-OPLS-2005>
215.868789672852

> <r_mmod_Improper_Torsional_Energy-OPLS-2005>
3.94709920883179

> <r_mmod_Van_der_Waal_Energy-OPLS-2005>
125.161720275879

> <r_mmod_Electrostatic_Energy-OPLS-2005>
-406.806396484375

> <r_mmod_Solvation_Energy-OPLS-2005>
-214.09521484375

> <b_mmod_Minimization_Converged-OPLS-2005>
0

> <r_mmod_RMS_Derivative-OPLS-2005>
3.03697657585144

$$$$
54
                    3D
 Structure written by MMmdl.
156164  0  0  1  0            999 V2000
  -30.6976  -14.4687   20.5762 C   0  0  0  0  0  0
  -30.4254  -12.3046   19.4219 C   0  0  0  0  0  0
  -29.4951  -12.5048   18.2066 C   0  0  0  0  0  0
  -28.0161  -12.3661   18.6184 C   0  0  0  0  0  0
  -27.6648  -13.2040   19.8769 C   0  0  2  0  0  0
  -28.7053  -12.9747   20.9973 C   0  0  0  0  0  0
  -25.2610  -13.8158   20.5674 C   0  0  0  0  0  0
  -24.1849  -13.0444   20.9161 C   0  0  0  0  0  0
  -24.6396  -11.6905   20.8729 C   0  0  0  0  0  0
  -23.9061  -10.4294   21.0406 C   0  0  0  0  0  0
  -24.3615   -9.4211   21.9187 C   0  0  0  0  0  0
  -23.6291   -8.2247   22.0760 C   0  0  0  0  0  0
  -22.4276   -8.0284   21.3547 C   0  0  0  0  0  0
  -21.9906   -9.0256   20.4651 C   0  0  0  0  0  0
  -22.7232  -10.2136   20.3057 C   0  0  0  0  0  0
  -21.6851   -6.0741   22.5281 C   0  0  0  0  0  0
  -21.4011   -6.5642   23.8214 C   0  0  0  0  0  0
  -21.3657   -5.6795   24.9175 C   0  0  0  0  0  0
  -21.6044   -4.3059   24.7223 C   0  0  0  0  0  0
  -21.8819   -3.8152   23.4343 C   0  0  0  0  0  0
  -21.9191   -4.6971   22.3402 C   0  0  0  0  0  0
  -22.7873  -13.5248   21.1831 C   0  0  0  0  0  0
  -22.1661   -4.2157   21.0982 F   0  0  0  0  0  0
  -21.5628   -3.4543   25.7735 F   0  0  0  0  0  0
  -30.0405  -13.2819   20.4528 N   0  0  0  0  0  0
  -26.3043  -12.9317   20.3373 N   0  0  0  0  0  0
  -25.9323  -11.6479   20.5766 N   0  0  0  0  0  0
  -22.0512  -12.8241   22.0390 N   0  0  0  0  0  0
  -25.4355  -15.1871   20.4080 N   0  0  0  0  0  0
  -31.8078  -14.6681   20.0745 O   0  0  0  0  0  0
  -21.6637   -6.8883   21.4243 O   0  0  0  0  0  0
  -22.3559  -14.5558   20.6692 O   0  0  0  0  0  0
  -24.6151  -31.8664   23.2092 C   0  0  0  0  0  0
  -25.9046  -32.4816   23.8385 C   0  0  1  0  0  0
  -27.2400  -27.4261   20.0826 C   0  0  0  0  0  0
  -25.5906  -33.8614   24.2319 N   0  0  0  0  0  0
  -23.4033  -30.4908   21.5499 C   0  0  2  0  0  0
  -24.8493  -28.9536   20.1146 C   0  0  0  0  0  0
  -22.7415  -29.4650   22.4986 C   0  0  0  0  0  0
  -18.0269  -28.1376   22.8480 C   0  0  0  0  0  0
  -24.1487  -36.7311   23.2640 C   0  0  0  0  0  0
  -25.9330  -30.8270   21.3644 C   0  0  0  0  0  0
  -26.0082  -29.4592   20.7142 C   0  0  0  0  0  0
  -27.2008  -28.6980   20.7038 C   0  0  0  0  0  0
  -26.0539  -26.9311   19.4911 C   0  0  0  0  0  0
  -24.8665  -27.6872   19.5050 C   0  0  0  0  0  0
  -23.6124  -29.8235   20.1631 C   0  0  0  0  0  0
  -25.4107  -36.3107   24.0341 C   0  0  1  0  0  0
  -20.5862  -28.3659   23.1325 C   0  0  2  0  0  0
  -20.6757  -26.9398   22.5420 C   0  0  0  0  0  0
  -19.5743  -26.6384   21.5209 C   0  0  0  0  0  0
  -18.1918  -26.7920   22.1617 C   0  0  0  0  0  0
  -19.1519  -28.8832   23.2892 C   0  0  0  0  0  0
  -18.9454  -30.1435   23.8907 C   0  0  0  0  0  0
  -17.6460  -30.6581   24.0565 C   0  0  0  0  0  0
  -25.9045  -34.9474   23.5132 C   0  0  0  0  0  0
  -16.5347  -29.9087   23.6332 C   0  0  0  0  0  0
  -16.7258  -28.6507   23.0340 C   0  0  0  0  0  0
  -26.4477  -31.6592   25.0713 C   0  0  0  0  0  0
  -25.3748  -31.3699   26.1466 C   0  0  0  0  0  0
  -27.0299  -30.3041   24.6068 C   0  0  0  0  0  0
  -27.6048  -32.4312   25.7475 C   0  0  0  0  0  0
  -27.5581  -37.1805   24.8471 C   0  0  0  0  0  0
  -21.4142  -29.3027   22.3731 N   0  0  0  0  0  0
  -26.4293  -37.3793   23.9419 N   0  0  0  0  0  0
  -24.6688  -31.0761   22.0995 N   0  0  0  0  0  0
  -23.4183  -28.8191   23.3031 O   0  0  0  0  0  0
  -28.4274  -26.7134   20.0893 O   0  0  0  0  0  0
  -26.5600  -34.8925   22.4688 O   0  0  0  0  0  0
  -23.5346  -32.1417   23.7486 O   0  0  0  0  0  0
  -30.8657  -18.9547   20.0684 C   0  0  0  0  0  0
  -30.8335  -17.5411   20.1028 C   0  0  0  0  0  0
  -29.4843  -19.0396   22.0620 C   0  0  0  0  0  0
  -30.2004  -19.7219   21.0523 C   0  0  0  0  0  0
  -30.1320  -16.8586   21.1288 C   0  0  0  0  0  0
  -29.4467  -17.6272   22.0948 C   0  0  0  0  0  0
  -30.3280  -21.2539   21.0742 C   0  0  0  0  0  0
  -28.2912  -24.2262   19.5931 C   0  0  0  0  0  0
  -29.4553  -23.4566   20.2789 C   0  0  0  0  0  0
  -28.6366  -25.6692   19.1229 C   0  0  0  0  0  0
  -30.0178  -15.4337   21.2231 N   0  0  0  0  0  0
  -29.2389  -21.9820   20.3752 N   0  3  0  0  0  0
  -28.7500  -16.9977   23.0727 F   0  0  0  0  0  0
  -31.4696  -12.4036   19.1203 H   0  0  0  0  0  0
  -30.3271  -11.2920   19.8154 H   0  0  0  0  0  0
  -29.7328  -11.7783   17.4281 H   0  0  0  0  0  0
  -29.6643  -13.4894   17.7670 H   0  0  0  0  0  0
  -27.8242  -11.3096   18.8115 H   0  0  0  0  0  0
  -27.3661  -12.6436   17.7879 H   0  0  0  0  0  0
  -27.7132  -14.2538   19.5855 H   0  0  0  0  0  0
  -28.6805  -11.9350   21.3266 H   0  0  0  0  0  0
  -28.4596  -13.5619   21.8834 H   0  0  0  0  0  0
  -25.2764   -9.5684   22.4757 H   0  0  0  0  0  0
  -24.0002   -7.4635   22.7478 H   0  0  0  0  0  0
  -21.0837   -8.8770   19.8954 H   0  0  0  0  0  0
  -22.3694  -10.9674   19.6162 H   0  0  0  0  0  0
  -21.2004   -7.6150   23.9716 H   0  0  0  0  0  0
  -21.1479   -6.0529   25.9078 H   0  0  0  0  0  0
  -22.0600   -2.7613   23.2842 H   0  0  0  0  0  0
  -22.4117  -11.9890   22.4762 H   0  0  0  0  0  0
  -21.1137  -13.1276   22.2612 H   0  0  0  0  0  0
  -24.6741  -15.8480   20.5183 H   0  0  0  0  0  0
  -26.2991  -15.6233   20.1109 H   0  0  0  0  0  0
  -26.7112  -32.5531   23.1142 H   0  0  0  0  0  0
  -25.0065  -33.9768   25.0466 H   0  0  0  0  0  0
  -22.6928  -31.3078   21.4098 H   0  0  0  0  0  0
  -23.3747  -35.9647   23.3314 H   0  0  0  0  0  0
  -24.3582  -36.8918   22.2053 H   0  0  0  0  0  0
  -23.7243  -37.6521   23.6644 H   0  0  0  0  0  0
  -26.0446  -31.5912   20.5936 H   0  0  0  0  0  0
  -26.8216  -30.8833   21.9809 H   0  0  0  0  0  0
  -28.0975  -29.0872   21.1657 H   0  0  0  0  0  0
  -26.0240  -25.9590   19.0210 H   0  0  0  0  0  0
  -23.9735  -27.2882   19.0436 H   0  0  0  0  0  0
  -23.7235  -30.5999   19.4056 H   0  0  0  0  0  0
  -22.7353  -29.2471   19.8643 H   0  0  0  0  0  0
  -25.1279  -36.1974   25.0833 H   0  0  0  0  0  0
  -20.9932  -28.3217   24.1455 H   0  0  0  0  0  0
  -20.5673  -26.2259   23.3598 H   0  0  0  0  0  0
  -21.6626  -26.7448   22.1206 H   0  0  0  0  0  0
  -19.6915  -25.6300   21.1226 H   0  0  0  0  0  0
  -19.6693  -27.3202   20.6745 H   0  0  0  0  0  0
  -17.4186  -26.6667   21.4019 H   0  0  0  0  0  0
  -18.0318  -26.0061   22.9015 H   0  0  0  0  0  0
  -19.7934  -30.7237   24.2286 H   0  0  0  0  0  0
  -17.5023  -31.6269   24.5150 H   0  0  0  0  0  0
  -15.5349  -30.2995   23.7654 H   0  0  0  0  0  0
  -15.8654  -28.0838   22.7044 H   0  0  0  0  0  0
  -24.5928  -30.7036   25.7821 H   0  0  0  0  0  0
  -24.8922  -32.2847   26.4914 H   0  0  0  0  0  0
  -25.8107  -30.8883   27.0226 H   0  0  0  0  0  0
  -26.2823  -29.6812   24.1146 H   0  0  0  0  0  0
  -27.4119  -29.7275   25.4503 H   0  0  0  0  0  0
  -27.8642  -30.4381   23.9176 H   0  0  0  0  0  0
  -27.2664  -33.3609   26.2063 H   0  0  0  0  0  0
  -28.3847  -32.6877   25.0296 H   0  0  0  0  0  0
  -28.0718  -31.8429   26.5384 H   0  0  0  0  0  0
  -28.2594  -38.0102   24.7506 H   0  0  0  0  0  0
  -28.1071  -36.2630   24.6295 H   0  0  0  0  0  0
  -27.2298  -37.1461   25.8873 H   0  0  0  0  0  0
  -20.9297  -29.8770   21.6975 H   0  0  0  0  0  0
  -26.0188  -38.2876   24.1415 H   0  0  0  0  0  0
  -31.4281  -19.4456   19.2856 H   0  0  0  0  0  0
  -31.3541  -16.9984   19.3260 H   0  0  0  0  0  0
  -28.9718  -19.5928   22.8352 H   0  0  0  0  0  0
  -31.2844  -21.5247   20.6250 H   0  0  0  0  0  0
  -30.3763  -21.5920   22.1102 H   0  0  0  0  0  0
  -27.4086  -24.2396   20.2323 H   0  0  0  0  0  0
  -28.0025  -23.6640   18.7040 H   0  0  0  0  0  0
  -29.6237  -23.8679   21.2747 H   0  0  0  0  0  0
  -30.3758  -23.6216   19.7169 H   0  0  0  0  0  0
  -28.1038  -25.8965   18.1985 H   0  0  0  0  0  0
  -29.6868  -25.7077   18.8327 H   0  0  0  0  0  0
  -29.2286  -15.1135   21.7634 H   0  0  0  0  0  0
  -28.3742  -21.7977   20.8567 H   0  0  0  0  0  0
  -29.1643  -21.6011   19.4466 H   0  0  0  0  0  0
  1 25  1  0  0  0
  1 30  2  0  0  0
  1 81  1  0  0  0
  2  3  1  0  0  0
  2 25  1  0  0  0
  2 84  1  0  0  0
  2 85  1  0  0  0
  3  4  1  0  0  0
  3 86  1  0  0  0
  3 87  1  0  0  0
  4  5  1  0  0  0
  4 88  1  0  0  0
  4 89  1  0  0  0
  5  6  1  0  0  0
  5 26  1  0  0  0
  5 90  1  0  0  0
  6 25  1  0  0  0
  6 91  1  0  0  0
  6 92  1  0  0  0
  7  8  2  0  0  0
  7 26  1  0  0  0
  7 29  1  0  0  0
  8  9  1  0  0  0
  8 22  1  0  0  0
  9 10  1  0  0  0
  9 27  2  0  0  0
 10 11  2  0  0  0
 10 15  1  0  0  0
 11 12  1  0  0  0
 11 93  1  0  0  0
 12 13  2  0  0  0
 12 94  1  0  0  0
 13 14  1  0  0  0
 13 31  1  0  0  0
 14 15  2  0  0  0
 14 95  1  0  0  0
 15 96  1  0  0  0
 16 17  2  0  0  0
 16 21  1  0  0  0
 16 31  1  0  0  0
 17 18  1  0  0  0
 17 97  1  0  0  0
 18 19  2  0  0  0
 18 98  1  0  0  0
 19 20  1  0  0  0
 19 24  1  0  0  0
 20 21  2  0  0  0
 20 99  1  0  0  0
 21 23  1  0  0  0
 22 28  1  0  0  0
 22 32  2  0  0  0
 26 27  1  0  0  0
 28100  1  0  0  0
 28101  1  0  0  0
 29102  1  0  0  0
 29103  1  0  0  0
 33 34  1  0  0  0
 33 66  1  0  0  0
 33 70  2  0  0  0
 34 36  1  0  0  0
 34 59  1  0  0  0
 34104  1  0  0  0
 35 44  2  0  0  0
 35 45  1  0  0  0
 35 68  1  0  0  0
 36 56  1  0  0  0
 36105  1  0  0  0
 37 39  1  0  0  0
 37 47  1  0  0  0
 37 66  1  0  0  0
 37106  1  0  0  0
 38 43  2  0  0  0
 38 46  1  0  0  0
 38 47  1  0  0  0
 39 64  1  0  0  0
 39 67  2  0  0  0
 40 52  1  0  0  0
 40 53  2  0  0  0
 40 58  1  0  0  0
 41107  1  0  0  0
 41108  1  0  0  0
 41109  1  0  0  0
 41 48  1  0  0  0
 42 43  1  0  0  0
 42 66  1  0  0  0
 42110  1  0  0  0
 42111  1  0  0  0
 43 44  1  0  0  0
 44112  1  0  0  0
 45 46  2  0  0  0
 45113  1  0  0  0
 46114  1  0  0  0
 47115  1  0  0  0
 47116  1  0  0  0
 48 56  1  0  0  0
 48 65  1  0  0  0
 48117  1  0  0  0
 49 50  1  0  0  0
 49 53  1  0  0  0
 49 64  1  0  0  0
 49118  1  0  0  0
 50 51  1  0  0  0
 50119  1  0  0  0
 50120  1  0  0  0
 51 52  1  0  0  0
 51121  1  0  0  0
 51122  1  0  0  0
 52123  1  0  0  0
 52124  1  0  0  0
 53 54  1  0  0  0
 54 55  2  0  0  0
 54125  1  0  0  0
 55 57  1  0  0  0
 55126  1  0  0  0
 56 69  2  0  0  0
 57 58  2  0  0  0
 57127  1  0  0  0
 58128  1  0  0  0
 59 60  1  0  0  0
 59 61  1  0  0  0
 59 62  1  0  0  0
 60129  1  0  0  0
 60130  1  0  0  0
 60131  1  0  0  0
 61132  1  0  0  0
 61133  1  0  0  0
 61134  1  0  0  0
 62135  1  0  0  0
 62136  1  0  0  0
 62137  1  0  0  0
 63 65  1  0  0  0
 63138  1  0  0  0
 63139  1  0  0  0
 63140  1  0  0  0
 64141  1  0  0  0
 65142  1  0  0  0
 68 80  1  0  0  0
 71 72  2  0  0  0
 71 74  1  0  0  0
 71143  1  0  0  0
 72 75  1  0  0  0
 72144  1  0  0  0
 73 74  2  0  0  0
 73 76  1  0  0  0
 73145  1  0  0  0
 74 77  1  0  0  0
 75 76  2  0  0  0
 75 81  1  0  0  0
 76 83  1  0  0  0
 77 82  1  0  0  0
 77146  1  0  0  0
 77147  1  0  0  0
 78 79  1  0  0  0
 78 80  1  0  0  0
 78148  1  0  0  0
 78149  1  0  0  0
 79 82  1  0  0  0
 79150  1  0  0  0
 79151  1  0  0  0
 80152  1  0  0  0
 80153  1  0  0  0
 81154  1  0  0  0
 82155  1  0  0  0
 82156  1  0  0  0
M  CHG  1  82   1
M  ISO  4   1 100  68 101  80 101  81 100
M  END
> <chiral flag>
0

> <version>
0

> <s_m_source_file>
/data/baiqing/PycharmProjects/Reinvent-master-3.2/result/LINK_invent/BTK/process_docking_weight1_custom_product_contain_oxygen_bond_distance_aromatic_linkinvent_7_9_3/rearranged_h_0007.sdf

> <i_m_source_file_index>
55

> <r_mmod_Potential_Energy-OPLS-2005>
-298.080963134766

> <r_mmod_Stretch_Energy-OPLS-2005>
39.4371528625488

> <r_mmod_Bend_Energy-OPLS-2005>
104.131439208984

> <r_mmod_Torsional_Energy-OPLS-2005>
204.315719604492

> <r_mmod_Improper_Torsional_Energy-OPLS-2005>
2.72925519943237

> <r_mmod_Van_der_Waal_Energy-OPLS-2005>
152.663070678711

> <r_mmod_Electrostatic_Energy-OPLS-2005>
-332.007598876953

> <r_mmod_Solvation_Energy-OPLS-2005>
-481.441467285156

> <b_mmod_Minimization_Converged-OPLS-2005>
0

> <r_mmod_RMS_Derivative-OPLS-2005>
1.26993775367737

$$$$
55
                    3D
 Structure written by MMmdl.
165174  0  0  1  0            999 V2000
  -30.7340  -14.3883   20.6511 C   0  0  0  0  0  0
  -30.4233  -12.2847   19.3998 C   0  0  0  0  0  0
  -29.4898  -12.5225   18.1963 C   0  0  0  0  0  0
  -28.0116  -12.3824   18.6093 C   0  0  0  0  0  0
  -27.6691  -13.1996   19.8827 C   0  0  2  0  0  0
  -28.7058  -12.9263   20.9948 C   0  0  0  0  0  0
  -25.2623  -13.8152   20.5678 C   0  0  0  0  0  0
  -24.1856  -13.0440   20.9162 C   0  0  0  0  0  0
  -24.6395  -11.6902   20.8719 C   0  0  0  0  0  0
  -23.9057  -10.4294   21.0397 C   0  0  0  0  0  0
  -24.3610   -9.4212   21.9177 C   0  0  0  0  0  0
  -23.6290   -8.2246   22.0752 C   0  0  0  0  0  0
  -22.4273   -8.0282   21.3543 C   0  0  0  0  0  0
  -21.9904   -9.0255   20.4646 C   0  0  0  0  0  0
  -22.7228  -10.2137   20.3048 C   0  0  0  0  0  0
  -21.6853   -6.0736   22.5280 C   0  0  0  0  0  0
  -21.4014   -6.5638   23.8213 C   0  0  0  0  0  0
  -21.3658   -5.6791   24.9176 C   0  0  0  0  0  0
  -21.6045   -4.3054   24.7224 C   0  0  0  0  0  0
  -21.8819   -3.8148   23.4343 C   0  0  0  0  0  0
  -21.9193   -4.6966   22.3402 C   0  0  0  0  0  0
  -22.7880  -13.5247   21.1834 C   0  0  0  0  0  0
  -22.1662   -4.2154   21.0979 F   0  0  0  0  0  0
  -21.5629   -3.4535   25.7733 F   0  0  0  0  0  0
  -30.0503  -13.2289   20.4630 N   0  0  0  0  0  0
  -26.3058  -12.9310   20.3386 N   0  0  0  0  0  0
  -25.9321  -11.6475   20.5752 N   0  0  0  0  0  0
  -22.0515  -12.8241   22.0389 N   0  0  0  0  0  0
  -25.4367  -15.1869   20.4107 N   0  0  0  0  0  0
  -31.7876  -14.6499   20.0619 O   0  0  0  0  0  0
  -21.6637   -6.8879   21.4241 O   0  0  0  0  0  0
  -22.3569  -14.5558   20.6690 O   0  0  0  0  0  0
  -24.6110  -31.8706   23.2117 C   0  0  0  0  0  0
  -25.9017  -32.4840   23.8407 C   0  0  1  0  0  0
  -27.2387  -27.4688   20.0918 C   0  0  0  0  0  0
  -25.5891  -33.8635   24.2346 N   0  0  0  0  0  0
  -23.3979  -30.4929   21.5521 C   0  0  2  0  0  0
  -24.8457  -28.9590   20.1196 C   0  0  0  0  0  0
  -22.7391  -29.4668   22.5011 C   0  0  0  0  0  0
  -18.0269  -28.1375   22.8499 C   0  0  0  0  0  0
  -24.1486  -36.7318   23.2635 C   0  0  0  0  0  0
  -25.9224  -30.8468   21.3585 C   0  0  0  0  0  0
  -26.0032  -29.4814   20.7110 C   0  0  0  0  0  0
  -27.2057  -28.7441   20.6926 C   0  0  0  0  0  0
  -26.0684  -26.9503   19.4982 C   0  0  0  0  0  0
  -24.8704  -27.6905   19.5125 C   0  0  0  0  0  0
  -23.6056  -29.8219   20.1678 C   0  0  0  0  0  0
  -25.4105  -36.3122   24.0344 C   0  0  1  0  0  0
  -20.5856  -28.3652   23.1332 C   0  0  2  0  0  0
  -20.6759  -26.9394   22.5424 C   0  0  0  0  0  0
  -19.5741  -26.6387   21.5214 C   0  0  0  0  0  0
  -18.1918  -26.7923   22.1624 C   0  0  0  0  0  0
  -19.1517  -28.8829   23.2914 C   0  0  0  0  0  0
  -18.9447  -30.1437   23.8921 C   0  0  0  0  0  0
  -17.6450  -30.6585   24.0567 C   0  0  0  0  0  0
  -25.9030  -34.9486   23.5142 C   0  0  0  0  0  0
  -16.5340  -29.9090   23.6322 C   0  0  0  0  0  0
  -16.7258  -28.6503   23.0350 C   0  0  0  0  0  0
  -26.4461  -31.6603   25.0714 C   0  0  0  0  0  0
  -25.3739  -31.3698   26.1470 C   0  0  0  0  0  0
  -27.0279  -30.3054   24.6047 C   0  0  0  0  0  0
  -27.6050  -32.4308   25.7473 C   0  0  0  0  0  0
  -27.5587  -37.1808   24.8462 C   0  0  0  0  0  0
  -21.4123  -29.3029   22.3748 N   0  0  0  0  0  0
  -26.4293  -37.3805   23.9416 N   0  0  0  0  0  0
  -24.6622  -31.0831   22.1004 N   0  0  0  0  0  0
  -23.4178  -28.8207   23.3038 O   0  0  0  0  0  0
  -28.4103  -26.7570   20.0490 O   0  0  0  0  0  0
  -26.5586  -34.8930   22.4698 O   0  0  0  0  0  0
  -23.5310  -32.1442   23.7531 O   0  0  0  0  0  0
  -31.0332  -18.8489   20.9886 C   0  0  0  0  0  0
  -31.0063  -17.4525   20.8117 C   0  0  0  0  0  0
  -29.6429  -18.6214   22.9633 C   0  0  0  0  0  0
  -29.6092  -17.2214   22.7948 C   0  0  0  0  0  0
  -30.3441  -19.4528   22.0625 C   0  0  0  0  0  0
  -30.2937  -16.6223   21.7105 C   0  0  0  0  0  0
  -31.4563  -21.6929   21.8194 C   0  0  0  0  0  0
  -29.0888  -21.5265   22.6070 C   0  0  0  0  0  0
  -31.0124  -22.7239   20.7614 C   0  0  0  0  0  0
  -28.6818  -22.5579   21.5346 C   0  0  0  0  0  0
  -28.8196  -16.3781   23.7848 C   0  0  0  0  0  0
  -29.4507  -24.5803   20.2714 C   0  0  0  0  0  0
  -28.4132  -25.5692   20.8389 C   0  0  0  0  0  0
  -30.3349  -20.8507   22.2410 N   0  0  0  0  0  0
  -30.1778  -15.2117   21.5535 N   0  0  0  0  0  0
  -29.8085  -23.4766   21.2090 N   0  3  0  0  0  0
  -31.4667  -12.3879   19.0965 H   0  0  0  0  0  0
  -30.3234  -11.2609   19.7636 H   0  0  0  0  0  0
  -29.7222  -11.8189   17.3958 H   0  0  0  0  0  0
  -29.6640  -13.5187   17.7869 H   0  0  0  0  0  0
  -27.8133  -11.3241   18.7839 H   0  0  0  0  0  0
  -27.3616  -12.6802   17.7857 H   0  0  0  0  0  0
  -27.7312  -14.2555   19.6182 H   0  0  0  0  0  0
  -28.6685  -11.8767   21.2907 H   0  0  0  0  0  0
  -28.4503  -13.4801   21.8983 H   0  0  0  0  0  0
  -25.2758   -9.5689   22.4745 H   0  0  0  0  0  0
  -24.0004   -7.4637   22.7467 H   0  0  0  0  0  0
  -21.0838   -8.8769   19.8952 H   0  0  0  0  0  0
  -22.3687  -10.9671   19.6152 H   0  0  0  0  0  0
  -21.2004   -7.6146   23.9719 H   0  0  0  0  0  0
  -21.1480   -6.0519   25.9080 H   0  0  0  0  0  0
  -22.0599   -2.7612   23.2840 H   0  0  0  0  0  0
  -22.4118  -11.9893   22.4771 H   0  0  0  0  0  0
  -21.1136  -13.1275   22.2593 H   0  0  0  0  0  0
  -24.6745  -15.8464   20.5223 H   0  0  0  0  0  0
  -26.2998  -15.6245   20.1130 H   0  0  0  0  0  0
  -26.7086  -32.5571   23.1176 H   0  0  0  0  0  0
  -25.0060  -33.9804   25.0502 H   0  0  0  0  0  0
  -22.6856  -31.3088   21.4131 H   0  0  0  0  0  0
  -23.3750  -35.9649   23.3306 H   0  0  0  0  0  0
  -24.3584  -36.8921   22.2048 H   0  0  0  0  0  0
  -23.7231  -37.6525   23.6636 H   0  0  0  0  0  0
  -26.0253  -31.6112   20.5869 H   0  0  0  0  0  0
  -26.8139  -30.9061   21.9711 H   0  0  0  0  0  0
  -28.1039  -29.1498   21.1379 H   0  0  0  0  0  0
  -26.0857  -25.9834   19.0152 H   0  0  0  0  0  0
  -23.9808  -27.2837   19.0516 H   0  0  0  0  0  0
  -23.7111  -30.5952   19.4057 H   0  0  0  0  0  0
  -22.7312  -29.2383   19.8746 H   0  0  0  0  0  0
  -25.1278  -36.1996   25.0837 H   0  0  0  0  0  0
  -20.9953  -28.3213   24.1450 H   0  0  0  0  0  0
  -20.5666  -26.2256   23.3605 H   0  0  0  0  0  0
  -21.6629  -26.7449   22.1212 H   0  0  0  0  0  0
  -19.6903  -25.6307   21.1226 H   0  0  0  0  0  0
  -19.6685  -27.3213   20.6757 H   0  0  0  0  0  0
  -17.4196  -26.6683   21.4017 H   0  0  0  0  0  0
  -18.0315  -26.0057   22.9012 H   0  0  0  0  0  0
  -19.7923  -30.7246   24.2304 H   0  0  0  0  0  0
  -17.5008  -31.6268   24.5166 H   0  0  0  0  0  0
  -15.5343  -30.3004   23.7629 H   0  0  0  0  0  0
  -15.8658  -28.0832   22.7054 H   0  0  0  0  0  0
  -24.5912  -30.7043   25.7810 H   0  0  0  0  0  0
  -24.8923  -32.2849   26.4928 H   0  0  0  0  0  0
  -25.8104  -30.8865   27.0219 H   0  0  0  0  0  0
  -26.2804  -29.6829   24.1110 H   0  0  0  0  0  0
  -27.4083  -29.7271   25.4477 H   0  0  0  0  0  0
  -27.8627  -30.4393   23.9160 H   0  0  0  0  0  0
  -27.2683  -33.3596   26.2090 H   0  0  0  0  0  0
  -28.3839  -32.6887   25.0284 H   0  0  0  0  0  0
  -28.0737  -31.8401   26.5354 H   0  0  0  0  0  0
  -28.2601  -38.0110   24.7532 H   0  0  0  0  0  0
  -28.1091  -36.2646   24.6264 H   0  0  0  0  0  0
  -27.2311  -37.1430   25.8866 H   0  0  0  0  0  0
  -20.9275  -29.8760   21.6985 H   0  0  0  0  0  0
  -26.0191  -38.2887   24.1424 H   0  0  0  0  0  0
  -31.5689  -19.4427   20.2630 H   0  0  0  0  0  0
  -31.5279  -17.0498   19.9569 H   0  0  0  0  0  0
  -29.1231  -19.0576   23.8043 H   0  0  0  0  0  0
  -31.8345  -22.2175   22.6982 H   0  0  0  0  0  0
  -32.2991  -21.1097   21.4482 H   0  0  0  0  0  0
  -28.2661  -20.8225   22.7383 H   0  0  0  0  0  0
  -29.2263  -22.0211   23.5699 H   0  0  0  0  0  0
  -30.7965  -22.2187   19.8188 H   0  0  0  0  0  0
  -31.8366  -23.4110   20.5646 H   0  0  0  0  0  0
  -27.8164  -23.1088   21.9009 H   0  0  0  0  0  0
  -28.3613  -22.0420   20.6278 H   0  0  0  0  0  0
  -28.4176  -16.9849   24.5968 H   0  0  0  0  0  0
  -29.4537  -15.6114   24.2310 H   0  0  0  0  0  0
  -27.9797  -15.8902   23.2888 H   0  0  0  0  0  0
  -30.3575  -25.1431   20.0462 H   0  0  0  0  0  0
  -29.0997  -24.1716   19.3228 H   0  0  0  0  0  0
  -28.6710  -25.8484   21.8614 H   0  0  0  0  0  0
  -27.4284  -25.1011   20.8733 H   0  0  0  0  0  0
  -29.4390  -14.7827   22.0873 H   0  0  0  0  0  0
  -30.0777  -23.9047   22.0827 H   0  0  0  0  0  0
  1 25  1  0  0  0
  1 30  2  0  0  0
  1 85  1  0  0  0
  2  3  1  0  0  0
  2 25  1  0  0  0
  2 87  1  0  0  0
  2 88  1  0  0  0
  3  4  1  0  0  0
  3 89  1  0  0  0
  3 90  1  0  0  0
  4  5  1  0  0  0
  4 91  1  0  0  0
  4 92  1  0  0  0
  5  6  1  0  0  0
  5 26  1  0  0  0
  5 93  1  0  0  0
  6 25  1  0  0  0
  6 94  1  0  0  0
  6 95  1  0  0  0
  7  8  2  0  0  0
  7 26  1  0  0  0
  7 29  1  0  0  0
  8  9  1  0  0  0
  8 22  1  0  0  0
  9 10  1  0  0  0
  9 27  2  0  0  0
 10 11  2  0  0  0
 10 15  1  0  0  0
 11 12  1  0  0  0
 11 96  1  0  0  0
 12 13  2  0  0  0
 12 97  1  0  0  0
 13 14  1  0  0  0
 13 31  1  0  0  0
 14 15  2  0  0  0
 14 98  1  0  0  0
 15 99  1  0  0  0
 16 17  2  0  0  0
 16 21  1  0  0  0
 16 31  1  0  0  0
 17 18  1  0  0  0
 17100  1  0  0  0
 18 19  2  0  0  0
 18101  1  0  0  0
 19 20  1  0  0  0
 19 24  1  0  0  0
 20 21  2  0  0  0
 20102  1  0  0  0
 21 23  1  0  0  0
 22 28  1  0  0  0
 22 32  2  0  0  0
 26 27  1  0  0  0
 28103  1  0  0  0
 28104  1  0  0  0
 29105  1  0  0  0
 29106  1  0  0  0
 33 34  1  0  0  0
 33 66  1  0  0  0
 33 70  2  0  0  0
 34 36  1  0  0  0
 34 59  1  0  0  0
 34107  1  0  0  0
 35 44  2  0  0  0
 35 45  1  0  0  0
 35 68  1  0  0  0
 36 56  1  0  0  0
 36108  1  0  0  0
 37 39  1  0  0  0
 37 47  1  0  0  0
 37 66  1  0  0  0
 37109  1  0  0  0
 38 43  2  0  0  0
 38 46  1  0  0  0
 38 47  1  0  0  0
 39 64  1  0  0  0
 39 67  2  0  0  0
 40 52  1  0  0  0
 40 53  2  0  0  0
 40 58  1  0  0  0
 41110  1  0  0  0
 41111  1  0  0  0
 41112  1  0  0  0
 41 48  1  0  0  0
 42 43  1  0  0  0
 42 66  1  0  0  0
 42113  1  0  0  0
 42114  1  0  0  0
 43 44  1  0  0  0
 44115  1  0  0  0
 45 46  2  0  0  0
 45116  1  0  0  0
 46117  1  0  0  0
 47118  1  0  0  0
 47119  1  0  0  0
 48 56  1  0  0  0
 48 65  1  0  0  0
 48120  1  0  0  0
 49 50  1  0  0  0
 49 53  1  0  0  0
 49 64  1  0  0  0
 49121  1  0  0  0
 50 51  1  0  0  0
 50122  1  0  0  0
 50123  1  0  0  0
 51 52  1  0  0  0
 51124  1  0  0  0
 51125  1  0  0  0
 52126  1  0  0  0
 52127  1  0  0  0
 53 54  1  0  0  0
 54 55  2  0  0  0
 54128  1  0  0  0
 55 57  1  0  0  0
 55129  1  0  0  0
 56 69  2  0  0  0
 57 58  2  0  0  0
 57130  1  0  0  0
 58131  1  0  0  0
 59 60  1  0  0  0
 59 61  1  0  0  0
 59 62  1  0  0  0
 60132  1  0  0  0
 60133  1  0  0  0
 60134  1  0  0  0
 61135  1  0  0  0
 61136  1  0  0  0
 61137  1  0  0  0
 62138  1  0  0  0
 62139  1  0  0  0
 62140  1  0  0  0
 63 65  1  0  0  0
 63141  1  0  0  0
 63142  1  0  0  0
 63143  1  0  0  0
 64144  1  0  0  0
 65145  1  0  0  0
 68 83  1  0  0  0
 71 72  2  0  0  0
 71 75  1  0  0  0
 71146  1  0  0  0
 72 76  1  0  0  0
 72147  1  0  0  0
 73 74  1  0  0  0
 73 75  2  0  0  0
 73148  1  0  0  0
 74 76  2  0  0  0
 74 81  1  0  0  0
 75 84  1  0  0  0
 76 85  1  0  0  0
 77 79  1  0  0  0
 77 84  1  0  0  0
 77149  1  0  0  0
 77150  1  0  0  0
 78 80  1  0  0  0
 78 84  1  0  0  0
 78151  1  0  0  0
 78152  1  0  0  0
 79 86  1  0  0  0
 79153  1  0  0  0
 79154  1  0  0  0
 80 86  1  0  0  0
 80155  1  0  0  0
 80156  1  0  0  0
 81157  1  0  0  0
 81158  1  0  0  0
 81159  1  0  0  0
 82 83  1  0  0  0
 82160  1  0  0  0
 82161  1  0  0  0
 82 86  1  0  0  0
 83162  1  0  0  0
 83163  1  0  0  0
 85164  1  0  0  0
 86165  1  0  0  0
M  CHG  1  86   1
M  ISO  4   1 100  68 101  83 101  85 100
M  END
> <chiral flag>
0

> <version>
0

> <s_m_source_file>
/data/baiqing/PycharmProjects/Reinvent-master-3.2/result/LINK_invent/BTK/process_docking_weight1_custom_product_contain_oxygen_bond_distance_aromatic_linkinvent_7_9_3/rearranged_h_0007.sdf

> <i_m_source_file_index>
56

> <r_mmod_Potential_Energy-OPLS-2005>
-83.2944641113281

> <r_mmod_Stretch_Energy-OPLS-2005>
35.4178199768066

> <r_mmod_Bend_Energy-OPLS-2005>
109.762992858887

> <r_mmod_Torsional_Energy-OPLS-2005>
291.373931884766

> <r_mmod_Improper_Torsional_Energy-OPLS-2005>
2.80938649177551

> <r_mmod_Van_der_Waal_Energy-OPLS-2005>
170.285278320312

> <r_mmod_Electrostatic_Energy-OPLS-2005>
-270.939575195312

> <r_mmod_Solvation_Energy-OPLS-2005>
-428.593841552734

> <b_mmod_Minimization_Converged-OPLS-2005>
0

> <r_mmod_RMS_Derivative-OPLS-2005>
0.61788547039032

$$$$
56
                    3D
 Structure written by MMmdl.
168178  0  0  1  0            999 V2000
  -30.7102  -14.4538   20.4769 C   0  0  0  0  0  0
  -30.4149  -12.2622   19.4224 C   0  0  0  0  0  0
  -29.4861  -12.4280   18.2018 C   0  0  0  0  0  0
  -28.0016  -12.3558   18.6147 C   0  0  0  0  0  0
  -27.6569  -13.2014   19.8739 C   0  0  2  0  0  0
  -28.7100  -13.0155   20.9907 C   0  0  0  0  0  0
  -25.2555  -13.8124   20.5690 C   0  0  0  0  0  0
  -24.1799  -13.0412   20.9180 C   0  0  0  0  0  0
  -24.6371  -11.6872   20.8786 C   0  0  0  0  0  0
  -23.9046  -10.4265   21.0440 C   0  0  0  0  0  0
  -24.3604   -9.4170   21.9186 C   0  0  0  0  0  0
  -23.6271   -8.2214   22.0751 C   0  0  0  0  0  0
  -22.4247   -8.0272   21.3544 C   0  0  0  0  0  0
  -21.9898   -9.0235   20.4644 C   0  0  0  0  0  0
  -22.7232  -10.2102   20.3059 C   0  0  0  0  0  0
  -21.6835   -6.0717   22.5290 C   0  0  0  0  0  0
  -21.4008   -6.5624   23.8220 C   0  0  0  0  0  0
  -21.3666   -5.6790   24.9194 C   0  0  0  0  0  0
  -21.6044   -4.3051   24.7256 C   0  0  0  0  0  0
  -21.8798   -3.8134   23.4379 C   0  0  0  0  0  0
  -21.9167   -4.6938   22.3422 C   0  0  0  0  0  0
  -22.7804  -13.5174   21.1854 C   0  0  0  0  0  0
  -22.1625   -4.2114   21.1000 F   0  0  0  0  0  0
  -21.5667   -3.4543   25.7780 F   0  0  0  0  0  0
  -30.0353  -13.2778   20.4100 N   0  0  0  0  0  0
  -26.3014  -12.9291   20.3443 N   0  0  0  0  0  0
  -25.9313  -11.6445   20.5852 N   0  0  0  0  0  0
  -22.0480  -12.8149   22.0427 N   0  0  0  0  0  0
  -25.4282  -15.1845   20.4031 N   0  0  0  0  0  0
  -31.9002  -14.5720   20.1705 O   0  0  0  0  0  0
  -21.6618   -6.8866   21.4247 O   0  0  0  0  0  0
  -22.3447  -14.5487   20.6742 O   0  0  0  0  0  0
  -24.6135  -31.8685   23.2109 C   0  0  0  0  0  0
  -25.9031  -32.4828   23.8391 C   0  0  1  0  0  0
  -27.2410  -27.4692   20.0821 C   0  0  0  0  0  0
  -25.5894  -33.8619   24.2335 N   0  0  0  0  0  0
  -23.4005  -30.4906   21.5520 C   0  0  2  0  0  0
  -24.8492  -28.9628   20.1118 C   0  0  0  0  0  0
  -22.7400  -29.4659   22.5017 C   0  0  0  0  0  0
  -18.0260  -28.1383   22.8490 C   0  0  0  0  0  0
  -24.1486  -36.7315   23.2639 C   0  0  0  0  0  0
  -25.9236  -30.8516   21.3496 C   0  0  0  0  0  0
  -26.0095  -29.4863   20.6995 C   0  0  0  0  0  0
  -27.2135  -28.7470   20.6802 C   0  0  0  0  0  0
  -26.0632  -26.9431   19.5176 C   0  0  0  0  0  0
  -24.8702  -27.6897   19.5166 C   0  0  0  0  0  0
  -23.6053  -29.8208   20.1669 C   0  0  0  0  0  0
  -25.4104  -36.3111   24.0345 C   0  0  1  0  0  0
  -20.5845  -28.3660   23.1335 C   0  0  2  0  0  0
  -20.6751  -26.9407   22.5415 C   0  0  0  0  0  0
  -19.5732  -26.6404   21.5206 C   0  0  0  0  0  0
  -18.1912  -26.7935   22.1623 C   0  0  0  0  0  0
  -19.1507  -28.8838   23.2910 C   0  0  0  0  0  0
  -18.9443  -30.1443   23.8917 C   0  0  0  0  0  0
  -17.6446  -30.6588   24.0570 C   0  0  0  0  0  0
  -25.9028  -34.9473   23.5144 C   0  0  0  0  0  0
  -16.5336  -29.9090   23.6335 C   0  0  0  0  0  0
  -16.7254  -28.6510   23.0354 C   0  0  0  0  0  0
  -26.4479  -31.6588   25.0689 C   0  0  0  0  0  0
  -25.3773  -31.3635   26.1450 C   0  0  0  0  0  0
  -27.0300  -30.3053   24.5984 C   0  0  0  0  0  0
  -27.6067  -32.4298   25.7437 C   0  0  0  0  0  0
  -27.5580  -37.1798   24.8466 C   0  0  0  0  0  0
  -21.4128  -29.3028   22.3749 N   0  0  0  0  0  0
  -26.4287  -37.3803   23.9421 N   0  0  0  0  0  0
  -24.6647  -31.0822   22.0971 N   0  0  0  0  0  0
  -23.4179  -28.8204   23.3051 O   0  0  0  0  0  0
  -28.3641  -26.6804   20.1175 O   0  0  0  0  0  0
  -26.5592  -34.8936   22.4703 O   0  0  0  0  0  0
  -23.5340  -32.1401   23.7533 O   0  0  0  0  0  0
  -29.7652  -20.5457   18.5498 C   0  0  0  0  0  0
  -30.1900  -21.8447   18.2170 C   0  0  0  0  0  0
  -31.2800  -20.5266   20.4501 C   0  0  0  0  0  0
  -30.3102  -19.8688   19.6611 C   0  0  0  0  0  0
  -31.1490  -22.5087   19.0104 C   0  0  0  0  0  0
  -31.6901  -21.8382   20.1324 C   0  0  0  0  0  0
  -30.5515  -26.0154   19.4669 C   0  0  0  0  0  0
  -30.4221  -17.4796   18.8818 C   0  0  0  0  0  0
  -30.1697  -17.8536   21.3221 C   0  0  0  0  0  0
  -28.9542  -26.3982   17.7454 C   0  0  0  0  0  0
  -29.7347  -16.1184   19.0142 C   0  0  0  0  0  0
  -29.5968  -16.4209   21.4931 C   0  0  0  0  0  0
  -29.5227  -24.9772   17.6667 C   0  0  0  0  0  0
  -29.8526  -18.4380   19.9299 C   0  0  0  0  0  0
  -29.3640  -26.9199   19.1316 C   0  0  1  0  0  0
  -31.6340  -23.9062   18.6274 C   0  0  0  0  0  0
  -30.6011  -24.9539   18.6467 N   0  0  0  0  0  0
  -29.9082  -15.5320   20.3566 N   0  0  0  0  0  0
  -31.3377  -26.2590   20.3875 O   0  0  0  0  0  0
  -32.6202  -22.4449   20.9078 F   0  0  0  0  0  0
  -31.4600  -12.3453   19.1158 H   0  0  0  0  0  0
  -30.2981  -11.2673   19.8513 H   0  0  0  0  0  0
  -29.6896  -11.6497   17.4623 H   0  0  0  0  0  0
  -29.6884  -13.3723   17.7023 H   0  0  0  0  0  0
  -27.7646  -11.3059   18.7879 H   0  0  0  0  0  0
  -27.3734  -12.6669   17.7792 H   0  0  0  0  0  0
  -27.6800  -14.2443   19.5659 H   0  0  0  0  0  0
  -28.6782  -12.0001   21.3864 H   0  0  0  0  0  0
  -28.5136  -13.6870   21.8288 H   0  0  0  0  0  0
  -25.2771   -9.5628   22.4740 H   0  0  0  0  0  0
  -23.9997   -7.4585   22.7422 H   0  0  0  0  0  0
  -21.0856   -8.8725   19.8921 H   0  0  0  0  0  0
  -22.3715  -10.9625   19.6160 H   0  0  0  0  0  0
  -21.2005   -7.6135   23.9709 H   0  0  0  0  0  0
  -21.1524   -6.0547   25.9088 H   0  0  0  0  0  0
  -22.0591   -2.7599   23.2899 H   0  0  0  0  0  0
  -22.4172  -11.9827   22.4798 H   0  0  0  0  0  0
  -21.1090  -13.1085   22.2712 H   0  0  0  0  0  0
  -24.6652  -15.8421   20.5153 H   0  0  0  0  0  0
  -26.2900  -15.6264   20.1122 H   0  0  0  0  0  0
  -26.7101  -32.5567   23.1167 H   0  0  0  0  0  0
  -25.0032  -33.9789   25.0467 H   0  0  0  0  0  0
  -22.6893  -31.3065   21.4153 H   0  0  0  0  0  0
  -23.3752  -35.9644   23.3292 H   0  0  0  0  0  0
  -24.3576  -36.8935   22.2055 H   0  0  0  0  0  0
  -23.7237  -37.6518   23.6651 H   0  0  0  0  0  0
  -26.0136  -31.6167   20.5771 H   0  0  0  0  0  0
  -26.8202  -30.9200   21.9538 H   0  0  0  0  0  0
  -28.1094  -29.1452   21.1347 H   0  0  0  0  0  0
  -26.0685  -25.9518   19.0869 H   0  0  0  0  0  0
  -23.9750  -27.2760   19.0740 H   0  0  0  0  0  0
  -23.7000  -30.5938   19.4037 H   0  0  0  0  0  0
  -22.7321  -29.2320   19.8796 H   0  0  0  0  0  0
  -25.1276  -36.1970   25.0837 H   0  0  0  0  0  0
  -20.9940  -28.3215   24.1453 H   0  0  0  0  0  0
  -20.5667  -26.2260   23.3585 H   0  0  0  0  0  0
  -21.6623  -26.7459   22.1200 H   0  0  0  0  0  0
  -19.6900  -25.6328   21.1201 H   0  0  0  0  0  0
  -19.6676  -27.3241   20.6754 H   0  0  0  0  0  0
  -17.4184  -26.6686   21.4026 H   0  0  0  0  0  0
  -18.0322  -26.0066   22.9007 H   0  0  0  0  0  0
  -19.7914  -30.7256   24.2309 H   0  0  0  0  0  0
  -17.4999  -31.6270   24.5168 H   0  0  0  0  0  0
  -15.5340  -30.3004   23.7653 H   0  0  0  0  0  0
  -15.8650  -28.0843   22.7065 H   0  0  0  0  0  0
  -24.5975  -30.6956   25.7776 H   0  0  0  0  0  0
  -24.8932  -32.2758   26.4936 H   0  0  0  0  0  0
  -25.8170  -30.8780   27.0173 H   0  0  0  0  0  0
  -26.2787  -29.6784   24.1168 H   0  0  0  0  0  0
  -27.4258  -29.7309   25.4370 H   0  0  0  0  0  0
  -27.8535  -30.4408   23.8970 H   0  0  0  0  0  0
  -27.2697  -33.3589   26.2048 H   0  0  0  0  0  0
  -28.3846  -32.6872   25.0234 H   0  0  0  0  0  0
  -28.0768  -31.8394   26.5314 H   0  0  0  0  0  0
  -28.2590  -38.0106   24.7546 H   0  0  0  0  0  0
  -28.1088  -36.2639   24.6250 H   0  0  0  0  0  0
  -27.2298  -37.1408   25.8871 H   0  0  0  0  0  0
  -20.9300  -29.8731   21.6949 H   0  0  0  0  0  0
  -26.0171  -38.2872   24.1463 H   0  0  0  0  0  0
  -29.0266  -20.0536   17.9319 H   0  0  0  0  0  0
  -29.7824  -22.3212   17.3385 H   0  0  0  0  0  0
  -31.7285  -20.0345   21.2998 H   0  0  0  0  0  0
  -30.2643  -17.8649   17.8751 H   0  0  0  0  0  0
  -31.5029  -17.3805   18.9958 H   0  0  0  0  0  0
  -31.2492  -17.8128   21.4746 H   0  0  0  0  0  0
  -29.7688  -18.5017   22.1022 H   0  0  0  0  0  0
  -27.8803  -26.4108   17.5679 H   0  0  0  0  0  0
  -29.4131  -27.0207   16.9763 H   0  0  0  0  0  0
  -28.6705  -16.2247   18.8083 H   0  0  0  0  0  0
  -30.1225  -15.4609   18.2319 H   0  0  0  0  0  0
  -28.5111  -16.4694   21.6018 H   0  0  0  0  0  0
  -29.9698  -15.9966   22.4271 H   0  0  0  0  0  0
  -29.8669  -24.7281   16.6619 H   0  0  0  0  0  0
  -28.7535  -24.2593   17.9572 H   0  0  0  0  0  0
  -28.7654  -18.4572   19.8215 H   0  0  0  0  0  0
  -29.6621  -27.9681   19.1097 H   0  0  0  0  0  0
  -32.0626  -23.8601   17.6249 H   0  0  0  0  0  0
  -32.4653  -24.1874   19.2751 H   0  0  0  0  0  0
  1 25  1  0  0  0
  1 30  2  0  0  0
  1 88  1  0  0  0
  2  3  1  0  0  0
  2 25  1  0  0  0
  2 91  1  0  0  0
  2 92  1  0  0  0
  3  4  1  0  0  0
  3 93  1  0  0  0
  3 94  1  0  0  0
  4  5  1  0  0  0
  4 95  1  0  0  0
  4 96  1  0  0  0
  5  6  1  0  0  0
  5 26  1  0  0  0
  5 97  1  0  0  0
  6 25  1  0  0  0
  6 98  1  0  0  0
  6 99  1  0  0  0
  7  8  2  0  0  0
  7 26  1  0  0  0
  7 29  1  0  0  0
  8  9  1  0  0  0
  8 22  1  0  0  0
  9 10  1  0  0  0
  9 27  2  0  0  0
 10 11  2  0  0  0
 10 15  1  0  0  0
 11 12  1  0  0  0
 11100  1  0  0  0
 12 13  2  0  0  0
 12101  1  0  0  0
 13 14  1  0  0  0
 13 31  1  0  0  0
 14 15  2  0  0  0
 14102  1  0  0  0
 15103  1  0  0  0
 16 17  2  0  0  0
 16 21  1  0  0  0
 16 31  1  0  0  0
 17 18  1  0  0  0
 17104  1  0  0  0
 18 19  2  0  0  0
 18105  1  0  0  0
 19 20  1  0  0  0
 19 24  1  0  0  0
 20 21  2  0  0  0
 20106  1  0  0  0
 21 23  1  0  0  0
 22 28  1  0  0  0
 22 32  2  0  0  0
 26 27  1  0  0  0
 28107  1  0  0  0
 28108  1  0  0  0
 29109  1  0  0  0
 29110  1  0  0  0
 33 34  1  0  0  0
 33 66  1  0  0  0
 33 70  2  0  0  0
 34 36  1  0  0  0
 34 59  1  0  0  0
 34111  1  0  0  0
 35 44  2  0  0  0
 35 45  1  0  0  0
 35 68  1  0  0  0
 36 56  1  0  0  0
 36112  1  0  0  0
 37 39  1  0  0  0
 37 47  1  0  0  0
 37 66  1  0  0  0
 37113  1  0  0  0
 38 43  2  0  0  0
 38 46  1  0  0  0
 38 47  1  0  0  0
 39 64  1  0  0  0
 39 67  2  0  0  0
 40 52  1  0  0  0
 40 53  2  0  0  0
 40 58  1  0  0  0
 41114  1  0  0  0
 41115  1  0  0  0
 41116  1  0  0  0
 41 48  1  0  0  0
 42 43  1  0  0  0
 42 66  1  0  0  0
 42117  1  0  0  0
 42118  1  0  0  0
 43 44  1  0  0  0
 44119  1  0  0  0
 45 46  2  0  0  0
 45120  1  0  0  0
 46121  1  0  0  0
 47122  1  0  0  0
 47123  1  0  0  0
 48 56  1  0  0  0
 48 65  1  0  0  0
 48124  1  0  0  0
 49 50  1  0  0  0
 49 53  1  0  0  0
 49 64  1  0  0  0
 49125  1  0  0  0
 50 51  1  0  0  0
 50126  1  0  0  0
 50127  1  0  0  0
 51 52  1  0  0  0
 51128  1  0  0  0
 51129  1  0  0  0
 52130  1  0  0  0
 52131  1  0  0  0
 53 54  1  0  0  0
 54 55  2  0  0  0
 54132  1  0  0  0
 55 57  1  0  0  0
 55133  1  0  0  0
 56 69  2  0  0  0
 57 58  2  0  0  0
 57134  1  0  0  0
 58135  1  0  0  0
 59 60  1  0  0  0
 59 61  1  0  0  0
 59 62  1  0  0  0
 60136  1  0  0  0
 60137  1  0  0  0
 60138  1  0  0  0
 61139  1  0  0  0
 61140  1  0  0  0
 61141  1  0  0  0
 62142  1  0  0  0
 62143  1  0  0  0
 62144  1  0  0  0
 63 65  1  0  0  0
 63145  1  0  0  0
 63146  1  0  0  0
 63147  1  0  0  0
 64148  1  0  0  0
 65149  1  0  0  0
 68 85  1  0  0  0
 71 72  2  0  0  0
 71 74  1  0  0  0
 71150  1  0  0  0
 72 75  1  0  0  0
 72151  1  0  0  0
 73 74  2  0  0  0
 73 76  1  0  0  0
 73152  1  0  0  0
 74 84  1  0  0  0
 75 76  2  0  0  0
 75 86  1  0  0  0
 76 90  1  0  0  0
 77 85  1  0  0  0
 77 87  1  0  0  0
 77 89  2  0  0  0
 78 81  1  0  0  0
 78 84  1  0  0  0
 78153  1  0  0  0
 78154  1  0  0  0
 79 82  1  0  0  0
 79 84  1  0  0  0
 79155  1  0  0  0
 79156  1  0  0  0
 80 83  1  0  0  0
 80 85  1  0  0  0
 80157  1  0  0  0
 80158  1  0  0  0
 81 88  1  0  0  0
 81159  1  0  0  0
 81160  1  0  0  0
 82 88  1  0  0  0
 82161  1  0  0  0
 82162  1  0  0  0
 83 87  1  0  0  0
 83163  1  0  0  0
 83164  1  0  0  0
 84165  1  0  0  0
 85166  1  0  0  0
 86 87  1  0  0  0
 86167  1  0  0  0
 86168  1  0  0  0
M  ISO  4   1 100  68 101  85 101  88 100
M  END
> <chiral flag>
0

> <version>
0

> <s_m_source_file>
/data/baiqing/PycharmProjects/Reinvent-master-3.2/result/LINK_invent/BTK/process_docking_weight1_custom_product_contain_oxygen_bond_distance_aromatic_linkinvent_7_9_3/rearranged_h_0007.sdf

> <i_m_source_file_index>
57

> <r_mmod_Potential_Energy-OPLS-2005>
258.175964355469

> <r_mmod_Stretch_Energy-OPLS-2005>
35.1522254943848

> <r_mmod_Bend_Energy-OPLS-2005>
123.370765686035

> <r_mmod_Torsional_Energy-OPLS-2005>
391.466278076172

> <r_mmod_Improper_Torsional_Energy-OPLS-2005>
18.7479305267334

> <r_mmod_Van_der_Waal_Energy-OPLS-2005>
146.240585327148

> <r_mmod_Electrostatic_Energy-OPLS-2005>
-253.586471557617

> <r_mmod_Solvation_Energy-OPLS-2005>
-221.765625

> <b_mmod_Minimization_Converged-OPLS-2005>
0

> <r_mmod_RMS_Derivative-OPLS-2005>
3.80887365341187

$$$$
57
                    3D
 Structure written by MMmdl.
151159  0  0  1  0            999 V2000
  -30.5191  -15.0273   20.4047 C   0  0  0  0  0  0
  -30.4380  -12.6411   19.5040 C   0  0  0  0  0  0
  -29.5228  -12.5381   18.2614 C   0  0  0  0  0  0
  -28.0592  -12.3107   18.6819 C   0  0  0  0  0  0
  -27.6232  -13.2557   19.8317 C   0  0  2  0  0  0
  -28.6645  -13.3237   20.9684 C   0  0  0  0  0  0
  -25.2434  -13.8226   20.5718 C   0  0  0  0  0  0
  -24.1766  -13.0438   20.9244 C   0  0  0  0  0  0
  -24.6393  -11.6928   20.8759 C   0  0  0  0  0  0
  -23.9083  -10.4293   21.0408 C   0  0  0  0  0  0
  -24.3629   -9.4206   21.9184 C   0  0  0  0  0  0
  -23.6300   -8.2243   22.0753 C   0  0  0  0  0  0
  -22.4281   -8.0282   21.3544 C   0  0  0  0  0  0
  -21.9922   -9.0257   20.4645 C   0  0  0  0  0  0
  -22.7256  -10.2134   20.3056 C   0  0  0  0  0  0
  -21.6856   -6.0737   22.5279 C   0  0  0  0  0  0
  -21.4015   -6.5640   23.8212 C   0  0  0  0  0  0
  -21.3660   -5.6792   24.9173 C   0  0  0  0  0  0
  -21.6044   -4.3055   24.7224 C   0  0  0  0  0  0
  -21.8819   -3.8148   23.4345 C   0  0  0  0  0  0
  -21.9193   -4.6965   22.3402 C   0  0  0  0  0  0
  -22.7786  -13.5202   21.1894 C   0  0  0  0  0  0
  -22.1663   -4.2151   21.0979 F   0  0  0  0  0  0
  -21.5628   -3.4538   25.7736 F   0  0  0  0  0  0
  -29.9285  -13.7571   20.3594 N   0  0  0  0  0  0
  -26.2857  -12.9471   20.3224 N   0  0  0  0  0  0
  -25.9326  -11.6594   20.5733 N   0  0  0  0  0  0
  -22.0440  -12.8184   22.0448 N   0  0  0  0  0  0
  -25.4079  -15.1956   20.4127 N   0  0  0  0  0  0
  -31.7322  -15.0559   20.1655 O   0  0  0  0  0  0
  -21.6642   -6.8880   21.4241 O   0  0  0  0  0  0
  -22.3469  -14.5506   20.6736 O   0  0  0  0  0  0
  -24.6489  -31.8380   23.1832 C   0  0  0  0  0  0
  -25.9236  -32.4662   23.8241 C   0  0  1  0  0  0
  -27.2157  -27.0780   20.1612 C   0  0  0  0  0  0
  -25.5960  -33.8470   24.2154 N   0  0  0  0  0  0
  -23.4557  -30.4557   21.5296 C   0  0  2  0  0  0
  -24.9058  -28.8720   20.1107 C   0  0  0  0  0  0
  -22.7596  -29.4514   22.4833 C   0  0  0  0  0  0
  -18.0309  -28.1403   22.8470 C   0  0  0  0  0  0
  -24.1494  -36.7242   23.2645 C   0  0  0  0  0  0
  -26.0159  -30.6939   21.3903 C   0  0  0  0  0  0
  -26.0860  -29.2995   20.7322 C   0  0  0  0  0  0
  -27.2408  -28.4207   20.7366 C   0  0  0  0  0  0
  -26.0075  -26.7654   19.4999 C   0  0  0  0  0  0
  -24.8831  -27.6205   19.4777 C   0  0  0  0  0  0
  -23.6859  -29.7818   20.1507 C   0  0  0  0  0  0
  -25.4128  -36.3013   24.0311 C   0  0  1  0  0  0
  -20.5926  -28.3729   23.1220 C   0  0  2  0  0  0
  -20.6792  -26.9424   22.5406 C   0  0  0  0  0  0
  -19.5766  -26.6380   21.5214 C   0  0  0  0  0  0
  -18.1946  -26.7937   22.1622 C   0  0  0  0  0  0
  -19.1568  -28.8884   23.2835 C   0  0  0  0  0  0
  -18.9485  -30.1477   23.8863 C   0  0  0  0  0  0
  -17.6481  -30.6594   24.0556 C   0  0  0  0  0  0
  -25.9083  -34.9390   23.5045 C   0  0  0  0  0  0
  -16.5369  -29.9085   23.6341 C   0  0  0  0  0  0
  -16.7292  -28.6508   23.0353 C   0  0  0  0  0  0
  -26.4534  -31.6554   25.0709 C   0  0  0  0  0  0
  -25.3700  -31.3769   26.1395 C   0  0  0  0  0  0
  -27.0407  -30.2939   24.6340 C   0  0  0  0  0  0
  -27.6053  -32.4330   25.7500 C   0  0  0  0  0  0
  -27.5573  -37.1777   24.8465 C   0  0  0  0  0  0
  -21.4281  -29.3044   22.3584 N   0  0  0  0  0  0
  -26.4284  -37.3733   23.9409 N   0  0  0  0  0  0
  -24.7272  -31.0184   22.0892 N   0  0  0  0  0  0
  -23.4211  -28.8065   23.3009 O   0  0  0  0  0  0
  -28.2528  -26.0581   20.2325 O   0  0  0  0  0  0
  -26.5676  -34.8897   22.4629 O   0  0  0  0  0  0
  -23.5594  -32.1282   23.7016 O   0  0  0  0  0  0
  -31.7630  -19.5429   20.5978 C   0  0  0  0  0  0
  -31.3787  -18.1810   20.5810 C   0  0  0  0  0  0
  -30.8450  -20.6150   20.5032 C   0  0  0  0  0  0
  -29.0865  -18.9427   20.3749 C   0  0  0  0  0  0
  -30.0313  -17.7701   20.4701 C   0  0  0  0  0  0
  -29.4558  -20.4074   20.3816 C   0  0  0  0  0  0
  -27.6122  -18.6107   20.2627 C   0  0  0  0  0  0
  -27.9617  -24.5031   20.1150 C   0  0  0  0  0  0
  -28.9771  -23.1279   20.3339 C   0  0  0  0  0  0
  -29.7340  -16.2365   20.4928 N   0  0  0  0  0  0
  -28.5791  -21.6008   20.2756 O   0  0  0  0  0  0
  -31.4689  -12.8069   19.1879 H   0  0  0  0  0  0
  -30.4461  -11.7021   20.0598 H   0  0  0  0  0  0
  -29.8561  -11.7294   17.6095 H   0  0  0  0  0  0
  -29.5971  -13.4556   17.6754 H   0  0  0  0  0  0
  -27.9690  -11.2735   19.0064 H   0  0  0  0  0  0
  -27.3942  -12.4206   17.8244 H   0  0  0  0  0  0
  -27.5727  -14.2485   19.3837 H   0  0  0  0  0  0
  -28.7721  -12.3592   21.4664 H   0  0  0  0  0  0
  -28.3506  -14.0358   21.7334 H   0  0  0  0  0  0
  -25.2773   -9.5682   22.4763 H   0  0  0  0  0  0
  -24.0007   -7.4635   22.7474 H   0  0  0  0  0  0
  -21.0855   -8.8778   19.8950 H   0  0  0  0  0  0
  -22.3715  -10.9673   19.6167 H   0  0  0  0  0  0
  -21.2009   -7.6149   23.9717 H   0  0  0  0  0  0
  -21.1481   -6.0521   25.9076 H   0  0  0  0  0  0
  -22.0598   -2.7610   23.2844 H   0  0  0  0  0  0
  -22.4070  -11.9848   22.4831 H   0  0  0  0  0  0
  -21.1055  -13.1195   22.2654 H   0  0  0  0  0  0
  -24.6322  -15.8406   20.5162 H   0  0  0  0  0  0
  -26.2366  -15.6324   20.0337 H   0  0  0  0  0  0
  -26.7300  -32.5247   23.0961 H   0  0  0  0  0  0
  -25.0074  -33.9575   25.0280 H   0  0  0  0  0  0
  -22.7614  -31.2832   21.3707 H   0  0  0  0  0  0
  -23.3759  -35.9570   23.3291 H   0  0  0  0  0  0
  -24.3576  -36.8896   22.2063 H   0  0  0  0  0  0
  -23.7248  -37.6430   23.6698 H   0  0  0  0  0  0
  -26.1781  -31.4451   20.6160 H   0  0  0  0  0  0
  -26.8835  -30.7453   22.0368 H   0  0  0  0  0  0
  -28.1379  -28.7438   21.2456 H   0  0  0  0  0  0
  -25.8953  -25.8093   19.0117 H   0  0  0  0  0  0
  -23.9831  -27.2873   18.9789 H   0  0  0  0  0  0
  -23.8282  -30.5546   19.3945 H   0  0  0  0  0  0
  -22.7990  -29.2277   19.8383 H   0  0  0  0  0  0
  -25.1319  -36.1827   25.0802 H   0  0  0  0  0  0
  -21.0014  -28.3326   24.1343 H   0  0  0  0  0  0
  -20.5685  -26.2341   23.3632 H   0  0  0  0  0  0
  -21.6655  -26.7421   22.1204 H   0  0  0  0  0  0
  -19.6929  -25.6285   21.1258 H   0  0  0  0  0  0
  -19.6709  -27.3175   20.6734 H   0  0  0  0  0  0
  -17.4216  -26.6677   21.4024 H   0  0  0  0  0  0
  -18.0338  -26.0094   22.9033 H   0  0  0  0  0  0
  -19.7962  -30.7300   24.2216 H   0  0  0  0  0  0
  -17.5034  -31.6270   24.5164 H   0  0  0  0  0  0
  -15.5366  -30.2973   23.7688 H   0  0  0  0  0  0
  -15.8694  -28.0816   22.7081 H   0  0  0  0  0  0
  -24.5894  -30.7100   25.7718 H   0  0  0  0  0  0
  -24.8873  -32.2960   26.4727 H   0  0  0  0  0  0
  -25.7967  -30.9007   27.0232 H   0  0  0  0  0  0
  -26.3041  -29.6646   24.1332 H   0  0  0  0  0  0
  -27.3981  -29.7259   25.4940 H   0  0  0  0  0  0
  -27.8964  -30.4153   23.9695 H   0  0  0  0  0  0
  -27.2647  -33.3670   26.1980 H   0  0  0  0  0  0
  -28.3916  -32.6824   25.0363 H   0  0  0  0  0  0
  -28.0659  -31.8516   26.5498 H   0  0  0  0  0  0
  -28.2577  -38.0083   24.7507 H   0  0  0  0  0  0
  -28.1081  -36.2611   24.6296 H   0  0  0  0  0  0
  -27.2289  -37.1427   25.8868 H   0  0  0  0  0  0
  -20.9501  -29.8758   21.6755 H   0  0  0  0  0  0
  -26.0144  -38.2798   24.1412 H   0  0  0  0  0  0
  -32.8147  -19.7760   20.6899 H   0  0  0  0  0  0
  -32.1644  -17.4457   20.6696 H   0  0  0  0  0  0
  -31.2389  -21.6206   20.5256 H   0  0  0  0  0  0
  -27.4324  -17.9622   19.4055 H   0  0  0  0  0  0
  -27.0065  -19.5083   20.1369 H   0  0  0  0  0  0
  -27.2709  -18.0967   21.1616 H   0  0  0  0  0  0
  -27.1150  -24.3383   20.7818 H   0  0  0  0  0  0
  -27.5545  -24.3725   19.1129 H   0  0  0  0  0  0
  -29.4490  -23.2554   21.3082 H   0  0  0  0  0  0
  -29.7889  -23.2435   19.6158 H   0  0  0  0  0  0
  -28.7520  -16.0240   20.5770 H   0  0  0  0  0  0
  1 25  1  0  0  0
  1 30  2  0  0  0
  1 80  1  0  0  0
  2  3  1  0  0  0
  2 25  1  0  0  0
  2 82  1  0  0  0
  2 83  1  0  0  0
  3  4  1  0  0  0
  3 84  1  0  0  0
  3 85  1  0  0  0
  4  5  1  0  0  0
  4 86  1  0  0  0
  4 87  1  0  0  0
  5  6  1  0  0  0
  5 26  1  0  0  0
  5 88  1  0  0  0
  6 25  1  0  0  0
  6 89  1  0  0  0
  6 90  1  0  0  0
  7  8  2  0  0  0
  7 26  1  0  0  0
  7 29  1  0  0  0
  8  9  1  0  0  0
  8 22  1  0  0  0
  9 10  1  0  0  0
  9 27  2  0  0  0
 10 11  2  0  0  0
 10 15  1  0  0  0
 11 12  1  0  0  0
 11 91  1  0  0  0
 12 13  2  0  0  0
 12 92  1  0  0  0
 13 14  1  0  0  0
 13 31  1  0  0  0
 14 15  2  0  0  0
 14 93  1  0  0  0
 15 94  1  0  0  0
 16 17  2  0  0  0
 16 21  1  0  0  0
 16 31  1  0  0  0
 17 18  1  0  0  0
 17 95  1  0  0  0
 18 19  2  0  0  0
 18 96  1  0  0  0
 19 20  1  0  0  0
 19 24  1  0  0  0
 20 21  2  0  0  0
 20 97  1  0  0  0
 21 23  1  0  0  0
 22 28  1  0  0  0
 22 32  2  0  0  0
 26 27  1  0  0  0
 28 98  1  0  0  0
 28 99  1  0  0  0
 29100  1  0  0  0
 29101  1  0  0  0
 33 34  1  0  0  0
 33 66  1  0  0  0
 33 70  2  0  0  0
 34 36  1  0  0  0
 34 59  1  0  0  0
 34102  1  0  0  0
 35 44  2  0  0  0
 35 45  1  0  0  0
 35 68  1  0  0  0
 36 56  1  0  0  0
 36103  1  0  0  0
 37 39  1  0  0  0
 37 47  1  0  0  0
 37 66  1  0  0  0
 37104  1  0  0  0
 38 43  2  0  0  0
 38 46  1  0  0  0
 38 47  1  0  0  0
 39 64  1  0  0  0
 39 67  2  0  0  0
 40 52  1  0  0  0
 40 53  2  0  0  0
 40 58  1  0  0  0
 41105  1  0  0  0
 41106  1  0  0  0
 41107  1  0  0  0
 41 48  1  0  0  0
 42 43  1  0  0  0
 42 66  1  0  0  0
 42108  1  0  0  0
 42109  1  0  0  0
 43 44  1  0  0  0
 44110  1  0  0  0
 45 46  2  0  0  0
 45111  1  0  0  0
 46112  1  0  0  0
 47113  1  0  0  0
 47114  1  0  0  0
 48 56  1  0  0  0
 48 65  1  0  0  0
 48115  1  0  0  0
 49 50  1  0  0  0
 49 53  1  0  0  0
 49 64  1  0  0  0
 49116  1  0  0  0
 50 51  1  0  0  0
 50117  1  0  0  0
 50118  1  0  0  0
 51 52  1  0  0  0
 51119  1  0  0  0
 51120  1  0  0  0
 52121  1  0  0  0
 52122  1  0  0  0
 53 54  1  0  0  0
 54 55  2  0  0  0
 54123  1  0  0  0
 55 57  1  0  0  0
 55124  1  0  0  0
 56 69  2  0  0  0
 57 58  2  0  0  0
 57125  1  0  0  0
 58126  1  0  0  0
 59 60  1  0  0  0
 59 61  1  0  0  0
 59 62  1  0  0  0
 60127  1  0  0  0
 60128  1  0  0  0
 60129  1  0  0  0
 61130  1  0  0  0
 61131  1  0  0  0
 61132  1  0  0  0
 62133  1  0  0  0
 62134  1  0  0  0
 62135  1  0  0  0
 63 65  1  0  0  0
 63136  1  0  0  0
 63137  1  0  0  0
 63138  1  0  0  0
 64139  1  0  0  0
 65140  1  0  0  0
 68 78  1  0  0  0
 71 72  2  0  0  0
 71 73  1  0  0  0
 71141  1  0  0  0
 72 75  1  0  0  0
 72142  1  0  0  0
 73 76  2  0  0  0
 73143  1  0  0  0
 74 75  2  0  0  0
 74 76  1  0  0  0
 74 77  1  0  0  0
 75 80  1  0  0  0
 76 81  1  0  0  0
 77144  1  0  0  0
 77145  1  0  0  0
 77146  1  0  0  0
 78 79  1  0  0  0
 78147  1  0  0  0
 78148  1  0  0  0
 79 81  1  0  0  0
 79149  1  0  0  0
 79150  1  0  0  0
 80151  1  0  0  0
M  ISO  4   1 100  68 101  78 101  80 100
M  END
> <chiral flag>
0

> <version>
0

> <s_m_source_file>
/data/baiqing/PycharmProjects/Reinvent-master-3.2/result/LINK_invent/BTK/process_docking_weight1_custom_product_contain_oxygen_bond_distance_aromatic_linkinvent_7_9_3/rearranged_h_0007.sdf

> <i_m_source_file_index>
58

> <r_mmod_Potential_Energy-OPLS-2005>
622.315673828125

> <r_mmod_Stretch_Energy-OPLS-2005>
332.959869384766

> <r_mmod_Bend_Energy-OPLS-2005>
280.256286621094

> <r_mmod_Torsional_Energy-OPLS-2005>
210.364974975586

> <r_mmod_Improper_Torsional_Energy-OPLS-2005>
4.90099191665649

> <r_mmod_Van_der_Waal_Energy-OPLS-2005>
129.751983642578

> <r_mmod_Electrostatic_Energy-OPLS-2005>
-373.522796630859

> <r_mmod_Solvation_Energy-OPLS-2005>
-212.332077026367

> <b_mmod_Minimization_Converged-OPLS-2005>
0

> <r_mmod_RMS_Derivative-OPLS-2005>
0.458518475294113

$$$$
58
                    3D
 Structure written by MMmdl.
163171  0  0  1  0            999 V2000
  -30.7333  -14.4285   20.6007 C   0  0  0  0  0  0
  -30.4170  -12.3004   19.4036 C   0  0  0  0  0  0
  -29.4862  -12.5137   18.1945 C   0  0  0  0  0  0
  -28.0099  -12.3708   18.6159 C   0  0  0  0  0  0
  -27.6633  -13.2029   19.8802 C   0  0  2  0  0  0
  -28.7111  -12.9739   20.9968 C   0  0  0  0  0  0
  -25.2595  -13.8140   20.5669 C   0  0  0  0  0  0
  -24.1859  -13.0419   20.9191 C   0  0  0  0  0  0
  -24.6431  -11.6907   20.8794 C   0  0  0  0  0  0
  -23.9092  -10.4306   21.0451 C   0  0  0  0  0  0
  -24.3642   -9.4198   21.9195 C   0  0  0  0  0  0
  -23.6303   -8.2243   22.0756 C   0  0  0  0  0  0
  -22.4274   -8.0287   21.3554 C   0  0  0  0  0  0
  -21.9926   -9.0272   20.4642 C   0  0  0  0  0  0
  -22.7272  -10.2160   20.3084 C   0  0  0  0  0  0
  -21.6830   -6.0728   22.5265 C   0  0  0  0  0  0
  -21.3990   -6.5628   23.8199 C   0  0  0  0  0  0
  -21.3671   -5.6778   24.9180 C   0  0  0  0  0  0
  -21.6076   -4.3046   24.7223 C   0  0  0  0  0  0
  -21.8810   -3.8134   23.4322 C   0  0  0  0  0  0
  -21.9177   -4.6959   22.3385 C   0  0  0  0  0  0
  -22.7891  -13.5254   21.1873 C   0  0  0  0  0  0
  -22.1666   -4.2148   21.0955 F   0  0  0  0  0  0
  -21.5653   -3.4516   25.7740 F   0  0  0  0  0  0
  -30.0420  -13.2702   20.4416 N   0  0  0  0  0  0
  -26.3046  -12.9307   20.3435 N   0  0  0  0  0  0
  -25.9358  -11.6477   20.5848 N   0  0  0  0  0  0
  -22.0510  -12.8233   22.0429 N   0  0  0  0  0  0
  -25.4296  -15.1834   20.3969 N   0  0  0  0  0  0
  -31.8380  -14.6366   20.0924 O   0  0  0  0  0  0
  -21.6623   -6.8873   21.4227 O   0  0  0  0  0  0
  -22.3586  -14.5579   20.6764 O   0  0  0  0  0  0
  -24.6124  -31.8720   23.2107 C   0  0  0  0  0  0
  -25.9034  -32.4824   23.8394 C   0  0  1  0  0  0
  -27.2297  -27.4721   20.0892 C   0  0  0  0  0  0
  -25.5905  -33.8636   24.2339 N   0  0  0  0  0  0
  -23.3977  -30.4980   21.5487 C   0  0  2  0  0  0
  -24.8426  -28.9745   20.1052 C   0  0  0  0  0  0
  -22.7406  -29.4703   22.4997 C   0  0  0  0  0  0
  -18.0260  -28.1357   22.8493 C   0  0  0  0  0  0
  -24.1487  -36.7332   23.2639 C   0  0  0  0  0  0
  -25.9228  -30.8522   21.3541 C   0  0  0  0  0  0
  -26.0002  -29.4871   20.7068 C   0  0  0  0  0  0
  -27.1984  -28.7411   20.7038 C   0  0  0  0  0  0
  -26.0697  -26.9850   19.4518 C   0  0  0  0  0  0
  -24.8718  -27.7214   19.4700 C   0  0  0  0  0  0
  -23.6002  -29.8340   20.1623 C   0  0  0  0  0  0
  -25.4089  -36.3130   24.0351 C   0  0  1  0  0  0
  -20.5852  -28.3654   23.1334 C   0  0  2  0  0  0
  -20.6761  -26.9378   22.5429 C   0  0  0  0  0  0
  -19.5731  -26.6353   21.5221 C   0  0  0  0  0  0
  -18.1893  -26.7902   22.1623 C   0  0  0  0  0  0
  -19.1510  -28.8824   23.2911 C   0  0  0  0  0  0
  -18.9438  -30.1433   23.8920 C   0  0  0  0  0  0
  -17.6444  -30.6567   24.0558 C   0  0  0  0  0  0
  -25.9048  -34.9508   23.5142 C   0  0  0  0  0  0
  -16.5331  -29.9081   23.6323 C   0  0  0  0  0  0
  -16.7255  -28.6495   23.0354 C   0  0  0  0  0  0
  -26.4459  -31.6571   25.0710 C   0  0  0  0  0  0
  -25.3743  -31.3647   26.1464 C   0  0  0  0  0  0
  -27.0258  -30.3019   24.6030 C   0  0  0  0  0  0
  -27.6061  -32.4263   25.7485 C   0  0  0  0  0  0
  -27.5550  -37.1806   24.8464 C   0  0  0  0  0  0
  -21.4131  -29.3037   22.3775 N   0  0  0  0  0  0
  -26.4259  -37.3817   23.9437 N   0  0  0  0  0  0
  -24.6623  -31.0883   22.0977 N   0  0  0  0  0  0
  -23.4222  -28.8257   23.3005 O   0  0  0  0  0  0
  -28.3780  -26.7198   20.0883 O   0  0  0  0  0  0
  -26.5581  -34.8972   22.4678 O   0  0  0  0  0  0
  -23.5337  -32.1405   23.7564 O   0  0  0  0  0  0
  -28.7698  -17.7522   18.5701 C   0  0  0  0  0  0
  -28.5646  -18.9222   19.3220 C   0  0  0  0  0  0
  -29.2730  -16.5948   19.1907 C   0  0  0  0  0  0
  -29.3585  -17.7716   21.3225 C   0  0  0  0  0  0
  -28.8600  -18.9430   20.7014 C   0  0  0  0  0  0
  -29.5791  -16.5926   20.5725 C   0  0  0  0  0  0
  -27.5310  -21.7361   24.0579 C   0  0  0  0  0  0
  -28.6155  -20.2155   21.5036 C   0  0  0  0  0  0
  -28.4296  -25.7205   21.1159 C   0  0  0  0  0  0
  -27.5385  -24.4977   20.7990 C   0  0  0  0  0  0
  -26.5533  -22.6306   21.8392 C   0  0  0  0  0  0
  -26.7550  -21.4086   22.7634 C   0  0  1  0  0  0
  -30.0817  -15.4254   21.2208 N   0  0  0  0  0  0
  -27.2453  -20.1938   22.0522 N   0  3  0  0  0  0
  -27.7340  -23.4305   21.7289 O   0  0  0  0  0  0
  -31.4610  -12.3883   19.0974 H   0  0  0  0  0  0
  -30.3119  -11.2899   19.7986 H   0  0  0  0  0  0
  -29.7214  -11.7967   17.4041 H   0  0  0  0  0  0
  -29.6526  -13.5038   17.7661 H   0  0  0  0  0  0
  -27.8275  -11.3133   18.8160 H   0  0  0  0  0  0
  -27.3500  -12.6385   17.7899 H   0  0  0  0  0  0
  -27.7043  -14.2528   19.5969 H   0  0  0  0  0  0
  -28.6855  -11.9370   21.3339 H   0  0  0  0  0  0
  -28.4796  -13.5757   21.8788 H   0  0  0  0  0  0
  -25.2795   -9.5654   22.4752 H   0  0  0  0  0  0
  -24.0012   -7.4608   22.7454 H   0  0  0  0  0  0
  -21.0852   -8.8798   19.8931 H   0  0  0  0  0  0
  -22.3752  -10.9689   19.6176 H   0  0  0  0  0  0
  -21.1986   -7.6127   23.9719 H   0  0  0  0  0  0
  -21.1509   -6.0502   25.9084 H   0  0  0  0  0  0
  -22.0606   -2.7588   23.2823 H   0  0  0  0  0  0
  -22.4068  -11.9861   22.4807 H   0  0  0  0  0  0
  -21.1156  -13.1268   22.2685 H   0  0  0  0  0  0
  -24.6700  -15.8477   20.4940 H   0  0  0  0  0  0
  -26.2955  -15.6146   20.1018 H   0  0  0  0  0  0
  -26.7144  -32.5541   23.1217 H   0  0  0  0  0  0
  -25.0166  -33.9793   25.0553 H   0  0  0  0  0  0
  -22.6828  -31.3102   21.4148 H   0  0  0  0  0  0
  -23.3746  -35.9673   23.3314 H   0  0  0  0  0  0
  -24.3593  -36.8908   22.2045 H   0  0  0  0  0  0
  -23.7247  -37.6548   23.6641 H   0  0  0  0  0  0
  -26.0222  -31.6150   20.5796 H   0  0  0  0  0  0
  -26.8178  -30.9111   21.9619 H   0  0  0  0  0  0
  -28.0891  -29.1339   21.1751 H   0  0  0  0  0  0
  -26.0923  -26.0350   18.9378 H   0  0  0  0  0  0
  -23.9885  -27.3210   18.9913 H   0  0  0  0  0  0
  -23.6976  -30.6122   19.4036 H   0  0  0  0  0  0
  -22.7238  -29.2506   19.8707 H   0  0  0  0  0  0
  -25.1255  -36.1974   25.0833 H   0  0  0  0  0  0
  -20.9923  -28.3173   24.1460 H   0  0  0  0  0  0
  -20.5649  -26.2220   23.3591 H   0  0  0  0  0  0
  -21.6623  -26.7408   22.1194 H   0  0  0  0  0  0
  -19.6877  -25.6268   21.1202 H   0  0  0  0  0  0
  -19.6680  -27.3241   20.6809 H   0  0  0  0  0  0
  -17.4165  -26.6676   21.4007 H   0  0  0  0  0  0
  -18.0266  -26.0038   22.9017 H   0  0  0  0  0  0
  -19.7933  -30.7220   24.2287 H   0  0  0  0  0  0
  -17.5028  -31.6244   24.5144 H   0  0  0  0  0  0
  -15.5352  -30.2998   23.7631 H   0  0  0  0  0  0
  -15.8648  -28.0821   22.7079 H   0  0  0  0  0  0
  -24.5954  -30.6946   25.7807 H   0  0  0  0  0  0
  -24.8876  -32.2791   26.4864 H   0  0  0  0  0  0
  -25.8088  -30.8835   27.0231 H   0  0  0  0  0  0
  -26.2745  -29.6814   24.1133 H   0  0  0  0  0  0
  -27.4092  -29.7220   25.4434 H   0  0  0  0  0  0
  -27.8577  -30.4360   23.9120 H   0  0  0  0  0  0
  -27.2694  -33.3581   26.2059 H   0  0  0  0  0  0
  -28.3888  -32.6749   25.0312 H   0  0  0  0  0  0
  -28.0743  -31.8357   26.5377 H   0  0  0  0  0  0
  -28.2595  -38.0080   24.7514 H   0  0  0  0  0  0
  -28.1002  -36.2613   24.6271 H   0  0  0  0  0  0
  -27.2271  -37.1436   25.8866 H   0  0  0  0  0  0
  -20.9261  -29.8774   21.7038 H   0  0  0  0  0  0
  -26.0142  -38.2888   24.1435 H   0  0  0  0  0  0
  -28.5339  -17.7321   17.5169 H   0  0  0  0  0  0
  -28.1755  -19.8033   18.8287 H   0  0  0  0  0  0
  -29.4162  -15.7102   18.5911 H   0  0  0  0  0  0
  -29.5904  -17.7873   22.3769 H   0  0  0  0  0  0
  -27.5261  -20.9016   24.7597 H   0  0  0  0  0  0
  -27.0628  -22.5776   24.5708 H   0  0  0  0  0  0
  -28.5673  -21.9998   23.8585 H   0  0  0  0  0  0
  -28.7549  -21.0776   20.8526 H   0  0  0  0  0  0
  -29.3451  -20.3072   22.3068 H   0  0  0  0  0  0
  -29.4670  -25.4022   21.2164 H   0  0  0  0  0  0
  -28.1545  -26.1511   22.0812 H   0  0  0  0  0  0
  -27.7455  -24.1322   19.7930 H   0  0  0  0  0  0
  -26.4945  -24.8104   20.8161 H   0  0  0  0  0  0
  -25.7616  -23.2581   22.2591 H   0  0  0  0  0  0
  -26.2121  -22.3122   20.8501 H   0  0  0  0  0  0
  -25.7490  -21.1220   23.0740 H   0  0  0  0  0  0
  -30.1920  -15.4588   22.2266 H   0  0  0  0  0  0
  -27.1871  -19.4034   22.6749 H   0  0  0  0  0  0
  -26.6246  -19.9992   21.2820 H   0  0  0  0  0  0
  1 25  1  0  0  0
  1 30  2  0  0  0
  1 83  1  0  0  0
  2  3  1  0  0  0
  2 25  1  0  0  0
  2 86  1  0  0  0
  2 87  1  0  0  0
  3  4  1  0  0  0
  3 88  1  0  0  0
  3 89  1  0  0  0
  4  5  1  0  0  0
  4 90  1  0  0  0
  4 91  1  0  0  0
  5  6  1  0  0  0
  5 26  1  0  0  0
  5 92  1  0  0  0
  6 25  1  0  0  0
  6 93  1  0  0  0
  6 94  1  0  0  0
  7  8  2  0  0  0
  7 26  1  0  0  0
  7 29  1  0  0  0
  8  9  1  0  0  0
  8 22  1  0  0  0
  9 10  1  0  0  0
  9 27  2  0  0  0
 10 11  2  0  0  0
 10 15  1  0  0  0
 11 12  1  0  0  0
 11 95  1  0  0  0
 12 13  2  0  0  0
 12 96  1  0  0  0
 13 14  1  0  0  0
 13 31  1  0  0  0
 14 15  2  0  0  0
 14 97  1  0  0  0
 15 98  1  0  0  0
 16 17  2  0  0  0
 16 21  1  0  0  0
 16 31  1  0  0  0
 17 18  1  0  0  0
 17 99  1  0  0  0
 18 19  2  0  0  0
 18100  1  0  0  0
 19 20  1  0  0  0
 19 24  1  0  0  0
 20 21  2  0  0  0
 20101  1  0  0  0
 21 23  1  0  0  0
 22 28  1  0  0  0
 22 32  2  0  0  0
 26 27  1  0  0  0
 28102  1  0  0  0
 28103  1  0  0  0
 29104  1  0  0  0
 29105  1  0  0  0
 33 34  1  0  0  0
 33 66  1  0  0  0
 33 70  2  0  0  0
 34 36  1  0  0  0
 34 59  1  0  0  0
 34106  1  0  0  0
 35 44  2  0  0  0
 35 45  1  0  0  0
 35 68  1  0  0  0
 36 56  1  0  0  0
 36107  1  0  0  0
 37 39  1  0  0  0
 37 47  1  0  0  0
 37 66  1  0  0  0
 37108  1  0  0  0
 38 43  2  0  0  0
 38 46  1  0  0  0
 38 47  1  0  0  0
 39 64  1  0  0  0
 39 67  2  0  0  0
 40 52  1  0  0  0
 40 53  2  0  0  0
 40 58  1  0  0  0
 41109  1  0  0  0
 41110  1  0  0  0
 41111  1  0  0  0
 41 48  1  0  0  0
 42 43  1  0  0  0
 42 66  1  0  0  0
 42112  1  0  0  0
 42113  1  0  0  0
 43 44  1  0  0  0
 44114  1  0  0  0
 45 46  2  0  0  0
 45115  1  0  0  0
 46116  1  0  0  0
 47117  1  0  0  0
 47118  1  0  0  0
 48 56  1  0  0  0
 48 65  1  0  0  0
 48119  1  0  0  0
 49 50  1  0  0  0
 49 53  1  0  0  0
 49 64  1  0  0  0
 49120  1  0  0  0
 50 51  1  0  0  0
 50121  1  0  0  0
 50122  1  0  0  0
 51 52  1  0  0  0
 51123  1  0  0  0
 51124  1  0  0  0
 52125  1  0  0  0
 52126  1  0  0  0
 53 54  1  0  0  0
 54 55  2  0  0  0
 54127  1  0  0  0
 55 57  1  0  0  0
 55128  1  0  0  0
 56 69  2  0  0  0
 57 58  2  0  0  0
 57129  1  0  0  0
 58130  1  0  0  0
 59 60  1  0  0  0
 59 61  1  0  0  0
 59 62  1  0  0  0
 60131  1  0  0  0
 60132  1  0  0  0
 60133  1  0  0  0
 61134  1  0  0  0
 61135  1  0  0  0
 61136  1  0  0  0
 62137  1  0  0  0
 62138  1  0  0  0
 62139  1  0  0  0
 63 65  1  0  0  0
 63140  1  0  0  0
 63141  1  0  0  0
 63142  1  0  0  0
 64143  1  0  0  0
 65144  1  0  0  0
 68 79  1  0  0  0
 71 72  2  0  0  0
 71 73  1  0  0  0
 71145  1  0  0  0
 72 75  1  0  0  0
 72146  1  0  0  0
 73 76  2  0  0  0
 73147  1  0  0  0
 74 75  2  0  0  0
 74 76  1  0  0  0
 74148  1  0  0  0
 75 78  1  0  0  0
 76 83  1  0  0  0
 77149  1  0  0  0
 77150  1  0  0  0
 77151  1  0  0  0
 77 82  1  0  0  0
 78 84  1  0  0  0
 78152  1  0  0  0
 78153  1  0  0  0
 79 80  1  0  0  0
 79154  1  0  0  0
 79155  1  0  0  0
 80 85  1  0  0  0
 80156  1  0  0  0
 80157  1  0  0  0
 81 82  1  0  0  0
 81 85  1  0  0  0
 81158  1  0  0  0
 81159  1  0  0  0
 82 84  1  0  0  0
 82160  1  0  0  0
 83161  1  0  0  0
 84162  1  0  0  0
 84163  1  0  0  0
M  CHG  1  84   1
M  ISO  4   1 100  68 101  79 101  83 100
M  END
> <chiral flag>
0

> <version>
0

> <s_m_source_file>
/data/baiqing/PycharmProjects/Reinvent-master-3.2/result/LINK_invent/BTK/process_docking_weight1_custom_product_contain_oxygen_bond_distance_aromatic_linkinvent_7_9_3/rearranged_h_0007.sdf

> <i_m_source_file_index>
59

> <r_mmod_Potential_Energy-OPLS-2005>
-153.054153442383

> <r_mmod_Stretch_Energy-OPLS-2005>
34.9452171325684

> <r_mmod_Bend_Energy-OPLS-2005>
93.9359893798828

> <r_mmod_Torsional_Energy-OPLS-2005>
292.683471679688

> <r_mmod_Improper_Torsional_Energy-OPLS-2005>
3.99981808662415

> <r_mmod_Van_der_Waal_Energy-OPLS-2005>
145.650970458984

> <r_mmod_Electrostatic_Energy-OPLS-2005>
-280.227569580078

> <r_mmod_Solvation_Energy-OPLS-2005>
-453.616455078125

> <b_mmod_Minimization_Converged-OPLS-2005>
0

> <r_mmod_RMS_Derivative-OPLS-2005>
4.90173578262329

$$$$
59
                    3D
 Structure written by MMmdl.
162171  0  0  1  0            999 V2000
  -30.5424  -14.9440   20.4179 C   0  0  0  0  0  0
  -30.4362  -12.5868   19.4925 C   0  0  0  0  0  0
  -29.5173  -12.5280   18.2509 C   0  0  0  0  0  0
  -28.0514  -12.3135   18.6722 C   0  0  0  0  0  0
  -27.6272  -13.2470   19.8364 C   0  0  2  0  0  0
  -28.6701  -13.2783   20.9722 C   0  0  0  0  0  0
  -25.2451  -13.8216   20.5706 C   0  0  0  0  0  0
  -24.1771  -13.0437   20.9230 C   0  0  0  0  0  0
  -24.6393  -11.6921   20.8756 C   0  0  0  0  0  0
  -23.9080  -10.4290   21.0412 C   0  0  0  0  0  0
  -24.3631   -9.4203   21.9189 C   0  0  0  0  0  0
  -23.6296   -8.2242   22.0757 C   0  0  0  0  0  0
  -22.4275   -8.0289   21.3548 C   0  0  0  0  0  0
  -21.9918   -9.0261   20.4647 C   0  0  0  0  0  0
  -22.7253  -10.2134   20.3060 C   0  0  0  0  0  0
  -21.6853   -6.0738   22.5275 C   0  0  0  0  0  0
  -21.4013   -6.5639   23.8212 C   0  0  0  0  0  0
  -21.3659   -5.6794   24.9173 C   0  0  0  0  0  0
  -21.6047   -4.3056   24.7224 C   0  0  0  0  0  0
  -21.8819   -3.8149   23.4345 C   0  0  0  0  0  0
  -21.9191   -4.6964   22.3401 C   0  0  0  0  0  0
  -22.7791  -13.5206   21.1891 C   0  0  0  0  0  0
  -22.1662   -4.2154   21.0978 F   0  0  0  0  0  0
  -21.5631   -3.4543   25.7738 F   0  0  0  0  0  0
  -29.9422  -13.6882   20.3667 N   0  0  0  0  0  0
  -26.2871  -12.9445   20.3241 N   0  0  0  0  0  0
  -25.9323  -11.6575   20.5734 N   0  0  0  0  0  0
  -22.0450  -12.8186   22.0443 N   0  0  0  0  0  0
  -25.4117  -15.1945   20.4113 N   0  0  0  0  0  0
  -31.7526  -14.9985   20.1769 O   0  0  0  0  0  0
  -21.6643   -6.8881   21.4240 O   0  0  0  0  0  0
  -22.3474  -14.5515   20.6747 O   0  0  0  0  0  0
  -24.6429  -31.8442   23.1868 C   0  0  0  0  0  0
  -25.9200  -32.4693   23.8262 C   0  0  1  0  0  0
  -27.2175  -27.1384   20.1630 C   0  0  0  0  0  0
  -25.5951  -33.8499   24.2184 N   0  0  0  0  0  0
  -23.4458  -30.4618   21.5327 C   0  0  2  0  0  0
  -24.8950  -28.8791   20.1201 C   0  0  0  0  0  0
  -22.7559  -29.4550   22.4872 C   0  0  0  0  0  0
  -18.0302  -28.1398   22.8477 C   0  0  0  0  0  0
  -24.1489  -36.7255   23.2641 C   0  0  0  0  0  0
  -26.0003  -30.7194   21.3828 C   0  0  0  0  0  0
  -26.0732  -29.3271   20.7325 C   0  0  0  0  0  0
  -27.2397  -28.4752   20.7298 C   0  0  0  0  0  0
  -26.0135  -26.7794   19.5261 C   0  0  0  0  0  0
  -24.8767  -27.6180   19.5027 C   0  0  0  0  0  0
  -23.6730  -29.7840   20.1551 C   0  0  0  0  0  0
  -25.4123  -36.3030   24.0313 C   0  0  1  0  0  0
  -20.5912  -28.3723   23.1241 C   0  0  2  0  0  0
  -20.6788  -26.9428   22.5407 C   0  0  0  0  0  0
  -19.5764  -26.6385   21.5213 C   0  0  0  0  0  0
  -18.1943  -26.7936   22.1621 C   0  0  0  0  0  0
  -19.1559  -28.8881   23.2849 C   0  0  0  0  0  0
  -18.9476  -30.1476   23.8876 C   0  0  0  0  0  0
  -17.6475  -30.6593   24.0562 C   0  0  0  0  0  0
  -25.9076  -34.9406   23.5060 C   0  0  0  0  0  0
  -16.5366  -29.9090   23.6334 C   0  0  0  0  0  0
  -16.7288  -28.6505   23.0352 C   0  0  0  0  0  0
  -26.4527  -31.6562   25.0705 C   0  0  0  0  0  0
  -25.3710  -31.3754   26.1400 C   0  0  0  0  0  0
  -27.0392  -30.2956   24.6283 C   0  0  0  0  0  0
  -27.6053  -32.4335   25.7496 C   0  0  0  0  0  0
  -27.5574  -37.1782   24.8465 C   0  0  0  0  0  0
  -21.4252  -29.3051   22.3615 N   0  0  0  0  0  0
  -26.4285  -37.3746   23.9408 N   0  0  0  0  0  0
  -24.7162  -31.0303   22.0894 N   0  0  0  0  0  0
  -23.4202  -28.8101   23.3024 O   0  0  0  0  0  0
  -28.2920  -26.1833   20.1282 O   0  0  0  0  0  0
  -26.5664  -34.8903   22.4638 O   0  0  0  0  0  0
  -23.5550  -32.1317   23.7093 O   0  0  0  0  0  0
  -30.6523  -21.7000   18.0830 C   0  0  0  0  0  0
  -30.0996  -20.3086   18.3718 C   0  0  0  0  0  0
  -29.3645  -19.0701   20.1905 C   0  0  2  0  0  0
  -30.5011  -22.6507   19.2881 C   0  0  2  0  0  0
  -29.5434  -20.6588   20.7436 C   0  0  1  0  0  0
  -32.8639  -23.7054   19.2718 C   0  0  0  0  0  0
  -30.1954  -17.6611   20.5949 C   0  0  0  0  0  0
  -31.8280  -22.8775   20.0526 C   0  0  0  0  0  0
  -28.1916  -23.1801   20.1621 C   0  0  0  0  0  0
  -28.2197  -24.7666   20.7679 C   0  0  0  0  0  0
  -30.4051  -19.9692   19.7622 N   0  0  0  0  0  0
  -29.7731  -16.1366   20.5350 N   0  0  0  0  0  0
  -29.4236  -22.1924   20.2190 N   0  3  2  0  0  0
  -31.4701  -12.7439   19.1807 H   0  0  0  0  0  0
  -30.4279  -11.6359   20.0278 H   0  0  0  0  0  0
  -29.8358  -11.7304   17.5782 H   0  0  0  0  0  0
  -29.6049  -13.4581   17.6865 H   0  0  0  0  0  0
  -27.9481  -11.2721   18.9799 H   0  0  0  0  0  0
  -27.3883  -12.4462   17.8173 H   0  0  0  0  0  0
  -27.5898  -14.2480   19.4072 H   0  0  0  0  0  0
  -28.7578  -12.3051   21.4571 H   0  0  0  0  0  0
  -28.3723  -13.9863   21.7474 H   0  0  0  0  0  0
  -25.2775   -9.5685   22.4764 H   0  0  0  0  0  0
  -24.0007   -7.4635   22.7476 H   0  0  0  0  0  0
  -21.0852   -8.8778   19.8948 H   0  0  0  0  0  0
  -22.3712  -10.9675   19.6171 H   0  0  0  0  0  0
  -21.2002   -7.6147   23.9714 H   0  0  0  0  0  0
  -21.1483   -6.0526   25.9078 H   0  0  0  0  0  0
  -22.0597   -2.7612   23.2843 H   0  0  0  0  0  0
  -22.4077  -11.9843   22.4808 H   0  0  0  0  0  0
  -21.1070  -13.1209   22.2666 H   0  0  0  0  0  0
  -24.6404  -15.8445   20.5177 H   0  0  0  0  0  0
  -26.2486  -15.6334   20.0510 H   0  0  0  0  0  0
  -26.7266  -32.5305   23.0992 H   0  0  0  0  0  0
  -25.0074  -33.9621   25.0314 H   0  0  0  0  0  0
  -22.7484  -31.2872   21.3751 H   0  0  0  0  0  0
  -23.3756  -35.9582   23.3291 H   0  0  0  0  0  0
  -24.3572  -36.8902   22.2059 H   0  0  0  0  0  0
  -23.7242  -37.6444   23.6693 H   0  0  0  0  0  0
  -26.1524  -31.4701   20.6064 H   0  0  0  0  0  0
  -26.8717  -30.7754   22.0231 H   0  0  0  0  0  0
  -28.1466  -28.8229   21.2052 H   0  0  0  0  0  0
  -25.9424  -25.8123   19.0478 H   0  0  0  0  0  0
  -23.9767  -27.2705   19.0143 H   0  0  0  0  0  0
  -23.8123  -30.5545   19.3959 H   0  0  0  0  0  0
  -22.7872  -29.2267   19.8451 H   0  0  0  0  0  0
  -25.1311  -36.1854   25.0806 H   0  0  0  0  0  0
  -21.0008  -28.3318   24.1363 H   0  0  0  0  0  0
  -20.5684  -26.2342   23.3629 H   0  0  0  0  0  0
  -21.6653  -26.7438   22.1206 H   0  0  0  0  0  0
  -19.6928  -25.6291   21.1258 H   0  0  0  0  0  0
  -19.6697  -27.3183   20.6735 H   0  0  0  0  0  0
  -17.4213  -26.6682   21.4023 H   0  0  0  0  0  0
  -18.0338  -26.0081   22.9023 H   0  0  0  0  0  0
  -19.7951  -30.7295   24.2237 H   0  0  0  0  0  0
  -17.5026  -31.6270   24.5170 H   0  0  0  0  0  0
  -15.5364  -30.2984   23.7672 H   0  0  0  0  0  0
  -15.8685  -28.0821   22.7081 H   0  0  0  0  0  0
  -24.5903  -30.7088   25.7725 H   0  0  0  0  0  0
  -24.8885  -32.2937   26.4758 H   0  0  0  0  0  0
  -25.7992  -30.8978   27.0221 H   0  0  0  0  0  0
  -26.3009  -29.6677   24.1284 H   0  0  0  0  0  0
  -27.4001  -29.7261   25.4859 H   0  0  0  0  0  0
  -27.8916  -30.4191   23.9599 H   0  0  0  0  0  0
  -27.2640  -33.3657   26.2006 H   0  0  0  0  0  0
  -28.3898  -32.6857   25.0350 H   0  0  0  0  0  0
  -28.0678  -31.8503   26.5468 H   0  0  0  0  0  0
  -28.2581  -38.0086   24.7510 H   0  0  0  0  0  0
  -28.1078  -36.2616   24.6293 H   0  0  0  0  0  0
  -27.2291  -37.1430   25.8866 H   0  0  0  0  0  0
  -20.9474  -29.8759   21.6782 H   0  0  0  0  0  0
  -26.0148  -38.2811   24.1414 H   0  0  0  0  0  0
  -30.1244  -22.1104   17.2210 H   0  0  0  0  0  0
  -31.6941  -21.6197   17.7756 H   0  0  0  0  0  0
  -30.5309  -19.5715   17.6923 H   0  0  0  0  0  0
  -29.0255  -20.3264   18.1706 H   0  0  0  0  0  0
  -28.4924  -18.8913   19.5626 H   0  0  0  0  0  0
  -30.2186  -23.6275   18.8906 H   0  0  0  0  0  0
  -29.8858  -20.7164   21.7750 H   0  0  0  0  0  0
  -33.7655  -23.8533   19.8663 H   0  0  0  0  0  0
  -32.4738  -24.6916   19.0175 H   0  0  0  0  0  0
  -33.1672  -23.2198   18.3448 H   0  0  0  0  0  0
  -30.5323  -17.8116   21.6213 H   0  0  0  0  0  0
  -31.1207  -17.6788   20.0163 H   0  0  0  0  0  0
  -32.2693  -21.9207   20.3353 H   0  0  0  0  0  0
  -31.6234  -23.4032   20.9860 H   0  0  0  0  0  0
  -27.8024  -23.1960   19.1444 H   0  0  0  0  0  0
  -27.4200  -22.6631   20.7326 H   0  0  0  0  0  0
  -29.0084  -24.7798   21.5198 H   0  0  0  0  0  0
  -27.3146  -24.8264   21.3733 H   0  0  0  0  0  0
  -28.7843  -15.9733   20.6514 H   0  0  0  0  0  0
  -29.8014  -22.5726   21.0742 H   0  0  0  0  0  0
  1 25  1  0  0  0
  1 30  2  0  0  0
  1 82  1  0  0  0
  2  3  1  0  0  0
  2 25  1  0  0  0
  2 84  1  0  0  0
  2 85  1  0  0  0
  3  4  1  0  0  0
  3 86  1  0  0  0
  3 87  1  0  0  0
  4  5  1  0  0  0
  4 88  1  0  0  0
  4 89  1  0  0  0
  5  6  1  0  0  0
  5 26  1  0  0  0
  5 90  1  0  0  0
  6 25  1  0  0  0
  6 91  1  0  0  0
  6 92  1  0  0  0
  7  8  2  0  0  0
  7 26  1  0  0  0
  7 29  1  0  0  0
  8  9  1  0  0  0
  8 22  1  0  0  0
  9 10  1  0  0  0
  9 27  2  0  0  0
 10 11  2  0  0  0
 10 15  1  0  0  0
 11 12  1  0  0  0
 11 93  1  0  0  0
 12 13  2  0  0  0
 12 94  1  0  0  0
 13 14  1  0  0  0
 13 31  1  0  0  0
 14 15  2  0  0  0
 14 95  1  0  0  0
 15 96  1  0  0  0
 16 17  2  0  0  0
 16 21  1  0  0  0
 16 31  1  0  0  0
 17 18  1  0  0  0
 17 97  1  0  0  0
 18 19  2  0  0  0
 18 98  1  0  0  0
 19 20  1  0  0  0
 19 24  1  0  0  0
 20 21  2  0  0  0
 20 99  1  0  0  0
 21 23  1  0  0  0
 22 28  1  0  0  0
 22 32  2  0  0  0
 26 27  1  0  0  0
 28100  1  0  0  0
 28101  1  0  0  0
 29102  1  0  0  0
 29103  1  0  0  0
 33 34  1  0  0  0
 33 66  1  0  0  0
 33 70  2  0  0  0
 34 36  1  0  0  0
 34 59  1  0  0  0
 34104  1  0  0  0
 35 44  2  0  0  0
 35 45  1  0  0  0
 35 68  1  0  0  0
 36 56  1  0  0  0
 36105  1  0  0  0
 37 39  1  0  0  0
 37 47  1  0  0  0
 37 66  1  0  0  0
 37106  1  0  0  0
 38 43  2  0  0  0
 38 46  1  0  0  0
 38 47  1  0  0  0
 39 64  1  0  0  0
 39 67  2  0  0  0
 40 52  1  0  0  0
 40 53  2  0  0  0
 40 58  1  0  0  0
 41107  1  0  0  0
 41108  1  0  0  0
 41109  1  0  0  0
 41 48  1  0  0  0
 42 43  1  0  0  0
 42 66  1  0  0  0
 42110  1  0  0  0
 42111  1  0  0  0
 43 44  1  0  0  0
 44112  1  0  0  0
 45 46  2  0  0  0
 45113  1  0  0  0
 46114  1  0  0  0
 47115  1  0  0  0
 47116  1  0  0  0
 48 56  1  0  0  0
 48 65  1  0  0  0
 48117  1  0  0  0
 49 50  1  0  0  0
 49 53  1  0  0  0
 49 64  1  0  0  0
 49118  1  0  0  0
 50 51  1  0  0  0
 50119  1  0  0  0
 50120  1  0  0  0
 51 52  1  0  0  0
 51121  1  0  0  0
 51122  1  0  0  0
 52123  1  0  0  0
 52124  1  0  0  0
 53 54  1  0  0  0
 54 55  2  0  0  0
 54125  1  0  0  0
 55 57  1  0  0  0
 55126  1  0  0  0
 56 69  2  0  0  0
 57 58  2  0  0  0
 57127  1  0  0  0
 58128  1  0  0  0
 59 60  1  0  0  0
 59 61  1  0  0  0
 59 62  1  0  0  0
 60129  1  0  0  0
 60130  1  0  0  0
 60131  1  0  0  0
 61132  1  0  0  0
 61133  1  0  0  0
 61134  1  0  0  0
 62135  1  0  0  0
 62136  1  0  0  0
 62137  1  0  0  0
 63 65  1  0  0  0
 63138  1  0  0  0
 63139  1  0  0  0
 63140  1  0  0  0
 64141  1  0  0  0
 65142  1  0  0  0
 68 80  1  0  0  0
 71 72  1  0  0  0
 71 74  1  0  0  0
 71143  1  0  0  0
 71144  1  0  0  0
 72145  1  0  0  0
 72146  1  0  0  0
 72 81  1  0  0  0
 73 75  1  0  0  0
 73 77  1  0  0  0
 73 81  1  0  0  0
 73147  1  0  0  0
 74 78  1  0  0  0
 74 83  1  0  0  0
 74148  1  0  0  0
 75 81  1  0  0  0
 75 83  1  0  0  0
 75149  1  0  0  0
 76 78  1  0  0  0
 76150  1  0  0  0
 76151  1  0  0  0
 76152  1  0  0  0
 77 82  1  0  0  0
 77153  1  0  0  0
 77154  1  0  0  0
 78155  1  0  0  0
 78156  1  0  0  0
 79 80  1  0  0  0
 79157  1  0  0  0
 79158  1  0  0  0
 79 83  1  0  0  0
 80159  1  0  0  0
 80160  1  0  0  0
 82161  1  0  0  0
 83162  1  0  0  0
M  CHG  1  83   1
M  ISO  4   1 100  68 101  80 101  82 100
M  END
> <chiral flag>
0

> <version>
0

> <s_m_source_file>
/data/baiqing/PycharmProjects/Reinvent-master-3.2/result/LINK_invent/BTK/process_docking_weight1_custom_product_contain_oxygen_bond_distance_aromatic_linkinvent_7_9_3/rearranged_h_0007.sdf

> <i_m_source_file_index>
60

> <r_mmod_Potential_Energy-OPLS-2005>
621.153747558594

> <r_mmod_Stretch_Energy-OPLS-2005>
291.367095947266

> <r_mmod_Bend_Energy-OPLS-2005>
407.776214599609

> <r_mmod_Torsional_Energy-OPLS-2005>
340.753875732422

> <r_mmod_Improper_Torsional_Energy-OPLS-2005>
4.28905248641968

> <r_mmod_Van_der_Waal_Energy-OPLS-2005>
134.663528442383

> <r_mmod_Electrostatic_Energy-OPLS-2005>
-294.483612060547

> <r_mmod_Solvation_Energy-OPLS-2005>
-448.378051757812

> <b_mmod_Minimization_Converged-OPLS-2005>
0

> <r_mmod_RMS_Derivative-OPLS-2005>
1.11890387535095

$$$$
60
                    3D
 Structure written by MMmdl.
146154  0  0  1  0            999 V2000
  -30.4141  -15.2383   20.3767 C   0  0  0  0  0  0
  -30.4476  -12.7863   19.5248 C   0  0  0  0  0  0
  -29.5384  -12.5770   18.2862 C   0  0  0  0  0  0
  -28.0833  -12.3059   18.7098 C   0  0  0  0  0  0
  -27.6167  -13.2702   19.8287 C   0  0  2  0  0  0
  -28.6519  -13.4110   20.9650 C   0  0  0  0  0  0
  -25.2403  -13.8236   20.5735 C   0  0  0  0  0  0
  -24.1749  -13.0429   20.9243 C   0  0  0  0  0  0
  -24.6401  -11.6926   20.8753 C   0  0  0  0  0  0
  -23.9093  -10.4289   21.0403 C   0  0  0  0  0  0
  -24.3636   -9.4204   21.9183 C   0  0  0  0  0  0
  -23.6303   -8.2243   22.0754 C   0  0  0  0  0  0
  -22.4284   -8.0283   21.3545 C   0  0  0  0  0  0
  -21.9926   -9.0257   20.4645 C   0  0  0  0  0  0
  -22.7263  -10.2132   20.3053 C   0  0  0  0  0  0
  -21.6856   -6.0738   22.5279 C   0  0  0  0  0  0
  -21.4016   -6.5641   23.8212 C   0  0  0  0  0  0
  -21.3660   -5.6793   24.9174 C   0  0  0  0  0  0
  -21.6044   -4.3056   24.7224 C   0  0  0  0  0  0
  -21.8819   -3.8148   23.4345 C   0  0  0  0  0  0
  -21.9193   -4.6965   22.3402 C   0  0  0  0  0  0
  -22.7767  -13.5186   21.1897 C   0  0  0  0  0  0
  -22.1662   -4.2151   21.0980 F   0  0  0  0  0  0
  -21.5628   -3.4539   25.7737 F   0  0  0  0  0  0
  -29.8899  -13.9169   20.3498 N   0  0  0  0  0  0
  -26.2836  -12.9506   20.3225 N   0  0  0  0  0  0
  -25.9339  -11.6613   20.5721 N   0  0  0  0  0  0
  -22.0429  -12.8167   22.0454 N   0  0  0  0  0  0
  -25.4012  -15.1972   20.4186 N   0  0  0  0  0  0
  -31.6291  -15.2913   20.1345 O   0  0  0  0  0  0
  -21.6644   -6.8883   21.4242 O   0  0  0  0  0  0
  -22.3441  -14.5487   20.6743 O   0  0  0  0  0  0
  -24.6601  -31.8250   23.1715 C   0  0  0  0  0  0
  -25.9293  -32.4593   23.8173 C   0  0  1  0  0  0
  -27.2230  -26.9436   20.1891 C   0  0  0  0  0  0
  -25.5969  -33.8408   24.2080 N   0  0  0  0  0  0
  -23.4746  -30.4354   21.5197 C   0  0  2  0  0  0
  -24.9288  -28.8202   20.1157 C   0  0  0  0  0  0
  -22.7653  -29.4445   22.4789 C   0  0  0  0  0  0
  -18.0320  -28.1408   22.8468 C   0  0  0  0  0  0
  -24.1495  -36.7210   23.2650 C   0  0  0  0  0  0
  -26.0413  -30.6343   21.4018 C   0  0  0  0  0  0
  -26.1087  -29.2226   20.7538 C   0  0  0  0  0  0
  -27.2478  -28.3022   20.7716 C   0  0  0  0  0  0
  -26.0182  -26.6895   19.4978 C   0  0  0  0  0  0
  -24.9063  -27.5722   19.4703 C   0  0  0  0  0  0
  -23.7147  -29.7476   20.1469 C   0  0  0  0  0  0
  -25.4137  -36.2972   24.0300 C   0  0  1  0  0  0
  -20.5942  -28.3749   23.1195 C   0  0  2  0  0  0
  -20.6796  -26.9433   22.5405 C   0  0  0  0  0  0
  -19.5771  -26.6378   21.5215 C   0  0  0  0  0  0
  -18.1952  -26.7942   22.1624 C   0  0  0  0  0  0
  -19.1581  -28.8900   23.2817 C   0  0  0  0  0  0
  -18.9494  -30.1490   23.8853 C   0  0  0  0  0  0
  -17.6487  -30.6599   24.0556 C   0  0  0  0  0  0
  -25.9095  -34.9353   23.5011 C   0  0  0  0  0  0
  -16.5377  -29.9087   23.6344 C   0  0  0  0  0  0
  -16.7303  -28.6507   23.0363 C   0  0  0  0  0  0
  -26.4554  -31.6536   25.0697 C   0  0  0  0  0  0
  -25.3685  -31.3785   26.1356 C   0  0  0  0  0  0
  -27.0452  -30.2905   24.6423 C   0  0  0  0  0  0
  -27.6046  -32.4346   25.7498 C   0  0  0  0  0  0
  -27.5562  -37.1776   24.8477 C   0  0  0  0  0  0
  -21.4325  -29.3039   22.3541 N   0  0  0  0  0  0
  -26.4290  -37.3698   23.9391 N   0  0  0  0  0  0
  -24.7462  -30.9924   22.0845 N   0  0  0  0  0  0
  -23.4208  -28.8022   23.3030 O   0  0  0  0  0  0
  -28.2588  -25.8753   20.2132 O   0  0  0  0  0  0
  -26.5706  -34.8884   22.4607 O   0  0  0  0  0  0
  -23.5676  -32.1217   23.6817 O   0  0  0  0  0  0
  -30.3098  -20.5425   20.1147 C   0  0  0  0  0  0
  -30.5134  -19.0661   20.1582 C   0  0  0  0  0  0
  -28.0777  -20.2989   20.5687 C   0  0  0  0  0  0
  -29.0830  -21.3222   20.3123 C   0  0  0  0  0  0
  -29.5037  -18.0518   20.4172 C   0  0  0  0  0  0
  -28.2693  -18.8186   20.6129 C   0  0  0  0  0  0
  -29.0281  -23.0795   20.2941 C   0  0  0  0  0  0
  -29.5594  -16.4354   20.4991 N   0  0  0  0  0  0
  -27.8761  -24.2245   20.2657 N   0  0  0  0  0  0
  -27.1629  -18.0803   20.8693 F   0  0  0  0  0  0
  -31.4654  -12.9999   19.1957 H   0  0  0  0  0  0
  -30.5162  -11.8716   20.1158 H   0  0  0  0  0  0
  -29.9115  -11.7548   17.6742 H   0  0  0  0  0  0
  -29.5737  -13.4680   17.6574 H   0  0  0  0  0  0
  -28.0305  -11.2775   19.0689 H   0  0  0  0  0  0
  -27.4163  -12.3643   17.8489 H   0  0  0  0  0  0
  -27.5409  -14.2455   19.3465 H   0  0  0  0  0  0
  -28.8112  -12.4624   21.4798 H   0  0  0  0  0  0
  -28.2973  -14.1158   21.7185 H   0  0  0  0  0  0
  -25.2778   -9.5680   22.4763 H   0  0  0  0  0  0
  -24.0007   -7.4635   22.7477 H   0  0  0  0  0  0
  -21.0856   -8.8781   19.8951 H   0  0  0  0  0  0
  -22.3722  -10.9672   19.6164 H   0  0  0  0  0  0
  -21.2010   -7.6149   23.9716 H   0  0  0  0  0  0
  -21.1482   -6.0523   25.9077 H   0  0  0  0  0  0
  -22.0597   -2.7610   23.2845 H   0  0  0  0  0  0
  -22.4062  -11.9833   22.4839 H   0  0  0  0  0  0
  -21.1044  -13.1176   22.2669 H   0  0  0  0  0  0
  -24.6313  -15.8433   20.5528 H   0  0  0  0  0  0
  -26.2425  -15.6565   20.0974 H   0  0  0  0  0  0
  -26.7360  -32.5141   23.0886 H   0  0  0  0  0  0
  -25.0068  -33.9489   25.0198 H   0  0  0  0  0  0
  -22.7869  -31.2661   21.3478 H   0  0  0  0  0  0
  -23.3752  -35.9549   23.3329 H   0  0  0  0  0  0
  -24.3557  -36.8838   22.2060 H   0  0  0  0  0  0
  -23.7271  -37.6414   23.6694 H   0  0  0  0  0  0
  -26.2186  -31.3725   20.6186 H   0  0  0  0  0  0
  -26.9026  -30.6945   22.0550 H   0  0  0  0  0  0
  -28.1452  -28.6100   21.2895 H   0  0  0  0  0  0
  -25.9133  -25.7375   18.9970 H   0  0  0  0  0  0
  -24.0111  -27.2589   18.9510 H   0  0  0  0  0  0
  -23.8697  -30.5141   19.3867 H   0  0  0  0  0  0
  -22.8250  -29.2003   19.8306 H   0  0  0  0  0  0
  -25.1342  -36.1777   25.0794 H   0  0  0  0  0  0
  -21.0030  -28.3358   24.1319 H   0  0  0  0  0  0
  -20.5679  -26.2368   23.3643 H   0  0  0  0  0  0
  -21.6660  -26.7413   22.1210 H   0  0  0  0  0  0
  -19.6930  -25.6278   21.1273 H   0  0  0  0  0  0
  -19.6711  -27.3165   20.6726 H   0  0  0  0  0  0
  -17.4221  -26.6686   21.4027 H   0  0  0  0  0  0
  -18.0347  -26.0095   22.9031 H   0  0  0  0  0  0
  -19.7970  -30.7316   24.2203 H   0  0  0  0  0  0
  -17.5041  -31.6276   24.5165 H   0  0  0  0  0  0
  -15.5376  -30.2975   23.7694 H   0  0  0  0  0  0
  -15.8704  -28.0811   22.7103 H   0  0  0  0  0  0
  -24.5882  -30.7116   25.7668 H   0  0  0  0  0  0
  -24.8855  -32.2985   26.4657 H   0  0  0  0  0  0
  -25.7919  -30.9037   27.0216 H   0  0  0  0  0  0
  -26.3118  -29.6580   24.1411 H   0  0  0  0  0  0
  -27.3971  -29.7271   25.5075 H   0  0  0  0  0  0
  -27.9063  -30.4092   23.9843 H   0  0  0  0  0  0
  -27.2615  -33.3691   26.1948 H   0  0  0  0  0  0
  -28.3922  -32.6836   25.0373 H   0  0  0  0  0  0
  -28.0641  -31.8559   26.5521 H   0  0  0  0  0  0
  -28.2606  -38.0042   24.7450 H   0  0  0  0  0  0
  -28.1030  -36.2565   24.6404 H   0  0  0  0  0  0
  -27.2262  -37.1539   25.8877 H   0  0  0  0  0  0
  -20.9577  -29.8723   21.6665 H   0  0  0  0  0  0
  -26.0144  -38.2769   24.1353 H   0  0  0  0  0  0
  -31.2002  -21.1236   19.9168 H   0  0  0  0  0  0
  -31.5192  -18.7116   19.9826 H   0  0  0  0  0  0
  -27.0744  -20.6521   20.7566 H   0  0  0  0  0  0
  -29.6551  -23.3344   19.4394 H   0  0  0  0  0  0
  -29.6359  -23.3526   21.1574 H   0  0  0  0  0  0
  -28.6270  -16.0989   20.6864 H   0  0  0  0  0  0
  -27.3137  -24.1150   21.1054 H   0  0  0  0  0  0
  1 25  1  0  0  0
  1 30  2  0  0  0
  1 78  1  0  0  0
  2  3  1  0  0  0
  2 25  1  0  0  0
  2 81  1  0  0  0
  2 82  1  0  0  0
  3  4  1  0  0  0
  3 83  1  0  0  0
  3 84  1  0  0  0
  4  5  1  0  0  0
  4 85  1  0  0  0
  4 86  1  0  0  0
  5  6  1  0  0  0
  5 26  1  0  0  0
  5 87  1  0  0  0
  6 25  1  0  0  0
  6 88  1  0  0  0
  6 89  1  0  0  0
  7  8  2  0  0  0
  7 26  1  0  0  0
  7 29  1  0  0  0
  8  9  1  0  0  0
  8 22  1  0  0  0
  9 10  1  0  0  0
  9 27  2  0  0  0
 10 11  2  0  0  0
 10 15  1  0  0  0
 11 12  1  0  0  0
 11 90  1  0  0  0
 12 13  2  0  0  0
 12 91  1  0  0  0
 13 14  1  0  0  0
 13 31  1  0  0  0
 14 15  2  0  0  0
 14 92  1  0  0  0
 15 93  1  0  0  0
 16 17  2  0  0  0
 16 21  1  0  0  0
 16 31  1  0  0  0
 17 18  1  0  0  0
 17 94  1  0  0  0
 18 19  2  0  0  0
 18 95  1  0  0  0
 19 20  1  0  0  0
 19 24  1  0  0  0
 20 21  2  0  0  0
 20 96  1  0  0  0
 21 23  1  0  0  0
 22 28  1  0  0  0
 22 32  2  0  0  0
 26 27  1  0  0  0
 28 97  1  0  0  0
 28 98  1  0  0  0
 29 99  1  0  0  0
 29100  1  0  0  0
 33 34  1  0  0  0
 33 66  1  0  0  0
 33 70  2  0  0  0
 34 36  1  0  0  0
 34 59  1  0  0  0
 34101  1  0  0  0
 35 44  2  0  0  0
 35 45  1  0  0  0
 35 68  1  0  0  0
 36 56  1  0  0  0
 36102  1  0  0  0
 37 39  1  0  0  0
 37 47  1  0  0  0
 37 66  1  0  0  0
 37103  1  0  0  0
 38 43  2  0  0  0
 38 46  1  0  0  0
 38 47  1  0  0  0
 39 64  1  0  0  0
 39 67  2  0  0  0
 40 52  1  0  0  0
 40 53  2  0  0  0
 40 58  1  0  0  0
 41104  1  0  0  0
 41105  1  0  0  0
 41106  1  0  0  0
 41 48  1  0  0  0
 42 43  1  0  0  0
 42 66  1  0  0  0
 42107  1  0  0  0
 42108  1  0  0  0
 43 44  1  0  0  0
 44109  1  0  0  0
 45 46  2  0  0  0
 45110  1  0  0  0
 46111  1  0  0  0
 47112  1  0  0  0
 47113  1  0  0  0
 48 56  1  0  0  0
 48 65  1  0  0  0
 48114  1  0  0  0
 49 50  1  0  0  0
 49 53  1  0  0  0
 49 64  1  0  0  0
 49115  1  0  0  0
 50 51  1  0  0  0
 50116  1  0  0  0
 50117  1  0  0  0
 51 52  1  0  0  0
 51118  1  0  0  0
 51119  1  0  0  0
 52120  1  0  0  0
 52121  1  0  0  0
 53 54  1  0  0  0
 54 55  2  0  0  0
 54122  1  0  0  0
 55 57  1  0  0  0
 55123  1  0  0  0
 56 69  2  0  0  0
 57 58  2  0  0  0
 57124  1  0  0  0
 58125  1  0  0  0
 59 60  1  0  0  0
 59 61  1  0  0  0
 59 62  1  0  0  0
 60126  1  0  0  0
 60127  1  0  0  0
 60128  1  0  0  0
 61129  1  0  0  0
 61130  1  0  0  0
 61131  1  0  0  0
 62132  1  0  0  0
 62133  1  0  0  0
 62134  1  0  0  0
 63 65  1  0  0  0
 63135  1  0  0  0
 63136  1  0  0  0
 63137  1  0  0  0
 64138  1  0  0  0
 65139  1  0  0  0
 68 79  1  0  0  0
 71 72  2  0  0  0
 71 74  1  0  0  0
 71140  1  0  0  0
 72 75  1  0  0  0
 72141  1  0  0  0
 73 74  2  0  0  0
 73 76  1  0  0  0
 73142  1  0  0  0
 74 77  1  0  0  0
 75 76  2  0  0  0
 75 78  1  0  0  0
 76 80  1  0  0  0
 77 79  1  0  0  0
 77143  1  0  0  0
 77144  1  0  0  0
 78145  1  0  0  0
 79146  1  0  0  0
M  ISO  4   1 100  68 101  78 100  79 101
M  END
> <chiral flag>
0

> <version>
0

> <s_m_source_file>
/data/baiqing/PycharmProjects/Reinvent-master-3.2/result/LINK_invent/BTK/process_docking_weight1_custom_product_contain_oxygen_bond_distance_aromatic_linkinvent_7_9_3/rearranged_h_0007.sdf

> <i_m_source_file_index>
61

> <r_mmod_Potential_Energy-OPLS-2005>
1082.02001953125

> <r_mmod_Stretch_Energy-OPLS-2005>
491.549652099609

> <r_mmod_Bend_Energy-OPLS-2005>
433.132965087891

> <r_mmod_Torsional_Energy-OPLS-2005>
213.024719238281

> <r_mmod_Improper_Torsional_Energy-OPLS-2005>
3.47901940345764

> <r_mmod_Van_der_Waal_Energy-OPLS-2005>
126.447891235352

> <r_mmod_Electrostatic_Energy-OPLS-2005>
-402.153167724609

> <r_mmod_Solvation_Energy-OPLS-2005>
-211.249755859375

> <b_mmod_Minimization_Converged-OPLS-2005>
0

> <r_mmod_RMS_Derivative-OPLS-2005>
0.213614627718925

$$$$
61
                    3D
 Structure written by MMmdl.
148156  0  0  1  0            999 V2000
  -30.5182  -14.9243   20.4273 C   0  0  0  0  0  0
  -30.4485  -12.5676   19.5002 C   0  0  0  0  0  0
  -29.5256  -12.5341   18.2581 C   0  0  0  0  0  0
  -28.0559  -12.3244   18.6711 C   0  0  0  0  0  0
  -27.6374  -13.2425   19.8489 C   0  0  2  0  0  0
  -28.6796  -13.2319   20.9887 C   0  0  0  0  0  0
  -25.2490  -13.8205   20.5707 C   0  0  0  0  0  0
  -24.1793  -13.0436   20.9212 C   0  0  0  0  0  0
  -24.6401  -11.6919   20.8745 C   0  0  0  0  0  0
  -23.9080  -10.4292   21.0404 C   0  0  0  0  0  0
  -24.3627   -9.4208   21.9183 C   0  0  0  0  0  0
  -23.6298   -8.2244   22.0754 C   0  0  0  0  0  0
  -22.4280   -8.0283   21.3545 C   0  0  0  0  0  0
  -21.9918   -9.0257   20.4646 C   0  0  0  0  0  0
  -22.7251  -10.2134   20.3054 C   0  0  0  0  0  0
  -21.6855   -6.0737   22.5279 C   0  0  0  0  0  0
  -21.4015   -6.5641   23.8213 C   0  0  0  0  0  0
  -21.3660   -5.6793   24.9174 C   0  0  0  0  0  0
  -21.6044   -4.3056   24.7225 C   0  0  0  0  0  0
  -21.8819   -3.8148   23.4346 C   0  0  0  0  0  0
  -21.9193   -4.6965   22.3402 C   0  0  0  0  0  0
  -22.7813  -13.5212   21.1871 C   0  0  0  0  0  0
  -22.1662   -4.2151   21.0980 F   0  0  0  0  0  0
  -21.5628   -3.4539   25.7737 F   0  0  0  0  0  0
  -29.9639  -13.6466   20.4064 N   0  0  0  0  0  0
  -26.2921  -12.9428   20.3276 N   0  0  0  0  0  0
  -25.9336  -11.6561   20.5746 N   0  0  0  0  0  0
  -22.0465  -12.8199   22.0428 N   0  0  0  0  0  0
  -25.4163  -15.1932   20.4141 N   0  0  0  0  0  0
  -31.6994  -15.0452   20.0829 O   0  0  0  0  0  0
  -21.6642   -6.8881   21.4242 O   0  0  0  0  0  0
  -22.3492  -14.5516   20.6719 O   0  0  0  0  0  0
  -24.6426  -31.8438   23.1879 C   0  0  0  0  0  0
  -25.9201  -32.4692   23.8268 C   0  0  1  0  0  0
  -27.2223  -27.1392   20.1425 C   0  0  0  0  0  0
  -25.5951  -33.8498   24.2185 N   0  0  0  0  0  0
  -23.4460  -30.4626   21.5332 C   0  0  2  0  0  0
  -24.8954  -28.8895   20.1072 C   0  0  0  0  0  0
  -22.7563  -29.4543   22.4859 C   0  0  0  0  0  0
  -18.0303  -28.1395   22.8479 C   0  0  0  0  0  0
  -24.1491  -36.7253   23.2642 C   0  0  0  0  0  0
  -26.0011  -30.7171   21.3868 C   0  0  0  0  0  0
  -26.0706  -29.3288   20.7274 C   0  0  0  0  0  0
  -27.2298  -28.4677   20.7317 C   0  0  0  0  0  0
  -26.0182  -26.7996   19.4846 C   0  0  0  0  0  0
  -24.8819  -27.6384   19.4725 C   0  0  0  0  0  0
  -23.6715  -29.7909   20.1521 C   0  0  0  0  0  0
  -25.4124  -36.3031   24.0316 C   0  0  1  0  0  0
  -20.5915  -28.3719   23.1238 C   0  0  2  0  0  0
  -20.6787  -26.9424   22.5404 C   0  0  0  0  0  0
  -19.5760  -26.6382   21.5213 C   0  0  0  0  0  0
  -18.1942  -26.7933   22.1627 C   0  0  0  0  0  0
  -19.1560  -28.8876   23.2850 C   0  0  0  0  0  0
  -18.9477  -30.1473   23.8875 C   0  0  0  0  0  0
  -17.6473  -30.6592   24.0559 C   0  0  0  0  0  0
  -25.9074  -34.9406   23.5060 C   0  0  0  0  0  0
  -16.5364  -29.9085   23.6336 C   0  0  0  0  0  0
  -16.7288  -28.6504   23.0358 C   0  0  0  0  0  0
  -26.4524  -31.6563   25.0712 C   0  0  0  0  0  0
  -25.3709  -31.3759   26.1410 C   0  0  0  0  0  0
  -27.0387  -30.2957   24.6298 C   0  0  0  0  0  0
  -27.6056  -32.4328   25.7496 C   0  0  0  0  0  0
  -27.5575  -37.1784   24.8466 C   0  0  0  0  0  0
  -21.4256  -29.3044   22.3609 N   0  0  0  0  0  0
  -26.4287  -37.3744   23.9408 N   0  0  0  0  0  0
  -24.7163  -31.0294   22.0911 N   0  0  0  0  0  0
  -23.4208  -28.8095   23.3011 O   0  0  0  0  0  0
  -28.2978  -26.1831   20.2513 O   0  0  0  0  0  0
  -26.5662  -34.8905   22.4640 O   0  0  0  0  0  0
  -23.5547  -32.1315   23.7102 O   0  0  0  0  0  0
  -30.4933  -18.3565   19.6582 C   0  0  0  0  0  0
  -28.5603  -19.8249   21.0345 C   0  0  0  0  0  0
  -29.6793  -17.5586   20.5240 C   0  0  0  0  0  0
  -29.3532  -20.6200   20.1431 C   0  0  0  0  0  0
  -30.3291  -19.7915   19.4747 C   0  0  0  0  0  0
  -28.7081  -18.3830   21.2002 C   0  0  0  0  0  0
  -28.3216  -24.7180   19.7170 C   0  0  0  0  0  0
  -28.5917  -23.2487   20.5102 C   0  0  0  0  0  0
  -29.6856  -16.0342   20.7086 N   0  0  0  0  0  0
  -29.2413  -22.0463   19.8039 O   0  0  0  0  0  0
  -31.1555  -20.3988   18.5893 F   0  0  0  0  0  0
  -27.8534  -17.7570   22.0444 F   0  0  0  0  0  0
  -31.4823  -12.7307   19.1917 H   0  0  0  0  0  0
  -30.4409  -11.6048   20.0137 H   0  0  0  0  0  0
  -29.8390  -11.7442   17.5741 H   0  0  0  0  0  0
  -29.6201  -13.4712   17.7072 H   0  0  0  0  0  0
  -27.9426  -11.2795   18.9621 H   0  0  0  0  0  0
  -27.3951  -12.4757   17.8167 H   0  0  0  0  0  0
  -27.6122  -14.2531   19.4405 H   0  0  0  0  0  0
  -28.7569  -12.2410   21.4389 H   0  0  0  0  0  0
  -28.3804  -13.9079   21.7911 H   0  0  0  0  0  0
  -25.2771   -9.5683   22.4760 H   0  0  0  0  0  0
  -24.0005   -7.4636   22.7475 H   0  0  0  0  0  0
  -21.0849   -8.8779   19.8952 H   0  0  0  0  0  0
  -22.3710  -10.9674   19.6164 H   0  0  0  0  0  0
  -21.2008   -7.6149   23.9716 H   0  0  0  0  0  0
  -21.1482   -6.0524   25.9077 H   0  0  0  0  0  0
  -22.0598   -2.7610   23.2846 H   0  0  0  0  0  0
  -22.4089  -11.9862   22.4814 H   0  0  0  0  0  0
  -21.1081  -13.1217   22.2636 H   0  0  0  0  0  0
  -24.6501  -15.8455   20.5392 H   0  0  0  0  0  0
  -26.2653  -15.6402   20.0942 H   0  0  0  0  0  0
  -26.7265  -32.5294   23.0994 H   0  0  0  0  0  0
  -25.0075  -33.9613   25.0317 H   0  0  0  0  0  0
  -22.7485  -31.2885   21.3788 H   0  0  0  0  0  0
  -23.3759  -35.9579   23.3293 H   0  0  0  0  0  0
  -24.3576  -36.8897   22.2059 H   0  0  0  0  0  0
  -23.7241  -37.6444   23.6687 H   0  0  0  0  0  0
  -26.1577  -31.4720   20.6150 H   0  0  0  0  0  0
  -26.8713  -30.7661   22.0297 H   0  0  0  0  0  0
  -28.1234  -28.7980   21.2425 H   0  0  0  0  0  0
  -25.8999  -25.8458   18.9982 H   0  0  0  0  0  0
  -23.9827  -27.2959   18.9789 H   0  0  0  0  0  0
  -23.8066  -30.5651   19.3960 H   0  0  0  0  0  0
  -22.7864  -29.2321   19.8428 H   0  0  0  0  0  0
  -25.1313  -36.1857   25.0808 H   0  0  0  0  0  0
  -21.0008  -28.3309   24.1359 H   0  0  0  0  0  0
  -20.5681  -26.2334   23.3622 H   0  0  0  0  0  0
  -21.6653  -26.7430   22.1201 H   0  0  0  0  0  0
  -19.6921  -25.6287   21.1255 H   0  0  0  0  0  0
  -19.6695  -27.3181   20.6733 H   0  0  0  0  0  0
  -17.4209  -26.6674   21.4033 H   0  0  0  0  0  0
  -18.0346  -26.0082   22.9031 H   0  0  0  0  0  0
  -19.7952  -30.7296   24.2233 H   0  0  0  0  0  0
  -17.5026  -31.6270   24.5165 H   0  0  0  0  0  0
  -15.5363  -30.2980   23.7673 H   0  0  0  0  0  0
  -15.8688  -28.0814   22.7087 H   0  0  0  0  0  0
  -24.5887  -30.7108   25.7731 H   0  0  0  0  0  0
  -24.8900  -32.2944   26.4783 H   0  0  0  0  0  0
  -25.7990  -30.8963   27.0221 H   0  0  0  0  0  0
  -26.3003  -29.6678   24.1300 H   0  0  0  0  0  0
  -27.3989  -29.7261   25.4875 H   0  0  0  0  0  0
  -27.8917  -30.4189   23.9622 H   0  0  0  0  0  0
  -27.2656  -33.3659   26.2001 H   0  0  0  0  0  0
  -28.3906  -32.6836   25.0349 H   0  0  0  0  0  0
  -28.0678  -31.8497   26.5471 H   0  0  0  0  0  0
  -28.2586  -38.0086   24.7511 H   0  0  0  0  0  0
  -28.1077  -36.2615   24.6296 H   0  0  0  0  0  0
  -27.2290  -37.1434   25.8869 H   0  0  0  0  0  0
  -20.9466  -29.8753   21.6784 H   0  0  0  0  0  0
  -26.0152  -38.2812   24.1410 H   0  0  0  0  0  0
  -31.2573  -17.8619   19.0776 H   0  0  0  0  0  0
  -27.7775  -20.3151   21.5926 H   0  0  0  0  0  0
  -27.4790  -24.5474   19.0542 H   0  0  0  0  0  0
  -29.1561  -24.7744   19.0182 H   0  0  0  0  0  0
  -27.6494  -22.9152   20.9451 H   0  0  0  0  0  0
  -29.2379  -23.4612   21.3619 H   0  0  0  0  0  0
  -28.8179  -15.7174   21.1150 H   0  0  0  0  0  0
  1 25  1  0  0  0
  1 30  2  0  0  0
  1 79  1  0  0  0
  2  3  1  0  0  0
  2 25  1  0  0  0
  2 83  1  0  0  0
  2 84  1  0  0  0
  3  4  1  0  0  0
  3 85  1  0  0  0
  3 86  1  0  0  0
  4  5  1  0  0  0
  4 87  1  0  0  0
  4 88  1  0  0  0
  5  6  1  0  0  0
  5 26  1  0  0  0
  5 89  1  0  0  0
  6 25  1  0  0  0
  6 90  1  0  0  0
  6 91  1  0  0  0
  7  8  2  0  0  0
  7 26  1  0  0  0
  7 29  1  0  0  0
  8  9  1  0  0  0
  8 22  1  0  0  0
  9 10  1  0  0  0
  9 27  2  0  0  0
 10 11  2  0  0  0
 10 15  1  0  0  0
 11 12  1  0  0  0
 11 92  1  0  0  0
 12 13  2  0  0  0
 12 93  1  0  0  0
 13 14  1  0  0  0
 13 31  1  0  0  0
 14 15  2  0  0  0
 14 94  1  0  0  0
 15 95  1  0  0  0
 16 17  2  0  0  0
 16 21  1  0  0  0
 16 31  1  0  0  0
 17 18  1  0  0  0
 17 96  1  0  0  0
 18 19  2  0  0  0
 18 97  1  0  0  0
 19 20  1  0  0  0
 19 24  1  0  0  0
 20 21  2  0  0  0
 20 98  1  0  0  0
 21 23  1  0  0  0
 22 28  1  0  0  0
 22 32  2  0  0  0
 26 27  1  0  0  0
 28 99  1  0  0  0
 28100  1  0  0  0
 29101  1  0  0  0
 29102  1  0  0  0
 33 34  1  0  0  0
 33 66  1  0  0  0
 33 70  2  0  0  0
 34 36  1  0  0  0
 34 59  1  0  0  0
 34103  1  0  0  0
 35 44  2  0  0  0
 35 45  1  0  0  0
 35 68  1  0  0  0
 36 56  1  0  0  0
 36104  1  0  0  0
 37 39  1  0  0  0
 37 47  1  0  0  0
 37 66  1  0  0  0
 37105  1  0  0  0
 38 43  2  0  0  0
 38 46  1  0  0  0
 38 47  1  0  0  0
 39 64  1  0  0  0
 39 67  2  0  0  0
 40 52  1  0  0  0
 40 53  2  0  0  0
 40 58  1  0  0  0
 41106  1  0  0  0
 41107  1  0  0  0
 41108  1  0  0  0
 41 48  1  0  0  0
 42 43  1  0  0  0
 42 66  1  0  0  0
 42109  1  0  0  0
 42110  1  0  0  0
 43 44  1  0  0  0
 44111  1  0  0  0
 45 46  2  0  0  0
 45112  1  0  0  0
 46113  1  0  0  0
 47114  1  0  0  0
 47115  1  0  0  0
 48 56  1  0  0  0
 48 65  1  0  0  0
 48116  1  0  0  0
 49 50  1  0  0  0
 49 53  1  0  0  0
 49 64  1  0  0  0
 49117  1  0  0  0
 50 51  1  0  0  0
 50118  1  0  0  0
 50119  1  0  0  0
 51 52  1  0  0  0
 51120  1  0  0  0
 51121  1  0  0  0
 52122  1  0  0  0
 52123  1  0  0  0
 53 54  1  0  0  0
 54 55  2  0  0  0
 54124  1  0  0  0
 55 57  1  0  0  0
 55125  1  0  0  0
 56 69  2  0  0  0
 57 58  2  0  0  0
 57126  1  0  0  0
 58127  1  0  0  0
 59 60  1  0  0  0
 59 61  1  0  0  0
 59 62  1  0  0  0
 60128  1  0  0  0
 60129  1  0  0  0
 60130  1  0  0  0
 61131  1  0  0  0
 61132  1  0  0  0
 61133  1  0  0  0
 62134  1  0  0  0
 62135  1  0  0  0
 62136  1  0  0  0
 63 65  1  0  0  0
 63137  1  0  0  0
 63138  1  0  0  0
 63139  1  0  0  0
 64140  1  0  0  0
 65141  1  0  0  0
 68 77  1  0  0  0
 71 73  2  0  0  0
 71 75  1  0  0  0
 71142  1  0  0  0
 72 74  1  0  0  0
 72 76  2  0  0  0
 72143  1  0  0  0
 73 76  1  0  0  0
 73 79  1  0  0  0
 74 75  2  0  0  0
 74 80  1  0  0  0
 75 81  1  0  0  0
 76 82  1  0  0  0
 77 78  1  0  0  0
 77144  1  0  0  0
 77145  1  0  0  0
 78 80  1  0  0  0
 78146  1  0  0  0
 78147  1  0  0  0
 79148  1  0  0  0
M  ISO  4   1 100  68 101  77 101  79 100
M  END
> <chiral flag>
0

> <version>
0

> <s_m_source_file>
/data/baiqing/PycharmProjects/Reinvent-master-3.2/result/LINK_invent/BTK/process_docking_weight1_custom_product_contain_oxygen_bond_distance_aromatic_linkinvent_7_9_3/rearranged_h_0007.sdf

> <i_m_source_file_index>
62

> <r_mmod_Potential_Energy-OPLS-2005>
455.152130126953

> <r_mmod_Stretch_Energy-OPLS-2005>
227.920120239258

> <r_mmod_Bend_Energy-OPLS-2005>
295.857421875

> <r_mmod_Torsional_Energy-OPLS-2005>
212.856811523438

> <r_mmod_Improper_Torsional_Energy-OPLS-2005>
3.46052241325378

> <r_mmod_Van_der_Waal_Energy-OPLS-2005>
130.192138671875

> <r_mmod_Electrostatic_Energy-OPLS-2005>
-386.322631835938

> <r_mmod_Solvation_Energy-OPLS-2005>
-209.379211425781

> <b_mmod_Minimization_Converged-OPLS-2005>
0

> <r_mmod_RMS_Derivative-OPLS-2005>
0.111098766326904

$$$$
62
                    3D
 Structure written by MMmdl.
153161  0  0  1  0            999 V2000
  -30.3833  -15.2876   20.3359 C   0  0  0  0  0  0
  -30.4376  -12.8092   19.5598 C   0  0  0  0  0  0
  -29.5450  -12.5772   18.3135 C   0  0  0  0  0  0
  -28.0982  -12.2832   18.7481 C   0  0  0  0  0  0
  -27.6124  -13.2662   19.8388 C   0  0  2  0  0  0
  -28.6353  -13.4467   20.9795 C   0  0  0  0  0  0
  -25.2396  -13.8214   20.5778 C   0  0  0  0  0  0
  -24.1727  -13.0444   20.9295 C   0  0  0  0  0  0
  -24.6372  -11.6917   20.8829 C   0  0  0  0  0  0
  -23.9083  -10.4283   21.0448 C   0  0  0  0  0  0
  -24.3616   -9.4184   21.9218 C   0  0  0  0  0  0
  -23.6272   -8.2242   22.0800 C   0  0  0  0  0  0
  -22.4282   -8.0287   21.3557 C   0  0  0  0  0  0
  -21.9915   -9.0285   20.4704 C   0  0  0  0  0  0
  -22.7267  -10.2146   20.3101 C   0  0  0  0  0  0
  -21.6856   -6.0721   22.5288 C   0  0  0  0  0  0
  -21.4000   -6.5633   23.8212 C   0  0  0  0  0  0
  -21.3661   -5.6800   24.9183 C   0  0  0  0  0  0
  -21.6047   -4.3067   24.7254 C   0  0  0  0  0  0
  -21.8799   -3.8138   23.4380 C   0  0  0  0  0  0
  -21.9181   -4.6940   22.3431 C   0  0  0  0  0  0
  -22.7739  -13.5234   21.1935 C   0  0  0  0  0  0
  -22.1660   -4.2099   21.1009 F   0  0  0  0  0  0
  -21.5636   -3.4577   25.7785 F   0  0  0  0  0  0
  -29.8691  -13.9582   20.3633 N   0  0  0  0  0  0
  -26.2804  -12.9468   20.3291 N   0  0  0  0  0  0
  -25.9283  -11.6590   20.5738 N   0  0  0  0  0  0
  -22.0373  -12.8219   22.0451 N   0  0  0  0  0  0
  -25.4116  -15.1930   20.4154 N   0  0  0  0  0  0
  -31.5846  -15.3214   20.0248 O   0  0  0  0  0  0
  -21.6650   -6.8868   21.4256 O   0  0  0  0  0  0
  -22.3454  -14.5572   20.6804 O   0  0  0  0  0  0
  -24.6603  -31.8244   23.1723 C   0  0  0  0  0  0
  -25.9286  -32.4612   23.8177 C   0  0  1  0  0  0
  -27.2141  -26.9315   20.1762 C   0  0  0  0  0  0
  -25.5973  -33.8432   24.2090 N   0  0  0  0  0  0
  -23.4765  -30.4305   21.5218 C   0  0  2  0  0  0
  -24.9300  -28.8252   20.1063 C   0  0  0  0  0  0
  -22.7700  -29.4408   22.4830 C   0  0  0  0  0  0
  -18.0345  -28.1397   22.8438 C   0  0  0  0  0  0
  -24.1507  -36.7203   23.2652 C   0  0  0  0  0  0
  -26.0428  -30.6350   21.3996 C   0  0  0  0  0  0
  -26.1148  -29.2249   20.7417 C   0  0  0  0  0  0
  -27.2519  -28.2971   20.7526 C   0  0  0  0  0  0
  -26.0070  -26.6898   19.4838 C   0  0  0  0  0  0
  -24.9027  -27.5795   19.4593 C   0  0  0  0  0  0
  -23.7131  -29.7482   20.1464 C   0  0  0  0  0  0
  -25.4161  -36.2987   24.0295 C   0  0  1  0  0  0
  -20.5990  -28.3722   23.1214 C   0  0  2  0  0  0
  -20.6882  -26.9452   22.5331 C   0  0  0  0  0  0
  -19.5875  -26.6540   21.5090 C   0  0  0  0  0  0
  -18.2015  -26.8025   22.1428 C   0  0  0  0  0  0
  -19.1609  -28.8862   23.2850 C   0  0  0  0  0  0
  -18.9530  -30.1419   23.8931 C   0  0  0  0  0  0
  -17.6539  -30.6569   24.0572 C   0  0  0  0  0  0
  -25.9100  -34.9361   23.5010 C   0  0  0  0  0  0
  -16.5426  -29.9074   23.6333 C   0  0  0  0  0  0
  -16.7332  -28.6482   23.0393 C   0  0  0  0  0  0
  -26.4556  -31.6543   25.0689 C   0  0  0  0  0  0
  -25.3677  -31.3790   26.1336 C   0  0  0  0  0  0
  -27.0448  -30.2915   24.6407 C   0  0  0  0  0  0
  -27.6079  -32.4324   25.7486 C   0  0  0  0  0  0
  -27.5585  -37.1763   24.8472 C   0  0  0  0  0  0
  -21.4372  -29.3060   22.3616 N   0  0  0  0  0  0
  -26.4320  -37.3710   23.9380 N   0  0  0  0  0  0
  -24.7467  -30.9920   22.0844 N   0  0  0  0  0  0
  -23.4274  -28.7918   23.3009 O   0  0  0  0  0  0
  -28.2075  -25.8222   20.2837 O   0  0  0  0  0  0
  -26.5700  -34.8893   22.4598 O   0  0  0  0  0  0
  -23.5653  -32.1213   23.6776 O   0  0  0  0  0  0
  -28.0026  -19.5300   18.2055 C   0  0  0  0  0  0
  -28.2337  -18.1690   18.9440 C   0  0  0  0  0  0
  -27.6961  -20.7756   19.0949 C   0  0  0  0  0  0
  -29.2760  -19.7047   20.7145 C   0  0  0  0  0  0
  -29.4524  -18.1194   19.9125 C   0  0  1  0  0  0
  -28.7920  -22.6811   20.5716 C   0  0  0  0  0  0
  -28.0200  -24.2034   19.9741 C   0  0  0  0  0  0
  -29.5723  -16.5299   20.4717 N   0  0  0  0  0  0
  -28.8508  -21.1189   19.9575 N   0  3  2  0  0  0
  -31.4618  -13.0052   19.2422 H   0  0  0  0  0  0
  -30.4958  -11.9046   20.1671 H   0  0  0  0  0  0
  -29.9293  -11.7540   17.7100 H   0  0  0  0  0  0
  -29.5638  -13.4638   17.6802 H   0  0  0  0  0  0
  -28.0838  -11.2700   19.1501 H   0  0  0  0  0  0
  -27.4205  -12.2806   17.8964 H   0  0  0  0  0  0
  -27.5312  -14.2287   19.3342 H   0  0  0  0  0  0
  -28.8042  -12.5124   21.5210 H   0  0  0  0  0  0
  -28.2666  -14.1665   21.7133 H   0  0  0  0  0  0
  -25.2744   -9.5665   22.4798 H   0  0  0  0  0  0
  -23.9970   -7.4637   22.7526 H   0  0  0  0  0  0
  -21.0841   -8.8823   19.9016 H   0  0  0  0  0  0
  -22.3726  -10.9692   19.6223 H   0  0  0  0  0  0
  -21.1981   -7.6138   23.9686 H   0  0  0  0  0  0
  -21.1524   -6.0555   25.9074 H   0  0  0  0  0  0
  -22.0569   -2.7592   23.2921 H   0  0  0  0  0  0
  -22.3979  -11.9836   22.4792 H   0  0  0  0  0  0
  -21.1028  -13.1261   22.2759 H   0  0  0  0  0  0
  -24.6421  -15.8448   20.5191 H   0  0  0  0  0  0
  -26.2384  -15.6082   20.0086 H   0  0  0  0  0  0
  -26.7357  -32.5148   23.0890 H   0  0  0  0  0  0
  -25.0072  -33.9513   25.0208 H   0  0  0  0  0  0
  -22.7874  -31.2621   21.3509 H   0  0  0  0  0  0
  -23.3785  -35.9511   23.3285 H   0  0  0  0  0  0
  -24.3606  -36.8854   22.2074 H   0  0  0  0  0  0
  -23.7234  -37.6378   23.6706 H   0  0  0  0  0  0
  -26.2187  -31.3787   20.6248 H   0  0  0  0  0  0
  -26.9026  -30.6951   22.0541 H   0  0  0  0  0  0
  -28.1436  -28.5998   21.2868 H   0  0  0  0  0  0
  -25.8800  -25.7423   18.9826 H   0  0  0  0  0  0
  -24.0016  -27.2647   18.9476 H   0  0  0  0  0  0
  -23.8497  -30.5144   19.3845 H   0  0  0  0  0  0
  -22.8264  -29.1895   19.8401 H   0  0  0  0  0  0
  -25.1358  -36.1808   25.0784 H   0  0  0  0  0  0
  -21.0124  -28.3278   24.1323 H   0  0  0  0  0  0
  -20.5708  -26.2325   23.3501 H   0  0  0  0  0  0
  -21.6764  -26.7460   22.1126 H   0  0  0  0  0  0
  -19.6886  -27.3449   20.6708 H   0  0  0  0  0  0
  -19.7088  -25.6538   21.0930 H   0  0  0  0  0  0
  -18.0342  -26.0092   22.8723 H   0  0  0  0  0  0
  -17.4358  -26.6844   21.3735 H   0  0  0  0  0  0
  -19.8023  -30.7217   24.2255 H   0  0  0  0  0  0
  -17.5090  -31.6235   24.5182 H   0  0  0  0  0  0
  -15.5400  -30.2968   23.7621 H   0  0  0  0  0  0
  -15.8721  -28.0773   22.7169 H   0  0  0  0  0  0
  -24.5900  -30.7111   25.7634 H   0  0  0  0  0  0
  -24.8826  -32.2969   26.4636 H   0  0  0  0  0  0
  -25.7895  -30.9041   27.0190 H   0  0  0  0  0  0
  -26.3087  -29.6617   24.1409 H   0  0  0  0  0  0
  -27.3975  -29.7295   25.5065 H   0  0  0  0  0  0
  -27.9032  -30.4128   23.9810 H   0  0  0  0  0  0
  -27.2695  -33.3674   26.1950 H   0  0  0  0  0  0
  -28.3942  -32.6767   25.0344 H   0  0  0  0  0  0
  -28.0673  -31.8507   26.5476 H   0  0  0  0  0  0
  -28.2596  -38.0068   24.7497 H   0  0  0  0  0  0
  -28.1068  -36.2575   24.6320 H   0  0  0  0  0  0
  -27.2271  -37.1440   25.8871 H   0  0  0  0  0  0
  -20.9623  -29.8860   21.6821 H   0  0  0  0  0  0
  -26.0158  -38.2768   24.1376 H   0  0  0  0  0  0
  -27.1586  -19.4061   17.5236 H   0  0  0  0  0  0
  -28.8612  -19.7483   17.5676 H   0  0  0  0  0  0
  -28.3402  -17.3870   18.1884 H   0  0  0  0  0  0
  -27.3254  -17.9235   19.4974 H   0  0  0  0  0  0
  -26.8151  -20.6119   19.7175 H   0  0  0  0  0  0
  -27.4613  -21.6240   18.4528 H   0  0  0  0  0  0
  -30.2059  -19.9106   21.2419 H   0  0  0  0  0  0
  -28.5242  -19.5699   21.4955 H   0  0  0  0  0  0
  -30.3434  -18.2238   19.2952 H   0  0  0  0  0  0
  -29.8444  -22.9432   20.6737 H   0  0  0  0  0  0
  -28.4435  -22.5614   21.5959 H   0  0  0  0  0  0
  -28.1054  -24.1542   18.8886 H   0  0  0  0  0  0
  -26.9571  -24.0317   20.1615 H   0  0  0  0  0  0
  -28.6883  -16.2671   20.8838 H   0  0  0  0  0  0
  -29.5931  -21.2182   19.2792 H   0  0  0  0  0  0
  1 25  1  0  0  0
  1 30  2  0  0  0
  1 78  1  0  0  0
  2  3  1  0  0  0
  2 25  1  0  0  0
  2 80  1  0  0  0
  2 81  1  0  0  0
  3  4  1  0  0  0
  3 82  1  0  0  0
  3 83  1  0  0  0
  4  5  1  0  0  0
  4 84  1  0  0  0
  4 85  1  0  0  0
  5  6  1  0  0  0
  5 26  1  0  0  0
  5 86  1  0  0  0
  6 25  1  0  0  0
  6 87  1  0  0  0
  6 88  1  0  0  0
  7  8  2  0  0  0
  7 26  1  0  0  0
  7 29  1  0  0  0
  8  9  1  0  0  0
  8 22  1  0  0  0
  9 10  1  0  0  0
  9 27  2  0  0  0
 10 11  2  0  0  0
 10 15  1  0  0  0
 11 12  1  0  0  0
 11 89  1  0  0  0
 12 13  2  0  0  0
 12 90  1  0  0  0
 13 14  1  0  0  0
 13 31  1  0  0  0
 14 15  2  0  0  0
 14 91  1  0  0  0
 15 92  1  0  0  0
 16 17  2  0  0  0
 16 21  1  0  0  0
 16 31  1  0  0  0
 17 18  1  0  0  0
 17 93  1  0  0  0
 18 19  2  0  0  0
 18 94  1  0  0  0
 19 20  1  0  0  0
 19 24  1  0  0  0
 20 21  2  0  0  0
 20 95  1  0  0  0
 21 23  1  0  0  0
 22 28  1  0  0  0
 22 32  2  0  0  0
 26 27  1  0  0  0
 28 96  1  0  0  0
 28 97  1  0  0  0
 29 98  1  0  0  0
 29 99  1  0  0  0
 33 34  1  0  0  0
 33 66  1  0  0  0
 33 70  2  0  0  0
 34 36  1  0  0  0
 34 59  1  0  0  0
 34100  1  0  0  0
 35 44  2  0  0  0
 35 45  1  0  0  0
 35 68  1  0  0  0
 36 56  1  0  0  0
 36101  1  0  0  0
 37 39  1  0  0  0
 37 47  1  0  0  0
 37 66  1  0  0  0
 37102  1  0  0  0
 38 43  2  0  0  0
 38 46  1  0  0  0
 38 47  1  0  0  0
 39 64  1  0  0  0
 39 67  2  0  0  0
 40 52  1  0  0  0
 40 53  2  0  0  0
 40 58  1  0  0  0
 41103  1  0  0  0
 41104  1  0  0  0
 41105  1  0  0  0
 41 48  1  0  0  0
 42 43  1  0  0  0
 42 66  1  0  0  0
 42106  1  0  0  0
 42107  1  0  0  0
 43 44  1  0  0  0
 44108  1  0  0  0
 45 46  2  0  0  0
 45109  1  0  0  0
 46110  1  0  0  0
 47111  1  0  0  0
 47112  1  0  0  0
 48 56  1  0  0  0
 48 65  1  0  0  0
 48113  1  0  0  0
 49 50  1  0  0  0
 49 53  1  0  0  0
 49 64  1  0  0  0
 49114  1  0  0  0
 50 51  1  0  0  0
 50115  1  0  0  0
 50116  1  0  0  0
 51 52  1  0  0  0
 51117  1  0  0  0
 51118  1  0  0  0
 52119  1  0  0  0
 52120  1  0  0  0
 53 54  1  0  0  0
 54 55  2  0  0  0
 54121  1  0  0  0
 55 57  1  0  0  0
 55122  1  0  0  0
 56 69  2  0  0  0
 57 58  2  0  0  0
 57123  1  0  0  0
 58124  1  0  0  0
 59 60  1  0  0  0
 59 61  1  0  0  0
 59 62  1  0  0  0
 60125  1  0  0  0
 60126  1  0  0  0
 60127  1  0  0  0
 61128  1  0  0  0
 61129  1  0  0  0
 61130  1  0  0  0
 62131  1  0  0  0
 62132  1  0  0  0
 62133  1  0  0  0
 63 65  1  0  0  0
 63134  1  0  0  0
 63135  1  0  0  0
 63136  1  0  0  0
 64137  1  0  0  0
 65138  1  0  0  0
 68 77  1  0  0  0
 71 72  1  0  0  0
 71 73  1  0  0  0
 71139  1  0  0  0
 71140  1  0  0  0
 72 75  1  0  0  0
 72141  1  0  0  0
 72142  1  0  0  0
 73 79  1  0  0  0
 73143  1  0  0  0
 73144  1  0  0  0
 74 75  1  0  0  0
 74 79  1  0  0  0
 74145  1  0  0  0
 74146  1  0  0  0
 75 78  1  0  0  0
 75147  1  0  0  0
 76 77  1  0  0  0
 76148  1  0  0  0
 76149  1  0  0  0
 76 79  1  0  0  0
 77150  1  0  0  0
 77151  1  0  0  0
 78152  1  0  0  0
 79153  1  0  0  0
M  CHG  1  79   1
M  ISO  4   1 100  68 101  77 101  78 100
M  END
> <chiral flag>
0

> <version>
0

> <s_m_source_file>
/data/baiqing/PycharmProjects/Reinvent-master-3.2/result/LINK_invent/BTK/process_docking_weight1_custom_product_contain_oxygen_bond_distance_aromatic_linkinvent_7_9_3/rearranged_h_0007.sdf

> <i_m_source_file_index>
63

> <r_mmod_Potential_Energy-OPLS-2005>
1221.95593261719

> <r_mmod_Stretch_Energy-OPLS-2005>
612.098510742188

> <r_mmod_Bend_Energy-OPLS-2005>
453.338684082031

> <r_mmod_Torsional_Energy-OPLS-2005>
253.364776611328

> <r_mmod_Improper_Torsional_Energy-OPLS-2005>
4.86903095245361

> <r_mmod_Van_der_Waal_Energy-OPLS-2005>
109.016624450684

> <r_mmod_Electrostatic_Energy-OPLS-2005>
-233.730758666992

> <r_mmod_Solvation_Energy-OPLS-2005>
-455.701965332031

> <b_mmod_Minimization_Converged-OPLS-2005>
0

> <r_mmod_RMS_Derivative-OPLS-2005>
5.39167785644531

$$$$
63
                    3D
 Structure written by MMmdl.
168175  0  0  1  0            999 V2000
  -30.7287  -14.3934   20.6325 C   0  0  0  0  0  0
  -30.4206  -12.2863   19.3910 C   0  0  0  0  0  0
  -29.4900  -12.5193   18.1846 C   0  0  0  0  0  0
  -28.0099  -12.3820   18.5964 C   0  0  0  0  0  0
  -27.6647  -13.1984   19.8719 C   0  0  2  0  0  0
  -28.7022  -12.9375   20.9865 C   0  0  0  0  0  0
  -25.2626  -13.8144   20.5654 C   0  0  0  0  0  0
  -24.1861  -13.0464   20.9168 C   0  0  0  0  0  0
  -24.6373  -11.6909   20.8704 C   0  0  0  0  0  0
  -23.9018  -10.4316   21.0383 C   0  0  0  0  0  0
  -24.3575   -9.4235   21.9162 C   0  0  0  0  0  0
  -23.6258   -8.2268   22.0745 C   0  0  0  0  0  0
  -22.4246   -8.0285   21.3535 C   0  0  0  0  0  0
  -21.9866   -9.0252   20.4638 C   0  0  0  0  0  0
  -22.7183  -10.2139   20.3043 C   0  0  0  0  0  0
  -21.6851   -6.0723   22.5272 C   0  0  0  0  0  0
  -21.4015   -6.5634   23.8200 C   0  0  0  0  0  0
  -21.3662   -5.6794   24.9166 C   0  0  0  0  0  0
  -21.6028   -4.3052   24.7217 C   0  0  0  0  0  0
  -21.8817   -3.8142   23.4339 C   0  0  0  0  0  0
  -21.9191   -4.6955   22.3395 C   0  0  0  0  0  0
  -22.7884  -13.5286   21.1811 C   0  0  0  0  0  0
  -22.1661   -4.2143   21.0970 F   0  0  0  0  0  0
  -21.5619   -3.4541   25.7725 F   0  0  0  0  0  0
  -30.0393  -13.2395   20.4420 N   0  0  0  0  0  0
  -26.3036  -12.9288   20.3308 N   0  0  0  0  0  0
  -25.9280  -11.6461   20.5683 N   0  0  0  0  0  0
  -22.0470  -12.8346   22.0378 N   0  0  0  0  0  0
  -25.4449  -15.1851   20.4033 N   0  0  0  0  0  0
  -31.8086  -14.6469   20.0925 O   0  0  0  0  0  0
  -21.6621   -6.8875   21.4235 O   0  0  0  0  0  0
  -22.3604  -14.5576   20.6598 O   0  0  0  0  0  0
  -24.6140  -31.8673   23.2059 C   0  0  0  0  0  0
  -25.9044  -32.4816   23.8366 C   0  0  1  0  0  0
  -27.2301  -27.4307   20.0771 C   0  0  0  0  0  0
  -25.5893  -33.8613   24.2290 N   0  0  0  0  0  0
  -23.3997  -30.4864   21.5512 C   0  0  2  0  0  0
  -24.8424  -28.9488   20.1152 C   0  0  0  0  0  0
  -22.7420  -29.4643   22.5046 C   0  0  0  0  0  0
  -18.0273  -28.1375   22.8504 C   0  0  0  0  0  0
  -24.1493  -36.7314   23.2633 C   0  0  0  0  0  0
  -25.9292  -30.8247   21.3611 C   0  0  0  0  0  0
  -26.0017  -29.4585   20.7111 C   0  0  0  0  0  0
  -27.1957  -28.7022   20.6947 C   0  0  0  0  0  0
  -26.0464  -26.9332   19.4828 C   0  0  0  0  0  0
  -24.8601  -27.6874   19.4981 C   0  0  0  0  0  0
  -23.6008  -29.8089   20.1694 C   0  0  0  0  0  0
  -25.4109  -36.3102   24.0325 C   0  0  1  0  0  0
  -20.5865  -28.3647   23.1359 C   0  0  2  0  0  0
  -20.6755  -26.9394   22.5438 C   0  0  0  0  0  0
  -19.5734  -26.6383   21.5230 C   0  0  0  0  0  0
  -18.1912  -26.7930   22.1637 C   0  0  0  0  0  0
  -19.1520  -28.8831   23.2918 C   0  0  0  0  0  0
  -18.9447  -30.1447   23.8908 C   0  0  0  0  0  0
  -17.6443  -30.6576   24.0568 C   0  0  0  0  0  0
  -25.9036  -34.9470   23.5106 C   0  0  0  0  0  0
  -16.5335  -29.9064   23.6349 C   0  0  0  0  0  0
  -16.7261  -28.6484   23.0358 C   0  0  0  0  0  0
  -26.4470  -31.6612   25.0714 C   0  0  0  0  0  0
  -25.3743  -31.3708   26.1471 C   0  0  0  0  0  0
  -27.0283  -30.3044   24.6102 C   0  0  0  0  0  0
  -27.6056  -32.4327   25.7472 C   0  0  0  0  0  0
  -27.5589  -37.1817   24.8467 C   0  0  0  0  0  0
  -21.4158  -29.3005   22.3779 N   0  0  0  0  0  0
  -26.4302  -37.3787   23.9406 N   0  0  0  0  0  0
  -24.6657  -31.0756   22.0967 N   0  0  0  0  0  0
  -23.4208  -28.8207   23.3093 O   0  0  0  0  0  0
  -28.4215  -26.7332   20.0845 O   0  0  0  0  0  0
  -26.5623  -34.8932   22.4687 O   0  0  0  0  0  0
  -23.5327  -32.1452   23.7451 O   0  0  0  0  0  0
  -26.6531  -19.8126   20.5961 C   0  0  0  0  0  0
  -25.9309  -21.5225   18.8602 C   0  0  0  0  0  0
  -31.2259  -18.0381   21.8613 C   0  0  0  0  0  0
  -29.0599  -17.5500   23.0557 C   0  0  0  0  0  0
  -28.1434  -24.2421   20.0281 C   0  0  0  0  0  0
  -29.0933  -19.0215   20.9776 C   0  0  0  0  0  0
  -29.5306  -16.5022   20.7974 C   0  0  0  0  0  0
  -28.5275  -22.9901   19.1957 C   0  0  0  0  0  0
  -28.5657  -25.5425   19.3003 C   0  0  0  0  0  0
  -26.8499  -21.2732   20.0848 C   0  0  2  0  0  0
  -29.7160  -17.7714   21.6731 C   0  0  0  0  0  0
  -27.6357  -18.9394   20.8979 N   0  0  0  0  0  0
  -30.1233  -15.3037   21.3999 N   0  0  0  0  0  0
  -28.2594  -21.6719   19.8373 N   0  3  0  0  0  0
  -25.4996  -19.4076   20.7406 O   0  0  0  0  0  0
  -31.4665  -12.3852   19.0904 H   0  0  0  0  0  0
  -30.3142  -11.2643   19.7592 H   0  0  0  0  0  0
  -29.7218  -11.8053   17.3918 H   0  0  0  0  0  0
  -29.6676  -13.5119   17.7663 H   0  0  0  0  0  0
  -27.8122  -11.3250   18.7690 H   0  0  0  0  0  0
  -27.3604  -12.6784   17.7708 H   0  0  0  0  0  0
  -27.7255  -14.2521   19.5979 H   0  0  0  0  0  0
  -28.6688  -11.8921   21.2996 H   0  0  0  0  0  0
  -28.4596  -13.5082   21.8860 H   0  0  0  0  0  0
  -25.2714   -9.5729   22.4737 H   0  0  0  0  0  0
  -23.9960   -7.4678   22.7487 H   0  0  0  0  0  0
  -21.0778   -8.8747   19.8976 H   0  0  0  0  0  0
  -22.3598  -10.9653   19.6160 H   0  0  0  0  0  0
  -21.2018   -7.6150   23.9695 H   0  0  0  0  0  0
  -21.1475   -6.0528   25.9060 H   0  0  0  0  0  0
  -22.0592   -2.7610   23.2830 H   0  0  0  0  0  0
  -22.4025  -12.0024   22.4868 H   0  0  0  0  0  0
  -21.1070  -13.1394   22.2465 H   0  0  0  0  0  0
  -24.6881  -15.8517   20.5068 H   0  0  0  0  0  0
  -26.2929  -15.6006   20.0452 H   0  0  0  0  0  0
  -26.7121  -32.5505   23.1136 H   0  0  0  0  0  0
  -25.0026  -33.9780   25.0417 H   0  0  0  0  0  0
  -22.6856  -31.2992   21.4088 H   0  0  0  0  0  0
  -23.3746  -35.9663   23.3300 H   0  0  0  0  0  0
  -24.3582  -36.8922   22.2050 H   0  0  0  0  0  0
  -23.7263  -37.6523   23.6647 H   0  0  0  0  0  0
  -26.0449  -31.5871   20.5888 H   0  0  0  0  0  0
  -26.8190  -30.8788   21.9787 H   0  0  0  0  0  0
  -28.0948  -29.0929   21.1516 H   0  0  0  0  0  0
  -26.0077  -25.9653   19.0037 H   0  0  0  0  0  0
  -23.9685  -27.2891   19.0339 H   0  0  0  0  0  0
  -23.6937  -30.5705   19.3951 H   0  0  0  0  0  0
  -22.7279  -29.2129   19.8930 H   0  0  0  0  0  0
  -25.1290  -36.1970   25.0820 H   0  0  0  0  0  0
  -20.9955  -28.3191   24.1486 H   0  0  0  0  0  0
  -20.5672  -26.2244   23.3609 H   0  0  0  0  0  0
  -21.6621  -26.7455   22.1206 H   0  0  0  0  0  0
  -19.6889  -25.6307   21.1220 H   0  0  0  0  0  0
  -19.6667  -27.3215   20.6782 H   0  0  0  0  0  0
  -17.4199  -26.6736   21.4006 H   0  0  0  0  0  0
  -18.0276  -26.0050   22.9010 H   0  0  0  0  0  0
  -19.7906  -30.7281   24.2271 H   0  0  0  0  0  0
  -17.4978  -31.6253   24.5185 H   0  0  0  0  0  0
  -15.5327  -30.2954   23.7665 H   0  0  0  0  0  0
  -15.8664  -28.0788   22.7080 H   0  0  0  0  0  0
  -24.5918  -30.7047   25.7809 H   0  0  0  0  0  0
  -24.8941  -32.2865   26.4939 H   0  0  0  0  0  0
  -25.8126  -30.8873   27.0216 H   0  0  0  0  0  0
  -26.2835  -29.6834   24.1117 H   0  0  0  0  0  0
  -27.3982  -29.7249   25.4569 H   0  0  0  0  0  0
  -27.8701  -30.4304   23.9285 H   0  0  0  0  0  0
  -27.2681  -33.3606   26.2093 H   0  0  0  0  0  0
  -28.3864  -32.6932   25.0315 H   0  0  0  0  0  0
  -28.0752  -31.8443   26.5364 H   0  0  0  0  0  0
  -28.2619  -38.0102   24.7504 H   0  0  0  0  0  0
  -28.1080  -36.2644   24.6308 H   0  0  0  0  0  0
  -27.2314  -37.1476   25.8871 H   0  0  0  0  0  0
  -20.9345  -29.8717   21.6974 H   0  0  0  0  0  0
  -26.0187  -38.2869   24.1397 H   0  0  0  0  0  0
  -25.8828  -22.5760   18.5849 H   0  0  0  0  0  0
  -24.9024  -21.2183   19.0654 H   0  0  0  0  0  0
  -26.2622  -20.9609   17.9877 H   0  0  0  0  0  0
  -31.7254  -18.1450   20.8972 H   0  0  0  0  0  0
  -31.7318  -17.2318   22.3940 H   0  0  0  0  0  0
  -31.4054  -18.9561   22.4232 H   0  0  0  0  0  0
  -29.0729  -18.4582   23.6584 H   0  0  0  0  0  0
  -29.5701  -16.7766   23.6317 H   0  0  0  0  0  0
  -28.0192  -17.2359   22.9647 H   0  0  0  0  0  0
  -28.6381  -24.2068   20.9985 H   0  0  0  0  0  0
  -27.0733  -24.2532   20.2347 H   0  0  0  0  0  0
  -29.5166  -19.1351   19.9771 H   0  0  0  0  0  0
  -29.3600  -19.9106   21.5513 H   0  0  0  0  0  0
  -29.9521  -16.6819   19.8047 H   0  0  0  0  0  0
  -28.4709  -16.3035   20.6353 H   0  0  0  0  0  0
  -29.6014  -23.0263   19.0077 H   0  0  0  0  0  0
  -28.0639  -23.0344   18.2089 H   0  0  0  0  0  0
  -28.0761  -25.6364   18.3310 H   0  0  0  0  0  0
  -29.6266  -25.4660   19.0619 H   0  0  0  0  0  0
  -26.4844  -21.9101   20.8901 H   0  0  0  0  0  0
  -27.2703  -18.0485   21.2001 H   0  0  0  0  0  0
  -30.6969  -15.5529   22.1917 H   0  0  0  0  0  0
  -28.7475  -21.6296   20.7180 H   0  0  0  0  0  0
  -28.6593  -20.9647   19.2403 H   0  0  0  0  0  0
  1 25  1  0  0  0
  1 30  2  0  0  0
  1 83  1  0  0  0
  2  3  1  0  0  0
  2 25  1  0  0  0
  2 86  1  0  0  0
  2 87  1  0  0  0
  3  4  1  0  0  0
  3 88  1  0  0  0
  3 89  1  0  0  0
  4  5  1  0  0  0
  4 90  1  0  0  0
  4 91  1  0  0  0
  5  6  1  0  0  0
  5 26  1  0  0  0
  5 92  1  0  0  0
  6 25  1  0  0  0
  6 93  1  0  0  0
  6 94  1  0  0  0
  7  8  2  0  0  0
  7 26  1  0  0  0
  7 29  1  0  0  0
  8  9  1  0  0  0
  8 22  1  0  0  0
  9 10  1  0  0  0
  9 27  2  0  0  0
 10 11  2  0  0  0
 10 15  1  0  0  0
 11 12  1  0  0  0
 11 95  1  0  0  0
 12 13  2  0  0  0
 12 96  1  0  0  0
 13 14  1  0  0  0
 13 31  1  0  0  0
 14 15  2  0  0  0
 14 97  1  0  0  0
 15 98  1  0  0  0
 16 17  2  0  0  0
 16 21  1  0  0  0
 16 31  1  0  0  0
 17 18  1  0  0  0
 17 99  1  0  0  0
 18 19  2  0  0  0
 18100  1  0  0  0
 19 20  1  0  0  0
 19 24  1  0  0  0
 20 21  2  0  0  0
 20101  1  0  0  0
 21 23  1  0  0  0
 22 28  1  0  0  0
 22 32  2  0  0  0
 26 27  1  0  0  0
 28102  1  0  0  0
 28103  1  0  0  0
 29104  1  0  0  0
 29105  1  0  0  0
 33 34  1  0  0  0
 33 66  1  0  0  0
 33 70  2  0  0  0
 34 36  1  0  0  0
 34 59  1  0  0  0
 34106  1  0  0  0
 35 44  2  0  0  0
 35 45  1  0  0  0
 35 68  1  0  0  0
 36 56  1  0  0  0
 36107  1  0  0  0
 37 39  1  0  0  0
 37 47  1  0  0  0
 37 66  1  0  0  0
 37108  1  0  0  0
 38 43  2  0  0  0
 38 46  1  0  0  0
 38 47  1  0  0  0
 39 64  1  0  0  0
 39 67  2  0  0  0
 40 52  1  0  0  0
 40 53  2  0  0  0
 40 58  1  0  0  0
 41109  1  0  0  0
 41110  1  0  0  0
 41111  1  0  0  0
 41 48  1  0  0  0
 42 43  1  0  0  0
 42 66  1  0  0  0
 42112  1  0  0  0
 42113  1  0  0  0
 43 44  1  0  0  0
 44114  1  0  0  0
 45 46  2  0  0  0
 45115  1  0  0  0
 46116  1  0  0  0
 47117  1  0  0  0
 47118  1  0  0  0
 48 56  1  0  0  0
 48 65  1  0  0  0
 48119  1  0  0  0
 49 50  1  0  0  0
 49 53  1  0  0  0
 49 64  1  0  0  0
 49120  1  0  0  0
 50 51  1  0  0  0
 50121  1  0  0  0
 50122  1  0  0  0
 51 52  1  0  0  0
 51123  1  0  0  0
 51124  1  0  0  0
 52125  1  0  0  0
 52126  1  0  0  0
 53 54  1  0  0  0
 54 55  2  0  0  0
 54127  1  0  0  0
 55 57  1  0  0  0
 55128  1  0  0  0
 56 69  2  0  0  0
 57 58  2  0  0  0
 57129  1  0  0  0
 58130  1  0  0  0
 59 60  1  0  0  0
 59 61  1  0  0  0
 59 62  1  0  0  0
 60131  1  0  0  0
 60132  1  0  0  0
 60133  1  0  0  0
 61134  1  0  0  0
 61135  1  0  0  0
 61136  1  0  0  0
 62137  1  0  0  0
 62138  1  0  0  0
 62139  1  0  0  0
 63 65  1  0  0  0
 63140  1  0  0  0
 63141  1  0  0  0
 63142  1  0  0  0
 64143  1  0  0  0
 65144  1  0  0  0
 68 79  1  0  0  0
 71 80  1  0  0  0
 71 82  1  0  0  0
 71 85  2  0  0  0
 72145  1  0  0  0
 72146  1  0  0  0
 72147  1  0  0  0
 72 80  1  0  0  0
 73148  1  0  0  0
 73149  1  0  0  0
 73150  1  0  0  0
 73 81  1  0  0  0
 74 81  1  0  0  0
 74151  1  0  0  0
 74152  1  0  0  0
 74153  1  0  0  0
 75 78  1  0  0  0
 75 79  1  0  0  0
 75154  1  0  0  0
 75155  1  0  0  0
 76 81  1  0  0  0
 76 82  1  0  0  0
 76156  1  0  0  0
 76157  1  0  0  0
 77 81  1  0  0  0
 77 83  1  0  0  0
 77158  1  0  0  0
 77159  1  0  0  0
 78 84  1  0  0  0
 78160  1  0  0  0
 78161  1  0  0  0
 79162  1  0  0  0
 79163  1  0  0  0
 80 84  1  0  0  0
 80164  1  0  0  0
 82165  1  0  0  0
 83166  1  0  0  0
 84167  1  0  0  0
 84168  1  0  0  0
M  CHG  1  84   1
M  ISO  4   1 100  68 101  79 101  83 100
M  END
> <chiral flag>
0

> <version>
0

> <s_m_source_file>
/data/baiqing/PycharmProjects/Reinvent-master-3.2/result/LINK_invent/BTK/process_docking_weight1_custom_product_contain_oxygen_bond_distance_aromatic_linkinvent_7_9_3/rearranged_h_0007.sdf

> <i_m_source_file_index>
64

> <r_mmod_Potential_Energy-OPLS-2005>
-290.563751220703

> <r_mmod_Stretch_Energy-OPLS-2005>
38.2353477478027

> <r_mmod_Bend_Energy-OPLS-2005>
142.710174560547

> <r_mmod_Torsional_Energy-OPLS-2005>
293.895172119141

> <r_mmod_Improper_Torsional_Energy-OPLS-2005>
7.04571437835693

> <r_mmod_Van_der_Waal_Energy-OPLS-2005>
135.385040283203

> <r_mmod_Electrostatic_Energy-OPLS-2005>
-426.244354248047

> <r_mmod_Solvation_Energy-OPLS-2005>
-491.043029785156

> <b_mmod_Minimization_Converged-OPLS-2005>
0

> <r_mmod_RMS_Derivative-OPLS-2005>
3.41613578796387

$$$$
64
                    3D
 Structure written by MMmdl.
162170  0  0  1  0            999 V2000
  -30.6043  -14.8637   20.4130 C   0  0  0  0  0  0
  -30.4375  -12.5298   19.5087 C   0  0  0  0  0  0
  -29.5278  -12.5141   18.2592 C   0  0  0  0  0  0
  -28.0516  -12.3329   18.6718 C   0  0  0  0  0  0
  -27.6385  -13.2530   19.8509 C   0  0  2  0  0  0
  -28.6826  -13.2546   20.9896 C   0  0  0  0  0  0
  -25.2529  -13.8253   20.5779 C   0  0  0  0  0  0
  -24.1822  -13.0477   20.9224 C   0  0  0  0  0  0
  -24.6415  -11.6965   20.8774 C   0  0  0  0  0  0
  -23.9094  -10.4328   21.0437 C   0  0  0  0  0  0
  -24.3635   -9.4231   21.9212 C   0  0  0  0  0  0
  -23.6300   -8.2272   22.0759 C   0  0  0  0  0  0
  -22.4274   -8.0304   21.3578 C   0  0  0  0  0  0
  -21.9916   -9.0281   20.4691 C   0  0  0  0  0  0
  -22.7252  -10.2158   20.3106 C   0  0  0  0  0  0
  -21.6818   -6.0766   22.5287 C   0  0  0  0  0  0
  -21.4012   -6.5664   23.8233 C   0  0  0  0  0  0
  -21.3656   -5.6801   24.9182 C   0  0  0  0  0  0
  -21.6019   -4.3063   24.7215 C   0  0  0  0  0  0
  -21.8810   -3.8171   23.4325 C   0  0  0  0  0  0
  -21.9192   -4.7004   22.3384 C   0  0  0  0  0  0
  -22.7835  -13.5254   21.1864 C   0  0  0  0  0  0
  -22.1664   -4.2213   21.0952 F   0  0  0  0  0  0
  -21.5620   -3.4542   25.7724 F   0  0  0  0  0  0
  -29.9711  -13.6322   20.3947 N   0  0  0  0  0  0
  -26.2948  -12.9487   20.3319 N   0  0  0  0  0  0
  -25.9360  -11.6626   20.5779 N   0  0  0  0  0  0
  -22.0432  -12.8272   22.0418 N   0  0  0  0  0  0
  -25.4215  -15.1978   20.4230 N   0  0  0  0  0  0
  -31.8108  -14.8677   20.1497 O   0  0  0  0  0  0
  -21.6629   -6.8905   21.4255 O   0  0  0  0  0  0
  -22.3553  -14.5559   20.6695 O   0  0  0  0  0  0
  -24.6368  -31.8488   23.1905 C   0  0  0  0  0  0
  -25.9150  -32.4739   23.8271 C   0  0  1  0  0  0
  -27.2240  -27.1834   20.1461 C   0  0  0  0  0  0
  -25.5921  -33.8529   24.2195 N   0  0  0  0  0  0
  -23.4387  -30.4681   21.5376 C   0  0  2  0  0  0
  -24.8866  -28.8990   20.1121 C   0  0  0  0  0  0
  -22.7518  -29.4575   22.4888 C   0  0  0  0  0  0
  -18.0312  -28.1418   22.8492 C   0  0  0  0  0  0
  -24.1477  -36.7251   23.2632 C   0  0  0  0  0  0
  -25.9895  -30.7354   21.3850 C   0  0  0  0  0  0
  -26.0594  -29.3508   20.7271 C   0  0  0  0  0  0
  -27.2255  -28.5051   20.7329 C   0  0  0  0  0  0
  -26.0326  -26.8274   19.4765 C   0  0  0  0  0  0
  -24.8821  -27.6493   19.4727 C   0  0  0  0  0  0
  -23.6582  -29.7943   20.1569 C   0  0  0  0  0  0
  -25.4117  -36.3054   24.0307 C   0  0  1  0  0  0
  -20.5908  -28.3730   23.1258 C   0  0  2  0  0  0
  -20.6787  -26.9438   22.5422 C   0  0  0  0  0  0
  -19.5762  -26.6401   21.5232 C   0  0  0  0  0  0
  -18.1938  -26.7965   22.1645 C   0  0  0  0  0  0
  -19.1555  -28.8900   23.2870 C   0  0  0  0  0  0
  -18.9482  -30.1491   23.8902 C   0  0  0  0  0  0
  -17.6473  -30.6609   24.0578 C   0  0  0  0  0  0
  -25.9072  -34.9444   23.5063 C   0  0  0  0  0  0
  -16.5375  -29.9098   23.6352 C   0  0  0  0  0  0
  -16.7289  -28.6523   23.0373 C   0  0  0  0  0  0
  -26.4498  -31.6607   25.0707 C   0  0  0  0  0  0
  -25.3673  -31.3809   26.1405 C   0  0  0  0  0  0
  -27.0330  -30.3001   24.6260 C   0  0  0  0  0  0
  -27.6048  -32.4351   25.7482 C   0  0  0  0  0  0
  -27.5584  -37.1770   24.8449 C   0  0  0  0  0  0
  -21.4232  -29.3052   22.3623 N   0  0  0  0  0  0
  -26.4281  -37.3771   23.9417 N   0  0  0  0  0  0
  -24.7071  -31.0362   22.0943 N   0  0  0  0  0  0
  -23.4200  -28.8129   23.3020 O   0  0  0  0  0  0
  -28.3200  -26.2632   20.2458 O   0  0  0  0  0  0
  -26.5666  -34.8928   22.4652 O   0  0  0  0  0  0
  -23.5501  -32.1355   23.7187 O   0  0  0  0  0  0
  -30.6914  -20.0405   20.3340 C   0  0  0  0  0  0
  -28.3019  -19.5351   20.6666 C   0  0  0  0  0  0
  -30.3282  -21.5720   20.0368 C   0  0  0  0  0  0
  -27.9733  -21.1189   20.4966 C   0  0  0  0  0  0
  -29.5892  -18.9825   19.9355 C   0  0  2  0  0  0
  -31.3465  -17.4228   18.8840 C   0  0  0  0  0  0
  -28.9729  -16.9875   18.4223 C   0  0  0  0  0  0
  -28.9234  -23.6398   20.9770 C   0  0  0  0  0  0
  -28.2603  -24.7487   19.9472 C   0  0  0  0  0  0
  -29.9573  -17.3605   19.5621 C   0  0  0  0  0  0
  -29.8688  -16.0757   20.4664 N   0  0  0  0  0  0
  -29.1131  -22.0791   20.7568 N   0  3  2  0  0  0
  -31.4832  -12.6375   19.2159 H   0  0  0  0  0  0
  -30.3850  -11.5801   20.0419 H   0  0  0  0  0  0
  -29.8325  -11.7105   17.5856 H   0  0  0  0  0  0
  -29.6518  -13.4410   17.6960 H   0  0  0  0  0  0
  -27.9198  -11.2879   18.9574 H   0  0  0  0  0  0
  -27.3955  -12.5025   17.8168 H   0  0  0  0  0  0
  -27.6093  -14.2646   19.4451 H   0  0  0  0  0  0
  -28.7506  -12.2729   21.4589 H   0  0  0  0  0  0
  -28.4067  -13.9561   21.7776 H   0  0  0  0  0  0
  -25.2809   -9.5700   22.4762 H   0  0  0  0  0  0
  -24.0039   -7.4637   22.7430 H   0  0  0  0  0  0
  -21.0855   -8.8784   19.8969 H   0  0  0  0  0  0
  -22.3733  -10.9680   19.6194 H   0  0  0  0  0  0
  -21.2024   -7.6178   23.9761 H   0  0  0  0  0  0
  -21.1473   -6.0533   25.9092 H   0  0  0  0  0  0
  -22.0607   -2.7646   23.2782 H   0  0  0  0  0  0
  -22.3990  -11.9960   22.4900 H   0  0  0  0  0  0
  -21.1035  -13.1336   22.2534 H   0  0  0  0  0  0
  -24.6569  -15.8515   20.5454 H   0  0  0  0  0  0
  -26.2658  -15.6290   20.0746 H   0  0  0  0  0  0
  -26.7223  -32.5369   23.1009 H   0  0  0  0  0  0
  -25.0034  -33.9650   25.0322 H   0  0  0  0  0  0
  -22.7425  -31.2948   21.3859 H   0  0  0  0  0  0
  -23.3785  -35.9527   23.3242 H   0  0  0  0  0  0
  -24.3572  -36.8949   22.2058 H   0  0  0  0  0  0
  -23.7175  -37.6404   23.6710 H   0  0  0  0  0  0
  -26.1361  -31.4919   20.6147 H   0  0  0  0  0  0
  -26.8644  -30.7886   22.0195 H   0  0  0  0  0  0
  -28.1197  -28.8373   21.2411 H   0  0  0  0  0  0
  -25.9548  -25.8837   18.9582 H   0  0  0  0  0  0
  -23.9866  -27.3053   18.9724 H   0  0  0  0  0  0
  -23.7840  -30.5670   19.3972 H   0  0  0  0  0  0
  -22.7770  -29.2269   19.8517 H   0  0  0  0  0  0
  -25.1302  -36.1892   25.0794 H   0  0  0  0  0  0
  -21.0013  -28.3341   24.1373 H   0  0  0  0  0  0
  -20.5734  -26.2328   23.3628 H   0  0  0  0  0  0
  -21.6651  -26.7485   22.1193 H   0  0  0  0  0  0
  -19.6906  -25.6310   21.1268 H   0  0  0  0  0  0
  -19.6689  -27.3209   20.6758 H   0  0  0  0  0  0
  -17.4206  -26.6728   21.4050 H   0  0  0  0  0  0
  -18.0331  -26.0115   22.9043 H   0  0  0  0  0  0
  -19.7949  -30.7308   24.2270 H   0  0  0  0  0  0
  -17.5034  -31.6297   24.5155 H   0  0  0  0  0  0
  -15.5376  -30.3009   23.7673 H   0  0  0  0  0  0
  -15.8688  -28.0836   22.7099 H   0  0  0  0  0  0
  -24.5817  -30.7211   25.7716 H   0  0  0  0  0  0
  -24.8905  -32.3007   26.4799 H   0  0  0  0  0  0
  -25.7931  -30.8981   27.0206 H   0  0  0  0  0  0
  -26.2917  -29.6775   24.1245 H   0  0  0  0  0  0
  -27.3921  -29.7268   25.4818 H   0  0  0  0  0  0
  -27.8844  -30.4241   23.9560 H   0  0  0  0  0  0
  -27.2666  -33.3689   26.1974 H   0  0  0  0  0  0
  -28.3894  -32.6851   25.0330 H   0  0  0  0  0  0
  -28.0652  -31.8521   26.5470 H   0  0  0  0  0  0
  -28.2567  -38.0111   24.7600 H   0  0  0  0  0  0
  -28.1126  -36.2656   24.6157 H   0  0  0  0  0  0
  -27.2306  -37.1275   25.8848 H   0  0  0  0  0  0
  -20.9433  -29.8707   21.6760 H   0  0  0  0  0  0
  -26.0158  -38.2822   24.1505 H   0  0  0  0  0  0
  -30.9425  -19.9205   21.3878 H   0  0  0  0  0  0
  -31.6149  -19.8437   19.7957 H   0  0  0  0  0  0
  -27.4337  -18.9788   20.3122 H   0  0  0  0  0  0
  -28.3767  -19.2982   21.7288 H   0  0  0  0  0  0
  -30.1786  -21.7149   18.9645 H   0  0  0  0  0  0
  -31.1797  -22.2023   20.2968 H   0  0  0  0  0  0
  -27.1505  -21.3808   21.1624 H   0  0  0  0  0  0
  -27.6034  -21.3034   19.4870 H   0  0  0  0  0  0
  -29.3972  -19.3458   18.9257 H   0  0  0  0  0  0
  -31.4188  -18.2606   18.1900 H   0  0  0  0  0  0
  -31.5575  -16.5389   18.2818 H   0  0  0  0  0  0
  -32.1516  -17.5291   19.6143 H   0  0  0  0  0  0
  -29.0376  -17.6705   17.5739 H   0  0  0  0  0  0
  -27.9389  -16.9983   18.7641 H   0  0  0  0  0  0
  -29.1744  -15.9920   18.0187 H   0  0  0  0  0  0
  -28.3618  -23.7381   21.9097 H   0  0  0  0  0  0
  -29.9197  -24.0138   21.2332 H   0  0  0  0  0  0
  -27.2344  -24.4290   19.7669 H   0  0  0  0  0  0
  -28.7718  -24.6328   18.9865 H   0  0  0  0  0  0
  -28.9518  -15.9352   20.8650 H   0  0  0  0  0  0
  -29.3521  -21.8198   21.7047 H   0  0  0  0  0  0
  1 25  1  0  0  0
  1 30  2  0  0  0
  1 81  1  0  0  0
  2  3  1  0  0  0
  2 25  1  0  0  0
  2 83  1  0  0  0
  2 84  1  0  0  0
  3  4  1  0  0  0
  3 85  1  0  0  0
  3 86  1  0  0  0
  4  5  1  0  0  0
  4 87  1  0  0  0
  4 88  1  0  0  0
  5  6  1  0  0  0
  5 26  1  0  0  0
  5 89  1  0  0  0
  6 25  1  0  0  0
  6 90  1  0  0  0
  6 91  1  0  0  0
  7  8  2  0  0  0
  7 26  1  0  0  0
  7 29  1  0  0  0
  8  9  1  0  0  0
  8 22  1  0  0  0
  9 10  1  0  0  0
  9 27  2  0  0  0
 10 11  2  0  0  0
 10 15  1  0  0  0
 11 12  1  0  0  0
 11 92  1  0  0  0
 12 13  2  0  0  0
 12 93  1  0  0  0
 13 14  1  0  0  0
 13 31  1  0  0  0
 14 15  2  0  0  0
 14 94  1  0  0  0
 15 95  1  0  0  0
 16 17  2  0  0  0
 16 21  1  0  0  0
 16 31  1  0  0  0
 17 18  1  0  0  0
 17 96  1  0  0  0
 18 19  2  0  0  0
 18 97  1  0  0  0
 19 20  1  0  0  0
 19 24  1  0  0  0
 20 21  2  0  0  0
 20 98  1  0  0  0
 21 23  1  0  0  0
 22 28  1  0  0  0
 22 32  2  0  0  0
 26 27  1  0  0  0
 28 99  1  0  0  0
 28100  1  0  0  0
 29101  1  0  0  0
 29102  1  0  0  0
 33 34  1  0  0  0
 33 66  1  0  0  0
 33 70  2  0  0  0
 34 36  1  0  0  0
 34 59  1  0  0  0
 34103  1  0  0  0
 35 44  2  0  0  0
 35 45  1  0  0  0
 35 68  1  0  0  0
 36 56  1  0  0  0
 36104  1  0  0  0
 37 39  1  0  0  0
 37 47  1  0  0  0
 37 66  1  0  0  0
 37105  1  0  0  0
 38 43  2  0  0  0
 38 46  1  0  0  0
 38 47  1  0  0  0
 39 64  1  0  0  0
 39 67  2  0  0  0
 40 52  1  0  0  0
 40 53  2  0  0  0
 40 58  1  0  0  0
 41106  1  0  0  0
 41107  1  0  0  0
 41108  1  0  0  0
 41 48  1  0  0  0
 42 43  1  0  0  0
 42 66  1  0  0  0
 42109  1  0  0  0
 42110  1  0  0  0
 43 44  1  0  0  0
 44111  1  0  0  0
 45 46  2  0  0  0
 45112  1  0  0  0
 46113  1  0  0  0
 47114  1  0  0  0
 47115  1  0  0  0
 48 56  1  0  0  0
 48 65  1  0  0  0
 48116  1  0  0  0
 49 50  1  0  0  0
 49 53  1  0  0  0
 49 64  1  0  0  0
 49117  1  0  0  0
 50 51  1  0  0  0
 50118  1  0  0  0
 50119  1  0  0  0
 51 52  1  0  0  0
 51120  1  0  0  0
 51121  1  0  0  0
 52122  1  0  0  0
 52123  1  0  0  0
 53 54  1  0  0  0
 54 55  2  0  0  0
 54124  1  0  0  0
 55 57  1  0  0  0
 55125  1  0  0  0
 56 69  2  0  0  0
 57 58  2  0  0  0
 57126  1  0  0  0
 58127  1  0  0  0
 59 60  1  0  0  0
 59 61  1  0  0  0
 59 62  1  0  0  0
 60128  1  0  0  0
 60129  1  0  0  0
 60130  1  0  0  0
 61131  1  0  0  0
 61132  1  0  0  0
 61133  1  0  0  0
 62134  1  0  0  0
 62135  1  0  0  0
 62136  1  0  0  0
 63 65  1  0  0  0
 63137  1  0  0  0
 63138  1  0  0  0
 63139  1  0  0  0
 64140  1  0  0  0
 65141  1  0  0  0
 68 79  1  0  0  0
 71 73  1  0  0  0
 71142  1  0  0  0
 71143  1  0  0  0
 71 75  1  0  0  0
 72 74  1  0  0  0
 72 75  1  0  0  0
 72144  1  0  0  0
 72145  1  0  0  0
 73 82  1  0  0  0
 73146  1  0  0  0
 73147  1  0  0  0
 74 82  1  0  0  0
 74148  1  0  0  0
 74149  1  0  0  0
 75 80  1  0  0  0
 75150  1  0  0  0
 76151  1  0  0  0
 76152  1  0  0  0
 76153  1  0  0  0
 76 80  1  0  0  0
 77 80  1  0  0  0
 77154  1  0  0  0
 77155  1  0  0  0
 77156  1  0  0  0
 78 79  1  0  0  0
 78157  1  0  0  0
 78158  1  0  0  0
 78 82  1  0  0  0
 79159  1  0  0  0
 79160  1  0  0  0
 80 81  1  0  0  0
 81161  1  0  0  0
 82162  1  0  0  0
M  CHG  1  82   1
M  ISO  4   1 100  68 101  79 101  81 100
M  END
> <chiral flag>
0

> <version>
0

> <s_m_source_file>
/data/baiqing/PycharmProjects/Reinvent-master-3.2/result/LINK_invent/BTK/process_docking_weight1_custom_product_contain_oxygen_bond_distance_aromatic_linkinvent_7_9_3/rearranged_h_0007.sdf

> <i_m_source_file_index>
65

> <r_mmod_Potential_Energy-OPLS-2005>
421.246429443359

> <r_mmod_Stretch_Energy-OPLS-2005>
213.947479248047

> <r_mmod_Bend_Energy-OPLS-2005>
327.595489501953

> <r_mmod_Torsional_Energy-OPLS-2005>
283.344421386719

> <r_mmod_Improper_Torsional_Energy-OPLS-2005>
7.60928535461426

> <r_mmod_Van_der_Waal_Energy-OPLS-2005>
127.470230102539

> <r_mmod_Electrostatic_Energy-OPLS-2005>
-245.007339477539

> <r_mmod_Solvation_Energy-OPLS-2005>
-435.210266113281

> <b_mmod_Minimization_Converged-OPLS-2005>
0

> <r_mmod_RMS_Derivative-OPLS-2005>
5.67602109909058

$$$$
65
                    3D
 Structure written by MMmdl.
148156  0  0  1  0            999 V2000
  -30.5182  -14.9243   20.4273 C   0  0  0  0  0  0
  -30.4485  -12.5676   19.5002 C   0  0  0  0  0  0
  -29.5256  -12.5341   18.2581 C   0  0  0  0  0  0
  -28.0559  -12.3244   18.6711 C   0  0  0  0  0  0
  -27.6374  -13.2425   19.8489 C   0  0  2  0  0  0
  -28.6796  -13.2319   20.9887 C   0  0  0  0  0  0
  -25.2490  -13.8205   20.5707 C   0  0  0  0  0  0
  -24.1793  -13.0436   20.9212 C   0  0  0  0  0  0
  -24.6401  -11.6919   20.8745 C   0  0  0  0  0  0
  -23.9080  -10.4292   21.0404 C   0  0  0  0  0  0
  -24.3627   -9.4208   21.9183 C   0  0  0  0  0  0
  -23.6298   -8.2244   22.0754 C   0  0  0  0  0  0
  -22.4280   -8.0283   21.3545 C   0  0  0  0  0  0
  -21.9918   -9.0257   20.4646 C   0  0  0  0  0  0
  -22.7251  -10.2134   20.3054 C   0  0  0  0  0  0
  -21.6855   -6.0737   22.5279 C   0  0  0  0  0  0
  -21.4015   -6.5641   23.8213 C   0  0  0  0  0  0
  -21.3660   -5.6793   24.9174 C   0  0  0  0  0  0
  -21.6044   -4.3056   24.7225 C   0  0  0  0  0  0
  -21.8819   -3.8148   23.4346 C   0  0  0  0  0  0
  -21.9193   -4.6965   22.3402 C   0  0  0  0  0  0
  -22.7813  -13.5212   21.1871 C   0  0  0  0  0  0
  -22.1662   -4.2151   21.0980 F   0  0  0  0  0  0
  -21.5628   -3.4539   25.7737 F   0  0  0  0  0  0
  -29.9639  -13.6466   20.4064 N   0  0  0  0  0  0
  -26.2921  -12.9428   20.3276 N   0  0  0  0  0  0
  -25.9336  -11.6561   20.5746 N   0  0  0  0  0  0
  -22.0465  -12.8199   22.0428 N   0  0  0  0  0  0
  -25.4163  -15.1932   20.4141 N   0  0  0  0  0  0
  -31.6994  -15.0452   20.0829 O   0  0  0  0  0  0
  -21.6642   -6.8881   21.4242 O   0  0  0  0  0  0
  -22.3492  -14.5516   20.6719 O   0  0  0  0  0  0
  -24.6426  -31.8438   23.1879 C   0  0  0  0  0  0
  -25.9201  -32.4692   23.8268 C   0  0  1  0  0  0
  -27.2223  -27.1392   20.1425 C   0  0  0  0  0  0
  -25.5951  -33.8498   24.2185 N   0  0  0  0  0  0
  -23.4460  -30.4626   21.5332 C   0  0  2  0  0  0
  -24.8954  -28.8895   20.1072 C   0  0  0  0  0  0
  -22.7563  -29.4543   22.4859 C   0  0  0  0  0  0
  -18.0303  -28.1395   22.8479 C   0  0  0  0  0  0
  -24.1491  -36.7253   23.2642 C   0  0  0  0  0  0
  -26.0011  -30.7171   21.3868 C   0  0  0  0  0  0
  -26.0706  -29.3288   20.7274 C   0  0  0  0  0  0
  -27.2298  -28.4677   20.7317 C   0  0  0  0  0  0
  -26.0182  -26.7996   19.4846 C   0  0  0  0  0  0
  -24.8819  -27.6384   19.4725 C   0  0  0  0  0  0
  -23.6715  -29.7909   20.1521 C   0  0  0  0  0  0
  -25.4124  -36.3031   24.0316 C   0  0  1  0  0  0
  -20.5915  -28.3719   23.1238 C   0  0  2  0  0  0
  -20.6787  -26.9424   22.5404 C   0  0  0  0  0  0
  -19.5760  -26.6382   21.5213 C   0  0  0  0  0  0
  -18.1942  -26.7933   22.1627 C   0  0  0  0  0  0
  -19.1560  -28.8876   23.2850 C   0  0  0  0  0  0
  -18.9477  -30.1473   23.8875 C   0  0  0  0  0  0
  -17.6473  -30.6592   24.0559 C   0  0  0  0  0  0
  -25.9074  -34.9406   23.5060 C   0  0  0  0  0  0
  -16.5364  -29.9085   23.6336 C   0  0  0  0  0  0
  -16.7288  -28.6504   23.0358 C   0  0  0  0  0  0
  -26.4524  -31.6563   25.0712 C   0  0  0  0  0  0
  -25.3709  -31.3759   26.1410 C   0  0  0  0  0  0
  -27.0387  -30.2957   24.6298 C   0  0  0  0  0  0
  -27.6056  -32.4328   25.7496 C   0  0  0  0  0  0
  -27.5575  -37.1784   24.8466 C   0  0  0  0  0  0
  -21.4256  -29.3044   22.3609 N   0  0  0  0  0  0
  -26.4287  -37.3744   23.9408 N   0  0  0  0  0  0
  -24.7163  -31.0294   22.0911 N   0  0  0  0  0  0
  -23.4208  -28.8095   23.3011 O   0  0  0  0  0  0
  -28.2978  -26.1831   20.2513 O   0  0  0  0  0  0
  -26.5662  -34.8905   22.4640 O   0  0  0  0  0  0
  -23.5547  -32.1315   23.7102 O   0  0  0  0  0  0
  -30.4933  -18.3565   19.6582 C   0  0  0  0  0  0
  -28.5603  -19.8249   21.0345 C   0  0  0  0  0  0
  -29.6793  -17.5586   20.5240 C   0  0  0  0  0  0
  -29.3532  -20.6200   20.1431 C   0  0  0  0  0  0
  -30.3291  -19.7915   19.4747 C   0  0  0  0  0  0
  -28.7081  -18.3830   21.2002 C   0  0  0  0  0  0
  -28.3216  -24.7180   19.7170 C   0  0  0  0  0  0
  -28.5917  -23.2487   20.5102 C   0  0  0  0  0  0
  -29.6856  -16.0342   20.7086 N   0  0  0  0  0  0
  -29.2413  -22.0463   19.8039 O   0  0  0  0  0  0
  -31.1555  -20.3988   18.5893 F   0  0  0  0  0  0
  -27.8534  -17.7570   22.0444 F   0  0  0  0  0  0
  -31.4823  -12.7307   19.1917 H   0  0  0  0  0  0
  -30.4409  -11.6048   20.0137 H   0  0  0  0  0  0
  -29.8390  -11.7442   17.5741 H   0  0  0  0  0  0
  -29.6201  -13.4712   17.7072 H   0  0  0  0  0  0
  -27.9426  -11.2795   18.9621 H   0  0  0  0  0  0
  -27.3951  -12.4757   17.8167 H   0  0  0  0  0  0
  -27.6122  -14.2531   19.4405 H   0  0  0  0  0  0
  -28.7569  -12.2410   21.4389 H   0  0  0  0  0  0
  -28.3804  -13.9079   21.7911 H   0  0  0  0  0  0
  -25.2771   -9.5683   22.4760 H   0  0  0  0  0  0
  -24.0005   -7.4636   22.7475 H   0  0  0  0  0  0
  -21.0849   -8.8779   19.8952 H   0  0  0  0  0  0
  -22.3710  -10.9674   19.6164 H   0  0  0  0  0  0
  -21.2008   -7.6149   23.9716 H   0  0  0  0  0  0
  -21.1482   -6.0524   25.9077 H   0  0  0  0  0  0
  -22.0598   -2.7610   23.2846 H   0  0  0  0  0  0
  -22.4089  -11.9862   22.4814 H   0  0  0  0  0  0
  -21.1081  -13.1217   22.2636 H   0  0  0  0  0  0
  -24.6501  -15.8455   20.5392 H   0  0  0  0  0  0
  -26.2653  -15.6402   20.0942 H   0  0  0  0  0  0
  -26.7265  -32.5294   23.0994 H   0  0  0  0  0  0
  -25.0075  -33.9613   25.0317 H   0  0  0  0  0  0
  -22.7485  -31.2885   21.3788 H   0  0  0  0  0  0
  -23.3759  -35.9579   23.3293 H   0  0  0  0  0  0
  -24.3576  -36.8897   22.2059 H   0  0  0  0  0  0
  -23.7241  -37.6444   23.6687 H   0  0  0  0  0  0
  -26.1577  -31.4720   20.6150 H   0  0  0  0  0  0
  -26.8713  -30.7661   22.0297 H   0  0  0  0  0  0
  -28.1234  -28.7980   21.2425 H   0  0  0  0  0  0
  -25.8999  -25.8458   18.9982 H   0  0  0  0  0  0
  -23.9827  -27.2959   18.9789 H   0  0  0  0  0  0
  -23.8066  -30.5651   19.3960 H   0  0  0  0  0  0
  -22.7864  -29.2321   19.8428 H   0  0  0  0  0  0
  -25.1313  -36.1857   25.0808 H   0  0  0  0  0  0
  -21.0008  -28.3309   24.1359 H   0  0  0  0  0  0
  -20.5681  -26.2334   23.3622 H   0  0  0  0  0  0
  -21.6653  -26.7430   22.1201 H   0  0  0  0  0  0
  -19.6921  -25.6287   21.1255 H   0  0  0  0  0  0
  -19.6695  -27.3181   20.6733 H   0  0  0  0  0  0
  -17.4209  -26.6674   21.4033 H   0  0  0  0  0  0
  -18.0346  -26.0082   22.9031 H   0  0  0  0  0  0
  -19.7952  -30.7296   24.2233 H   0  0  0  0  0  0
  -17.5026  -31.6270   24.5165 H   0  0  0  0  0  0
  -15.5363  -30.2980   23.7673 H   0  0  0  0  0  0
  -15.8688  -28.0814   22.7087 H   0  0  0  0  0  0
  -24.5887  -30.7108   25.7731 H   0  0  0  0  0  0
  -24.8900  -32.2944   26.4783 H   0  0  0  0  0  0
  -25.7990  -30.8963   27.0221 H   0  0  0  0  0  0
  -26.3003  -29.6678   24.1300 H   0  0  0  0  0  0
  -27.3989  -29.7261   25.4875 H   0  0  0  0  0  0
  -27.8917  -30.4189   23.9622 H   0  0  0  0  0  0
  -27.2656  -33.3659   26.2001 H   0  0  0  0  0  0
  -28.3906  -32.6836   25.0349 H   0  0  0  0  0  0
  -28.0678  -31.8497   26.5471 H   0  0  0  0  0  0
  -28.2586  -38.0086   24.7511 H   0  0  0  0  0  0
  -28.1077  -36.2615   24.6296 H   0  0  0  0  0  0
  -27.2290  -37.1434   25.8869 H   0  0  0  0  0  0
  -20.9466  -29.8753   21.6784 H   0  0  0  0  0  0
  -26.0152  -38.2812   24.1410 H   0  0  0  0  0  0
  -31.2573  -17.8619   19.0776 H   0  0  0  0  0  0
  -27.7775  -20.3151   21.5926 H   0  0  0  0  0  0
  -27.4790  -24.5474   19.0542 H   0  0  0  0  0  0
  -29.1561  -24.7744   19.0182 H   0  0  0  0  0  0
  -27.6494  -22.9152   20.9451 H   0  0  0  0  0  0
  -29.2379  -23.4612   21.3619 H   0  0  0  0  0  0
  -28.8179  -15.7174   21.1150 H   0  0  0  0  0  0
  1 25  1  0  0  0
  1 30  2  0  0  0
  1 79  1  0  0  0
  2  3  1  0  0  0
  2 25  1  0  0  0
  2 83  1  0  0  0
  2 84  1  0  0  0
  3  4  1  0  0  0
  3 85  1  0  0  0
  3 86  1  0  0  0
  4  5  1  0  0  0
  4 87  1  0  0  0
  4 88  1  0  0  0
  5  6  1  0  0  0
  5 26  1  0  0  0
  5 89  1  0  0  0
  6 25  1  0  0  0
  6 90  1  0  0  0
  6 91  1  0  0  0
  7  8  2  0  0  0
  7 26  1  0  0  0
  7 29  1  0  0  0
  8  9  1  0  0  0
  8 22  1  0  0  0
  9 10  1  0  0  0
  9 27  2  0  0  0
 10 11  2  0  0  0
 10 15  1  0  0  0
 11 12  1  0  0  0
 11 92  1  0  0  0
 12 13  2  0  0  0
 12 93  1  0  0  0
 13 14  1  0  0  0
 13 31  1  0  0  0
 14 15  2  0  0  0
 14 94  1  0  0  0
 15 95  1  0  0  0
 16 17  2  0  0  0
 16 21  1  0  0  0
 16 31  1  0  0  0
 17 18  1  0  0  0
 17 96  1  0  0  0
 18 19  2  0  0  0
 18 97  1  0  0  0
 19 20  1  0  0  0
 19 24  1  0  0  0
 20 21  2  0  0  0
 20 98  1  0  0  0
 21 23  1  0  0  0
 22 28  1  0  0  0
 22 32  2  0  0  0
 26 27  1  0  0  0
 28 99  1  0  0  0
 28100  1  0  0  0
 29101  1  0  0  0
 29102  1  0  0  0
 33 34  1  0  0  0
 33 66  1  0  0  0
 33 70  2  0  0  0
 34 36  1  0  0  0
 34 59  1  0  0  0
 34103  1  0  0  0
 35 44  2  0  0  0
 35 45  1  0  0  0
 35 68  1  0  0  0
 36 56  1  0  0  0
 36104  1  0  0  0
 37 39  1  0  0  0
 37 47  1  0  0  0
 37 66  1  0  0  0
 37105  1  0  0  0
 38 43  2  0  0  0
 38 46  1  0  0  0
 38 47  1  0  0  0
 39 64  1  0  0  0
 39 67  2  0  0  0
 40 52  1  0  0  0
 40 53  2  0  0  0
 40 58  1  0  0  0
 41106  1  0  0  0
 41107  1  0  0  0
 41108  1  0  0  0
 41 48  1  0  0  0
 42 43  1  0  0  0
 42 66  1  0  0  0
 42109  1  0  0  0
 42110  1  0  0  0
 43 44  1  0  0  0
 44111  1  0  0  0
 45 46  2  0  0  0
 45112  1  0  0  0
 46113  1  0  0  0
 47114  1  0  0  0
 47115  1  0  0  0
 48 56  1  0  0  0
 48 65  1  0  0  0
 48116  1  0  0  0
 49 50  1  0  0  0
 49 53  1  0  0  0
 49 64  1  0  0  0
 49117  1  0  0  0
 50 51  1  0  0  0
 50118  1  0  0  0
 50119  1  0  0  0
 51 52  1  0  0  0
 51120  1  0  0  0
 51121  1  0  0  0
 52122  1  0  0  0
 52123  1  0  0  0
 53 54  1  0  0  0
 54 55  2  0  0  0
 54124  1  0  0  0
 55 57  1  0  0  0
 55125  1  0  0  0
 56 69  2  0  0  0
 57 58  2  0  0  0
 57126  1  0  0  0
 58127  1  0  0  0
 59 60  1  0  0  0
 59 61  1  0  0  0
 59 62  1  0  0  0
 60128  1  0  0  0
 60129  1  0  0  0
 60130  1  0  0  0
 61131  1  0  0  0
 61132  1  0  0  0
 61133  1  0  0  0
 62134  1  0  0  0
 62135  1  0  0  0
 62136  1  0  0  0
 63 65  1  0  0  0
 63137  1  0  0  0
 63138  1  0  0  0
 63139  1  0  0  0
 64140  1  0  0  0
 65141  1  0  0  0
 68 77  1  0  0  0
 71 73  2  0  0  0
 71 75  1  0  0  0
 71142  1  0  0  0
 72 74  1  0  0  0
 72 76  2  0  0  0
 72143  1  0  0  0
 73 76  1  0  0  0
 73 79  1  0  0  0
 74 75  2  0  0  0
 74 80  1  0  0  0
 75 81  1  0  0  0
 76 82  1  0  0  0
 77 78  1  0  0  0
 77144  1  0  0  0
 77145  1  0  0  0
 78 80  1  0  0  0
 78146  1  0  0  0
 78147  1  0  0  0
 79148  1  0  0  0
M  ISO  4   1 100  68 101  77 101  79 100
M  END
> <chiral flag>
0

> <version>
0

> <s_m_source_file>
/data/baiqing/PycharmProjects/Reinvent-master-3.2/result/LINK_invent/BTK/process_docking_weight1_custom_product_contain_oxygen_bond_distance_aromatic_linkinvent_7_9_3/rearranged_h_0007.sdf

> <i_m_source_file_index>
66

> <r_mmod_Potential_Energy-OPLS-2005>
455.152130126953

> <r_mmod_Stretch_Energy-OPLS-2005>
227.920120239258

> <r_mmod_Bend_Energy-OPLS-2005>
295.857421875

> <r_mmod_Torsional_Energy-OPLS-2005>
212.856811523438

> <r_mmod_Improper_Torsional_Energy-OPLS-2005>
3.46052241325378

> <r_mmod_Van_der_Waal_Energy-OPLS-2005>
130.192138671875

> <r_mmod_Electrostatic_Energy-OPLS-2005>
-386.322631835938

> <r_mmod_Solvation_Energy-OPLS-2005>
-209.379211425781

> <b_mmod_Minimization_Converged-OPLS-2005>
0

> <r_mmod_RMS_Derivative-OPLS-2005>
0.111098766326904

$$$$
66
                    3D
 Structure written by MMmdl.
143151  0  0  1  0            999 V2000
  -30.2219  -15.8375   20.3141 C   0  0  0  0  0  0
  -30.4090  -13.2330   19.5440 C   0  0  0  0  0  0
  -29.5582  -12.7074   18.3460 C   0  0  0  0  0  0
  -28.1476  -12.3060   18.7978 C   0  0  0  0  0  0
  -27.5884  -13.3279   19.8098 C   0  0  2  0  0  0
  -28.5901  -13.7465   20.9169 C   0  0  0  0  0  0
  -25.2286  -13.8311   20.5822 C   0  0  0  0  0  0
  -24.1697  -13.0433   20.9304 C   0  0  0  0  0  0
  -24.6427  -11.6953   20.8763 C   0  0  0  0  0  0
  -23.9134  -10.4293   21.0389 C   0  0  0  0  0  0
  -24.3663   -9.4207   21.9176 C   0  0  0  0  0  0
  -23.6319   -8.2250   22.0752 C   0  0  0  0  0  0
  -22.4299   -8.0291   21.3544 C   0  0  0  0  0  0
  -21.9949   -9.0266   20.4641 C   0  0  0  0  0  0
  -22.7297  -10.2135   20.3044 C   0  0  0  0  0  0
  -21.6861   -6.0743   22.5279 C   0  0  0  0  0  0
  -21.4020   -6.5644   23.8213 C   0  0  0  0  0  0
  -21.3661   -5.6794   24.9173 C   0  0  0  0  0  0
  -21.6044   -4.3057   24.7223 C   0  0  0  0  0  0
  -21.8818   -3.8151   23.4343 C   0  0  0  0  0  0
  -21.9194   -4.6969   22.3400 C   0  0  0  0  0  0
  -22.7705  -13.5148   21.1932 C   0  0  0  0  0  0
  -22.1662   -4.2154   21.0978 F   0  0  0  0  0  0
  -21.5628   -3.4540   25.7735 F   0  0  0  0  0  0
  -29.7306  -14.4332   20.2486 N   0  0  0  0  0  0
  -26.2755  -12.9680   20.3256 N   0  0  0  0  0  0
  -25.9381  -11.6729   20.5689 N   0  0  0  0  0  0
  -22.0376  -12.8119   22.0482 N   0  0  0  0  0  0
  -25.3845  -15.2056   20.4266 N   0  0  0  0  0  0
  -31.4620  -15.7395   20.1815 O   0  0  0  0  0  0
  -21.6652   -6.8892   21.4243 O   0  0  0  0  0  0
  -22.3375  -14.5445   20.6767 O   0  0  0  0  0  0
  -24.6965  -31.7832   23.1395 C   0  0  0  0  0  0
  -25.9484  -32.4380   23.7992 C   0  0  1  0  0  0
  -27.2308  -26.5516   20.2362 C   0  0  0  0  0  0
  -25.6007  -33.8215   24.1864 N   0  0  0  0  0  0
  -23.5292  -30.3779   21.4965 C   0  0  2  0  0  0
  -24.9877  -28.6840   20.1256 C   0  0  0  0  0  0
  -22.7821  -29.4225   22.4673 C   0  0  0  0  0  0
  -18.0346  -28.1430   22.8449 C   0  0  0  0  0  0
  -24.1497  -36.7116   23.2656 C   0  0  0  0  0  0
  -26.1147  -30.4639   21.4293 C   0  0  0  0  0  0
  -26.1758  -29.0097   20.7892 C   0  0  0  0  0  0
  -27.2714  -27.9740   20.8118 C   0  0  0  0  0  0
  -26.0134  -26.4767   19.5019 C   0  0  0  0  0  0
  -24.9534  -27.4444   19.4593 C   0  0  0  0  0  0
  -23.7921  -29.6591   20.1390 C   0  0  0  0  0  0
  -25.4152  -36.2844   24.0270 C   0  0  1  0  0  0
  -20.5987  -28.3795   23.1118 C   0  0  2  0  0  0
  -20.6803  -26.9442   22.5407 C   0  0  0  0  0  0
  -19.5782  -26.6368   21.5218 C   0  0  0  0  0  0
  -18.1965  -26.7955   22.1618 C   0  0  0  0  0  0
  -19.1615  -28.8940   23.2760 C   0  0  0  0  0  0
  -18.9519  -30.1520   23.8813 C   0  0  0  0  0  0
  -17.6507  -30.6608   24.0550 C   0  0  0  0  0  0
  -25.9142  -34.9238   23.4914 C   0  0  0  0  0  0
  -16.5396  -29.9088   23.6355 C   0  0  0  0  0  0
  -16.7326  -28.6511   23.0371 C   0  0  0  0  0  0
  -26.4618  -31.6477   25.0676 C   0  0  0  0  0  0
  -25.3649  -31.3839   26.1268 C   0  0  0  0  0  0
  -27.0574  -30.2797   24.6687 C   0  0  0  0  0  0
  -27.6038  -32.4376   25.7502 C   0  0  0  0  0  0
  -27.5558  -37.1713   24.8467 C   0  0  0  0  0  0
  -21.4456  -29.3012   22.3419 N   0  0  0  0  0  0
  -26.4265  -37.3621   23.9407 N   0  0  0  0  0  0
  -24.8051  -30.9128   22.0734 N   0  0  0  0  0  0
  -23.4198  -28.7854   23.3088 O   0  0  0  0  0  0
  -28.2177  -25.2977   20.2540 O   0  0  0  0  0  0
  -26.5802  -34.8845   22.4546 O   0  0  0  0  0  0
  -23.5955  -32.0982   23.6255 O   0  0  0  0  0  0
  -28.5893  -20.3841   20.3048 C   0  0  0  0  0  0
  -30.2422  -22.1128   20.2834 C   0  0  0  0  0  0
  -28.8295  -22.0195   20.2863 C   0  0  0  0  0  0
  -29.5386  -19.0323   20.3159 C   0  0  0  0  0  0
  -31.1571  -21.0000   20.2934 C   0  0  0  0  0  0
  -30.8472  -19.5896   20.3070 C   0  0  0  0  0  0
  -29.4405  -17.2445   20.3406 N   0  0  0  0  0  0
  -27.9534  -23.4468   20.2729 N   0  0  0  0  0  0
  -32.4738  -21.3206   20.2909 F   0  0  0  0  0  0
  -31.8944  -18.7314   20.3161 F   0  0  0  0  0  0
  -31.3859  -13.5250   19.1572 H   0  0  0  0  0  0
  -30.6210  -12.4281   20.2501 H   0  0  0  0  0  0
  -30.0547  -11.8646   17.8629 H   0  0  0  0  0  0
  -29.4846  -13.4933   17.5928 H   0  0  0  0  0  0
  -28.2118  -11.3257   19.2715 H   0  0  0  0  0  0
  -27.4812  -12.1953   17.9413 H   0  0  0  0  0  0
  -27.4235  -14.2214   19.2057 H   0  0  0  0  0  0
  -28.8970  -12.8992   21.5322 H   0  0  0  0  0  0
  -28.1167  -14.4571   21.5960 H   0  0  0  0  0  0
  -25.2801   -9.5680   22.4763 H   0  0  0  0  0  0
  -24.0017   -7.4644   22.7481 H   0  0  0  0  0  0
  -21.0879   -8.8796   19.8949 H   0  0  0  0  0  0
  -22.3756  -10.9676   19.6156 H   0  0  0  0  0  0
  -21.2016   -7.6153   23.9718 H   0  0  0  0  0  0
  -21.1484   -6.0524   25.9076 H   0  0  0  0  0  0
  -22.0595   -2.7613   23.2842 H   0  0  0  0  0  0
  -22.4027  -11.9798   22.4876 H   0  0  0  0  0  0
  -21.0979  -13.1104   22.2680 H   0  0  0  0  0  0
  -24.6098  -15.8509   20.5386 H   0  0  0  0  0  0
  -26.2215  -15.6492   20.0734 H   0  0  0  0  0  0
  -26.7577  -32.4815   23.0708 H   0  0  0  0  0  0
  -25.0043  -33.9229   24.9944 H   0  0  0  0  0  0
  -22.8628  -31.2186   21.2930 H   0  0  0  0  0  0
  -23.3779  -35.9423   23.3255 H   0  0  0  0  0  0
  -24.3559  -36.8850   22.2082 H   0  0  0  0  0  0
  -23.7240  -37.6265   23.6786 H   0  0  0  0  0  0
  -26.3326  -31.1746   20.6310 H   0  0  0  0  0  0
  -26.9607  -30.5407   22.0994 H   0  0  0  0  0  0
  -28.1673  -28.2384   21.3556 H   0  0  0  0  0  0
  -25.8367  -25.5537   18.9681 H   0  0  0  0  0  0
  -24.0638  -27.1865   18.9012 H   0  0  0  0  0  0
  -23.9807  -30.4116   19.3725 H   0  0  0  0  0  0
  -22.8936  -29.1333   19.8115 H   0  0  0  0  0  0
  -25.1369  -36.1583   25.0759 H   0  0  0  0  0  0
  -21.0065  -28.3433   24.1245 H   0  0  0  0  0  0
  -20.5649  -26.2426   23.3682 H   0  0  0  0  0  0
  -21.6664  -26.7358   22.1238 H   0  0  0  0  0  0
  -19.6933  -25.6256   21.1304 H   0  0  0  0  0  0
  -19.6729  -27.3130   20.6711 H   0  0  0  0  0  0
  -17.4235  -26.6701   21.4020 H   0  0  0  0  0  0
  -18.0348  -26.0117   22.9033 H   0  0  0  0  0  0
  -19.7995  -30.7358   24.2145 H   0  0  0  0  0  0
  -17.5058  -31.6279   24.5169 H   0  0  0  0  0  0
  -15.5393  -30.2964   23.7725 H   0  0  0  0  0  0
  -15.8728  -28.0800   22.7135 H   0  0  0  0  0  0
  -24.5871  -30.7147   25.7570 H   0  0  0  0  0  0
  -24.8801  -32.3074   26.4442 H   0  0  0  0  0  0
  -25.7799  -30.9172   27.0210 H   0  0  0  0  0  0
  -26.3317  -29.6364   24.1701 H   0  0  0  0  0  0
  -27.3959  -29.7305   25.5482 H   0  0  0  0  0  0
  -27.9316  -30.3883   24.0266 H   0  0  0  0  0  0
  -27.2556  -33.3765   26.1818 H   0  0  0  0  0  0
  -28.3980  -32.6795   25.0427 H   0  0  0  0  0  0
  -28.0561  -31.8684   26.5633 H   0  0  0  0  0  0
  -28.2536  -38.0043   24.7511 H   0  0  0  0  0  0
  -28.1093  -36.2563   24.6300 H   0  0  0  0  0  0
  -27.2272  -37.1353   25.8868 H   0  0  0  0  0  0
  -20.9794  -29.8644   21.6443 H   0  0  0  0  0  0
  -26.0078  -38.2662   24.1422 H   0  0  0  0  0  0
  -27.5385  -20.1351   20.3112 H   0  0  0  0  0  0
  -30.6737  -23.1028   20.2748 H   0  0  0  0  0  0
  -28.4656  -16.9865   20.3840 H   0  0  0  0  0  0
  -26.9461  -23.2980   20.2804 H   0  0  0  0  0  0
  1 25  1  0  0  0
  1 30  2  0  0  0
  1 77  1  0  0  0
  2  3  1  0  0  0
  2 25  1  0  0  0
  2 81  1  0  0  0
  2 82  1  0  0  0
  3  4  1  0  0  0
  3 83  1  0  0  0
  3 84  1  0  0  0
  4  5  1  0  0  0
  4 85  1  0  0  0
  4 86  1  0  0  0
  5  6  1  0  0  0
  5 26  1  0  0  0
  5 87  1  0  0  0
  6 25  1  0  0  0
  6 88  1  0  0  0
  6 89  1  0  0  0
  7  8  2  0  0  0
  7 26  1  0  0  0
  7 29  1  0  0  0
  8  9  1  0  0  0
  8 22  1  0  0  0
  9 10  1  0  0  0
  9 27  2  0  0  0
 10 11  2  0  0  0
 10 15  1  0  0  0
 11 12  1  0  0  0
 11 90  1  0  0  0
 12 13  2  0  0  0
 12 91  1  0  0  0
 13 14  1  0  0  0
 13 31  1  0  0  0
 14 15  2  0  0  0
 14 92  1  0  0  0
 15 93  1  0  0  0
 16 17  2  0  0  0
 16 21  1  0  0  0
 16 31  1  0  0  0
 17 18  1  0  0  0
 17 94  1  0  0  0
 18 19  2  0  0  0
 18 95  1  0  0  0
 19 20  1  0  0  0
 19 24  1  0  0  0
 20 21  2  0  0  0
 20 96  1  0  0  0
 21 23  1  0  0  0
 22 28  1  0  0  0
 22 32  2  0  0  0
 26 27  1  0  0  0
 28 97  1  0  0  0
 28 98  1  0  0  0
 29 99  1  0  0  0
 29100  1  0  0  0
 33 34  1  0  0  0
 33 66  1  0  0  0
 33 70  2  0  0  0
 34 36  1  0  0  0
 34 59  1  0  0  0
 34101  1  0  0  0
 35 44  2  0  0  0
 35 45  1  0  0  0
 35 68  1  0  0  0
 36 56  1  0  0  0
 36102  1  0  0  0
 37 39  1  0  0  0
 37 47  1  0  0  0
 37 66  1  0  0  0
 37103  1  0  0  0
 38 43  2  0  0  0
 38 46  1  0  0  0
 38 47  1  0  0  0
 39 64  1  0  0  0
 39 67  2  0  0  0
 40 52  1  0  0  0
 40 53  2  0  0  0
 40 58  1  0  0  0
 41104  1  0  0  0
 41105  1  0  0  0
 41106  1  0  0  0
 41 48  1  0  0  0
 42 43  1  0  0  0
 42 66  1  0  0  0
 42107  1  0  0  0
 42108  1  0  0  0
 43 44  1  0  0  0
 44109  1  0  0  0
 45 46  2  0  0  0
 45110  1  0  0  0
 46111  1  0  0  0
 47112  1  0  0  0
 47113  1  0  0  0
 48 56  1  0  0  0
 48 65  1  0  0  0
 48114  1  0  0  0
 49 50  1  0  0  0
 49 53  1  0  0  0
 49 64  1  0  0  0
 49115  1  0  0  0
 50 51  1  0  0  0
 50116  1  0  0  0
 50117  1  0  0  0
 51 52  1  0  0  0
 51118  1  0  0  0
 51119  1  0  0  0
 52120  1  0  0  0
 52121  1  0  0  0
 53 54  1  0  0  0
 54 55  2  0  0  0
 54122  1  0  0  0
 55 57  1  0  0  0
 55123  1  0  0  0
 56 69  2  0  0  0
 57 58  2  0  0  0
 57124  1  0  0  0
 58125  1  0  0  0
 59 60  1  0  0  0
 59 61  1  0  0  0
 59 62  1  0  0  0
 60126  1  0  0  0
 60127  1  0  0  0
 60128  1  0  0  0
 61129  1  0  0  0
 61130  1  0  0  0
 61131  1  0  0  0
 62132  1  0  0  0
 62133  1  0  0  0
 62134  1  0  0  0
 63 65  1  0  0  0
 63135  1  0  0  0
 63136  1  0  0  0
 63137  1  0  0  0
 64138  1  0  0  0
 65139  1  0  0  0
 68 78  1  0  0  0
 71 73  2  0  0  0
 71 74  1  0  0  0
 71140  1  0  0  0
 72 73  1  0  0  0
 72 75  2  0  0  0
 72141  1  0  0  0
 73 78  1  0  0  0
 74 76  2  0  0  0
 74 77  1  0  0  0
 75 76  1  0  0  0
 75 79  1  0  0  0
 76 80  1  0  0  0
 77142  1  0  0  0
 78143  1  0  0  0
M  ISO  4   1 100  68 101  77 100  78 101
M  END
> <chiral flag>
0

> <version>
0

> <s_m_source_file>
/data/baiqing/PycharmProjects/Reinvent-master-3.2/result/LINK_invent/BTK/process_docking_weight1_custom_product_contain_oxygen_bond_distance_aromatic_linkinvent_7_9_3/rearranged_h_0007.sdf

> <i_m_source_file_index>
67

> <r_mmod_Potential_Energy-OPLS-2005>
2993.26171875

> <r_mmod_Stretch_Energy-OPLS-2005>
1330.31518554688

> <r_mmod_Bend_Energy-OPLS-2005>
691.8623046875

> <r_mmod_Torsional_Energy-OPLS-2005>
199.85009765625

> <r_mmod_Improper_Torsional_Energy-OPLS-2005>
3.93040704727173

> <r_mmod_Van_der_Waal_Energy-OPLS-2005>
128.709762573242

> <r_mmod_Electrostatic_Energy-OPLS-2005>
-351.043121337891

> <r_mmod_Solvation_Energy-OPLS-2005>
-234.19841003418

> <b_mmod_Minimization_Converged-OPLS-2005>
0

> <r_mmod_RMS_Derivative-OPLS-2005>
0.239737704396248

$$$$
67
                    3D
 Structure written by MMmdl.
167176  0  0  1  0            999 V2000
  -30.7542  -14.4772   20.6834 C   0  0  0  0  0  0
  -30.4172  -12.3448   19.4485 C   0  0  0  0  0  0
  -29.5030  -12.5306   18.2203 C   0  0  0  0  0  0
  -28.0244  -12.3634   18.6147 C   0  0  0  0  0  0
  -27.6553  -13.2100   19.8576 C   0  0  2  0  0  0
  -28.6807  -13.0094   20.9897 C   0  0  0  0  0  0
  -25.2556  -13.8160   20.5630 C   0  0  0  0  0  0
  -24.1821  -13.0432   20.9150 C   0  0  0  0  0  0
  -24.6380  -11.6907   20.8699 C   0  0  0  0  0  0
  -23.9050  -10.4291   21.0389 C   0  0  0  0  0  0
  -24.3609   -9.4215   21.9172 C   0  0  0  0  0  0
  -23.6288   -8.2251   22.0751 C   0  0  0  0  0  0
  -22.4269   -8.0279   21.3539 C   0  0  0  0  0  0
  -21.9900   -9.0249   20.4638 C   0  0  0  0  0  0
  -22.7227  -10.2129   20.3039 C   0  0  0  0  0  0
  -21.6849   -6.0735   22.5282 C   0  0  0  0  0  0
  -21.4009   -6.5636   23.8215 C   0  0  0  0  0  0
  -21.3658   -5.6787   24.9175 C   0  0  0  0  0  0
  -21.6048   -4.3053   24.7226 C   0  0  0  0  0  0
  -21.8818   -3.8144   23.4343 C   0  0  0  0  0  0
  -21.9193   -4.6962   22.3400 C   0  0  0  0  0  0
  -22.7848  -13.5238   21.1846 C   0  0  0  0  0  0
  -22.1661   -4.2153   21.0978 F   0  0  0  0  0  0
  -21.5635   -3.4535   25.7734 F   0  0  0  0  0  0
  -30.0285  -13.3292   20.4805 N   0  0  0  0  0  0
  -26.2973  -12.9338   20.3210 N   0  0  0  0  0  0
  -25.9299  -11.6490   20.5666 N   0  0  0  0  0  0
  -22.0492  -12.8212   22.0389 N   0  0  0  0  0  0
  -25.4292  -15.1883   20.4091 N   0  0  0  0  0  0
  -31.7724  -14.7014   20.0191 O   0  0  0  0  0  0
  -21.6636   -6.8879   21.4240 O   0  0  0  0  0  0
  -22.3536  -14.5555   20.6719 O   0  0  0  0  0  0
  -24.6180  -31.8659   23.2062 C   0  0  0  0  0  0
  -25.9067  -32.4805   23.8361 C   0  0  1  0  0  0
  -27.2353  -27.3964   20.0916 C   0  0  0  0  0  0
  -25.5921  -33.8601   24.2295 N   0  0  0  0  0  0
  -23.4074  -30.4905   21.5490 C   0  0  2  0  0  0
  -24.8536  -28.9563   20.1139 C   0  0  0  0  0  0
  -22.7440  -29.4649   22.4969 C   0  0  0  0  0  0
  -18.0285  -28.1365   22.8455 C   0  0  0  0  0  0
  -24.1493  -36.7297   23.2635 C   0  0  0  0  0  0
  -25.9432  -30.8205   21.3664 C   0  0  0  0  0  0
  -26.0193  -29.4540   20.7090 C   0  0  0  0  0  0
  -27.2115  -28.6844   20.6900 C   0  0  0  0  0  0
  -26.0393  -26.9320   19.4863 C   0  0  0  0  0  0
  -24.8617  -27.6968   19.4981 C   0  0  0  0  0  0
  -23.6172  -29.8256   20.1639 C   0  0  0  0  0  0
  -25.4105  -36.3086   24.0332 C   0  0  1  0  0  0
  -20.5878  -28.3667   23.1285 C   0  0  2  0  0  0
  -20.6781  -26.9406   22.5394 C   0  0  0  0  0  0
  -19.5765  -26.6371   21.5190 C   0  0  0  0  0  0
  -18.1941  -26.7902   22.1599 C   0  0  0  0  0  0
  -19.1539  -28.8831   23.2866 C   0  0  0  0  0  0
  -18.9476  -30.1427   23.8892 C   0  0  0  0  0  0
  -17.6480  -30.6573   24.0547 C   0  0  0  0  0  0
  -25.9039  -34.9469   23.5106 C   0  0  0  0  0  0
  -16.5368  -29.9069   23.6325 C   0  0  0  0  0  0
  -16.7273  -28.6489   23.0327 C   0  0  0  0  0  0
  -26.4472  -31.6583   25.0707 C   0  0  0  0  0  0
  -25.3719  -31.3732   26.1448 C   0  0  0  0  0  0
  -27.0287  -30.3012   24.6088 C   0  0  0  0  0  0
  -27.6043  -32.4298   25.7484 C   0  0  0  0  0  0
  -27.5573  -37.1797   24.8460 C   0  0  0  0  0  0
  -21.4169  -29.3045   22.3720 N   0  0  0  0  0  0
  -26.4275  -37.3782   23.9419 N   0  0  0  0  0  0
  -24.6746  -31.0731   22.0976 N   0  0  0  0  0  0
  -23.4203  -28.8183   23.3002 O   0  0  0  0  0  0
  -28.3940  -26.6224   20.1172 O   0  0  0  0  0  0
  -26.5605  -34.8932   22.4663 O   0  0  0  0  0  0
  -23.5360  -32.1417   23.7439 O   0  0  0  0  0  0
  -28.1269  -18.5733   19.3674 C   0  0  0  0  0  0
  -28.8327  -17.5684   20.0595 C   0  0  0  0  0  0
  -28.5245  -19.9248   19.4460 C   0  0  0  0  0  0
  -30.3481  -19.2732   20.9100 C   0  0  0  0  0  0
  -29.9629  -17.9027   20.8351 C   0  0  0  0  0  0
  -29.6373  -20.3038   20.2337 C   0  0  0  0  0  0
  -30.9134  -15.9129   23.8461 C   0  0  0  0  0  0
  -30.8880  -17.2235   23.0894 C   0  0  0  0  0  0
  -30.0475  -15.0125   22.9778 C   0  0  0  0  0  0
  -30.7685  -16.8300   21.6045 C   0  0  1  0  0  0
  -30.1126  -21.7780   20.3307 C   0  0  0  0  0  0
  -30.6485  -24.6028   19.1727 C   0  0  0  0  0  0
  -28.2474  -25.2016   19.8450 C   0  0  0  0  0  0
  -29.4771  -24.2721   20.1217 C   0  0  1  0  0  0
  -30.2908  -15.4063   21.5796 N   0  0  0  0  0  0
  -29.0933  -22.8210   19.9992 N   0  3  0  0  0  0
  -30.4052  -24.0370   17.8924 O   0  0  0  0  0  0
  -31.4659  -12.4325   19.1592 H   0  0  0  0  0  0
  -30.3138  -11.3353   19.8494 H   0  0  0  0  0  0
  -29.7684  -11.8146   17.4408 H   0  0  0  0  0  0
  -29.6600  -13.5230   17.7931 H   0  0  0  0  0  0
  -27.8510  -11.3063   18.8207 H   0  0  0  0  0  0
  -27.3775  -12.6214   17.7754 H   0  0  0  0  0  0
  -27.6944  -14.2558   19.5514 H   0  0  0  0  0  0
  -28.6610  -11.9790   21.3457 H   0  0  0  0  0  0
  -28.3604  -13.6091   21.8335 H   0  0  0  0  0  0
  -25.2754   -9.5702   22.4742 H   0  0  0  0  0  0
  -24.0005   -7.4643   22.7470 H   0  0  0  0  0  0
  -21.0836   -8.8753   19.8941 H   0  0  0  0  0  0
  -22.3679  -10.9659   19.6142 H   0  0  0  0  0  0
  -21.1989   -7.6145   23.9719 H   0  0  0  0  0  0
  -21.1484   -6.0516   25.9079 H   0  0  0  0  0  0
  -22.0597   -2.7610   23.2841 H   0  0  0  0  0  0
  -22.4092  -11.9851   22.4746 H   0  0  0  0  0  0
  -21.1116  -13.1243   22.2611 H   0  0  0  0  0  0
  -24.6676  -15.8467   20.5302 H   0  0  0  0  0  0
  -26.2899  -15.6289   20.1122 H   0  0  0  0  0  0
  -26.7151  -32.5508   23.1128 H   0  0  0  0  0  0
  -25.0105  -33.9761   25.0461 H   0  0  0  0  0  0
  -22.6965  -31.3073   21.4082 H   0  0  0  0  0  0
  -23.3759  -35.9631   23.3282 H   0  0  0  0  0  0
  -24.3591  -36.8899   22.2053 H   0  0  0  0  0  0
  -23.7245  -37.6502   23.6650 H   0  0  0  0  0  0
  -26.0615  -31.5863   20.5979 H   0  0  0  0  0  0
  -26.8294  -30.8700   21.9884 H   0  0  0  0  0  0
  -28.1102  -29.0669   21.1524 H   0  0  0  0  0  0
  -25.9753  -25.9727   18.9974 H   0  0  0  0  0  0
  -23.9670  -27.3059   19.0328 H   0  0  0  0  0  0
  -23.7305  -30.6000   19.4043 H   0  0  0  0  0  0
  -22.7404  -29.2475   19.8641 H   0  0  0  0  0  0
  -25.1278  -36.1938   25.0822 H   0  0  0  0  0  0
  -20.9954  -28.3231   24.1403 H   0  0  0  0  0  0
  -20.5663  -26.2284   23.3581 H   0  0  0  0  0  0
  -21.6654  -26.7416   22.1211 H   0  0  0  0  0  0
  -19.6940  -25.6275   21.1222 H   0  0  0  0  0  0
  -19.6713  -27.3180   20.6722 H   0  0  0  0  0  0
  -17.4202  -26.6624   21.4005 H   0  0  0  0  0  0
  -18.0357  -26.0043   22.8991 H   0  0  0  0  0  0
  -19.7960  -30.7236   24.2263 H   0  0  0  0  0  0
  -17.5049  -31.6257   24.5141 H   0  0  0  0  0  0
  -15.5379  -30.2982   23.7663 H   0  0  0  0  0  0
  -15.8656  -28.0834   22.7029 H   0  0  0  0  0  0
  -24.5939  -30.7005   25.7812 H   0  0  0  0  0  0
  -24.8869  -32.2914   26.4786 H   0  0  0  0  0  0
  -25.8064  -30.9014   27.0269 H   0  0  0  0  0  0
  -26.2831  -29.6805   24.1112 H   0  0  0  0  0  0
  -27.4018  -29.7215   25.4542 H   0  0  0  0  0  0
  -27.8686  -30.4305   23.9261 H   0  0  0  0  0  0
  -27.2658  -33.3607   26.2047 H   0  0  0  0  0  0
  -28.3883  -32.6819   25.0329 H   0  0  0  0  0  0
  -28.0679  -31.8425   26.5416 H   0  0  0  0  0  0
  -28.2575  -38.0111   24.7520 H   0  0  0  0  0  0
  -28.1093  -36.2643   24.6265 H   0  0  0  0  0  0
  -27.2316  -37.1405   25.8871 H   0  0  0  0  0  0
  -20.9337  -29.8784   21.6955 H   0  0  0  0  0  0
  -26.0160  -38.2851   24.1445 H   0  0  0  0  0  0
  -27.2696  -18.3036   18.7653 H   0  0  0  0  0  0
  -28.4997  -16.5440   19.9848 H   0  0  0  0  0  0
  -27.9606  -20.6565   18.8861 H   0  0  0  0  0  0
  -31.2140  -19.5409   21.5020 H   0  0  0  0  0  0
  -30.5395  -16.0037   24.8669 H   0  0  0  0  0  0
  -31.9317  -15.5244   23.8930 H   0  0  0  0  0  0
  -31.7559  -17.8510   23.2948 H   0  0  0  0  0  0
  -30.0040  -17.7814   23.4051 H   0  0  0  0  0  0
  -28.9972  -15.1955   23.2119 H   0  0  0  0  0  0
  -30.2596  -13.9611   23.1860 H   0  0  0  0  0  0
  -31.7796  -16.8603   21.1947 H   0  0  0  0  0  0
  -30.9675  -21.8850   19.6633 H   0  0  0  0  0  0
  -30.4813  -21.9593   21.3419 H   0  0  0  0  0  0
  -31.5875  -24.2089   19.5654 H   0  0  0  0  0  0
  -30.7891  -25.6822   19.0840 H   0  0  0  0  0  0
  -27.4203  -24.8280   20.4505 H   0  0  0  0  0  0
  -27.9641  -25.0767   18.7986 H   0  0  0  0  0  0
  -29.7947  -24.4526   21.1496 H   0  0  0  0  0  0
  -28.2818  -22.6463   20.5697 H   0  0  0  0  0  0
  -28.8507  -22.6869   19.0287 H   0  0  0  0  0  0
  -31.1298  -24.2856   17.3222 H   0  0  0  0  0  0
  1 25  1  0  0  0
  1 30  2  0  0  0
  1 85  1  0  0  0
  2  3  1  0  0  0
  2 25  1  0  0  0
  2 88  1  0  0  0
  2 89  1  0  0  0
  3  4  1  0  0  0
  3 90  1  0  0  0
  3 91  1  0  0  0
  4  5  1  0  0  0
  4 92  1  0  0  0
  4 93  1  0  0  0
  5  6  1  0  0  0
  5 26  1  0  0  0
  5 94  1  0  0  0
  6 25  1  0  0  0
  6 95  1  0  0  0
  6 96  1  0  0  0
  7  8  2  0  0  0
  7 26  1  0  0  0
  7 29  1  0  0  0
  8  9  1  0  0  0
  8 22  1  0  0  0
  9 10  1  0  0  0
  9 27  2  0  0  0
 10 11  2  0  0  0
 10 15  1  0  0  0
 11 12  1  0  0  0
 11 97  1  0  0  0
 12 13  2  0  0  0
 12 98  1  0  0  0
 13 14  1  0  0  0
 13 31  1  0  0  0
 14 15  2  0  0  0
 14 99  1  0  0  0
 15100  1  0  0  0
 16 17  2  0  0  0
 16 21  1  0  0  0
 16 31  1  0  0  0
 17 18  1  0  0  0
 17101  1  0  0  0
 18 19  2  0  0  0
 18102  1  0  0  0
 19 20  1  0  0  0
 19 24  1  0  0  0
 20 21  2  0  0  0
 20103  1  0  0  0
 21 23  1  0  0  0
 22 28  1  0  0  0
 22 32  2  0  0  0
 26 27  1  0  0  0
 28104  1  0  0  0
 28105  1  0  0  0
 29106  1  0  0  0
 29107  1  0  0  0
 33 34  1  0  0  0
 33 66  1  0  0  0
 33 70  2  0  0  0
 34 36  1  0  0  0
 34 59  1  0  0  0
 34108  1  0  0  0
 35 44  2  0  0  0
 35 45  1  0  0  0
 35 68  1  0  0  0
 36 56  1  0  0  0
 36109  1  0  0  0
 37 39  1  0  0  0
 37 47  1  0  0  0
 37 66  1  0  0  0
 37110  1  0  0  0
 38 43  2  0  0  0
 38 46  1  0  0  0
 38 47  1  0  0  0
 39 64  1  0  0  0
 39 67  2  0  0  0
 40 52  1  0  0  0
 40 53  2  0  0  0
 40 58  1  0  0  0
 41111  1  0  0  0
 41112  1  0  0  0
 41113  1  0  0  0
 41 48  1  0  0  0
 42 43  1  0  0  0
 42 66  1  0  0  0
 42114  1  0  0  0
 42115  1  0  0  0
 43 44  1  0  0  0
 44116  1  0  0  0
 45 46  2  0  0  0
 45117  1  0  0  0
 46118  1  0  0  0
 47119  1  0  0  0
 47120  1  0  0  0
 48 56  1  0  0  0
 48 65  1  0  0  0
 48121  1  0  0  0
 49 50  1  0  0  0
 49 53  1  0  0  0
 49 64  1  0  0  0
 49122  1  0  0  0
 50 51  1  0  0  0
 50123  1  0  0  0
 50124  1  0  0  0
 51 52  1  0  0  0
 51125  1  0  0  0
 51126  1  0  0  0
 52127  1  0  0  0
 52128  1  0  0  0
 53 54  1  0  0  0
 54 55  2  0  0  0
 54129  1  0  0  0
 55 57  1  0  0  0
 55130  1  0  0  0
 56 69  2  0  0  0
 57 58  2  0  0  0
 57131  1  0  0  0
 58132  1  0  0  0
 59 60  1  0  0  0
 59 61  1  0  0  0
 59 62  1  0  0  0
 60133  1  0  0  0
 60134  1  0  0  0
 60135  1  0  0  0
 61136  1  0  0  0
 61137  1  0  0  0
 61138  1  0  0  0
 62139  1  0  0  0
 62140  1  0  0  0
 62141  1  0  0  0
 63 65  1  0  0  0
 63142  1  0  0  0
 63143  1  0  0  0
 63144  1  0  0  0
 64145  1  0  0  0
 65146  1  0  0  0
 68 83  1  0  0  0
 71 72  2  0  0  0
 71 73  1  0  0  0
 71147  1  0  0  0
 72 75  1  0  0  0
 72148  1  0  0  0
 73 76  2  0  0  0
 73149  1  0  0  0
 74 75  2  0  0  0
 74 76  1  0  0  0
 74150  1  0  0  0
 75 80  1  0  0  0
 76 81  1  0  0  0
 77 78  1  0  0  0
 77 79  1  0  0  0
 77151  1  0  0  0
 77152  1  0  0  0
 78 80  1  0  0  0
 78153  1  0  0  0
 78154  1  0  0  0
 79 85  1  0  0  0
 79155  1  0  0  0
 79156  1  0  0  0
 80 85  1  0  0  0
 80157  1  0  0  0
 81 86  1  0  0  0
 81158  1  0  0  0
 81159  1  0  0  0
 82 87  1  0  0  0
 82160  1  0  0  0
 82161  1  0  0  0
 82 84  1  0  0  0
 83 84  1  0  0  0
 83162  1  0  0  0
 83163  1  0  0  0
 84 86  1  0  0  0
 84164  1  0  0  0
 86165  1  0  0  0
 86166  1  0  0  0
 87167  1  0  0  0
M  CHG  1  86   1
M  ISO  4   1 100  68 101  83 101  85 100
M  END
> <chiral flag>
0

> <version>
0

> <s_m_source_file>
/data/baiqing/PycharmProjects/Reinvent-master-3.2/result/LINK_invent/BTK/process_docking_weight1_custom_product_contain_oxygen_bond_distance_aromatic_linkinvent_7_9_3/rearranged_h_0007.sdf

> <i_m_source_file_index>
68

> <r_mmod_Potential_Energy-OPLS-2005>
-0.28831747174263

> <r_mmod_Stretch_Energy-OPLS-2005>
57.3970680236816

> <r_mmod_Bend_Energy-OPLS-2005>
138.15364074707

> <r_mmod_Torsional_Energy-OPLS-2005>
311.674499511719

> <r_mmod_Improper_Torsional_Energy-OPLS-2005>
5.37058734893799

> <r_mmod_Van_der_Waal_Energy-OPLS-2005>
157.774017333984

> <r_mmod_Electrostatic_Energy-OPLS-2005>
-263.027862548828

> <r_mmod_Solvation_Energy-OPLS-2005>
-424.549896240234

> <b_mmod_Minimization_Converged-OPLS-2005>
0

> <r_mmod_RMS_Derivative-OPLS-2005>
2.11313343048096

$$$$
68
                    3D
 Structure written by MMmdl.
157166  0  0  1  0            999 V2000
  -30.6083  -14.6593   20.4908 C   0  0  0  0  0  0
  -30.4436  -12.4033   19.4521 C   0  0  0  0  0  0
  -29.5084  -12.5085   18.2258 C   0  0  0  0  0  0
  -28.0314  -12.3439   18.6395 C   0  0  0  0  0  0
  -27.6530  -13.2156   19.8668 C   0  0  2  0  0  0
  -28.7013  -13.0709   20.9939 C   0  0  0  0  0  0
  -25.2542  -13.8143   20.5677 C   0  0  0  0  0  0
  -24.1806  -13.0409   20.9158 C   0  0  0  0  0  0
  -24.6382  -11.6886   20.8723 C   0  0  0  0  0  0
  -23.9047  -10.4277   21.0398 C   0  0  0  0  0  0
  -24.3603   -9.4201   21.9182 C   0  0  0  0  0  0
  -23.6285   -8.2231   22.0749 C   0  0  0  0  0  0
  -22.4266   -8.0266   21.3541 C   0  0  0  0  0  0
  -21.9898   -9.0235   20.4639 C   0  0  0  0  0  0
  -22.7218  -10.2118   20.3051 C   0  0  0  0  0  0
  -21.6850   -6.0727   22.5277 C   0  0  0  0  0  0
  -21.4009   -6.5635   23.8209 C   0  0  0  0  0  0
  -21.3663   -5.6792   24.9175 C   0  0  0  0  0  0
  -21.6048   -4.3052   24.7226 C   0  0  0  0  0  0
  -21.8819   -3.8141   23.4347 C   0  0  0  0  0  0
  -21.9191   -4.6956   22.3403 C   0  0  0  0  0  0
  -22.7836  -13.5211   21.1844 C   0  0  0  0  0  0
  -22.1663   -4.2143   21.0981 F   0  0  0  0  0  0
  -21.5634   -3.4536   25.7739 F   0  0  0  0  0  0
  -30.0153  -13.4236   20.4287 N   0  0  0  0  0  0
  -26.2988  -12.9332   20.3357 N   0  0  0  0  0  0
  -25.9320  -11.6483   20.5778 N   0  0  0  0  0  0
  -22.0487  -12.8207   22.0411 N   0  0  0  0  0  0
  -25.4228  -15.1860   20.4132 N   0  0  0  0  0  0
  -31.7723  -14.8342   20.1169 O   0  0  0  0  0  0
  -21.6634   -6.8865   21.4235 O   0  0  0  0  0  0
  -22.3519  -14.5526   20.6711 O   0  0  0  0  0  0
  -24.6253  -31.8591   23.2002 C   0  0  0  0  0  0
  -25.9092  -32.4776   23.8338 C   0  0  1  0  0  0
  -27.2304  -27.3086   20.1050 C   0  0  0  0  0  0
  -25.5914  -33.8577   24.2262 N   0  0  0  0  0  0
  -23.4194  -30.4825   21.5441 C   0  0  2  0  0  0
  -24.8644  -28.9335   20.1141 C   0  0  0  0  0  0
  -22.7470  -29.4624   22.4932 C   0  0  0  0  0  0
  -18.0292  -28.1391   22.8488 C   0  0  0  0  0  0
  -24.1492  -36.7289   23.2641 C   0  0  0  0  0  0
  -25.9613  -30.7858   21.3717 C   0  0  0  0  0  0
  -26.0343  -29.4115   20.7146 C   0  0  0  0  0  0
  -27.2162  -28.6112   20.6998 C   0  0  0  0  0  0
  -26.0253  -26.8803   19.4966 C   0  0  0  0  0  0
  -24.8618  -27.6734   19.4998 C   0  0  0  0  0  0
  -23.6336  -29.8156   20.1605 C   0  0  0  0  0  0
  -25.4117  -36.3075   24.0329 C   0  0  1  0  0  0
  -20.5892  -28.3687   23.1285 C   0  0  2  0  0  0
  -20.6781  -26.9411   22.5408 C   0  0  0  0  0  0
  -19.5755  -26.6385   21.5215 C   0  0  0  0  0  0
  -18.1937  -26.7934   22.1624 C   0  0  0  0  0  0
  -19.1547  -28.8854   23.2883 C   0  0  0  0  0  0
  -18.9469  -30.1460   23.8890 C   0  0  0  0  0  0
  -17.6473  -30.6594   24.0568 C   0  0  0  0  0  0
  -25.9052  -34.9450   23.5097 C   0  0  0  0  0  0
  -16.5362  -29.9095   23.6338 C   0  0  0  0  0  0
  -16.7281  -28.6516   23.0351 C   0  0  0  0  0  0
  -26.4477  -31.6589   25.0708 C   0  0  0  0  0  0
  -25.3713  -31.3740   26.1439 C   0  0  0  0  0  0
  -27.0312  -30.3016   24.6149 C   0  0  0  0  0  0
  -27.6027  -32.4326   25.7484 C   0  0  0  0  0  0
  -27.5575  -37.1806   24.8473 C   0  0  0  0  0  0
  -21.4184  -29.3042   22.3675 N   0  0  0  0  0  0
  -26.4293  -37.3767   23.9404 N   0  0  0  0  0  0
  -24.6877  -31.0596   22.0955 N   0  0  0  0  0  0
  -23.4193  -28.8163   23.3010 O   0  0  0  0  0  0
  -28.3871  -26.5038   20.1351 O   0  0  0  0  0  0
  -26.5625  -34.8923   22.4666 O   0  0  0  0  0  0
  -23.5418  -32.1390   23.7335 O   0  0  0  0  0  0
  -30.8251  -19.4007   20.3805 C   0  0  0  0  0  0
  -30.9158  -17.9684   20.3597 C   0  0  0  0  0  0
  -28.5236  -19.2619   21.0547 C   0  0  0  0  0  0
  -29.6338  -20.0923   20.7559 C   0  0  0  0  0  0
  -29.8096  -17.1499   20.7203 C   0  0  0  0  0  0
  -28.6124  -17.8405   21.0394 C   0  0  0  0  0  0
  -29.6990  -24.6810   19.0112 C   0  0  0  0  0  0
  -29.7264  -23.1265   19.0077 C   0  0  0  0  0  0
  -28.4102  -23.9315   20.8103 C   0  0  0  0  0  0
  -28.4027  -25.0701   19.7270 C   0  0  1  0  0  0
  -29.6065  -21.6422   21.0750 C   0  0  0  0  0  0
  -29.7696  -15.6881   20.8243 N   0  0  0  0  0  0
  -28.9241  -22.6558   20.1661 N   0  3  2  0  0  0
  -27.5218  -17.1115   21.3769 F   0  0  0  0  0  0
  -31.4834  -12.5378   19.1487 H   0  0  0  0  0  0
  -30.3876  -11.4085   19.8964 H   0  0  0  0  0  0
  -29.7741  -11.7535   17.4847 H   0  0  0  0  0  0
  -29.6457  -13.4756   17.7396 H   0  0  0  0  0  0
  -27.8713  -11.2905   18.8732 H   0  0  0  0  0  0
  -27.3748  -12.5701   17.7989 H   0  0  0  0  0  0
  -27.6671  -14.2507   19.5246 H   0  0  0  0  0  0
  -28.7180  -12.0471   21.3716 H   0  0  0  0  0  0
  -28.4442  -13.6968   21.8502 H   0  0  0  0  0  0
  -25.2743   -9.5683   22.4760 H   0  0  0  0  0  0
  -23.9996   -7.4622   22.7466 H   0  0  0  0  0  0
  -21.0834   -8.8742   19.8944 H   0  0  0  0  0  0
  -22.3667  -10.9654   19.6162 H   0  0  0  0  0  0
  -21.1994   -7.6141   23.9708 H   0  0  0  0  0  0
  -21.1493   -6.0524   25.9080 H   0  0  0  0  0  0
  -22.0595   -2.7602   23.2847 H   0  0  0  0  0  0
  -22.4107  -11.9864   22.4785 H   0  0  0  0  0  0
  -21.1110  -13.1233   22.2638 H   0  0  0  0  0  0
  -24.6635  -15.8395   20.5658 H   0  0  0  0  0  0
  -26.3053  -15.6485   20.2321 H   0  0  0  0  0  0
  -26.7154  -32.5432   23.1082 H   0  0  0  0  0  0
  -25.0054  -33.9719   25.0405 H   0  0  0  0  0  0
  -22.7142  -31.3035   21.4001 H   0  0  0  0  0  0
  -23.3746  -35.9632   23.3327 H   0  0  0  0  0  0
  -24.3582  -36.8878   22.2049 H   0  0  0  0  0  0
  -23.7262  -37.6505   23.6653 H   0  0  0  0  0  0
  -26.0939  -31.5475   20.6020 H   0  0  0  0  0  0
  -26.8409  -30.8347   22.0013 H   0  0  0  0  0  0
  -28.1161  -28.9805   21.1714 H   0  0  0  0  0  0
  -25.9250  -25.9251   19.0109 H   0  0  0  0  0  0
  -23.9618  -27.3000   19.0305 H   0  0  0  0  0  0
  -23.7539  -30.5900   19.4023 H   0  0  0  0  0  0
  -22.7533  -29.2450   19.8597 H   0  0  0  0  0  0
  -25.1309  -36.1920   25.0824 H   0  0  0  0  0  0
  -20.9993  -28.3259   24.1401 H   0  0  0  0  0  0
  -20.5684  -26.2294   23.3602 H   0  0  0  0  0  0
  -21.6648  -26.7446   22.1195 H   0  0  0  0  0  0
  -19.6915  -25.6296   21.1236 H   0  0  0  0  0  0
  -19.6694  -27.3201   20.6752 H   0  0  0  0  0  0
  -17.4205  -26.6683   21.4026 H   0  0  0  0  0  0
  -18.0341  -26.0081   22.9024 H   0  0  0  0  0  0
  -19.7952  -30.7287   24.2232 H   0  0  0  0  0  0
  -17.5036  -31.6269   24.5181 H   0  0  0  0  0  0
  -15.5363  -30.3000   23.7670 H   0  0  0  0  0  0
  -15.8681  -28.0844   22.7052 H   0  0  0  0  0  0
  -24.5885  -30.7089   25.7785 H   0  0  0  0  0  0
  -24.8906  -32.2910   26.4858 H   0  0  0  0  0  0
  -25.8036  -30.8930   27.0220 H   0  0  0  0  0  0
  -26.2879  -29.6777   24.1166 H   0  0  0  0  0  0
  -27.4015  -29.7261   25.4642 H   0  0  0  0  0  0
  -27.8754  -30.4319   23.9372 H   0  0  0  0  0  0
  -27.2631  -33.3629   26.2058 H   0  0  0  0  0  0
  -28.3845  -32.6874   25.0318 H   0  0  0  0  0  0
  -28.0688  -31.8450   26.5403 H   0  0  0  0  0  0
  -28.2610  -38.0083   24.7477 H   0  0  0  0  0  0
  -28.1045  -36.2607   24.6352 H   0  0  0  0  0  0
  -27.2285  -37.1524   25.8875 H   0  0  0  0  0  0
  -20.9356  -29.8753   21.6879 H   0  0  0  0  0  0
  -26.0171  -38.2845   24.1384 H   0  0  0  0  0  0
  -31.7168  -19.9723   20.1621 H   0  0  0  0  0  0
  -31.8602  -17.5096   20.1007 H   0  0  0  0  0  0
  -27.5926  -19.7118   21.3680 H   0  0  0  0  0  0
  -29.7639  -25.1001   18.0074 H   0  0  0  0  0  0
  -30.5514  -25.0585   19.5772 H   0  0  0  0  0  0
  -30.7488  -22.7477   19.0194 H   0  0  0  0  0  0
  -29.2552  -22.7440   18.1014 H   0  0  0  0  0  0
  -27.4245  -23.7838   21.2520 H   0  0  0  0  0  0
  -29.0869  -24.2187   21.6171 H   0  0  0  0  0  0
  -27.6178  -24.8473   19.0112 H   0  0  0  0  0  0
  -30.6272  -21.9762   21.2663 H   0  0  0  0  0  0
  -29.1150  -21.7168   22.0454 H   0  0  0  0  0  0
  -28.8647  -15.3548   21.1210 H   0  0  0  0  0  0
  -28.1198  -22.1849   19.7784 H   0  0  0  0  0  0
  1 25  1  0  0  0
  1 30  2  0  0  0
  1 82  1  0  0  0
  2  3  1  0  0  0
  2 25  1  0  0  0
  2 85  1  0  0  0
  2 86  1  0  0  0
  3  4  1  0  0  0
  3 87  1  0  0  0
  3 88  1  0  0  0
  4  5  1  0  0  0
  4 89  1  0  0  0
  4 90  1  0  0  0
  5  6  1  0  0  0
  5 26  1  0  0  0
  5 91  1  0  0  0
  6 25  1  0  0  0
  6 92  1  0  0  0
  6 93  1  0  0  0
  7  8  2  0  0  0
  7 26  1  0  0  0
  7 29  1  0  0  0
  8  9  1  0  0  0
  8 22  1  0  0  0
  9 10  1  0  0  0
  9 27  2  0  0  0
 10 11  2  0  0  0
 10 15  1  0  0  0
 11 12  1  0  0  0
 11 94  1  0  0  0
 12 13  2  0  0  0
 12 95  1  0  0  0
 13 14  1  0  0  0
 13 31  1  0  0  0
 14 15  2  0  0  0
 14 96  1  0  0  0
 15 97  1  0  0  0
 16 17  2  0  0  0
 16 21  1  0  0  0
 16 31  1  0  0  0
 17 18  1  0  0  0
 17 98  1  0  0  0
 18 19  2  0  0  0
 18 99  1  0  0  0
 19 20  1  0  0  0
 19 24  1  0  0  0
 20 21  2  0  0  0
 20100  1  0  0  0
 21 23  1  0  0  0
 22 28  1  0  0  0
 22 32  2  0  0  0
 26 27  1  0  0  0
 28101  1  0  0  0
 28102  1  0  0  0
 29103  1  0  0  0
 29104  1  0  0  0
 33 34  1  0  0  0
 33 66  1  0  0  0
 33 70  2  0  0  0
 34 36  1  0  0  0
 34 59  1  0  0  0
 34105  1  0  0  0
 35 44  2  0  0  0
 35 45  1  0  0  0
 35 68  1  0  0  0
 36 56  1  0  0  0
 36106  1  0  0  0
 37 39  1  0  0  0
 37 47  1  0  0  0
 37 66  1  0  0  0
 37107  1  0  0  0
 38 43  2  0  0  0
 38 46  1  0  0  0
 38 47  1  0  0  0
 39 64  1  0  0  0
 39 67  2  0  0  0
 40 52  1  0  0  0
 40 53  2  0  0  0
 40 58  1  0  0  0
 41108  1  0  0  0
 41109  1  0  0  0
 41110  1  0  0  0
 41 48  1  0  0  0
 42 43  1  0  0  0
 42 66  1  0  0  0
 42111  1  0  0  0
 42112  1  0  0  0
 43 44  1  0  0  0
 44113  1  0  0  0
 45 46  2  0  0  0
 45114  1  0  0  0
 46115  1  0  0  0
 47116  1  0  0  0
 47117  1  0  0  0
 48 56  1  0  0  0
 48 65  1  0  0  0
 48118  1  0  0  0
 49 50  1  0  0  0
 49 53  1  0  0  0
 49 64  1  0  0  0
 49119  1  0  0  0
 50 51  1  0  0  0
 50120  1  0  0  0
 50121  1  0  0  0
 51 52  1  0  0  0
 51122  1  0  0  0
 51123  1  0  0  0
 52124  1  0  0  0
 52125  1  0  0  0
 53 54  1  0  0  0
 54 55  2  0  0  0
 54126  1  0  0  0
 55 57  1  0  0  0
 55127  1  0  0  0
 56 69  2  0  0  0
 57 58  2  0  0  0
 57128  1  0  0  0
 58129  1  0  0  0
 59 60  1  0  0  0
 59 61  1  0  0  0
 59 62  1  0  0  0
 60130  1  0  0  0
 60131  1  0  0  0
 60132  1  0  0  0
 61133  1  0  0  0
 61134  1  0  0  0
 61135  1  0  0  0
 62136  1  0  0  0
 62137  1  0  0  0
 62138  1  0  0  0
 63 65  1  0  0  0
 63139  1  0  0  0
 63140  1  0  0  0
 63141  1  0  0  0
 64142  1  0  0  0
 65143  1  0  0  0
 68 80  1  0  0  0
 71 72  2  0  0  0
 71 74  1  0  0  0
 71144  1  0  0  0
 72 75  1  0  0  0
 72145  1  0  0  0
 73 74  2  0  0  0
 73 76  1  0  0  0
 73146  1  0  0  0
 74 81  1  0  0  0
 75 76  2  0  0  0
 75 82  1  0  0  0
 76 84  1  0  0  0
 77 78  1  0  0  0
 77 80  1  0  0  0
 77147  1  0  0  0
 77148  1  0  0  0
 78 83  1  0  0  0
 78149  1  0  0  0
 78150  1  0  0  0
 79 80  1  0  0  0
 79 83  1  0  0  0
 79151  1  0  0  0
 79152  1  0  0  0
 80153  1  0  0  0
 81154  1  0  0  0
 81155  1  0  0  0
 81 83  1  0  0  0
 82156  1  0  0  0
 83157  1  0  0  0
M  CHG  1  83   1
M  ISO  4   1 100  68 101  80 101  82 100
M  END
> <chiral flag>
0

> <version>
0

> <s_m_source_file>
/data/baiqing/PycharmProjects/Reinvent-master-3.2/result/LINK_invent/BTK/process_docking_weight1_custom_product_contain_oxygen_bond_distance_aromatic_linkinvent_7_9_3/rearranged_h_0007.sdf

> <i_m_source_file_index>
69

> <r_mmod_Potential_Energy-OPLS-2005>
-26.08811378479

> <r_mmod_Stretch_Energy-OPLS-2005>
81.1330795288086

> <r_mmod_Bend_Energy-OPLS-2005>
190.670181274414

> <r_mmod_Torsional_Energy-OPLS-2005>
258.374206542969

> <r_mmod_Improper_Torsional_Energy-OPLS-2005>
5.38917350769043

> <r_mmod_Van_der_Waal_Energy-OPLS-2005>
138.104736328125

> <r_mmod_Electrostatic_Energy-OPLS-2005>
-306.972259521484

> <r_mmod_Solvation_Energy-OPLS-2005>
-443.411437988281

> <b_mmod_Minimization_Converged-OPLS-2005>
0

> <r_mmod_RMS_Derivative-OPLS-2005>
1.1168600320816

$$$$
69
                    3D
 Structure written by MMmdl.
166175  0  0  1  0            999 V2000
  -30.4336  -15.2604   20.3730 C   0  0  0  0  0  0
  -30.4443  -12.8119   19.5030 C   0  0  0  0  0  0
  -29.5341  -12.5678   18.2732 C   0  0  0  0  0  0
  -28.0815  -12.2952   18.7066 C   0  0  0  0  0  0
  -27.6105  -13.2701   19.8148 C   0  0  2  0  0  0
  -28.6519  -13.4471   20.9391 C   0  0  0  0  0  0
  -25.2394  -13.8242   20.5754 C   0  0  0  0  0  0
  -24.1749  -13.0445   20.9287 C   0  0  0  0  0  0
  -24.6396  -11.6936   20.8790 C   0  0  0  0  0  0
  -23.9092  -10.4299   21.0425 C   0  0  0  0  0  0
  -24.3640   -9.4209   21.9195 C   0  0  0  0  0  0
  -23.6314   -8.2243   22.0755 C   0  0  0  0  0  0
  -22.4293   -8.0291   21.3555 C   0  0  0  0  0  0
  -21.9945   -9.0256   20.4645 C   0  0  0  0  0  0
  -22.7271  -10.2133   20.3056 C   0  0  0  0  0  0
  -21.6858   -6.0757   22.5296 C   0  0  0  0  0  0
  -21.4013   -6.5653   23.8235 C   0  0  0  0  0  0
  -21.3654   -5.6798   24.9192 C   0  0  0  0  0  0
  -21.6037   -4.3061   24.7233 C   0  0  0  0  0  0
  -21.8813   -3.8163   23.4362 C   0  0  0  0  0  0
  -21.9186   -4.6989   22.3418 C   0  0  0  0  0  0
  -22.7757  -13.5205   21.1915 C   0  0  0  0  0  0
  -22.1645   -4.2173   21.0996 F   0  0  0  0  0  0
  -21.5627   -3.4546   25.7738 F   0  0  0  0  0  0
  -29.8749  -13.9562   20.2968 N   0  0  0  0  0  0
  -26.2819  -12.9500   20.3202 N   0  0  0  0  0  0
  -25.9337  -11.6614   20.5732 N   0  0  0  0  0  0
  -22.0409  -12.8167   22.0454 N   0  0  0  0  0  0
  -25.3994  -15.1983   20.4164 N   0  0  0  0  0  0
  -31.6663  -15.2736   20.2546 O   0  0  0  0  0  0
  -21.6644   -6.8898   21.4256 O   0  0  0  0  0  0
  -22.3426  -14.5497   20.6751 O   0  0  0  0  0  0
  -24.6629  -31.8240   23.1706 C   0  0  0  0  0  0
  -25.9317  -32.4582   23.8165 C   0  0  1  0  0  0
  -27.2243  -26.9344   20.1797 C   0  0  0  0  0  0
  -25.5992  -33.8403   24.2086 N   0  0  0  0  0  0
  -23.4756  -30.4362   21.5197 C   0  0  2  0  0  0
  -24.9286  -28.8181   20.1192 C   0  0  0  0  0  0
  -22.7646  -29.4456   22.4780 C   0  0  0  0  0  0
  -18.0321  -28.1391   22.8454 C   0  0  0  0  0  0
  -24.1500  -36.7199   23.2645 C   0  0  0  0  0  0
  -26.0438  -30.6344   21.3947 C   0  0  0  0  0  0
  -26.1152  -29.2218   20.7447 C   0  0  0  0  0  0
  -27.2588  -28.3031   20.7469 C   0  0  0  0  0  0
  -26.0067  -26.6821   19.5086 C   0  0  0  0  0  0
  -24.8982  -27.5668   19.4831 C   0  0  0  0  0  0
  -23.7154  -29.7475   20.1488 C   0  0  0  0  0  0
  -25.4132  -36.2956   24.0305 C   0  0  1  0  0  0
  -20.5942  -28.3742   23.1175 C   0  0  2  0  0  0
  -20.6800  -26.9422   22.5392 C   0  0  0  0  0  0
  -19.5780  -26.6361   21.5199 C   0  0  0  0  0  0
  -18.1959  -26.7926   22.1603 C   0  0  0  0  0  0
  -19.1580  -28.8885   23.2807 C   0  0  0  0  0  0
  -18.9495  -30.1476   23.8843 C   0  0  0  0  0  0
  -17.6491  -30.6583   24.0554 C   0  0  0  0  0  0
  -25.9099  -34.9344   23.5010 C   0  0  0  0  0  0
  -16.5381  -29.9073   23.6335 C   0  0  0  0  0  0
  -16.7306  -28.6493   23.0353 C   0  0  0  0  0  0
  -26.4584  -31.6508   25.0675 C   0  0  0  0  0  0
  -25.3724  -31.3724   26.1333 C   0  0  0  0  0  0
  -27.0479  -30.2885   24.6365 C   0  0  0  0  0  0
  -27.6086  -32.4301   25.7478 C   0  0  0  0  0  0
  -27.5563  -37.1750   24.8461 C   0  0  0  0  0  0
  -21.4317  -29.3051   22.3529 N   0  0  0  0  0  0
  -26.4264  -37.3697   23.9417 N   0  0  0  0  0  0
  -24.7490  -30.9913   22.0832 N   0  0  0  0  0  0
  -23.4202  -28.8024   23.3016 O   0  0  0  0  0  0
  -28.2501  -25.8498   20.1925 O   0  0  0  0  0  0
  -26.5695  -34.8877   22.4598 O   0  0  0  0  0  0
  -23.5702  -32.1192   23.6817 O   0  0  0  0  0  0
  -26.4018  -19.2482   17.5096 C   0  0  0  0  0  0
  -27.0269  -18.7852   16.3422 C   0  0  0  0  0  0
  -27.1715  -19.5288   18.6512 C   0  0  0  0  0  0
  -28.4211  -18.5910   16.3136 C   0  0  0  0  0  0
  -29.2181  -18.8871   17.4552 C   0  0  0  0  0  0
  -28.5767  -19.3722   18.6390 C   0  0  0  0  0  0
  -29.0538  -18.0704   15.0317 C   0  0  0  0  0  0
  -30.7373  -18.6159   17.4063 C   0  0  0  0  0  0
  -30.4052  -17.3989   15.2865 C   0  0  0  0  0  0
  -29.6869  -18.1303   20.7761 C   0  0  0  0  0  0
  -28.9273  -22.7137   19.9480 C   0  0  0  0  0  0
  -28.0359  -24.2198   20.4016 C   0  0  0  0  0  0
  -29.3428  -19.6828   19.9306 C   0  0  2  0  0  0
  -29.6362  -16.5079   20.3610 N   0  0  0  0  0  0
  -31.2624  -18.3117   16.0574 N   0  3  0  0  0  0
  -28.8502  -21.1552   20.5605 N   0  3  0  0  0  0
  -31.4571  -13.0329   19.1652 H   0  0  0  0  0  0
  -30.5257  -11.9107   20.1142 H   0  0  0  0  0  0
  -29.9163  -11.7369   17.6792 H   0  0  0  0  0  0
  -29.5604  -13.4445   17.6251 H   0  0  0  0  0  0
  -28.0357  -11.2700   19.0776 H   0  0  0  0  0  0
  -27.4097  -12.3367   17.8489 H   0  0  0  0  0  0
  -27.5213  -14.2353   19.3155 H   0  0  0  0  0  0
  -28.8302  -12.5163   21.4793 H   0  0  0  0  0  0
  -28.2935  -14.1704   21.6736 H   0  0  0  0  0  0
  -25.2779   -9.5681   22.4778 H   0  0  0  0  0  0
  -24.0034   -7.4624   22.7453 H   0  0  0  0  0  0
  -21.0890   -8.8764   19.8932 H   0  0  0  0  0  0
  -22.3740  -10.9673   19.6152 H   0  0  0  0  0  0
  -21.2009   -7.6159   23.9752 H   0  0  0  0  0  0
  -21.1470   -6.0523   25.9092 H   0  0  0  0  0  0
  -22.0599   -2.7634   23.2849 H   0  0  0  0  0  0
  -22.4034  -11.9839   22.4844 H   0  0  0  0  0  0
  -21.1001  -13.1127   22.2631 H   0  0  0  0  0  0
  -24.6217  -15.8395   20.5335 H   0  0  0  0  0  0
  -26.2222  -15.6438   20.0339 H   0  0  0  0  0  0
  -26.7367  -32.5130   23.0862 H   0  0  0  0  0  0
  -25.0128  -33.9497   25.0230 H   0  0  0  0  0  0
  -22.7889  -31.2679   21.3473 H   0  0  0  0  0  0
  -23.3775  -35.9516   23.3254 H   0  0  0  0  0  0
  -24.3580  -36.8891   22.2066 H   0  0  0  0  0  0
  -23.7234  -37.6364   23.6736 H   0  0  0  0  0  0
  -26.2132  -31.3718   20.6090 H   0  0  0  0  0  0
  -26.9093  -30.7010   22.0428 H   0  0  0  0  0  0
  -28.1612  -28.6196   21.2506 H   0  0  0  0  0  0
  -25.8883  -25.7359   18.9998 H   0  0  0  0  0  0
  -23.9974  -27.2483   18.9771 H   0  0  0  0  0  0
  -23.8739  -30.5153   19.3904 H   0  0  0  0  0  0
  -22.8234  -29.2050   19.8294 H   0  0  0  0  0  0
  -25.1327  -36.1741   25.0793 H   0  0  0  0  0  0
  -21.0047  -28.3349   24.1294 H   0  0  0  0  0  0
  -20.5654  -26.2371   23.3633 H   0  0  0  0  0  0
  -21.6664  -26.7382   22.1212 H   0  0  0  0  0  0
  -19.6950  -25.6260   21.1254 H   0  0  0  0  0  0
  -19.6729  -27.3149   20.6707 H   0  0  0  0  0  0
  -17.4232  -26.6664   21.4003 H   0  0  0  0  0  0
  -18.0362  -26.0071   22.9001 H   0  0  0  0  0  0
  -19.7976  -30.7303   24.2184 H   0  0  0  0  0  0
  -17.5047  -31.6258   24.5166 H   0  0  0  0  0  0
  -15.5379  -30.2970   23.7682 H   0  0  0  0  0  0
  -15.8700  -28.0802   22.7096 H   0  0  0  0  0  0
  -24.5983  -30.6984   25.7639 H   0  0  0  0  0  0
  -24.8833  -32.2905   26.4593 H   0  0  0  0  0  0
  -25.7986  -30.9013   27.0203 H   0  0  0  0  0  0
  -26.3138  -29.6551   24.1369 H   0  0  0  0  0  0
  -27.4037  -29.7235   25.4991 H   0  0  0  0  0  0
  -27.9065  -30.4067   23.9751 H   0  0  0  0  0  0
  -27.2689  -33.3676   26.1882 H   0  0  0  0  0  0
  -28.3998  -32.6714   25.0372 H   0  0  0  0  0  0
  -28.0641  -31.8518   26.5523 H   0  0  0  0  0  0
  -28.2530  -38.0094   24.7531 H   0  0  0  0  0  0
  -28.1104  -36.2612   24.6255 H   0  0  0  0  0  0
  -27.2283  -37.1341   25.8865 H   0  0  0  0  0  0
  -20.9564  -29.8759   21.6677 H   0  0  0  0  0  0
  -26.0100  -38.2745   24.1457 H   0  0  0  0  0  0
  -25.3290  -19.3838   17.5322 H   0  0  0  0  0  0
  -26.4264  -18.5711   15.4674 H   0  0  0  0  0  0
  -26.6593  -19.8642   19.5422 H   0  0  0  0  0  0
  -29.1749  -18.9079   14.3431 H   0  0  0  0  0  0
  -28.3818  -17.3642   14.5430 H   0  0  0  0  0  0
  -30.9592  -17.7702   18.0577 H   0  0  0  0  0  0
  -31.3056  -19.4688   17.7756 H   0  0  0  0  0  0
  -30.8857  -17.1414   14.3421 H   0  0  0  0  0  0
  -30.2735  -16.4675   15.8386 H   0  0  0  0  0  0
  -28.9865  -18.1482   21.6104 H   0  0  0  0  0  0
  -30.6529  -18.2651   21.2646 H   0  0  0  0  0  0
  -29.9827  -22.9730   20.0357 H   0  0  0  0  0  0
  -28.7712  -22.5991   18.8750 H   0  0  0  0  0  0
  -27.9621  -24.1561   21.4862 H   0  0  0  0  0  0
  -27.0146  -24.0372   20.0681 H   0  0  0  0  0  0
  -30.3378  -19.9872   19.6170 H   0  0  0  0  0  0
  -28.6706  -16.2496   20.2207 H   0  0  0  0  0  0
  -32.1832  -17.9130   16.1451 H   0  0  0  0  0  0
  -31.3528  -19.1728   15.5448 H   0  0  0  0  0  0
  -27.8798  -21.0084   20.7817 H   0  0  0  0  0  0
  -29.3072  -21.2096   21.4566 H   0  0  0  0  0  0
  1 25  1  0  0  0
  1 30  2  0  0  0
  1 84  1  0  0  0
  2  3  1  0  0  0
  2 25  1  0  0  0
  2 87  1  0  0  0
  2 88  1  0  0  0
  3  4  1  0  0  0
  3 89  1  0  0  0
  3 90  1  0  0  0
  4  5  1  0  0  0
  4 91  1  0  0  0
  4 92  1  0  0  0
  5  6  1  0  0  0
  5 26  1  0  0  0
  5 93  1  0  0  0
  6 25  1  0  0  0
  6 94  1  0  0  0
  6 95  1  0  0  0
  7  8  2  0  0  0
  7 26  1  0  0  0
  7 29  1  0  0  0
  8  9  1  0  0  0
  8 22  1  0  0  0
  9 10  1  0  0  0
  9 27  2  0  0  0
 10 11  2  0  0  0
 10 15  1  0  0  0
 11 12  1  0  0  0
 11 96  1  0  0  0
 12 13  2  0  0  0
 12 97  1  0  0  0
 13 14  1  0  0  0
 13 31  1  0  0  0
 14 15  2  0  0  0
 14 98  1  0  0  0
 15 99  1  0  0  0
 16 17  2  0  0  0
 16 21  1  0  0  0
 16 31  1  0  0  0
 17 18  1  0  0  0
 17100  1  0  0  0
 18 19  2  0  0  0
 18101  1  0  0  0
 19 20  1  0  0  0
 19 24  1  0  0  0
 20 21  2  0  0  0
 20102  1  0  0  0
 21 23  1  0  0  0
 22 28  1  0  0  0
 22 32  2  0  0  0
 26 27  1  0  0  0
 28103  1  0  0  0
 28104  1  0  0  0
 29105  1  0  0  0
 29106  1  0  0  0
 33 34  1  0  0  0
 33 66  1  0  0  0
 33 70  2  0  0  0
 34 36  1  0  0  0
 34 59  1  0  0  0
 34107  1  0  0  0
 35 44  2  0  0  0
 35 45  1  0  0  0
 35 68  1  0  0  0
 36 56  1  0  0  0
 36108  1  0  0  0
 37 39  1  0  0  0
 37 47  1  0  0  0
 37 66  1  0  0  0
 37109  1  0  0  0
 38 43  2  0  0  0
 38 46  1  0  0  0
 38 47  1  0  0  0
 39 64  1  0  0  0
 39 67  2  0  0  0
 40 52  1  0  0  0
 40 53  2  0  0  0
 40 58  1  0  0  0
 41110  1  0  0  0
 41111  1  0  0  0
 41112  1  0  0  0
 41 48  1  0  0  0
 42 43  1  0  0  0
 42 66  1  0  0  0
 42113  1  0  0  0
 42114  1  0  0  0
 43 44  1  0  0  0
 44115  1  0  0  0
 45 46  2  0  0  0
 45116  1  0  0  0
 46117  1  0  0  0
 47118  1  0  0  0
 47119  1  0  0  0
 48 56  1  0  0  0
 48 65  1  0  0  0
 48120  1  0  0  0
 49 50  1  0  0  0
 49 53  1  0  0  0
 49 64  1  0  0  0
 49121  1  0  0  0
 50 51  1  0  0  0
 50122  1  0  0  0
 50123  1  0  0  0
 51 52  1  0  0  0
 51124  1  0  0  0
 51125  1  0  0  0
 52126  1  0  0  0
 52127  1  0  0  0
 53 54  1  0  0  0
 54 55  2  0  0  0
 54128  1  0  0  0
 55 57  1  0  0  0
 55129  1  0  0  0
 56 69  2  0  0  0
 57 58  2  0  0  0
 57130  1  0  0  0
 58131  1  0  0  0
 59 60  1  0  0  0
 59 61  1  0  0  0
 59 62  1  0  0  0
 60132  1  0  0  0
 60133  1  0  0  0
 60134  1  0  0  0
 61135  1  0  0  0
 61136  1  0  0  0
 61137  1  0  0  0
 62138  1  0  0  0
 62139  1  0  0  0
 62140  1  0  0  0
 63 65  1  0  0  0
 63141  1  0  0  0
 63142  1  0  0  0
 63143  1  0  0  0
 64144  1  0  0  0
 65145  1  0  0  0
 68 82  1  0  0  0
 71 72  2  0  0  0
 71 73  1  0  0  0
 71146  1  0  0  0
 72 74  1  0  0  0
 72147  1  0  0  0
 73 76  2  0  0  0
 73148  1  0  0  0
 74 75  2  0  0  0
 74 77  1  0  0  0
 75 76  1  0  0  0
 75 78  1  0  0  0
 76 83  1  0  0  0
 77 79  1  0  0  0
 77149  1  0  0  0
 77150  1  0  0  0
 78 85  1  0  0  0
 78151  1  0  0  0
 78152  1  0  0  0
 79 85  1  0  0  0
 79153  1  0  0  0
 79154  1  0  0  0
 80 84  1  0  0  0
 80155  1  0  0  0
 80156  1  0  0  0
 80 83  1  0  0  0
 81 82  1  0  0  0
 81 86  1  0  0  0
 81157  1  0  0  0
 81158  1  0  0  0
 82159  1  0  0  0
 82160  1  0  0  0
 83 86  1  0  0  0
 83161  1  0  0  0
 84162  1  0  0  0
 85163  1  0  0  0
 85164  1  0  0  0
 86165  1  0  0  0
 86166  1  0  0  0
M  CHG  2  85   1  86   1
M  ISO  4   1 100  68 101  82 101  84 100
M  END
> <chiral flag>
0

> <version>
0

> <s_m_source_file>
/data/baiqing/PycharmProjects/Reinvent-master-3.2/result/LINK_invent/BTK/process_docking_weight1_custom_product_contain_oxygen_bond_distance_aromatic_linkinvent_7_9_3/rearranged_h_0007.sdf

> <i_m_source_file_index>
70

> <r_mmod_Potential_Energy-OPLS-2005>
898.043151855469

> <r_mmod_Stretch_Energy-OPLS-2005>
612.09228515625

> <r_mmod_Bend_Energy-OPLS-2005>
466.66845703125

> <r_mmod_Torsional_Energy-OPLS-2005>
258.989288330078

> <r_mmod_Improper_Torsional_Energy-OPLS-2005>
5.42022275924683

> <r_mmod_Van_der_Waal_Energy-OPLS-2005>
124.990394592285

> <r_mmod_Electrostatic_Energy-OPLS-2005>
-60.6526107788086

> <r_mmod_Solvation_Energy-OPLS-2005>
-959.570251464844

> <b_mmod_Minimization_Converged-OPLS-2005>
0

> <r_mmod_RMS_Derivative-OPLS-2005>
2.20445871353149

$$$$
70
                    3D
 Structure written by MMmdl.
163172  0  0  1  0            999 V2000
  -30.6239  -14.6169   20.5131 C   0  0  0  0  0  0
  -30.4403  -12.3795   19.4491 C   0  0  0  0  0  0
  -29.5080  -12.5103   18.2237 C   0  0  0  0  0  0
  -28.0298  -12.3523   18.6338 C   0  0  0  0  0  0
  -27.6574  -13.2136   19.8698 C   0  0  2  0  0  0
  -28.7013  -13.0439   20.9974 C   0  0  0  0  0  0
  -25.2579  -13.8169   20.5686 C   0  0  0  0  0  0
  -24.1841  -13.0444   20.9189 C   0  0  0  0  0  0
  -24.6396  -11.6908   20.8735 C   0  0  0  0  0  0
  -23.9064  -10.4296   21.0406 C   0  0  0  0  0  0
  -24.3615   -9.4210   21.9184 C   0  0  0  0  0  0
  -23.6292   -8.2244   22.0754 C   0  0  0  0  0  0
  -22.4275   -8.0280   21.3545 C   0  0  0  0  0  0
  -21.9909   -9.0255   20.4647 C   0  0  0  0  0  0
  -22.7236  -10.2135   20.3056 C   0  0  0  0  0  0
  -21.6852   -6.0736   22.5279 C   0  0  0  0  0  0
  -21.4014   -6.5641   23.8212 C   0  0  0  0  0  0
  -21.3659   -5.6793   24.9174 C   0  0  0  0  0  0
  -21.6046   -4.3057   24.7225 C   0  0  0  0  0  0
  -21.8818   -3.8148   23.4346 C   0  0  0  0  0  0
  -21.9193   -4.6964   22.3402 C   0  0  0  0  0  0
  -22.7862  -13.5238   21.1851 C   0  0  0  0  0  0
  -22.1662   -4.2149   21.0979 F   0  0  0  0  0  0
  -21.5629   -3.4539   25.7737 F   0  0  0  0  0  0
  -30.0214  -13.3883   20.4409 N   0  0  0  0  0  0
  -26.3008  -12.9343   20.3341 N   0  0  0  0  0  0
  -25.9329  -11.6502   20.5768 N   0  0  0  0  0  0
  -22.0500  -12.8230   22.0402 N   0  0  0  0  0  0
  -25.4302  -15.1887   20.4081 N   0  0  0  0  0  0
  -31.7670  -14.8034   20.0849 O   0  0  0  0  0  0
  -21.6640   -6.8879   21.4241 O   0  0  0  0  0  0
  -22.3543  -14.5545   20.6698 O   0  0  0  0  0  0
  -24.6253  -31.8605   23.2045 C   0  0  0  0  0  0
  -25.9112  -32.4783   23.8353 C   0  0  1  0  0  0
  -27.2212  -27.3282   20.1082 C   0  0  0  0  0  0
  -25.5935  -33.8583   24.2278 N   0  0  0  0  0  0
  -23.4168  -30.4865   21.5463 C   0  0  2  0  0  0
  -24.8632  -28.9459   20.1103 C   0  0  0  0  0  0
  -22.7461  -29.4636   22.4942 C   0  0  0  0  0  0
  -18.0286  -28.1387   22.8489 C   0  0  0  0  0  0
  -24.1495  -36.7295   23.2634 C   0  0  0  0  0  0
  -25.9584  -30.7953   21.3748 C   0  0  0  0  0  0
  -26.0326  -29.4246   20.7134 C   0  0  0  0  0  0
  -27.2151  -28.6275   20.7028 C   0  0  0  0  0  0
  -26.0261  -26.9040   19.4789 C   0  0  0  0  0  0
  -24.8619  -27.6918   19.4848 C   0  0  0  0  0  0
  -23.6306  -29.8236   20.1610 C   0  0  0  0  0  0
  -25.4118  -36.3076   24.0322 C   0  0  1  0  0  0
  -20.5882  -28.3688   23.1293 C   0  0  2  0  0  0
  -20.6777  -26.9415   22.5409 C   0  0  0  0  0  0
  -19.5754  -26.6389   21.5213 C   0  0  0  0  0  0
  -18.1936  -26.7930   22.1627 C   0  0  0  0  0  0
  -19.1537  -28.8855   23.2886 C   0  0  0  0  0  0
  -18.9463  -30.1459   23.8898 C   0  0  0  0  0  0
  -17.6463  -30.6589   24.0566 C   0  0  0  0  0  0
  -25.9059  -34.9448   23.5097 C   0  0  0  0  0  0
  -16.5353  -29.9089   23.6333 C   0  0  0  0  0  0
  -16.7274  -28.6508   23.0352 C   0  0  0  0  0  0
  -26.4501  -31.6587   25.0718 C   0  0  0  0  0  0
  -25.3732  -31.3737   26.1448 C   0  0  0  0  0  0
  -27.0335  -30.3000   24.6173 C   0  0  0  0  0  0
  -27.6051  -32.4321   25.7501 C   0  0  0  0  0  0
  -27.5576  -37.1803   24.8459 C   0  0  0  0  0  0
  -21.4177  -29.3047   22.3688 N   0  0  0  0  0  0
  -26.4288  -37.3773   23.9401 N   0  0  0  0  0  0
  -24.6854  -31.0625   22.0992 N   0  0  0  0  0  0
  -23.4196  -28.8166   23.3006 O   0  0  0  0  0  0
  -28.3415  -26.4838   20.1601 O   0  0  0  0  0  0
  -26.5612  -34.8917   22.4655 O   0  0  0  0  0  0
  -23.5423  -32.1408   23.7384 O   0  0  0  0  0  0
  -30.6134  -19.2012   19.7929 C   0  0  0  0  0  0
  -30.6301  -17.7805   19.8780 C   0  0  0  0  0  0
  -29.0905  -19.3282   21.6658 C   0  0  0  0  0  0
  -29.0741  -17.8869   21.7264 C   0  0  0  0  0  0
  -29.8680  -20.0180   20.6860 C   0  0  0  0  0  0
  -29.8779  -17.0864   20.8575 C   0  0  0  0  0  0
  -28.2784  -20.1483   22.6717 C   0  0  0  0  0  0
  -28.2201  -17.1592   22.7711 C   0  0  0  0  0  0
  -27.8410  -19.3646   23.9114 C   0  0  0  0  0  0
  -27.2051  -18.0413   23.5024 C   0  0  0  0  0  0
  -30.0829  -21.5840   20.6728 C   0  0  0  0  0  0
  -29.2747  -24.0187   20.4074 C   0  0  0  0  0  0
  -28.1249  -25.0282   19.9833 C   0  0  0  0  0  0
  -29.8324  -15.6291   20.9779 N   0  0  0  0  0  0
  -28.9776  -22.5278   20.2565 N   0  3  0  0  0  0
  -31.4813  -12.5062   19.1475 H   0  0  0  0  0  0
  -30.3749  -11.3789   19.8792 H   0  0  0  0  0  0
  -29.7683  -11.7649   17.4715 H   0  0  0  0  0  0
  -29.6546  -13.4835   17.7527 H   0  0  0  0  0  0
  -27.8595  -11.2982   18.8546 H   0  0  0  0  0  0
  -27.3771  -12.5952   17.7944 H   0  0  0  0  0  0
  -27.6838  -14.2533   19.5431 H   0  0  0  0  0  0
  -28.7071  -12.0145   21.3591 H   0  0  0  0  0  0
  -28.4447  -13.6554   21.8636 H   0  0  0  0  0  0
  -25.2761   -9.5686   22.4758 H   0  0  0  0  0  0
  -24.0001   -7.4636   22.7472 H   0  0  0  0  0  0
  -21.0841   -8.8774   19.8952 H   0  0  0  0  0  0
  -22.3695  -10.9674   19.6165 H   0  0  0  0  0  0
  -21.2006   -7.6147   23.9714 H   0  0  0  0  0  0
  -21.1483   -6.0523   25.9075 H   0  0  0  0  0  0
  -22.0599   -2.7609   23.2846 H   0  0  0  0  0  0
  -22.4112  -11.9886   22.4788 H   0  0  0  0  0  0
  -21.1118  -13.1256   22.2610 H   0  0  0  0  0  0
  -24.6600  -15.8411   20.5039 H   0  0  0  0  0  0
  -26.2745  -15.6235   20.0587 H   0  0  0  0  0  0
  -26.7168  -32.5451   23.1092 H   0  0  0  0  0  0
  -25.0085  -33.9730   25.0421 H   0  0  0  0  0  0
  -22.7113  -31.3072   21.4056 H   0  0  0  0  0  0
  -23.3752  -35.9634   23.3301 H   0  0  0  0  0  0
  -24.3583  -36.8916   22.2046 H   0  0  0  0  0  0
  -23.7263  -37.6505   23.6660 H   0  0  0  0  0  0
  -26.0873  -31.5631   20.6105 H   0  0  0  0  0  0
  -26.8392  -30.8412   22.0024 H   0  0  0  0  0  0
  -28.1125  -28.9914   21.1842 H   0  0  0  0  0  0
  -25.9548  -25.9495   18.9789 H   0  0  0  0  0  0
  -23.9654  -27.3229   19.0058 H   0  0  0  0  0  0
  -23.7473  -30.6015   19.4054 H   0  0  0  0  0  0
  -22.7516  -29.2509   19.8577 H   0  0  0  0  0  0
  -25.1303  -36.1919   25.0814 H   0  0  0  0  0  0
  -20.9975  -28.3259   24.1415 H   0  0  0  0  0  0
  -20.5697  -26.2289   23.3604 H   0  0  0  0  0  0
  -21.6645  -26.7460   22.1193 H   0  0  0  0  0  0
  -19.6919  -25.6304   21.1239 H   0  0  0  0  0  0
  -19.6692  -27.3204   20.6750 H   0  0  0  0  0  0
  -17.4201  -26.6679   21.4032 H   0  0  0  0  0  0
  -18.0343  -26.0071   22.9024 H   0  0  0  0  0  0
  -19.7939  -30.7279   24.2261 H   0  0  0  0  0  0
  -17.5020  -31.6272   24.5165 H   0  0  0  0  0  0
  -15.5358  -30.2991   23.7666 H   0  0  0  0  0  0
  -15.8673  -28.0834   22.7060 H   0  0  0  0  0  0
  -24.5900  -30.7096   25.7781 H   0  0  0  0  0  0
  -24.8941  -32.2914   26.4862 H   0  0  0  0  0  0
  -25.8056  -30.8918   27.0222 H   0  0  0  0  0  0
  -26.2903  -29.6762   24.1192 H   0  0  0  0  0  0
  -27.4018  -29.7252   25.4679 H   0  0  0  0  0  0
  -27.8782  -30.4280   23.9402 H   0  0  0  0  0  0
  -27.2646  -33.3615   26.2077 H   0  0  0  0  0  0
  -28.3872  -32.6890   25.0344 H   0  0  0  0  0  0
  -28.0704  -31.8445   26.5425 H   0  0  0  0  0  0
  -28.2589  -38.0107   24.7505 H   0  0  0  0  0  0
  -28.1082  -36.2631   24.6290 H   0  0  0  0  0  0
  -27.2288  -37.1454   25.8865 H   0  0  0  0  0  0
  -20.9351  -29.8761   21.6896 H   0  0  0  0  0  0
  -26.0169  -38.2846   24.1413 H   0  0  0  0  0  0
  -31.2348  -19.6704   19.0422 H   0  0  0  0  0  0
  -31.2356  -17.2287   19.1732 H   0  0  0  0  0  0
  -27.3915  -20.5231   22.1593 H   0  0  0  0  0  0
  -28.8393  -21.0197   23.0081 H   0  0  0  0  0  0
  -28.8992  -16.7155   23.5008 H   0  0  0  0  0  0
  -27.6804  -16.3326   22.3071 H   0  0  0  0  0  0
  -27.1462  -19.9587   24.5058 H   0  0  0  0  0  0
  -28.7056  -19.1699   24.5483 H   0  0  0  0  0  0
  -26.8057  -17.5148   24.3706 H   0  0  0  0  0  0
  -26.3566  -18.2402   22.8462 H   0  0  0  0  0  0
  -30.9342  -21.7917   20.0227 H   0  0  0  0  0  0
  -30.4268  -21.8762   21.6650 H   0  0  0  0  0  0
  -29.5276  -24.2087   21.4513 H   0  0  0  0  0  0
  -30.1691  -24.2525   19.8285 H   0  0  0  0  0  0
  -27.8993  -24.8507   18.9312 H   0  0  0  0  0  0
  -27.2325  -24.7461   20.5435 H   0  0  0  0  0  0
  -29.0009  -15.2800   21.4281 H   0  0  0  0  0  0
  -28.1576  -22.3035   20.7948 H   0  0  0  0  0  0
  -28.7621  -22.3260   19.2925 H   0  0  0  0  0  0
  1 25  1  0  0  0
  1 30  2  0  0  0
  1 84  1  0  0  0
  2  3  1  0  0  0
  2 25  1  0  0  0
  2 86  1  0  0  0
  2 87  1  0  0  0
  3  4  1  0  0  0
  3 88  1  0  0  0
  3 89  1  0  0  0
  4  5  1  0  0  0
  4 90  1  0  0  0
  4 91  1  0  0  0
  5  6  1  0  0  0
  5 26  1  0  0  0
  5 92  1  0  0  0
  6 25  1  0  0  0
  6 93  1  0  0  0
  6 94  1  0  0  0
  7  8  2  0  0  0
  7 26  1  0  0  0
  7 29  1  0  0  0
  8  9  1  0  0  0
  8 22  1  0  0  0
  9 10  1  0  0  0
  9 27  2  0  0  0
 10 11  2  0  0  0
 10 15  1  0  0  0
 11 12  1  0  0  0
 11 95  1  0  0  0
 12 13  2  0  0  0
 12 96  1  0  0  0
 13 14  1  0  0  0
 13 31  1  0  0  0
 14 15  2  0  0  0
 14 97  1  0  0  0
 15 98  1  0  0  0
 16 17  2  0  0  0
 16 21  1  0  0  0
 16 31  1  0  0  0
 17 18  1  0  0  0
 17 99  1  0  0  0
 18 19  2  0  0  0
 18100  1  0  0  0
 19 20  1  0  0  0
 19 24  1  0  0  0
 20 21  2  0  0  0
 20101  1  0  0  0
 21 23  1  0  0  0
 22 28  1  0  0  0
 22 32  2  0  0  0
 26 27  1  0  0  0
 28102  1  0  0  0
 28103  1  0  0  0
 29104  1  0  0  0
 29105  1  0  0  0
 33 34  1  0  0  0
 33 66  1  0  0  0
 33 70  2  0  0  0
 34 36  1  0  0  0
 34 59  1  0  0  0
 34106  1  0  0  0
 35 44  2  0  0  0
 35 45  1  0  0  0
 35 68  1  0  0  0
 36 56  1  0  0  0
 36107  1  0  0  0
 37 39  1  0  0  0
 37 47  1  0  0  0
 37 66  1  0  0  0
 37108  1  0  0  0
 38 43  2  0  0  0
 38 46  1  0  0  0
 38 47  1  0  0  0
 39 64  1  0  0  0
 39 67  2  0  0  0
 40 52  1  0  0  0
 40 53  2  0  0  0
 40 58  1  0  0  0
 41109  1  0  0  0
 41110  1  0  0  0
 41111  1  0  0  0
 41 48  1  0  0  0
 42 43  1  0  0  0
 42 66  1  0  0  0
 42112  1  0  0  0
 42113  1  0  0  0
 43 44  1  0  0  0
 44114  1  0  0  0
 45 46  2  0  0  0
 45115  1  0  0  0
 46116  1  0  0  0
 47117  1  0  0  0
 47118  1  0  0  0
 48 56  1  0  0  0
 48 65  1  0  0  0
 48119  1  0  0  0
 49 50  1  0  0  0
 49 53  1  0  0  0
 49 64  1  0  0  0
 49120  1  0  0  0
 50 51  1  0  0  0
 50121  1  0  0  0
 50122  1  0  0  0
 51 52  1  0  0  0
 51123  1  0  0  0
 51124  1  0  0  0
 52125  1  0  0  0
 52126  1  0  0  0
 53 54  1  0  0  0
 54 55  2  0  0  0
 54127  1  0  0  0
 55 57  1  0  0  0
 55128  1  0  0  0
 56 69  2  0  0  0
 57 58  2  0  0  0
 57129  1  0  0  0
 58130  1  0  0  0
 59 60  1  0  0  0
 59 61  1  0  0  0
 59 62  1  0  0  0
 60131  1  0  0  0
 60132  1  0  0  0
 60133  1  0  0  0
 61134  1  0  0  0
 61135  1  0  0  0
 61136  1  0  0  0
 62137  1  0  0  0
 62138  1  0  0  0
 62139  1  0  0  0
 63 65  1  0  0  0
 63140  1  0  0  0
 63141  1  0  0  0
 63142  1  0  0  0
 64143  1  0  0  0
 65144  1  0  0  0
 68 83  1  0  0  0
 71 72  2  0  0  0
 71 75  1  0  0  0
 71145  1  0  0  0
 72 76  1  0  0  0
 72146  1  0  0  0
 73 74  1  0  0  0
 73 75  2  0  0  0
 73 77  1  0  0  0
 74 76  2  0  0  0
 74 78  1  0  0  0
 75 81  1  0  0  0
 76 84  1  0  0  0
 77 79  1  0  0  0
 77147  1  0  0  0
 77148  1  0  0  0
 78 80  1  0  0  0
 78149  1  0  0  0
 78150  1  0  0  0
 79 80  1  0  0  0
 79151  1  0  0  0
 79152  1  0  0  0
 80153  1  0  0  0
 80154  1  0  0  0
 81 85  1  0  0  0
 81155  1  0  0  0
 81156  1  0  0  0
 82 83  1  0  0  0
 82 85  1  0  0  0
 82157  1  0  0  0
 82158  1  0  0  0
 83159  1  0  0  0
 83160  1  0  0  0
 84161  1  0  0  0
 85162  1  0  0  0
 85163  1  0  0  0
M  CHG  1  85   1
M  ISO  4   1 100  68 101  83 101  84 100
M  END
> <chiral flag>
0

> <version>
0

> <s_m_source_file>
/data/baiqing/PycharmProjects/Reinvent-master-3.2/result/LINK_invent/BTK/process_docking_weight1_custom_product_contain_oxygen_bond_distance_aromatic_linkinvent_7_9_3/rearranged_h_0007.sdf

> <i_m_source_file_index>
71

> <r_mmod_Potential_Energy-OPLS-2005>
-120.385429382324

> <r_mmod_Stretch_Energy-OPLS-2005>
80.067268371582

> <r_mmod_Bend_Energy-OPLS-2005>
135.447860717773

> <r_mmod_Torsional_Energy-OPLS-2005>
212.677734375

> <r_mmod_Improper_Torsional_Energy-OPLS-2005>
4.06845903396606

> <r_mmod_Van_der_Waal_Energy-OPLS-2005>
150.058731079102

> <r_mmod_Electrostatic_Energy-OPLS-2005>
-286.705657958984

> <r_mmod_Solvation_Energy-OPLS-2005>
-458.816192626953

> <b_mmod_Minimization_Converged-OPLS-2005>
0

> <r_mmod_RMS_Derivative-OPLS-2005>
1.2895405292511

$$$$
71
                    3D
 Structure written by MMmdl.
149157  0  0  1  0            999 V2000
  -30.4120  -15.2393   20.3819 C   0  0  0  0  0  0
  -30.4473  -12.7862   19.5302 C   0  0  0  0  0  0
  -29.5402  -12.5812   18.2892 C   0  0  0  0  0  0
  -28.0853  -12.3068   18.7108 C   0  0  0  0  0  0
  -27.6175  -13.2691   19.8306 C   0  0  2  0  0  0
  -28.6505  -13.4093   20.9692 C   0  0  0  0  0  0
  -25.2391  -13.8205   20.5693 C   0  0  0  0  0  0
  -24.1751  -13.0414   20.9258 C   0  0  0  0  0  0
  -24.6403  -11.6914   20.8773 C   0  0  0  0  0  0
  -23.9092  -10.4281   21.0415 C   0  0  0  0  0  0
  -24.3635   -9.4194   21.9192 C   0  0  0  0  0  0
  -23.6299   -8.2236   22.0759 C   0  0  0  0  0  0
  -22.4281   -8.0280   21.3547 C   0  0  0  0  0  0
  -21.9923   -9.0256   20.4648 C   0  0  0  0  0  0
  -22.7262  -10.2130   20.3060 C   0  0  0  0  0  0
  -21.6852   -6.0735   22.5277 C   0  0  0  0  0  0
  -21.4015   -6.5638   23.8211 C   0  0  0  0  0  0
  -21.3661   -5.6792   24.9174 C   0  0  0  0  0  0
  -21.6043   -4.3055   24.7223 C   0  0  0  0  0  0
  -21.8820   -3.8145   23.4344 C   0  0  0  0  0  0
  -21.9192   -4.6963   22.3401 C   0  0  0  0  0  0
  -22.7771  -13.5182   21.1899 C   0  0  0  0  0  0
  -22.1661   -4.2149   21.0980 F   0  0  0  0  0  0
  -21.5628   -3.4539   25.7736 F   0  0  0  0  0  0
  -29.8905  -13.9162   20.3582 N   0  0  0  0  0  0
  -26.2835  -12.9484   20.3217 N   0  0  0  0  0  0
  -25.9342  -11.6597   20.5733 N   0  0  0  0  0  0
  -22.0422  -12.8173   22.0457 N   0  0  0  0  0  0
  -25.3981  -15.1915   20.4004 N   0  0  0  0  0  0
  -31.6230  -15.2950   20.1205 O   0  0  0  0  0  0
  -21.6640   -6.8879   21.4240 O   0  0  0  0  0  0
  -22.3457  -14.5489   20.6739 O   0  0  0  0  0  0
  -24.6600  -31.8254   23.1711 C   0  0  0  0  0  0
  -25.9294  -32.4595   23.8167 C   0  0  1  0  0  0
  -27.2237  -26.9457   20.1901 C   0  0  0  0  0  0
  -25.5967  -33.8408   24.2073 N   0  0  0  0  0  0
  -23.4750  -30.4356   21.5192 C   0  0  2  0  0  0
  -24.9296  -28.8208   20.1156 C   0  0  0  0  0  0
  -22.7655  -29.4445   22.4782 C   0  0  0  0  0  0
  -18.0324  -28.1412   22.8468 C   0  0  0  0  0  0
  -24.1495  -36.7211   23.2650 C   0  0  0  0  0  0
  -26.0413  -30.6355   21.4013 C   0  0  0  0  0  0
  -26.1092  -29.2238   20.7540 C   0  0  0  0  0  0
  -27.2483  -28.3040   20.7722 C   0  0  0  0  0  0
  -26.0191  -26.6903   19.4988 C   0  0  0  0  0  0
  -24.9069  -27.5722   19.4712 C   0  0  0  0  0  0
  -23.7156  -29.7483   20.1462 C   0  0  0  0  0  0
  -25.4135  -36.2970   24.0301 C   0  0  1  0  0  0
  -20.5945  -28.3752   23.1196 C   0  0  2  0  0  0
  -20.6800  -26.9436   22.5407 C   0  0  0  0  0  0
  -19.5774  -26.6380   21.5220 C   0  0  0  0  0  0
  -18.1954  -26.7945   22.1625 C   0  0  0  0  0  0
  -19.1585  -28.8902   23.2817 C   0  0  0  0  0  0
  -18.9498  -30.1492   23.8853 C   0  0  0  0  0  0
  -17.6491  -30.6601   24.0558 C   0  0  0  0  0  0
  -25.9095  -34.9354   23.5008 C   0  0  0  0  0  0
  -16.5380  -29.9091   23.6344 C   0  0  0  0  0  0
  -16.7307  -28.6514   23.0361 C   0  0  0  0  0  0
  -26.4554  -31.6537   25.0693 C   0  0  0  0  0  0
  -25.3682  -31.3794   26.1349 C   0  0  0  0  0  0
  -27.0447  -30.2903   24.6420 C   0  0  0  0  0  0
  -27.6044  -32.4349   25.7495 C   0  0  0  0  0  0
  -27.5561  -37.1771   24.8474 C   0  0  0  0  0  0
  -21.4328  -29.3038   22.3536 N   0  0  0  0  0  0
  -26.4287  -37.3697   23.9395 N   0  0  0  0  0  0
  -24.7463  -30.9931   22.0841 N   0  0  0  0  0  0
  -23.4212  -28.8021   23.3023 O   0  0  0  0  0  0
  -28.2606  -25.8793   20.2147 O   0  0  0  0  0  0
  -26.5708  -34.8886   22.4606 O   0  0  0  0  0  0
  -23.5675  -32.1217   23.6814 O   0  0  0  0  0  0
  -30.2150  -20.5225   19.8653 C   0  0  0  0  0  0
  -30.4124  -19.0456   19.9251 C   0  0  0  0  0  0
  -28.1607  -20.3364   20.8549 C   0  0  0  0  0  0
  -29.0756  -21.3291   20.3143 C   0  0  0  0  0  0
  -28.3446  -18.8545   20.9226 C   0  0  0  0  0  0
  -29.4913  -18.0549   20.4622 C   0  0  0  0  0  0
  -27.1970  -18.0879   21.5537 C   0  0  0  0  0  0
  -29.0316  -23.0855   20.2964 C   0  0  0  0  0  0
  -29.5588  -16.4358   20.5440 N   0  0  0  0  0  0
  -27.8795  -24.2295   20.2719 N   0  0  0  0  0  0
  -31.4660  -12.9984   19.2033 H   0  0  0  0  0  0
  -30.5135  -11.8694   20.1183 H   0  0  0  0  0  0
  -29.9147  -11.7625   17.6735 H   0  0  0  0  0  0
  -29.5753  -13.4751   17.6643 H   0  0  0  0  0  0
  -28.0332  -11.2781   19.0689 H   0  0  0  0  0  0
  -27.4188  -12.3661   17.8494 H   0  0  0  0  0  0
  -27.5436  -14.2454   19.3506 H   0  0  0  0  0  0
  -28.8078  -12.4604   21.4840 H   0  0  0  0  0  0
  -28.2938  -14.1133   21.7222 H   0  0  0  0  0  0
  -25.2775   -9.5668   22.4775 H   0  0  0  0  0  0
  -23.9999   -7.4626   22.7481 H   0  0  0  0  0  0
  -21.0853   -8.8783   19.8953 H   0  0  0  0  0  0
  -22.3723  -10.9675   19.6174 H   0  0  0  0  0  0
  -21.2011   -7.6146   23.9714 H   0  0  0  0  0  0
  -21.1482   -6.0522   25.9076 H   0  0  0  0  0  0
  -22.0598   -2.7605   23.2845 H   0  0  0  0  0  0
  -22.4041  -11.9836   22.4845 H   0  0  0  0  0  0
  -21.1043  -13.1200   22.2671 H   0  0  0  0  0  0
  -24.6037  -15.8191   20.4588 H   0  0  0  0  0  0
  -26.2008  -15.6094   19.9504 H   0  0  0  0  0  0
  -26.7362  -32.5143   23.0882 H   0  0  0  0  0  0
  -25.0062  -33.9487   25.0188 H   0  0  0  0  0  0
  -22.7869  -31.2657   21.3471 H   0  0  0  0  0  0
  -23.3753  -35.9550   23.3327 H   0  0  0  0  0  0
  -24.3560  -36.8842   22.2061 H   0  0  0  0  0  0
  -23.7273  -37.6414   23.6698 H   0  0  0  0  0  0
  -26.2184  -31.3740   20.6182 H   0  0  0  0  0  0
  -26.9027  -30.6951   22.0544 H   0  0  0  0  0  0
  -28.1459  -28.6122   21.2900 H   0  0  0  0  0  0
  -25.9148  -25.7383   18.9980 H   0  0  0  0  0  0
  -24.0117  -27.2583   18.9520 H   0  0  0  0  0  0
  -23.8710  -30.5151   19.3864 H   0  0  0  0  0  0
  -22.8261  -29.2017   19.8292 H   0  0  0  0  0  0
  -25.1338  -36.1773   25.0795 H   0  0  0  0  0  0
  -21.0033  -28.3366   24.1320 H   0  0  0  0  0  0
  -20.5694  -26.2367   23.3644 H   0  0  0  0  0  0
  -21.6663  -26.7418   22.1204 H   0  0  0  0  0  0
  -19.6934  -25.6282   21.1276 H   0  0  0  0  0  0
  -19.6721  -27.3166   20.6732 H   0  0  0  0  0  0
  -17.4223  -26.6696   21.4026 H   0  0  0  0  0  0
  -18.0344  -26.0099   22.9033 H   0  0  0  0  0  0
  -19.7974  -30.7318   24.2202 H   0  0  0  0  0  0
  -17.5047  -31.6279   24.5167 H   0  0  0  0  0  0
  -15.5380  -30.2980   23.7697 H   0  0  0  0  0  0
  -15.8707  -28.0821   22.7095 H   0  0  0  0  0  0
  -24.5875  -30.7133   25.7660 H   0  0  0  0  0  0
  -24.8856  -32.2998   26.4646 H   0  0  0  0  0  0
  -25.7904  -30.9047   27.0214 H   0  0  0  0  0  0
  -26.3107  -29.6581   24.1410 H   0  0  0  0  0  0
  -27.3965  -29.7270   25.5074 H   0  0  0  0  0  0
  -27.9057  -30.4089   23.9837 H   0  0  0  0  0  0
  -27.2612  -33.3701   26.1934 H   0  0  0  0  0  0
  -28.3922  -32.6831   25.0369 H   0  0  0  0  0  0
  -28.0635  -31.8570   26.5526 H   0  0  0  0  0  0
  -28.2591  -38.0047   24.7452 H   0  0  0  0  0  0
  -28.1040  -36.2569   24.6392 H   0  0  0  0  0  0
  -27.2263  -37.1519   25.8874 H   0  0  0  0  0  0
  -20.9578  -29.8725   21.6662 H   0  0  0  0  0  0
  -26.0141  -38.2766   24.1367 H   0  0  0  0  0  0
  -31.0381  -21.0796   19.4394 H   0  0  0  0  0  0
  -31.3423  -18.6688   19.5229 H   0  0  0  0  0  0
  -27.2448  -20.7357   21.2680 H   0  0  0  0  0  0
  -26.5778  -18.7345   22.1762 H   0  0  0  0  0  0
  -27.5577  -17.2793   22.1897 H   0  0  0  0  0  0
  -26.5629  -17.6655   20.7760 H   0  0  0  0  0  0
  -29.6566  -23.3390   19.4400 H   0  0  0  0  0  0
  -29.6423  -23.3564   21.1585 H   0  0  0  0  0  0
  -28.6475  -16.0818   20.7909 H   0  0  0  0  0  0
  -27.3204  -24.1203   21.1138 H   0  0  0  0  0  0
  1 25  1  0  0  0
  1 30  2  0  0  0
  1 79  1  0  0  0
  2  3  1  0  0  0
  2 25  1  0  0  0
  2 81  1  0  0  0
  2 82  1  0  0  0
  3  4  1  0  0  0
  3 83  1  0  0  0
  3 84  1  0  0  0
  4  5  1  0  0  0
  4 85  1  0  0  0
  4 86  1  0  0  0
  5  6  1  0  0  0
  5 26  1  0  0  0
  5 87  1  0  0  0
  6 25  1  0  0  0
  6 88  1  0  0  0
  6 89  1  0  0  0
  7  8  2  0  0  0
  7 26  1  0  0  0
  7 29  1  0  0  0
  8  9  1  0  0  0
  8 22  1  0  0  0
  9 10  1  0  0  0
  9 27  2  0  0  0
 10 11  2  0  0  0
 10 15  1  0  0  0
 11 12  1  0  0  0
 11 90  1  0  0  0
 12 13  2  0  0  0
 12 91  1  0  0  0
 13 14  1  0  0  0
 13 31  1  0  0  0
 14 15  2  0  0  0
 14 92  1  0  0  0
 15 93  1  0  0  0
 16 17  2  0  0  0
 16 21  1  0  0  0
 16 31  1  0  0  0
 17 18  1  0  0  0
 17 94  1  0  0  0
 18 19  2  0  0  0
 18 95  1  0  0  0
 19 20  1  0  0  0
 19 24  1  0  0  0
 20 21  2  0  0  0
 20 96  1  0  0  0
 21 23  1  0  0  0
 22 28  1  0  0  0
 22 32  2  0  0  0
 26 27  1  0  0  0
 28 97  1  0  0  0
 28 98  1  0  0  0
 29 99  1  0  0  0
 29100  1  0  0  0
 33 34  1  0  0  0
 33 66  1  0  0  0
 33 70  2  0  0  0
 34 36  1  0  0  0
 34 59  1  0  0  0
 34101  1  0  0  0
 35 44  2  0  0  0
 35 45  1  0  0  0
 35 68  1  0  0  0
 36 56  1  0  0  0
 36102  1  0  0  0
 37 39  1  0  0  0
 37 47  1  0  0  0
 37 66  1  0  0  0
 37103  1  0  0  0
 38 43  2  0  0  0
 38 46  1  0  0  0
 38 47  1  0  0  0
 39 64  1  0  0  0
 39 67  2  0  0  0
 40 52  1  0  0  0
 40 53  2  0  0  0
 40 58  1  0  0  0
 41104  1  0  0  0
 41105  1  0  0  0
 41106  1  0  0  0
 41 48  1  0  0  0
 42 43  1  0  0  0
 42 66  1  0  0  0
 42107  1  0  0  0
 42108  1  0  0  0
 43 44  1  0  0  0
 44109  1  0  0  0
 45 46  2  0  0  0
 45110  1  0  0  0
 46111  1  0  0  0
 47112  1  0  0  0
 47113  1  0  0  0
 48 56  1  0  0  0
 48 65  1  0  0  0
 48114  1  0  0  0
 49 50  1  0  0  0
 49 53  1  0  0  0
 49 64  1  0  0  0
 49115  1  0  0  0
 50 51  1  0  0  0
 50116  1  0  0  0
 50117  1  0  0  0
 51 52  1  0  0  0
 51118  1  0  0  0
 51119  1  0  0  0
 52120  1  0  0  0
 52121  1  0  0  0
 53 54  1  0  0  0
 54 55  2  0  0  0
 54122  1  0  0  0
 55 57  1  0  0  0
 55123  1  0  0  0
 56 69  2  0  0  0
 57 58  2  0  0  0
 57124  1  0  0  0
 58125  1  0  0  0
 59 60  1  0  0  0
 59 61  1  0  0  0
 59 62  1  0  0  0
 60126  1  0  0  0
 60127  1  0  0  0
 60128  1  0  0  0
 61129  1  0  0  0
 61130  1  0  0  0
 61131  1  0  0  0
 62132  1  0  0  0
 62133  1  0  0  0
 62134  1  0  0  0
 63 65  1  0  0  0
 63135  1  0  0  0
 63136  1  0  0  0
 63137  1  0  0  0
 64138  1  0  0  0
 65139  1  0  0  0
 68 80  1  0  0  0
 71 72  2  0  0  0
 71 74  1  0  0  0
 71140  1  0  0  0
 72 76  1  0  0  0
 72141  1  0  0  0
 73 74  2  0  0  0
 73 75  1  0  0  0
 73142  1  0  0  0
 74 78  1  0  0  0
 75 76  2  0  0  0
 75 77  1  0  0  0
 76 79  1  0  0  0
 77143  1  0  0  0
 77144  1  0  0  0
 77145  1  0  0  0
 78 80  1  0  0  0
 78146  1  0  0  0
 78147  1  0  0  0
 79148  1  0  0  0
 80149  1  0  0  0
M  ISO  4   1 100  68 101  79 100  80 101
M  END
> <chiral flag>
0

> <version>
0

> <s_m_source_file>
/data/baiqing/PycharmProjects/Reinvent-master-3.2/result/LINK_invent/BTK/process_docking_weight1_custom_product_contain_oxygen_bond_distance_aromatic_linkinvent_7_9_3/rearranged_h_0007.sdf

> <i_m_source_file_index>
72

> <r_mmod_Potential_Energy-OPLS-2005>
1094.83227539062

> <r_mmod_Stretch_Energy-OPLS-2005>
494.412231445312

> <r_mmod_Bend_Energy-OPLS-2005>
429.095062255859

> <r_mmod_Torsional_Energy-OPLS-2005>
216.0126953125

> <r_mmod_Improper_Torsional_Energy-OPLS-2005>
4.39895725250244

> <r_mmod_Van_der_Waal_Energy-OPLS-2005>
127.056663513184

> <r_mmod_Electrostatic_Energy-OPLS-2005>
-384.467376708984

> <r_mmod_Solvation_Energy-OPLS-2005>
-218.544906616211

> <b_mmod_Minimization_Converged-OPLS-2005>
0

> <r_mmod_RMS_Derivative-OPLS-2005>
0.661571383476257

$$$$
72
                    3D
 Structure written by MMmdl.
149157  0  0  1  0            999 V2000
  -30.5218  -15.0076   20.4080 C   0  0  0  0  0  0
  -30.4443  -12.6274   19.5139 C   0  0  0  0  0  0
  -29.5309  -12.5322   18.2686 C   0  0  0  0  0  0
  -28.0668  -12.3032   18.6880 C   0  0  0  0  0  0
  -27.6279  -13.2508   19.8347 C   0  0  2  0  0  0
  -28.6658  -13.3109   20.9753 C   0  0  0  0  0  0
  -25.2465  -13.8212   20.5702 C   0  0  0  0  0  0
  -24.1774  -13.0453   20.9224 C   0  0  0  0  0  0
  -24.6391  -11.6931   20.8765 C   0  0  0  0  0  0
  -23.9072  -10.4306   21.0410 C   0  0  0  0  0  0
  -24.3621   -9.4213   21.9185 C   0  0  0  0  0  0
  -23.6302   -8.2241   22.0748 C   0  0  0  0  0  0
  -22.4284   -8.0282   21.3529 C   0  0  0  0  0  0
  -21.9924   -9.0262   20.4637 C   0  0  0  0  0  0
  -22.7250  -10.2143   20.3053 C   0  0  0  0  0  0
  -21.6853   -6.0741   22.5273 C   0  0  0  0  0  0
  -21.4018   -6.5636   23.8210 C   0  0  0  0  0  0
  -21.3657   -5.6786   24.9170 C   0  0  0  0  0  0
  -21.6034   -4.3049   24.7215 C   0  0  0  0  0  0
  -21.8822   -3.8149   23.4341 C   0  0  0  0  0  0
  -21.9192   -4.6972   22.3397 C   0  0  0  0  0  0
  -22.7787  -13.5228   21.1864 C   0  0  0  0  0  0
  -22.1653   -4.2162   21.0973 F   0  0  0  0  0  0
  -21.5632   -3.4523   25.7727 F   0  0  0  0  0  0
  -29.9360  -13.7378   20.3760 N   0  0  0  0  0  0
  -26.2882  -12.9444   20.3220 N   0  0  0  0  0  0
  -25.9325  -11.6573   20.5731 N   0  0  0  0  0  0
  -22.0423  -12.8232   22.0423 N   0  0  0  0  0  0
  -25.4148  -15.1947   20.4114 N   0  0  0  0  0  0
  -31.7253  -15.0591   20.1323 O   0  0  0  0  0  0
  -21.6635   -6.8889   21.4232 O   0  0  0  0  0  0
  -22.3467  -14.5523   20.6688 O   0  0  0  0  0  0
  -24.6473  -31.8390   23.1857 C   0  0  0  0  0  0
  -25.9232  -32.4668   23.8259 C   0  0  1  0  0  0
  -27.2156  -27.0816   20.1668 C   0  0  0  0  0  0
  -25.5972  -33.8476   24.2182 N   0  0  0  0  0  0
  -23.4541  -30.4562   21.5294 C   0  0  2  0  0  0
  -24.9068  -28.8693   20.1137 C   0  0  0  0  0  0
  -22.7586  -29.4519   22.4830 C   0  0  0  0  0  0
  -18.0300  -28.1400   22.8477 C   0  0  0  0  0  0
  -24.1490  -36.7234   23.2640 C   0  0  0  0  0  0
  -26.0130  -30.6927   21.3958 C   0  0  0  0  0  0
  -26.0816  -29.2945   20.7475 C   0  0  0  0  0  0
  -27.2342  -28.4131   20.7638 C   0  0  0  0  0  0
  -26.0226  -26.7757   19.4784 C   0  0  0  0  0  0
  -24.8920  -27.6246   19.4646 C   0  0  0  0  0  0
  -23.6867  -29.7800   20.1504 C   0  0  0  0  0  0
  -25.4123  -36.3012   24.0314 C   0  0  1  0  0  0
  -20.5919  -28.3730   23.1216 C   0  0  2  0  0  0
  -20.6777  -26.9424   22.5401 C   0  0  0  0  0  0
  -19.5751  -26.6381   21.5206 C   0  0  0  0  0  0
  -18.1935  -26.7937   22.1623 C   0  0  0  0  0  0
  -19.1564  -28.8879   23.2842 C   0  0  0  0  0  0
  -18.9484  -30.1473   23.8871 C   0  0  0  0  0  0
  -17.6483  -30.6595   24.0555 C   0  0  0  0  0  0
  -25.9078  -34.9391   23.5057 C   0  0  0  0  0  0
  -16.5368  -29.9092   23.6337 C   0  0  0  0  0  0
  -16.7286  -28.6510   23.0356 C   0  0  0  0  0  0
  -26.4548  -31.6548   25.0712 C   0  0  0  0  0  0
  -25.3733  -31.3742   26.1403 C   0  0  0  0  0  0
  -27.0420  -30.2938   24.6329 C   0  0  0  0  0  0
  -27.6065  -32.4326   25.7506 C   0  0  0  0  0  0
  -27.5573  -37.1770   24.8463 C   0  0  0  0  0  0
  -21.4270  -29.3053   22.3583 N   0  0  0  0  0  0
  -26.4274  -37.3739   23.9418 N   0  0  0  0  0  0
  -24.7240  -31.0204   22.0912 N   0  0  0  0  0  0
  -23.4210  -28.8064   23.2993 O   0  0  0  0  0  0
  -28.2614  -26.0726   20.1799 O   0  0  0  0  0  0
  -26.5661  -34.8896   22.4631 O   0  0  0  0  0  0
  -23.5584  -32.1280   23.7055 O   0  0  0  0  0  0
  -27.1638  -20.0734   21.6330 C   0  0  0  0  0  0
  -27.9820  -18.9676   21.2953 C   0  0  0  0  0  0
  -27.4650  -21.4086   21.2633 C   0  0  0  0  0  0
  -29.1737  -19.1203   20.5580 C   0  0  0  0  0  0
  -28.6145  -21.7485   20.5171 C   0  0  0  0  0  0
  -29.4572  -20.5497   20.1840 C   0  0  0  0  0  0
  -30.0796  -17.7505   20.2417 C   0  0  0  0  0  0
  -28.8559  -23.3716   20.1606 C   0  0  0  0  0  0
  -29.7482  -16.2095   20.5314 N   0  0  0  0  0  0
  -27.8234  -24.5338   20.4343 N   0  0  0  0  0  0
  -30.5885  -20.7783   19.4756 F   0  0  0  0  0  0
  -31.4764  -12.7935   19.2000 H   0  0  0  0  0  0
  -30.4537  -11.6871   20.0672 H   0  0  0  0  0  0
  -29.8674  -11.7260   17.6145 H   0  0  0  0  0  0
  -29.6047  -13.4542   17.6889 H   0  0  0  0  0  0
  -27.9820  -11.2668   19.0170 H   0  0  0  0  0  0
  -27.4028  -12.4068   17.8293 H   0  0  0  0  0  0
  -27.5833  -14.2442   19.3868 H   0  0  0  0  0  0
  -28.7662  -12.3418   21.4669 H   0  0  0  0  0  0
  -28.3509  -14.0198   21.7428 H   0  0  0  0  0  0
  -25.2764   -9.5686   22.4765 H   0  0  0  0  0  0
  -24.0003   -7.4633   22.7474 H   0  0  0  0  0  0
  -21.0848   -8.8785   19.8958 H   0  0  0  0  0  0
  -22.3700  -10.9680   19.6166 H   0  0  0  0  0  0
  -21.2001   -7.6145   23.9717 H   0  0  0  0  0  0
  -21.1475   -6.0510   25.9073 H   0  0  0  0  0  0
  -22.0607   -2.7614   23.2827 H   0  0  0  0  0  0
  -22.4047  -11.9916   22.4849 H   0  0  0  0  0  0
  -21.1036  -13.1262   22.2603 H   0  0  0  0  0  0
  -24.6437  -15.8461   20.5079 H   0  0  0  0  0  0
  -26.2519  -15.6275   20.0449 H   0  0  0  0  0  0
  -26.7291  -32.5265   23.0982 H   0  0  0  0  0  0
  -25.0122  -33.9590   25.0331 H   0  0  0  0  0  0
  -22.7601  -31.2839   21.3693 H   0  0  0  0  0  0
  -23.3759  -35.9556   23.3279 H   0  0  0  0  0  0
  -24.3576  -36.8886   22.2058 H   0  0  0  0  0  0
  -23.7241  -37.6422   23.6686 H   0  0  0  0  0  0
  -26.1765  -31.4381   20.6160 H   0  0  0  0  0  0
  -26.8815  -30.7506   22.0397 H   0  0  0  0  0  0
  -28.1305  -28.7315   21.2772 H   0  0  0  0  0  0
  -25.9423  -25.8302   18.9610 H   0  0  0  0  0  0
  -24.0005  -27.2997   18.9467 H   0  0  0  0  0  0
  -23.8333  -30.5521   19.3943 H   0  0  0  0  0  0
  -22.7998  -29.2276   19.8339 H   0  0  0  0  0  0
  -25.1314  -36.1821   25.0805 H   0  0  0  0  0  0
  -21.0029  -28.3327   24.1329 H   0  0  0  0  0  0
  -20.5649  -26.2352   23.3632 H   0  0  0  0  0  0
  -21.6640  -26.7399   22.1215 H   0  0  0  0  0  0
  -19.6907  -25.6286   21.1248 H   0  0  0  0  0  0
  -19.6684  -27.3174   20.6721 H   0  0  0  0  0  0
  -17.4201  -26.6677   21.4030 H   0  0  0  0  0  0
  -18.0341  -26.0078   22.9024 H   0  0  0  0  0  0
  -19.7955  -30.7291   24.2235 H   0  0  0  0  0  0
  -17.5028  -31.6262   24.5169 H   0  0  0  0  0  0
  -15.5368  -30.2985   23.7662 H   0  0  0  0  0  0
  -15.8688  -28.0813   22.7094 H   0  0  0  0  0  0
  -24.5921  -30.7086   25.7725 H   0  0  0  0  0  0
  -24.8918  -32.2922   26.4774 H   0  0  0  0  0  0
  -25.8019  -30.8952   27.0214 H   0  0  0  0  0  0
  -26.3044  -29.6649   24.1332 H   0  0  0  0  0  0
  -27.4009  -29.7258   25.4922 H   0  0  0  0  0  0
  -27.8970  -30.4158   23.9678 H   0  0  0  0  0  0
  -27.2633  -33.3620   26.2063 H   0  0  0  0  0  0
  -28.3891  -32.6902   25.0358 H   0  0  0  0  0  0
  -28.0722  -31.8476   26.5447 H   0  0  0  0  0  0
  -28.2568  -38.0090   24.7528 H   0  0  0  0  0  0
  -28.1093  -36.2620   24.6257 H   0  0  0  0  0  0
  -27.2295  -37.1377   25.8866 H   0  0  0  0  0  0
  -20.9484  -29.8783   21.6775 H   0  0  0  0  0  0
  -26.0129  -38.2797   24.1443 H   0  0  0  0  0  0
  -26.2657  -19.8895   22.2083 H   0  0  0  0  0  0
  -27.6842  -17.9811   21.6219 H   0  0  0  0  0  0
  -26.7883  -22.1926   21.5733 H   0  0  0  0  0  0
  -31.0507  -17.9372   20.7004 H   0  0  0  0  0  0
  -30.2756  -17.7943   19.1706 H   0  0  0  0  0  0
  -29.1002  -23.4103   19.0982 H   0  0  0  0  0  0
  -29.7766  -23.6482   20.6748 H   0  0  0  0  0  0
  -28.7772  -16.0323   20.7376 H   0  0  0  0  0  0
  -27.0354  -24.3855   19.8117 H   0  0  0  0  0  0
  1 25  1  0  0  0
  1 30  2  0  0  0
  1 79  1  0  0  0
  2  3  1  0  0  0
  2 25  1  0  0  0
  2 82  1  0  0  0
  2 83  1  0  0  0
  3  4  1  0  0  0
  3 84  1  0  0  0
  3 85  1  0  0  0
  4  5  1  0  0  0
  4 86  1  0  0  0
  4 87  1  0  0  0
  5  6  1  0  0  0
  5 26  1  0  0  0
  5 88  1  0  0  0
  6 25  1  0  0  0
  6 89  1  0  0  0
  6 90  1  0  0  0
  7  8  2  0  0  0
  7 26  1  0  0  0
  7 29  1  0  0  0
  8  9  1  0  0  0
  8 22  1  0  0  0
  9 10  1  0  0  0
  9 27  2  0  0  0
 10 11  2  0  0  0
 10 15  1  0  0  0
 11 12  1  0  0  0
 11 91  1  0  0  0
 12 13  2  0  0  0
 12 92  1  0  0  0
 13 14  1  0  0  0
 13 31  1  0  0  0
 14 15  2  0  0  0
 14 93  1  0  0  0
 15 94  1  0  0  0
 16 17  2  0  0  0
 16 21  1  0  0  0
 16 31  1  0  0  0
 17 18  1  0  0  0
 17 95  1  0  0  0
 18 19  2  0  0  0
 18 96  1  0  0  0
 19 20  1  0  0  0
 19 24  1  0  0  0
 20 21  2  0  0  0
 20 97  1  0  0  0
 21 23  1  0  0  0
 22 28  1  0  0  0
 22 32  2  0  0  0
 26 27  1  0  0  0
 28 98  1  0  0  0
 28 99  1  0  0  0
 29100  1  0  0  0
 29101  1  0  0  0
 33 34  1  0  0  0
 33 66  1  0  0  0
 33 70  2  0  0  0
 34 36  1  0  0  0
 34 59  1  0  0  0
 34102  1  0  0  0
 35 44  2  0  0  0
 35 45  1  0  0  0
 35 68  1  0  0  0
 36 56  1  0  0  0
 36103  1  0  0  0
 37 39  1  0  0  0
 37 47  1  0  0  0
 37 66  1  0  0  0
 37104  1  0  0  0
 38 43  2  0  0  0
 38 46  1  0  0  0
 38 47  1  0  0  0
 39 64  1  0  0  0
 39 67  2  0  0  0
 40 52  1  0  0  0
 40 53  2  0  0  0
 40 58  1  0  0  0
 41105  1  0  0  0
 41106  1  0  0  0
 41107  1  0  0  0
 41 48  1  0  0  0
 42 43  1  0  0  0
 42 66  1  0  0  0
 42108  1  0  0  0
 42109  1  0  0  0
 43 44  1  0  0  0
 44110  1  0  0  0
 45 46  2  0  0  0
 45111  1  0  0  0
 46112  1  0  0  0
 47113  1  0  0  0
 47114  1  0  0  0
 48 56  1  0  0  0
 48 65  1  0  0  0
 48115  1  0  0  0
 49 50  1  0  0  0
 49 53  1  0  0  0
 49 64  1  0  0  0
 49116  1  0  0  0
 50 51  1  0  0  0
 50117  1  0  0  0
 50118  1  0  0  0
 51 52  1  0  0  0
 51119  1  0  0  0
 51120  1  0  0  0
 52121  1  0  0  0
 52122  1  0  0  0
 53 54  1  0  0  0
 54 55  2  0  0  0
 54123  1  0  0  0
 55 57  1  0  0  0
 55124  1  0  0  0
 56 69  2  0  0  0
 57 58  2  0  0  0
 57125  1  0  0  0
 58126  1  0  0  0
 59 60  1  0  0  0
 59 61  1  0  0  0
 59 62  1  0  0  0
 60127  1  0  0  0
 60128  1  0  0  0
 60129  1  0  0  0
 61130  1  0  0  0
 61131  1  0  0  0
 61132  1  0  0  0
 62133  1  0  0  0
 62134  1  0  0  0
 62135  1  0  0  0
 63 65  1  0  0  0
 63136  1  0  0  0
 63137  1  0  0  0
 63138  1  0  0  0
 64139  1  0  0  0
 65140  1  0  0  0
 68 80  1  0  0  0
 71 72  2  0  0  0
 71 73  1  0  0  0
 71141  1  0  0  0
 72 74  1  0  0  0
 72142  1  0  0  0
 73 75  2  0  0  0
 73143  1  0  0  0
 74 76  2  0  0  0
 74 77  1  0  0  0
 75 76  1  0  0  0
 75 78  1  0  0  0
 76 81  1  0  0  0
 77 79  1  0  0  0
 77144  1  0  0  0
 77145  1  0  0  0
 78 80  1  0  0  0
 78146  1  0  0  0
 78147  1  0  0  0
 79148  1  0  0  0
 80149  1  0  0  0
M  ISO  4   1 100  68 101  79 100  80 101
M  END
> <chiral flag>
0

> <version>
0

> <s_m_source_file>
/data/baiqing/PycharmProjects/Reinvent-master-3.2/result/LINK_invent/BTK/process_docking_weight1_custom_product_contain_oxygen_bond_distance_aromatic_linkinvent_7_9_3/rearranged_h_0007.sdf

> <i_m_source_file_index>
73

> <r_mmod_Potential_Energy-OPLS-2005>
539.604858398438

> <r_mmod_Stretch_Energy-OPLS-2005>
309.173889160156

> <r_mmod_Bend_Energy-OPLS-2005>
254.5810546875

> <r_mmod_Torsional_Energy-OPLS-2005>
202.386856079102

> <r_mmod_Improper_Torsional_Energy-OPLS-2005>
4.77452373504639

> <r_mmod_Van_der_Waal_Energy-OPLS-2005>
124.424705505371

> <r_mmod_Electrostatic_Energy-OPLS-2005>
-373.000793457031

> <r_mmod_Solvation_Energy-OPLS-2005>
-221.071105957031

> <b_mmod_Minimization_Converged-OPLS-2005>
0

> <r_mmod_RMS_Derivative-OPLS-2005>
1.64198243618011

$$$$
73
                    3D
 Structure written by MMmdl.
148156  0  0  1  0            999 V2000
  -30.5089  -14.9122   20.4351 C   0  0  0  0  0  0
  -30.4555  -12.5616   19.4901 C   0  0  0  0  0  0
  -29.5264  -12.5317   18.2520 C   0  0  0  0  0  0
  -28.0565  -12.3206   18.6662 C   0  0  0  0  0  0
  -27.6389  -13.2354   19.8464 C   0  0  2  0  0  0
  -28.6835  -13.2119   20.9840 C   0  0  0  0  0  0
  -25.2500  -13.8182   20.5681 C   0  0  0  0  0  0
  -24.1806  -13.0431   20.9230 C   0  0  0  0  0  0
  -24.6402  -11.6911   20.8760 C   0  0  0  0  0  0
  -23.9076  -10.4289   21.0416 C   0  0  0  0  0  0
  -24.3624   -9.4201   21.9190 C   0  0  0  0  0  0
  -23.6294   -8.2240   22.0758 C   0  0  0  0  0  0
  -22.4276   -8.0282   21.3547 C   0  0  0  0  0  0
  -21.9915   -9.0259   20.4652 C   0  0  0  0  0  0
  -22.7249  -10.2135   20.3063 C   0  0  0  0  0  0
  -21.6853   -6.0736   22.5279 C   0  0  0  0  0  0
  -21.4015   -6.5640   23.8212 C   0  0  0  0  0  0
  -21.3659   -5.6793   24.9175 C   0  0  0  0  0  0
  -21.6044   -4.3056   24.7225 C   0  0  0  0  0  0
  -21.8818   -3.8147   23.4347 C   0  0  0  0  0  0
  -21.9192   -4.6963   22.3402 C   0  0  0  0  0  0
  -22.7826  -13.5218   21.1880 C   0  0  0  0  0  0
  -22.1661   -4.2149   21.0979 F   0  0  0  0  0  0
  -21.5626   -3.4539   25.7738 F   0  0  0  0  0  0
  -29.9682  -13.6307   20.4025 N   0  0  0  0  0  0
  -26.2925  -12.9392   20.3247 N   0  0  0  0  0  0
  -25.9332  -11.6537   20.5742 N   0  0  0  0  0  0
  -22.0465  -12.8213   22.0434 N   0  0  0  0  0  0
  -25.4162  -15.1901   20.4026 N   0  0  0  0  0  0
  -31.6970  -15.0562   20.1234 O   0  0  0  0  0  0
  -21.6639   -6.8881   21.4242 O   0  0  0  0  0  0
  -22.3518  -14.5520   20.6717 O   0  0  0  0  0  0
  -24.6422  -31.8456   23.1895 C   0  0  0  0  0  0
  -25.9199  -32.4704   23.8282 C   0  0  1  0  0  0
  -27.2214  -27.1519   20.1469 C   0  0  0  0  0  0
  -25.5952  -33.8509   24.2201 N   0  0  0  0  0  0
  -23.4453  -30.4654   21.5351 C   0  0  2  0  0  0
  -24.8953  -28.8959   20.1105 C   0  0  0  0  0  0
  -22.7562  -29.4552   22.4864 C   0  0  0  0  0  0
  -18.0305  -28.1392   22.8480 C   0  0  0  0  0  0
  -24.1492  -36.7261   23.2642 C   0  0  0  0  0  0
  -26.0006  -30.7245   21.3860 C   0  0  0  0  0  0
  -26.0728  -29.3373   20.7273 C   0  0  0  0  0  0
  -27.2369  -28.4820   20.7280 C   0  0  0  0  0  0
  -26.0152  -26.8096   19.4937 C   0  0  0  0  0  0
  -24.8787  -27.6448   19.4786 C   0  0  0  0  0  0
  -23.6712  -29.7962   20.1539 C   0  0  0  0  0  0
  -25.4122  -36.3038   24.0318 C   0  0  1  0  0  0
  -20.5917  -28.3717   23.1239 C   0  0  2  0  0  0
  -20.6789  -26.9422   22.5403 C   0  0  0  0  0  0
  -19.5760  -26.6380   21.5213 C   0  0  0  0  0  0
  -18.1944  -26.7931   22.1628 C   0  0  0  0  0  0
  -19.1562  -28.8873   23.2853 C   0  0  0  0  0  0
  -18.9477  -30.1469   23.8878 C   0  0  0  0  0  0
  -17.6473  -30.6589   24.0558 C   0  0  0  0  0  0
  -25.9071  -34.9412   23.5068 C   0  0  0  0  0  0
  -16.5365  -29.9082   23.6333 C   0  0  0  0  0  0
  -16.7289  -28.6500   23.0357 C   0  0  0  0  0  0
  -26.4522  -31.6564   25.0716 C   0  0  0  0  0  0
  -25.3712  -31.3749   26.1414 C   0  0  0  0  0  0
  -27.0385  -30.2963   24.6283 C   0  0  0  0  0  0
  -27.6053  -32.4328   25.7502 C   0  0  0  0  0  0
  -27.5575  -37.1788   24.8465 C   0  0  0  0  0  0
  -21.4255  -29.3048   22.3615 N   0  0  0  0  0  0
  -26.4286  -37.3749   23.9408 N   0  0  0  0  0  0
  -24.7158  -31.0325   22.0923 N   0  0  0  0  0  0
  -23.4210  -28.8096   23.3008 O   0  0  0  0  0  0
  -28.2796  -26.1752   20.2158 O   0  0  0  0  0  0
  -26.5655  -34.8906   22.4645 O   0  0  0  0  0  0
  -23.5543  -32.1325   23.7122 O   0  0  0  0  0  0
  -30.4979  -18.5502   20.3681 C   0  0  0  0  0  0
  -30.1918  -19.9876   20.3030 C   0  0  0  0  0  0
  -28.2013  -18.0915   20.6159 C   0  0  0  0  0  0
  -29.5058  -17.5125   20.5303 C   0  0  0  0  0  0
  -28.8604  -20.5427   20.3787 C   0  0  0  0  0  0
  -27.8953  -19.4982   20.5370 C   0  0  0  0  0  0
  -27.9814  -24.6559   20.0800 C   0  0  0  0  0  0
  -28.9666  -23.3090   20.3181 C   0  0  0  0  0  0
  -29.6181  -15.9877   20.6567 N   0  0  0  0  0  0
  -28.3436  -21.9122   20.2867 O   0  0  0  0  0  0
  -26.5907  -19.8568   20.6201 F   0  0  0  0  0  0
  -31.4867  -12.7370   19.1791 H   0  0  0  0  0  0
  -30.4561  -11.5962   19.9987 H   0  0  0  0  0  0
  -29.8377  -11.7454   17.5632 H   0  0  0  0  0  0
  -29.6191  -13.4710   17.7045 H   0  0  0  0  0  0
  -27.9424  -11.2750   18.9545 H   0  0  0  0  0  0
  -27.3955  -12.4747   17.8124 H   0  0  0  0  0  0
  -27.6160  -14.2467   19.4405 H   0  0  0  0  0  0
  -28.7608  -12.2155   21.4218 H   0  0  0  0  0  0
  -28.3869  -13.8773   21.7964 H   0  0  0  0  0  0
  -25.2769   -9.5672   22.4767 H   0  0  0  0  0  0
  -24.0000   -7.4629   22.7477 H   0  0  0  0  0  0
  -21.0844   -8.8784   19.8957 H   0  0  0  0  0  0
  -22.3712  -10.9678   19.6174 H   0  0  0  0  0  0
  -21.2010   -7.6149   23.9716 H   0  0  0  0  0  0
  -21.1480   -6.0523   25.9077 H   0  0  0  0  0  0
  -22.0597   -2.7608   23.2848 H   0  0  0  0  0  0
  -22.4083  -11.9878   22.4830 H   0  0  0  0  0  0
  -21.1084  -13.1242   22.2641 H   0  0  0  0  0  0
  -24.6295  -15.8261   20.4770 H   0  0  0  0  0  0
  -26.2182  -15.6066   19.9499 H   0  0  0  0  0  0
  -26.7265  -32.5316   23.1014 H   0  0  0  0  0  0
  -25.0077  -33.9626   25.0333 H   0  0  0  0  0  0
  -22.7472  -31.2910   21.3818 H   0  0  0  0  0  0
  -23.3757  -35.9590   23.3292 H   0  0  0  0  0  0
  -24.3578  -36.8903   22.2059 H   0  0  0  0  0  0
  -23.7245  -37.6454   23.6684 H   0  0  0  0  0  0
  -26.1536  -31.4794   20.6136 H   0  0  0  0  0  0
  -26.8721  -30.7754   22.0269 H   0  0  0  0  0  0
  -28.1335  -28.8156   21.2313 H   0  0  0  0  0  0
  -25.9102  -25.8553   19.0018 H   0  0  0  0  0  0
  -23.9801  -27.3016   18.9846 H   0  0  0  0  0  0
  -23.8070  -30.5716   19.3992 H   0  0  0  0  0  0
  -22.7864  -29.2380   19.8427 H   0  0  0  0  0  0
  -25.1309  -36.1869   25.0810 H   0  0  0  0  0  0
  -21.0010  -28.3306   24.1360 H   0  0  0  0  0  0
  -20.5685  -26.2330   23.3621 H   0  0  0  0  0  0
  -21.6654  -26.7429   22.1199 H   0  0  0  0  0  0
  -19.6921  -25.6286   21.1255 H   0  0  0  0  0  0
  -19.6694  -27.3179   20.6734 H   0  0  0  0  0  0
  -17.4210  -26.6673   21.4035 H   0  0  0  0  0  0
  -18.0346  -26.0078   22.9030 H   0  0  0  0  0  0
  -19.7952  -30.7291   24.2241 H   0  0  0  0  0  0
  -17.5025  -31.6268   24.5163 H   0  0  0  0  0  0
  -15.5364  -30.2977   23.7663 H   0  0  0  0  0  0
  -15.8691  -28.0808   22.7085 H   0  0  0  0  0  0
  -24.5894  -30.7094   25.7734 H   0  0  0  0  0  0
  -24.8898  -32.2930   26.4792 H   0  0  0  0  0  0
  -25.7998  -30.8952   27.0222 H   0  0  0  0  0  0
  -26.2998  -29.6690   24.1281 H   0  0  0  0  0  0
  -27.3997  -29.7256   25.4848 H   0  0  0  0  0  0
  -27.8906  -30.4204   23.9597 H   0  0  0  0  0  0
  -27.2645  -33.3646   26.2028 H   0  0  0  0  0  0
  -28.3892  -32.6860   25.0352 H   0  0  0  0  0  0
  -28.0689  -31.8488   26.5463 H   0  0  0  0  0  0
  -28.2585  -38.0091   24.7510 H   0  0  0  0  0  0
  -28.1079  -36.2622   24.6295 H   0  0  0  0  0  0
  -27.2293  -37.1437   25.8868 H   0  0  0  0  0  0
  -20.9461  -29.8768   21.6802 H   0  0  0  0  0  0
  -26.0155  -38.2818   24.1409 H   0  0  0  0  0  0
  -31.5349  -18.2525   20.2974 H   0  0  0  0  0  0
  -31.0171  -20.6732   20.1773 H   0  0  0  0  0  0
  -27.3590  -17.4297   20.7477 H   0  0  0  0  0  0
  -27.1214  -24.4889   20.7294 H   0  0  0  0  0  0
  -27.6025  -24.5258   19.0670 H   0  0  0  0  0  0
  -29.4518  -23.4117   21.2888 H   0  0  0  0  0  0
  -29.7707  -23.3307   19.5826 H   0  0  0  0  0  0
  -28.7268  -15.5824   20.8973 H   0  0  0  0  0  0
  1 25  1  0  0  0
  1 30  2  0  0  0
  1 79  1  0  0  0
  2  3  1  0  0  0
  2 25  1  0  0  0
  2 82  1  0  0  0
  2 83  1  0  0  0
  3  4  1  0  0  0
  3 84  1  0  0  0
  3 85  1  0  0  0
  4  5  1  0  0  0
  4 86  1  0  0  0
  4 87  1  0  0  0
  5  6  1  0  0  0
  5 26  1  0  0  0
  5 88  1  0  0  0
  6 25  1  0  0  0
  6 89  1  0  0  0
  6 90  1  0  0  0
  7  8  2  0  0  0
  7 26  1  0  0  0
  7 29  1  0  0  0
  8  9  1  0  0  0
  8 22  1  0  0  0
  9 10  1  0  0  0
  9 27  2  0  0  0
 10 11  2  0  0  0
 10 15  1  0  0  0
 11 12  1  0  0  0
 11 91  1  0  0  0
 12 13  2  0  0  0
 12 92  1  0  0  0
 13 14  1  0  0  0
 13 31  1  0  0  0
 14 15  2  0  0  0
 14 93  1  0  0  0
 15 94  1  0  0  0
 16 17  2  0  0  0
 16 21  1  0  0  0
 16 31  1  0  0  0
 17 18  1  0  0  0
 17 95  1  0  0  0
 18 19  2  0  0  0
 18 96  1  0  0  0
 19 20  1  0  0  0
 19 24  1  0  0  0
 20 21  2  0  0  0
 20 97  1  0  0  0
 21 23  1  0  0  0
 22 28  1  0  0  0
 22 32  2  0  0  0
 26 27  1  0  0  0
 28 98  1  0  0  0
 28 99  1  0  0  0
 29100  1  0  0  0
 29101  1  0  0  0
 33 34  1  0  0  0
 33 66  1  0  0  0
 33 70  2  0  0  0
 34 36  1  0  0  0
 34 59  1  0  0  0
 34102  1  0  0  0
 35 44  2  0  0  0
 35 45  1  0  0  0
 35 68  1  0  0  0
 36 56  1  0  0  0
 36103  1  0  0  0
 37 39  1  0  0  0
 37 47  1  0  0  0
 37 66  1  0  0  0
 37104  1  0  0  0
 38 43  2  0  0  0
 38 46  1  0  0  0
 38 47  1  0  0  0
 39 64  1  0  0  0
 39 67  2  0  0  0
 40 52  1  0  0  0
 40 53  2  0  0  0
 40 58  1  0  0  0
 41105  1  0  0  0
 41106  1  0  0  0
 41107  1  0  0  0
 41 48  1  0  0  0
 42 43  1  0  0  0
 42 66  1  0  0  0
 42108  1  0  0  0
 42109  1  0  0  0
 43 44  1  0  0  0
 44110  1  0  0  0
 45 46  2  0  0  0
 45111  1  0  0  0
 46112  1  0  0  0
 47113  1  0  0  0
 47114  1  0  0  0
 48 56  1  0  0  0
 48 65  1  0  0  0
 48115  1  0  0  0
 49 50  1  0  0  0
 49 53  1  0  0  0
 49 64  1  0  0  0
 49116  1  0  0  0
 50 51  1  0  0  0
 50117  1  0  0  0
 50118  1  0  0  0
 51 52  1  0  0  0
 51119  1  0  0  0
 51120  1  0  0  0
 52121  1  0  0  0
 52122  1  0  0  0
 53 54  1  0  0  0
 54 55  2  0  0  0
 54123  1  0  0  0
 55 57  1  0  0  0
 55124  1  0  0  0
 56 69  2  0  0  0
 57 58  2  0  0  0
 57125  1  0  0  0
 58126  1  0  0  0
 59 60  1  0  0  0
 59 61  1  0  0  0
 59 62  1  0  0  0
 60127  1  0  0  0
 60128  1  0  0  0
 60129  1  0  0  0
 61130  1  0  0  0
 61131  1  0  0  0
 61132  1  0  0  0
 62133  1  0  0  0
 62134  1  0  0  0
 62135  1  0  0  0
 63 65  1  0  0  0
 63136  1  0  0  0
 63137  1  0  0  0
 63138  1  0  0  0
 64139  1  0  0  0
 65140  1  0  0  0
 68 77  1  0  0  0
 71 72  2  0  0  0
 71 74  1  0  0  0
 71141  1  0  0  0
 72 75  1  0  0  0
 72142  1  0  0  0
 73 74  2  0  0  0
 73 76  1  0  0  0
 73143  1  0  0  0
 74 79  1  0  0  0
 75 76  2  0  0  0
 75 80  1  0  0  0
 76 81  1  0  0  0
 77 78  1  0  0  0
 77144  1  0  0  0
 77145  1  0  0  0
 78 80  1  0  0  0
 78146  1  0  0  0
 78147  1  0  0  0
 79148  1  0  0  0
M  ISO  4   1 100  68 101  77 101  79 100
M  END
> <chiral flag>
0

> <version>
0

> <s_m_source_file>
/data/baiqing/PycharmProjects/Reinvent-master-3.2/result/LINK_invent/BTK/process_docking_weight1_custom_product_contain_oxygen_bond_distance_aromatic_linkinvent_7_9_3/rearranged_h_0007.sdf

> <i_m_source_file_index>
74

> <r_mmod_Potential_Energy-OPLS-2005>
491.091247558594

> <r_mmod_Stretch_Energy-OPLS-2005>
216.953765869141

> <r_mmod_Bend_Energy-OPLS-2005>
302.484619140625

> <r_mmod_Torsional_Energy-OPLS-2005>
212.021713256836

> <r_mmod_Improper_Torsional_Energy-OPLS-2005>
4.76716709136963

> <r_mmod_Van_der_Waal_Energy-OPLS-2005>
130.573699951172

> <r_mmod_Electrostatic_Energy-OPLS-2005>
-337.487060546875

> <r_mmod_Solvation_Energy-OPLS-2005>
-212.451721191406

> <b_mmod_Minimization_Converged-OPLS-2005>
0

> <r_mmod_RMS_Derivative-OPLS-2005>
0.366873770952225

$$$$
74
                    3D
 Structure written by MMmdl.
159168  0  0  1  0            999 V2000
  -30.5755  -14.7722   20.4583 C   0  0  0  0  0  0
  -30.4404  -12.4714   19.4788 C   0  0  0  0  0  0
  -29.5153  -12.5145   18.2403 C   0  0  0  0  0  0
  -28.0412  -12.3304   18.6520 C   0  0  0  0  0  0
  -27.6428  -13.2286   19.8522 C   0  0  2  0  0  0
  -28.6849  -13.1577   20.9911 C   0  0  0  0  0  0
  -25.2512  -13.8183   20.5679 C   0  0  0  0  0  0
  -24.1798  -13.0440   20.9204 C   0  0  0  0  0  0
  -24.6377  -11.6912   20.8733 C   0  0  0  0  0  0
  -23.9048  -10.4290   21.0397 C   0  0  0  0  0  0
  -24.3600   -9.4214   21.9182 C   0  0  0  0  0  0
  -23.6279   -8.2248   22.0751 C   0  0  0  0  0  0
  -22.4265   -8.0274   21.3542 C   0  0  0  0  0  0
  -21.9896   -9.0249   20.4651 C   0  0  0  0  0  0
  -22.7215  -10.2130   20.3057 C   0  0  0  0  0  0
  -21.6856   -6.0724   22.5272 C   0  0  0  0  0  0
  -21.4018   -6.5629   23.8205 C   0  0  0  0  0  0
  -21.3660   -5.6785   24.9169 C   0  0  0  0  0  0
  -21.6047   -4.3047   24.7223 C   0  0  0  0  0  0
  -21.8820   -3.8135   23.4343 C   0  0  0  0  0  0
  -21.9197   -4.6951   22.3397 C   0  0  0  0  0  0
  -22.7821  -13.5239   21.1855 C   0  0  0  0  0  0
  -22.1664   -4.2135   21.0977 F   0  0  0  0  0  0
  -21.5630   -3.4535   25.7738 F   0  0  0  0  0  0
  -29.9855  -13.5266   20.4164 N   0  0  0  0  0  0
  -26.2927  -12.9379   20.3259 N   0  0  0  0  0  0
  -25.9305  -11.6526   20.5729 N   0  0  0  0  0  0
  -22.0459  -12.8243   22.0412 N   0  0  0  0  0  0
  -25.4228  -15.1903   20.4084 N   0  0  0  0  0  0
  -31.7526  -14.9035   20.1089 O   0  0  0  0  0  0
  -21.6638   -6.8863   21.4233 O   0  0  0  0  0  0
  -22.3520  -14.5549   20.6700 O   0  0  0  0  0  0
  -24.6321  -31.8539   23.1979 C   0  0  0  0  0  0
  -25.9146  -32.4740   23.8330 C   0  0  1  0  0  0
  -27.2139  -27.2276   20.1423 C   0  0  0  0  0  0
  -25.5936  -33.8544   24.2248 N   0  0  0  0  0  0
  -23.4291  -30.4756   21.5423 C   0  0  2  0  0  0
  -24.8747  -28.9131   20.1177 C   0  0  0  0  0  0
  -22.7503  -29.4590   22.4924 C   0  0  0  0  0  0
  -18.0290  -28.1391   22.8475 C   0  0  0  0  0  0
  -24.1491  -36.7283   23.2643 C   0  0  0  0  0  0
  -25.9764  -30.7491   21.3902 C   0  0  0  0  0  0
  -26.0422  -29.3650   20.7443 C   0  0  0  0  0  0
  -27.2072  -28.5293   20.7571 C   0  0  0  0  0  0
  -26.0393  -26.8761   19.4443 C   0  0  0  0  0  0
  -24.8788  -27.6750   19.4584 C   0  0  0  0  0  0
  -23.6494  -29.8067   20.1599 C   0  0  0  0  0  0
  -25.4115  -36.3059   24.0329 C   0  0  1  0  0  0
  -20.5892  -28.3700   23.1268 C   0  0  2  0  0  0
  -20.6776  -26.9420   22.5406 C   0  0  0  0  0  0
  -19.5753  -26.6385   21.5210 C   0  0  0  0  0  0
  -18.1931  -26.7933   22.1620 C   0  0  0  0  0  0
  -19.1539  -28.8866   23.2863 C   0  0  0  0  0  0
  -18.9462  -30.1465   23.8883 C   0  0  0  0  0  0
  -17.6462  -30.6593   24.0556 C   0  0  0  0  0  0
  -25.9057  -34.9434   23.5092 C   0  0  0  0  0  0
  -16.5351  -29.9088   23.6334 C   0  0  0  0  0  0
  -16.7277  -28.6507   23.0350 C   0  0  0  0  0  0
  -26.4511  -31.6570   25.0735 C   0  0  0  0  0  0
  -25.3722  -31.3735   26.1450 C   0  0  0  0  0  0
  -27.0371  -30.2974   24.6266 C   0  0  0  0  0  0
  -27.6060  -32.4319   25.7504 C   0  0  0  0  0  0
  -27.5583  -37.1787   24.8459 C   0  0  0  0  0  0
  -21.4210  -29.3044   22.3654 N   0  0  0  0  0  0
  -26.4285  -37.3762   23.9415 N   0  0  0  0  0  0
  -24.6980  -31.0471   22.0985 N   0  0  0  0  0  0
  -23.4193  -28.8141   23.3036 O   0  0  0  0  0  0
  -28.3483  -26.3754   20.1335 O   0  0  0  0  0  0
  -26.5642  -34.8913   22.4669 O   0  0  0  0  0  0
  -23.5460  -32.1398   23.7239 O   0  0  0  0  0  0
  -27.6940  -22.5270   20.0160 C   0  0  0  0  0  0
  -27.4641  -23.9463   19.9393 C   0  0  0  0  0  0
  -29.8552  -22.9185   20.8923 C   0  0  0  0  0  0
  -29.6452  -24.3474   20.7997 C   0  0  0  0  0  0
  -28.9023  -21.9357   20.4894 C   0  0  0  0  0  0
  -28.4326  -24.9374   20.3042 C   0  0  0  0  0  0
  -28.6594  -18.0549   19.7285 C   0  0  0  0  0  0
  -30.1835  -18.3361   21.6002 C   0  0  0  0  0  0
  -28.7324  -19.6165   19.4264 C   0  0  0  0  0  0
  -30.2816  -19.8940   21.2704 C   0  0  0  0  0  0
  -29.9230  -17.3841   20.3806 C   0  0  0  0  0  0
  -30.7768  -25.2789   21.2285 C   0  0  0  0  0  0
  -29.1117  -20.4827   20.5701 N   0  0  0  0  0  0
  -29.7592  -15.8781   20.6849 N   0  0  0  0  0  0
  -31.7822  -24.6207   21.8090 F   0  0  0  0  0  0
  -31.2649  -25.9149   20.1636 F   0  0  0  0  0  0
  -30.3321  -26.1842   22.1011 F   0  0  0  0  0  0
  -31.4794  -12.6107   19.1758 H   0  0  0  0  0  0
  -30.3976  -11.4930   19.9593 H   0  0  0  0  0  0
  -29.8043  -11.7416   17.5266 H   0  0  0  0  0  0
  -29.6341  -13.4676   17.7227 H   0  0  0  0  0  0
  -27.9017  -11.2814   18.9146 H   0  0  0  0  0  0
  -27.3845  -12.5197   17.8020 H   0  0  0  0  0  0
  -27.6402  -14.2500   19.4709 H   0  0  0  0  0  0
  -28.7258  -12.1557   21.4220 H   0  0  0  0  0  0
  -28.4111  -13.8274   21.8073 H   0  0  0  0  0  0
  -25.2741   -9.5710   22.4755 H   0  0  0  0  0  0
  -23.9996   -7.4650   22.7470 H   0  0  0  0  0  0
  -21.0828   -8.8767   19.8962 H   0  0  0  0  0  0
  -22.3663  -10.9669   19.6167 H   0  0  0  0  0  0
  -21.2009   -7.6136   23.9702 H   0  0  0  0  0  0
  -21.1483   -6.0514   25.9073 H   0  0  0  0  0  0
  -22.0601   -2.7596   23.2844 H   0  0  0  0  0  0
  -22.4056  -11.9911   22.4827 H   0  0  0  0  0  0
  -21.1078  -13.1291   22.2599 H   0  0  0  0  0  0
  -24.6548  -15.8436   20.5175 H   0  0  0  0  0  0
  -26.2615  -15.6249   20.0459 H   0  0  0  0  0  0
  -26.7208  -32.5375   23.1061 H   0  0  0  0  0  0
  -25.0063  -33.9672   25.0380 H   0  0  0  0  0  0
  -22.7268  -31.2985   21.3946 H   0  0  0  0  0  0
  -23.3754  -35.9609   23.3278 H   0  0  0  0  0  0
  -24.3585  -36.8930   22.2061 H   0  0  0  0  0  0
  -23.7241  -37.6476   23.6686 H   0  0  0  0  0  0
  -26.1229  -31.4995   20.6121 H   0  0  0  0  0  0
  -26.8524  -30.8003   22.0246 H   0  0  0  0  0  0
  -28.1021  -28.8715   21.2575 H   0  0  0  0  0  0
  -26.0008  -25.9860   18.8436 H   0  0  0  0  0  0
  -23.9983  -27.3392   18.9278 H   0  0  0  0  0  0
  -23.7788  -30.5810   19.4031 H   0  0  0  0  0  0
  -22.7667  -29.2428   19.8534 H   0  0  0  0  0  0
  -25.1286  -36.1901   25.0819 H   0  0  0  0  0  0
  -20.9976  -28.3284   24.1393 H   0  0  0  0  0  0
  -20.5678  -26.2319   23.3614 H   0  0  0  0  0  0
  -21.6645  -26.7444   22.1201 H   0  0  0  0  0  0
  -19.6918  -25.6292   21.1255 H   0  0  0  0  0  0
  -19.6692  -27.3180   20.6726 H   0  0  0  0  0  0
  -17.4202  -26.6673   21.4020 H   0  0  0  0  0  0
  -18.0330  -26.0078   22.9020 H   0  0  0  0  0  0
  -19.7939  -30.7277   24.2251 H   0  0  0  0  0  0
  -17.5020  -31.6272   24.5156 H   0  0  0  0  0  0
  -15.5349  -30.2981   23.7679 H   0  0  0  0  0  0
  -15.8674  -28.0824   22.7073 H   0  0  0  0  0  0
  -24.5883  -30.7109   25.7770 H   0  0  0  0  0  0
  -24.8944  -32.2913   26.4882 H   0  0  0  0  0  0
  -25.8028  -30.8895   27.0225 H   0  0  0  0  0  0
  -26.2972  -29.6702   24.1289 H   0  0  0  0  0  0
  -27.4020  -29.7260   25.4812 H   0  0  0  0  0  0
  -27.8862  -30.4221   23.9545 H   0  0  0  0  0  0
  -27.2665  -33.3611   26.2085 H   0  0  0  0  0  0
  -28.3867  -32.6890   25.0334 H   0  0  0  0  0  0
  -28.0748  -31.8457   26.5417 H   0  0  0  0  0  0
  -28.2572  -38.0111   24.7524 H   0  0  0  0  0  0
  -28.1103  -36.2642   24.6239 H   0  0  0  0  0  0
  -27.2312  -37.1374   25.8864 H   0  0  0  0  0  0
  -20.9418  -29.8763   21.6840 H   0  0  0  0  0  0
  -26.0163  -38.2832   24.1414 H   0  0  0  0  0  0
  -26.8866  -21.8799   19.7056 H   0  0  0  0  0  0
  -26.4961  -24.2243   19.5702 H   0  0  0  0  0  0
  -30.8047  -22.5742   21.2702 H   0  0  0  0  0  0
  -28.4306  -17.5400   18.7947 H   0  0  0  0  0  0
  -27.7960  -17.8773   20.3716 H   0  0  0  0  0  0
  -29.3944  -18.1879   22.3395 H   0  0  0  0  0  0
  -31.1056  -18.0281   22.0952 H   0  0  0  0  0  0
  -27.7660  -19.9342   19.0333 H   0  0  0  0  0  0
  -29.4483  -19.7891   18.6213 H   0  0  0  0  0  0
  -31.1708  -20.0732   20.6633 H   0  0  0  0  0  0
  -30.4383  -20.4336   22.2061 H   0  0  0  0  0  0
  -30.7582  -17.4862   19.6861 H   0  0  0  0  0  0
  -28.8303  -15.6168   20.9784 H   0  0  0  0  0  0
  1 25  1  0  0  0
  1 30  2  0  0  0
  1 84  1  0  0  0
  2  3  1  0  0  0
  2 25  1  0  0  0
  2 88  1  0  0  0
  2 89  1  0  0  0
  3  4  1  0  0  0
  3 90  1  0  0  0
  3 91  1  0  0  0
  4  5  1  0  0  0
  4 92  1  0  0  0
  4 93  1  0  0  0
  5  6  1  0  0  0
  5 26  1  0  0  0
  5 94  1  0  0  0
  6 25  1  0  0  0
  6 95  1  0  0  0
  6 96  1  0  0  0
  7  8  2  0  0  0
  7 26  1  0  0  0
  7 29  1  0  0  0
  8  9  1  0  0  0
  8 22  1  0  0  0
  9 10  1  0  0  0
  9 27  2  0  0  0
 10 11  2  0  0  0
 10 15  1  0  0  0
 11 12  1  0  0  0
 11 97  1  0  0  0
 12 13  2  0  0  0
 12 98  1  0  0  0
 13 14  1  0  0  0
 13 31  1  0  0  0
 14 15  2  0  0  0
 14 99  1  0  0  0
 15100  1  0  0  0
 16 17  2  0  0  0
 16 21  1  0  0  0
 16 31  1  0  0  0
 17 18  1  0  0  0
 17101  1  0  0  0
 18 19  2  0  0  0
 18102  1  0  0  0
 19 20  1  0  0  0
 19 24  1  0  0  0
 20 21  2  0  0  0
 20103  1  0  0  0
 21 23  1  0  0  0
 22 28  1  0  0  0
 22 32  2  0  0  0
 26 27  1  0  0  0
 28104  1  0  0  0
 28105  1  0  0  0
 29106  1  0  0  0
 29107  1  0  0  0
 33 34  1  0  0  0
 33 66  1  0  0  0
 33 70  2  0  0  0
 34 36  1  0  0  0
 34 59  1  0  0  0
 34108  1  0  0  0
 35 44  2  0  0  0
 35 45  1  0  0  0
 35 68  1  0  0  0
 36 56  1  0  0  0
 36109  1  0  0  0
 37 39  1  0  0  0
 37 47  1  0  0  0
 37 66  1  0  0  0
 37110  1  0  0  0
 38 43  2  0  0  0
 38 46  1  0  0  0
 38 47  1  0  0  0
 39 64  1  0  0  0
 39 67  2  0  0  0
 40 52  1  0  0  0
 40 53  2  0  0  0
 40 58  1  0  0  0
 41111  1  0  0  0
 41112  1  0  0  0
 41113  1  0  0  0
 41 48  1  0  0  0
 42 43  1  0  0  0
 42 66  1  0  0  0
 42114  1  0  0  0
 42115  1  0  0  0
 43 44  1  0  0  0
 44116  1  0  0  0
 45 46  2  0  0  0
 45117  1  0  0  0
 46118  1  0  0  0
 47119  1  0  0  0
 47120  1  0  0  0
 48 56  1  0  0  0
 48 65  1  0  0  0
 48121  1  0  0  0
 49 50  1  0  0  0
 49 53  1  0  0  0
 49 64  1  0  0  0
 49122  1  0  0  0
 50 51  1  0  0  0
 50123  1  0  0  0
 50124  1  0  0  0
 51 52  1  0  0  0
 51125  1  0  0  0
 51126  1  0  0  0
 52127  1  0  0  0
 52128  1  0  0  0
 53 54  1  0  0  0
 54 55  2  0  0  0
 54129  1  0  0  0
 55 57  1  0  0  0
 55130  1  0  0  0
 56 69  2  0  0  0
 57 58  2  0  0  0
 57131  1  0  0  0
 58132  1  0  0  0
 59 60  1  0  0  0
 59 61  1  0  0  0
 59 62  1  0  0  0
 60133  1  0  0  0
 60134  1  0  0  0
 60135  1  0  0  0
 61136  1  0  0  0
 61137  1  0  0  0
 61138  1  0  0  0
 62139  1  0  0  0
 62140  1  0  0  0
 62141  1  0  0  0
 63 65  1  0  0  0
 63142  1  0  0  0
 63143  1  0  0  0
 63144  1  0  0  0
 64145  1  0  0  0
 65146  1  0  0  0
 68 76  1  0  0  0
 71 72  2  0  0  0
 71 75  1  0  0  0
 71147  1  0  0  0
 72 76  1  0  0  0
 72148  1  0  0  0
 73 74  1  0  0  0
 73 75  2  0  0  0
 73149  1  0  0  0
 74 76  2  0  0  0
 74 82  1  0  0  0
 75 83  1  0  0  0
 77 79  1  0  0  0
 77 81  1  0  0  0
 77150  1  0  0  0
 77151  1  0  0  0
 78 80  1  0  0  0
 78 81  1  0  0  0
 78152  1  0  0  0
 78153  1  0  0  0
 79 83  1  0  0  0
 79154  1  0  0  0
 79155  1  0  0  0
 80 83  1  0  0  0
 80156  1  0  0  0
 80157  1  0  0  0
 81 84  1  0  0  0
 81158  1  0  0  0
 82 85  1  0  0  0
 82 86  1  0  0  0
 82 87  1  0  0  0
 84159  1  0  0  0
M  ISO  4   1 100  68 101  76 101  84 100
M  END
> <chiral flag>
0

> <version>
0

> <s_m_source_file>
/data/baiqing/PycharmProjects/Reinvent-master-3.2/result/LINK_invent/BTK/process_docking_weight1_custom_product_contain_oxygen_bond_distance_aromatic_linkinvent_7_9_3/rearranged_h_0007.sdf

> <i_m_source_file_index>
75

> <r_mmod_Potential_Energy-OPLS-2005>
216.407241821289

> <r_mmod_Stretch_Energy-OPLS-2005>
123.924674987793

> <r_mmod_Bend_Energy-OPLS-2005>
192.527069091797

> <r_mmod_Torsional_Energy-OPLS-2005>
229.682495117188

> <r_mmod_Improper_Torsional_Energy-OPLS-2005>
8.57262992858887

> <r_mmod_Van_der_Waal_Energy-OPLS-2005>
143.904190063477

> <r_mmod_Electrostatic_Energy-OPLS-2005>
-355.785064697266

> <r_mmod_Solvation_Energy-OPLS-2005>
-221.21630859375

> <b_mmod_Minimization_Converged-OPLS-2005>
0

> <r_mmod_RMS_Derivative-OPLS-2005>
1.42419457435608

$$$$
75
                    3D
 Structure written by MMmdl.
174182  0  0  1  0            999 V2000
  -30.6588  -14.4485   20.6400 C   0  0  0  0  0  0
  -30.4103  -12.3169   19.4178 C   0  0  0  0  0  0
  -29.4776  -12.5121   18.2036 C   0  0  0  0  0  0
  -27.9937  -12.3776   18.6029 C   0  0  0  0  0  0
  -27.6440  -13.2001   19.8689 C   0  0  2  0  0  0
  -28.6685  -12.9172   20.9794 C   0  0  0  0  0  0
  -25.2431  -13.8083   20.5518 C   0  0  0  0  0  0
  -24.1748  -13.0395   20.9151 C   0  0  0  0  0  0
  -24.6306  -11.6860   20.8748 C   0  0  0  0  0  0
  -23.8995  -10.4274   21.0413 C   0  0  0  0  0  0
  -24.3560   -9.4170   21.9190 C   0  0  0  0  0  0
  -23.6255   -8.2205   22.0717 C   0  0  0  0  0  0
  -22.4243   -8.0265   21.3500 C   0  0  0  0  0  0
  -21.9885   -9.0238   20.4599 C   0  0  0  0  0  0
  -22.7187  -10.2113   20.3041 C   0  0  0  0  0  0
  -21.6854   -6.0734   22.5277 C   0  0  0  0  0  0
  -21.4010   -6.5611   23.8223 C   0  0  0  0  0  0
  -21.3660   -5.6763   24.9181 C   0  0  0  0  0  0
  -21.6045   -4.3028   24.7211 C   0  0  0  0  0  0
  -21.8827   -3.8130   23.4321 C   0  0  0  0  0  0
  -21.9192   -4.6960   22.3386 C   0  0  0  0  0  0
  -22.7793  -13.5182   21.1900 C   0  0  0  0  0  0
  -22.1656   -4.2163   21.0959 F   0  0  0  0  0  0
  -21.5618   -3.4507   25.7706 F   0  0  0  0  0  0
  -29.9976  -13.2698   20.4636 N   0  0  0  0  0  0
  -26.2880  -12.9284   20.3293 N   0  0  0  0  0  0
  -25.9202  -11.6451   20.5741 N   0  0  0  0  0  0
  -22.0477  -12.8202   22.0472 N   0  0  0  0  0  0
  -25.4102  -15.1798   20.3734 N   0  0  0  0  0  0
  -31.7787  -14.6539   20.1584 O   0  0  0  0  0  0
  -21.6596   -6.8879   21.4242 O   0  0  0  0  0  0
  -22.3449  -14.5520   20.6804 O   0  0  0  0  0  0
  -24.6122  -31.8733   23.2093 C   0  0  0  0  0  0
  -25.9020  -32.4885   23.8397 C   0  0  1  0  0  0
  -27.2421  -27.4548   20.1033 C   0  0  0  0  0  0
  -25.5904  -33.8688   24.2344 N   0  0  0  0  0  0
  -23.4023  -30.4860   21.5526 C   0  0  2  0  0  0
  -24.8511  -28.9454   20.1319 C   0  0  0  0  0  0
  -22.7386  -29.4652   22.5065 C   0  0  0  0  0  0
  -18.0201  -28.1420   22.8437 C   0  0  0  0  0  0
  -24.1517  -36.7326   23.2657 C   0  0  0  0  0  0
  -25.9277  -30.8368   21.3674 C   0  0  0  0  0  0
  -26.0077  -29.4665   20.7306 C   0  0  0  0  0  0
  -27.2066  -28.7215   20.7266 C   0  0  0  0  0  0
  -26.0796  -26.9450   19.4993 C   0  0  0  0  0  0
  -24.8780  -27.6760   19.5246 C   0  0  0  0  0  0
  -23.6153  -29.8105   20.1743 C   0  0  0  0  0  0
  -25.4121  -36.3140   24.0371 C   0  0  1  0  0  0
  -20.5812  -28.3599   23.1328 C   0  0  2  0  0  0
  -20.6707  -26.9399   22.5328 C   0  0  0  0  0  0
  -19.5581  -26.6252   21.5278 C   0  0  0  0  0  0
  -18.1783  -26.7919   22.1676 C   0  0  0  0  0  0
  -19.1486  -28.8817   23.2857 C   0  0  0  0  0  0
  -18.9457  -30.1412   23.8876 C   0  0  0  0  0  0
  -17.6498  -30.6549   24.0693 C   0  0  0  0  0  0
  -25.9044  -34.9535   23.5125 C   0  0  0  0  0  0
  -16.5359  -29.9121   23.6432 C   0  0  0  0  0  0
  -16.7205  -28.6615   23.0260 C   0  0  0  0  0  0
  -26.4419  -31.6621   25.0729 C   0  0  0  0  0  0
  -25.3693  -31.3693   26.1472 C   0  0  0  0  0  0
  -27.0233  -30.3073   24.6068 C   0  0  0  0  0  0
  -27.6027  -32.4330   25.7440 C   0  0  0  0  0  0
  -27.5576  -37.1809   24.8472 C   0  0  0  0  0  0
  -21.4108  -29.2987   22.3749 N   0  0  0  0  0  0
  -26.4316  -37.3809   23.9415 N   0  0  0  0  0  0
  -24.6646  -31.0787   22.1025 N   0  0  0  0  0  0
  -23.4170  -28.8223   23.3120 O   0  0  0  0  0  0
  -28.3846  -26.6998   20.0577 O   0  0  0  0  0  0
  -26.5601  -34.8956   22.4685 O   0  0  0  0  0  0
  -23.5311  -32.1505   23.7466 O   0  0  0  0  0  0
  -27.8957  -17.6893   21.3704 C   0  0  0  0  0  0
  -26.9399  -16.3235   23.1391 C   0  0  0  0  0  0
  -26.7936  -18.5700   21.4453 C   0  0  0  0  0  0
  -25.8416  -17.2090   23.2258 C   0  0  0  0  0  0
  -28.0083  -16.5864   22.2506 C   0  0  0  0  0  0
  -25.7816  -18.3623   22.4098 C   0  0  0  0  0  0
  -27.6945  -22.1932   23.6801 C   0  0  0  0  0  0
  -25.0097  -24.9141   22.7052 C   0  0  0  0  0  0
  -29.3073  -15.7760   22.3270 C   0  0  0  0  0  0
  -24.6403  -19.3644   22.5851 C   0  0  0  0  0  0
  -28.4639  -24.6015   21.3231 C   0  0  0  0  0  0
  -25.4290  -21.7421   22.5931 C   0  0  0  0  0  0
  -28.7651  -26.1195   21.3049 C   0  0  0  0  0  0
  -26.3019  -22.7738   23.3666 C   0  0  2  0  0  0
  -26.3804  -24.2046   22.7306 C   0  0  1  0  0  0
  -29.9279  -15.5119   21.0238 N   0  0  0  0  0  0
  -25.0560  -20.5390   23.3912 N   0  3  0  0  0  0
  -27.0115  -24.2514   21.3770 N   0  3  0  0  0  0
  -31.4488  -12.4508   19.1104 H   0  0  0  0  0  0
  -30.3446  -11.2964   19.7966 H   0  0  0  0  0  0
  -29.7227  -11.7891   17.4251 H   0  0  0  0  0  0
  -29.6508  -13.4958   17.7681 H   0  0  0  0  0  0
  -27.7816  -11.3233   18.7842 H   0  0  0  0  0  0
  -27.3516  -12.6770   17.7715 H   0  0  0  0  0  0
  -27.7094  -14.2563   19.6073 H   0  0  0  0  0  0
  -28.6538  -11.8599   21.2419 H   0  0  0  0  0  0
  -28.3653  -13.4221   21.8879 H   0  0  0  0  0  0
  -25.2720   -9.5595   22.4774 H   0  0  0  0  0  0
  -23.9955   -7.4570   22.7410 H   0  0  0  0  0  0
  -21.0839   -8.8736   19.8901 H   0  0  0  0  0  0
  -22.3671  -10.9636   19.6134 H   0  0  0  0  0  0
  -21.1993   -7.6120   23.9745 H   0  0  0  0  0  0
  -21.1475   -6.0456   25.9087 H   0  0  0  0  0  0
  -22.0596   -2.7592   23.2786 H   0  0  0  0  0  0
  -22.4144  -11.9857   22.4821 H   0  0  0  0  0  0
  -21.1069  -13.1179   22.2660 H   0  0  0  0  0  0
  -24.6668  -15.8368   20.5767 H   0  0  0  0  0  0
  -26.3017  -15.6297   20.2079 H   0  0  0  0  0  0
  -26.7124  -32.5615   23.1195 H   0  0  0  0  0  0
  -25.0060  -33.9807   25.0482 H   0  0  0  0  0  0
  -22.6904  -31.3039   21.4023 H   0  0  0  0  0  0
  -23.3807  -35.9644   23.3385 H   0  0  0  0  0  0
  -24.3605  -36.8870   22.2062 H   0  0  0  0  0  0
  -23.7225  -37.6536   23.6606 H   0  0  0  0  0  0
  -26.0221  -31.5916   20.5845 H   0  0  0  0  0  0
  -26.8247  -30.9092   21.9761 H   0  0  0  0  0  0
  -28.1002  -29.1164   21.1895 H   0  0  0  0  0  0
  -26.1058  -25.9842   19.0053 H   0  0  0  0  0  0
  -23.9881  -27.2554   19.0778 H   0  0  0  0  0  0
  -23.7389  -30.5845   19.4182 H   0  0  0  0  0  0
  -22.7385  -29.2373   19.8715 H   0  0  0  0  0  0
  -25.1269  -36.1991   25.0872 H   0  0  0  0  0  0
  -20.9879  -28.3062   24.1442 H   0  0  0  0  0  0
  -20.5776  -26.2210   23.3450 H   0  0  0  0  0  0
  -21.6561  -26.7490   22.1021 H   0  0  0  0  0  0
  -19.6583  -25.6096   21.1472 H   0  0  0  0  0  0
  -19.6455  -27.2772   20.6598 H   0  0  0  0  0  0
  -17.4035  -26.6555   21.4080 H   0  0  0  0  0  0
  -18.0162  -26.0202   22.9219 H   0  0  0  0  0  0
  -19.7949  -30.7207   24.2187 H   0  0  0  0  0  0
  -17.5135  -31.6160   24.5424 H   0  0  0  0  0  0
  -15.5379  -30.3045   23.7962 H   0  0  0  0  0  0
  -15.8549  -28.1037   22.6892 H   0  0  0  0  0  0
  -24.5800  -30.7121   25.7765 H   0  0  0  0  0  0
  -24.8982  -32.2881   26.5013 H   0  0  0  0  0  0
  -25.8081  -30.8731   27.0148 H   0  0  0  0  0  0
  -26.2801  -29.6809   24.1162 H   0  0  0  0  0  0
  -27.4052  -29.7264   25.4459 H   0  0  0  0  0  0
  -27.8567  -30.4430   23.9192 H   0  0  0  0  0  0
  -27.2690  -33.3611   26.2083 H   0  0  0  0  0  0
  -28.3763  -32.6947   25.0206 H   0  0  0  0  0  0
  -28.0783  -31.8440   26.5262 H   0  0  0  0  0  0
  -28.2591  -38.0096   24.7469 H   0  0  0  0  0  0
  -28.1053  -36.2621   24.6350 H   0  0  0  0  0  0
  -27.2304  -37.1509   25.8877 H   0  0  0  0  0  0
  -20.9267  -29.8421   21.6732 H   0  0  0  0  0  0
  -26.0213  -38.2906   24.1398 H   0  0  0  0  0  0
  -28.6741  -17.8980   20.6523 H   0  0  0  0  0  0
  -26.9679  -15.4632   23.7909 H   0  0  0  0  0  0
  -26.7445  -19.4200   20.7758 H   0  0  0  0  0  0
  -25.0561  -17.0093   23.9442 H   0  0  0  0  0  0
  -27.6114  -21.3170   24.3229 H   0  0  0  0  0  0
  -28.3196  -22.9209   24.2032 H   0  0  0  0  0  0
  -28.2143  -21.8839   22.7718 H   0  0  0  0  0  0
  -24.2739  -24.4138   22.0739 H   0  0  0  0  0  0
  -25.1076  -25.9305   22.3253 H   0  0  0  0  0  0
  -24.5800  -24.9962   23.7031 H   0  0  0  0  0  0
  -29.2205  -14.9020   22.9713 H   0  0  0  0  0  0
  -30.0064  -16.4137   22.8713 H   0  0  0  0  0  0
  -23.8197  -18.8639   23.1033 H   0  0  0  0  0  0
  -24.2358  -19.6778   21.6229 H   0  0  0  0  0  0
  -28.9957  -24.1326   22.1489 H   0  0  0  0  0  0
  -28.8938  -24.1587   20.4239 H   0  0  0  0  0  0
  -25.9528  -21.4351   21.6875 H   0  0  0  0  0  0
  -24.5012  -22.2042   22.2562 H   0  0  0  0  0  0
  -29.8432  -26.2665   21.4015 H   0  0  0  0  0  0
  -28.3237  -26.6290   22.1588 H   0  0  0  0  0  0
  -25.8232  -22.9342   24.3343 H   0  0  0  0  0  0
  -26.9958  -24.8006   23.4089 H   0  0  0  0  0  0
  -30.3408  -16.3608   20.6678 H   0  0  0  0  0  0
  -25.8026  -20.2460   23.9989 H   0  0  0  0  0  0
  -24.2786  -20.7838   23.9854 H   0  0  0  0  0  0
  -26.8849  -23.3706   20.9021 H   0  0  0  0  0  0
  -26.5170  -24.9410   20.8270 H   0  0  0  0  0  0
  1 25  1  0  0  0
  1 30  2  0  0  0
  1 86  1  0  0  0
  2  3  1  0  0  0
  2 25  1  0  0  0
  2 89  1  0  0  0
  2 90  1  0  0  0
  3  4  1  0  0  0
  3 91  1  0  0  0
  3 92  1  0  0  0
  4  5  1  0  0  0
  4 93  1  0  0  0
  4 94  1  0  0  0
  5  6  1  0  0  0
  5 26  1  0  0  0
  5 95  1  0  0  0
  6 25  1  0  0  0
  6 96  1  0  0  0
  6 97  1  0  0  0
  7  8  2  0  0  0
  7 26  1  0  0  0
  7 29  1  0  0  0
  8  9  1  0  0  0
  8 22  1  0  0  0
  9 10  1  0  0  0
  9 27  2  0  0  0
 10 11  2  0  0  0
 10 15  1  0  0  0
 11 12  1  0  0  0
 11 98  1  0  0  0
 12 13  2  0  0  0
 12 99  1  0  0  0
 13 14  1  0  0  0
 13 31  1  0  0  0
 14 15  2  0  0  0
 14100  1  0  0  0
 15101  1  0  0  0
 16 17  2  0  0  0
 16 21  1  0  0  0
 16 31  1  0  0  0
 17 18  1  0  0  0
 17102  1  0  0  0
 18 19  2  0  0  0
 18103  1  0  0  0
 19 20  1  0  0  0
 19 24  1  0  0  0
 20 21  2  0  0  0
 20104  1  0  0  0
 21 23  1  0  0  0
 22 28  1  0  0  0
 22 32  2  0  0  0
 26 27  1  0  0  0
 28105  1  0  0  0
 28106  1  0  0  0
 29107  1  0  0  0
 29108  1  0  0  0
 33 34  1  0  0  0
 33 66  1  0  0  0
 33 70  2  0  0  0
 34 36  1  0  0  0
 34 59  1  0  0  0
 34109  1  0  0  0
 35 44  2  0  0  0
 35 45  1  0  0  0
 35 68  1  0  0  0
 36 56  1  0  0  0
 36110  1  0  0  0
 37 39  1  0  0  0
 37 47  1  0  0  0
 37 66  1  0  0  0
 37111  1  0  0  0
 38 43  2  0  0  0
 38 46  1  0  0  0
 38 47  1  0  0  0
 39 64  1  0  0  0
 39 67  2  0  0  0
 40 52  1  0  0  0
 40 53  2  0  0  0
 40 58  1  0  0  0
 41112  1  0  0  0
 41113  1  0  0  0
 41114  1  0  0  0
 41 48  1  0  0  0
 42 43  1  0  0  0
 42 66  1  0  0  0
 42115  1  0  0  0
 42116  1  0  0  0
 43 44  1  0  0  0
 44117  1  0  0  0
 45 46  2  0  0  0
 45118  1  0  0  0
 46119  1  0  0  0
 47120  1  0  0  0
 47121  1  0  0  0
 48 56  1  0  0  0
 48 65  1  0  0  0
 48122  1  0  0  0
 49 50  1  0  0  0
 49 53  1  0  0  0
 49 64  1  0  0  0
 49123  1  0  0  0
 50 51  1  0  0  0
 50124  1  0  0  0
 50125  1  0  0  0
 51 52  1  0  0  0
 51126  1  0  0  0
 51127  1  0  0  0
 52128  1  0  0  0
 52129  1  0  0  0
 53 54  1  0  0  0
 54 55  2  0  0  0
 54130  1  0  0  0
 55 57  1  0  0  0
 55131  1  0  0  0
 56 69  2  0  0  0
 57 58  2  0  0  0
 57132  1  0  0  0
 58133  1  0  0  0
 59 60  1  0  0  0
 59 61  1  0  0  0
 59 62  1  0  0  0
 60134  1  0  0  0
 60135  1  0  0  0
 60136  1  0  0  0
 61137  1  0  0  0
 61138  1  0  0  0
 61139  1  0  0  0
 62140  1  0  0  0
 62141  1  0  0  0
 62142  1  0  0  0
 63 65  1  0  0  0
 63143  1  0  0  0
 63144  1  0  0  0
 63145  1  0  0  0
 64146  1  0  0  0
 65147  1  0  0  0
 68 83  1  0  0  0
 71 73  2  0  0  0
 71 75  1  0  0  0
 71148  1  0  0  0
 72 74  1  0  0  0
 72 75  2  0  0  0
 72149  1  0  0  0
 73 76  1  0  0  0
 73150  1  0  0  0
 74 76  2  0  0  0
 74151  1  0  0  0
 75 79  1  0  0  0
 76 80  1  0  0  0
 77152  1  0  0  0
 77153  1  0  0  0
 77154  1  0  0  0
 77 84  1  0  0  0
 78155  1  0  0  0
 78156  1  0  0  0
 78157  1  0  0  0
 78 85  1  0  0  0
 79 86  1  0  0  0
 79158  1  0  0  0
 79159  1  0  0  0
 80 87  1  0  0  0
 80160  1  0  0  0
 80161  1  0  0  0
 81 83  1  0  0  0
 81 88  1  0  0  0
 81162  1  0  0  0
 81163  1  0  0  0
 82 84  1  0  0  0
 82 87  1  0  0  0
 82164  1  0  0  0
 82165  1  0  0  0
 83166  1  0  0  0
 83167  1  0  0  0
 84 85  1  0  0  0
 84168  1  0  0  0
 85 88  1  0  0  0
 85169  1  0  0  0
 86170  1  0  0  0
 87171  1  0  0  0
 87172  1  0  0  0
 88173  1  0  0  0
 88174  1  0  0  0
M  CHG  2  87   1  88   1
M  ISO  4   1 100  68 101  83 101  86 100
M  END
> <chiral flag>
0

> <version>
0

> <s_m_source_file>
/data/baiqing/PycharmProjects/Reinvent-master-3.2/result/LINK_invent/BTK/process_docking_weight1_custom_product_contain_oxygen_bond_distance_aromatic_linkinvent_7_9_3/rearranged_h_0007.sdf

> <i_m_source_file_index>
76

> <r_mmod_Potential_Energy-OPLS-2005>
-317.474670410156

> <r_mmod_Stretch_Energy-OPLS-2005>
38.9580192565918

> <r_mmod_Bend_Energy-OPLS-2005>
119.45011138916

> <r_mmod_Torsional_Energy-OPLS-2005>
322.5244140625

> <r_mmod_Improper_Torsional_Energy-OPLS-2005>
14.2497386932373

> <r_mmod_Van_der_Waal_Energy-OPLS-2005>
124.684646606445

> <r_mmod_Electrostatic_Energy-OPLS-2005>
-1.37362813949585

> <r_mmod_Solvation_Energy-OPLS-2005>
-947.830139160156

> <b_mmod_Minimization_Converged-OPLS-2005>
0

> <r_mmod_RMS_Derivative-OPLS-2005>
7.80659532546997

$$$$
76
                    3D
 Structure written by MMmdl.
146154  0  0  1  0            999 V2000
  -30.4115  -15.2360   20.3782 C   0  0  0  0  0  0
  -30.4481  -12.7847   19.5253 C   0  0  0  0  0  0
  -29.5392  -12.5763   18.2863 C   0  0  0  0  0  0
  -28.0839  -12.3050   18.7091 C   0  0  0  0  0  0
  -27.6174  -13.2684   19.8287 C   0  0  2  0  0  0
  -28.6520  -13.4066   20.9660 C   0  0  0  0  0  0
  -25.2410  -13.8235   20.5726 C   0  0  0  0  0  0
  -24.1757  -13.0435   20.9256 C   0  0  0  0  0  0
  -24.6402  -11.6929   20.8762 C   0  0  0  0  0  0
  -23.9092  -10.4292   21.0408 C   0  0  0  0  0  0
  -24.3635   -9.4205   21.9186 C   0  0  0  0  0  0
  -23.6303   -8.2243   22.0755 C   0  0  0  0  0  0
  -22.4285   -8.0283   21.3545 C   0  0  0  0  0  0
  -21.9926   -9.0258   20.4646 C   0  0  0  0  0  0
  -22.7262  -10.2133   20.3057 C   0  0  0  0  0  0
  -21.6856   -6.0738   22.5279 C   0  0  0  0  0  0
  -21.4016   -6.5641   23.8212 C   0  0  0  0  0  0
  -21.3660   -5.6793   24.9174 C   0  0  0  0  0  0
  -21.6044   -4.3056   24.7224 C   0  0  0  0  0  0
  -21.8819   -3.8148   23.4345 C   0  0  0  0  0  0
  -21.9193   -4.6965   22.3402 C   0  0  0  0  0  0
  -22.7775  -13.5193   21.1903 C   0  0  0  0  0  0
  -22.1662   -4.2150   21.0979 F   0  0  0  0  0  0
  -21.5628   -3.4539   25.7737 F   0  0  0  0  0  0
  -29.8901  -13.9137   20.3521 N   0  0  0  0  0  0
  -26.2837  -12.9497   20.3215 N   0  0  0  0  0  0
  -25.9337  -11.6609   20.5720 N   0  0  0  0  0  0
  -22.0430  -12.8175   22.0455 N   0  0  0  0  0  0
  -25.4038  -15.1969   20.4127 N   0  0  0  0  0  0
  -31.6257  -15.2922   20.1320 O   0  0  0  0  0  0
  -21.6644   -6.8883   21.4242 O   0  0  0  0  0  0
  -22.3456  -14.5496   20.6744 O   0  0  0  0  0  0
  -24.6599  -31.8252   23.1717 C   0  0  0  0  0  0
  -25.9291  -32.4596   23.8175 C   0  0  1  0  0  0
  -27.2227  -26.9453   20.1894 C   0  0  0  0  0  0
  -25.5969  -33.8410   24.2082 N   0  0  0  0  0  0
  -23.4743  -30.4358   21.5198 C   0  0  2  0  0  0
  -24.9285  -28.8210   20.1157 C   0  0  0  0  0  0
  -22.7652  -29.4446   22.4789 C   0  0  0  0  0  0
  -18.0319  -28.1410   22.8469 C   0  0  0  0  0  0
  -24.1494  -36.7211   23.2650 C   0  0  0  0  0  0
  -26.0410  -30.6352   21.4018 C   0  0  0  0  0  0
  -26.1083  -29.2238   20.7538 C   0  0  0  0  0  0
  -27.2475  -28.3037   20.7717 C   0  0  0  0  0  0
  -26.0181  -26.6905   19.4983 C   0  0  0  0  0  0
  -24.9062  -27.5730   19.4704 C   0  0  0  0  0  0
  -23.7142  -29.7481   20.1469 C   0  0  0  0  0  0
  -25.4137  -36.2973   24.0300 C   0  0  1  0  0  0
  -20.5943  -28.3750   23.1196 C   0  0  2  0  0  0
  -20.6796  -26.9435   22.5405 C   0  0  0  0  0  0
  -19.5771  -26.6379   21.5216 C   0  0  0  0  0  0
  -18.1952  -26.7944   22.1623 C   0  0  0  0  0  0
  -19.1580  -28.8901   23.2820 C   0  0  0  0  0  0
  -18.9493  -30.1492   23.8854 C   0  0  0  0  0  0
  -17.6487  -30.6600   24.0557 C   0  0  0  0  0  0
  -25.9095  -34.9354   23.5012 C   0  0  0  0  0  0
  -16.5377  -29.9089   23.6344 C   0  0  0  0  0  0
  -16.7301  -28.6509   23.0362 C   0  0  0  0  0  0
  -26.4553  -31.6537   25.0698 C   0  0  0  0  0  0
  -25.3684  -31.3786   26.1357 C   0  0  0  0  0  0
  -27.0451  -30.2907   24.6421 C   0  0  0  0  0  0
  -27.6047  -32.4345   25.7498 C   0  0  0  0  0  0
  -27.5563  -37.1775   24.8476 C   0  0  0  0  0  0
  -21.4324  -29.3041   22.3541 N   0  0  0  0  0  0
  -26.4288  -37.3700   23.9393 N   0  0  0  0  0  0
  -24.7460  -30.9928   22.0847 N   0  0  0  0  0  0
  -23.4208  -28.8021   23.3029 O   0  0  0  0  0  0
  -28.2587  -25.8777   20.2125 O   0  0  0  0  0  0
  -26.5705  -34.8886   22.4608 O   0  0  0  0  0  0
  -23.5674  -32.1218   23.6818 O   0  0  0  0  0  0
  -28.0770  -20.3125   20.6106 C   0  0  0  0  0  0
  -28.2727  -18.8348   20.6575 C   0  0  0  0  0  0
  -30.4901  -19.0659   20.1263 C   0  0  0  0  0  0
  -29.0793  -21.3247   20.3118 C   0  0  0  0  0  0
  -29.4903  -18.0508   20.4259 C   0  0  0  0  0  0
  -30.3028  -20.5464   20.0773 C   0  0  0  0  0  0
  -29.0269  -23.0813   20.2873 C   0  0  0  0  0  0
  -29.5522  -16.4316   20.5083 N   0  0  0  0  0  0
  -27.8750  -24.2284   20.2741 N   0  0  0  0  0  0
  -31.4112  -21.2681   19.7859 F   0  0  0  0  0  0
  -31.4662  -12.9987   19.1970 H   0  0  0  0  0  0
  -30.5164  -11.8690   20.1148 H   0  0  0  0  0  0
  -29.9126  -11.7546   17.6736 H   0  0  0  0  0  0
  -29.5747  -13.4679   17.6585 H   0  0  0  0  0  0
  -28.0311  -11.2762   19.0674 H   0  0  0  0  0  0
  -27.4171  -12.3641   17.8481 H   0  0  0  0  0  0
  -27.5435  -14.2440   19.3472 H   0  0  0  0  0  0
  -28.8109  -12.4568   21.4787 H   0  0  0  0  0  0
  -28.2968  -14.1096   21.7211 H   0  0  0  0  0  0
  -25.2777   -9.5679   22.4765 H   0  0  0  0  0  0
  -24.0008   -7.4635   22.7477 H   0  0  0  0  0  0
  -21.0857   -8.8783   19.8951 H   0  0  0  0  0  0
  -22.3723  -10.9675   19.6167 H   0  0  0  0  0  0
  -21.2010   -7.6149   23.9717 H   0  0  0  0  0  0
  -21.1482   -6.0522   25.9077 H   0  0  0  0  0  0
  -22.0598   -2.7610   23.2845 H   0  0  0  0  0  0
  -22.4059  -11.9840   22.4841 H   0  0  0  0  0  0
  -21.1043  -13.1184   22.2661 H   0  0  0  0  0  0
  -24.6236  -15.8381   20.5082 H   0  0  0  0  0  0
  -26.2233  -15.6315   20.0105 H   0  0  0  0  0  0
  -26.7358  -32.5141   23.0889 H   0  0  0  0  0  0
  -25.0068  -33.9492   25.0200 H   0  0  0  0  0  0
  -22.7866  -31.2665   21.3481 H   0  0  0  0  0  0
  -23.3754  -35.9547   23.3323 H   0  0  0  0  0  0
  -24.3558  -36.8842   22.2062 H   0  0  0  0  0  0
  -23.7264  -37.6410   23.6696 H   0  0  0  0  0  0
  -26.2181  -31.3735   20.6186 H   0  0  0  0  0  0
  -26.9027  -30.6955   22.0546 H   0  0  0  0  0  0
  -28.1447  -28.6119   21.2895 H   0  0  0  0  0  0
  -25.9133  -25.7382   18.9981 H   0  0  0  0  0  0
  -24.0108  -27.2596   18.9514 H   0  0  0  0  0  0
  -23.8689  -30.5148   19.3868 H   0  0  0  0  0  0
  -22.8246  -29.2006   19.8306 H   0  0  0  0  0  0
  -25.1340  -36.1779   25.0794 H   0  0  0  0  0  0
  -21.0030  -28.3358   24.1319 H   0  0  0  0  0  0
  -20.5680  -26.2369   23.3643 H   0  0  0  0  0  0
  -21.6660  -26.7414   22.1210 H   0  0  0  0  0  0
  -19.6931  -25.6279   21.1274 H   0  0  0  0  0  0
  -19.6711  -27.3167   20.6729 H   0  0  0  0  0  0
  -17.4221  -26.6687   21.4027 H   0  0  0  0  0  0
  -18.0347  -26.0098   22.9032 H   0  0  0  0  0  0
  -19.7969  -30.7320   24.2202 H   0  0  0  0  0  0
  -17.5039  -31.6276   24.5167 H   0  0  0  0  0  0
  -15.5376  -30.2977   23.7695 H   0  0  0  0  0  0
  -15.8701  -28.0813   22.7102 H   0  0  0  0  0  0
  -24.5880  -30.7118   25.7669 H   0  0  0  0  0  0
  -24.8857  -32.2987   26.4660 H   0  0  0  0  0  0
  -25.7919  -30.9036   27.0216 H   0  0  0  0  0  0
  -26.3118  -29.6581   24.1407 H   0  0  0  0  0  0
  -27.3972  -29.7270   25.5071 H   0  0  0  0  0  0
  -27.9061  -30.4096   23.9840 H   0  0  0  0  0  0
  -27.2617  -33.3690   26.1950 H   0  0  0  0  0  0
  -28.3922  -32.6832   25.0372 H   0  0  0  0  0  0
  -28.0642  -31.8555   26.5518 H   0  0  0  0  0  0
  -28.2603  -38.0046   24.7459 H   0  0  0  0  0  0
  -28.1035  -36.2569   24.6391 H   0  0  0  0  0  0
  -27.2265  -37.1524   25.8877 H   0  0  0  0  0  0
  -20.9575  -29.8722   21.6665 H   0  0  0  0  0  0
  -26.0142  -38.2769   24.1361 H   0  0  0  0  0  0
  -27.0829  -20.6747   20.8318 H   0  0  0  0  0  0
  -27.3873  -18.2646   20.9024 H   0  0  0  0  0  0
  -31.4875  -18.7080   19.9168 H   0  0  0  0  0  0
  -29.6395  -23.3299   19.4203 H   0  0  0  0  0  0
  -29.6521  -23.3551   21.1378 H   0  0  0  0  0  0
  -28.6295  -16.0752   20.7059 H   0  0  0  0  0  0
  -27.3230  -24.1215   21.1210 H   0  0  0  0  0  0
  1 25  1  0  0  0
  1 30  2  0  0  0
  1 78  1  0  0  0
  2  3  1  0  0  0
  2 25  1  0  0  0
  2 81  1  0  0  0
  2 82  1  0  0  0
  3  4  1  0  0  0
  3 83  1  0  0  0
  3 84  1  0  0  0
  4  5  1  0  0  0
  4 85  1  0  0  0
  4 86  1  0  0  0
  5  6  1  0  0  0
  5 26  1  0  0  0
  5 87  1  0  0  0
  6 25  1  0  0  0
  6 88  1  0  0  0
  6 89  1  0  0  0
  7  8  2  0  0  0
  7 26  1  0  0  0
  7 29  1  0  0  0
  8  9  1  0  0  0
  8 22  1  0  0  0
  9 10  1  0  0  0
  9 27  2  0  0  0
 10 11  2  0  0  0
 10 15  1  0  0  0
 11 12  1  0  0  0
 11 90  1  0  0  0
 12 13  2  0  0  0
 12 91  1  0  0  0
 13 14  1  0  0  0
 13 31  1  0  0  0
 14 15  2  0  0  0
 14 92  1  0  0  0
 15 93  1  0  0  0
 16 17  2  0  0  0
 16 21  1  0  0  0
 16 31  1  0  0  0
 17 18  1  0  0  0
 17 94  1  0  0  0
 18 19  2  0  0  0
 18 95  1  0  0  0
 19 20  1  0  0  0
 19 24  1  0  0  0
 20 21  2  0  0  0
 20 96  1  0  0  0
 21 23  1  0  0  0
 22 28  1  0  0  0
 22 32  2  0  0  0
 26 27  1  0  0  0
 28 97  1  0  0  0
 28 98  1  0  0  0
 29 99  1  0  0  0
 29100  1  0  0  0
 33 34  1  0  0  0
 33 66  1  0  0  0
 33 70  2  0  0  0
 34 36  1  0  0  0
 34 59  1  0  0  0
 34101  1  0  0  0
 35 44  2  0  0  0
 35 45  1  0  0  0
 35 68  1  0  0  0
 36 56  1  0  0  0
 36102  1  0  0  0
 37 39  1  0  0  0
 37 47  1  0  0  0
 37 66  1  0  0  0
 37103  1  0  0  0
 38 43  2  0  0  0
 38 46  1  0  0  0
 38 47  1  0  0  0
 39 64  1  0  0  0
 39 67  2  0  0  0
 40 52  1  0  0  0
 40 53  2  0  0  0
 40 58  1  0  0  0
 41104  1  0  0  0
 41105  1  0  0  0
 41106  1  0  0  0
 41 48  1  0  0  0
 42 43  1  0  0  0
 42 66  1  0  0  0
 42107  1  0  0  0
 42108  1  0  0  0
 43 44  1  0  0  0
 44109  1  0  0  0
 45 46  2  0  0  0
 45110  1  0  0  0
 46111  1  0  0  0
 47112  1  0  0  0
 47113  1  0  0  0
 48 56  1  0  0  0
 48 65  1  0  0  0
 48114  1  0  0  0
 49 50  1  0  0  0
 49 53  1  0  0  0
 49 64  1  0  0  0
 49115  1  0  0  0
 50 51  1  0  0  0
 50116  1  0  0  0
 50117  1  0  0  0
 51 52  1  0  0  0
 51118  1  0  0  0
 51119  1  0  0  0
 52120  1  0  0  0
 52121  1  0  0  0
 53 54  1  0  0  0
 54 55  2  0  0  0
 54122  1  0  0  0
 55 57  1  0  0  0
 55123  1  0  0  0
 56 69  2  0  0  0
 57 58  2  0  0  0
 57124  1  0  0  0
 58125  1  0  0  0
 59 60  1  0  0  0
 59 61  1  0  0  0
 59 62  1  0  0  0
 60126  1  0  0  0
 60127  1  0  0  0
 60128  1  0  0  0
 61129  1  0  0  0
 61130  1  0  0  0
 61131  1  0  0  0
 62132  1  0  0  0
 62133  1  0  0  0
 62134  1  0  0  0
 63 65  1  0  0  0
 63135  1  0  0  0
 63136  1  0  0  0
 63137  1  0  0  0
 64138  1  0  0  0
 65139  1  0  0  0
 68 79  1  0  0  0
 71 72  2  0  0  0
 71 74  1  0  0  0
 71140  1  0  0  0
 72 75  1  0  0  0
 72141  1  0  0  0
 73 75  2  0  0  0
 73 76  1  0  0  0
 73142  1  0  0  0
 74 76  2  0  0  0
 74 77  1  0  0  0
 75 78  1  0  0  0
 76 80  1  0  0  0
 77 79  1  0  0  0
 77143  1  0  0  0
 77144  1  0  0  0
 78145  1  0  0  0
 79146  1  0  0  0
M  ISO  4   1 100  68 101  78 100  79 101
M  END
> <chiral flag>
0

> <version>
0

> <s_m_source_file>
/data/baiqing/PycharmProjects/Reinvent-master-3.2/result/LINK_invent/BTK/process_docking_weight1_custom_product_contain_oxygen_bond_distance_aromatic_linkinvent_7_9_3/rearranged_h_0007.sdf

> <i_m_source_file_index>
77

> <r_mmod_Potential_Energy-OPLS-2005>
1131.50427246094

> <r_mmod_Stretch_Energy-OPLS-2005>
494.5185546875

> <r_mmod_Bend_Energy-OPLS-2005>
431.97265625

> <r_mmod_Torsional_Energy-OPLS-2005>
213.545684814453

> <r_mmod_Improper_Torsional_Energy-OPLS-2005>
3.83938789367676

> <r_mmod_Van_der_Waal_Energy-OPLS-2005>
127.036819458008

> <r_mmod_Electrostatic_Energy-OPLS-2005>
-344.446197509766

> <r_mmod_Solvation_Energy-OPLS-2005>
-220.450500488281

> <b_mmod_Minimization_Converged-OPLS-2005>
0

> <r_mmod_RMS_Derivative-OPLS-2005>
0.236234650015831

$$$$
77
                    3D
 Structure written by MMmdl.
148156  0  0  1  0            999 V2000
  -30.5089  -14.9122   20.4351 C   0  0  0  0  0  0
  -30.4555  -12.5616   19.4901 C   0  0  0  0  0  0
  -29.5264  -12.5317   18.2520 C   0  0  0  0  0  0
  -28.0565  -12.3206   18.6662 C   0  0  0  0  0  0
  -27.6389  -13.2354   19.8464 C   0  0  2  0  0  0
  -28.6835  -13.2119   20.9840 C   0  0  0  0  0  0
  -25.2500  -13.8182   20.5681 C   0  0  0  0  0  0
  -24.1806  -13.0431   20.9230 C   0  0  0  0  0  0
  -24.6402  -11.6911   20.8760 C   0  0  0  0  0  0
  -23.9076  -10.4289   21.0416 C   0  0  0  0  0  0
  -24.3624   -9.4201   21.9190 C   0  0  0  0  0  0
  -23.6294   -8.2240   22.0758 C   0  0  0  0  0  0
  -22.4276   -8.0282   21.3547 C   0  0  0  0  0  0
  -21.9915   -9.0259   20.4652 C   0  0  0  0  0  0
  -22.7249  -10.2135   20.3063 C   0  0  0  0  0  0
  -21.6853   -6.0736   22.5279 C   0  0  0  0  0  0
  -21.4015   -6.5640   23.8212 C   0  0  0  0  0  0
  -21.3659   -5.6793   24.9175 C   0  0  0  0  0  0
  -21.6044   -4.3056   24.7225 C   0  0  0  0  0  0
  -21.8818   -3.8147   23.4347 C   0  0  0  0  0  0
  -21.9192   -4.6963   22.3402 C   0  0  0  0  0  0
  -22.7826  -13.5218   21.1880 C   0  0  0  0  0  0
  -22.1661   -4.2149   21.0979 F   0  0  0  0  0  0
  -21.5626   -3.4539   25.7738 F   0  0  0  0  0  0
  -29.9682  -13.6307   20.4025 N   0  0  0  0  0  0
  -26.2925  -12.9392   20.3247 N   0  0  0  0  0  0
  -25.9332  -11.6537   20.5742 N   0  0  0  0  0  0
  -22.0465  -12.8213   22.0434 N   0  0  0  0  0  0
  -25.4162  -15.1901   20.4026 N   0  0  0  0  0  0
  -31.6970  -15.0562   20.1234 O   0  0  0  0  0  0
  -21.6639   -6.8881   21.4242 O   0  0  0  0  0  0
  -22.3518  -14.5520   20.6717 O   0  0  0  0  0  0
  -24.6422  -31.8456   23.1895 C   0  0  0  0  0  0
  -25.9199  -32.4704   23.8282 C   0  0  1  0  0  0
  -27.2214  -27.1519   20.1469 C   0  0  0  0  0  0
  -25.5952  -33.8509   24.2201 N   0  0  0  0  0  0
  -23.4453  -30.4654   21.5351 C   0  0  2  0  0  0
  -24.8953  -28.8959   20.1105 C   0  0  0  0  0  0
  -22.7562  -29.4552   22.4864 C   0  0  0  0  0  0
  -18.0305  -28.1392   22.8480 C   0  0  0  0  0  0
  -24.1492  -36.7261   23.2642 C   0  0  0  0  0  0
  -26.0006  -30.7245   21.3860 C   0  0  0  0  0  0
  -26.0728  -29.3373   20.7273 C   0  0  0  0  0  0
  -27.2369  -28.4820   20.7280 C   0  0  0  0  0  0
  -26.0152  -26.8096   19.4937 C   0  0  0  0  0  0
  -24.8787  -27.6448   19.4786 C   0  0  0  0  0  0
  -23.6712  -29.7962   20.1539 C   0  0  0  0  0  0
  -25.4122  -36.3038   24.0318 C   0  0  1  0  0  0
  -20.5917  -28.3717   23.1239 C   0  0  2  0  0  0
  -20.6789  -26.9422   22.5403 C   0  0  0  0  0  0
  -19.5760  -26.6380   21.5213 C   0  0  0  0  0  0
  -18.1944  -26.7931   22.1628 C   0  0  0  0  0  0
  -19.1562  -28.8873   23.2853 C   0  0  0  0  0  0
  -18.9477  -30.1469   23.8878 C   0  0  0  0  0  0
  -17.6473  -30.6589   24.0558 C   0  0  0  0  0  0
  -25.9071  -34.9412   23.5068 C   0  0  0  0  0  0
  -16.5365  -29.9082   23.6333 C   0  0  0  0  0  0
  -16.7289  -28.6500   23.0357 C   0  0  0  0  0  0
  -26.4522  -31.6564   25.0716 C   0  0  0  0  0  0
  -25.3712  -31.3749   26.1414 C   0  0  0  0  0  0
  -27.0385  -30.2963   24.6283 C   0  0  0  0  0  0
  -27.6053  -32.4328   25.7502 C   0  0  0  0  0  0
  -27.5575  -37.1788   24.8465 C   0  0  0  0  0  0
  -21.4255  -29.3048   22.3615 N   0  0  0  0  0  0
  -26.4286  -37.3749   23.9408 N   0  0  0  0  0  0
  -24.7158  -31.0325   22.0923 N   0  0  0  0  0  0
  -23.4210  -28.8096   23.3008 O   0  0  0  0  0  0
  -28.2796  -26.1752   20.2158 O   0  0  0  0  0  0
  -26.5655  -34.8906   22.4645 O   0  0  0  0  0  0
  -23.5543  -32.1325   23.7122 O   0  0  0  0  0  0
  -30.4979  -18.5502   20.3681 C   0  0  0  0  0  0
  -30.1918  -19.9876   20.3030 C   0  0  0  0  0  0
  -28.2013  -18.0915   20.6159 C   0  0  0  0  0  0
  -29.5058  -17.5125   20.5303 C   0  0  0  0  0  0
  -28.8604  -20.5427   20.3787 C   0  0  0  0  0  0
  -27.8953  -19.4982   20.5370 C   0  0  0  0  0  0
  -27.9814  -24.6559   20.0800 C   0  0  0  0  0  0
  -28.9666  -23.3090   20.3181 C   0  0  0  0  0  0
  -29.6181  -15.9877   20.6567 N   0  0  0  0  0  0
  -28.3436  -21.9122   20.2867 O   0  0  0  0  0  0
  -26.5907  -19.8568   20.6201 F   0  0  0  0  0  0
  -31.4867  -12.7370   19.1791 H   0  0  0  0  0  0
  -30.4561  -11.5962   19.9987 H   0  0  0  0  0  0
  -29.8377  -11.7454   17.5632 H   0  0  0  0  0  0
  -29.6191  -13.4710   17.7045 H   0  0  0  0  0  0
  -27.9424  -11.2750   18.9545 H   0  0  0  0  0  0
  -27.3955  -12.4747   17.8124 H   0  0  0  0  0  0
  -27.6160  -14.2467   19.4405 H   0  0  0  0  0  0
  -28.7608  -12.2155   21.4218 H   0  0  0  0  0  0
  -28.3869  -13.8773   21.7964 H   0  0  0  0  0  0
  -25.2769   -9.5672   22.4767 H   0  0  0  0  0  0
  -24.0000   -7.4629   22.7477 H   0  0  0  0  0  0
  -21.0844   -8.8784   19.8957 H   0  0  0  0  0  0
  -22.3712  -10.9678   19.6174 H   0  0  0  0  0  0
  -21.2010   -7.6149   23.9716 H   0  0  0  0  0  0
  -21.1480   -6.0523   25.9077 H   0  0  0  0  0  0
  -22.0597   -2.7608   23.2848 H   0  0  0  0  0  0
  -22.4083  -11.9878   22.4830 H   0  0  0  0  0  0
  -21.1084  -13.1242   22.2641 H   0  0  0  0  0  0
  -24.6295  -15.8261   20.4770 H   0  0  0  0  0  0
  -26.2182  -15.6066   19.9499 H   0  0  0  0  0  0
  -26.7265  -32.5316   23.1014 H   0  0  0  0  0  0
  -25.0077  -33.9626   25.0333 H   0  0  0  0  0  0
  -22.7472  -31.2910   21.3818 H   0  0  0  0  0  0
  -23.3757  -35.9590   23.3292 H   0  0  0  0  0  0
  -24.3578  -36.8903   22.2059 H   0  0  0  0  0  0
  -23.7245  -37.6454   23.6684 H   0  0  0  0  0  0
  -26.1536  -31.4794   20.6136 H   0  0  0  0  0  0
  -26.8721  -30.7754   22.0269 H   0  0  0  0  0  0
  -28.1335  -28.8156   21.2313 H   0  0  0  0  0  0
  -25.9102  -25.8553   19.0018 H   0  0  0  0  0  0
  -23.9801  -27.3016   18.9846 H   0  0  0  0  0  0
  -23.8070  -30.5716   19.3992 H   0  0  0  0  0  0
  -22.7864  -29.2380   19.8427 H   0  0  0  0  0  0
  -25.1309  -36.1869   25.0810 H   0  0  0  0  0  0
  -21.0010  -28.3306   24.1360 H   0  0  0  0  0  0
  -20.5685  -26.2330   23.3621 H   0  0  0  0  0  0
  -21.6654  -26.7429   22.1199 H   0  0  0  0  0  0
  -19.6921  -25.6286   21.1255 H   0  0  0  0  0  0
  -19.6694  -27.3179   20.6734 H   0  0  0  0  0  0
  -17.4210  -26.6673   21.4035 H   0  0  0  0  0  0
  -18.0346  -26.0078   22.9030 H   0  0  0  0  0  0
  -19.7952  -30.7291   24.2241 H   0  0  0  0  0  0
  -17.5025  -31.6268   24.5163 H   0  0  0  0  0  0
  -15.5364  -30.2977   23.7663 H   0  0  0  0  0  0
  -15.8691  -28.0808   22.7085 H   0  0  0  0  0  0
  -24.5894  -30.7094   25.7734 H   0  0  0  0  0  0
  -24.8898  -32.2930   26.4792 H   0  0  0  0  0  0
  -25.7998  -30.8952   27.0222 H   0  0  0  0  0  0
  -26.2998  -29.6690   24.1281 H   0  0  0  0  0  0
  -27.3997  -29.7256   25.4848 H   0  0  0  0  0  0
  -27.8906  -30.4204   23.9597 H   0  0  0  0  0  0
  -27.2645  -33.3646   26.2028 H   0  0  0  0  0  0
  -28.3892  -32.6860   25.0352 H   0  0  0  0  0  0
  -28.0689  -31.8488   26.5463 H   0  0  0  0  0  0
  -28.2585  -38.0091   24.7510 H   0  0  0  0  0  0
  -28.1079  -36.2622   24.6295 H   0  0  0  0  0  0
  -27.2293  -37.1437   25.8868 H   0  0  0  0  0  0
  -20.9461  -29.8768   21.6802 H   0  0  0  0  0  0
  -26.0155  -38.2818   24.1409 H   0  0  0  0  0  0
  -31.5349  -18.2525   20.2974 H   0  0  0  0  0  0
  -31.0171  -20.6732   20.1773 H   0  0  0  0  0  0
  -27.3590  -17.4297   20.7477 H   0  0  0  0  0  0
  -27.1214  -24.4889   20.7294 H   0  0  0  0  0  0
  -27.6025  -24.5258   19.0670 H   0  0  0  0  0  0
  -29.4518  -23.4117   21.2888 H   0  0  0  0  0  0
  -29.7707  -23.3307   19.5826 H   0  0  0  0  0  0
  -28.7268  -15.5824   20.8973 H   0  0  0  0  0  0
  1 25  1  0  0  0
  1 30  2  0  0  0
  1 79  1  0  0  0
  2  3  1  0  0  0
  2 25  1  0  0  0
  2 82  1  0  0  0
  2 83  1  0  0  0
  3  4  1  0  0  0
  3 84  1  0  0  0
  3 85  1  0  0  0
  4  5  1  0  0  0
  4 86  1  0  0  0
  4 87  1  0  0  0
  5  6  1  0  0  0
  5 26  1  0  0  0
  5 88  1  0  0  0
  6 25  1  0  0  0
  6 89  1  0  0  0
  6 90  1  0  0  0
  7  8  2  0  0  0
  7 26  1  0  0  0
  7 29  1  0  0  0
  8  9  1  0  0  0
  8 22  1  0  0  0
  9 10  1  0  0  0
  9 27  2  0  0  0
 10 11  2  0  0  0
 10 15  1  0  0  0
 11 12  1  0  0  0
 11 91  1  0  0  0
 12 13  2  0  0  0
 12 92  1  0  0  0
 13 14  1  0  0  0
 13 31  1  0  0  0
 14 15  2  0  0  0
 14 93  1  0  0  0
 15 94  1  0  0  0
 16 17  2  0  0  0
 16 21  1  0  0  0
 16 31  1  0  0  0
 17 18  1  0  0  0
 17 95  1  0  0  0
 18 19  2  0  0  0
 18 96  1  0  0  0
 19 20  1  0  0  0
 19 24  1  0  0  0
 20 21  2  0  0  0
 20 97  1  0  0  0
 21 23  1  0  0  0
 22 28  1  0  0  0
 22 32  2  0  0  0
 26 27  1  0  0  0
 28 98  1  0  0  0
 28 99  1  0  0  0
 29100  1  0  0  0
 29101  1  0  0  0
 33 34  1  0  0  0
 33 66  1  0  0  0
 33 70  2  0  0  0
 34 36  1  0  0  0
 34 59  1  0  0  0
 34102  1  0  0  0
 35 44  2  0  0  0
 35 45  1  0  0  0
 35 68  1  0  0  0
 36 56  1  0  0  0
 36103  1  0  0  0
 37 39  1  0  0  0
 37 47  1  0  0  0
 37 66  1  0  0  0
 37104  1  0  0  0
 38 43  2  0  0  0
 38 46  1  0  0  0
 38 47  1  0  0  0
 39 64  1  0  0  0
 39 67  2  0  0  0
 40 52  1  0  0  0
 40 53  2  0  0  0
 40 58  1  0  0  0
 41105  1  0  0  0
 41106  1  0  0  0
 41107  1  0  0  0
 41 48  1  0  0  0
 42 43  1  0  0  0
 42 66  1  0  0  0
 42108  1  0  0  0
 42109  1  0  0  0
 43 44  1  0  0  0
 44110  1  0  0  0
 45 46  2  0  0  0
 45111  1  0  0  0
 46112  1  0  0  0
 47113  1  0  0  0
 47114  1  0  0  0
 48 56  1  0  0  0
 48 65  1  0  0  0
 48115  1  0  0  0
 49 50  1  0  0  0
 49 53  1  0  0  0
 49 64  1  0  0  0
 49116  1  0  0  0
 50 51  1  0  0  0
 50117  1  0  0  0
 50118  1  0  0  0
 51 52  1  0  0  0
 51119  1  0  0  0
 51120  1  0  0  0
 52121  1  0  0  0
 52122  1  0  0  0
 53 54  1  0  0  0
 54 55  2  0  0  0
 54123  1  0  0  0
 55 57  1  0  0  0
 55124  1  0  0  0
 56 69  2  0  0  0
 57 58  2  0  0  0
 57125  1  0  0  0
 58126  1  0  0  0
 59 60  1  0  0  0
 59 61  1  0  0  0
 59 62  1  0  0  0
 60127  1  0  0  0
 60128  1  0  0  0
 60129  1  0  0  0
 61130  1  0  0  0
 61131  1  0  0  0
 61132  1  0  0  0
 62133  1  0  0  0
 62134  1  0  0  0
 62135  1  0  0  0
 63 65  1  0  0  0
 63136  1  0  0  0
 63137  1  0  0  0
 63138  1  0  0  0
 64139  1  0  0  0
 65140  1  0  0  0
 68 77  1  0  0  0
 71 72  2  0  0  0
 71 74  1  0  0  0
 71141  1  0  0  0
 72 75  1  0  0  0
 72142  1  0  0  0
 73 74  2  0  0  0
 73 76  1  0  0  0
 73143  1  0  0  0
 74 79  1  0  0  0
 75 76  2  0  0  0
 75 80  1  0  0  0
 76 81  1  0  0  0
 77 78  1  0  0  0
 77144  1  0  0  0
 77145  1  0  0  0
 78 80  1  0  0  0
 78146  1  0  0  0
 78147  1  0  0  0
 79148  1  0  0  0
M  ISO  4   1 100  68 101  77 101  79 100
M  END
> <chiral flag>
0

> <version>
0

> <s_m_source_file>
/data/baiqing/PycharmProjects/Reinvent-master-3.2/result/LINK_invent/BTK/process_docking_weight1_custom_product_contain_oxygen_bond_distance_aromatic_linkinvent_7_9_3/rearranged_h_0007.sdf

> <i_m_source_file_index>
78

> <r_mmod_Potential_Energy-OPLS-2005>
491.091247558594

> <r_mmod_Stretch_Energy-OPLS-2005>
216.953765869141

> <r_mmod_Bend_Energy-OPLS-2005>
302.484619140625

> <r_mmod_Torsional_Energy-OPLS-2005>
212.021713256836

> <r_mmod_Improper_Torsional_Energy-OPLS-2005>
4.76716709136963

> <r_mmod_Van_der_Waal_Energy-OPLS-2005>
130.573699951172

> <r_mmod_Electrostatic_Energy-OPLS-2005>
-337.487060546875

> <r_mmod_Solvation_Energy-OPLS-2005>
-212.451721191406

> <b_mmod_Minimization_Converged-OPLS-2005>
0

> <r_mmod_RMS_Derivative-OPLS-2005>
0.366873770952225

$$$$
78
                    3D
 Structure written by MMmdl.
156164  0  0  1  0            999 V2000
  -30.5892  -14.6714   20.5010 C   0  0  0  0  0  0
  -30.4463  -12.4160   19.4441 C   0  0  0  0  0  0
  -29.5056  -12.5172   18.2211 C   0  0  0  0  0  0
  -28.0296  -12.3486   18.6357 C   0  0  0  0  0  0
  -27.6558  -13.2128   19.8681 C   0  0  2  0  0  0
  -28.7025  -13.0570   20.9947 C   0  0  0  0  0  0
  -25.2540  -13.8118   20.5551 C   0  0  0  0  0  0
  -24.1834  -13.0415   20.9194 C   0  0  0  0  0  0
  -24.6418  -11.6889   20.8793 C   0  0  0  0  0  0
  -23.9070  -10.4280   21.0450 C   0  0  0  0  0  0
  -24.3623   -9.4193   21.9217 C   0  0  0  0  0  0
  -23.6296   -8.2231   22.0763 C   0  0  0  0  0  0
  -22.4277   -8.0290   21.3549 C   0  0  0  0  0  0
  -21.9928   -9.0265   20.4649 C   0  0  0  0  0  0
  -22.7251  -10.2139   20.3081 C   0  0  0  0  0  0
  -21.6838   -6.0749   22.5284 C   0  0  0  0  0  0
  -21.4000   -6.5647   23.8220 C   0  0  0  0  0  0
  -21.3663   -5.6796   24.9177 C   0  0  0  0  0  0
  -21.6050   -4.3061   24.7220 C   0  0  0  0  0  0
  -21.8815   -3.8158   23.4333 C   0  0  0  0  0  0
  -21.9190   -4.6980   22.3394 C   0  0  0  0  0  0
  -22.7858  -13.5229   21.1851 C   0  0  0  0  0  0
  -22.1663   -4.2170   21.0969 F   0  0  0  0  0  0
  -21.5643   -3.4548   25.7730 F   0  0  0  0  0  0
  -30.0161  -13.4250   20.4331 N   0  0  0  0  0  0
  -26.3005  -12.9309   20.3345 N   0  0  0  0  0  0
  -25.9350  -11.6473   20.5828 N   0  0  0  0  0  0
  -22.0480  -12.8243   22.0416 N   0  0  0  0  0  0
  -25.4162  -15.1787   20.3590 N   0  0  0  0  0  0
  -31.7315  -14.8786   20.0789 O   0  0  0  0  0  0
  -21.6634   -6.8887   21.4242 O   0  0  0  0  0  0
  -22.3564  -14.5548   20.6689 O   0  0  0  0  0  0
  -24.6258  -31.8573   23.1969 C   0  0  0  0  0  0
  -25.9115  -32.4749   23.8311 C   0  0  1  0  0  0
  -27.2346  -27.3077   20.1395 C   0  0  0  0  0  0
  -25.5963  -33.8545   24.2266 N   0  0  0  0  0  0
  -23.4232  -30.4731   21.5373 C   0  0  2  0  0  0
  -24.8726  -28.9151   20.1179 C   0  0  0  0  0  0
  -22.7501  -29.4573   22.4905 C   0  0  0  0  0  0
  -18.0283  -28.1371   22.8438 C   0  0  0  0  0  0
  -24.1498  -36.7262   23.2647 C   0  0  0  0  0  0
  -25.9602  -30.7853   21.3647 C   0  0  0  0  0  0
  -26.0391  -29.4079   20.7164 C   0  0  0  0  0  0
  -27.2250  -28.6190   20.7075 C   0  0  0  0  0  0
  -26.0490  -26.8551   19.5288 C   0  0  0  0  0  0
  -24.8794  -27.6451   19.5149 C   0  0  0  0  0  0
  -23.6428  -29.7991   20.1558 C   0  0  0  0  0  0
  -25.4115  -36.3060   24.0350 C   0  0  1  0  0  0
  -20.5890  -28.3673   23.1270 C   0  0  2  0  0  0
  -20.6781  -26.9398   22.5395 C   0  0  0  0  0  0
  -19.5762  -26.6381   21.5184 C   0  0  0  0  0  0
  -18.1931  -26.7901   22.1589 C   0  0  0  0  0  0
  -19.1539  -28.8833   23.2842 C   0  0  0  0  0  0
  -18.9466  -30.1427   23.8878 C   0  0  0  0  0  0
  -17.6477  -30.6569   24.0539 C   0  0  0  0  0  0
  -25.9066  -34.9432   23.5098 C   0  0  0  0  0  0
  -16.5359  -29.9059   23.6328 C   0  0  0  0  0  0
  -16.7274  -28.6488   23.0315 C   0  0  0  0  0  0
  -26.4505  -31.6552   25.0668 C   0  0  0  0  0  0
  -25.3766  -31.3715   26.1423 C   0  0  0  0  0  0
  -27.0345  -30.2988   24.6084 C   0  0  0  0  0  0
  -27.6063  -32.4300   25.7441 C   0  0  0  0  0  0
  -27.5576  -37.1781   24.8472 C   0  0  0  0  0  0
  -21.4212  -29.3013   22.3683 N   0  0  0  0  0  0
  -26.4280  -37.3746   23.9427 N   0  0  0  0  0  0
  -24.6878  -31.0565   22.0912 N   0  0  0  0  0  0
  -23.4242  -28.8129   23.2979 O   0  0  0  0  0  0
  -28.3816  -26.5052   20.1117 O   0  0  0  0  0  0
  -26.5587  -34.8897   22.4638 O   0  0  0  0  0  0
  -23.5427  -32.1363   23.7308 O   0  0  0  0  0  0
  -30.1609  -19.4431   20.0617 C   0  0  0  0  0  0
  -30.4100  -18.0216   20.0717 C   0  0  0  0  0  0
  -28.4155  -19.1318   21.6730 C   0  0  0  0  0  0
  -29.1375  -20.0411   20.8602 C   0  0  0  0  0  0
  -28.6695  -17.7339   21.7097 C   0  0  0  0  0  0
  -29.6665  -17.1254   20.8989 C   0  0  0  0  0  0
  -27.8534  -16.8826   22.6727 C   0  0  0  0  0  0
  -28.7639  -21.5819   20.9979 C   0  0  0  0  0  0
  -28.2641  -23.8608   19.7408 C   0  0  0  0  0  0
  -28.3821  -25.1363   20.6931 C   0  0  0  0  0  0
  -29.7588  -15.6593   20.9644 N   0  0  0  0  0  0
  -29.1397  -22.6165   19.9614 N   0  3  0  0  0  0
  -31.4825  -12.5641   19.1358 H   0  0  0  0  0  0
  -30.4054  -11.4181   19.8827 H   0  0  0  0  0  0
  -29.7702  -11.7615   17.4812 H   0  0  0  0  0  0
  -29.6360  -13.4828   17.7314 H   0  0  0  0  0  0
  -27.8658  -11.2930   18.8596 H   0  0  0  0  0  0
  -27.3730  -12.5860   17.7983 H   0  0  0  0  0  0
  -27.6758  -14.2504   19.5361 H   0  0  0  0  0  0
  -28.7270  -12.0286   21.3585 H   0  0  0  0  0  0
  -28.4346  -13.6637   21.8614 H   0  0  0  0  0  0
  -25.2761   -9.5665   22.4810 H   0  0  0  0  0  0
  -24.0005   -7.4614   22.7479 H   0  0  0  0  0  0
  -21.0868   -8.8786   19.8939 H   0  0  0  0  0  0
  -22.3722  -10.9698   19.6209 H   0  0  0  0  0  0
  -21.1972   -7.6157   23.9729 H   0  0  0  0  0  0
  -21.1498   -6.0522   25.9082 H   0  0  0  0  0  0
  -22.0585   -2.7627   23.2816 H   0  0  0  0  0  0
  -22.4044  -11.9881   22.4806 H   0  0  0  0  0  0
  -21.1129  -13.1346   22.2640 H   0  0  0  0  0  0
  -24.5935  -15.7698   20.3046 H   0  0  0  0  0  0
  -26.1970  -15.5484   19.8316 H   0  0  0  0  0  0
  -26.7172  -32.5442   23.1052 H   0  0  0  0  0  0
  -25.0223  -33.9679   25.0492 H   0  0  0  0  0  0
  -22.7148  -31.2902   21.3844 H   0  0  0  0  0  0
  -23.3767  -35.9586   23.3296 H   0  0  0  0  0  0
  -24.3604  -36.8876   22.2063 H   0  0  0  0  0  0
  -23.7245  -37.6461   23.6662 H   0  0  0  0  0  0
  -26.0869  -31.5422   20.5910 H   0  0  0  0  0  0
  -26.8450  -30.8443   21.9886 H   0  0  0  0  0  0
  -28.1295  -28.9985   21.1600 H   0  0  0  0  0  0
  -26.0241  -25.8851   19.0516 H   0  0  0  0  0  0
  -23.9884  -27.2597   19.0420 H   0  0  0  0  0  0
  -23.7703  -30.5691   19.3949 H   0  0  0  0  0  0
  -22.7634  -29.2299   19.8519 H   0  0  0  0  0  0
  -25.1286  -36.1902   25.0838 H   0  0  0  0  0  0
  -20.9946  -28.3222   24.1403 H   0  0  0  0  0  0
  -20.5684  -26.2257   23.3584 H   0  0  0  0  0  0
  -21.6645  -26.7417   22.1186 H   0  0  0  0  0  0
  -19.6941  -25.6300   21.1197 H   0  0  0  0  0  0
  -19.6725  -27.3197   20.6725 H   0  0  0  0  0  0
  -17.4210  -26.6643   21.3985 H   0  0  0  0  0  0
  -18.0316  -26.0043   22.8992 H   0  0  0  0  0  0
  -19.7956  -30.7207   24.2276 H   0  0  0  0  0  0
  -17.5037  -31.6252   24.5125 H   0  0  0  0  0  0
  -15.5358  -30.2948   23.7674 H   0  0  0  0  0  0
  -15.8671  -28.0818   22.7028 H   0  0  0  0  0  0
  -24.5924  -30.7074   25.7786 H   0  0  0  0  0  0
  -24.8981  -32.2893   26.4866 H   0  0  0  0  0  0
  -25.8107  -30.8907   27.0202 H   0  0  0  0  0  0
  -26.2873  -29.6737   24.1174 H   0  0  0  0  0  0
  -27.4149  -29.7248   25.4544 H   0  0  0  0  0  0
  -27.8710  -30.4299   23.9210 H   0  0  0  0  0  0
  -27.2698  -33.3638   26.1947 H   0  0  0  0  0  0
  -28.3916  -32.6795   25.0305 H   0  0  0  0  0  0
  -28.0678  -31.8483   26.5422 H   0  0  0  0  0  0
  -28.2567  -38.0090   24.7498 H   0  0  0  0  0  0
  -28.1093  -36.2618   24.6321 H   0  0  0  0  0  0
  -27.2295  -37.1444   25.8870 H   0  0  0  0  0  0
  -20.9404  -29.8764   21.6900 H   0  0  0  0  0  0
  -26.0170  -38.2826   24.1416 H   0  0  0  0  0  0
  -30.7772  -20.0657   19.4268 H   0  0  0  0  0  0
  -31.1801  -17.6267   19.4232 H   0  0  0  0  0  0
  -27.6423  -19.5309   22.3168 H   0  0  0  0  0  0
  -27.1715  -17.4898   23.2683 H   0  0  0  0  0  0
  -28.5114  -16.3552   23.3653 H   0  0  0  0  0  0
  -27.2542  -16.1477   22.1379 H   0  0  0  0  0  0
  -29.1475  -21.9259   21.9592 H   0  0  0  0  0  0
  -27.6776  -21.6172   21.0963 H   0  0  0  0  0  0
  -28.5123  -24.2076   18.7389 H   0  0  0  0  0  0
  -27.2211  -23.5547   19.6777 H   0  0  0  0  0  0
  -29.3235  -25.0572   21.2385 H   0  0  0  0  0  0
  -27.6181  -25.0736   21.4702 H   0  0  0  0  0  0
  -28.9413  -15.2493   21.3877 H   0  0  0  0  0  0
  -29.1220  -22.1208   19.0852 H   0  0  0  0  0  0
  -30.0980  -22.8942   20.1075 H   0  0  0  0  0  0
  1 25  1  0  0  0
  1 30  2  0  0  0
  1 81  1  0  0  0
  2  3  1  0  0  0
  2 25  1  0  0  0
  2 83  1  0  0  0
  2 84  1  0  0  0
  3  4  1  0  0  0
  3 85  1  0  0  0
  3 86  1  0  0  0
  4  5  1  0  0  0
  4 87  1  0  0  0
  4 88  1  0  0  0
  5  6  1  0  0  0
  5 26  1  0  0  0
  5 89  1  0  0  0
  6 25  1  0  0  0
  6 90  1  0  0  0
  6 91  1  0  0  0
  7  8  2  0  0  0
  7 26  1  0  0  0
  7 29  1  0  0  0
  8  9  1  0  0  0
  8 22  1  0  0  0
  9 10  1  0  0  0
  9 27  2  0  0  0
 10 11  2  0  0  0
 10 15  1  0  0  0
 11 12  1  0  0  0
 11 92  1  0  0  0
 12 13  2  0  0  0
 12 93  1  0  0  0
 13 14  1  0  0  0
 13 31  1  0  0  0
 14 15  2  0  0  0
 14 94  1  0  0  0
 15 95  1  0  0  0
 16 17  2  0  0  0
 16 21  1  0  0  0
 16 31  1  0  0  0
 17 18  1  0  0  0
 17 96  1  0  0  0
 18 19  2  0  0  0
 18 97  1  0  0  0
 19 20  1  0  0  0
 19 24  1  0  0  0
 20 21  2  0  0  0
 20 98  1  0  0  0
 21 23  1  0  0  0
 22 28  1  0  0  0
 22 32  2  0  0  0
 26 27  1  0  0  0
 28 99  1  0  0  0
 28100  1  0  0  0
 29101  1  0  0  0
 29102  1  0  0  0
 33 34  1  0  0  0
 33 66  1  0  0  0
 33 70  2  0  0  0
 34 36  1  0  0  0
 34 59  1  0  0  0
 34103  1  0  0  0
 35 44  2  0  0  0
 35 45  1  0  0  0
 35 68  1  0  0  0
 36 56  1  0  0  0
 36104  1  0  0  0
 37 39  1  0  0  0
 37 47  1  0  0  0
 37 66  1  0  0  0
 37105  1  0  0  0
 38 43  2  0  0  0
 38 46  1  0  0  0
 38 47  1  0  0  0
 39 64  1  0  0  0
 39 67  2  0  0  0
 40 52  1  0  0  0
 40 53  2  0  0  0
 40 58  1  0  0  0
 41106  1  0  0  0
 41107  1  0  0  0
 41108  1  0  0  0
 41 48  1  0  0  0
 42 43  1  0  0  0
 42 66  1  0  0  0
 42109  1  0  0  0
 42110  1  0  0  0
 43 44  1  0  0  0
 44111  1  0  0  0
 45 46  2  0  0  0
 45112  1  0  0  0
 46113  1  0  0  0
 47114  1  0  0  0
 47115  1  0  0  0
 48 56  1  0  0  0
 48 65  1  0  0  0
 48116  1  0  0  0
 49 50  1  0  0  0
 49 53  1  0  0  0
 49 64  1  0  0  0
 49117  1  0  0  0
 50 51  1  0  0  0
 50118  1  0  0  0
 50119  1  0  0  0
 51 52  1  0  0  0
 51120  1  0  0  0
 51121  1  0  0  0
 52122  1  0  0  0
 52123  1  0  0  0
 53 54  1  0  0  0
 54 55  2  0  0  0
 54124  1  0  0  0
 55 57  1  0  0  0
 55125  1  0  0  0
 56 69  2  0  0  0
 57 58  2  0  0  0
 57126  1  0  0  0
 58127  1  0  0  0
 59 60  1  0  0  0
 59 61  1  0  0  0
 59 62  1  0  0  0
 60128  1  0  0  0
 60129  1  0  0  0
 60130  1  0  0  0
 61131  1  0  0  0
 61132  1  0  0  0
 61133  1  0  0  0
 62134  1  0  0  0
 62135  1  0  0  0
 62136  1  0  0  0
 63 65  1  0  0  0
 63137  1  0  0  0
 63138  1  0  0  0
 63139  1  0  0  0
 64140  1  0  0  0
 65141  1  0  0  0
 68 80  1  0  0  0
 71 72  2  0  0  0
 71 74  1  0  0  0
 71142  1  0  0  0
 72 76  1  0  0  0
 72143  1  0  0  0
 73 74  2  0  0  0
 73 75  1  0  0  0
 73144  1  0  0  0
 74 78  1  0  0  0
 75 76  2  0  0  0
 75 77  1  0  0  0
 76 81  1  0  0  0
 77145  1  0  0  0
 77146  1  0  0  0
 77147  1  0  0  0
 78 82  1  0  0  0
 78148  1  0  0  0
 78149  1  0  0  0
 79 80  1  0  0  0
 79 82  1  0  0  0
 79150  1  0  0  0
 79151  1  0  0  0
 80152  1  0  0  0
 80153  1  0  0  0
 81154  1  0  0  0
 82155  1  0  0  0
 82156  1  0  0  0
M  CHG  1  82   1
M  ISO  4   1 100  68 101  80 101  81 100
M  END
> <chiral flag>
0

> <version>
0

> <s_m_source_file>
/data/baiqing/PycharmProjects/Reinvent-master-3.2/result/LINK_invent/BTK/process_docking_weight1_custom_product_contain_oxygen_bond_distance_aromatic_linkinvent_7_9_3/rearranged_h_0007.sdf

> <i_m_source_file_index>
79

> <r_mmod_Potential_Energy-OPLS-2005>
-63.4948577880859

> <r_mmod_Stretch_Energy-OPLS-2005>
87.6357421875

> <r_mmod_Bend_Energy-OPLS-2005>
181.61279296875

> <r_mmod_Torsional_Energy-OPLS-2005>
242.45768737793

> <r_mmod_Improper_Torsional_Energy-OPLS-2005>
5.52443790435791

> <r_mmod_Van_der_Waal_Energy-OPLS-2005>
132.169204711914

> <r_mmod_Electrostatic_Energy-OPLS-2005>
-308.470275878906

> <r_mmod_Solvation_Energy-OPLS-2005>
-457.786987304688

> <b_mmod_Minimization_Converged-OPLS-2005>
0

> <r_mmod_RMS_Derivative-OPLS-2005>
3.30931782722473

$$$$
79
                    3D
 Structure written by MMmdl.
160169  0  0  1  0            999 V2000
  -30.6726  -14.6415   20.5304 C   0  0  0  0  0  0
  -30.4265  -12.4159   19.4448 C   0  0  0  0  0  0
  -29.4977  -12.5231   18.2168 C   0  0  0  0  0  0
  -28.0211  -12.3584   18.6314 C   0  0  0  0  0  0
  -27.6483  -13.2193   19.8703 C   0  0  2  0  0  0
  -28.7017  -13.0463   20.9863 C   0  0  0  0  0  0
  -25.2533  -13.8170   20.5697 C   0  0  0  0  0  0
  -24.1807  -13.0447   20.9192 C   0  0  0  0  0  0
  -24.6374  -11.6913   20.8740 C   0  0  0  0  0  0
  -23.9049  -10.4298   21.0401 C   0  0  0  0  0  0
  -24.3612   -9.4217   21.9178 C   0  0  0  0  0  0
  -23.6296   -8.2249   22.0746 C   0  0  0  0  0  0
  -22.4274   -8.0285   21.3542 C   0  0  0  0  0  0
  -21.9897   -9.0256   20.4650 C   0  0  0  0  0  0
  -22.7220  -10.2142   20.3059 C   0  0  0  0  0  0
  -21.6862   -6.0737   22.5275 C   0  0  0  0  0  0
  -21.4021   -6.5635   23.8207 C   0  0  0  0  0  0
  -21.3661   -5.6788   24.9167 C   0  0  0  0  0  0
  -21.6050   -4.3051   24.7215 C   0  0  0  0  0  0
  -21.8824   -3.8147   23.4336 C   0  0  0  0  0  0
  -21.9197   -4.6967   22.3396 C   0  0  0  0  0  0
  -22.7835  -13.5244   21.1848 C   0  0  0  0  0  0
  -22.1658   -4.2158   21.0970 F   0  0  0  0  0  0
  -21.5631   -3.4531   25.7726 F   0  0  0  0  0  0
  -29.9906  -13.4509   20.4112 N   0  0  0  0  0  0
  -26.2968  -12.9357   20.3383 N   0  0  0  0  0  0
  -25.9308  -11.6505   20.5784 N   0  0  0  0  0  0
  -22.0480  -12.8246   22.0413 N   0  0  0  0  0  0
  -25.4256  -15.1890   20.4076 N   0  0  0  0  0  0
  -31.8611  -14.6708   20.1938 O   0  0  0  0  0  0
  -21.6647   -6.8879   21.4236 O   0  0  0  0  0  0
  -22.3532  -14.5555   20.6696 O   0  0  0  0  0  0
  -24.6237  -31.8621   23.2057 C   0  0  0  0  0  0
  -25.9104  -32.4781   23.8361 C   0  0  1  0  0  0
  -27.2054  -27.3278   20.0945 C   0  0  0  0  0  0
  -25.5938  -33.8582   24.2290 N   0  0  0  0  0  0
  -23.4137  -30.4923   21.5484 C   0  0  2  0  0  0
  -24.8550  -28.9567   20.1061 C   0  0  0  0  0  0
  -22.7445  -29.4648   22.4922 C   0  0  0  0  0  0
  -18.0289  -28.1372   22.8487 C   0  0  0  0  0  0
  -24.1496  -36.7294   23.2631 C   0  0  0  0  0  0
  -25.9572  -30.7921   21.3797 C   0  0  0  0  0  0
  -26.0265  -29.4236   20.7159 C   0  0  0  0  0  0
  -27.2041  -28.6182   20.7074 C   0  0  0  0  0  0
  -26.0100  -26.9229   19.4532 C   0  0  0  0  0  0
  -24.8484  -27.7102   19.4683 C   0  0  0  0  0  0
  -23.6251  -29.8376   20.1600 C   0  0  0  0  0  0
  -25.4114  -36.3077   24.0329 C   0  0  1  0  0  0
  -20.5886  -28.3678   23.1289 C   0  0  2  0  0  0
  -20.6770  -26.9393   22.5428 C   0  0  0  0  0  0
  -19.5759  -26.6369   21.5215 C   0  0  0  0  0  0
  -18.1932  -26.7922   22.1606 C   0  0  0  0  0  0
  -19.1538  -28.8835   23.2893 C   0  0  0  0  0  0
  -18.9462  -30.1433   23.8917 C   0  0  0  0  0  0
  -17.6464  -30.6575   24.0560 C   0  0  0  0  0  0
  -25.9053  -34.9450   23.5103 C   0  0  0  0  0  0
  -16.5354  -29.9078   23.6315 C   0  0  0  0  0  0
  -16.7277  -28.6488   23.0351 C   0  0  0  0  0  0
  -26.4483  -31.6572   25.0717 C   0  0  0  0  0  0
  -25.3723  -31.3747   26.1456 C   0  0  0  0  0  0
  -27.0285  -30.2976   24.6172 C   0  0  0  0  0  0
  -27.6067  -32.4280   25.7469 C   0  0  0  0  0  0
  -27.5595  -37.1782   24.8449 C   0  0  0  0  0  0
  -21.4161  -29.3041   22.3672 N   0  0  0  0  0  0
  -26.4289  -37.3773   23.9420 N   0  0  0  0  0  0
  -24.6839  -31.0654   22.1004 N   0  0  0  0  0  0
  -23.4185  -28.8177   23.2982 O   0  0  0  0  0  0
  -28.3117  -26.4633   20.1394 O   0  0  0  0  0  0
  -26.5612  -34.8911   22.4664 O   0  0  0  0  0  0
  -23.5412  -32.1424   23.7401 O   0  0  0  0  0  0
  -28.5472  -20.1817   20.8941 C   0  0  0  0  0  0
  -28.3466  -17.6404   21.5013 C   0  0  0  0  0  0
  -30.1443  -20.8461   19.1290 C   0  0  0  0  0  0
  -29.0419  -16.2517   21.6771 C   0  0  0  0  0  0
  -30.8939  -19.4941   19.3701 C   0  0  0  0  0  0
  -30.6862  -17.0654   20.0255 C   0  0  0  0  0  0
  -29.2929  -18.8055   21.1217 C   0  0  1  0  0  0
  -29.3975  -21.3821   20.3764 C   0  0  1  0  0  0
  -28.0388  -25.0258   19.9177 C   0  0  0  0  0  0
  -29.1056  -23.9066   20.2508 C   0  0  0  0  0  0
  -29.9938  -15.8586   20.6036 N   0  0  0  0  0  0
  -30.0005  -18.4042   19.8818 N   0  3  1  0  0  0
  -27.3362  -20.3311   21.0914 O   0  0  0  0  0  0
  -28.5637  -22.5567   20.0858 O   0  0  0  0  0  0
  -31.4660  -12.5318   19.1344 H   0  0  0  0  0  0
  -30.3672  -11.4200   19.8880 H   0  0  0  0  0  0
  -29.7663  -11.7742   17.4700 H   0  0  0  0  0  0
  -29.6367  -13.4953   17.7403 H   0  0  0  0  0  0
  -27.8588  -11.3030   18.8541 H   0  0  0  0  0  0
  -27.3652  -12.5936   17.7921 H   0  0  0  0  0  0
  -27.6698  -14.2603   19.5469 H   0  0  0  0  0  0
  -28.7389  -11.9991   21.2904 H   0  0  0  0  0  0
  -28.4577  -13.5643   21.9081 H   0  0  0  0  0  0
  -25.2760   -9.5705   22.4746 H   0  0  0  0  0  0
  -24.0018   -7.4639   22.7452 H   0  0  0  0  0  0
  -21.0829   -8.8770   19.8960 H   0  0  0  0  0  0
  -22.3662  -10.9677   19.6174 H   0  0  0  0  0  0
  -21.2009   -7.6143   23.9713 H   0  0  0  0  0  0
  -21.1479   -6.0513   25.9069 H   0  0  0  0  0  0
  -22.0603   -2.7610   23.2832 H   0  0  0  0  0  0
  -22.4091  -11.9901   22.4787 H   0  0  0  0  0  0
  -21.1110  -13.1288   22.2632 H   0  0  0  0  0  0
  -24.6586  -15.8446   20.5122 H   0  0  0  0  0  0
  -26.2764  -15.6206   20.0739 H   0  0  0  0  0  0
  -26.7162  -32.5446   23.1097 H   0  0  0  0  0  0
  -25.0092  -33.9733   25.0438 H   0  0  0  0  0  0
  -22.7069  -31.3137   21.4124 H   0  0  0  0  0  0
  -23.3764  -35.9617   23.3250 H   0  0  0  0  0  0
  -24.3606  -36.8956   22.2055 H   0  0  0  0  0  0
  -23.7234  -37.6479   23.6676 H   0  0  0  0  0  0
  -26.0968  -31.5599   20.6176 H   0  0  0  0  0  0
  -26.8347  -30.8307   22.0130 H   0  0  0  0  0  0
  -28.0983  -28.9657   21.2057 H   0  0  0  0  0  0
  -25.9284  -25.9814   18.9325 H   0  0  0  0  0  0
  -23.9538  -27.3488   18.9798 H   0  0  0  0  0  0
  -23.7428  -30.6198   19.4089 H   0  0  0  0  0  0
  -22.7424  -29.2723   19.8550 H   0  0  0  0  0  0
  -25.1289  -36.1920   25.0820 H   0  0  0  0  0  0
  -21.0002  -28.3261   24.1400 H   0  0  0  0  0  0
  -20.5645  -26.2290   23.3634 H   0  0  0  0  0  0
  -21.6648  -26.7403   22.1245 H   0  0  0  0  0  0
  -19.6922  -25.6279   21.1245 H   0  0  0  0  0  0
  -19.6722  -27.3181   20.6751 H   0  0  0  0  0  0
  -17.4218  -26.6705   21.3985 H   0  0  0  0  0  0
  -18.0299  -26.0045   22.8977 H   0  0  0  0  0  0
  -19.7938  -30.7239   24.2306 H   0  0  0  0  0  0
  -17.5018  -31.6263   24.5151 H   0  0  0  0  0  0
  -15.5355  -30.2991   23.7619 H   0  0  0  0  0  0
  -15.8676  -28.0809   22.7066 H   0  0  0  0  0  0
  -24.5951  -30.7005   25.7833 H   0  0  0  0  0  0
  -24.8850  -32.2923   26.4765 H   0  0  0  0  0  0
  -25.8067  -30.9052   27.0292 H   0  0  0  0  0  0
  -26.2832  -29.6754   24.1200 H   0  0  0  0  0  0
  -27.3956  -29.7209   25.4672 H   0  0  0  0  0  0
  -27.8729  -30.4220   23.9392 H   0  0  0  0  0  0
  -27.2700  -33.3581   26.2055 H   0  0  0  0  0  0
  -28.3868  -32.6823   25.0282 H   0  0  0  0  0  0
  -28.0735  -31.8389   26.5373 H   0  0  0  0  0  0
  -28.2573  -38.0116   24.7531 H   0  0  0  0  0  0
  -28.1129  -36.2649   24.6205 H   0  0  0  0  0  0
  -27.2335  -37.1355   25.8857 H   0  0  0  0  0  0
  -20.9304  -29.8781   21.6920 H   0  0  0  0  0  0
  -26.0168  -38.2840   24.1456 H   0  0  0  0  0  0
  -27.8173  -17.8923   22.4226 H   0  0  0  0  0  0
  -27.5683  -17.5488   20.7415 H   0  0  0  0  0  0
  -29.4312  -20.7144   18.3129 H   0  0  0  0  0  0
  -30.8558  -21.5937   18.7787 H   0  0  0  0  0  0
  -28.2214  -15.5507   21.7666 H   0  0  0  0  0  0
  -29.5759  -16.2322   22.6297 H   0  0  0  0  0  0
  -31.7184  -19.6498   20.0684 H   0  0  0  0  0  0
  -31.3494  -19.1702   18.4332 H   0  0  0  0  0  0
  -31.0575  -16.8018   19.0325 H   0  0  0  0  0  0
  -31.5767  -17.2345   20.6358 H   0  0  0  0  0  0
  -30.0263  -18.9457   21.9162 H   0  0  0  0  0  0
  -30.1100  -21.6406   21.1606 H   0  0  0  0  0  0
  -27.1529  -24.7629   20.4984 H   0  0  0  0  0  0
  -27.7710  -24.8880   18.8695 H   0  0  0  0  0  0
  -29.4373  -24.0236   21.2828 H   0  0  0  0  0  0
  -29.9834  -24.0335   19.6165 H   0  0  0  0  0  0
  -29.2870  -18.2736   19.1806 H   0  0  0  0  0  0
  1 25  1  0  0  0
  1 30  2  0  0  0
  1 81  1  0  0  0
  2  3  1  0  0  0
  2 25  1  0  0  0
  2 85  1  0  0  0
  2 86  1  0  0  0
  3  4  1  0  0  0
  3 87  1  0  0  0
  3 88  1  0  0  0
  4  5  1  0  0  0
  4 89  1  0  0  0
  4 90  1  0  0  0
  5  6  1  0  0  0
  5 26  1  0  0  0
  5 91  1  0  0  0
  6 25  1  0  0  0
  6 92  1  0  0  0
  6 93  1  0  0  0
  7  8  2  0  0  0
  7 26  1  0  0  0
  7 29  1  0  0  0
  8  9  1  0  0  0
  8 22  1  0  0  0
  9 10  1  0  0  0
  9 27  2  0  0  0
 10 11  2  0  0  0
 10 15  1  0  0  0
 11 12  1  0  0  0
 11 94  1  0  0  0
 12 13  2  0  0  0
 12 95  1  0  0  0
 13 14  1  0  0  0
 13 31  1  0  0  0
 14 15  2  0  0  0
 14 96  1  0  0  0
 15 97  1  0  0  0
 16 17  2  0  0  0
 16 21  1  0  0  0
 16 31  1  0  0  0
 17 18  1  0  0  0
 17 98  1  0  0  0
 18 19  2  0  0  0
 18 99  1  0  0  0
 19 20  1  0  0  0
 19 24  1  0  0  0
 20 21  2  0  0  0
 20100  1  0  0  0
 21 23  1  0  0  0
 22 28  1  0  0  0
 22 32  2  0  0  0
 26 27  1  0  0  0
 28101  1  0  0  0
 28102  1  0  0  0
 29103  1  0  0  0
 29104  1  0  0  0
 33 34  1  0  0  0
 33 66  1  0  0  0
 33 70  2  0  0  0
 34 36  1  0  0  0
 34 59  1  0  0  0
 34105  1  0  0  0
 35 44  2  0  0  0
 35 45  1  0  0  0
 35 68  1  0  0  0
 36 56  1  0  0  0
 36106  1  0  0  0
 37 39  1  0  0  0
 37 47  1  0  0  0
 37 66  1  0  0  0
 37107  1  0  0  0
 38 43  2  0  0  0
 38 46  1  0  0  0
 38 47  1  0  0  0
 39 64  1  0  0  0
 39 67  2  0  0  0
 40 52  1  0  0  0
 40 53  2  0  0  0
 40 58  1  0  0  0
 41108  1  0  0  0
 41109  1  0  0  0
 41110  1  0  0  0
 41 48  1  0  0  0
 42 43  1  0  0  0
 42 66  1  0  0  0
 42111  1  0  0  0
 42112  1  0  0  0
 43 44  1  0  0  0
 44113  1  0  0  0
 45 46  2  0  0  0
 45114  1  0  0  0
 46115  1  0  0  0
 47116  1  0  0  0
 47117  1  0  0  0
 48 56  1  0  0  0
 48 65  1  0  0  0
 48118  1  0  0  0
 49 50  1  0  0  0
 49 53  1  0  0  0
 49 64  1  0  0  0
 49119  1  0  0  0
 50 51  1  0  0  0
 50120  1  0  0  0
 50121  1  0  0  0
 51 52  1  0  0  0
 51122  1  0  0  0
 51123  1  0  0  0
 52124  1  0  0  0
 52125  1  0  0  0
 53 54  1  0  0  0
 54 55  2  0  0  0
 54126  1  0  0  0
 55 57  1  0  0  0
 55127  1  0  0  0
 56 69  2  0  0  0
 57 58  2  0  0  0
 57128  1  0  0  0
 58129  1  0  0  0
 59 60  1  0  0  0
 59 61  1  0  0  0
 59 62  1  0  0  0
 60130  1  0  0  0
 60131  1  0  0  0
 60132  1  0  0  0
 61133  1  0  0  0
 61134  1  0  0  0
 61135  1  0  0  0
 62136  1  0  0  0
 62137  1  0  0  0
 62138  1  0  0  0
 63 65  1  0  0  0
 63139  1  0  0  0
 63140  1  0  0  0
 63141  1  0  0  0
 64142  1  0  0  0
 65143  1  0  0  0
 68 79  1  0  0  0
 71 77  1  0  0  0
 71 78  1  0  0  0
 71 83  2  0  0  0
 72 74  1  0  0  0
 72144  1  0  0  0
 72145  1  0  0  0
 72 77  1  0  0  0
 73 75  1  0  0  0
 73 78  1  0  0  0
 73146  1  0  0  0
 73147  1  0  0  0
 74 81  1  0  0  0
 74148  1  0  0  0
 74149  1  0  0  0
 75150  1  0  0  0
 75151  1  0  0  0
 75 82  1  0  0  0
 76 81  1  0  0  0
 76 82  1  0  0  0
 76152  1  0  0  0
 76153  1  0  0  0
 77 82  1  0  0  0
 77154  1  0  0  0
 78 84  1  0  0  0
 78155  1  0  0  0
 79 80  1  0  0  0
 79156  1  0  0  0
 79157  1  0  0  0
 80 84  1  0  0  0
 80158  1  0  0  0
 80159  1  0  0  0
 82160  1  0  0  0
M  CHG  1  82   1
M  ISO  4   1 100  68 101  79 101  81 100
M  END
> <chiral flag>
0

> <version>
0

> <s_m_source_file>
/data/baiqing/PycharmProjects/Reinvent-master-3.2/result/LINK_invent/BTK/process_docking_weight1_custom_product_contain_oxygen_bond_distance_aromatic_linkinvent_7_9_3/rearranged_h_0007.sdf

> <i_m_source_file_index>
80

> <r_mmod_Potential_Energy-OPLS-2005>
45.1079750061035

> <r_mmod_Stretch_Energy-OPLS-2005>
84.0576095581055

> <r_mmod_Bend_Energy-OPLS-2005>
154.366500854492

> <r_mmod_Torsional_Energy-OPLS-2005>
292.859954833984

> <r_mmod_Improper_Torsional_Energy-OPLS-2005>
14.2691831588745

> <r_mmod_Van_der_Waal_Energy-OPLS-2005>
151.630584716797

> <r_mmod_Electrostatic_Energy-OPLS-2005>
-221.843887329102

> <r_mmod_Solvation_Energy-OPLS-2005>
-479.421752929688

> <b_mmod_Minimization_Converged-OPLS-2005>
0

> <r_mmod_RMS_Derivative-OPLS-2005>
1.7985907793045

$$$$
80
                    3D
 Structure written by MMmdl.
157166  0  0  1  0            999 V2000
  -30.5808  -15.0383   20.4205 C   0  0  0  0  0  0
  -30.4278  -12.6509   19.5285 C   0  0  0  0  0  0
  -29.5294  -12.5462   18.2765 C   0  0  0  0  0  0
  -28.0682  -12.3180   18.6942 C   0  0  0  0  0  0
  -27.6260  -13.2706   19.8370 C   0  0  2  0  0  0
  -28.6628  -13.3714   20.9792 C   0  0  0  0  0  0
  -25.2450  -13.8266   20.5789 C   0  0  0  0  0  0
  -24.1771  -13.0465   20.9265 C   0  0  0  0  0  0
  -24.6417  -11.6961   20.8762 C   0  0  0  0  0  0
  -23.9103  -10.4318   21.0398 C   0  0  0  0  0  0
  -24.3661   -9.4230   21.9173 C   0  0  0  0  0  0
  -23.6338   -8.2254   22.0755 C   0  0  0  0  0  0
  -22.4317   -8.0283   21.3534 C   0  0  0  0  0  0
  -21.9954   -9.0262   20.4644 C   0  0  0  0  0  0
  -22.7274  -10.2144   20.3052 C   0  0  0  0  0  0
  -21.6869   -6.0740   22.5272 C   0  0  0  0  0  0
  -21.4018   -6.5645   23.8205 C   0  0  0  0  0  0
  -21.3671   -5.6792   24.9158 C   0  0  0  0  0  0
  -21.6046   -4.3050   24.7207 C   0  0  0  0  0  0
  -21.8821   -3.8147   23.4328 C   0  0  0  0  0  0
  -21.9210   -4.6969   22.3387 C   0  0  0  0  0  0
  -22.7777  -13.5218   21.1877 C   0  0  0  0  0  0
  -22.1664   -4.2157   21.0962 F   0  0  0  0  0  0
  -21.5650   -3.4531   25.7722 F   0  0  0  0  0  0
  -29.9354  -13.7899   20.3759 N   0  0  0  0  0  0
  -26.2881  -12.9547   20.3276 N   0  0  0  0  0  0
  -25.9363  -11.6657   20.5767 N   0  0  0  0  0  0
  -22.0405  -12.8224   22.0433 N   0  0  0  0  0  0
  -25.4162  -15.2002   20.4291 N   0  0  0  0  0  0
  -31.7687  -15.0123   20.0679 O   0  0  0  0  0  0
  -21.6666   -6.8884   21.4233 O   0  0  0  0  0  0
  -22.3466  -14.5497   20.6678 O   0  0  0  0  0  0
  -24.6505  -31.8341   23.1803 C   0  0  0  0  0  0
  -25.9249  -32.4639   23.8231 C   0  0  1  0  0  0
  -27.2258  -27.0608   20.1737 C   0  0  0  0  0  0
  -25.5973  -33.8459   24.2147 N   0  0  0  0  0  0
  -23.4593  -30.4477   21.5247 C   0  0  2  0  0  0
  -24.9080  -28.8523   20.1092 C   0  0  0  0  0  0
  -22.7610  -29.4498   22.4838 C   0  0  0  0  0  0
  -18.0324  -28.1392   22.8481 C   0  0  0  0  0  0
  -24.1489  -36.7238   23.2657 C   0  0  0  0  0  0
  -26.0170  -30.6841   21.3878 C   0  0  0  0  0  0
  -26.0831  -29.2867   20.7315 C   0  0  0  0  0  0
  -27.2357  -28.4073   20.7435 C   0  0  0  0  0  0
  -26.0276  -26.7390   19.5031 C   0  0  0  0  0  0
  -24.8969  -27.5951   19.4778 C   0  0  0  0  0  0
  -23.6880  -29.7637   20.1475 C   0  0  0  0  0  0
  -25.4114  -36.2995   24.0318 C   0  0  1  0  0  0
  -20.5937  -28.3724   23.1223 C   0  0  2  0  0  0
  -20.6785  -26.9416   22.5412 C   0  0  0  0  0  0
  -19.5750  -26.6367   21.5233 C   0  0  0  0  0  0
  -18.1932  -26.7926   22.1630 C   0  0  0  0  0  0
  -19.1580  -28.8874   23.2838 C   0  0  0  0  0  0
  -18.9496  -30.1477   23.8848 C   0  0  0  0  0  0
  -17.6482  -30.6577   24.0560 C   0  0  0  0  0  0
  -25.9077  -34.9375   23.5032 C   0  0  0  0  0  0
  -16.5379  -29.9059   23.6347 C   0  0  0  0  0  0
  -16.7302  -28.6490   23.0350 C   0  0  0  0  0  0
  -26.4531  -31.6560   25.0732 C   0  0  0  0  0  0
  -25.3706  -31.3786   26.1438 C   0  0  0  0  0  0
  -27.0443  -30.2952   24.6403 C   0  0  0  0  0  0
  -27.6021  -32.4390   25.7506 C   0  0  0  0  0  0
  -27.5562  -37.1764   24.8463 C   0  0  0  0  0  0
  -21.4297  -29.3037   22.3592 N   0  0  0  0  0  0
  -26.4261  -37.3726   23.9419 N   0  0  0  0  0  0
  -24.7295  -31.0119   22.0854 N   0  0  0  0  0  0
  -23.4206  -28.8081   23.3052 O   0  0  0  0  0  0
  -28.2947  -26.0804   20.3053 O   0  0  0  0  0  0
  -26.5675  -34.8896   22.4626 O   0  0  0  0  0  0
  -23.5606  -32.1263   23.6962 O   0  0  0  0  0  0
  -31.1288  -18.5702   21.6839 C   0  0  0  0  0  0
  -30.7546  -17.0374   21.8943 C   0  0  0  0  0  0
  -29.3743  -17.4760   19.9392 C   0  0  0  0  0  0
  -30.0789  -21.1078   21.3516 C   0  0  0  0  0  0
  -28.4186  -20.3694   19.8596 C   0  0  0  0  0  0
  -29.9056  -19.5310   21.6186 C   0  0  1  0  0  0
  -28.9058  -18.9654   20.6034 C   0  0  2  0  0  0
  -28.2264  -23.1216   20.8321 C   0  0  0  0  0  0
  -28.3908  -24.5425   19.8876 C   0  0  0  0  0  0
  -29.9972  -16.3138   20.8115 N   0  0  0  0  0  0
  -28.8095  -21.5989   20.7168 N   0  3  2  0  0  0
  -31.4665  -12.7784   19.2190 H   0  0  0  0  0  0
  -30.4096  -11.7184   20.0936 H   0  0  0  0  0  0
  -29.8734  -11.7304   17.6399 H   0  0  0  0  0  0
  -29.6072  -13.4580   17.6811 H   0  0  0  0  0  0
  -27.9873  -11.2844   19.0295 H   0  0  0  0  0  0
  -27.4048  -12.4099   17.8327 H   0  0  0  0  0  0
  -27.5686  -14.2585   19.3787 H   0  0  0  0  0  0
  -28.7703  -12.4220   21.5052 H   0  0  0  0  0  0
  -28.3416  -14.1080   21.7186 H   0  0  0  0  0  0
  -25.2803   -9.5710   22.4746 H   0  0  0  0  0  0
  -24.0049   -7.4663   22.7495 H   0  0  0  0  0  0
  -21.0876   -8.8771   19.8979 H   0  0  0  0  0  0
  -22.3716  -10.9677   19.6158 H   0  0  0  0  0  0
  -21.1985   -7.6151   23.9699 H   0  0  0  0  0  0
  -21.1502   -6.0519   25.9061 H   0  0  0  0  0  0
  -22.0599   -2.7616   23.2814 H   0  0  0  0  0  0
  -22.4047  -11.9949   22.4910 H   0  0  0  0  0  0
  -21.0992  -13.1208   22.2553 H   0  0  0  0  0  0
  -24.6610  -15.8621   20.5695 H   0  0  0  0  0  0
  -26.2857  -15.6367   20.1510 H   0  0  0  0  0  0
  -26.7320  -32.5193   23.0954 H   0  0  0  0  0  0
  -25.0112  -33.9564   25.0287 H   0  0  0  0  0  0
  -22.7679  -31.2755   21.3602 H   0  0  0  0  0  0
  -23.3751  -35.9568   23.3282 H   0  0  0  0  0  0
  -24.3588  -36.8911   22.2081 H   0  0  0  0  0  0
  -23.7230  -37.6416   23.6722 H   0  0  0  0  0  0
  -26.1872  -31.4322   20.6123 H   0  0  0  0  0  0
  -26.8812  -30.7300   22.0390 H   0  0  0  0  0  0
  -28.1278  -28.7366   21.2552 H   0  0  0  0  0  0
  -25.9320  -25.7735   19.0295 H   0  0  0  0  0  0
  -23.9985  -27.2535   18.9819 H   0  0  0  0  0  0
  -23.8290  -30.5307   19.3858 H   0  0  0  0  0  0
  -22.8004  -29.2088   19.8398 H   0  0  0  0  0  0
  -25.1298  -36.1796   25.0805 H   0  0  0  0  0  0
  -21.0045  -28.3305   24.1342 H   0  0  0  0  0  0
  -20.5666  -26.2351   23.3651 H   0  0  0  0  0  0
  -21.6641  -26.7381   22.1219 H   0  0  0  0  0  0
  -19.6897  -25.6273   21.1271 H   0  0  0  0  0  0
  -19.6662  -27.3163   20.6752 H   0  0  0  0  0  0
  -17.4211  -26.6720   21.4019 H   0  0  0  0  0  0
  -18.0281  -26.0068   22.9016 H   0  0  0  0  0  0
  -19.7970  -30.7327   24.2166 H   0  0  0  0  0  0
  -17.5027  -31.6251   24.5171 H   0  0  0  0  0  0
  -15.5363  -30.2928   23.7706 H   0  0  0  0  0  0
  -15.8721  -28.0800   22.7054 H   0  0  0  0  0  0
  -24.5812  -30.7228   25.7758 H   0  0  0  0  0  0
  -24.9005  -32.3002   26.4882 H   0  0  0  0  0  0
  -25.7976  -30.8911   27.0214 H   0  0  0  0  0  0
  -26.3118  -29.6634   24.1387 H   0  0  0  0  0  0
  -27.3998  -29.7301   25.5026 H   0  0  0  0  0  0
  -27.9024  -30.4186   23.9798 H   0  0  0  0  0  0
  -27.2547  -33.3681   26.2036 H   0  0  0  0  0  0
  -28.3822  -32.6996   25.0344 H   0  0  0  0  0  0
  -28.0717  -31.8598   26.5463 H   0  0  0  0  0  0
  -28.2551  -38.0091   24.7532 H   0  0  0  0  0  0
  -28.1076  -36.2617   24.6224 H   0  0  0  0  0  0
  -27.2313  -37.1342   25.8878 H   0  0  0  0  0  0
  -20.9533  -29.8754   21.6759 H   0  0  0  0  0  0
  -26.0110  -38.2784   24.1438 H   0  0  0  0  0  0
  -31.7381  -18.6807   20.7858 H   0  0  0  0  0  0
  -31.7735  -18.8853   22.5077 H   0  0  0  0  0  0
  -30.1726  -16.9418   22.8131 H   0  0  0  0  0  0
  -31.6904  -16.5170   22.1173 H   0  0  0  0  0  0
  -28.5287  -17.0603   19.3901 H   0  0  0  0  0  0
  -30.1188  -17.6921   19.1708 H   0  0  0  0  0  0
  -30.9059  -21.2866   20.6639 H   0  0  0  0  0  0
  -30.2979  -21.6452   22.2750 H   0  0  0  0  0  0
  -27.3417  -20.3577   19.6859 H   0  0  0  0  0  0
  -28.8966  -20.4551   18.8832 H   0  0  0  0  0  0
  -29.4283  -19.4519   22.5977 H   0  0  0  0  0  0
  -28.0339  -18.6858   21.1987 H   0  0  0  0  0  0
  -27.1528  -22.9887   20.9661 H   0  0  0  0  0  0
  -28.5677  -23.4305   21.8197 H   0  0  0  0  0  0
  -27.7937  -24.4096   18.9864 H   0  0  0  0  0  0
  -29.4162  -24.4794   19.5215 H   0  0  0  0  0  0
  -28.2334  -21.3169   21.4973 H   0  0  0  0  0  0
  1 25  1  0  0  0
  1 30  2  0  0  0
  1 80  1  0  0  0
  2  3  1  0  0  0
  2 25  1  0  0  0
  2 82  1  0  0  0
  2 83  1  0  0  0
  3  4  1  0  0  0
  3 84  1  0  0  0
  3 85  1  0  0  0
  4  5  1  0  0  0
  4 86  1  0  0  0
  4 87  1  0  0  0
  5  6  1  0  0  0
  5 26  1  0  0  0
  5 88  1  0  0  0
  6 25  1  0  0  0
  6 89  1  0  0  0
  6 90  1  0  0  0
  7  8  2  0  0  0
  7 26  1  0  0  0
  7 29  1  0  0  0
  8  9  1  0  0  0
  8 22  1  0  0  0
  9 10  1  0  0  0
  9 27  2  0  0  0
 10 11  2  0  0  0
 10 15  1  0  0  0
 11 12  1  0  0  0
 11 91  1  0  0  0
 12 13  2  0  0  0
 12 92  1  0  0  0
 13 14  1  0  0  0
 13 31  1  0  0  0
 14 15  2  0  0  0
 14 93  1  0  0  0
 15 94  1  0  0  0
 16 17  2  0  0  0
 16 21  1  0  0  0
 16 31  1  0  0  0
 17 18  1  0  0  0
 17 95  1  0  0  0
 18 19  2  0  0  0
 18 96  1  0  0  0
 19 20  1  0  0  0
 19 24  1  0  0  0
 20 21  2  0  0  0
 20 97  1  0  0  0
 21 23  1  0  0  0
 22 28  1  0  0  0
 22 32  2  0  0  0
 26 27  1  0  0  0
 28 98  1  0  0  0
 28 99  1  0  0  0
 29100  1  0  0  0
 29101  1  0  0  0
 33 34  1  0  0  0
 33 66  1  0  0  0
 33 70  2  0  0  0
 34 36  1  0  0  0
 34 59  1  0  0  0
 34102  1  0  0  0
 35 44  2  0  0  0
 35 45  1  0  0  0
 35 68  1  0  0  0
 36 56  1  0  0  0
 36103  1  0  0  0
 37 39  1  0  0  0
 37 47  1  0  0  0
 37 66  1  0  0  0
 37104  1  0  0  0
 38 43  2  0  0  0
 38 46  1  0  0  0
 38 47  1  0  0  0
 39 64  1  0  0  0
 39 67  2  0  0  0
 40 52  1  0  0  0
 40 53  2  0  0  0
 40 58  1  0  0  0
 41105  1  0  0  0
 41106  1  0  0  0
 41107  1  0  0  0
 41 48  1  0  0  0
 42 43  1  0  0  0
 42 66  1  0  0  0
 42108  1  0  0  0
 42109  1  0  0  0
 43 44  1  0  0  0
 44110  1  0  0  0
 45 46  2  0  0  0
 45111  1  0  0  0
 46112  1  0  0  0
 47113  1  0  0  0
 47114  1  0  0  0
 48 56  1  0  0  0
 48 65  1  0  0  0
 48115  1  0  0  0
 49 50  1  0  0  0
 49 53  1  0  0  0
 49 64  1  0  0  0
 49116  1  0  0  0
 50 51  1  0  0  0
 50117  1  0  0  0
 50118  1  0  0  0
 51 52  1  0  0  0
 51119  1  0  0  0
 51120  1  0  0  0
 52121  1  0  0  0
 52122  1  0  0  0
 53 54  1  0  0  0
 54 55  2  0  0  0
 54123  1  0  0  0
 55 57  1  0  0  0
 55124  1  0  0  0
 56 69  2  0  0  0
 57 58  2  0  0  0
 57125  1  0  0  0
 58126  1  0  0  0
 59 60  1  0  0  0
 59 61  1  0  0  0
 59 62  1  0  0  0
 60127  1  0  0  0
 60128  1  0  0  0
 60129  1  0  0  0
 61130  1  0  0  0
 61131  1  0  0  0
 61132  1  0  0  0
 62133  1  0  0  0
 62134  1  0  0  0
 62135  1  0  0  0
 63 65  1  0  0  0
 63136  1  0  0  0
 63137  1  0  0  0
 63138  1  0  0  0
 64139  1  0  0  0
 65140  1  0  0  0
 68 79  1  0  0  0
 71 72  1  0  0  0
 71141  1  0  0  0
 71142  1  0  0  0
 71 76  1  0  0  0
 72 80  1  0  0  0
 72143  1  0  0  0
 72144  1  0  0  0
 73 80  1  0  0  0
 73145  1  0  0  0
 73146  1  0  0  0
 73 77  1  0  0  0
 74 76  1  0  0  0
 74 81  1  0  0  0
 74147  1  0  0  0
 74148  1  0  0  0
 75 77  1  0  0  0
 75 81  1  0  0  0
 75149  1  0  0  0
 75150  1  0  0  0
 76 77  1  0  0  0
 76151  1  0  0  0
 77152  1  0  0  0
 78 79  1  0  0  0
 78153  1  0  0  0
 78154  1  0  0  0
 78 81  1  0  0  0
 79155  1  0  0  0
 79156  1  0  0  0
 81157  1  0  0  0
M  CHG  1  81   1
M  ISO  4   1 100  68 101  79 101  80 100
M  END
> <chiral flag>
0

> <version>
0

> <s_m_source_file>
/data/baiqing/PycharmProjects/Reinvent-master-3.2/result/LINK_invent/BTK/process_docking_weight1_custom_product_contain_oxygen_bond_distance_aromatic_linkinvent_7_9_3/rearranged_h_0007.sdf

> <i_m_source_file_index>
81

> <r_mmod_Potential_Energy-OPLS-2005>
1020.84582519531

> <r_mmod_Stretch_Energy-OPLS-2005>
336.151733398438

> <r_mmod_Bend_Energy-OPLS-2005>
479.700256347656

> <r_mmod_Torsional_Energy-OPLS-2005>
390.995635986328

> <r_mmod_Improper_Torsional_Energy-OPLS-2005>
5.17321586608887

> <r_mmod_Van_der_Waal_Energy-OPLS-2005>
116.931816101074

> <r_mmod_Electrostatic_Energy-OPLS-2005>
-137.890258789062

> <r_mmod_Solvation_Energy-OPLS-2005>
-428.128662109375

> <b_mmod_Minimization_Converged-OPLS-2005>
0

> <r_mmod_RMS_Derivative-OPLS-2005>
3.27172565460205

$$$$
81
                    3D
 Structure written by MMmdl.
160168  0  0  1  0            999 V2000
  -30.7761  -14.3340   20.7093 C   0  0  0  0  0  0
  -30.4168  -12.2856   19.3821 C   0  0  0  0  0  0
  -29.4795  -12.5330   18.1861 C   0  0  0  0  0  0
  -28.0046  -12.3885   18.6049 C   0  0  0  0  0  0
  -27.6679  -13.2006   19.8821 C   0  0  2  0  0  0
  -28.7046  -12.9231   20.9914 C   0  0  0  0  0  0
  -25.2611  -13.8154   20.5675 C   0  0  0  0  0  0
  -24.1848  -13.0441   20.9158 C   0  0  0  0  0  0
  -24.6392  -11.6903   20.8725 C   0  0  0  0  0  0
  -23.9059  -10.4297   21.0401 C   0  0  0  0  0  0
  -24.3604   -9.4220   21.9196 C   0  0  0  0  0  0
  -23.6277   -8.2256   22.0771 C   0  0  0  0  0  0
  -22.4267   -8.0287   21.3548 C   0  0  0  0  0  0
  -21.9917   -9.0257   20.4638 C   0  0  0  0  0  0
  -22.7244  -10.2136   20.3042 C   0  0  0  0  0  0
  -21.6850   -6.0741   22.5282 C   0  0  0  0  0  0
  -21.4010   -6.5646   23.8218 C   0  0  0  0  0  0
  -21.3657   -5.6794   24.9176 C   0  0  0  0  0  0
  -21.6041   -4.3055   24.7226 C   0  0  0  0  0  0
  -21.8823   -3.8149   23.4348 C   0  0  0  0  0  0
  -21.9195   -4.6968   22.3405 C   0  0  0  0  0  0
  -22.7871  -13.5249   21.1823 C   0  0  0  0  0  0
  -22.1663   -4.2156   21.0982 F   0  0  0  0  0  0
  -21.5632   -3.4539   25.7736 F   0  0  0  0  0  0
  -30.0501  -13.2155   20.4593 N   0  0  0  0  0  0
  -26.3049  -12.9314   20.3387 N   0  0  0  0  0  0
  -25.9317  -11.6476   20.5758 N   0  0  0  0  0  0
  -22.0491  -12.8222   22.0348 N   0  0  0  0  0  0
  -25.4347  -15.1866   20.4085 N   0  0  0  0  0  0
  -31.7791  -14.6536   20.0644 O   0  0  0  0  0  0
  -21.6637   -6.8882   21.4241 O   0  0  0  0  0  0
  -22.3560  -14.5570   20.6693 O   0  0  0  0  0  0
  -24.6087  -31.8716   23.2110 C   0  0  0  0  0  0
  -25.8992  -32.4842   23.8414 C   0  0  1  0  0  0
  -27.2404  -27.4679   20.0801 C   0  0  0  0  0  0
  -25.5845  -33.8646   24.2327 N   0  0  0  0  0  0
  -23.3949  -30.4940   21.5520 C   0  0  2  0  0  0
  -24.8403  -28.9587   20.1175 C   0  0  0  0  0  0
  -22.7376  -29.4676   22.5010 C   0  0  0  0  0  0
  -18.0262  -28.1380   22.8503 C   0  0  0  0  0  0
  -24.1472  -36.7328   23.2640 C   0  0  0  0  0  0
  -25.9202  -30.8422   21.3623 C   0  0  0  0  0  0
  -25.9959  -29.4787   20.7104 C   0  0  0  0  0  0
  -27.1946  -28.7382   20.6907 C   0  0  0  0  0  0
  -26.0646  -26.9502   19.4870 C   0  0  0  0  0  0
  -24.8669  -27.6921   19.5069 C   0  0  0  0  0  0
  -23.5998  -29.8205   20.1683 C   0  0  0  0  0  0
  -25.4110  -36.3144   24.0331 C   0  0  1  0  0  0
  -20.5850  -28.3665   23.1338 C   0  0  2  0  0  0
  -20.6754  -26.9408   22.5417 C   0  0  0  0  0  0
  -19.5724  -26.6394   21.5219 C   0  0  0  0  0  0
  -18.1907  -26.7927   22.1644 C   0  0  0  0  0  0
  -19.1508  -28.8840   23.2911 C   0  0  0  0  0  0
  -18.9437  -30.1450   23.8912 C   0  0  0  0  0  0
  -17.6441  -30.6591   24.0573 C   0  0  0  0  0  0
  -25.9024  -34.9499   23.5140 C   0  0  0  0  0  0
  -16.5330  -29.9095   23.6325 C   0  0  0  0  0  0
  -16.7253  -28.6512   23.0342 C   0  0  0  0  0  0
  -26.4436  -31.6618   25.0746 C   0  0  0  0  0  0
  -25.3680  -31.3604   26.1437 C   0  0  0  0  0  0
  -27.0359  -30.3116   24.6089 C   0  0  0  0  0  0
  -27.5958  -32.4365   25.7561 C   0  0  0  0  0  0
  -27.5572  -37.1849   24.8471 C   0  0  0  0  0  0
  -21.4109  -29.3042   22.3757 N   0  0  0  0  0  0
  -26.4310  -37.3818   23.9387 N   0  0  0  0  0  0
  -24.6594  -31.0835   22.1004 N   0  0  0  0  0  0
  -23.4175  -28.8206   23.3016 O   0  0  0  0  0  0
  -28.4480  -26.8104   20.0836 O   0  0  0  0  0  0
  -26.5611  -34.8938   22.4716 O   0  0  0  0  0  0
  -23.5281  -32.1456   23.7511 O   0  0  0  0  0  0
  -31.7041  -18.0042   20.5913 C   0  0  0  0  0  0
  -31.4475  -19.1202   19.7721 C   0  0  0  0  0  0
  -30.6902  -17.4750   21.4150 C   0  0  0  0  0  0
  -30.1702  -19.7347   19.7791 C   0  0  0  0  0  0
  -29.4112  -18.0688   21.4106 C   0  0  0  0  0  0
  -29.1568  -19.1895   20.5968 C   0  0  0  0  0  0
  -30.9748  -16.2583   22.2797 C   0  0  0  0  0  0
  -29.8956  -24.9481   20.1356 C   0  0  0  0  0  0
  -30.3832  -23.0959   18.5136 C   0  0  0  0  0  0
  -28.4983  -25.4366   19.7226 C   0  0  0  0  0  0
  -30.8756  -21.6445   18.4738 C   0  0  0  0  0  0
  -30.3583  -15.0437   21.7625 N   0  0  0  0  0  0
  -30.1128  -23.5010   19.9130 N   0  3  0  0  0  0
  -29.8360  -20.8437   19.0315 O   0  0  0  0  0  0
  -28.4234  -17.5650   22.1902 F   0  0  0  0  0  0
  -27.9266  -19.7585   20.6080 F   0  0  0  0  0  0
  -31.4579  -12.3943   19.0717 H   0  0  0  0  0  0
  -30.3199  -11.2579   19.7347 H   0  0  0  0  0  0
  -29.7074  -11.8371   17.3767 H   0  0  0  0  0  0
  -29.6510  -13.5341   17.7868 H   0  0  0  0  0  0
  -27.8063  -11.3296   18.7740 H   0  0  0  0  0  0
  -27.3510  -12.6913   17.7866 H   0  0  0  0  0  0
  -27.7332  -14.2575   19.6225 H   0  0  0  0  0  0
  -28.6633  -11.8743   21.2902 H   0  0  0  0  0  0
  -28.4487  -13.4843   21.8899 H   0  0  0  0  0  0
  -25.2744   -9.5707   22.4786 H   0  0  0  0  0  0
  -23.9983   -7.4659   22.7501 H   0  0  0  0  0  0
  -21.0863   -8.8765   19.8921 H   0  0  0  0  0  0
  -22.3712  -10.9668   19.6139 H   0  0  0  0  0  0
  -21.1994   -7.6156   23.9719 H   0  0  0  0  0  0
  -21.1475   -6.0525   25.9082 H   0  0  0  0  0  0
  -22.0603   -2.7616   23.2845 H   0  0  0  0  0  0
  -22.4070  -11.9843   22.4693 H   0  0  0  0  0  0
  -21.1101  -13.1244   22.2525 H   0  0  0  0  0  0
  -24.6752  -15.8477   20.5265 H   0  0  0  0  0  0
  -26.3029  -15.6255   20.1286 H   0  0  0  0  0  0
  -26.7063  -32.5579   23.1183 H   0  0  0  0  0  0
  -24.9912  -33.9818   25.0409 H   0  0  0  0  0  0
  -22.6819  -31.3097   21.4138 H   0  0  0  0  0  0
  -23.3759  -35.9637   23.3332 H   0  0  0  0  0  0
  -24.3524  -36.8941   22.2045 H   0  0  0  0  0  0
  -23.7206  -37.6526   23.6661 H   0  0  0  0  0  0
  -26.0299  -31.6073   20.5934 H   0  0  0  0  0  0
  -26.8089  -30.8943   21.9803 H   0  0  0  0  0  0
  -28.0904  -29.1397   21.1426 H   0  0  0  0  0  0
  -26.0552  -25.9895   18.9931 H   0  0  0  0  0  0
  -23.9761  -27.2880   19.0446 H   0  0  0  0  0  0
  -23.6986  -30.5906   19.4030 H   0  0  0  0  0  0
  -22.7248  -29.2340   19.8842 H   0  0  0  0  0  0
  -25.1291  -36.2029   25.0831 H   0  0  0  0  0  0
  -20.9936  -28.3231   24.1461 H   0  0  0  0  0  0
  -20.5675  -26.2261   23.3596 H   0  0  0  0  0  0
  -21.6623  -26.7468   22.1195 H   0  0  0  0  0  0
  -19.6879  -25.6313   21.1220 H   0  0  0  0  0  0
  -19.6651  -27.3217   20.6755 H   0  0  0  0  0  0
  -17.4174  -26.6670   21.4049 H   0  0  0  0  0  0
  -18.0304  -26.0069   22.9045 H   0  0  0  0  0  0
  -19.7926  -30.7246   24.2277 H   0  0  0  0  0  0
  -17.5015  -31.6266   24.5189 H   0  0  0  0  0  0
  -15.5329  -30.2996   23.7650 H   0  0  0  0  0  0
  -15.8658  -28.0831   22.7039 H   0  0  0  0  0  0
  -24.5843  -30.7020   25.7661 H   0  0  0  0  0  0
  -24.8869  -32.2708   26.5027 H   0  0  0  0  0  0
  -25.7998  -30.8604   27.0118 H   0  0  0  0  0  0
  -26.2962  -29.6830   24.1113 H   0  0  0  0  0  0
  -27.4179  -29.7364   25.4538 H   0  0  0  0  0  0
  -27.8743  -30.4538   23.9259 H   0  0  0  0  0  0
  -27.2538  -33.3654   26.2136 H   0  0  0  0  0  0
  -28.3792  -32.6935   25.0423 H   0  0  0  0  0  0
  -28.0602  -31.8497   26.5500 H   0  0  0  0  0  0
  -28.2582  -38.0151   24.7549 H   0  0  0  0  0  0
  -28.1079  -36.2685   24.6318 H   0  0  0  0  0  0
  -27.2243  -37.1503   25.8854 H   0  0  0  0  0  0
  -20.9242  -29.8794   21.7025 H   0  0  0  0  0  0
  -26.0213  -38.2900   24.1386 H   0  0  0  0  0  0
  -32.6838  -17.5460   20.5771 H   0  0  0  0  0  0
  -32.2502  -19.4752   19.1433 H   0  0  0  0  0  0
  -30.5873  -16.4424   23.2824 H   0  0  0  0  0  0
  -32.0510  -16.1136   22.3925 H   0  0  0  0  0  0
  -30.0193  -25.1337   21.2042 H   0  0  0  0  0  0
  -30.6699  -25.5295   19.6341 H   0  0  0  0  0  0
  -29.4856  -23.2069   17.9054 H   0  0  0  0  0  0
  -31.1489  -23.7411   18.0806 H   0  0  0  0  0  0
  -27.7307  -24.8674   20.2497 H   0  0  0  0  0  0
  -28.3437  -25.3206   18.6493 H   0  0  0  0  0  0
  -31.8114  -21.5900   19.0307 H   0  0  0  0  0  0
  -31.0788  -21.3283   17.4496 H   0  0  0  0  0  0
  -29.5534  -14.6906   22.2561 H   0  0  0  0  0  0
  -29.3288  -22.9718   20.2674 H   0  0  0  0  0  0
  -30.9123  -23.2314   20.4666 H   0  0  0  0  0  0
  1 25  1  0  0  0
  1 30  2  0  0  0
  1 82  1  0  0  0
  2  3  1  0  0  0
  2 25  1  0  0  0
  2 87  1  0  0  0
  2 88  1  0  0  0
  3  4  1  0  0  0
  3 89  1  0  0  0
  3 90  1  0  0  0
  4  5  1  0  0  0
  4 91  1  0  0  0
  4 92  1  0  0  0
  5  6  1  0  0  0
  5 26  1  0  0  0
  5 93  1  0  0  0
  6 25  1  0  0  0
  6 94  1  0  0  0
  6 95  1  0  0  0
  7  8  2  0  0  0
  7 26  1  0  0  0
  7 29  1  0  0  0
  8  9  1  0  0  0
  8 22  1  0  0  0
  9 10  1  0  0  0
  9 27  2  0  0  0
 10 11  2  0  0  0
 10 15  1  0  0  0
 11 12  1  0  0  0
 11 96  1  0  0  0
 12 13  2  0  0  0
 12 97  1  0  0  0
 13 14  1  0  0  0
 13 31  1  0  0  0
 14 15  2  0  0  0
 14 98  1  0  0  0
 15 99  1  0  0  0
 16 17  2  0  0  0
 16 21  1  0  0  0
 16 31  1  0  0  0
 17 18  1  0  0  0
 17100  1  0  0  0
 18 19  2  0  0  0
 18101  1  0  0  0
 19 20  1  0  0  0
 19 24  1  0  0  0
 20 21  2  0  0  0
 20102  1  0  0  0
 21 23  1  0  0  0
 22 28  1  0  0  0
 22 32  2  0  0  0
 26 27  1  0  0  0
 28103  1  0  0  0
 28104  1  0  0  0
 29105  1  0  0  0
 29106  1  0  0  0
 33 34  1  0  0  0
 33 66  1  0  0  0
 33 70  2  0  0  0
 34 36  1  0  0  0
 34 59  1  0  0  0
 34107  1  0  0  0
 35 44  2  0  0  0
 35 45  1  0  0  0
 35 68  1  0  0  0
 36 56  1  0  0  0
 36108  1  0  0  0
 37 39  1  0  0  0
 37 47  1  0  0  0
 37 66  1  0  0  0
 37109  1  0  0  0
 38 43  2  0  0  0
 38 46  1  0  0  0
 38 47  1  0  0  0
 39 64  1  0  0  0
 39 67  2  0  0  0
 40 52  1  0  0  0
 40 53  2  0  0  0
 40 58  1  0  0  0
 41110  1  0  0  0
 41111  1  0  0  0
 41112  1  0  0  0
 41 48  1  0  0  0
 42 43  1  0  0  0
 42 66  1  0  0  0
 42113  1  0  0  0
 42114  1  0  0  0
 43 44  1  0  0  0
 44115  1  0  0  0
 45 46  2  0  0  0
 45116  1  0  0  0
 46117  1  0  0  0
 47118  1  0  0  0
 47119  1  0  0  0
 48 56  1  0  0  0
 48 65  1  0  0  0
 48120  1  0  0  0
 49 50  1  0  0  0
 49 53  1  0  0  0
 49 64  1  0  0  0
 49121  1  0  0  0
 50 51  1  0  0  0
 50122  1  0  0  0
 50123  1  0  0  0
 51 52  1  0  0  0
 51124  1  0  0  0
 51125  1  0  0  0
 52126  1  0  0  0
 52127  1  0  0  0
 53 54  1  0  0  0
 54 55  2  0  0  0
 54128  1  0  0  0
 55 57  1  0  0  0
 55129  1  0  0  0
 56 69  2  0  0  0
 57 58  2  0  0  0
 57130  1  0  0  0
 58131  1  0  0  0
 59 60  1  0  0  0
 59 61  1  0  0  0
 59 62  1  0  0  0
 60132  1  0  0  0
 60133  1  0  0  0
 60134  1  0  0  0
 61135  1  0  0  0
 61136  1  0  0  0
 61137  1  0  0  0
 62138  1  0  0  0
 62139  1  0  0  0
 62140  1  0  0  0
 63 65  1  0  0  0
 63141  1  0  0  0
 63142  1  0  0  0
 63143  1  0  0  0
 64144  1  0  0  0
 65145  1  0  0  0
 68 80  1  0  0  0
 71 72  2  0  0  0
 71 73  1  0  0  0
 71146  1  0  0  0
 72 74  1  0  0  0
 72147  1  0  0  0
 73 75  2  0  0  0
 73 77  1  0  0  0
 74 76  2  0  0  0
 74 84  1  0  0  0
 75 76  1  0  0  0
 75 85  1  0  0  0
 76 86  1  0  0  0
 77 82  1  0  0  0
 77148  1  0  0  0
 77149  1  0  0  0
 78 80  1  0  0  0
 78 83  1  0  0  0
 78150  1  0  0  0
 78151  1  0  0  0
 79 81  1  0  0  0
 79 83  1  0  0  0
 79152  1  0  0  0
 79153  1  0  0  0
 80154  1  0  0  0
 80155  1  0  0  0
 81 84  1  0  0  0
 81156  1  0  0  0
 81157  1  0  0  0
 82158  1  0  0  0
 83159  1  0  0  0
 83160  1  0  0  0
M  CHG  1  83   1
M  ISO  4   1 100  68 101  80 101  82 100
M  END
> <chiral flag>
0

> <version>
0

> <s_m_source_file>
/data/baiqing/PycharmProjects/Reinvent-master-3.2/result/LINK_invent/BTK/process_docking_weight1_custom_product_contain_oxygen_bond_distance_aromatic_linkinvent_7_9_3/rearranged_h_0007.sdf

> <i_m_source_file_index>
82

> <r_mmod_Potential_Energy-OPLS-2005>
-184.302734375

> <r_mmod_Stretch_Energy-OPLS-2005>
31.4849071502686

> <r_mmod_Bend_Energy-OPLS-2005>
101.644592285156

> <r_mmod_Torsional_Energy-OPLS-2005>
200.025466918945

> <r_mmod_Improper_Torsional_Energy-OPLS-2005>
1.83095216751099

> <r_mmod_Van_der_Waal_Energy-OPLS-2005>
156.39697265625

> <r_mmod_Electrostatic_Energy-OPLS-2005>
-255.776092529297

> <r_mmod_Solvation_Energy-OPLS-2005>
-427.675537109375

> <b_mmod_Minimization_Converged-OPLS-2005>
0

> <r_mmod_RMS_Derivative-OPLS-2005>
1.60432636737823

$$$$
82
                    3D
 Structure written by MMmdl.
148156  0  0  1  0            999 V2000
  -30.5089  -14.9122   20.4351 C   0  0  0  0  0  0
  -30.4555  -12.5616   19.4901 C   0  0  0  0  0  0
  -29.5264  -12.5317   18.2520 C   0  0  0  0  0  0
  -28.0565  -12.3206   18.6662 C   0  0  0  0  0  0
  -27.6389  -13.2354   19.8464 C   0  0  2  0  0  0
  -28.6835  -13.2119   20.9840 C   0  0  0  0  0  0
  -25.2500  -13.8182   20.5681 C   0  0  0  0  0  0
  -24.1806  -13.0431   20.9230 C   0  0  0  0  0  0
  -24.6402  -11.6911   20.8760 C   0  0  0  0  0  0
  -23.9076  -10.4289   21.0416 C   0  0  0  0  0  0
  -24.3624   -9.4201   21.9190 C   0  0  0  0  0  0
  -23.6294   -8.2240   22.0758 C   0  0  0  0  0  0
  -22.4276   -8.0282   21.3547 C   0  0  0  0  0  0
  -21.9915   -9.0259   20.4652 C   0  0  0  0  0  0
  -22.7249  -10.2135   20.3063 C   0  0  0  0  0  0
  -21.6853   -6.0736   22.5279 C   0  0  0  0  0  0
  -21.4015   -6.5640   23.8212 C   0  0  0  0  0  0
  -21.3659   -5.6793   24.9175 C   0  0  0  0  0  0
  -21.6044   -4.3056   24.7225 C   0  0  0  0  0  0
  -21.8818   -3.8147   23.4347 C   0  0  0  0  0  0
  -21.9192   -4.6963   22.3402 C   0  0  0  0  0  0
  -22.7826  -13.5218   21.1880 C   0  0  0  0  0  0
  -22.1661   -4.2149   21.0979 F   0  0  0  0  0  0
  -21.5626   -3.4539   25.7738 F   0  0  0  0  0  0
  -29.9682  -13.6307   20.4025 N   0  0  0  0  0  0
  -26.2925  -12.9392   20.3247 N   0  0  0  0  0  0
  -25.9332  -11.6537   20.5742 N   0  0  0  0  0  0
  -22.0465  -12.8213   22.0434 N   0  0  0  0  0  0
  -25.4162  -15.1901   20.4026 N   0  0  0  0  0  0
  -31.6970  -15.0562   20.1234 O   0  0  0  0  0  0
  -21.6639   -6.8881   21.4242 O   0  0  0  0  0  0
  -22.3518  -14.5520   20.6717 O   0  0  0  0  0  0
  -24.6422  -31.8456   23.1895 C   0  0  0  0  0  0
  -25.9199  -32.4704   23.8282 C   0  0  1  0  0  0
  -27.2214  -27.1519   20.1469 C   0  0  0  0  0  0
  -25.5952  -33.8509   24.2201 N   0  0  0  0  0  0
  -23.4453  -30.4654   21.5351 C   0  0  2  0  0  0
  -24.8953  -28.8959   20.1105 C   0  0  0  0  0  0
  -22.7562  -29.4552   22.4864 C   0  0  0  0  0  0
  -18.0305  -28.1392   22.8480 C   0  0  0  0  0  0
  -24.1492  -36.7261   23.2642 C   0  0  0  0  0  0
  -26.0006  -30.7245   21.3860 C   0  0  0  0  0  0
  -26.0728  -29.3373   20.7273 C   0  0  0  0  0  0
  -27.2369  -28.4820   20.7280 C   0  0  0  0  0  0
  -26.0152  -26.8096   19.4937 C   0  0  0  0  0  0
  -24.8787  -27.6448   19.4786 C   0  0  0  0  0  0
  -23.6712  -29.7962   20.1539 C   0  0  0  0  0  0
  -25.4122  -36.3038   24.0318 C   0  0  1  0  0  0
  -20.5917  -28.3717   23.1239 C   0  0  2  0  0  0
  -20.6789  -26.9422   22.5403 C   0  0  0  0  0  0
  -19.5760  -26.6380   21.5213 C   0  0  0  0  0  0
  -18.1944  -26.7931   22.1628 C   0  0  0  0  0  0
  -19.1562  -28.8873   23.2853 C   0  0  0  0  0  0
  -18.9477  -30.1469   23.8878 C   0  0  0  0  0  0
  -17.6473  -30.6589   24.0558 C   0  0  0  0  0  0
  -25.9071  -34.9412   23.5068 C   0  0  0  0  0  0
  -16.5365  -29.9082   23.6333 C   0  0  0  0  0  0
  -16.7289  -28.6500   23.0357 C   0  0  0  0  0  0
  -26.4522  -31.6564   25.0716 C   0  0  0  0  0  0
  -25.3712  -31.3749   26.1414 C   0  0  0  0  0  0
  -27.0385  -30.2963   24.6283 C   0  0  0  0  0  0
  -27.6053  -32.4328   25.7502 C   0  0  0  0  0  0
  -27.5575  -37.1788   24.8465 C   0  0  0  0  0  0
  -21.4255  -29.3048   22.3615 N   0  0  0  0  0  0
  -26.4286  -37.3749   23.9408 N   0  0  0  0  0  0
  -24.7158  -31.0325   22.0923 N   0  0  0  0  0  0
  -23.4210  -28.8096   23.3008 O   0  0  0  0  0  0
  -28.2796  -26.1752   20.2158 O   0  0  0  0  0  0
  -26.5655  -34.8906   22.4645 O   0  0  0  0  0  0
  -23.5543  -32.1325   23.7122 O   0  0  0  0  0  0
  -30.4979  -18.5502   20.3681 C   0  0  0  0  0  0
  -30.1918  -19.9876   20.3030 C   0  0  0  0  0  0
  -28.2013  -18.0915   20.6159 C   0  0  0  0  0  0
  -29.5058  -17.5125   20.5303 C   0  0  0  0  0  0
  -28.8604  -20.5427   20.3787 C   0  0  0  0  0  0
  -27.8953  -19.4982   20.5370 C   0  0  0  0  0  0
  -27.9814  -24.6559   20.0800 C   0  0  0  0  0  0
  -28.9666  -23.3090   20.3181 C   0  0  0  0  0  0
  -29.6181  -15.9877   20.6567 N   0  0  0  0  0  0
  -28.3436  -21.9122   20.2867 O   0  0  0  0  0  0
  -26.5907  -19.8568   20.6201 F   0  0  0  0  0  0
  -31.4867  -12.7370   19.1791 H   0  0  0  0  0  0
  -30.4561  -11.5962   19.9987 H   0  0  0  0  0  0
  -29.8377  -11.7454   17.5632 H   0  0  0  0  0  0
  -29.6191  -13.4710   17.7045 H   0  0  0  0  0  0
  -27.9424  -11.2750   18.9545 H   0  0  0  0  0  0
  -27.3955  -12.4747   17.8124 H   0  0  0  0  0  0
  -27.6160  -14.2467   19.4405 H   0  0  0  0  0  0
  -28.7608  -12.2155   21.4218 H   0  0  0  0  0  0
  -28.3869  -13.8773   21.7964 H   0  0  0  0  0  0
  -25.2769   -9.5672   22.4767 H   0  0  0  0  0  0
  -24.0000   -7.4629   22.7477 H   0  0  0  0  0  0
  -21.0844   -8.8784   19.8957 H   0  0  0  0  0  0
  -22.3712  -10.9678   19.6174 H   0  0  0  0  0  0
  -21.2010   -7.6149   23.9716 H   0  0  0  0  0  0
  -21.1480   -6.0523   25.9077 H   0  0  0  0  0  0
  -22.0597   -2.7608   23.2848 H   0  0  0  0  0  0
  -22.4083  -11.9878   22.4830 H   0  0  0  0  0  0
  -21.1084  -13.1242   22.2641 H   0  0  0  0  0  0
  -24.6295  -15.8261   20.4770 H   0  0  0  0  0  0
  -26.2182  -15.6066   19.9499 H   0  0  0  0  0  0
  -26.7265  -32.5316   23.1014 H   0  0  0  0  0  0
  -25.0077  -33.9626   25.0333 H   0  0  0  0  0  0
  -22.7472  -31.2910   21.3818 H   0  0  0  0  0  0
  -23.3757  -35.9590   23.3292 H   0  0  0  0  0  0
  -24.3578  -36.8903   22.2059 H   0  0  0  0  0  0
  -23.7245  -37.6454   23.6684 H   0  0  0  0  0  0
  -26.1536  -31.4794   20.6136 H   0  0  0  0  0  0
  -26.8721  -30.7754   22.0269 H   0  0  0  0  0  0
  -28.1335  -28.8156   21.2313 H   0  0  0  0  0  0
  -25.9102  -25.8553   19.0018 H   0  0  0  0  0  0
  -23.9801  -27.3016   18.9846 H   0  0  0  0  0  0
  -23.8070  -30.5716   19.3992 H   0  0  0  0  0  0
  -22.7864  -29.2380   19.8427 H   0  0  0  0  0  0
  -25.1309  -36.1869   25.0810 H   0  0  0  0  0  0
  -21.0010  -28.3306   24.1360 H   0  0  0  0  0  0
  -20.5685  -26.2330   23.3621 H   0  0  0  0  0  0
  -21.6654  -26.7429   22.1199 H   0  0  0  0  0  0
  -19.6921  -25.6286   21.1255 H   0  0  0  0  0  0
  -19.6694  -27.3179   20.6734 H   0  0  0  0  0  0
  -17.4210  -26.6673   21.4035 H   0  0  0  0  0  0
  -18.0346  -26.0078   22.9030 H   0  0  0  0  0  0
  -19.7952  -30.7291   24.2241 H   0  0  0  0  0  0
  -17.5025  -31.6268   24.5163 H   0  0  0  0  0  0
  -15.5364  -30.2977   23.7663 H   0  0  0  0  0  0
  -15.8691  -28.0808   22.7085 H   0  0  0  0  0  0
  -24.5894  -30.7094   25.7734 H   0  0  0  0  0  0
  -24.8898  -32.2930   26.4792 H   0  0  0  0  0  0
  -25.7998  -30.8952   27.0222 H   0  0  0  0  0  0
  -26.2998  -29.6690   24.1281 H   0  0  0  0  0  0
  -27.3997  -29.7256   25.4848 H   0  0  0  0  0  0
  -27.8906  -30.4204   23.9597 H   0  0  0  0  0  0
  -27.2645  -33.3646   26.2028 H   0  0  0  0  0  0
  -28.3892  -32.6860   25.0352 H   0  0  0  0  0  0
  -28.0689  -31.8488   26.5463 H   0  0  0  0  0  0
  -28.2585  -38.0091   24.7510 H   0  0  0  0  0  0
  -28.1079  -36.2622   24.6295 H   0  0  0  0  0  0
  -27.2293  -37.1437   25.8868 H   0  0  0  0  0  0
  -20.9461  -29.8768   21.6802 H   0  0  0  0  0  0
  -26.0155  -38.2818   24.1409 H   0  0  0  0  0  0
  -31.5349  -18.2525   20.2974 H   0  0  0  0  0  0
  -31.0171  -20.6732   20.1773 H   0  0  0  0  0  0
  -27.3590  -17.4297   20.7477 H   0  0  0  0  0  0
  -27.1214  -24.4889   20.7294 H   0  0  0  0  0  0
  -27.6025  -24.5258   19.0670 H   0  0  0  0  0  0
  -29.4518  -23.4117   21.2888 H   0  0  0  0  0  0
  -29.7707  -23.3307   19.5826 H   0  0  0  0  0  0
  -28.7268  -15.5824   20.8973 H   0  0  0  0  0  0
  1 25  1  0  0  0
  1 30  2  0  0  0
  1 79  1  0  0  0
  2  3  1  0  0  0
  2 25  1  0  0  0
  2 82  1  0  0  0
  2 83  1  0  0  0
  3  4  1  0  0  0
  3 84  1  0  0  0
  3 85  1  0  0  0
  4  5  1  0  0  0
  4 86  1  0  0  0
  4 87  1  0  0  0
  5  6  1  0  0  0
  5 26  1  0  0  0
  5 88  1  0  0  0
  6 25  1  0  0  0
  6 89  1  0  0  0
  6 90  1  0  0  0
  7  8  2  0  0  0
  7 26  1  0  0  0
  7 29  1  0  0  0
  8  9  1  0  0  0
  8 22  1  0  0  0
  9 10  1  0  0  0
  9 27  2  0  0  0
 10 11  2  0  0  0
 10 15  1  0  0  0
 11 12  1  0  0  0
 11 91  1  0  0  0
 12 13  2  0  0  0
 12 92  1  0  0  0
 13 14  1  0  0  0
 13 31  1  0  0  0
 14 15  2  0  0  0
 14 93  1  0  0  0
 15 94  1  0  0  0
 16 17  2  0  0  0
 16 21  1  0  0  0
 16 31  1  0  0  0
 17 18  1  0  0  0
 17 95  1  0  0  0
 18 19  2  0  0  0
 18 96  1  0  0  0
 19 20  1  0  0  0
 19 24  1  0  0  0
 20 21  2  0  0  0
 20 97  1  0  0  0
 21 23  1  0  0  0
 22 28  1  0  0  0
 22 32  2  0  0  0
 26 27  1  0  0  0
 28 98  1  0  0  0
 28 99  1  0  0  0
 29100  1  0  0  0
 29101  1  0  0  0
 33 34  1  0  0  0
 33 66  1  0  0  0
 33 70  2  0  0  0
 34 36  1  0  0  0
 34 59  1  0  0  0
 34102  1  0  0  0
 35 44  2  0  0  0
 35 45  1  0  0  0
 35 68  1  0  0  0
 36 56  1  0  0  0
 36103  1  0  0  0
 37 39  1  0  0  0
 37 47  1  0  0  0
 37 66  1  0  0  0
 37104  1  0  0  0
 38 43  2  0  0  0
 38 46  1  0  0  0
 38 47  1  0  0  0
 39 64  1  0  0  0
 39 67  2  0  0  0
 40 52  1  0  0  0
 40 53  2  0  0  0
 40 58  1  0  0  0
 41105  1  0  0  0
 41106  1  0  0  0
 41107  1  0  0  0
 41 48  1  0  0  0
 42 43  1  0  0  0
 42 66  1  0  0  0
 42108  1  0  0  0
 42109  1  0  0  0
 43 44  1  0  0  0
 44110  1  0  0  0
 45 46  2  0  0  0
 45111  1  0  0  0
 46112  1  0  0  0
 47113  1  0  0  0
 47114  1  0  0  0
 48 56  1  0  0  0
 48 65  1  0  0  0
 48115  1  0  0  0
 49 50  1  0  0  0
 49 53  1  0  0  0
 49 64  1  0  0  0
 49116  1  0  0  0
 50 51  1  0  0  0
 50117  1  0  0  0
 50118  1  0  0  0
 51 52  1  0  0  0
 51119  1  0  0  0
 51120  1  0  0  0
 52121  1  0  0  0
 52122  1  0  0  0
 53 54  1  0  0  0
 54 55  2  0  0  0
 54123  1  0  0  0
 55 57  1  0  0  0
 55124  1  0  0  0
 56 69  2  0  0  0
 57 58  2  0  0  0
 57125  1  0  0  0
 58126  1  0  0  0
 59 60  1  0  0  0
 59 61  1  0  0  0
 59 62  1  0  0  0
 60127  1  0  0  0
 60128  1  0  0  0
 60129  1  0  0  0
 61130  1  0  0  0
 61131  1  0  0  0
 61132  1  0  0  0
 62133  1  0  0  0
 62134  1  0  0  0
 62135  1  0  0  0
 63 65  1  0  0  0
 63136  1  0  0  0
 63137  1  0  0  0
 63138  1  0  0  0
 64139  1  0  0  0
 65140  1  0  0  0
 68 77  1  0  0  0
 71 72  2  0  0  0
 71 74  1  0  0  0
 71141  1  0  0  0
 72 75  1  0  0  0
 72142  1  0  0  0
 73 74  2  0  0  0
 73 76  1  0  0  0
 73143  1  0  0  0
 74 79  1  0  0  0
 75 76  2  0  0  0
 75 80  1  0  0  0
 76 81  1  0  0  0
 77 78  1  0  0  0
 77144  1  0  0  0
 77145  1  0  0  0
 78 80  1  0  0  0
 78146  1  0  0  0
 78147  1  0  0  0
 79148  1  0  0  0
M  ISO  4   1 100  68 101  77 101  79 100
M  END
> <chiral flag>
0

> <version>
0

> <s_m_source_file>
/data/baiqing/PycharmProjects/Reinvent-master-3.2/result/LINK_invent/BTK/process_docking_weight1_custom_product_contain_oxygen_bond_distance_aromatic_linkinvent_7_9_3/rearranged_h_0007.sdf

> <i_m_source_file_index>
83

> <r_mmod_Potential_Energy-OPLS-2005>
491.091247558594

> <r_mmod_Stretch_Energy-OPLS-2005>
216.953765869141

> <r_mmod_Bend_Energy-OPLS-2005>
302.484619140625

> <r_mmod_Torsional_Energy-OPLS-2005>
212.021713256836

> <r_mmod_Improper_Torsional_Energy-OPLS-2005>
4.76716709136963

> <r_mmod_Van_der_Waal_Energy-OPLS-2005>
130.573699951172

> <r_mmod_Electrostatic_Energy-OPLS-2005>
-337.487060546875

> <r_mmod_Solvation_Energy-OPLS-2005>
-212.451721191406

> <b_mmod_Minimization_Converged-OPLS-2005>
0

> <r_mmod_RMS_Derivative-OPLS-2005>
0.366873770952225

$$$$
83
                    3D
 Structure written by MMmdl.
136143  0  0  1  0            999 V2000
  -30.0547  -16.4460   20.2582 C   0  0  0  0  0  0
  -30.3444  -13.6555   19.5669 C   0  0  0  0  0  0
  -29.5809  -12.8853   18.4207 C   0  0  0  0  0  0
  -28.2217  -12.3612   18.8918 C   0  0  0  0  0  0
  -27.5631  -13.4089   19.8053 C   0  0  2  0  0  0
  -28.4871  -14.0783   20.8756 C   0  0  0  0  0  0
  -25.2124  -13.8445   20.5879 C   0  0  0  0  0  0
  -24.1631  -13.0454   20.9323 C   0  0  0  0  0  0
  -24.6478  -11.7012   20.8735 C   0  0  0  0  0  0
  -23.9208  -10.4312   21.0352 C   0  0  0  0  0  0
  -24.3712   -9.4224   21.9154 C   0  0  0  0  0  0
  -23.6350   -8.2274   22.0747 C   0  0  0  0  0  0
  -22.4327   -8.0310   21.3544 C   0  0  0  0  0  0
  -21.9989   -9.0286   20.4636 C   0  0  0  0  0  0
  -22.7356  -10.2146   20.3023 C   0  0  0  0  0  0
  -21.6873   -6.0757   22.5279 C   0  0  0  0  0  0
  -21.4030   -6.5652   23.8214 C   0  0  0  0  0  0
  -21.3664   -5.6799   24.9172 C   0  0  0  0  0  0
  -21.6043   -4.3062   24.7220 C   0  0  0  0  0  0
  -21.8817   -3.8158   23.4339 C   0  0  0  0  0  0
  -21.9199   -4.6980   22.3398 C   0  0  0  0  0  0
  -22.7623  -13.5099   21.1948 C   0  0  0  0  0  0
  -22.1663   -4.2164   21.0975 F   0  0  0  0  0  0
  -21.5624   -3.4542   25.7730 F   0  0  0  0  0  0
  -29.5648  -14.8881   20.1934 N   0  0  0  0  0  0
  -26.2690  -12.9979   20.3316 N   0  0  0  0  0  0
  -25.9458  -11.6933   20.5620 N   0  0  0  0  0  0
  -22.0330  -12.8049   22.0506 N   0  0  0  0  0  0
  -25.3551  -15.2209   20.4332 N   0  0  0  0  0  0
  -31.3003  -16.2597   20.1575 O   0  0  0  0  0  0
  -21.6670   -6.8914   21.4248 O   0  0  0  0  0  0
  -22.3263  -14.5387   20.6788 O   0  0  0  0  0  0
  -24.7357  -31.7341   23.1059 C   0  0  0  0  0  0
  -25.9670  -32.4148   23.7810 C   0  0  1  0  0  0
  -27.2554  -26.1545   20.2647 C   0  0  0  0  0  0
  -25.6019  -33.8005   24.1636 N   0  0  0  0  0  0
  -23.5864  -30.3096   21.4734 C   0  0  2  0  0  0
  -25.0488  -28.5320   20.1367 C   0  0  0  0  0  0
  -22.7997  -29.3962   22.4572 C   0  0  0  0  0  0
  -18.0371  -28.1449   22.8427 C   0  0  0  0  0  0
  -24.1496  -36.7016   23.2667 C   0  0  0  0  0  0
  -26.1849  -30.2853   21.4529 C   0  0  0  0  0  0
  -26.2453  -28.7877   20.8145 C   0  0  0  0  0  0
  -27.3043  -27.6477   20.8288 C   0  0  0  0  0  0
  -26.0211  -26.2482   19.5206 C   0  0  0  0  0  0
  -25.0086  -27.2921   19.4634 C   0  0  0  0  0  0
  -23.8699  -29.5528   20.1341 C   0  0  0  0  0  0
  -25.4166  -36.2710   24.0243 C   0  0  1  0  0  0
  -20.6030  -28.3829   23.1046 C   0  0  2  0  0  0
  -20.6807  -26.9438   22.5415 C   0  0  0  0  0  0
  -19.5794  -26.6351   21.5223 C   0  0  0  0  0  0
  -18.1976  -26.7965   22.1609 C   0  0  0  0  0  0
  -19.1650  -28.8976   23.2700 C   0  0  0  0  0  0
  -18.9547  -30.1546   23.8768 C   0  0  0  0  0  0
  -17.6531  -30.6617   24.0538 C   0  0  0  0  0  0
  -25.9179  -34.9115   23.4820 C   0  0  0  0  0  0
  -16.5417  -29.9089   23.6364 C   0  0  0  0  0  0
  -16.7348  -28.6515   23.0376 C   0  0  0  0  0  0
  -26.4679  -31.6422   25.0657 C   0  0  0  0  0  0
  -25.3605  -31.3885   26.1171 C   0  0  0  0  0  0
  -27.0702  -30.2710   24.6944 C   0  0  0  0  0  0
  -27.6020  -32.4417   25.7503 C   0  0  0  0  0  0
  -27.5548  -37.1658   24.8464 C   0  0  0  0  0  0
  -21.4597  -29.2964   22.3307 N   0  0  0  0  0  0
  -26.4245  -37.3533   23.9412 N   0  0  0  0  0  0
  -24.8663  -30.8232   22.0623 N   0  0  0  0  0  0
  -23.4182  -28.7660   23.3173 O   0  0  0  0  0  0
  -28.1678  -24.6999   20.3196 O   0  0  0  0  0  0
  -26.5902  -34.8802   22.4495 O   0  0  0  0  0  0
  -23.6262  -32.0669   23.5664 O   0  0  0  0  0  0
  -28.1629  -22.6483   20.2373 C   0  0  0  0  0  0
  -29.1091  -20.5560   20.2925 C   0  0  0  0  0  0
  -29.0728  -18.5061   20.3040 O   0  0  0  0  0  0
  -31.2793  -14.0166   19.1378 H   0  0  0  0  0  0
  -30.6607  -12.9592   20.3459 H   0  0  0  0  0  0
  -30.1896  -12.0655   18.0370 H   0  0  0  0  0  0
  -29.4281  -13.5693   17.5846 H   0  0  0  0  0  0
  -28.3815  -11.4407   19.4547 H   0  0  0  0  0  0
  -27.5814  -12.1081   18.0457 H   0  0  0  0  0  0
  -27.3265  -14.2135   19.1067 H   0  0  0  0  0  0
  -28.8858  -13.3440   21.5777 H   0  0  0  0  0  0
  -27.9070  -14.7721   21.4846 H   0  0  0  0  0  0
  -25.2846   -9.5695   22.4747 H   0  0  0  0  0  0
  -24.0041   -7.4673   22.7486 H   0  0  0  0  0  0
  -21.0914   -8.8825   19.8947 H   0  0  0  0  0  0
  -22.3812  -10.9684   19.6133 H   0  0  0  0  0  0
  -21.2030   -7.6161   23.9723 H   0  0  0  0  0  0
  -21.1485   -6.0527   25.9076 H   0  0  0  0  0  0
  -22.0589   -2.7620   23.2834 H   0  0  0  0  0  0
  -22.4016  -11.9744   22.4901 H   0  0  0  0  0  0
  -21.0923  -13.0998   22.2709 H   0  0  0  0  0  0
  -24.5800  -15.8636   20.5550 H   0  0  0  0  0  0
  -26.2054  -15.6770   20.1269 H   0  0  0  0  0  0
  -26.7818  -32.4511   23.0570 H   0  0  0  0  0  0
  -24.9980  -33.8948   24.9669 H   0  0  0  0  0  0
  -22.9439  -31.1599   21.2351 H   0  0  0  0  0  0
  -23.3793  -35.9306   23.3221 H   0  0  0  0  0  0
  -24.3548  -36.8822   22.2104 H   0  0  0  0  0  0
  -23.7225  -37.6129   23.6862 H   0  0  0  0  0  0
  -26.4415  -30.9714   20.6448 H   0  0  0  0  0  0
  -27.0177  -30.3722   22.1369 H   0  0  0  0  0  0
  -28.1948  -27.8773   21.3966 H   0  0  0  0  0  0
  -25.7671  -25.3538   18.9693 H   0  0  0  0  0  0
  -24.1239  -27.0740   18.8809 H   0  0  0  0  0  0
  -24.0885  -30.2879   19.3588 H   0  0  0  0  0  0
  -22.9643  -29.0451   19.7982 H   0  0  0  0  0  0
  -25.1401  -36.1390   25.0729 H   0  0  0  0  0  0
  -21.0090  -28.3493   24.1183 H   0  0  0  0  0  0
  -20.5619  -26.2468   23.3725 H   0  0  0  0  0  0
  -21.6665  -26.7295   22.1268 H   0  0  0  0  0  0
  -19.6940  -25.6228   21.1334 H   0  0  0  0  0  0
  -19.6756  -27.3093   20.6701 H   0  0  0  0  0  0
  -17.4250  -26.6713   21.4007 H   0  0  0  0  0  0
  -18.0342  -26.0138   22.9031 H   0  0  0  0  0  0
  -19.8024  -30.7391   24.2084 H   0  0  0  0  0  0
  -17.5081  -31.6283   24.5167 H   0  0  0  0  0  0
  -15.5413  -30.2952   23.7763 H   0  0  0  0  0  0
  -15.8748  -28.0793   22.7164 H   0  0  0  0  0  0
  -24.5850  -30.7181   25.7447 H   0  0  0  0  0  0
  -24.8737  -32.3150   26.4225 H   0  0  0  0  0  0
  -25.7657  -30.9283   27.0191 H   0  0  0  0  0  0
  -26.3513  -29.6145   24.2036 H   0  0  0  0  0  0
  -27.4018  -29.7386   25.5869 H   0  0  0  0  0  0
  -27.9529  -30.3726   24.0630 H   0  0  0  0  0  0
  -27.2489  -33.3854   26.1674 H   0  0  0  0  0  0
  -28.4028  -32.6764   25.0478 H   0  0  0  0  0  0
  -28.0471  -31.8833   26.5748 H   0  0  0  0  0  0
  -28.2488  -38.0022   24.7530 H   0  0  0  0  0  0
  -28.1119  -36.2537   24.6267 H   0  0  0  0  0  0
  -27.2264  -37.1249   25.8865 H   0  0  0  0  0  0
  -21.0034  -29.8530   21.6213 H   0  0  0  0  0  0
  -26.0021  -38.2552   24.1448 H   0  0  0  0  0  0
  -27.4076  -22.4986   21.0086 H   0  0  0  0  0  0
  -27.6029  -22.5536   19.3072 H   0  0  0  0  0  0
  -29.8290  -20.6743   19.4829 H   0  0  0  0  0  0
  -29.7129  -20.6754   21.1918 H   0  0  0  0  0  0
  1 25  1  0  0  0
  1 30  2  0  0  0
  1 73  1  0  0  0
  2  3  1  0  0  0
  2 25  1  0  0  0
  2 74  1  0  0  0
  2 75  1  0  0  0
  3  4  1  0  0  0
  3 76  1  0  0  0
  3 77  1  0  0  0
  4  5  1  0  0  0
  4 78  1  0  0  0
  4 79  1  0  0  0
  5  6  1  0  0  0
  5 26  1  0  0  0
  5 80  1  0  0  0
  6 25  1  0  0  0
  6 81  1  0  0  0
  6 82  1  0  0  0
  7  8  2  0  0  0
  7 26  1  0  0  0
  7 29  1  0  0  0
  8  9  1  0  0  0
  8 22  1  0  0  0
  9 10  1  0  0  0
  9 27  2  0  0  0
 10 11  2  0  0  0
 10 15  1  0  0  0
 11 12  1  0  0  0
 11 83  1  0  0  0
 12 13  2  0  0  0
 12 84  1  0  0  0
 13 14  1  0  0  0
 13 31  1  0  0  0
 14 15  2  0  0  0
 14 85  1  0  0  0
 15 86  1  0  0  0
 16 17  2  0  0  0
 16 21  1  0  0  0
 16 31  1  0  0  0
 17 18  1  0  0  0
 17 87  1  0  0  0
 18 19  2  0  0  0
 18 88  1  0  0  0
 19 20  1  0  0  0
 19 24  1  0  0  0
 20 21  2  0  0  0
 20 89  1  0  0  0
 21 23  1  0  0  0
 22 28  1  0  0  0
 22 32  2  0  0  0
 26 27  1  0  0  0
 28 90  1  0  0  0
 28 91  1  0  0  0
 29 92  1  0  0  0
 29 93  1  0  0  0
 33 34  1  0  0  0
 33 66  1  0  0  0
 33 70  2  0  0  0
 34 36  1  0  0  0
 34 59  1  0  0  0
 34 94  1  0  0  0
 35 44  2  0  0  0
 35 45  1  0  0  0
 35 68  1  0  0  0
 36 56  1  0  0  0
 36 95  1  0  0  0
 37 39  1  0  0  0
 37 47  1  0  0  0
 37 66  1  0  0  0
 37 96  1  0  0  0
 38 43  2  0  0  0
 38 46  1  0  0  0
 38 47  1  0  0  0
 39 64  1  0  0  0
 39 67  2  0  0  0
 40 52  1  0  0  0
 40 53  2  0  0  0
 40 58  1  0  0  0
 41 97  1  0  0  0
 41 98  1  0  0  0
 41 99  1  0  0  0
 41 48  1  0  0  0
 42 43  1  0  0  0
 42 66  1  0  0  0
 42100  1  0  0  0
 42101  1  0  0  0
 43 44  1  0  0  0
 44102  1  0  0  0
 45 46  2  0  0  0
 45103  1  0  0  0
 46104  1  0  0  0
 47105  1  0  0  0
 47106  1  0  0  0
 48 56  1  0  0  0
 48 65  1  0  0  0
 48107  1  0  0  0
 49 50  1  0  0  0
 49 53  1  0  0  0
 49 64  1  0  0  0
 49108  1  0  0  0
 50 51  1  0  0  0
 50109  1  0  0  0
 50110  1  0  0  0
 51 52  1  0  0  0
 51111  1  0  0  0
 51112  1  0  0  0
 52113  1  0  0  0
 52114  1  0  0  0
 53 54  1  0  0  0
 54 55  2  0  0  0
 54115  1  0  0  0
 55 57  1  0  0  0
 55116  1  0  0  0
 56 69  2  0  0  0
 57 58  2  0  0  0
 57117  1  0  0  0
 58118  1  0  0  0
 59 60  1  0  0  0
 59 61  1  0  0  0
 59 62  1  0  0  0
 60119  1  0  0  0
 60120  1  0  0  0
 60121  1  0  0  0
 61122  1  0  0  0
 61123  1  0  0  0
 61124  1  0  0  0
 62125  1  0  0  0
 62126  1  0  0  0
 62127  1  0  0  0
 63 65  1  0  0  0
 63128  1  0  0  0
 63129  1  0  0  0
 63130  1  0  0  0
 64131  1  0  0  0
 65132  1  0  0  0
 68 71  1  0  0  0
 71 72  1  0  0  0
 71133  1  0  0  0
 71134  1  0  0  0
 72 73  1  0  0  0
 72135  1  0  0  0
 72136  1  0  0  0
M  ISO  4   1 100  68 101  71 101  73 100
M  END
> <chiral flag>
0

> <version>
0

> <s_m_source_file>
/data/baiqing/PycharmProjects/Reinvent-master-3.2/result/LINK_invent/BTK/process_docking_weight1_custom_product_contain_oxygen_bond_distance_aromatic_linkinvent_7_9_3/rearranged_h_0007.sdf

> <i_m_source_file_index>
84

> <r_mmod_Potential_Energy-OPLS-2005>
6478.73583984375

> <r_mmod_Stretch_Energy-OPLS-2005>
3177.73461914062

> <r_mmod_Bend_Energy-OPLS-2005>
1063.67736816406

> <r_mmod_Torsional_Energy-OPLS-2005>
189.976089477539

> <r_mmod_Improper_Torsional_Energy-OPLS-2005>
3.2452130317688

> <r_mmod_Van_der_Waal_Energy-OPLS-2005>
117.621681213379

> <r_mmod_Electrostatic_Energy-OPLS-2005>
-321.906036376953

> <r_mmod_Solvation_Energy-OPLS-2005>
-209.133285522461

> <b_mmod_Minimization_Converged-OPLS-2005>
1

> <r_mmod_RMS_Derivative-OPLS-2005>
0.0454980842769146

$$$$
84
                    3D
 Structure written by MMmdl.
159167  0  0  1  0            999 V2000
  -30.6560  -14.5394   20.5065 C   0  0  0  0  0  0
  -30.4389  -12.3347   19.4381 C   0  0  0  0  0  0
  -29.5035  -12.4893   18.2215 C   0  0  0  0  0  0
  -28.0243  -12.3479   18.6361 C   0  0  0  0  0  0
  -27.6588  -13.2020   19.8796 C   0  0  2  0  0  0
  -28.7055  -13.0247   21.0012 C   0  0  0  0  0  0
  -25.2568  -13.8143   20.5671 C   0  0  0  0  0  0
  -24.1819  -13.0418   20.9174 C   0  0  0  0  0  0
  -24.6392  -11.6904   20.8807 C   0  0  0  0  0  0
  -23.9073  -10.4287   21.0429 C   0  0  0  0  0  0
  -24.3612   -9.4188   21.9183 C   0  0  0  0  0  0
  -23.6290   -8.2230   22.0752 C   0  0  0  0  0  0
  -22.4267   -8.0273   21.3532 C   0  0  0  0  0  0
  -21.9912   -9.0258   20.4642 C   0  0  0  0  0  0
  -22.7253  -10.2138   20.3056 C   0  0  0  0  0  0
  -21.6849   -6.0739   22.5285 C   0  0  0  0  0  0
  -21.4018   -6.5637   23.8220 C   0  0  0  0  0  0
  -21.3658   -5.6787   24.9177 C   0  0  0  0  0  0
  -21.6035   -4.3050   24.7218 C   0  0  0  0  0  0
  -21.8834   -3.8156   23.4341 C   0  0  0  0  0  0
  -21.9200   -4.6964   22.3398 C   0  0  0  0  0  0
  -22.7839  -13.5231   21.1838 C   0  0  0  0  0  0
  -22.1657   -4.2152   21.0972 F   0  0  0  0  0  0
  -21.5630   -3.4533   25.7732 F   0  0  0  0  0  0
  -30.0241  -13.3380   20.4276 N   0  0  0  0  0  0
  -26.3023  -12.9316   20.3448 N   0  0  0  0  0  0
  -25.9331  -11.6481   20.5879 N   0  0  0  0  0  0
  -22.0487  -12.8236   22.0432 N   0  0  0  0  0  0
  -25.4247  -15.1858   20.4011 N   0  0  0  0  0  0
  -31.8275  -14.7025   20.1567 O   0  0  0  0  0  0
  -21.6636   -6.8871   21.4245 O   0  0  0  0  0  0
  -22.3514  -14.5510   20.6667 O   0  0  0  0  0  0
  -24.6164  -31.8675   23.2101 C   0  0  0  0  0  0
  -25.9066  -32.4817   23.8396 C   0  0  1  0  0  0
  -27.2457  -27.4215   20.1160 C   0  0  0  0  0  0
  -25.5912  -33.8618   24.2329 N   0  0  0  0  0  0
  -23.4034  -30.4867   21.5527 C   0  0  2  0  0  0
  -24.8540  -28.9366   20.1314 C   0  0  0  0  0  0
  -22.7448  -29.4655   22.5074 C   0  0  0  0  0  0
  -18.0319  -28.1394   22.8524 C   0  0  0  0  0  0
  -24.1496  -36.7313   23.2640 C   0  0  0  0  0  0
  -25.9324  -30.8261   21.3648 C   0  0  0  0  0  0
  -26.0118  -29.4533   20.7276 C   0  0  0  0  0  0
  -27.2109  -28.7017   20.7170 C   0  0  0  0  0  0
  -26.0710  -26.9147   19.5250 C   0  0  0  0  0  0
  -24.8775  -27.6649   19.5299 C   0  0  0  0  0  0
  -23.6137  -29.8049   20.1732 C   0  0  0  0  0  0
  -25.4117  -36.3112   24.0347 C   0  0  1  0  0  0
  -20.5884  -28.3743   23.1434 C   0  0  2  0  0  0
  -20.6847  -26.9535   22.5443 C   0  0  0  0  0  0
  -19.5852  -26.6588   21.5206 C   0  0  0  0  0  0
  -18.2040  -26.7935   22.1683 C   0  0  0  0  0  0
  -19.1525  -28.8879   23.2969 C   0  0  0  0  0  0
  -18.9407  -30.1499   23.8958 C   0  0  0  0  0  0
  -17.6394  -30.6610   24.0547 C   0  0  0  0  0  0
  -25.9033  -34.9475   23.5127 C   0  0  0  0  0  0
  -16.5313  -29.9081   23.6269 C   0  0  0  0  0  0
  -16.7289  -28.6490   23.0331 C   0  0  0  0  0  0
  -26.4479  -31.6588   25.0720 C   0  0  0  0  0  0
  -25.3733  -31.3696   26.1452 C   0  0  0  0  0  0
  -27.0302  -30.3038   24.6087 C   0  0  0  0  0  0
  -27.6047  -32.4305   25.7483 C   0  0  0  0  0  0
  -27.5590  -37.1807   24.8471 C   0  0  0  0  0  0
  -21.4149  -29.3183   22.3947 N   0  0  0  0  0  0
  -26.4312  -37.3795   23.9395 N   0  0  0  0  0  0
  -24.6694  -31.0752   22.1007 N   0  0  0  0  0  0
  -23.4243  -28.8100   23.3006 O   0  0  0  0  0  0
  -28.4334  -26.7346   19.9897 O   0  0  0  0  0  0
  -26.5594  -34.8927   22.4691 O   0  0  0  0  0  0
  -23.5364  -32.1442   23.7457 O   0  0  0  0  0  0
  -28.1654  -20.5541   19.1528 C   0  0  0  0  0  0
  -28.2075  -19.3570   18.4144 C   0  0  0  0  0  0
  -29.4218  -19.4624   20.9282 C   0  0  0  0  0  0
  -28.7570  -20.6155   20.4294 C   0  0  0  0  0  0
  -28.8285  -18.1969   18.9287 C   0  0  0  0  0  0
  -29.4608  -18.2344   20.2083 C   0  0  0  0  0  0
  -28.8014  -16.9396   18.0756 C   0  0  0  0  0  0
  -30.1898  -17.0319   20.8748 C   0  0  0  0  0  0
  -28.5814  -21.8751   21.2980 C   0  0  0  0  0  0
  -28.2572  -24.2367   20.3570 C   0  0  0  0  0  0
  -28.7050  -25.6375   20.8783 C   0  0  0  0  0  0
  -29.8519  -15.5906   20.7977 N   0  0  0  0  0  0
  -29.1858  -23.1260   20.7600 N   0  3  0  0  0  0
  -31.4809  -12.4578   19.1351 H   0  0  0  0  0  0
  -30.3682  -11.3327   19.8600 H   0  0  0  0  0  0
  -29.7453  -11.7401   17.4675 H   0  0  0  0  0  0
  -29.6641  -13.4637   17.7538 H   0  0  0  0  0  0
  -27.8390  -11.2958   18.8465 H   0  0  0  0  0  0
  -27.3770  -12.6059   17.7965 H   0  0  0  0  0  0
  -27.6839  -14.2406   19.5590 H   0  0  0  0  0  0
  -28.7014  -12.0025   21.3823 H   0  0  0  0  0  0
  -28.4748  -13.6613   21.8574 H   0  0  0  0  0  0
  -25.2759   -9.5677   22.4744 H   0  0  0  0  0  0
  -24.0004   -7.4631   22.7470 H   0  0  0  0  0  0
  -21.0837   -8.8787   19.8941 H   0  0  0  0  0  0
  -22.3710  -10.9674   19.6158 H   0  0  0  0  0  0
  -21.2004   -7.6147   23.9725 H   0  0  0  0  0  0
  -21.1457   -6.0508   25.9074 H   0  0  0  0  0  0
  -22.0616   -2.7616   23.2841 H   0  0  0  0  0  0
  -22.4123  -11.9906   22.4822 H   0  0  0  0  0  0
  -21.1116  -13.1293   22.2702 H   0  0  0  0  0  0
  -24.6372  -15.8216   20.4423 H   0  0  0  0  0  0
  -26.2824  -15.6474   20.1273 H   0  0  0  0  0  0
  -26.7144  -32.5538   23.1165 H   0  0  0  0  0  0
  -25.0109  -33.9786   25.0506 H   0  0  0  0  0  0
  -22.6940  -31.3053   21.4067 H   0  0  0  0  0  0
  -23.3757  -35.9643   23.3320 H   0  0  0  0  0  0
  -24.3600  -36.8903   22.2047 H   0  0  0  0  0  0
  -23.7245  -37.6532   23.6637 H   0  0  0  0  0  0
  -26.0393  -31.5788   20.5822 H   0  0  0  0  0  0
  -26.8237  -30.8925   21.9778 H   0  0  0  0  0  0
  -28.1113  -29.1059   21.1569 H   0  0  0  0  0  0
  -26.0910  -25.9502   19.0384 H   0  0  0  0  0  0
  -23.9891  -27.2577   19.0627 H   0  0  0  0  0  0
  -23.7114  -30.5688   19.4018 H   0  0  0  0  0  0
  -22.7400  -29.2167   19.8889 H   0  0  0  0  0  0
  -25.1286  -36.1995   25.0847 H   0  0  0  0  0  0
  -20.9970  -28.3310   24.1556 H   0  0  0  0  0  0
  -20.5757  -26.2302   23.3530 H   0  0  0  0  0  0
  -21.6735  -26.7641   22.1247 H   0  0  0  0  0  0
  -19.7135  -25.6607   21.1030 H   0  0  0  0  0  0
  -19.6716  -27.3594   20.6880 H   0  0  0  0  0  0
  -17.4262  -26.6536   21.4176 H   0  0  0  0  0  0
  -18.0613  -26.0089   22.9126 H   0  0  0  0  0  0
  -19.7844  -30.7335   24.2371 H   0  0  0  0  0  0
  -17.4869  -31.6303   24.5095 H   0  0  0  0  0  0
  -15.5311  -30.2983   23.7539 H   0  0  0  0  0  0
  -15.8706  -28.0813   22.6997 H   0  0  0  0  0  0
  -24.5896  -30.7059   25.7791 H   0  0  0  0  0  0
  -24.8915  -32.2837   26.4923 H   0  0  0  0  0  0
  -25.8068  -30.8845   27.0198 H   0  0  0  0  0  0
  -26.2833  -29.6788   24.1175 H   0  0  0  0  0  0
  -27.4120  -29.7299   25.4535 H   0  0  0  0  0  0
  -27.8655  -30.4371   23.9211 H   0  0  0  0  0  0
  -27.2674  -33.3590   26.2108 H   0  0  0  0  0  0
  -28.3841  -32.6889   25.0301 H   0  0  0  0  0  0
  -28.0742  -31.8394   26.5351 H   0  0  0  0  0  0
  -28.2617  -38.0098   24.7508 H   0  0  0  0  0  0
  -28.1078  -36.2620   24.6315 H   0  0  0  0  0  0
  -27.2298  -37.1488   25.8878 H   0  0  0  0  0  0
  -20.9272  -29.9245   21.7505 H   0  0  0  0  0  0
  -26.0210  -38.2887   24.1372 H   0  0  0  0  0  0
  -27.6494  -21.4102   18.7400 H   0  0  0  0  0  0
  -27.7387  -19.3358   17.4401 H   0  0  0  0  0  0
  -29.8775  -19.4984   21.9071 H   0  0  0  0  0  0
  -28.2265  -17.0851   17.1597 H   0  0  0  0  0  0
  -28.3301  -16.1232   18.6139 H   0  0  0  0  0  0
  -29.8106  -16.6404   17.7944 H   0  0  0  0  0  0
  -30.6845  -16.9447   19.9069 H   0  0  0  0  0  0
  -29.1578  -16.9632   21.2214 H   0  0  0  0  0  0
  -29.0595  -21.6948   22.2624 H   0  0  0  0  0  0
  -27.5209  -22.0051   21.5209 H   0  0  0  0  0  0
  -28.2074  -24.2491   19.2687 H   0  0  0  0  0  0
  -27.2357  -24.0531   20.6938 H   0  0  0  0  0  0
  -29.7893  -25.6413   21.0045 H   0  0  0  0  0  0
  -28.2982  -25.8331   21.8710 H   0  0  0  0  0  0
  -28.8977  -15.3541   21.0214 H   0  0  0  0  0  0
  -29.8042  -22.8857   20.0022 H   0  0  0  0  0  0
  -29.7766  -23.4738   21.5003 H   0  0  0  0  0  0
  1 25  1  0  0  0
  1 30  2  0  0  0
  1 82  1  0  0  0
  2  3  1  0  0  0
  2 25  1  0  0  0
  2 84  1  0  0  0
  2 85  1  0  0  0
  3  4  1  0  0  0
  3 86  1  0  0  0
  3 87  1  0  0  0
  4  5  1  0  0  0
  4 88  1  0  0  0
  4 89  1  0  0  0
  5  6  1  0  0  0
  5 26  1  0  0  0
  5 90  1  0  0  0
  6 25  1  0  0  0
  6 91  1  0  0  0
  6 92  1  0  0  0
  7  8  2  0  0  0
  7 26  1  0  0  0
  7 29  1  0  0  0
  8  9  1  0  0  0
  8 22  1  0  0  0
  9 10  1  0  0  0
  9 27  2  0  0  0
 10 11  2  0  0  0
 10 15  1  0  0  0
 11 12  1  0  0  0
 11 93  1  0  0  0
 12 13  2  0  0  0
 12 94  1  0  0  0
 13 14  1  0  0  0
 13 31  1  0  0  0
 14 15  2  0  0  0
 14 95  1  0  0  0
 15 96  1  0  0  0
 16 17  2  0  0  0
 16 21  1  0  0  0
 16 31  1  0  0  0
 17 18  1  0  0  0
 17 97  1  0  0  0
 18 19  2  0  0  0
 18 98  1  0  0  0
 19 20  1  0  0  0
 19 24  1  0  0  0
 20 21  2  0  0  0
 20 99  1  0  0  0
 21 23  1  0  0  0
 22 28  1  0  0  0
 22 32  2  0  0  0
 26 27  1  0  0  0
 28100  1  0  0  0
 28101  1  0  0  0
 29102  1  0  0  0
 29103  1  0  0  0
 33 34  1  0  0  0
 33 66  1  0  0  0
 33 70  2  0  0  0
 34 36  1  0  0  0
 34 59  1  0  0  0
 34104  1  0  0  0
 35 44  2  0  0  0
 35 45  1  0  0  0
 35 68  1  0  0  0
 36 56  1  0  0  0
 36105  1  0  0  0
 37 39  1  0  0  0
 37 47  1  0  0  0
 37 66  1  0  0  0
 37106  1  0  0  0
 38 43  2  0  0  0
 38 46  1  0  0  0
 38 47  1  0  0  0
 39 64  1  0  0  0
 39 67  2  0  0  0
 40 52  1  0  0  0
 40 53  2  0  0  0
 40 58  1  0  0  0
 41107  1  0  0  0
 41108  1  0  0  0
 41109  1  0  0  0
 41 48  1  0  0  0
 42 43  1  0  0  0
 42 66  1  0  0  0
 42110  1  0  0  0
 42111  1  0  0  0
 43 44  1  0  0  0
 44112  1  0  0  0
 45 46  2  0  0  0
 45113  1  0  0  0
 46114  1  0  0  0
 47115  1  0  0  0
 47116  1  0  0  0
 48 56  1  0  0  0
 48 65  1  0  0  0
 48117  1  0  0  0
 49 50  1  0  0  0
 49 53  1  0  0  0
 49 64  1  0  0  0
 49118  1  0  0  0
 50 51  1  0  0  0
 50119  1  0  0  0
 50120  1  0  0  0
 51 52  1  0  0  0
 51121  1  0  0  0
 51122  1  0  0  0
 52123  1  0  0  0
 52124  1  0  0  0
 53 54  1  0  0  0
 54 55  2  0  0  0
 54125  1  0  0  0
 55 57  1  0  0  0
 55126  1  0  0  0
 56 69  2  0  0  0
 57 58  2  0  0  0
 57127  1  0  0  0
 58128  1  0  0  0
 59 60  1  0  0  0
 59 61  1  0  0  0
 59 62  1  0  0  0
 60129  1  0  0  0
 60130  1  0  0  0
 60131  1  0  0  0
 61132  1  0  0  0
 61133  1  0  0  0
 61134  1  0  0  0
 62135  1  0  0  0
 62136  1  0  0  0
 62137  1  0  0  0
 63 65  1  0  0  0
 63138  1  0  0  0
 63139  1  0  0  0
 63140  1  0  0  0
 64141  1  0  0  0
 65142  1  0  0  0
 68 81  1  0  0  0
 71 72  2  0  0  0
 71 74  1  0  0  0
 71143  1  0  0  0
 72 75  1  0  0  0
 72144  1  0  0  0
 73 74  2  0  0  0
 73 76  1  0  0  0
 73145  1  0  0  0
 74 79  1  0  0  0
 75 76  2  0  0  0
 75 77  1  0  0  0
 76 78  1  0  0  0
 77146  1  0  0  0
 77147  1  0  0  0
 77148  1  0  0  0
 78 82  1  0  0  0
 78149  1  0  0  0
 78150  1  0  0  0
 79 83  1  0  0  0
 79151  1  0  0  0
 79152  1  0  0  0
 80 81  1  0  0  0
 80 83  1  0  0  0
 80153  1  0  0  0
 80154  1  0  0  0
 81155  1  0  0  0
 81156  1  0  0  0
 82157  1  0  0  0
 83158  1  0  0  0
 83159  1  0  0  0
M  CHG  1  83   1
M  ISO  4   1 100  68 101  81 101  82 100
M  END
> <chiral flag>
0

> <version>
0

> <s_m_source_file>
/data/baiqing/PycharmProjects/Reinvent-master-3.2/result/LINK_invent/BTK/process_docking_weight1_custom_product_contain_oxygen_bond_distance_aromatic_linkinvent_7_9_3/rearranged_h_0007.sdf

> <i_m_source_file_index>
85

> <r_mmod_Potential_Energy-OPLS-2005>
-13.3452339172363

> <r_mmod_Stretch_Energy-OPLS-2005>
44.0704498291016

> <r_mmod_Bend_Energy-OPLS-2005>
315.723052978516

> <r_mmod_Torsional_Energy-OPLS-2005>
240.103225708008

> <r_mmod_Improper_Torsional_Energy-OPLS-2005>
5.17586708068848

> <r_mmod_Van_der_Waal_Energy-OPLS-2005>
146.175445556641

> <r_mmod_Electrostatic_Energy-OPLS-2005>
-327.688659667969

> <r_mmod_Solvation_Energy-OPLS-2005>
-457.024536132812

> <b_mmod_Minimization_Converged-OPLS-2005>
0

> <r_mmod_RMS_Derivative-OPLS-2005>
4.64644241333008

$$$$
85
                    3D
 Structure written by MMmdl.
159167  0  0  1  0            999 V2000
  -30.4245  -15.2677   20.4092 C   0  0  0  0  0  0
  -30.4337  -12.8243   19.5200 C   0  0  0  0  0  0
  -29.5278  -12.5793   18.2856 C   0  0  0  0  0  0
  -28.0822  -12.2829   18.7206 C   0  0  0  0  0  0
  -27.6038  -13.2665   19.8175 C   0  0  2  0  0  0
  -28.6352  -13.4458   20.9509 C   0  0  0  0  0  0
  -25.2358  -13.8228   20.5732 C   0  0  0  0  0  0
  -24.1711  -13.0413   20.9272 C   0  0  0  0  0  0
  -24.6378  -11.6919   20.8789 C   0  0  0  0  0  0
  -23.9078  -10.4278   21.0433 C   0  0  0  0  0  0
  -24.3630   -9.4195   21.9201 C   0  0  0  0  0  0
  -23.6311   -8.2227   22.0747 C   0  0  0  0  0  0
  -22.4285   -8.0280   21.3546 C   0  0  0  0  0  0
  -21.9927   -9.0252   20.4645 C   0  0  0  0  0  0
  -22.7261  -10.2130   20.3063 C   0  0  0  0  0  0
  -21.6846   -6.0753   22.5294 C   0  0  0  0  0  0
  -21.4010   -6.5658   23.8235 C   0  0  0  0  0  0
  -21.3641   -5.6802   24.9190 C   0  0  0  0  0  0
  -21.6028   -4.3070   24.7237 C   0  0  0  0  0  0
  -21.8817   -3.8165   23.4359 C   0  0  0  0  0  0
  -21.9189   -4.6984   22.3419 C   0  0  0  0  0  0
  -22.7748  -13.5187   21.1918 C   0  0  0  0  0  0
  -22.1662   -4.2168   21.1000 F   0  0  0  0  0  0
  -21.5606   -3.4551   25.7747 F   0  0  0  0  0  0
  -29.8619  -13.9637   20.3239 N   0  0  0  0  0  0
  -26.2762  -12.9480   20.3193 N   0  0  0  0  0  0
  -25.9296  -11.6590   20.5729 N   0  0  0  0  0  0
  -22.0416  -12.8155   22.0483 N   0  0  0  0  0  0
  -25.3999  -15.1944   20.4150 N   0  0  0  0  0  0
  -31.6527  -15.2747   20.2463 O   0  0  0  0  0  0
  -21.6640   -6.8896   21.4257 O   0  0  0  0  0  0
  -22.3419  -14.5495   20.6782 O   0  0  0  0  0  0
  -24.6610  -31.8246   23.1712 C   0  0  0  0  0  0
  -25.9260  -32.4626   23.8177 C   0  0  1  0  0  0
  -27.2087  -26.9191   20.1966 C   0  0  0  0  0  0
  -25.5936  -33.8439   24.2130 N   0  0  0  0  0  0
  -23.4774  -30.4348   21.5246 C   0  0  2  0  0  0
  -24.9231  -28.8118   20.1256 C   0  0  0  0  0  0
  -22.7643  -29.4450   22.4837 C   0  0  0  0  0  0
  -18.0317  -28.1422   22.8527 C   0  0  0  0  0  0
  -24.1443  -36.7126   23.2677 C   0  0  0  0  0  0
  -26.0476  -30.6243   21.4035 C   0  0  0  0  0  0
  -26.1098  -29.2116   20.7533 C   0  0  0  0  0  0
  -27.2496  -28.2899   20.7560 C   0  0  0  0  0  0
  -25.9891  -26.6630   19.5322 C   0  0  0  0  0  0
  -24.8876  -27.5558   19.4957 C   0  0  0  0  0  0
  -23.7136  -29.7444   20.1539 C   0  0  0  0  0  0
  -25.4103  -36.3008   24.0372 C   0  0  1  0  0  0
  -20.5943  -28.3740   23.1238 C   0  0  2  0  0  0
  -20.6790  -26.9421   22.5458 C   0  0  0  0  0  0
  -19.5763  -26.6394   21.5273 C   0  0  0  0  0  0
  -18.1927  -26.7984   22.1630 C   0  0  0  0  0  0
  -19.1582  -28.8902   23.2874 C   0  0  0  0  0  0
  -18.9504  -30.1499   23.8897 C   0  0  0  0  0  0
  -17.6491  -30.6619   24.0585 C   0  0  0  0  0  0
  -25.9068  -34.9387   23.5071 C   0  0  0  0  0  0
  -16.5380  -29.9116   23.6377 C   0  0  0  0  0  0
  -16.7302  -28.6513   23.0421 C   0  0  0  0  0  0
  -26.4523  -31.6569   25.0695 C   0  0  0  0  0  0
  -25.3651  -31.3797   26.1357 C   0  0  0  0  0  0
  -27.0434  -30.2958   24.6402 C   0  0  0  0  0  0
  -27.6060  -32.4363   25.7420 C   0  0  0  0  0  0
  -27.5553  -37.1737   24.8522 C   0  0  0  0  0  0
  -21.4314  -29.3020   22.3559 N   0  0  0  0  0  0
  -26.4259  -37.3749   23.9458 N   0  0  0  0  0  0
  -24.7511  -30.9895   22.0860 N   0  0  0  0  0  0
  -23.4192  -28.8047   23.3089 O   0  0  0  0  0  0
  -28.2367  -25.8411   20.1828 O   0  0  0  0  0  0
  -26.5681  -34.8929   22.4674 O   0  0  0  0  0  0
  -23.5667  -32.1199   23.6792 O   0  0  0  0  0  0
  -31.0111  -22.4572   19.0294 C   0  0  0  0  0  0
  -31.2643  -22.5761   20.5350 C   0  0  0  0  0  0
  -29.5697  -22.8967   18.7214 C   0  0  0  0  0  0
  -30.4608  -21.4836   21.2696 C   0  0  0  0  0  0
  -28.5958  -22.6336   19.9026 C   0  0  2  0  0  0
  -29.7179  -18.2477   22.3460 C   0  0  0  0  0  0
  -28.1097  -24.2424   20.5914 C   0  0  0  0  0  0
  -29.0349  -19.6425   20.1542 C   0  0  0  0  0  0
  -29.8351  -18.1596   20.8109 C   0  0  2  0  0  0
  -29.6404  -16.5269   20.4833 N   0  0  0  0  0  0
  -29.1091  -21.2360   20.6825 N   0  3  1  0  0  0
  -31.4488  -13.0455   19.1879 H   0  0  0  0  0  0
  -30.5123  -11.9244   20.1319 H   0  0  0  0  0  0
  -29.9196  -11.7578   17.6841 H   0  0  0  0  0  0
  -29.5352  -13.4633   17.6452 H   0  0  0  0  0  0
  -28.0579  -11.2642   19.1086 H   0  0  0  0  0  0
  -27.4081  -12.2986   17.8632 H   0  0  0  0  0  0
  -27.5155  -14.2272   19.3084 H   0  0  0  0  0  0
  -28.8120  -12.5087   21.4809 H   0  0  0  0  0  0
  -28.2652  -14.1570   21.6915 H   0  0  0  0  0  0
  -25.2776   -9.5663   22.4775 H   0  0  0  0  0  0
  -24.0026   -7.4601   22.7437 H   0  0  0  0  0  0
  -21.0864   -8.8777   19.8935 H   0  0  0  0  0  0
  -22.3741  -10.9671   19.6160 H   0  0  0  0  0  0
  -21.2014   -7.6170   23.9747 H   0  0  0  0  0  0
  -21.1440   -6.0537   25.9094 H   0  0  0  0  0  0
  -22.0601   -2.7628   23.2863 H   0  0  0  0  0  0
  -22.4083  -11.9838   22.4865 H   0  0  0  0  0  0
  -21.1009  -13.1104   22.2684 H   0  0  0  0  0  0
  -24.6197  -15.8381   20.4983 H   0  0  0  0  0  0
  -26.2404  -15.6363   20.0667 H   0  0  0  0  0  0
  -26.7304  -32.5153   23.0862 H   0  0  0  0  0  0
  -25.0143  -33.9530   25.0321 H   0  0  0  0  0  0
  -22.7956  -31.2691   21.3526 H   0  0  0  0  0  0
  -23.3796  -35.9373   23.3396 H   0  0  0  0  0  0
  -24.3508  -36.8661   22.2079 H   0  0  0  0  0  0
  -23.7066  -37.6293   23.6629 H   0  0  0  0  0  0
  -26.2368  -31.3592   20.6211 H   0  0  0  0  0  0
  -26.9064  -30.6771   22.0599 H   0  0  0  0  0  0
  -28.1516  -28.6007   21.2625 H   0  0  0  0  0  0
  -25.8661  -25.7042   19.0460 H   0  0  0  0  0  0
  -23.9832  -27.2398   18.9925 H   0  0  0  0  0  0
  -23.8708  -30.5108   19.3946 H   0  0  0  0  0  0
  -22.8221  -29.1994   19.8391 H   0  0  0  0  0  0
  -25.1292  -36.1867   25.0875 H   0  0  0  0  0  0
  -21.0052  -28.3350   24.1354 H   0  0  0  0  0  0
  -20.5684  -26.2355   23.3691 H   0  0  0  0  0  0
  -21.6652  -26.7407   22.1251 H   0  0  0  0  0  0
  -19.6917  -25.6313   21.1282 H   0  0  0  0  0  0
  -19.6728  -27.3238   20.6837 H   0  0  0  0  0  0
  -17.4234  -26.6846   21.3980 H   0  0  0  0  0  0
  -18.0208  -26.0116   22.8983 H   0  0  0  0  0  0
  -19.7977  -30.7328   24.2250 H   0  0  0  0  0  0
  -17.5052  -31.6317   24.5161 H   0  0  0  0  0  0
  -15.5380  -30.3009   23.7739 H   0  0  0  0  0  0
  -15.8694  -28.0823   22.7185 H   0  0  0  0  0  0
  -24.5993  -30.6941   25.7721 H   0  0  0  0  0  0
  -24.8620  -32.2945   26.4494 H   0  0  0  0  0  0
  -25.7926  -30.9254   27.0301 H   0  0  0  0  0  0
  -26.3136  -29.6660   24.1314 H   0  0  0  0  0  0
  -27.3917  -29.7300   25.5043 H   0  0  0  0  0  0
  -27.9077  -30.4222   23.9880 H   0  0  0  0  0  0
  -27.2759  -33.3844   26.1664 H   0  0  0  0  0  0
  -28.3977  -32.6592   25.0258 H   0  0  0  0  0  0
  -28.0554  -31.8649   26.5542 H   0  0  0  0  0  0
  -28.2675  -37.9941   24.7526 H   0  0  0  0  0  0
  -28.0934  -36.2483   24.6407 H   0  0  0  0  0  0
  -27.2273  -37.1477   25.8931 H   0  0  0  0  0  0
  -20.9556  -29.8614   21.6621 H   0  0  0  0  0  0
  -26.0142  -38.2827   24.1470 H   0  0  0  0  0  0
  -31.1524  -21.4132   18.7394 H   0  0  0  0  0  0
  -31.7270  -23.0319   18.4398 H   0  0  0  0  0  0
  -30.9680  -23.5653   20.8874 H   0  0  0  0  0  0
  -32.3267  -22.4830   20.7625 H   0  0  0  0  0  0
  -29.2291  -22.3858   17.8200 H   0  0  0  0  0  0
  -29.5616  -23.9587   18.4694 H   0  0  0  0  0  0
  -30.3590  -21.7363   22.3246 H   0  0  0  0  0  0
  -31.0566  -20.5740   21.2335 H   0  0  0  0  0  0
  -27.6730  -22.2969   19.4289 H   0  0  0  0  0  0
  -30.0121  -19.2227   22.7313 H   0  0  0  0  0  0
  -30.3558  -17.5172   22.8450 H   0  0  0  0  0  0
  -28.6922  -18.0718   22.6731 H   0  0  0  0  0  0
  -28.5970  -24.2553   21.5660 H   0  0  0  0  0  0
  -27.0590  -24.1270   20.8598 H   0  0  0  0  0  0
  -27.9717  -19.4160   20.0747 H   0  0  0  0  0  0
  -29.3716  -19.6950   19.1196 H   0  0  0  0  0  0
  -30.8913  -18.3207   20.5895 H   0  0  0  0  0  0
  -28.6583  -16.2999   20.4534 H   0  0  0  0  0  0
  -28.5090  -21.1910   21.4929 H   0  0  0  0  0  0
  1 25  1  0  0  0
  1 30  2  0  0  0
  1 80  1  0  0  0
  2  3  1  0  0  0
  2 25  1  0  0  0
  2 82  1  0  0  0
  2 83  1  0  0  0
  3  4  1  0  0  0
  3 84  1  0  0  0
  3 85  1  0  0  0
  4  5  1  0  0  0
  4 86  1  0  0  0
  4 87  1  0  0  0
  5  6  1  0  0  0
  5 26  1  0  0  0
  5 88  1  0  0  0
  6 25  1  0  0  0
  6 89  1  0  0  0
  6 90  1  0  0  0
  7  8  2  0  0  0
  7 26  1  0  0  0
  7 29  1  0  0  0
  8  9  1  0  0  0
  8 22  1  0  0  0
  9 10  1  0  0  0
  9 27  2  0  0  0
 10 11  2  0  0  0
 10 15  1  0  0  0
 11 12  1  0  0  0
 11 91  1  0  0  0
 12 13  2  0  0  0
 12 92  1  0  0  0
 13 14  1  0  0  0
 13 31  1  0  0  0
 14 15  2  0  0  0
 14 93  1  0  0  0
 15 94  1  0  0  0
 16 17  2  0  0  0
 16 21  1  0  0  0
 16 31  1  0  0  0
 17 18  1  0  0  0
 17 95  1  0  0  0
 18 19  2  0  0  0
 18 96  1  0  0  0
 19 20  1  0  0  0
 19 24  1  0  0  0
 20 21  2  0  0  0
 20 97  1  0  0  0
 21 23  1  0  0  0
 22 28  1  0  0  0
 22 32  2  0  0  0
 26 27  1  0  0  0
 28 98  1  0  0  0
 28 99  1  0  0  0
 29100  1  0  0  0
 29101  1  0  0  0
 33 34  1  0  0  0
 33 66  1  0  0  0
 33 70  2  0  0  0
 34 36  1  0  0  0
 34 59  1  0  0  0
 34102  1  0  0  0
 35 44  2  0  0  0
 35 45  1  0  0  0
 35 68  1  0  0  0
 36 56  1  0  0  0
 36103  1  0  0  0
 37 39  1  0  0  0
 37 47  1  0  0  0
 37 66  1  0  0  0
 37104  1  0  0  0
 38 43  2  0  0  0
 38 46  1  0  0  0
 38 47  1  0  0  0
 39 64  1  0  0  0
 39 67  2  0  0  0
 40 52  1  0  0  0
 40 53  2  0  0  0
 40 58  1  0  0  0
 41105  1  0  0  0
 41106  1  0  0  0
 41107  1  0  0  0
 41 48  1  0  0  0
 42 43  1  0  0  0
 42 66  1  0  0  0
 42108  1  0  0  0
 42109  1  0  0  0
 43 44  1  0  0  0
 44110  1  0  0  0
 45 46  2  0  0  0
 45111  1  0  0  0
 46112  1  0  0  0
 47113  1  0  0  0
 47114  1  0  0  0
 48 56  1  0  0  0
 48 65  1  0  0  0
 48115  1  0  0  0
 49 50  1  0  0  0
 49 53  1  0  0  0
 49 64  1  0  0  0
 49116  1  0  0  0
 50 51  1  0  0  0
 50117  1  0  0  0
 50118  1  0  0  0
 51 52  1  0  0  0
 51119  1  0  0  0
 51120  1  0  0  0
 52121  1  0  0  0
 52122  1  0  0  0
 53 54  1  0  0  0
 54 55  2  0  0  0
 54123  1  0  0  0
 55 57  1  0  0  0
 55124  1  0  0  0
 56 69  2  0  0  0
 57 58  2  0  0  0
 57125  1  0  0  0
 58126  1  0  0  0
 59 60  1  0  0  0
 59 61  1  0  0  0
 59 62  1  0  0  0
 60127  1  0  0  0
 60128  1  0  0  0
 60129  1  0  0  0
 61130  1  0  0  0
 61131  1  0  0  0
 61132  1  0  0  0
 62133  1  0  0  0
 62134  1  0  0  0
 62135  1  0  0  0
 63 65  1  0  0  0
 63136  1  0  0  0
 63137  1  0  0  0
 63138  1  0  0  0
 64139  1  0  0  0
 65140  1  0  0  0
 68 77  1  0  0  0
 71 72  1  0  0  0
 71 73  1  0  0  0
 71141  1  0  0  0
 71142  1  0  0  0
 72 74  1  0  0  0
 72143  1  0  0  0
 72144  1  0  0  0
 73 75  1  0  0  0
 73145  1  0  0  0
 73146  1  0  0  0
 74 81  1  0  0  0
 74147  1  0  0  0
 74148  1  0  0  0
 75 77  1  0  0  0
 75 81  1  0  0  0
 75149  1  0  0  0
 76150  1  0  0  0
 76151  1  0  0  0
 76152  1  0  0  0
 76 79  1  0  0  0
 77153  1  0  0  0
 77154  1  0  0  0
 78 79  1  0  0  0
 78155  1  0  0  0
 78156  1  0  0  0
 78 81  1  0  0  0
 79 80  1  0  0  0
 79157  1  0  0  0
 80158  1  0  0  0
 81159  1  0  0  0
M  CHG  1  81   1
M  ISO  4   1 100  68 101  77 101  80 100
M  END
> <chiral flag>
0

> <version>
0

> <s_m_source_file>
/data/baiqing/PycharmProjects/Reinvent-master-3.2/result/LINK_invent/BTK/process_docking_weight1_custom_product_contain_oxygen_bond_distance_aromatic_linkinvent_7_9_3/rearranged_h_0007.sdf

> <i_m_source_file_index>
86

> <r_mmod_Potential_Energy-OPLS-2005>
1325.00012207031

> <r_mmod_Stretch_Energy-OPLS-2005>
624.425659179688

> <r_mmod_Bend_Energy-OPLS-2005>
453.634338378906

> <r_mmod_Torsional_Energy-OPLS-2005>
317.813781738281

> <r_mmod_Improper_Torsional_Energy-OPLS-2005>
4.17987394332886

> <r_mmod_Van_der_Waal_Energy-OPLS-2005>
119.044937133789

> <r_mmod_Electrostatic_Energy-OPLS-2005>
-212.934432983398

> <r_mmod_Solvation_Energy-OPLS-2005>
-442.802307128906

> <b_mmod_Minimization_Converged-OPLS-2005>
0

> <r_mmod_RMS_Derivative-OPLS-2005>
4.07420206069946

$$$$
86
                    3D
 Structure written by MMmdl.
158167  0  0  1  0            999 V2000
  -30.5165  -14.9390   20.5625 C   0  0  0  0  0  0
  -30.4574  -12.6162   19.5010 C   0  0  0  0  0  0
  -29.5341  -12.5626   18.2550 C   0  0  0  0  0  0
  -28.0601  -12.3333   18.6474 C   0  0  0  0  0  0
  -27.6356  -13.2302   19.8357 C   0  0  2  0  0  0
  -28.6639  -13.1419   20.9734 C   0  0  0  0  0  0
  -25.2501  -13.8139   20.5615 C   0  0  0  0  0  0
  -24.1802  -13.0411   20.9173 C   0  0  0  0  0  0
  -24.6379  -11.6893   20.8692 C   0  0  0  0  0  0
  -23.9044  -10.4293   21.0395 C   0  0  0  0  0  0
  -24.3606   -9.4215   21.9183 C   0  0  0  0  0  0
  -23.6294   -8.2231   22.0744 C   0  0  0  0  0  0
  -22.4271   -8.0271   21.3536 C   0  0  0  0  0  0
  -21.9892   -9.0249   20.4645 C   0  0  0  0  0  0
  -22.7213  -10.2137   20.3052 C   0  0  0  0  0  0
  -21.6848   -6.0740   22.5299 C   0  0  0  0  0  0
  -21.4007   -6.5636   23.8238 C   0  0  0  0  0  0
  -21.3650   -5.6785   24.9191 C   0  0  0  0  0  0
  -21.6034   -4.3045   24.7238 C   0  0  0  0  0  0
  -21.8824   -3.8147   23.4355 C   0  0  0  0  0  0
  -21.9193   -4.6966   22.3418 C   0  0  0  0  0  0
  -22.7844  -13.5225   21.1866 C   0  0  0  0  0  0
  -22.1649   -4.2149   21.0989 F   0  0  0  0  0  0
  -21.5640   -3.4533   25.7745 F   0  0  0  0  0  0
  -29.9453  -13.6569   20.4502 N   0  0  0  0  0  0
  -26.2870  -12.9337   20.3060 N   0  0  0  0  0  0
  -25.9274  -11.6484   20.5571 N   0  0  0  0  0  0
  -22.0446  -12.8251   22.0418 N   0  0  0  0  0  0
  -25.4172  -15.1870   20.4107 N   0  0  0  0  0  0
  -31.6523  -15.0703   20.0831 O   0  0  0  0  0  0
  -21.6625   -6.8869   21.4256 O   0  0  0  0  0  0
  -22.3566  -14.5559   20.6727 O   0  0  0  0  0  0
  -24.6395  -31.8410   23.1848 C   0  0  0  0  0  0
  -25.9166  -32.4683   23.8224 C   0  0  1  0  0  0
  -27.2242  -27.1432   20.1733 C   0  0  0  0  0  0
  -25.5921  -33.8480   24.2153 N   0  0  0  0  0  0
  -23.4426  -30.4569   21.5293 C   0  0  2  0  0  0
  -24.8997  -28.8858   20.1099 C   0  0  0  0  0  0
  -22.7531  -29.4500   22.4843 C   0  0  0  0  0  0
  -18.0271  -28.1377   22.8463 C   0  0  0  0  0  0
  -24.1484  -36.7258   23.2639 C   0  0  0  0  0  0
  -25.9958  -30.7231   21.3767 C   0  0  0  0  0  0
  -26.0715  -29.3302   20.7319 C   0  0  0  0  0  0
  -27.2343  -28.4742   20.7515 C   0  0  0  0  0  0
  -26.0335  -26.8049   19.4911 C   0  0  0  0  0  0
  -24.8935  -27.6367   19.4702 C   0  0  0  0  0  0
  -23.6695  -29.7787   20.1504 C   0  0  0  0  0  0
  -25.4115  -36.3017   24.0303 C   0  0  1  0  0  0
  -20.5887  -28.3662   23.1242 C   0  0  2  0  0  0
  -20.6754  -26.9364   22.5401 C   0  0  0  0  0  0
  -19.5741  -26.6356   21.5184 C   0  0  0  0  0  0
  -18.1916  -26.7914   22.1601 C   0  0  0  0  0  0
  -19.1531  -28.8836   23.2851 C   0  0  0  0  0  0
  -18.9471  -30.1459   23.8845 C   0  0  0  0  0  0
  -17.6471  -30.6583   24.0540 C   0  0  0  0  0  0
  -25.9062  -34.9395   23.5037 C   0  0  0  0  0  0
  -16.5352  -29.9081   23.6346 C   0  0  0  0  0  0
  -16.7266  -28.6508   23.0344 C   0  0  0  0  0  0
  -26.4507  -31.6556   25.0663 C   0  0  0  0  0  0
  -25.3703  -31.3736   26.1368 C   0  0  0  0  0  0
  -27.0357  -30.2963   24.6196 C   0  0  0  0  0  0
  -27.6047  -32.4292   25.7437 C   0  0  0  0  0  0
  -27.5561  -37.1775   24.8462 C   0  0  0  0  0  0
  -21.4216  -29.3004   22.3619 N   0  0  0  0  0  0
  -26.4273  -37.3741   23.9406 N   0  0  0  0  0  0
  -24.7117  -31.0273   22.0873 N   0  0  0  0  0  0
  -23.4186  -28.8036   23.2980 O   0  0  0  0  0  0
  -28.2751  -26.1617   20.2848 O   0  0  0  0  0  0
  -26.5651  -34.8898   22.4622 O   0  0  0  0  0  0
  -23.5521  -32.1238   23.7104 O   0  0  0  0  0  0
  -29.9410  -18.2075   19.5563 C   0  0  0  0  0  0
  -29.6936  -19.6225   19.3034 C   0  0  0  0  0  0
  -29.0531  -19.9674   21.5343 C   0  0  0  0  0  0
  -29.2587  -18.5454   21.7934 C   0  0  0  0  0  0
  -29.7148  -17.5643   20.8182 C   0  0  0  0  0  0
  -29.2324  -20.5938   20.2633 C   0  0  0  0  0  0
  -28.8934  -18.0839   23.1999 C   0  0  0  0  0  0
  -29.3622  -15.7840   22.5359 C   0  0  0  0  0  0
  -29.1591  -16.3576   24.9248 C   0  0  0  0  0  0
  -28.0203  -24.6400   20.0717 C   0  0  0  0  0  0
  -28.8895  -23.2992   20.6193 C   0  0  0  0  0  0
  -29.8342  -16.0551   21.1608 N   0  0  0  0  0  0
  -29.5597  -16.8223   23.5734 N   0  3  2  0  0  0
  -28.9033  -21.9632   19.8582 O   0  0  0  0  0  0
  -31.4788  -12.8256   19.1785 H   0  0  0  0  0  0
  -30.5061  -11.6400   19.9831 H   0  0  0  0  0  0
  -29.8719  -11.7779   17.5732 H   0  0  0  0  0  0
  -29.6189  -13.5013   17.7052 H   0  0  0  0  0  0
  -27.9453  -11.2823   18.9186 H   0  0  0  0  0  0
  -27.4055  -12.4965   17.7902 H   0  0  0  0  0  0
  -27.6293  -14.2535   19.4613 H   0  0  0  0  0  0
  -28.7701  -12.1036   21.2920 H   0  0  0  0  0  0
  -28.2771  -13.6431   21.8507 H   0  0  0  0  0  0
  -25.2741   -9.5722   22.4769 H   0  0  0  0  0  0
  -24.0019   -7.4622   22.7442 H   0  0  0  0  0  0
  -21.0829   -8.8759   19.8945 H   0  0  0  0  0  0
  -22.3657  -10.9672   19.6166 H   0  0  0  0  0  0
  -21.1978   -7.6139   23.9765 H   0  0  0  0  0  0
  -21.1465   -6.0483   25.9099 H   0  0  0  0  0  0
  -22.0609   -2.7594   23.2854 H   0  0  0  0  0  0
  -22.4018  -11.9919   22.4856 H   0  0  0  0  0  0
  -21.1073  -13.1321   22.2577 H   0  0  0  0  0  0
  -24.6341  -15.8222   20.5189 H   0  0  0  0  0  0
  -26.2312  -15.6323   20.0045 H   0  0  0  0  0  0
  -26.7216  -32.5282   23.0934 H   0  0  0  0  0  0
  -25.0037  -33.9586   25.0270 H   0  0  0  0  0  0
  -22.7459  -31.2826   21.3700 H   0  0  0  0  0  0
  -23.3743  -35.9599   23.3283 H   0  0  0  0  0  0
  -24.3586  -36.8901   22.2066 H   0  0  0  0  0  0
  -23.7245  -37.6447   23.6693 H   0  0  0  0  0  0
  -26.1354  -31.4690   20.5934 H   0  0  0  0  0  0
  -26.8744  -30.7898   22.0073 H   0  0  0  0  0  0
  -28.1226  -28.8090   21.2697 H   0  0  0  0  0  0
  -25.9524  -25.8559   18.9844 H   0  0  0  0  0  0
  -24.0003  -27.2922   18.9672 H   0  0  0  0  0  0
  -23.7926  -30.5441   19.3841 H   0  0  0  0  0  0
  -22.7914  -29.2048   19.8511 H   0  0  0  0  0  0
  -25.1314  -36.1833   25.0798 H   0  0  0  0  0  0
  -20.9985  -28.3230   24.1364 H   0  0  0  0  0  0
  -20.5584  -26.2253   23.3599 H   0  0  0  0  0  0
  -21.6618  -26.7320   22.1223 H   0  0  0  0  0  0
  -19.6869  -25.6267   21.1215 H   0  0  0  0  0  0
  -19.6707  -27.3161   20.6720 H   0  0  0  0  0  0
  -17.4172  -26.6608   21.4048 H   0  0  0  0  0  0
  -18.0364  -26.0090   22.9044 H   0  0  0  0  0  0
  -19.7953  -30.7292   24.2172 H   0  0  0  0  0  0
  -17.5030  -31.6268   24.5150 H   0  0  0  0  0  0
  -15.5356  -30.2967   23.7733 H   0  0  0  0  0  0
  -15.8652  -28.0845   22.7058 H   0  0  0  0  0  0
  -24.5920  -30.7029   25.7714 H   0  0  0  0  0  0
  -24.8853  -32.2915   26.4700 H   0  0  0  0  0  0
  -25.8021  -30.8994   27.0194 H   0  0  0  0  0  0
  -26.2960  -29.6693   24.1215 H   0  0  0  0  0  0
  -27.4017  -29.7254   25.4742 H   0  0  0  0  0  0
  -27.8840  -30.4221   23.9467 H   0  0  0  0  0  0
  -27.2672  -33.3632   26.1937 H   0  0  0  0  0  0
  -28.3915  -32.6756   25.0299 H   0  0  0  0  0  0
  -28.0640  -31.8435   26.5412 H   0  0  0  0  0  0
  -28.2567  -38.0082   24.7522 H   0  0  0  0  0  0
  -28.1059  -36.2612   24.6279 H   0  0  0  0  0  0
  -27.2278  -37.1415   25.8863 H   0  0  0  0  0  0
  -20.9394  -29.8774   21.6869 H   0  0  0  0  0  0
  -26.0121  -38.2786   24.1472 H   0  0  0  0  0  0
  -30.2823  -17.6054   18.7257 H   0  0  0  0  0  0
  -29.8655  -19.9768   18.2969 H   0  0  0  0  0  0
  -28.6804  -20.5850   22.3408 H   0  0  0  0  0  0
  -27.8094  -17.9661   23.2508 H   0  0  0  0  0  0
  -29.1582  -18.8566   23.9236 H   0  0  0  0  0  0
  -29.8029  -14.8654   22.9306 H   0  0  0  0  0  0
  -28.2841  -15.6261   22.4849 H   0  0  0  0  0  0
  -29.3973  -17.1002   25.6869 H   0  0  0  0  0  0
  -29.6864  -15.4435   25.1980 H   0  0  0  0  0  0
  -28.0878  -16.1542   24.9780 H   0  0  0  0  0  0
  -27.9843  -24.5329   18.9888 H   0  0  0  0  0  0
  -27.0002  -24.4419   20.4028 H   0  0  0  0  0  0
  -28.6213  -23.1085   21.6605 H   0  0  0  0  0  0
  -29.9359  -23.6063   20.6556 H   0  0  0  0  0  0
  -30.5467  -17.0191   23.6240 H   0  0  0  0  0  0
  1 25  1  0  0  0
  1 30  2  0  0  0
  1 82  1  0  0  0
  2  3  1  0  0  0
  2 25  1  0  0  0
  2 85  1  0  0  0
  2 86  1  0  0  0
  3  4  1  0  0  0
  3 87  1  0  0  0
  3 88  1  0  0  0
  4  5  1  0  0  0
  4 89  1  0  0  0
  4 90  1  0  0  0
  5  6  1  0  0  0
  5 26  1  0  0  0
  5 91  1  0  0  0
  6 25  1  0  0  0
  6 92  1  0  0  0
  6 93  1  0  0  0
  7  8  2  0  0  0
  7 26  1  0  0  0
  7 29  1  0  0  0
  8  9  1  0  0  0
  8 22  1  0  0  0
  9 10  1  0  0  0
  9 27  2  0  0  0
 10 11  2  0  0  0
 10 15  1  0  0  0
 11 12  1  0  0  0
 11 94  1  0  0  0
 12 13  2  0  0  0
 12 95  1  0  0  0
 13 14  1  0  0  0
 13 31  1  0  0  0
 14 15  2  0  0  0
 14 96  1  0  0  0
 15 97  1  0  0  0
 16 17  2  0  0  0
 16 21  1  0  0  0
 16 31  1  0  0  0
 17 18  1  0  0  0
 17 98  1  0  0  0
 18 19  2  0  0  0
 18 99  1  0  0  0
 19 20  1  0  0  0
 19 24  1  0  0  0
 20 21  2  0  0  0
 20100  1  0  0  0
 21 23  1  0  0  0
 22 28  1  0  0  0
 22 32  2  0  0  0
 26 27  1  0  0  0
 28101  1  0  0  0
 28102  1  0  0  0
 29103  1  0  0  0
 29104  1  0  0  0
 33 34  1  0  0  0
 33 66  1  0  0  0
 33 70  2  0  0  0
 34 36  1  0  0  0
 34 59  1  0  0  0
 34105  1  0  0  0
 35 44  2  0  0  0
 35 45  1  0  0  0
 35 68  1  0  0  0
 36 56  1  0  0  0
 36106  1  0  0  0
 37 39  1  0  0  0
 37 47  1  0  0  0
 37 66  1  0  0  0
 37107  1  0  0  0
 38 43  2  0  0  0
 38 46  1  0  0  0
 38 47  1  0  0  0
 39 64  1  0  0  0
 39 67  2  0  0  0
 40 52  1  0  0  0
 40 53  2  0  0  0
 40 58  1  0  0  0
 41108  1  0  0  0
 41109  1  0  0  0
 41110  1  0  0  0
 41 48  1  0  0  0
 42 43  1  0  0  0
 42 66  1  0  0  0
 42111  1  0  0  0
 42112  1  0  0  0
 43 44  1  0  0  0
 44113  1  0  0  0
 45 46  2  0  0  0
 45114  1  0  0  0
 46115  1  0  0  0
 47116  1  0  0  0
 47117  1  0  0  0
 48 56  1  0  0  0
 48 65  1  0  0  0
 48118  1  0  0  0
 49 50  1  0  0  0
 49 53  1  0  0  0
 49 64  1  0  0  0
 49119  1  0  0  0
 50 51  1  0  0  0
 50120  1  0  0  0
 50121  1  0  0  0
 51 52  1  0  0  0
 51122  1  0  0  0
 51123  1  0  0  0
 52124  1  0  0  0
 52125  1  0  0  0
 53 54  1  0  0  0
 54 55  2  0  0  0
 54126  1  0  0  0
 55 57  1  0  0  0
 55127  1  0  0  0
 56 69  2  0  0  0
 57 58  2  0  0  0
 57128  1  0  0  0
 58129  1  0  0  0
 59 60  1  0  0  0
 59 61  1  0  0  0
 59 62  1  0  0  0
 60130  1  0  0  0
 60131  1  0  0  0
 60132  1  0  0  0
 61133  1  0  0  0
 61134  1  0  0  0
 61135  1  0  0  0
 62136  1  0  0  0
 62137  1  0  0  0
 62138  1  0  0  0
 63 65  1  0  0  0
 63139  1  0  0  0
 63140  1  0  0  0
 63141  1  0  0  0
 64142  1  0  0  0
 65143  1  0  0  0
 68 80  1  0  0  0
 71 72  2  0  0  0
 71 75  1  0  0  0
 71144  1  0  0  0
 72 76  1  0  0  0
 72145  1  0  0  0
 73 74  1  0  0  0
 73 76  2  0  0  0
 73146  1  0  0  0
 74 75  2  0  0  0
 74 77  1  0  0  0
 75 82  1  0  0  0
 76 84  1  0  0  0
 77 83  1  0  0  0
 77147  1  0  0  0
 77148  1  0  0  0
 78 82  1  0  0  0
 78 83  1  0  0  0
 78149  1  0  0  0
 78150  1  0  0  0
 79151  1  0  0  0
 79152  1  0  0  0
 79153  1  0  0  0
 79 83  1  0  0  0
 80 81  1  0  0  0
 80154  1  0  0  0
 80155  1  0  0  0
 81 84  1  0  0  0
 81156  1  0  0  0
 81157  1  0  0  0
 83158  1  0  0  0
M  CHG  1  83   1
M  ISO  4   1 100  68 101  80 101  82 100
M  END
> <chiral flag>
0

> <version>
0

> <s_m_source_file>
/data/baiqing/PycharmProjects/Reinvent-master-3.2/result/LINK_invent/BTK/process_docking_weight1_custom_product_contain_oxygen_bond_distance_aromatic_linkinvent_7_9_3/rearranged_h_0007.sdf

> <i_m_source_file_index>
87

> <r_mmod_Potential_Energy-OPLS-2005>
424.255859375

> <r_mmod_Stretch_Energy-OPLS-2005>
249.764465332031

> <r_mmod_Bend_Energy-OPLS-2005>
293.542816162109

> <r_mmod_Torsional_Energy-OPLS-2005>
279.541900634766

> <r_mmod_Improper_Torsional_Energy-OPLS-2005>
3.37525820732117

> <r_mmod_Van_der_Waal_Energy-OPLS-2005>
150.2705078125

> <r_mmod_Electrostatic_Energy-OPLS-2005>
-277.235534667969

> <r_mmod_Solvation_Energy-OPLS-2005>
-459.581817626953

> <b_mmod_Minimization_Converged-OPLS-2005>
0

> <r_mmod_RMS_Derivative-OPLS-2005>
3.68418598175049

$$$$
87
                    3D
 Structure written by MMmdl.
165174  0  0  1  0            999 V2000
  -30.7682  -14.3721   20.6878 C   0  0  0  0  0  0
  -30.4170  -12.2959   19.3968 C   0  0  0  0  0  0
  -29.4826  -12.5220   18.1936 C   0  0  0  0  0  0
  -28.0085  -12.3719   18.6131 C   0  0  0  0  0  0
  -27.6643  -13.2014   19.8779 C   0  0  2  0  0  0
  -28.7020  -12.9501   20.9942 C   0  0  0  0  0  0
  -25.2599  -13.8155   20.5663 C   0  0  0  0  0  0
  -24.1838  -13.0439   20.9156 C   0  0  0  0  0  0
  -24.6383  -11.6902   20.8718 C   0  0  0  0  0  0
  -23.9050  -10.4292   21.0399 C   0  0  0  0  0  0
  -24.3606   -9.4208   21.9180 C   0  0  0  0  0  0
  -23.6281   -8.2243   22.0753 C   0  0  0  0  0  0
  -22.4264   -8.0280   21.3545 C   0  0  0  0  0  0
  -21.9897   -9.0251   20.4643 C   0  0  0  0  0  0
  -22.7222  -10.2132   20.3051 C   0  0  0  0  0  0
  -21.6852   -6.0732   22.5277 C   0  0  0  0  0  0
  -21.4010   -6.5635   23.8209 C   0  0  0  0  0  0
  -21.3658   -5.6789   24.9170 C   0  0  0  0  0  0
  -21.6043   -4.3051   24.7222 C   0  0  0  0  0  0
  -21.8820   -3.8143   23.4344 C   0  0  0  0  0  0
  -21.9190   -4.6960   22.3400 C   0  0  0  0  0  0
  -22.7864  -13.5248   21.1825 C   0  0  0  0  0  0
  -22.1661   -4.2143   21.0979 F   0  0  0  0  0  0
  -21.5628   -3.4540   25.7739 F   0  0  0  0  0  0
  -30.0440  -13.2457   20.4562 N   0  0  0  0  0  0
  -26.3030  -12.9313   20.3366 N   0  0  0  0  0  0
  -25.9309  -11.6477   20.5753 N   0  0  0  0  0  0
  -22.0503  -12.8242   22.0385 N   0  0  0  0  0  0
  -25.4347  -15.1872   20.4071 N   0  0  0  0  0  0
  -31.8010  -14.6429   20.0658 O   0  0  0  0  0  0
  -21.6632   -6.8876   21.4241 O   0  0  0  0  0  0
  -22.3556  -14.5564   20.6690 O   0  0  0  0  0  0
  -24.6112  -31.8697   23.2134 C   0  0  0  0  0  0
  -25.9028  -32.4826   23.8410 C   0  0  1  0  0  0
  -27.2336  -27.4737   20.0915 C   0  0  0  0  0  0
  -25.5908  -33.8625   24.2351 N   0  0  0  0  0  0
  -23.3970  -30.4928   21.5532 C   0  0  2  0  0  0
  -24.8436  -28.9613   20.1169 C   0  0  0  0  0  0
  -22.7383  -29.4665   22.5020 C   0  0  0  0  0  0
  -18.0261  -28.1376   22.8494 C   0  0  0  0  0  0
  -24.1485  -36.7311   23.2636 C   0  0  0  0  0  0
  -25.9210  -30.8477   21.3600 C   0  0  0  0  0  0
  -26.0011  -29.4845   20.7089 C   0  0  0  0  0  0
  -27.2029  -28.7472   20.6939 C   0  0  0  0  0  0
  -26.0661  -26.9510   19.4998 C   0  0  0  0  0  0
  -24.8688  -27.6914   19.5108 C   0  0  0  0  0  0
  -23.6026  -29.8222   20.1678 C   0  0  0  0  0  0
  -25.4105  -36.3112   24.0341 C   0  0  1  0  0  0
  -20.5848  -28.3654   23.1331 C   0  0  2  0  0  0
  -20.6751  -26.9392   22.5431 C   0  0  0  0  0  0
  -19.5742  -26.6386   21.5214 C   0  0  0  0  0  0
  -18.1907  -26.7934   22.1599 C   0  0  0  0  0  0
  -19.1509  -28.8832   23.2911 C   0  0  0  0  0  0
  -18.9441  -30.1438   23.8918 C   0  0  0  0  0  0
  -17.6444  -30.6585   24.0568 C   0  0  0  0  0  0
  -25.9028  -34.9476   23.5138 C   0  0  0  0  0  0
  -16.5334  -29.9084   23.6335 C   0  0  0  0  0  0
  -16.7249  -28.6501   23.0356 C   0  0  0  0  0  0
  -26.4473  -31.6590   25.0721 C   0  0  0  0  0  0
  -25.3756  -31.3692   26.1483 C   0  0  0  0  0  0
  -27.0287  -30.3027   24.6077 C   0  0  0  0  0  0
  -27.6073  -32.4289   25.7466 C   0  0  0  0  0  0
  -27.5587  -37.1804   24.8463 C   0  0  0  0  0  0
  -21.4117  -29.3025   22.3744 N   0  0  0  0  0  0
  -26.4296  -37.3792   23.9414 N   0  0  0  0  0  0
  -24.6613  -31.0828   22.1016 N   0  0  0  0  0  0
  -23.4166  -28.8212   23.3062 O   0  0  0  0  0  0
  -28.3907  -26.7428   20.0735 O   0  0  0  0  0  0
  -26.5575  -34.8923   22.4692 O   0  0  0  0  0  0
  -23.5317  -32.1435   23.7552 O   0  0  0  0  0  0
  -30.0075  -17.4081   22.5965 C   0  0  0  0  0  0
  -31.9348  -18.6870   23.3753 C   0  0  0  0  0  0
  -32.2550  -16.4814   22.3912 C   0  0  0  0  0  0
  -30.5404  -18.5806   23.1800 C   0  0  0  0  0  0
  -30.8593  -16.3573   22.1866 C   0  0  0  0  0  0
  -32.7885  -17.6417   22.9811 C   0  0  0  0  0  0
  -30.0826  -22.3396   20.8396 C   0  0  0  0  0  0
  -27.9990  -22.7311   21.8914 C   0  0  0  0  0  0
  -30.4890  -21.3267   21.9292 C   0  0  0  0  0  0
  -28.3357  -21.7197   23.0098 C   0  0  0  0  0  0
  -29.6245  -19.7168   23.6252 C   0  0  0  0  0  0
  -28.9528  -24.4135   20.4137 C   0  0  0  0  0  0
  -28.4250  -25.7095   21.0538 C   0  0  0  0  0  0
  -29.2299  -23.3818   21.4204 N   0  0  0  0  0  0
  -30.2717  -15.1823   21.6384 N   0  0  0  0  0  0
  -29.2973  -20.6860   22.5458 N   0  3  0  0  0  0
  -34.1243  -17.7510   23.1762 F   0  0  0  0  0  0
  -31.4595  -12.3983   19.0895 H   0  0  0  0  0  0
  -30.3205  -11.2749   19.7687 H   0  0  0  0  0  0
  -29.7177  -11.8150   17.3970 H   0  0  0  0  0  0
  -29.6475  -13.5180   17.7793 H   0  0  0  0  0  0
  -27.8234  -11.3138   18.8037 H   0  0  0  0  0  0
  -27.3516  -12.6509   17.7883 H   0  0  0  0  0  0
  -27.7205  -14.2536   19.5979 H   0  0  0  0  0  0
  -28.6666  -11.9066   21.3103 H   0  0  0  0  0  0
  -28.4452  -13.5243   21.8844 H   0  0  0  0  0  0
  -25.2758   -9.5678   22.4744 H   0  0  0  0  0  0
  -23.9985   -7.4641   22.7479 H   0  0  0  0  0  0
  -21.0825   -8.8769   19.8956 H   0  0  0  0  0  0
  -22.3685  -10.9665   19.6152 H   0  0  0  0  0  0
  -21.2004   -7.6144   23.9710 H   0  0  0  0  0  0
  -21.1477   -6.0520   25.9070 H   0  0  0  0  0  0
  -22.0601   -2.7605   23.2847 H   0  0  0  0  0  0
  -22.4103  -11.9886   22.4754 H   0  0  0  0  0  0
  -21.1131  -13.1283   22.2606 H   0  0  0  0  0  0
  -24.6705  -15.8460   20.5088 H   0  0  0  0  0  0
  -26.2918  -15.6225   20.0889 H   0  0  0  0  0  0
  -26.7103  -32.5552   23.1184 H   0  0  0  0  0  0
  -25.0125  -33.9803   25.0541 H   0  0  0  0  0  0
  -22.6844  -31.3084   21.4143 H   0  0  0  0  0  0
  -23.3752  -35.9637   23.3289 H   0  0  0  0  0  0
  -24.3589  -36.8932   22.2054 H   0  0  0  0  0  0
  -23.7226  -37.6510   23.6652 H   0  0  0  0  0  0
  -26.0280  -31.6154   20.5920 H   0  0  0  0  0  0
  -26.8104  -30.9014   21.9759 H   0  0  0  0  0  0
  -28.1005  -29.1478   21.1443 H   0  0  0  0  0  0
  -26.0865  -25.9755   19.0348 H   0  0  0  0  0  0
  -23.9783  -27.2829   19.0531 H   0  0  0  0  0  0
  -23.7044  -30.5953   19.4054 H   0  0  0  0  0  0
  -22.7288  -29.2361   19.8769 H   0  0  0  0  0  0
  -25.1284  -36.1979   25.0833 H   0  0  0  0  0  0
  -20.9929  -28.3217   24.1455 H   0  0  0  0  0  0
  -20.5639  -26.2264   23.3617 H   0  0  0  0  0  0
  -21.6628  -26.7434   22.1233 H   0  0  0  0  0  0
  -19.6904  -25.6297   21.1240 H   0  0  0  0  0  0
  -19.6702  -27.3203   20.6751 H   0  0  0  0  0  0
  -17.4198  -26.6713   21.3974 H   0  0  0  0  0  0
  -18.0272  -26.0047   22.8959 H   0  0  0  0  0  0
  -19.7916  -30.7252   24.2289 H   0  0  0  0  0  0
  -17.4997  -31.6266   24.5161 H   0  0  0  0  0  0
  -15.5337  -30.2991   23.7654 H   0  0  0  0  0  0
  -15.8643  -28.0827   22.7070 H   0  0  0  0  0  0
  -24.5993  -30.6941   25.7864 H   0  0  0  0  0  0
  -24.8864  -32.2831   26.4861 H   0  0  0  0  0  0
  -25.8139  -30.8964   27.0280 H   0  0  0  0  0  0
  -26.2812  -29.6790   24.1159 H   0  0  0  0  0  0
  -27.4087  -29.7259   25.4522 H   0  0  0  0  0  0
  -27.8634  -30.4340   23.9188 H   0  0  0  0  0  0
  -27.2733  -33.3598   26.2060 H   0  0  0  0  0  0
  -28.3873  -32.6828   25.0275 H   0  0  0  0  0  0
  -28.0748  -31.8393   26.5362 H   0  0  0  0  0  0
  -28.2610  -38.0097   24.7507 H   0  0  0  0  0  0
  -28.1078  -36.2631   24.6283 H   0  0  0  0  0  0
  -27.2311  -37.1448   25.8868 H   0  0  0  0  0  0
  -20.9274  -29.8735   21.6959 H   0  0  0  0  0  0
  -26.0187  -38.2870   24.1421 H   0  0  0  0  0  0
  -28.9379  -17.3167   22.4625 H   0  0  0  0  0  0
  -32.3612  -19.5693   23.8319 H   0  0  0  0  0  0
  -32.9329  -15.6873   22.1153 H   0  0  0  0  0  0
  -29.5785  -21.8372   20.0110 H   0  0  0  0  0  0
  -30.9880  -22.7883   20.4267 H   0  0  0  0  0  0
  -27.3058  -23.4702   22.2939 H   0  0  0  0  0  0
  -27.4794  -22.2356   21.0687 H   0  0  0  0  0  0
  -31.0829  -21.8241   22.6979 H   0  0  0  0  0  0
  -31.1317  -20.5735   21.4733 H   0  0  0  0  0  0
  -27.4170  -21.2418   23.3537 H   0  0  0  0  0  0
  -28.7492  -22.2508   23.8693 H   0  0  0  0  0  0
  -30.0891  -20.2431   24.4612 H   0  0  0  0  0  0
  -28.7036  -19.2847   24.0202 H   0  0  0  0  0  0
  -29.8800  -24.6646   19.8947 H   0  0  0  0  0  0
  -28.2613  -24.0490   19.6517 H   0  0  0  0  0  0
  -29.0891  -26.0306   21.8575 H   0  0  0  0  0  0
  -27.4475  -25.5402   21.5093 H   0  0  0  0  0  0
  -29.3586  -14.9284   21.9840 H   0  0  0  0  0  0
  -28.8347  -20.1656   21.8175 H   0  0  0  0  0  0
  1 25  1  0  0  0
  1 30  2  0  0  0
  1 85  1  0  0  0
  2  3  1  0  0  0
  2 25  1  0  0  0
  2 88  1  0  0  0
  2 89  1  0  0  0
  3  4  1  0  0  0
  3 90  1  0  0  0
  3 91  1  0  0  0
  4  5  1  0  0  0
  4 92  1  0  0  0
  4 93  1  0  0  0
  5  6  1  0  0  0
  5 26  1  0  0  0
  5 94  1  0  0  0
  6 25  1  0  0  0
  6 95  1  0  0  0
  6 96  1  0  0  0
  7  8  2  0  0  0
  7 26  1  0  0  0
  7 29  1  0  0  0
  8  9  1  0  0  0
  8 22  1  0  0  0
  9 10  1  0  0  0
  9 27  2  0  0  0
 10 11  2  0  0  0
 10 15  1  0  0  0
 11 12  1  0  0  0
 11 97  1  0  0  0
 12 13  2  0  0  0
 12 98  1  0  0  0
 13 14  1  0  0  0
 13 31  1  0  0  0
 14 15  2  0  0  0
 14 99  1  0  0  0
 15100  1  0  0  0
 16 17  2  0  0  0
 16 21  1  0  0  0
 16 31  1  0  0  0
 17 18  1  0  0  0
 17101  1  0  0  0
 18 19  2  0  0  0
 18102  1  0  0  0
 19 20  1  0  0  0
 19 24  1  0  0  0
 20 21  2  0  0  0
 20103  1  0  0  0
 21 23  1  0  0  0
 22 28  1  0  0  0
 22 32  2  0  0  0
 26 27  1  0  0  0
 28104  1  0  0  0
 28105  1  0  0  0
 29106  1  0  0  0
 29107  1  0  0  0
 33 34  1  0  0  0
 33 66  1  0  0  0
 33 70  2  0  0  0
 34 36  1  0  0  0
 34 59  1  0  0  0
 34108  1  0  0  0
 35 44  2  0  0  0
 35 45  1  0  0  0
 35 68  1  0  0  0
 36 56  1  0  0  0
 36109  1  0  0  0
 37 39  1  0  0  0
 37 47  1  0  0  0
 37 66  1  0  0  0
 37110  1  0  0  0
 38 43  2  0  0  0
 38 46  1  0  0  0
 38 47  1  0  0  0
 39 64  1  0  0  0
 39 67  2  0  0  0
 40 52  1  0  0  0
 40 53  2  0  0  0
 40 58  1  0  0  0
 41111  1  0  0  0
 41112  1  0  0  0
 41113  1  0  0  0
 41 48  1  0  0  0
 42 43  1  0  0  0
 42 66  1  0  0  0
 42114  1  0  0  0
 42115  1  0  0  0
 43 44  1  0  0  0
 44116  1  0  0  0
 45 46  2  0  0  0
 45117  1  0  0  0
 46118  1  0  0  0
 47119  1  0  0  0
 47120  1  0  0  0
 48 56  1  0  0  0
 48 65  1  0  0  0
 48121  1  0  0  0
 49 50  1  0  0  0
 49 53  1  0  0  0
 49 64  1  0  0  0
 49122  1  0  0  0
 50 51  1  0  0  0
 50123  1  0  0  0
 50124  1  0  0  0
 51 52  1  0  0  0
 51125  1  0  0  0
 51126  1  0  0  0
 52127  1  0  0  0
 52128  1  0  0  0
 53 54  1  0  0  0
 54 55  2  0  0  0
 54129  1  0  0  0
 55 57  1  0  0  0
 55130  1  0  0  0
 56 69  2  0  0  0
 57 58  2  0  0  0
 57131  1  0  0  0
 58132  1  0  0  0
 59 60  1  0  0  0
 59 61  1  0  0  0
 59 62  1  0  0  0
 60133  1  0  0  0
 60134  1  0  0  0
 60135  1  0  0  0
 61136  1  0  0  0
 61137  1  0  0  0
 61138  1  0  0  0
 62139  1  0  0  0
 62140  1  0  0  0
 62141  1  0  0  0
 63 65  1  0  0  0
 63142  1  0  0  0
 63143  1  0  0  0
 63144  1  0  0  0
 64145  1  0  0  0
 65146  1  0  0  0
 68 83  1  0  0  0
 71 74  2  0  0  0
 71 75  1  0  0  0
 71147  1  0  0  0
 72 74  1  0  0  0
 72 76  2  0  0  0
 72148  1  0  0  0
 73 75  2  0  0  0
 73 76  1  0  0  0
 73149  1  0  0  0
 74 81  1  0  0  0
 75 85  1  0  0  0
 76 87  1  0  0  0
 77 79  1  0  0  0
 77 84  1  0  0  0
 77150  1  0  0  0
 77151  1  0  0  0
 78 80  1  0  0  0
 78 84  1  0  0  0
 78152  1  0  0  0
 78153  1  0  0  0
 79 86  1  0  0  0
 79154  1  0  0  0
 79155  1  0  0  0
 80 86  1  0  0  0
 80156  1  0  0  0
 80157  1  0  0  0
 81158  1  0  0  0
 81159  1  0  0  0
 81 86  1  0  0  0
 82 83  1  0  0  0
 82 84  1  0  0  0
 82160  1  0  0  0
 82161  1  0  0  0
 83162  1  0  0  0
 83163  1  0  0  0
 85164  1  0  0  0
 86165  1  0  0  0
M  CHG  1  86   1
M  ISO  4   1 100  68 101  83 101  85 100
M  END
> <chiral flag>
0

> <version>
0

> <s_m_source_file>
/data/baiqing/PycharmProjects/Reinvent-master-3.2/result/LINK_invent/BTK/process_docking_weight1_custom_product_contain_oxygen_bond_distance_aromatic_linkinvent_7_9_3/rearranged_h_0007.sdf

> <i_m_source_file_index>
88

> <r_mmod_Potential_Energy-OPLS-2005>
-143.365814208984

> <r_mmod_Stretch_Energy-OPLS-2005>
35.0462875366211

> <r_mmod_Bend_Energy-OPLS-2005>
89.6222534179688

> <r_mmod_Torsional_Energy-OPLS-2005>
230.574478149414

> <r_mmod_Improper_Torsional_Energy-OPLS-2005>
1.73385214805603

> <r_mmod_Van_der_Waal_Energy-OPLS-2005>
166.946533203125

> <r_mmod_Electrostatic_Energy-OPLS-2005>
-209.932525634766

> <r_mmod_Solvation_Energy-OPLS-2005>
-464.158630371094

> <b_mmod_Minimization_Converged-OPLS-2005>
0

> <r_mmod_RMS_Derivative-OPLS-2005>
0.889165580272675

$$$$
88
                    3D
 Structure written by MMmdl.
156165  0  0  1  0            999 V2000
  -30.6667  -14.7948   20.4470 C   0  0  0  0  0  0
  -30.4101  -12.4980   19.4741 C   0  0  0  0  0  0
  -29.4952  -12.4977   18.2335 C   0  0  0  0  0  0
  -28.0302  -12.2971   18.6588 C   0  0  0  0  0  0
  -27.6231  -13.2272   19.8303 C   0  0  2  0  0  0
  -28.6725  -13.2518   20.9652 C   0  0  0  0  0  0
  -25.2432  -13.8157   20.5688 C   0  0  0  0  0  0
  -24.1751  -13.0404   20.9235 C   0  0  0  0  0  0
  -24.6358  -11.6891   20.8784 C   0  0  0  0  0  0
  -23.9050  -10.4271   21.0430 C   0  0  0  0  0  0
  -24.3607   -9.4186   21.9199 C   0  0  0  0  0  0
  -23.6287   -8.2221   22.0757 C   0  0  0  0  0  0
  -22.4274   -8.0262   21.3540 C   0  0  0  0  0  0
  -21.9908   -9.0235   20.4647 C   0  0  0  0  0  0
  -22.7231  -10.2116   20.3066 C   0  0  0  0  0  0
  -21.6847   -6.0726   22.5277 C   0  0  0  0  0  0
  -21.4006   -6.5634   23.8208 C   0  0  0  0  0  0
  -21.3663   -5.6792   24.9174 C   0  0  0  0  0  0
  -21.6049   -4.3055   24.7226 C   0  0  0  0  0  0
  -21.8821   -3.8141   23.4349 C   0  0  0  0  0  0
  -21.9189   -4.6954   22.3403 C   0  0  0  0  0  0
  -22.7781  -13.5191   21.1889 C   0  0  0  0  0  0
  -22.1661   -4.2138   21.0982 F   0  0  0  0  0  0
  -21.5635   -3.4543   25.7742 F   0  0  0  0  0  0
  -29.9598  -13.6062   20.3586 N   0  0  0  0  0  0
  -26.2841  -12.9359   20.3241 N   0  0  0  0  0  0
  -25.9279  -11.6512   20.5781 N   0  0  0  0  0  0
  -22.0437  -12.8180   22.0449 N   0  0  0  0  0  0
  -25.4050  -15.1878   20.4052 N   0  0  0  0  0  0
  -31.8772  -14.7456   20.2074 O   0  0  0  0  0  0
  -21.6636   -6.8863   21.4236 O   0  0  0  0  0  0
  -22.3472  -14.5502   20.6739 O   0  0  0  0  0  0
  -24.6349  -31.8528   23.1974 C   0  0  0  0  0  0
  -25.9166  -32.4743   23.8323 C   0  0  1  0  0  0
  -27.2146  -27.2346   20.1239 C   0  0  0  0  0  0
  -25.5959  -33.8545   24.2255 N   0  0  0  0  0  0
  -23.4315  -30.4776   21.5414 C   0  0  2  0  0  0
  -24.8758  -28.9218   20.1087 C   0  0  0  0  0  0
  -22.7515  -29.4600   22.4898 C   0  0  0  0  0  0
  -18.0295  -28.1397   22.8485 C   0  0  0  0  0  0
  -24.1481  -36.7256   23.2643 C   0  0  0  0  0  0
  -25.9804  -30.7573   21.3805 C   0  0  0  0  0  0
  -26.0497  -29.3779   20.7204 C   0  0  0  0  0  0
  -27.2186  -28.5458   20.7189 C   0  0  0  0  0  0
  -26.0081  -26.8502   19.4917 C   0  0  0  0  0  0
  -24.8611  -27.6667   19.4841 C   0  0  0  0  0  0
  -23.6499  -29.8139   20.1562 C   0  0  0  0  0  0
  -25.4113  -36.3057   24.0328 C   0  0  1  0  0  0
  -20.5902  -28.3709   23.1257 C   0  0  2  0  0  0
  -20.6775  -26.9423   22.5401 C   0  0  0  0  0  0
  -19.5750  -26.6388   21.5208 C   0  0  0  0  0  0
  -18.1935  -26.7938   22.1626 C   0  0  0  0  0  0
  -19.1551  -28.8871   23.2871 C   0  0  0  0  0  0
  -18.9472  -30.1470   23.8891 C   0  0  0  0  0  0
  -17.6471  -30.6600   24.0560 C   0  0  0  0  0  0
  -25.9060  -34.9433   23.5093 C   0  0  0  0  0  0
  -16.5360  -29.9095   23.6334 C   0  0  0  0  0  0
  -16.7281  -28.6509   23.0359 C   0  0  0  0  0  0
  -26.4518  -31.6585   25.0733 C   0  0  0  0  0  0
  -25.3730  -31.3745   26.1446 C   0  0  0  0  0  0
  -27.0366  -30.2996   24.6251 C   0  0  0  0  0  0
  -27.6079  -32.4321   25.7509 C   0  0  0  0  0  0
  -27.5566  -37.1787   24.8472 C   0  0  0  0  0  0
  -21.4221  -29.3053   22.3641 N   0  0  0  0  0  0
  -26.4277  -37.3768   23.9426 N   0  0  0  0  0  0
  -24.7017  -31.0471   22.0957 N   0  0  0  0  0  0
  -23.4202  -28.8134   23.3003 O   0  0  0  0  0  0
  -28.3047  -26.3232   20.1995 O   0  0  0  0  0  0
  -26.5621  -34.8912   22.4652 O   0  0  0  0  0  0
  -23.5495  -32.1353   23.7258 O   0  0  0  0  0  0
  -29.0511  -21.6832   21.1674 C   0  0  0  0  0  0
  -28.7611  -23.0975   21.0020 C   0  0  0  0  0  0
  -28.5797  -22.7508   18.6576 C   0  0  0  0  0  0
  -29.1130  -20.7501   20.0767 C   0  0  0  0  0  0
  -28.5189  -23.6930   19.7239 C   0  0  0  0  0  0
  -28.8561  -21.3557   18.8155 C   0  0  0  0  0  0
  -30.4200  -18.6636   21.2802 C   0  0  0  0  0  0
  -28.3847  -18.1043   20.1431 C   0  0  0  0  0  0
  -30.9954  -17.2051   21.0397 C   0  0  0  0  0  0
  -28.8021  -16.5565   20.0753 C   0  0  0  0  0  0
  -29.5109  -19.1832   20.1430 C   0  0  0  0  0  0
  -30.0803  -16.0624   20.6839 N   0  0  0  0  0  0
  -28.1816  -25.0689   19.3649 N   0  0  0  0  0  0
  -28.8853  -20.5823   17.7029 F   0  0  0  0  0  0
  -31.4506  -12.5965   19.1610 H   0  0  0  0  0  0
  -30.3503  -11.5423   19.9976 H   0  0  0  0  0  0
  -29.7927  -11.7095   17.5404 H   0  0  0  0  0  0
  -29.5987  -13.4396   17.6925 H   0  0  0  0  0  0
  -27.9137  -11.2542   18.9561 H   0  0  0  0  0  0
  -27.3634  -12.4469   17.8082 H   0  0  0  0  0  0
  -27.5798  -14.2152   19.3805 H   0  0  0  0  0  0
  -28.7346  -12.2840   21.4648 H   0  0  0  0  0  0
  -28.3962  -13.9771   21.7317 H   0  0  0  0  0  0
  -25.2743   -9.5671   22.4785 H   0  0  0  0  0  0
  -23.9995   -7.4613   22.7477 H   0  0  0  0  0  0
  -21.0837   -8.8752   19.8954 H   0  0  0  0  0  0
  -22.3682  -10.9659   19.6185 H   0  0  0  0  0  0
  -21.1992   -7.6143   23.9702 H   0  0  0  0  0  0
  -21.1490   -6.0528   25.9077 H   0  0  0  0  0  0
  -22.0599   -2.7601   23.2853 H   0  0  0  0  0  0
  -22.4068  -11.9835   22.4819 H   0  0  0  0  0  0
  -21.1063  -13.1209   22.2683 H   0  0  0  0  0  0
  -24.6316  -15.8350   20.5136 H   0  0  0  0  0  0
  -26.2466  -15.6307   20.0626 H   0  0  0  0  0  0
  -26.7229  -32.5380   23.1061 H   0  0  0  0  0  0
  -25.0132  -33.9682   25.0415 H   0  0  0  0  0  0
  -22.7300  -31.3017   21.3956 H   0  0  0  0  0  0
  -23.3755  -35.9574   23.3302 H   0  0  0  0  0  0
  -24.3559  -36.8882   22.2056 H   0  0  0  0  0  0
  -23.7219  -37.6453   23.6656 H   0  0  0  0  0  0
  -26.1227  -31.5171   20.6106 H   0  0  0  0  0  0
  -26.8561  -30.8042   22.0158 H   0  0  0  0  0  0
  -28.1152  -28.8880   21.2151 H   0  0  0  0  0  0
  -25.9055  -25.8834   19.0217 H   0  0  0  0  0  0
  -23.9590  -27.3095   19.0063 H   0  0  0  0  0  0
  -23.7806  -30.5915   19.4030 H   0  0  0  0  0  0
  -22.7667  -29.2526   19.8467 H   0  0  0  0  0  0
  -25.1297  -36.1894   25.0817 H   0  0  0  0  0  0
  -20.9997  -28.3286   24.1376 H   0  0  0  0  0  0
  -20.5673  -26.2321   23.3612 H   0  0  0  0  0  0
  -21.6644  -26.7436   22.1200 H   0  0  0  0  0  0
  -19.6908  -25.6295   21.1249 H   0  0  0  0  0  0
  -19.6691  -27.3189   20.6729 H   0  0  0  0  0  0
  -17.4202  -26.6689   21.4033 H   0  0  0  0  0  0
  -18.0340  -26.0089   22.9027 H   0  0  0  0  0  0
  -19.7948  -30.7287   24.2264 H   0  0  0  0  0  0
  -17.5025  -31.6278   24.5161 H   0  0  0  0  0  0
  -15.5363  -30.2995   23.7658 H   0  0  0  0  0  0
  -15.8678  -28.0817   22.7087 H   0  0  0  0  0  0
  -24.5942  -30.7052   25.7778 H   0  0  0  0  0  0
  -24.8880  -32.2911   26.4812 H   0  0  0  0  0  0
  -25.8045  -30.8982   27.0260 H   0  0  0  0  0  0
  -26.2960  -29.6754   24.1240 H   0  0  0  0  0  0
  -27.4001  -29.7267   25.4795 H   0  0  0  0  0  0
  -27.8858  -30.4268   23.9534 H   0  0  0  0  0  0
  -27.2709  -33.3651   26.2034 H   0  0  0  0  0  0
  -28.3915  -32.6824   25.0345 H   0  0  0  0  0  0
  -28.0708  -31.8469   26.5470 H   0  0  0  0  0  0
  -28.2593  -38.0075   24.7513 H   0  0  0  0  0  0
  -28.1054  -36.2611   24.6296 H   0  0  0  0  0  0
  -27.2284  -37.1432   25.8875 H   0  0  0  0  0  0
  -20.9410  -29.8768   21.6836 H   0  0  0  0  0  0
  -26.0149  -38.2838   24.1436 H   0  0  0  0  0  0
  -29.2392  -21.3160   22.1665 H   0  0  0  0  0  0
  -28.7276  -23.7267   21.8803 H   0  0  0  0  0  0
  -28.4031  -23.0994   17.6507 H   0  0  0  0  0  0
  -31.2617  -19.3475   21.3983 H   0  0  0  0  0  0
  -29.8798  -18.6984   22.2281 H   0  0  0  0  0  0
  -27.7841  -18.2528   21.0423 H   0  0  0  0  0  0
  -27.7037  -18.3095   19.3162 H   0  0  0  0  0  0
  -31.5645  -16.9158   21.9244 H   0  0  0  0  0  0
  -31.7297  -17.2917   20.2372 H   0  0  0  0  0  0
  -28.8107  -16.2538   19.0269 H   0  0  0  0  0  0
  -27.9972  -16.0045   20.5513 H   0  0  0  0  0  0
  -30.0790  -19.0271   19.2250 H   0  0  0  0  0  0
  -28.2794  -25.3244   18.3854 H   0  0  0  0  0  0
  1 25  1  0  0  0
  1 30  2  0  0  0
  1 82  1  0  0  0
  2  3  1  0  0  0
  2 25  1  0  0  0
  2 85  1  0  0  0
  2 86  1  0  0  0
  3  4  1  0  0  0
  3 87  1  0  0  0
  3 88  1  0  0  0
  4  5  1  0  0  0
  4 89  1  0  0  0
  4 90  1  0  0  0
  5  6  1  0  0  0
  5 26  1  0  0  0
  5 91  1  0  0  0
  6 25  1  0  0  0
  6 92  1  0  0  0
  6 93  1  0  0  0
  7  8  2  0  0  0
  7 26  1  0  0  0
  7 29  1  0  0  0
  8  9  1  0  0  0
  8 22  1  0  0  0
  9 10  1  0  0  0
  9 27  2  0  0  0
 10 11  2  0  0  0
 10 15  1  0  0  0
 11 12  1  0  0  0
 11 94  1  0  0  0
 12 13  2  0  0  0
 12 95  1  0  0  0
 13 14  1  0  0  0
 13 31  1  0  0  0
 14 15  2  0  0  0
 14 96  1  0  0  0
 15 97  1  0  0  0
 16 17  2  0  0  0
 16 21  1  0  0  0
 16 31  1  0  0  0
 17 18  1  0  0  0
 17 98  1  0  0  0
 18 19  2  0  0  0
 18 99  1  0  0  0
 19 20  1  0  0  0
 19 24  1  0  0  0
 20 21  2  0  0  0
 20100  1  0  0  0
 21 23  1  0  0  0
 22 28  1  0  0  0
 22 32  2  0  0  0
 26 27  1  0  0  0
 28101  1  0  0  0
 28102  1  0  0  0
 29103  1  0  0  0
 29104  1  0  0  0
 33 34  1  0  0  0
 33 66  1  0  0  0
 33 70  2  0  0  0
 34 36  1  0  0  0
 34 59  1  0  0  0
 34105  1  0  0  0
 35 44  2  0  0  0
 35 45  1  0  0  0
 35 68  1  0  0  0
 36 56  1  0  0  0
 36106  1  0  0  0
 37 39  1  0  0  0
 37 47  1  0  0  0
 37 66  1  0  0  0
 37107  1  0  0  0
 38 43  2  0  0  0
 38 46  1  0  0  0
 38 47  1  0  0  0
 39 64  1  0  0  0
 39 67  2  0  0  0
 40 52  1  0  0  0
 40 53  2  0  0  0
 40 58  1  0  0  0
 41108  1  0  0  0
 41109  1  0  0  0
 41110  1  0  0  0
 41 48  1  0  0  0
 42 43  1  0  0  0
 42 66  1  0  0  0
 42111  1  0  0  0
 42112  1  0  0  0
 43 44  1  0  0  0
 44113  1  0  0  0
 45 46  2  0  0  0
 45114  1  0  0  0
 46115  1  0  0  0
 47116  1  0  0  0
 47117  1  0  0  0
 48 56  1  0  0  0
 48 65  1  0  0  0
 48118  1  0  0  0
 49 50  1  0  0  0
 49 53  1  0  0  0
 49 64  1  0  0  0
 49119  1  0  0  0
 50 51  1  0  0  0
 50120  1  0  0  0
 50121  1  0  0  0
 51 52  1  0  0  0
 51122  1  0  0  0
 51123  1  0  0  0
 52124  1  0  0  0
 52125  1  0  0  0
 53 54  1  0  0  0
 54 55  2  0  0  0
 54126  1  0  0  0
 55 57  1  0  0  0
 55127  1  0  0  0
 56 69  2  0  0  0
 57 58  2  0  0  0
 57128  1  0  0  0
 58129  1  0  0  0
 59 60  1  0  0  0
 59 61  1  0  0  0
 59 62  1  0  0  0
 60130  1  0  0  0
 60131  1  0  0  0
 60132  1  0  0  0
 61133  1  0  0  0
 61134  1  0  0  0
 61135  1  0  0  0
 62136  1  0  0  0
 62137  1  0  0  0
 62138  1  0  0  0
 63 65  1  0  0  0
 63139  1  0  0  0
 63140  1  0  0  0
 63141  1  0  0  0
 64142  1  0  0  0
 65143  1  0  0  0
 68 83  1  0  0  0
 71 72  2  0  0  0
 71 74  1  0  0  0
 71144  1  0  0  0
 72 75  1  0  0  0
 72145  1  0  0  0
 73 75  2  0  0  0
 73 76  1  0  0  0
 73146  1  0  0  0
 74 76  2  0  0  0
 74 81  1  0  0  0
 75 83  1  0  0  0
 76 84  1  0  0  0
 77 79  1  0  0  0
 77 81  1  0  0  0
 77147  1  0  0  0
 77148  1  0  0  0
 78 80  1  0  0  0
 78 81  1  0  0  0
 78149  1  0  0  0
 78150  1  0  0  0
 79 82  1  0  0  0
 79151  1  0  0  0
 79152  1  0  0  0
 80 82  1  0  0  0
 80153  1  0  0  0
 80154  1  0  0  0
 81155  1  0  0  0
 83156  1  0  0  0
M  ISO  4   1 100  68 101  82 100  83 101
M  END
> <chiral flag>
0

> <version>
0

> <s_m_source_file>
/data/baiqing/PycharmProjects/Reinvent-master-3.2/result/LINK_invent/BTK/process_docking_weight1_custom_product_contain_oxygen_bond_distance_aromatic_linkinvent_7_9_3/rearranged_h_0007.sdf

> <i_m_source_file_index>
89

> <r_mmod_Potential_Energy-OPLS-2005>
445.270690917969

> <r_mmod_Stretch_Energy-OPLS-2005>
131.104507446289

> <r_mmod_Bend_Energy-OPLS-2005>
244.452209472656

> <r_mmod_Torsional_Energy-OPLS-2005>
298.42138671875

> <r_mmod_Improper_Torsional_Energy-OPLS-2005>
6.57778978347778

> <r_mmod_Van_der_Waal_Energy-OPLS-2005>
146.983978271484

> <r_mmod_Electrostatic_Energy-OPLS-2005>
-287.223327636719

> <r_mmod_Solvation_Energy-OPLS-2005>
-207.053558349609

> <b_mmod_Minimization_Converged-OPLS-2005>
0

> <r_mmod_RMS_Derivative-OPLS-2005>
1.15041172504425

$$$$
89
                    3D
 Structure written by MMmdl.
155163  0  0  1  0            999 V2000
  -30.6196  -14.7205   20.4360 C   0  0  0  0  0  0
  -30.4249  -12.4296   19.4813 C   0  0  0  0  0  0
  -29.5098  -12.5182   18.2396 C   0  0  0  0  0  0
  -28.0334  -12.3454   18.6437 C   0  0  0  0  0  0
  -27.6426  -13.2354   19.8554 C   0  0  2  0  0  0
  -28.6879  -13.1622   20.9934 C   0  0  0  0  0  0
  -25.2515  -13.8206   20.5719 C   0  0  0  0  0  0
  -24.1801  -13.0459   20.9215 C   0  0  0  0  0  0
  -24.6395  -11.6928   20.8755 C   0  0  0  0  0  0
  -23.9061  -10.4306   21.0413 C   0  0  0  0  0  0
  -24.3609   -9.4223   21.9197 C   0  0  0  0  0  0
  -23.6286   -8.2257   22.0761 C   0  0  0  0  0  0
  -22.4269   -8.0285   21.3548 C   0  0  0  0  0  0
  -21.9907   -9.0253   20.4646 C   0  0  0  0  0  0
  -22.7230  -10.2135   20.3061 C   0  0  0  0  0  0
  -21.6851   -6.0735   22.5283 C   0  0  0  0  0  0
  -21.4008   -6.5649   23.8214 C   0  0  0  0  0  0
  -21.3664   -5.6808   24.9185 C   0  0  0  0  0  0
  -21.6040   -4.3067   24.7238 C   0  0  0  0  0  0
  -21.8816   -3.8151   23.4361 C   0  0  0  0  0  0
  -21.9193   -4.6962   22.3409 C   0  0  0  0  0  0
  -22.7823  -13.5244   21.1870 C   0  0  0  0  0  0
  -22.1661   -4.2155   21.0976 F   0  0  0  0  0  0
  -21.5621   -3.4532   25.7740 F   0  0  0  0  0  0
  -29.9976  -13.4933   20.4185 N   0  0  0  0  0  0
  -26.2947  -12.9419   20.3318 N   0  0  0  0  0  0
  -25.9323  -11.6555   20.5753 N   0  0  0  0  0  0
  -22.0468  -12.8213   22.0403 N   0  0  0  0  0  0
  -25.4214  -15.1938   20.4140 N   0  0  0  0  0  0
  -31.7985  -14.8200   20.0872 O   0  0  0  0  0  0
  -21.6654   -6.8869   21.4238 O   0  0  0  0  0  0
  -22.3492  -14.5552   20.6720 O   0  0  0  0  0  0
  -24.6324  -31.8554   23.1996 C   0  0  0  0  0  0
  -25.9157  -32.4749   23.8339 C   0  0  1  0  0  0
  -27.2257  -27.2743   20.1263 C   0  0  0  0  0  0
  -25.5959  -33.8552   24.2268 N   0  0  0  0  0  0
  -23.4268  -30.4785   21.5438 C   0  0  2  0  0  0
  -24.8752  -28.9302   20.1048 C   0  0  0  0  0  0
  -22.7504  -29.4599   22.4937 C   0  0  0  0  0  0
  -18.0291  -28.1386   22.8476 C   0  0  0  0  0  0
  -24.1479  -36.7280   23.2643 C   0  0  0  0  0  0
  -25.9702  -30.7739   21.3757 C   0  0  0  0  0  0
  -26.0439  -29.3957   20.7210 C   0  0  0  0  0  0
  -27.2184  -28.5786   20.7249 C   0  0  0  0  0  0
  -26.0386  -26.8860   19.4622 C   0  0  0  0  0  0
  -24.8792  -27.6834   19.4616 C   0  0  0  0  0  0
  -23.6417  -29.8107   20.1589 C   0  0  0  0  0  0
  -25.4103  -36.3066   24.0333 C   0  0  1  0  0  0
  -20.5893  -28.3696   23.1268 C   0  0  2  0  0  0
  -20.6766  -26.9409   22.5404 C   0  0  0  0  0  0
  -19.5741  -26.6382   21.5209 C   0  0  0  0  0  0
  -18.1928  -26.7924   22.1621 C   0  0  0  0  0  0
  -19.1543  -28.8862   23.2861 C   0  0  0  0  0  0
  -18.9467  -30.1463   23.8873 C   0  0  0  0  0  0
  -17.6465  -30.6578   24.0569 C   0  0  0  0  0  0
  -25.9052  -34.9441   23.5099 C   0  0  0  0  0  0
  -16.5356  -29.9074   23.6339 C   0  0  0  0  0  0
  -16.7275  -28.6505   23.0331 C   0  0  0  0  0  0
  -26.4520  -31.6566   25.0730 C   0  0  0  0  0  0
  -25.3733  -31.3703   26.1447 C   0  0  0  0  0  0
  -27.0368  -30.2982   24.6205 C   0  0  0  0  0  0
  -27.6084  -32.4284   25.7498 C   0  0  0  0  0  0
  -27.5559  -37.1798   24.8467 C   0  0  0  0  0  0
  -21.4213  -29.3042   22.3675 N   0  0  0  0  0  0
  -26.4269  -37.3770   23.9416 N   0  0  0  0  0  0
  -24.6959  -31.0528   22.0968 N   0  0  0  0  0  0
  -23.4211  -28.8147   23.3040 O   0  0  0  0  0  0
  -28.3230  -26.3831   20.2094 O   0  0  0  0  0  0
  -26.5620  -34.8922   22.4664 O   0  0  0  0  0  0
  -23.5477  -32.1375   23.7303 O   0  0  0  0  0  0
  -30.4893  -20.0493   22.6341 C   0  0  0  0  0  0
  -29.9798  -21.2035   22.0000 C   0  0  0  0  0  0
  -29.4001  -19.8259   20.0958 C   0  0  0  0  0  0
  -30.4807  -18.7771   22.0155 C   0  0  0  0  0  0
  -29.9261  -18.6185   20.7193 C   0  0  0  0  0  0
  -29.4169  -21.1441   20.7071 C   0  0  0  0  0  0
  -31.1213  -17.6154   22.7579 C   0  0  0  0  0  0
  -30.0248  -17.2254   19.9500 C   0  0  0  0  0  0
  -29.0849  -23.7792   20.5539 C   0  0  0  0  0  0
  -28.1229  -24.9204   19.9335 C   0  0  0  0  0  0
  -28.9020  -22.3456   20.0799 N   0  0  0  0  0  0
  -29.8364  -15.8503   20.5921 N   0  0  0  0  0  0
  -31.4718  -12.5291   19.1886 H   0  0  0  0  0  0
  -30.3392  -11.4491   19.9518 H   0  0  0  0  0  0
  -29.7928  -11.7619   17.5069 H   0  0  0  0  0  0
  -29.6419  -13.4844   17.7476 H   0  0  0  0  0  0
  -27.8786  -11.2941   18.8874 H   0  0  0  0  0  0
  -27.3829  -12.5586   17.7943 H   0  0  0  0  0  0
  -27.6357  -14.2589   19.4796 H   0  0  0  0  0  0
  -28.7090  -12.1677   21.4415 H   0  0  0  0  0  0
  -28.4341  -13.8530   21.7967 H   0  0  0  0  0  0
  -25.2751   -9.5708   22.4773 H   0  0  0  0  0  0
  -23.9996   -7.4656   22.7492 H   0  0  0  0  0  0
  -21.0837   -8.8761   19.8950 H   0  0  0  0  0  0
  -22.3693  -10.9658   19.6162 H   0  0  0  0  0  0
  -21.1996   -7.6159   23.9713 H   0  0  0  0  0  0
  -21.1482   -6.0549   25.9086 H   0  0  0  0  0  0
  -22.0586   -2.7608   23.2872 H   0  0  0  0  0  0
  -22.4072  -11.9855   22.4755 H   0  0  0  0  0  0
  -21.1088  -13.1236   22.2624 H   0  0  0  0  0  0
  -24.6540  -15.8496   20.5106 H   0  0  0  0  0  0
  -26.2732  -15.6255   20.0804 H   0  0  0  0  0  0
  -26.7243  -32.5405   23.1099 H   0  0  0  0  0  0
  -25.0117  -33.9681   25.0421 H   0  0  0  0  0  0
  -22.7238  -31.3010   21.3983 H   0  0  0  0  0  0
  -23.3742  -35.9604   23.3289 H   0  0  0  0  0  0
  -24.3567  -36.8919   22.2056 H   0  0  0  0  0  0
  -23.7226  -37.6477   23.6673 H   0  0  0  0  0  0
  -26.0996  -31.5309   20.6007 H   0  0  0  0  0  0
  -26.8531  -30.8290   22.0015 H   0  0  0  0  0  0
  -28.1086  -28.9281   21.2305 H   0  0  0  0  0  0
  -25.9767  -25.9430   18.9405 H   0  0  0  0  0  0
  -23.9915  -27.3257   18.9585 H   0  0  0  0  0  0
  -23.7544  -30.5863   19.4003 H   0  0  0  0  0  0
  -22.7612  -29.2377   19.8615 H   0  0  0  0  0  0
  -25.1279  -36.1907   25.0823 H   0  0  0  0  0  0
  -20.9973  -28.3258   24.1389 H   0  0  0  0  0  0
  -20.5650  -26.2309   23.3612 H   0  0  0  0  0  0
  -21.6638  -26.7413   22.1203 H   0  0  0  0  0  0
  -19.6898  -25.6291   21.1237 H   0  0  0  0  0  0
  -19.6674  -27.3199   20.6746 H   0  0  0  0  0  0
  -17.4190  -26.6678   21.4023 H   0  0  0  0  0  0
  -18.0314  -26.0060   22.9013 H   0  0  0  0  0  0
  -19.7942  -30.7298   24.2205 H   0  0  0  0  0  0
  -17.5011  -31.6249   24.5187 H   0  0  0  0  0  0
  -15.5345  -30.2967   23.7677 H   0  0  0  0  0  0
  -15.8673  -28.0837   22.7016 H   0  0  0  0  0  0
  -24.5947  -30.7006   25.7782 H   0  0  0  0  0  0
  -24.8888  -32.2860   26.4840 H   0  0  0  0  0  0
  -25.8059  -30.8920   27.0245 H   0  0  0  0  0  0
  -26.2959  -29.6715   24.1233 H   0  0  0  0  0  0
  -27.4064  -29.7257   25.4727 H   0  0  0  0  0  0
  -27.8823  -30.4268   23.9442 H   0  0  0  0  0  0
  -27.2735  -33.3623   26.2018 H   0  0  0  0  0  0
  -28.3928  -32.6759   25.0332 H   0  0  0  0  0  0
  -28.0704  -31.8426   26.5452 H   0  0  0  0  0  0
  -28.2588  -38.0086   24.7500 H   0  0  0  0  0  0
  -28.1046  -36.2622   24.6296 H   0  0  0  0  0  0
  -27.2287  -37.1451   25.8875 H   0  0  0  0  0  0
  -20.9407  -29.8787   21.6895 H   0  0  0  0  0  0
  -26.0146  -38.2841   24.1413 H   0  0  0  0  0  0
  -30.9203  -20.1575   23.6194 H   0  0  0  0  0  0
  -30.0391  -22.1378   22.5361 H   0  0  0  0  0  0
  -28.9918  -19.7388   19.0987 H   0  0  0  0  0  0
  -31.6310  -17.9441   23.6636 H   0  0  0  0  0  0
  -31.8643  -17.1171   22.1354 H   0  0  0  0  0  0
  -30.3684  -16.8841   23.0513 H   0  0  0  0  0  0
  -30.9948  -17.2329   19.4506 H   0  0  0  0  0  0
  -29.3052  -17.2712   19.1309 H   0  0  0  0  0  0
  -28.9688  -23.8092   21.6377 H   0  0  0  0  0  0
  -30.1203  -24.0611   20.3563 H   0  0  0  0  0  0
  -27.1209  -24.6427   20.2609 H   0  0  0  0  0  0
  -28.1286  -24.8087   18.8486 H   0  0  0  0  0  0
  -28.5306  -22.2456   19.1376 H   0  0  0  0  0  0
  -28.8964  -15.6627   20.9059 H   0  0  0  0  0  0
  1 25  1  0  0  0
  1 30  2  0  0  0
  1 82  1  0  0  0
  2  3  1  0  0  0
  2 25  1  0  0  0
  2 83  1  0  0  0
  2 84  1  0  0  0
  3  4  1  0  0  0
  3 85  1  0  0  0
  3 86  1  0  0  0
  4  5  1  0  0  0
  4 87  1  0  0  0
  4 88  1  0  0  0
  5  6  1  0  0  0
  5 26  1  0  0  0
  5 89  1  0  0  0
  6 25  1  0  0  0
  6 90  1  0  0  0
  6 91  1  0  0  0
  7  8  2  0  0  0
  7 26  1  0  0  0
  7 29  1  0  0  0
  8  9  1  0  0  0
  8 22  1  0  0  0
  9 10  1  0  0  0
  9 27  2  0  0  0
 10 11  2  0  0  0
 10 15  1  0  0  0
 11 12  1  0  0  0
 11 92  1  0  0  0
 12 13  2  0  0  0
 12 93  1  0  0  0
 13 14  1  0  0  0
 13 31  1  0  0  0
 14 15  2  0  0  0
 14 94  1  0  0  0
 15 95  1  0  0  0
 16 17  2  0  0  0
 16 21  1  0  0  0
 16 31  1  0  0  0
 17 18  1  0  0  0
 17 96  1  0  0  0
 18 19  2  0  0  0
 18 97  1  0  0  0
 19 20  1  0  0  0
 19 24  1  0  0  0
 20 21  2  0  0  0
 20 98  1  0  0  0
 21 23  1  0  0  0
 22 28  1  0  0  0
 22 32  2  0  0  0
 26 27  1  0  0  0
 28 99  1  0  0  0
 28100  1  0  0  0
 29101  1  0  0  0
 29102  1  0  0  0
 33 34  1  0  0  0
 33 66  1  0  0  0
 33 70  2  0  0  0
 34 36  1  0  0  0
 34 59  1  0  0  0
 34103  1  0  0  0
 35 44  2  0  0  0
 35 45  1  0  0  0
 35 68  1  0  0  0
 36 56  1  0  0  0
 36104  1  0  0  0
 37 39  1  0  0  0
 37 47  1  0  0  0
 37 66  1  0  0  0
 37105  1  0  0  0
 38 43  2  0  0  0
 38 46  1  0  0  0
 38 47  1  0  0  0
 39 64  1  0  0  0
 39 67  2  0  0  0
 40 52  1  0  0  0
 40 53  2  0  0  0
 40 58  1  0  0  0
 41106  1  0  0  0
 41107  1  0  0  0
 41108  1  0  0  0
 41 48  1  0  0  0
 42 43  1  0  0  0
 42 66  1  0  0  0
 42109  1  0  0  0
 42110  1  0  0  0
 43 44  1  0  0  0
 44111  1  0  0  0
 45 46  2  0  0  0
 45112  1  0  0  0
 46113  1  0  0  0
 47114  1  0  0  0
 47115  1  0  0  0
 48 56  1  0  0  0
 48 65  1  0  0  0
 48116  1  0  0  0
 49 50  1  0  0  0
 49 53  1  0  0  0
 49 64  1  0  0  0
 49117  1  0  0  0
 50 51  1  0  0  0
 50118  1  0  0  0
 50119  1  0  0  0
 51 52  1  0  0  0
 51120  1  0  0  0
 51121  1  0  0  0
 52122  1  0  0  0
 52123  1  0  0  0
 53 54  1  0  0  0
 54 55  2  0  0  0
 54124  1  0  0  0
 55 57  1  0  0  0
 55125  1  0  0  0
 56 69  2  0  0  0
 57 58  2  0  0  0
 57126  1  0  0  0
 58127  1  0  0  0
 59 60  1  0  0  0
 59 61  1  0  0  0
 59 62  1  0  0  0
 60128  1  0  0  0
 60129  1  0  0  0
 60130  1  0  0  0
 61131  1  0  0  0
 61132  1  0  0  0
 61133  1  0  0  0
 62134  1  0  0  0
 62135  1  0  0  0
 62136  1  0  0  0
 63 65  1  0  0  0
 63137  1  0  0  0
 63138  1  0  0  0
 63139  1  0  0  0
 64140  1  0  0  0
 65141  1  0  0  0
 68 80  1  0  0  0
 71 72  2  0  0  0
 71 74  1  0  0  0
 71142  1  0  0  0
 72 76  1  0  0  0
 72143  1  0  0  0
 73 75  1  0  0  0
 73 76  2  0  0  0
 73144  1  0  0  0
 74 75  2  0  0  0
 74 77  1  0  0  0
 75 78  1  0  0  0
 76 81  1  0  0  0
 77145  1  0  0  0
 77146  1  0  0  0
 77147  1  0  0  0
 78 82  1  0  0  0
 78148  1  0  0  0
 78149  1  0  0  0
 79 80  1  0  0  0
 79 81  1  0  0  0
 79150  1  0  0  0
 79151  1  0  0  0
 80152  1  0  0  0
 80153  1  0  0  0
 81154  1  0  0  0
 82155  1  0  0  0
M  ISO  4   1 100  68 101  80 101  82 100
M  END
> <chiral flag>
0

> <version>
0

> <s_m_source_file>
/data/baiqing/PycharmProjects/Reinvent-master-3.2/result/LINK_invent/BTK/process_docking_weight1_custom_product_contain_oxygen_bond_distance_aromatic_linkinvent_7_9_3/rearranged_h_0007.sdf

> <i_m_source_file_index>
90

> <r_mmod_Potential_Energy-OPLS-2005>
72.5536193847656

> <r_mmod_Stretch_Energy-OPLS-2005>
114.606887817383

> <r_mmod_Bend_Energy-OPLS-2005>
165.678985595703

> <r_mmod_Torsional_Energy-OPLS-2005>
200.238204956055

> <r_mmod_Improper_Torsional_Energy-OPLS-2005>
8.24708938598633

> <r_mmod_Van_der_Waal_Energy-OPLS-2005>
143.571197509766

> <r_mmod_Electrostatic_Energy-OPLS-2005>
-413.037811279297

> <r_mmod_Solvation_Energy-OPLS-2005>
-224.743759155273

> <b_mmod_Minimization_Converged-OPLS-2005>
0

> <r_mmod_RMS_Derivative-OPLS-2005>
2.17422246932983

$$$$
90
                    3D
 Structure written by MMmdl.
150158  0  0  1  0            999 V2000
  -30.4148  -15.4922   20.3454 C   0  0  0  0  0  0
  -30.4110  -12.9824   19.5307 C   0  0  0  0  0  0
  -29.5316  -12.6171   18.3075 C   0  0  0  0  0  0
  -28.0998  -12.2931   18.7540 C   0  0  0  0  0  0
  -27.5933  -13.3012   19.8128 C   0  0  2  0  0  0
  -28.6164  -13.6083   20.9311 C   0  0  0  0  0  0
  -25.2318  -13.8297   20.5816 C   0  0  0  0  0  0
  -24.1698  -13.0448   20.9295 C   0  0  0  0  0  0
  -24.6389  -11.6955   20.8780 C   0  0  0  0  0  0
  -23.9103  -10.4296   21.0409 C   0  0  0  0  0  0
  -24.3645   -9.4206   21.9185 C   0  0  0  0  0  0
  -23.6310   -8.2245   22.0753 C   0  0  0  0  0  0
  -22.4288   -8.0288   21.3547 C   0  0  0  0  0  0
  -21.9934   -9.0264   20.4647 C   0  0  0  0  0  0
  -22.7274  -10.2138   20.3057 C   0  0  0  0  0  0
  -21.6857   -6.0739   22.5278 C   0  0  0  0  0  0
  -21.4020   -6.5642   23.8212 C   0  0  0  0  0  0
  -21.3661   -5.6795   24.9175 C   0  0  0  0  0  0
  -21.6045   -4.3057   24.7224 C   0  0  0  0  0  0
  -21.8818   -3.8148   23.4345 C   0  0  0  0  0  0
  -21.9193   -4.6965   22.3401 C   0  0  0  0  0  0
  -22.7712  -13.5178   21.1930 C   0  0  0  0  0  0
  -22.1660   -4.2152   21.0978 F   0  0  0  0  0  0
  -21.5625   -3.4541   25.7736 F   0  0  0  0  0  0
  -29.8063  -14.1788   20.2668 N   0  0  0  0  0  0
  -26.2749  -12.9614   20.3259 N   0  0  0  0  0  0
  -25.9332  -11.6691   20.5733 N   0  0  0  0  0  0
  -22.0377  -12.8149   22.0478 N   0  0  0  0  0  0
  -25.3945  -15.2037   20.4269 N   0  0  0  0  0  0
  -31.6422  -15.3537   20.1831 O   0  0  0  0  0  0
  -21.6648   -6.8887   21.4242 O   0  0  0  0  0  0
  -22.3392  -14.5479   20.6769 O   0  0  0  0  0  0
  -24.6761  -31.8082   23.1573 C   0  0  0  0  0  0
  -25.9378  -32.4506   23.8095 C   0  0  1  0  0  0
  -27.2183  -26.7801   20.2035 C   0  0  0  0  0  0
  -25.5988  -33.8328   24.1988 N   0  0  0  0  0  0
  -23.4981  -30.4133   21.5094 C   0  0  2  0  0  0
  -24.9534  -28.7703   20.1125 C   0  0  0  0  0  0
  -22.7733  -29.4356   22.4730 C   0  0  0  0  0  0
  -18.0336  -28.1414   22.8464 C   0  0  0  0  0  0
  -24.1495  -36.7174   23.2652 C   0  0  0  0  0  0
  -26.0742  -30.5659   21.4102 C   0  0  0  0  0  0
  -26.1392  -29.1397   20.7580 C   0  0  0  0  0  0
  -27.2594  -28.1690   20.7749 C   0  0  0  0  0  0
  -26.0047  -26.6016   19.4972 C   0  0  0  0  0  0
  -24.9207  -27.5264   19.4589 C   0  0  0  0  0  0
  -23.7467  -29.7168   20.1409 C   0  0  0  0  0  0
  -25.4141  -36.2918   24.0287 C   0  0  1  0  0  0
  -20.5967  -28.3770   23.1160 C   0  0  2  0  0  0
  -20.6802  -26.9438   22.5404 C   0  0  0  0  0  0
  -19.5774  -26.6372   21.5219 C   0  0  0  0  0  0
  -18.1959  -26.7944   22.1626 C   0  0  0  0  0  0
  -19.1600  -28.8916   23.2795 C   0  0  0  0  0  0
  -18.9506  -30.1501   23.8837 C   0  0  0  0  0  0
  -17.6496  -30.6599   24.0554 C   0  0  0  0  0  0
  -25.9116  -34.9307   23.4971 C   0  0  0  0  0  0
  -16.5387  -29.9082   23.6346 C   0  0  0  0  0  0
  -16.7317  -28.6504   23.0366 C   0  0  0  0  0  0
  -26.4578  -31.6511   25.0687 C   0  0  0  0  0  0
  -25.3662  -31.3808   26.1315 C   0  0  0  0  0  0
  -27.0500  -30.2857   24.6532 C   0  0  0  0  0  0
  -27.6035  -32.4360   25.7504 C   0  0  0  0  0  0
  -27.5564  -37.1745   24.8468 C   0  0  0  0  0  0
  -21.4386  -29.3035   22.3489 N   0  0  0  0  0  0
  -26.4274  -37.3670   23.9406 N   0  0  0  0  0  0
  -24.7720  -30.9605   22.0785 N   0  0  0  0  0  0
  -23.4217  -28.7949   23.3039 O   0  0  0  0  0  0
  -28.1927  -25.6027   20.3084 O   0  0  0  0  0  0
  -26.5749  -34.8871   22.4582 O   0  0  0  0  0  0
  -23.5798  -32.1121   23.6578 O   0  0  0  0  0  0
  -28.5071  -17.7105   20.5805 C   0  0  0  0  0  0
  -30.5849  -18.1983   19.7660 C   0  0  0  0  0  0
  -28.2678  -19.4130   20.8770 C   0  0  0  0  0  0
  -30.3409  -19.8585   20.1141 C   0  0  0  0  0  0
  -28.9045  -22.2980   20.5810 C   0  0  0  0  0  0
  -28.0493  -23.9000   20.0444 C   0  0  0  0  0  0
  -29.8418  -16.9299   20.3046 N   0  0  0  0  0  0
  -28.9707  -20.6109   20.1293 N   0  3  0  0  0  0
  -31.4189  -13.1938   19.1716 H   0  0  0  0  0  0
  -30.5243  -12.1258   20.1973 H   0  0  0  0  0  0
  -29.9583  -11.7722   17.7652 H   0  0  0  0  0  0
  -29.5159  -13.4558   17.6099 H   0  0  0  0  0  0
  -28.1069  -11.2901   19.1826 H   0  0  0  0  0  0
  -27.4261  -12.2575   17.8971 H   0  0  0  0  0  0
  -27.4652  -14.2308   19.2561 H   0  0  0  0  0  0
  -28.8479  -12.7237   21.5263 H   0  0  0  0  0  0
  -28.2077  -14.3485   21.6208 H   0  0  0  0  0  0
  -25.2783   -9.5681   22.4771 H   0  0  0  0  0  0
  -24.0011   -7.4637   22.7477 H   0  0  0  0  0  0
  -21.0860   -8.8794   19.8954 H   0  0  0  0  0  0
  -22.3731  -10.9682   19.6172 H   0  0  0  0  0  0
  -21.2019   -7.6152   23.9718 H   0  0  0  0  0  0
  -21.1482   -6.0523   25.9079 H   0  0  0  0  0  0
  -22.0594   -2.7609   23.2843 H   0  0  0  0  0  0
  -22.4019  -11.9822   22.4865 H   0  0  0  0  0  0
  -21.0990  -13.1150   22.2692 H   0  0  0  0  0  0
  -24.6241  -15.8535   20.5418 H   0  0  0  0  0  0
  -26.2417  -15.6450   20.0948 H   0  0  0  0  0  0
  -26.7457  -32.4999   23.0809 H   0  0  0  0  0  0
  -25.0055  -33.9378   25.0086 H   0  0  0  0  0  0
  -22.8191  -31.2487   21.3262 H   0  0  0  0  0  0
  -23.3767  -35.9493   23.3276 H   0  0  0  0  0  0
  -24.3564  -36.8867   22.2074 H   0  0  0  0  0  0
  -23.7247  -37.6343   23.6746 H   0  0  0  0  0  0
  -26.2712  -31.2963   20.6245 H   0  0  0  0  0  0
  -26.9279  -30.6288   22.0728 H   0  0  0  0  0  0
  -28.1513  -28.4530   21.3153 H   0  0  0  0  0  0
  -25.8532  -25.6561   18.9966 H   0  0  0  0  0  0
  -24.0243  -27.2375   18.9273 H   0  0  0  0  0  0
  -23.9164  -30.4800   19.3805 H   0  0  0  0  0  0
  -22.8527  -29.1803   19.8184 H   0  0  0  0  0  0
  -25.1347  -36.1692   25.0778 H   0  0  0  0  0  0
  -21.0056  -28.3389   24.1284 H   0  0  0  0  0  0
  -20.5670  -26.2395   23.3660 H   0  0  0  0  0  0
  -21.6663  -26.7387   22.1219 H   0  0  0  0  0  0
  -19.6928  -25.6266   21.1289 H   0  0  0  0  0  0
  -19.6709  -27.3149   20.6721 H   0  0  0  0  0  0
  -17.4227  -26.6693   21.4029 H   0  0  0  0  0  0
  -18.0345  -26.0097   22.9033 H   0  0  0  0  0  0
  -19.7980  -30.7335   24.2177 H   0  0  0  0  0  0
  -17.5045  -31.6270   24.5172 H   0  0  0  0  0  0
  -15.5383  -30.2966   23.7696 H   0  0  0  0  0  0
  -15.8720  -28.0798   22.7115 H   0  0  0  0  0  0
  -24.5867  -30.7134   25.7620 H   0  0  0  0  0  0
  -24.8828  -32.3024   26.4565 H   0  0  0  0  0  0
  -25.7857  -30.9089   27.0209 H   0  0  0  0  0  0
  -26.3195  -29.6485   24.1536 H   0  0  0  0  0  0
  -27.3968  -29.7285   25.5243 H   0  0  0  0  0  0
  -27.9162  -30.3998   24.0013 H   0  0  0  0  0  0
  -27.2573  -33.3718   26.1904 H   0  0  0  0  0  0
  -28.3938  -32.6831   25.0404 H   0  0  0  0  0  0
  -28.0602  -31.8612   26.5570 H   0  0  0  0  0  0
  -28.2558  -38.0061   24.7505 H   0  0  0  0  0  0
  -28.1083  -36.2584   24.6306 H   0  0  0  0  0  0
  -27.2279  -37.1398   25.8870 H   0  0  0  0  0  0
  -20.9672  -29.8709   21.6583 H   0  0  0  0  0  0
  -26.0107  -38.2723   24.1408 H   0  0  0  0  0  0
  -27.8886  -17.4764   19.7135 H   0  0  0  0  0  0
  -28.0223  -17.1782   21.3995 H   0  0  0  0  0  0
  -31.6441  -18.0140   19.9484 H   0  0  0  0  0  0
  -30.4908  -18.1107   18.6828 H   0  0  0  0  0  0
  -28.4967  -19.5651   21.9330 H   0  0  0  0  0  0
  -27.1964  -19.6045   20.8119 H   0  0  0  0  0  0
  -30.9825  -20.4214   19.4362 H   0  0  0  0  0  0
  -30.7806  -20.0318   21.0978 H   0  0  0  0  0  0
  -28.7760  -22.2650   21.6623 H   0  0  0  0  0  0
  -29.9520  -22.5739   20.4635 H   0  0  0  0  0  0
  -26.9983  -23.7157   20.2660 H   0  0  0  0  0  0
  -28.0914  -23.8508   18.9566 H   0  0  0  0  0  0
  -28.6395  -20.5811   19.1761 H   0  0  0  0  0  0
  1 25  1  0  0  0
  1 30  2  0  0  0
  1 77  1  0  0  0
  2  3  1  0  0  0
  2 25  1  0  0  0
  2 79  1  0  0  0
  2 80  1  0  0  0
  3  4  1  0  0  0
  3 81  1  0  0  0
  3 82  1  0  0  0
  4  5  1  0  0  0
  4 83  1  0  0  0
  4 84  1  0  0  0
  5  6  1  0  0  0
  5 26  1  0  0  0
  5 85  1  0  0  0
  6 25  1  0  0  0
  6 86  1  0  0  0
  6 87  1  0  0  0
  7  8  2  0  0  0
  7 26  1  0  0  0
  7 29  1  0  0  0
  8  9  1  0  0  0
  8 22  1  0  0  0
  9 10  1  0  0  0
  9 27  2  0  0  0
 10 11  2  0  0  0
 10 15  1  0  0  0
 11 12  1  0  0  0
 11 88  1  0  0  0
 12 13  2  0  0  0
 12 89  1  0  0  0
 13 14  1  0  0  0
 13 31  1  0  0  0
 14 15  2  0  0  0
 14 90  1  0  0  0
 15 91  1  0  0  0
 16 17  2  0  0  0
 16 21  1  0  0  0
 16 31  1  0  0  0
 17 18  1  0  0  0
 17 92  1  0  0  0
 18 19  2  0  0  0
 18 93  1  0  0  0
 19 20  1  0  0  0
 19 24  1  0  0  0
 20 21  2  0  0  0
 20 94  1  0  0  0
 21 23  1  0  0  0
 22 28  1  0  0  0
 22 32  2  0  0  0
 26 27  1  0  0  0
 28 95  1  0  0  0
 28 96  1  0  0  0
 29 97  1  0  0  0
 29 98  1  0  0  0
 33 34  1  0  0  0
 33 66  1  0  0  0
 33 70  2  0  0  0
 34 36  1  0  0  0
 34 59  1  0  0  0
 34 99  1  0  0  0
 35 44  2  0  0  0
 35 45  1  0  0  0
 35 68  1  0  0  0
 36 56  1  0  0  0
 36100  1  0  0  0
 37 39  1  0  0  0
 37 47  1  0  0  0
 37 66  1  0  0  0
 37101  1  0  0  0
 38 43  2  0  0  0
 38 46  1  0  0  0
 38 47  1  0  0  0
 39 64  1  0  0  0
 39 67  2  0  0  0
 40 52  1  0  0  0
 40 53  2  0  0  0
 40 58  1  0  0  0
 41102  1  0  0  0
 41103  1  0  0  0
 41104  1  0  0  0
 41 48  1  0  0  0
 42 43  1  0  0  0
 42 66  1  0  0  0
 42105  1  0  0  0
 42106  1  0  0  0
 43 44  1  0  0  0
 44107  1  0  0  0
 45 46  2  0  0  0
 45108  1  0  0  0
 46109  1  0  0  0
 47110  1  0  0  0
 47111  1  0  0  0
 48 56  1  0  0  0
 48 65  1  0  0  0
 48112  1  0  0  0
 49 50  1  0  0  0
 49 53  1  0  0  0
 49 64  1  0  0  0
 49113  1  0  0  0
 50 51  1  0  0  0
 50114  1  0  0  0
 50115  1  0  0  0
 51 52  1  0  0  0
 51116  1  0  0  0
 51117  1  0  0  0
 52118  1  0  0  0
 52119  1  0  0  0
 53 54  1  0  0  0
 54 55  2  0  0  0
 54120  1  0  0  0
 55 57  1  0  0  0
 55121  1  0  0  0
 56 69  2  0  0  0
 57 58  2  0  0  0
 57122  1  0  0  0
 58123  1  0  0  0
 59 60  1  0  0  0
 59 61  1  0  0  0
 59 62  1  0  0  0
 60124  1  0  0  0
 60125  1  0  0  0
 60126  1  0  0  0
 61127  1  0  0  0
 61128  1  0  0  0
 61129  1  0  0  0
 62130  1  0  0  0
 62131  1  0  0  0
 62132  1  0  0  0
 63 65  1  0  0  0
 63133  1  0  0  0
 63134  1  0  0  0
 63135  1  0  0  0
 64136  1  0  0  0
 65137  1  0  0  0
 68 76  1  0  0  0
 71 73  1  0  0  0
 71 77  1  0  0  0
 71138  1  0  0  0
 71139  1  0  0  0
 72 74  1  0  0  0
 72 77  1  0  0  0
 72140  1  0  0  0
 72141  1  0  0  0
 73 78  1  0  0  0
 73142  1  0  0  0
 73143  1  0  0  0
 74 78  1  0  0  0
 74144  1  0  0  0
 74145  1  0  0  0
 75 76  1  0  0  0
 75146  1  0  0  0
 75147  1  0  0  0
 75 78  1  0  0  0
 76148  1  0  0  0
 76149  1  0  0  0
 78150  1  0  0  0
M  CHG  1  78   1
M  ISO  4   1 100  68 101  76 101  77 100
M  END
> <chiral flag>
0

> <version>
0

> <s_m_source_file>
/data/baiqing/PycharmProjects/Reinvent-master-3.2/result/LINK_invent/BTK/process_docking_weight1_custom_product_contain_oxygen_bond_distance_aromatic_linkinvent_7_9_3/rearranged_h_0007.sdf

> <i_m_source_file_index>
91

> <r_mmod_Potential_Energy-OPLS-2005>
2069.70849609375

> <r_mmod_Stretch_Energy-OPLS-2005>
822.303466796875

> <r_mmod_Bend_Energy-OPLS-2005>
682.106689453125

> <r_mmod_Torsional_Energy-OPLS-2005>
364.669525146484

> <r_mmod_Improper_Torsional_Energy-OPLS-2005>
7.53518962860107

> <r_mmod_Van_der_Waal_Energy-OPLS-2005>
115.253486633301

> <r_mmod_Electrostatic_Energy-OPLS-2005>
-187.556671142578

> <r_mmod_Solvation_Energy-OPLS-2005>
-448.615417480469

> <b_mmod_Minimization_Converged-OPLS-2005>
0

> <r_mmod_RMS_Derivative-OPLS-2005>
0.569041132926941

$$$$
91
                    3D
 Structure written by MMmdl.
153161  0  0  1  0            999 V2000
  -30.4655  -15.1565   20.3862 C   0  0  0  0  0  0
  -30.4598  -12.7193   19.5263 C   0  0  0  0  0  0
  -29.5426  -12.5323   18.2898 C   0  0  0  0  0  0
  -28.0937  -12.2604   18.7384 C   0  0  0  0  0  0
  -27.6334  -13.2466   19.8410 C   0  0  2  0  0  0
  -28.6751  -13.3652   20.9766 C   0  0  0  0  0  0
  -25.2483  -13.8187   20.5725 C   0  0  0  0  0  0
  -24.1808  -13.0446   20.9238 C   0  0  0  0  0  0
  -24.6372  -11.6889   20.8754 C   0  0  0  0  0  0
  -23.9031  -10.4276   21.0395 C   0  0  0  0  0  0
  -24.3578   -9.4197   21.9187 C   0  0  0  0  0  0
  -23.6255   -8.2236   22.0764 C   0  0  0  0  0  0
  -22.4249   -8.0256   21.3546 C   0  0  0  0  0  0
  -21.9862   -9.0229   20.4660 C   0  0  0  0  0  0
  -22.7178  -10.2111   20.3067 C   0  0  0  0  0  0
  -21.6855   -6.0693   22.5262 C   0  0  0  0  0  0
  -21.4008   -6.5607   23.8190 C   0  0  0  0  0  0
  -21.3661   -5.6776   24.9161 C   0  0  0  0  0  0
  -21.6054   -4.3037   24.7228 C   0  0  0  0  0  0
  -21.8826   -3.8108   23.4352 C   0  0  0  0  0  0
  -21.9193   -4.6916   22.3399 C   0  0  0  0  0  0
  -22.7811  -13.5193   21.1908 C   0  0  0  0  0  0
  -22.1673   -4.2088   21.0987 F   0  0  0  0  0  0
  -21.5638   -3.4543   25.7754 F   0  0  0  0  0  0
  -29.9193  -13.8517   20.3540 N   0  0  0  0  0  0
  -26.2926  -12.9416   20.3289 N   0  0  0  0  0  0
  -25.9336  -11.6538   20.5797 N   0  0  0  0  0  0
  -22.0491  -12.8192   22.0436 N   0  0  0  0  0  0
  -25.4199  -15.1929   20.4096 N   0  0  0  0  0  0
  -31.6785  -15.2153   20.1524 O   0  0  0  0  0  0
  -21.6644   -6.8834   21.4217 O   0  0  0  0  0  0
  -22.3493  -14.5510   20.6730 O   0  0  0  0  0  0
  -24.6594  -31.8186   23.1876 C   0  0  0  0  0  0
  -25.9366  -32.4375   23.8334 C   0  0  1  0  0  0
  -27.2202  -27.0136   20.1584 C   0  0  0  0  0  0
  -25.6086  -33.8204   24.2248 N   0  0  0  0  0  0
  -23.4613  -30.4367   21.5302 C   0  0  2  0  0  0
  -24.9138  -28.8456   20.1073 C   0  0  0  0  0  0
  -22.7661  -29.4407   22.4915 C   0  0  0  0  0  0
  -18.0272  -28.1277   22.8497 C   0  0  0  0  0  0
  -24.1486  -36.6912   23.2688 C   0  0  0  0  0  0
  -26.0377  -30.6477   21.4135 C   0  0  0  0  0  0
  -26.0977  -29.2662   20.7240 C   0  0  0  0  0  0
  -27.2508  -28.3760   20.7128 C   0  0  0  0  0  0
  -26.0008  -26.7131   19.5168 C   0  0  0  0  0  0
  -24.8872  -27.5891   19.4796 C   0  0  0  0  0  0
  -23.6904  -29.7514   20.1554 C   0  0  0  0  0  0
  -25.4111  -36.2742   24.0398 C   0  0  1  0  0  0
  -20.5897  -28.3591   23.1195 C   0  0  2  0  0  0
  -20.6657  -26.9275   22.5385 C   0  0  0  0  0  0
  -19.5663  -26.6330   21.5132 C   0  0  0  0  0  0
  -18.1862  -26.7826   22.1596 C   0  0  0  0  0  0
  -19.1547  -28.8798   23.2794 C   0  0  0  0  0  0
  -18.9468  -30.1394   23.8804 C   0  0  0  0  0  0
  -17.6465  -30.6514   24.0476 C   0  0  0  0  0  0
  -25.9142  -34.9146   23.5141 C   0  0  0  0  0  0
  -16.5349  -29.8952   23.6346 C   0  0  0  0  0  0
  -16.7261  -28.6331   23.0459 C   0  0  0  0  0  0
  -26.4740  -31.6226   25.0798 C   0  0  0  0  0  0
  -25.4139  -31.3222   26.1639 C   0  0  0  0  0  0
  -27.0670  -30.2568   24.6587 C   0  0  0  0  0  0
  -27.6263  -32.4078   25.7497 C   0  0  0  0  0  0
  -27.5528  -37.1557   24.8581 C   0  0  0  0  0  0
  -21.4370  -29.2859   22.3597 N   0  0  0  0  0  0
  -26.4221  -37.3519   23.9543 N   0  0  0  0  0  0
  -24.7366  -30.9996   22.0900 N   0  0  0  0  0  0
  -23.4256  -28.8094   23.3204 O   0  0  0  0  0  0
  -28.2592  -25.9789   20.2812 O   0  0  0  0  0  0
  -26.5746  -34.8695   22.4727 O   0  0  0  0  0  0
  -23.5721  -32.1150   23.7074 O   0  0  0  0  0  0
  -30.5788  -19.1530   20.7461 C   0  0  0  0  0  0
  -28.5510  -18.8251   19.4944 C   0  0  0  0  0  0
  -30.0731  -20.6905   21.1105 C   0  0  0  0  0  0
  -28.0828  -20.3952   19.7843 C   0  0  0  0  0  0
  -29.4676  -17.9986   20.5421 C   0  0  1  0  0  0
  -28.6304  -22.9597   20.7053 C   0  0  0  0  0  0
  -28.2536  -24.4245   19.8374 C   0  0  0  0  0  0
  -29.6189  -16.3463   20.4896 N   0  0  0  0  0  0
  -29.1157  -21.4731   20.1745 N   0  3  1  0  0  0
  -31.4875  -12.8964   19.2091 H   0  0  0  0  0  0
  -30.4974  -11.7961   20.1096 H   0  0  0  0  0  0
  -29.9017  -11.7094   17.6721 H   0  0  0  0  0  0
  -29.5709  -13.4237   17.6657 H   0  0  0  0  0  0
  -28.0693  -11.2473   19.1437 H   0  0  0  0  0  0
  -27.4109  -12.2708   17.8911 H   0  0  0  0  0  0
  -27.5699  -14.2184   19.3532 H   0  0  0  0  0  0
  -28.8244  -12.4084   21.4789 H   0  0  0  0  0  0
  -28.3416  -14.0633   21.7440 H   0  0  0  0  0  0
  -25.2728   -9.5698   22.4755 H   0  0  0  0  0  0
  -23.9982   -7.4638   22.7496 H   0  0  0  0  0  0
  -21.0790   -8.8712   19.8971 H   0  0  0  0  0  0
  -22.3610  -10.9642   19.6175 H   0  0  0  0  0  0
  -21.1995   -7.6123   23.9656 H   0  0  0  0  0  0
  -21.1488   -6.0533   25.9063 H   0  0  0  0  0  0
  -22.0605   -2.7566   23.2883 H   0  0  0  0  0  0
  -22.4118  -11.9827   22.4800 H   0  0  0  0  0  0
  -21.1131  -13.1225   22.2722 H   0  0  0  0  0  0
  -24.6458  -15.8446   20.5127 H   0  0  0  0  0  0
  -26.2390  -15.6103   19.9898 H   0  0  0  0  0  0
  -26.7457  -32.4856   23.1053 H   0  0  0  0  0  0
  -25.0105  -33.9251   25.0309 H   0  0  0  0  0  0
  -22.7628  -31.2593   21.3650 H   0  0  0  0  0  0
  -23.3788  -35.9190   23.3358 H   0  0  0  0  0  0
  -24.3614  -36.8494   22.2103 H   0  0  0  0  0  0
  -23.7163  -37.6099   23.6686 H   0  0  0  0  0  0
  -26.2937  -31.4218   20.6896 H   0  0  0  0  0  0
  -26.8675  -30.6231   22.1084 H   0  0  0  0  0  0
  -28.1587  -28.7175   21.1923 H   0  0  0  0  0  0
  -25.8456  -25.7394   19.0829 H   0  0  0  0  0  0
  -23.9808  -27.2440   18.9999 H   0  0  0  0  0  0
  -23.8094  -30.5132   19.3876 H   0  0  0  0  0  0
  -22.8112  -29.1759   19.8617 H   0  0  0  0  0  0
  -25.1240  -36.1513   25.0878 H   0  0  0  0  0  0
  -20.9911  -28.3083   24.1337 H   0  0  0  0  0  0
  -20.5320  -26.2205   23.3600 H   0  0  0  0  0  0
  -21.6525  -26.7100   22.1309 H   0  0  0  0  0  0
  -19.6772  -25.6272   21.1057 H   0  0  0  0  0  0
  -19.6527  -27.3218   20.6736 H   0  0  0  0  0  0
  -17.4097  -26.6598   21.4024 H   0  0  0  0  0  0
  -18.0279  -25.9904   22.8955 H   0  0  0  0  0  0
  -19.7963  -30.7199   24.2119 H   0  0  0  0  0  0
  -17.5018  -31.6204   24.5049 H   0  0  0  0  0  0
  -15.5331  -30.2815   23.7724 H   0  0  0  0  0  0
  -15.8647  -28.0556   22.7359 H   0  0  0  0  0  0
  -24.6484  -30.6273   25.8175 H   0  0  0  0  0  0
  -24.9157  -32.2201   26.5290 H   0  0  0  0  0  0
  -25.8805  -30.8464   27.0301 H   0  0  0  0  0  0
  -26.3336  -29.6107   24.1743 H   0  0  0  0  0  0
  -27.4286  -29.7014   25.5282 H   0  0  0  0  0  0
  -27.9291  -30.3641   23.9988 H   0  0  0  0  0  0
  -27.2891  -33.3470   26.1916 H   0  0  0  0  0  0
  -28.4112  -32.6484   25.0293 H   0  0  0  0  0  0
  -28.0928  -31.8316   26.5526 H   0  0  0  0  0  0
  -28.2574  -37.9832   24.7589 H   0  0  0  0  0  0
  -28.1005  -36.2353   24.6432 H   0  0  0  0  0  0
  -27.2298  -37.1218   25.9016 H   0  0  0  0  0  0
  -20.9745  -29.8366   21.6513 H   0  0  0  0  0  0
  -26.0023  -38.2552   24.1616 H   0  0  0  0  0  0
  -31.2437  -18.8533   21.5632 H   0  0  0  0  0  0
  -31.2302  -19.2036   19.8672 H   0  0  0  0  0  0
  -29.0413  -18.8025   18.5180 H   0  0  0  0  0  0
  -27.6210  -18.2689   19.3481 H   0  0  0  0  0  0
  -29.5924  -20.6348   22.0942 H   0  0  0  0  0  0
  -30.9505  -21.3228   21.2819 H   0  0  0  0  0  0
  -27.3009  -20.3704   20.5495 H   0  0  0  0  0  0
  -27.5760  -20.7513   18.8800 H   0  0  0  0  0  0
  -28.8907  -18.0577   21.4720 H   0  0  0  0  0  0
  -27.7784  -22.7841   21.3772 H   0  0  0  0  0  0
  -29.4405  -23.2646   21.3755 H   0  0  0  0  0  0
  -28.9587  -24.4374   19.0089 H   0  0  0  0  0  0
  -27.2979  -24.2201   19.3558 H   0  0  0  0  0  0
  -28.6947  -15.9669   20.6357 H   0  0  0  0  0  0
  -29.6635  -21.6445   19.3379 H   0  0  0  0  0  0
  1 25  1  0  0  0
  1 30  2  0  0  0
  1 78  1  0  0  0
  2  3  1  0  0  0
  2 25  1  0  0  0
  2 80  1  0  0  0
  2 81  1  0  0  0
  3  4  1  0  0  0
  3 82  1  0  0  0
  3 83  1  0  0  0
  4  5  1  0  0  0
  4 84  1  0  0  0
  4 85  1  0  0  0
  5  6  1  0  0  0
  5 26  1  0  0  0
  5 86  1  0  0  0
  6 25  1  0  0  0
  6 87  1  0  0  0
  6 88  1  0  0  0
  7  8  2  0  0  0
  7 26  1  0  0  0
  7 29  1  0  0  0
  8  9  1  0  0  0
  8 22  1  0  0  0
  9 10  1  0  0  0
  9 27  2  0  0  0
 10 11  2  0  0  0
 10 15  1  0  0  0
 11 12  1  0  0  0
 11 89  1  0  0  0
 12 13  2  0  0  0
 12 90  1  0  0  0
 13 14  1  0  0  0
 13 31  1  0  0  0
 14 15  2  0  0  0
 14 91  1  0  0  0
 15 92  1  0  0  0
 16 17  2  0  0  0
 16 21  1  0  0  0
 16 31  1  0  0  0
 17 18  1  0  0  0
 17 93  1  0  0  0
 18 19  2  0  0  0
 18 94  1  0  0  0
 19 20  1  0  0  0
 19 24  1  0  0  0
 20 21  2  0  0  0
 20 95  1  0  0  0
 21 23  1  0  0  0
 22 28  1  0  0  0
 22 32  2  0  0  0
 26 27  1  0  0  0
 28 96  1  0  0  0
 28 97  1  0  0  0
 29 98  1  0  0  0
 29 99  1  0  0  0
 33 34  1  0  0  0
 33 66  1  0  0  0
 33 70  2  0  0  0
 34 36  1  0  0  0
 34 59  1  0  0  0
 34100  1  0  0  0
 35 44  2  0  0  0
 35 45  1  0  0  0
 35 68  1  0  0  0
 36 56  1  0  0  0
 36101  1  0  0  0
 37 39  1  0  0  0
 37 47  1  0  0  0
 37 66  1  0  0  0
 37102  1  0  0  0
 38 43  2  0  0  0
 38 46  1  0  0  0
 38 47  1  0  0  0
 39 64  1  0  0  0
 39 67  2  0  0  0
 40 52  1  0  0  0
 40 53  2  0  0  0
 40 58  1  0  0  0
 41103  1  0  0  0
 41104  1  0  0  0
 41105  1  0  0  0
 41 48  1  0  0  0
 42 43  1  0  0  0
 42 66  1  0  0  0
 42106  1  0  0  0
 42107  1  0  0  0
 43 44  1  0  0  0
 44108  1  0  0  0
 45 46  2  0  0  0
 45109  1  0  0  0
 46110  1  0  0  0
 47111  1  0  0  0
 47112  1  0  0  0
 48 56  1  0  0  0
 48 65  1  0  0  0
 48113  1  0  0  0
 49 50  1  0  0  0
 49 53  1  0  0  0
 49 64  1  0  0  0
 49114  1  0  0  0
 50 51  1  0  0  0
 50115  1  0  0  0
 50116  1  0  0  0
 51 52  1  0  0  0
 51117  1  0  0  0
 51118  1  0  0  0
 52119  1  0  0  0
 52120  1  0  0  0
 53 54  1  0  0  0
 54 55  2  0  0  0
 54121  1  0  0  0
 55 57  1  0  0  0
 55122  1  0  0  0
 56 69  2  0  0  0
 57 58  2  0  0  0
 57123  1  0  0  0
 58124  1  0  0  0
 59 60  1  0  0  0
 59 61  1  0  0  0
 59 62  1  0  0  0
 60125  1  0  0  0
 60126  1  0  0  0
 60127  1  0  0  0
 61128  1  0  0  0
 61129  1  0  0  0
 61130  1  0  0  0
 62131  1  0  0  0
 62132  1  0  0  0
 62133  1  0  0  0
 63 65  1  0  0  0
 63134  1  0  0  0
 63135  1  0  0  0
 63136  1  0  0  0
 64137  1  0  0  0
 65138  1  0  0  0
 68 77  1  0  0  0
 71 73  1  0  0  0
 71 75  1  0  0  0
 71139  1  0  0  0
 71140  1  0  0  0
 72 74  1  0  0  0
 72 75  1  0  0  0
 72141  1  0  0  0
 72142  1  0  0  0
 73 79  1  0  0  0
 73143  1  0  0  0
 73144  1  0  0  0
 74 79  1  0  0  0
 74145  1  0  0  0
 74146  1  0  0  0
 75 78  1  0  0  0
 75147  1  0  0  0
 76 77  1  0  0  0
 76148  1  0  0  0
 76149  1  0  0  0
 76 79  1  0  0  0
 77150  1  0  0  0
 77151  1  0  0  0
 78152  1  0  0  0
 79153  1  0  0  0
M  CHG  1  79   1
M  ISO  4   1 100  68 101  77 101  78 100
M  END
> <chiral flag>
0

> <version>
0

> <s_m_source_file>
/data/baiqing/PycharmProjects/Reinvent-master-3.2/result/LINK_invent/BTK/process_docking_weight1_custom_product_contain_oxygen_bond_distance_aromatic_linkinvent_7_9_3/rearranged_h_0007.sdf

> <i_m_source_file_index>
92

> <r_mmod_Potential_Energy-OPLS-2005>
907.49267578125

> <r_mmod_Stretch_Energy-OPLS-2005>
422.123931884766

> <r_mmod_Bend_Energy-OPLS-2005>
452.849731445312

> <r_mmod_Torsional_Energy-OPLS-2005>
236.023727416992

> <r_mmod_Improper_Torsional_Energy-OPLS-2005>
4.44967126846313

> <r_mmod_Van_der_Waal_Energy-OPLS-2005>
109.575119018555

> <r_mmod_Electrostatic_Energy-OPLS-2005>
-210.960876464844

> <r_mmod_Solvation_Energy-OPLS-2005>
-454.601898193359

> <b_mmod_Minimization_Converged-OPLS-2005>
0

> <r_mmod_RMS_Derivative-OPLS-2005>
8.72944927215576

$$$$
92
                    3D
 Structure written by MMmdl.
151159  0  0  1  0            999 V2000
  -30.6215  -14.6492   20.4477 C   0  0  0  0  0  0
  -30.4275  -12.3810   19.4734 C   0  0  0  0  0  0
  -29.5099  -12.4986   18.2352 C   0  0  0  0  0  0
  -28.0306  -12.3465   18.6432 C   0  0  0  0  0  0
  -27.6507  -13.2230   19.8669 C   0  0  2  0  0  0
  -28.6941  -13.1038   21.0043 C   0  0  0  0  0  0
  -25.2533  -13.8202   20.5707 C   0  0  0  0  0  0
  -24.1808  -13.0439   20.9201 C   0  0  0  0  0  0
  -24.6390  -11.6922   20.8762 C   0  0  0  0  0  0
  -23.9078  -10.4284   21.0402 C   0  0  0  0  0  0
  -24.3626   -9.4210   21.9187 C   0  0  0  0  0  0
  -23.6294   -8.2251   22.0753 C   0  0  0  0  0  0
  -22.4289   -8.0277   21.3532 C   0  0  0  0  0  0
  -21.9916   -9.0261   20.4642 C   0  0  0  0  0  0
  -22.7247  -10.2135   20.3049 C   0  0  0  0  0  0
  -21.6852   -6.0738   22.5274 C   0  0  0  0  0  0
  -21.4025   -6.5641   23.8211 C   0  0  0  0  0  0
  -21.3665   -5.6787   24.9168 C   0  0  0  0  0  0
  -21.6033   -4.3050   24.7214 C   0  0  0  0  0  0
  -21.8827   -3.8147   23.4337 C   0  0  0  0  0  0
  -21.9203   -4.6966   22.3400 C   0  0  0  0  0  0
  -22.7819  -13.5225   21.1848 C   0  0  0  0  0  0
  -22.1660   -4.2147   21.0980 F   0  0  0  0  0  0
  -21.5629   -3.4543   25.7732 F   0  0  0  0  0  0
  -30.0094  -13.4232   20.4332 N   0  0  0  0  0  0
  -26.2965  -12.9392   20.3348 N   0  0  0  0  0  0
  -25.9320  -11.6541   20.5792 N   0  0  0  0  0  0
  -22.0487  -12.8222   22.0414 N   0  0  0  0  0  0
  -25.4253  -15.1930   20.4161 N   0  0  0  0  0  0
  -31.7872  -14.7798   20.0701 O   0  0  0  0  0  0
  -21.6643   -6.8884   21.4229 O   0  0  0  0  0  0
  -22.3500  -14.5539   20.6693 O   0  0  0  0  0  0
  -24.6235  -31.8587   23.2016 C   0  0  0  0  0  0
  -25.9099  -32.4776   23.8336 C   0  0  1  0  0  0
  -27.2385  -27.3275   20.1077 C   0  0  0  0  0  0
  -25.5910  -33.8575   24.2274 N   0  0  0  0  0  0
  -23.4180  -30.4806   21.5421 C   0  0  2  0  0  0
  -24.8655  -28.9282   20.1102 C   0  0  0  0  0  0
  -22.7452  -29.4625   22.4921 C   0  0  0  0  0  0
  -18.0285  -28.1385   22.8487 C   0  0  0  0  0  0
  -24.1488  -36.7295   23.2645 C   0  0  0  0  0  0
  -25.9553  -30.7898   21.3711 C   0  0  0  0  0  0
  -26.0296  -29.4151   20.7163 C   0  0  0  0  0  0
  -27.2125  -28.6230   20.7104 C   0  0  0  0  0  0
  -26.0491  -26.8779   19.4927 C   0  0  0  0  0  0
  -24.8766  -27.6643   19.4941 C   0  0  0  0  0  0
  -23.6315  -29.8072   20.1585 C   0  0  0  0  0  0
  -25.4113  -36.3080   24.0328 C   0  0  1  0  0  0
  -20.5890  -28.3688   23.1276 C   0  0  2  0  0  0
  -20.6783  -26.9412   22.5383 C   0  0  0  0  0  0
  -19.5759  -26.6405   21.5187 C   0  0  0  0  0  0
  -18.1934  -26.7947   22.1597 C   0  0  0  0  0  0
  -19.1546  -28.8844   23.2890 C   0  0  0  0  0  0
  -18.9476  -30.1437   23.8911 C   0  0  0  0  0  0
  -17.6476  -30.6567   24.0562 C   0  0  0  0  0  0
  -25.9047  -34.9450   23.5105 C   0  0  0  0  0  0
  -16.5357  -29.9076   23.6330 C   0  0  0  0  0  0
  -16.7273  -28.6499   23.0343 C   0  0  0  0  0  0
  -26.4493  -31.6584   25.0706 C   0  0  0  0  0  0
  -25.3728  -31.3703   26.1441 C   0  0  0  0  0  0
  -27.0335  -30.3004   24.6143 C   0  0  0  0  0  0
  -27.6038  -32.4330   25.7489 C   0  0  0  0  0  0
  -27.5577  -37.1803   24.8470 C   0  0  0  0  0  0
  -21.4166  -29.3057   22.3664 N   0  0  0  0  0  0
  -26.4291  -37.3770   23.9409 N   0  0  0  0  0  0
  -24.6847  -31.0599   22.0962 N   0  0  0  0  0  0
  -23.4173  -28.8167   23.3008 O   0  0  0  0  0  0
  -28.3918  -26.5347   20.1747 O   0  0  0  0  0  0
  -26.5618  -34.8915   22.4675 O   0  0  0  0  0  0
  -23.5398  -32.1379   23.7349 O   0  0  0  0  0  0
  -30.4792  -19.3825   20.9136 C   0  0  0  0  0  0
  -30.3697  -20.8030   20.9617 C   0  0  0  0  0  0
  -28.4566  -20.7329   19.5146 C   0  0  0  0  0  0
  -29.6065  -18.5851   20.1268 C   0  0  0  0  0  0
  -29.3631  -21.5269   20.2663 C   0  0  0  0  0  0
  -28.5870  -19.3107   19.4359 C   0  0  0  0  0  0
  -29.8451  -17.0406   19.8407 C   0  0  0  0  0  0
  -28.5459  -25.2436   19.4750 C   0  0  0  0  0  0
  -28.2580  -23.8332   20.1684 C   0  0  0  0  0  0
  -29.8109  -15.7459   20.6304 N   0  0  0  0  0  0
  -29.4158  -22.9391   20.3006 O   0  0  0  0  0  0
  -27.7311  -18.6335   18.6361 F   0  0  0  0  0  0
  -31.4746  -12.4849   19.1817 H   0  0  0  0  0  0
  -30.3467  -11.3896   19.9248 H   0  0  0  0  0  0
  -29.7726  -11.7377   17.4974 H   0  0  0  0  0  0
  -29.6663  -13.4628   17.7513 H   0  0  0  0  0  0
  -27.8615  -11.2936   18.8810 H   0  0  0  0  0  0
  -27.3810  -12.5753   17.7984 H   0  0  0  0  0  0
  -27.6655  -14.2535   19.5146 H   0  0  0  0  0  0
  -28.6945  -12.0988   21.4279 H   0  0  0  0  0  0
  -28.4500  -13.7786   21.8288 H   0  0  0  0  0  0
  -25.2776   -9.5689   22.4761 H   0  0  0  0  0  0
  -24.0000   -7.4643   22.7477 H   0  0  0  0  0  0
  -21.0851   -8.8785   19.8948 H   0  0  0  0  0  0
  -22.3713  -10.9675   19.6155 H   0  0  0  0  0  0
  -21.2016   -7.6151   23.9710 H   0  0  0  0  0  0
  -21.1477   -6.0523   25.9068 H   0  0  0  0  0  0
  -22.0602   -2.7609   23.2846 H   0  0  0  0  0  0
  -22.4092  -11.9876   22.4799 H   0  0  0  0  0  0
  -21.1088  -13.1205   22.2621 H   0  0  0  0  0  0
  -24.6576  -15.8473   20.5300 H   0  0  0  0  0  0
  -26.2762  -15.6383   20.0920 H   0  0  0  0  0  0
  -26.7159  -32.5438   23.1071 H   0  0  0  0  0  0
  -25.0034  -33.9712   25.0409 H   0  0  0  0  0  0
  -22.7123  -31.2999   21.3966 H   0  0  0  0  0  0
  -23.3746  -35.9635   23.3316 H   0  0  0  0  0  0
  -24.3577  -36.8908   22.2058 H   0  0  0  0  0  0
  -23.7247  -37.6498   23.6669 H   0  0  0  0  0  0
  -26.0828  -31.5516   20.6003 H   0  0  0  0  0  0
  -26.8380  -30.8422   21.9969 H   0  0  0  0  0  0
  -28.1068  -28.9932   21.1921 H   0  0  0  0  0  0
  -25.9993  -25.9030   19.0294 H   0  0  0  0  0  0
  -23.9817  -27.2811   19.0239 H   0  0  0  0  0  0
  -23.7488  -30.5803   19.3984 H   0  0  0  0  0  0
  -22.7523  -29.2311   19.8600 H   0  0  0  0  0  0
  -25.1304  -36.1925   25.0817 H   0  0  0  0  0  0
  -20.9977  -28.3238   24.1413 H   0  0  0  0  0  0
  -21.6647  -26.7437   22.1164 H   0  0  0  0  0  0
  -20.5677  -26.2280   23.3556 H   0  0  0  0  0  0
  -19.6886  -25.6326   21.1195 H   0  0  0  0  0  0
  -19.6724  -27.3262   20.6755 H   0  0  0  0  0  0
  -17.4208  -26.6691   21.4003 H   0  0  0  0  0  0
  -18.0284  -26.0080   22.8972 H   0  0  0  0  0  0
  -19.7948  -30.7255   24.2288 H   0  0  0  0  0  0
  -17.5051  -31.6236   24.5171 H   0  0  0  0  0  0
  -15.5353  -30.2993   23.7667 H   0  0  0  0  0  0
  -15.8674  -28.0809   22.7040 H   0  0  0  0  0  0
  -24.5915  -30.7040   25.7772 H   0  0  0  0  0  0
  -24.8910  -32.2856   26.4881 H   0  0  0  0  0  0
  -25.8069  -30.8873   27.0206 H   0  0  0  0  0  0
  -26.2889  -29.6754   24.1188 H   0  0  0  0  0  0
  -27.4065  -29.7270   25.4646 H   0  0  0  0  0  0
  -27.8760  -30.4316   23.9344 H   0  0  0  0  0  0
  -27.2633  -33.3638   26.2050 H   0  0  0  0  0  0
  -28.3861  -32.6869   25.0323 H   0  0  0  0  0  0
  -28.0690  -31.8454   26.5418 H   0  0  0  0  0  0
  -28.2603  -38.0087   24.7500 H   0  0  0  0  0  0
  -28.1054  -36.2615   24.6324 H   0  0  0  0  0  0
  -27.2289  -37.1499   25.8868 H   0  0  0  0  0  0
  -20.9331  -29.8780   21.6882 H   0  0  0  0  0  0
  -26.0174  -38.2847   24.1390 H   0  0  0  0  0  0
  -31.2948  -18.9099   21.4409 H   0  0  0  0  0  0
  -31.1036  -21.3562   21.5332 H   0  0  0  0  0  0
  -27.6841  -21.2047   18.9279 H   0  0  0  0  0  0
  -28.9769  -17.0770   20.5012 H   0  0  0  0  0  0
  -30.8887  -17.1609   20.1257 H   0  0  0  0  0  0
  -28.0493  -25.2824   18.5066 H   0  0  0  0  0  0
  -29.6013  -25.2260   19.2040 H   0  0  0  0  0  0
  -27.4521  -23.3397   19.6279 H   0  0  0  0  0  0
  -27.8713  -24.0108   21.1719 H   0  0  0  0  0  0
  -28.9104  -15.5259   21.0240 H   0  0  0  0  0  0
  1 25  1  0  0  0
  1 30  2  0  0  0
  1 80  1  0  0  0
  2  3  1  0  0  0
  2 25  1  0  0  0
  2 83  1  0  0  0
  2 84  1  0  0  0
  3  4  1  0  0  0
  3 85  1  0  0  0
  3 86  1  0  0  0
  4  5  1  0  0  0
  4 87  1  0  0  0
  4 88  1  0  0  0
  5  6  1  0  0  0
  5 26  1  0  0  0
  5 89  1  0  0  0
  6 25  1  0  0  0
  6 90  1  0  0  0
  6 91  1  0  0  0
  7  8  2  0  0  0
  7 26  1  0  0  0
  7 29  1  0  0  0
  8  9  1  0  0  0
  8 22  1  0  0  0
  9 10  1  0  0  0
  9 27  2  0  0  0
 10 11  2  0  0  0
 10 15  1  0  0  0
 11 12  1  0  0  0
 11 92  1  0  0  0
 12 13  2  0  0  0
 12 93  1  0  0  0
 13 14  1  0  0  0
 13 31  1  0  0  0
 14 15  2  0  0  0
 14 94  1  0  0  0
 15 95  1  0  0  0
 16 17  2  0  0  0
 16 21  1  0  0  0
 16 31  1  0  0  0
 17 18  1  0  0  0
 17 96  1  0  0  0
 18 19  2  0  0  0
 18 97  1  0  0  0
 19 20  1  0  0  0
 19 24  1  0  0  0
 20 21  2  0  0  0
 20 98  1  0  0  0
 21 23  1  0  0  0
 22 28  1  0  0  0
 22 32  2  0  0  0
 26 27  1  0  0  0
 28 99  1  0  0  0
 28100  1  0  0  0
 29101  1  0  0  0
 29102  1  0  0  0
 33 34  1  0  0  0
 33 66  1  0  0  0
 33 70  2  0  0  0
 34 36  1  0  0  0
 34 59  1  0  0  0
 34103  1  0  0  0
 35 44  2  0  0  0
 35 45  1  0  0  0
 35 68  1  0  0  0
 36 56  1  0  0  0
 36104  1  0  0  0
 37 39  1  0  0  0
 37 47  1  0  0  0
 37 66  1  0  0  0
 37105  1  0  0  0
 38 43  2  0  0  0
 38 46  1  0  0  0
 38 47  1  0  0  0
 39 64  1  0  0  0
 39 67  2  0  0  0
 40 52  1  0  0  0
 40 53  2  0  0  0
 40 58  1  0  0  0
 41106  1  0  0  0
 41107  1  0  0  0
 41108  1  0  0  0
 41 48  1  0  0  0
 42 43  1  0  0  0
 42 66  1  0  0  0
 42109  1  0  0  0
 42110  1  0  0  0
 43 44  1  0  0  0
 44111  1  0  0  0
 45 46  2  0  0  0
 45112  1  0  0  0
 46113  1  0  0  0
 47114  1  0  0  0
 47115  1  0  0  0
 48 56  1  0  0  0
 48 65  1  0  0  0
 48116  1  0  0  0
 49 50  1  0  0  0
 49 53  1  0  0  0
 49 64  1  0  0  0
 49117  1  0  0  0
 50 51  1  0  0  0
 50118  1  0  0  0
 50119  1  0  0  0
 51 52  1  0  0  0
 51120  1  0  0  0
 51121  1  0  0  0
 52122  1  0  0  0
 52123  1  0  0  0
 53 54  1  0  0  0
 54 55  2  0  0  0
 54124  1  0  0  0
 55 57  1  0  0  0
 55125  1  0  0  0
 56 69  2  0  0  0
 57 58  2  0  0  0
 57126  1  0  0  0
 58127  1  0  0  0
 59 60  1  0  0  0
 59 61  1  0  0  0
 59 62  1  0  0  0
 60128  1  0  0  0
 60129  1  0  0  0
 60130  1  0  0  0
 61131  1  0  0  0
 61132  1  0  0  0
 61133  1  0  0  0
 62134  1  0  0  0
 62135  1  0  0  0
 62136  1  0  0  0
 63 65  1  0  0  0
 63137  1  0  0  0
 63138  1  0  0  0
 63139  1  0  0  0
 64140  1  0  0  0
 65141  1  0  0  0
 68 78  1  0  0  0
 71 72  2  0  0  0
 71 74  1  0  0  0
 71142  1  0  0  0
 72 75  1  0  0  0
 72143  1  0  0  0
 73 75  2  0  0  0
 73 76  1  0  0  0
 73144  1  0  0  0
 74 76  2  0  0  0
 74 77  1  0  0  0
 75 81  1  0  0  0
 76 82  1  0  0  0
 77 80  1  0  0  0
 77145  1  0  0  0
 77146  1  0  0  0
 78 79  1  0  0  0
 78147  1  0  0  0
 78148  1  0  0  0
 79 81  1  0  0  0
 79149  1  0  0  0
 79150  1  0  0  0
 80151  1  0  0  0
M  ISO  4   1 100  68 101  78 101  80 100
M  END
> <chiral flag>
0

> <version>
0

> <s_m_source_file>
/data/baiqing/PycharmProjects/Reinvent-master-3.2/result/LINK_invent/BTK/process_docking_weight1_custom_product_contain_oxygen_bond_distance_aromatic_linkinvent_7_9_3/rearranged_h_0007.sdf

> <i_m_source_file_index>
93

> <r_mmod_Potential_Energy-OPLS-2005>
303.300933837891

> <r_mmod_Stretch_Energy-OPLS-2005>
83.030647277832

> <r_mmod_Bend_Energy-OPLS-2005>
379.425720214844

> <r_mmod_Torsional_Energy-OPLS-2005>
228.444473266602

> <r_mmod_Improper_Torsional_Energy-OPLS-2005>
9.71850299835205

> <r_mmod_Van_der_Waal_Energy-OPLS-2005>
146.954132080078

> <r_mmod_Electrostatic_Energy-OPLS-2005>
-379.869842529297

> <r_mmod_Solvation_Energy-OPLS-2005>
-212.534759521484

> <b_mmod_Minimization_Converged-OPLS-2005>
0

> <r_mmod_RMS_Derivative-OPLS-2005>
4.19597911834717

$$$$
93
                    3D
 Structure written by MMmdl.
162171  0  0  1  0            999 V2000
  -30.7112  -14.5081   20.5594 C   0  0  0  0  0  0
  -30.4148  -12.3295   19.4291 C   0  0  0  0  0  0
  -29.4901  -12.5017   18.2083 C   0  0  0  0  0  0
  -28.0136  -12.3598   18.6250 C   0  0  0  0  0  0
  -27.6548  -13.2151   19.8703 C   0  0  2  0  0  0
  -28.6995  -13.0359   20.9939 C   0  0  0  0  0  0
  -25.2555  -13.8181   20.5695 C   0  0  0  0  0  0
  -24.1817  -13.0447   20.9190 C   0  0  0  0  0  0
  -24.6383  -11.6916   20.8749 C   0  0  0  0  0  0
  -23.9053  -10.4296   21.0412 C   0  0  0  0  0  0
  -24.3605   -9.4213   21.9191 C   0  0  0  0  0  0
  -23.6285   -8.2247   22.0760 C   0  0  0  0  0  0
  -22.4272   -8.0282   21.3544 C   0  0  0  0  0  0
  -21.9905   -9.0257   20.4646 C   0  0  0  0  0  0
  -22.7228  -10.2138   20.3058 C   0  0  0  0  0  0
  -21.6852   -6.0735   22.5277 C   0  0  0  0  0  0
  -21.4013   -6.5640   23.8213 C   0  0  0  0  0  0
  -21.3659   -5.6791   24.9176 C   0  0  0  0  0  0
  -21.6044   -4.3054   24.7227 C   0  0  0  0  0  0
  -21.8816   -3.8146   23.4347 C   0  0  0  0  0  0
  -21.9192   -4.6960   22.3402 C   0  0  0  0  0  0
  -22.7838  -13.5236   21.1850 C   0  0  0  0  0  0
  -22.1661   -4.2144   21.0979 F   0  0  0  0  0  0
  -21.5629   -3.4538   25.7744 F   0  0  0  0  0  0
  -30.0222  -13.3393   20.4274 N   0  0  0  0  0  0
  -26.2993  -12.9363   20.3369 N   0  0  0  0  0  0
  -25.9311  -11.6515   20.5779 N   0  0  0  0  0  0
  -22.0478  -12.8231   22.0408 N   0  0  0  0  0  0
  -25.4276  -15.1902   20.4098 N   0  0  0  0  0  0
  -31.8502  -14.6477   20.1085 O   0  0  0  0  0  0
  -21.6640   -6.8879   21.4239 O   0  0  0  0  0  0
  -22.3528  -14.5546   20.6703 O   0  0  0  0  0  0
  -24.6174  -31.8648   23.2080 C   0  0  0  0  0  0
  -25.9058  -32.4802   23.8378 C   0  0  1  0  0  0
  -27.2317  -27.3883   20.1004 C   0  0  0  0  0  0
  -25.5912  -33.8602   24.2309 N   0  0  0  0  0  0
  -23.4075  -30.4881   21.5494 C   0  0  2  0  0  0
  -24.8530  -28.9487   20.1140 C   0  0  0  0  0  0
  -22.7431  -29.4638   22.4976 C   0  0  0  0  0  0
  -18.0279  -28.1363   22.8483 C   0  0  0  0  0  0
  -24.1484  -36.7296   23.2642 C   0  0  0  0  0  0
  -25.9408  -30.8157   21.3685 C   0  0  0  0  0  0
  -26.0164  -29.4477   20.7118 C   0  0  0  0  0  0
  -27.2062  -28.6757   20.6995 C   0  0  0  0  0  0
  -26.0449  -26.9195   19.4901 C   0  0  0  0  0  0
  -24.8648  -27.6857   19.4996 C   0  0  0  0  0  0
  -23.6181  -29.8205   20.1644 C   0  0  0  0  0  0
  -25.4111  -36.3096   24.0333 C   0  0  1  0  0  0
  -20.5869  -28.3657   23.1307 C   0  0  2  0  0  0
  -20.6760  -26.9385   22.5420 C   0  0  0  0  0  0
  -19.5751  -26.6371   21.5200 C   0  0  0  0  0  0
  -18.1924  -26.7919   22.1600 C   0  0  0  0  0  0
  -19.1527  -28.8824   23.2892 C   0  0  0  0  0  0
  -18.9462  -30.1431   23.8901 C   0  0  0  0  0  0
  -17.6467  -30.6577   24.0556 C   0  0  0  0  0  0
  -25.9041  -34.9464   23.5119 C   0  0  0  0  0  0
  -16.5354  -29.9074   23.6324 C   0  0  0  0  0  0
  -16.7270  -28.6489   23.0345 C   0  0  0  0  0  0
  -26.4472  -31.6597   25.0722 C   0  0  0  0  0  0
  -25.3728  -31.3723   26.1466 C   0  0  0  0  0  0
  -27.0305  -30.3036   24.6121 C   0  0  0  0  0  0
  -27.6041  -32.4317   25.7485 C   0  0  0  0  0  0
  -27.5581  -37.1805   24.8466 C   0  0  0  0  0  0
  -21.4152  -29.3027   22.3718 N   0  0  0  0  0  0
  -26.4296  -37.3784   23.9403 N   0  0  0  0  0  0
  -24.6738  -31.0708   22.1002 N   0  0  0  0  0  0
  -23.4191  -28.8180   23.3031 O   0  0  0  0  0  0
  -28.4010  -26.6357   20.1353 O   0  0  0  0  0  0
  -26.5603  -34.8921   22.4682 O   0  0  0  0  0  0
  -23.5358  -32.1416   23.7452 O   0  0  0  0  0  0
  -30.6769  -18.9142   20.0583 C   0  0  0  0  0  0
  -30.3202  -20.2615   19.8035 C   0  0  0  0  0  0
  -28.6977  -20.1627   21.5809 C   0  0  0  0  0  0
  -30.0785  -18.1749   21.1033 C   0  0  0  0  0  0
  -29.0412  -18.8064   21.8365 C   0  0  0  0  0  0
  -29.3503  -20.9420   20.5870 C   0  0  0  0  0  0
  -29.8238  -24.6654   19.7804 C   0  0  0  0  0  0
  -27.6408  -24.3536   20.8929 C   0  0  0  0  0  0
  -29.8932  -23.1390   19.4934 C   0  0  0  0  0  0
  -27.6971  -22.8329   20.5772 C   0  0  0  0  0  0
  -28.3810  -25.2107   19.8355 C   0  0  0  0  0  0
  -28.3261  -18.0707   22.9569 C   0  0  0  0  0  0
  -30.6969  -16.8211   21.5319 C   0  0  0  0  0  0
  -29.0763  -22.3399   20.4225 N   0  0  0  0  0  0
  -30.0568  -15.5525   21.1166 N   0  0  0  0  0  0
  -31.4597  -12.4177   19.1265 H   0  0  0  0  0  0
  -30.3136  -11.3275   19.8489 H   0  0  0  0  0  0
  -29.7342  -11.7646   17.4421 H   0  0  0  0  0  0
  -29.6525  -13.4813   17.7559 H   0  0  0  0  0  0
  -27.8316  -11.3051   18.8361 H   0  0  0  0  0  0
  -27.3596  -12.6174   17.7907 H   0  0  0  0  0  0
  -27.6875  -14.2581   19.5540 H   0  0  0  0  0  0
  -28.6848  -12.0115   21.3686 H   0  0  0  0  0  0
  -28.4614  -13.6662   21.8519 H   0  0  0  0  0  0
  -25.2744   -9.5697   22.4774 H   0  0  0  0  0  0
  -23.9995   -7.4645   22.7482 H   0  0  0  0  0  0
  -21.0839   -8.8772   19.8950 H   0  0  0  0  0  0
  -22.3684  -10.9678   19.6171 H   0  0  0  0  0  0
  -21.2004   -7.6149   23.9714 H   0  0  0  0  0  0
  -21.1485   -6.0524   25.9079 H   0  0  0  0  0  0
  -22.0595   -2.7607   23.2851 H   0  0  0  0  0  0
  -22.4077  -11.9877   22.4779 H   0  0  0  0  0  0
  -21.1102  -13.1269   22.2620 H   0  0  0  0  0  0
  -24.6607  -15.8456   20.5134 H   0  0  0  0  0  0
  -26.2803  -15.6285   20.0849 H   0  0  0  0  0  0
  -26.7121  -32.5491   23.1127 H   0  0  0  0  0  0
  -25.0079  -33.9757   25.0467 H   0  0  0  0  0  0
  -22.6975  -31.3061   21.4086 H   0  0  0  0  0  0
  -23.3745  -35.9630   23.3312 H   0  0  0  0  0  0
  -24.3575  -36.8907   22.2057 H   0  0  0  0  0  0
  -23.7238  -37.6500   23.6660 H   0  0  0  0  0  0
  -26.0600  -31.5826   20.6022 H   0  0  0  0  0  0
  -26.8259  -30.8663   21.9905 H   0  0  0  0  0  0
  -28.1033  -29.0562   21.1685 H   0  0  0  0  0  0
  -26.0005  -25.9558   19.0065 H   0  0  0  0  0  0
  -23.9703  -27.2944   19.0340 H   0  0  0  0  0  0
  -23.7316  -30.5964   19.4061 H   0  0  0  0  0  0
  -22.7408  -29.2446   19.8655 H   0  0  0  0  0  0
  -25.1288  -36.1961   25.0826 H   0  0  0  0  0  0
  -20.9955  -28.3226   24.1430 H   0  0  0  0  0  0
  -20.5636  -26.2265   23.3612 H   0  0  0  0  0  0
  -21.6638  -26.7411   22.1236 H   0  0  0  0  0  0
  -19.6913  -25.6283   21.1228 H   0  0  0  0  0  0
  -19.6703  -27.3177   20.6732 H   0  0  0  0  0  0
  -17.4205  -26.6681   21.3986 H   0  0  0  0  0  0
  -18.0300  -26.0042   22.8972 H   0  0  0  0  0  0
  -19.7944  -30.7230   24.2279 H   0  0  0  0  0  0
  -17.5029  -31.6261   24.5156 H   0  0  0  0  0  0
  -15.5356  -30.2974   23.7653 H   0  0  0  0  0  0
  -15.8667  -28.0818   22.7053 H   0  0  0  0  0  0
  -24.5932  -30.7021   25.7826 H   0  0  0  0  0  0
  -24.8872  -32.2878   26.4855 H   0  0  0  0  0  0
  -25.8076  -30.8963   27.0264 H   0  0  0  0  0  0
  -26.2860  -29.6792   24.1166 H   0  0  0  0  0  0
  -27.4061  -29.7281   25.4592 H   0  0  0  0  0  0
  -27.8699  -30.4347   23.9286 H   0  0  0  0  0  0
  -27.2684  -33.3644   26.2031 H   0  0  0  0  0  0
  -28.3872  -32.6831   25.0318 H   0  0  0  0  0  0
  -28.0675  -31.8452   26.5426 H   0  0  0  0  0  0
  -28.2608  -38.0093   24.7505 H   0  0  0  0  0  0
  -28.1067  -36.2625   24.6301 H   0  0  0  0  0  0
  -27.2300  -37.1473   25.8871 H   0  0  0  0  0  0
  -20.9317  -29.8773   21.6959 H   0  0  0  0  0  0
  -26.0181  -38.2859   24.1414 H   0  0  0  0  0  0
  -31.4702  -18.4668   19.4752 H   0  0  0  0  0  0
  -30.8461  -20.7649   19.0059 H   0  0  0  0  0  0
  -27.9508  -20.6118   22.2170 H   0  0  0  0  0  0
  -30.3857  -25.2012   19.0143 H   0  0  0  0  0  0
  -30.3283  -24.8762   20.7248 H   0  0  0  0  0  0
  -28.0744  -24.5366   21.8770 H   0  0  0  0  0  0
  -26.5975  -24.6574   20.9704 H   0  0  0  0  0  0
  -30.9406  -22.8405   19.5536 H   0  0  0  0  0  0
  -29.5645  -22.9398   18.4718 H   0  0  0  0  0  0
  -27.1546  -22.6347   19.6511 H   0  0  0  0  0  0
  -27.1575  -22.3046   21.3605 H   0  0  0  0  0  0
  -27.9414  -25.0525   18.8506 H   0  0  0  0  0  0
  -27.3721  -18.5438   23.1940 H   0  0  0  0  0  0
  -28.9345  -18.0660   23.8615 H   0  0  0  0  0  0
  -28.1138  -17.0387   22.6788 H   0  0  0  0  0  0
  -30.7456  -16.8061   22.6211 H   0  0  0  0  0  0
  -31.7453  -16.8387   21.2288 H   0  0  0  0  0  0
  -29.1045  -15.3954   21.4071 H   0  0  0  0  0  0
  1 25  1  0  0  0
  1 30  2  0  0  0
  1 85  1  0  0  0
  2  3  1  0  0  0
  2 25  1  0  0  0
  2 86  1  0  0  0
  2 87  1  0  0  0
  3  4  1  0  0  0
  3 88  1  0  0  0
  3 89  1  0  0  0
  4  5  1  0  0  0
  4 90  1  0  0  0
  4 91  1  0  0  0
  5  6  1  0  0  0
  5 26  1  0  0  0
  5 92  1  0  0  0
  6 25  1  0  0  0
  6 93  1  0  0  0
  6 94  1  0  0  0
  7  8  2  0  0  0
  7 26  1  0  0  0
  7 29  1  0  0  0
  8  9  1  0  0  0
  8 22  1  0  0  0
  9 10  1  0  0  0
  9 27  2  0  0  0
 10 11  2  0  0  0
 10 15  1  0  0  0
 11 12  1  0  0  0
 11 95  1  0  0  0
 12 13  2  0  0  0
 12 96  1  0  0  0
 13 14  1  0  0  0
 13 31  1  0  0  0
 14 15  2  0  0  0
 14 97  1  0  0  0
 15 98  1  0  0  0
 16 17  2  0  0  0
 16 21  1  0  0  0
 16 31  1  0  0  0
 17 18  1  0  0  0
 17 99  1  0  0  0
 18 19  2  0  0  0
 18100  1  0  0  0
 19 20  1  0  0  0
 19 24  1  0  0  0
 20 21  2  0  0  0
 20101  1  0  0  0
 21 23  1  0  0  0
 22 28  1  0  0  0
 22 32  2  0  0  0
 26 27  1  0  0  0
 28102  1  0  0  0
 28103  1  0  0  0
 29104  1  0  0  0
 29105  1  0  0  0
 33 34  1  0  0  0
 33 66  1  0  0  0
 33 70  2  0  0  0
 34 36  1  0  0  0
 34 59  1  0  0  0
 34106  1  0  0  0
 35 44  2  0  0  0
 35 45  1  0  0  0
 35 68  1  0  0  0
 36 56  1  0  0  0
 36107  1  0  0  0
 37 39  1  0  0  0
 37 47  1  0  0  0
 37 66  1  0  0  0
 37108  1  0  0  0
 38 43  2  0  0  0
 38 46  1  0  0  0
 38 47  1  0  0  0
 39 64  1  0  0  0
 39 67  2  0  0  0
 40 52  1  0  0  0
 40 53  2  0  0  0
 40 58  1  0  0  0
 41109  1  0  0  0
 41110  1  0  0  0
 41111  1  0  0  0
 41 48  1  0  0  0
 42 43  1  0  0  0
 42 66  1  0  0  0
 42112  1  0  0  0
 42113  1  0  0  0
 43 44  1  0  0  0
 44114  1  0  0  0
 45 46  2  0  0  0
 45115  1  0  0  0
 46116  1  0  0  0
 47117  1  0  0  0
 47118  1  0  0  0
 48 56  1  0  0  0
 48 65  1  0  0  0
 48119  1  0  0  0
 49 50  1  0  0  0
 49 53  1  0  0  0
 49 64  1  0  0  0
 49120  1  0  0  0
 50 51  1  0  0  0
 50121  1  0  0  0
 50122  1  0  0  0
 51 52  1  0  0  0
 51123  1  0  0  0
 51124  1  0  0  0
 52125  1  0  0  0
 52126  1  0  0  0
 53 54  1  0  0  0
 54 55  2  0  0  0
 54127  1  0  0  0
 55 57  1  0  0  0
 55128  1  0  0  0
 56 69  2  0  0  0
 57 58  2  0  0  0
 57129  1  0  0  0
 58130  1  0  0  0
 59 60  1  0  0  0
 59 61  1  0  0  0
 59 62  1  0  0  0
 60131  1  0  0  0
 60132  1  0  0  0
 60133  1  0  0  0
 61134  1  0  0  0
 61135  1  0  0  0
 61136  1  0  0  0
 62137  1  0  0  0
 62138  1  0  0  0
 62139  1  0  0  0
 63 65  1  0  0  0
 63140  1  0  0  0
 63141  1  0  0  0
 63142  1  0  0  0
 64143  1  0  0  0
 65144  1  0  0  0
 68 81  1  0  0  0
 71 72  2  0  0  0
 71 74  1  0  0  0
 71145  1  0  0  0
 72 76  1  0  0  0
 72146  1  0  0  0
 73 75  1  0  0  0
 73 76  2  0  0  0
 73147  1  0  0  0
 74 75  2  0  0  0
 74 83  1  0  0  0
 75 82  1  0  0  0
 76 84  1  0  0  0
 77 79  1  0  0  0
 77 81  1  0  0  0
 77148  1  0  0  0
 77149  1  0  0  0
 78 80  1  0  0  0
 78 81  1  0  0  0
 78150  1  0  0  0
 78151  1  0  0  0
 79 84  1  0  0  0
 79152  1  0  0  0
 79153  1  0  0  0
 80 84  1  0  0  0
 80154  1  0  0  0
 80155  1  0  0  0
 81156  1  0  0  0
 82157  1  0  0  0
 82158  1  0  0  0
 82159  1  0  0  0
 83 85  1  0  0  0
 83160  1  0  0  0
 83161  1  0  0  0
 85162  1  0  0  0
M  ISO  4   1 100  68 101  81 101  85 100
M  END
> <chiral flag>
0

> <version>
0

> <s_m_source_file>
/data/baiqing/PycharmProjects/Reinvent-master-3.2/result/LINK_invent/BTK/process_docking_weight1_custom_product_contain_oxygen_bond_distance_aromatic_linkinvent_7_9_3/rearranged_h_0007.sdf

> <i_m_source_file_index>
94

> <r_mmod_Potential_Energy-OPLS-2005>
-62.2447280883789

> <r_mmod_Stretch_Energy-OPLS-2005>
50.5824279785156

> <r_mmod_Bend_Energy-OPLS-2005>
123.420593261719

> <r_mmod_Torsional_Energy-OPLS-2005>
221.134552001953

> <r_mmod_Improper_Torsional_Energy-OPLS-2005>
5.91956377029419

> <r_mmod_Van_der_Waal_Energy-OPLS-2005>
163.570343017578

> <r_mmod_Electrostatic_Energy-OPLS-2005>
-424.842346191406

> <r_mmod_Solvation_Energy-OPLS-2005>
-222.058959960938

> <b_mmod_Minimization_Converged-OPLS-2005>
0

> <r_mmod_RMS_Derivative-OPLS-2005>
1.08344173431396

$$$$
