0
                    3D
 Structure written by MMmdl.
155164  0  0  1  0            999 V2000
  -30.6134  -14.7790   20.5214 C   0  0  0  0  0  0
  -30.4348  -12.4897   19.4976 C   0  0  0  0  0  0
  -29.5201  -12.5297   18.2522 C   0  0  0  0  0  0
  -28.0461  -12.3386   18.6566 C   0  0  0  0  0  0
  -27.6402  -13.2358   19.8553 C   0  0  2  0  0  0
  -28.6752  -13.1695   20.9959 C   0  0  0  0  0  0
  -25.2493  -13.8213   20.5695 C   0  0  0  0  0  0
  -24.1769  -13.0451   20.9183 C   0  0  0  0  0  0
  -24.6361  -11.6939   20.8711 C   0  0  0  0  0  0
  -23.9039  -10.4309   21.0405 C   0  0  0  0  0  0
  -24.3605   -9.4235   21.9175 C   0  0  0  0  0  0
  -23.6288   -8.2274   22.0752 C   0  0  0  0  0  0
  -22.4264   -8.0284   21.3555 C   0  0  0  0  0  0
  -21.9896   -9.0257   20.4653 C   0  0  0  0  0  0
  -22.7216  -10.2144   20.3062 C   0  0  0  0  0  0
  -21.6845   -6.0725   22.5273 C   0  0  0  0  0  0
  -21.4017   -6.5635   23.8205 C   0  0  0  0  0  0
  -21.3659   -5.6789   24.9165 C   0  0  0  0  0  0
  -21.6051   -4.3057   24.7215 C   0  0  0  0  0  0
  -21.8817   -3.8139   23.4338 C   0  0  0  0  0  0
  -21.9199   -4.6957   22.3394 C   0  0  0  0  0  0
  -22.7798  -13.5257   21.1829 C   0  0  0  0  0  0
  -22.1661   -4.2145   21.0970 F   0  0  0  0  0  0
  -21.5630   -3.4531   25.7728 F   0  0  0  0  0  0
  -29.9743  -13.5527   20.4307 N   0  0  0  0  0  0
  -26.2898  -12.9421   20.3280 N   0  0  0  0  0  0
  -25.9292  -11.6555   20.5717 N   0  0  0  0  0  0
  -22.0438  -12.8268   22.0403 N   0  0  0  0  0  0
  -25.4230  -15.1927   20.4173 N   0  0  0  0  0  0
  -31.7777  -14.8559   20.1111 O   0  0  0  0  0  0
  -21.6646   -6.8867   21.4235 O   0  0  0  0  0  0
  -22.3508  -14.5576   20.6683 O   0  0  0  0  0  0
  -24.6307  -31.8548   23.1943 C   0  0  0  0  0  0
  -25.9145  -32.4731   23.8297 C   0  0  1  0  0  0
  -27.2263  -27.2457   20.1686 C   0  0  0  0  0  0
  -25.5951  -33.8531   24.2233 N   0  0  0  0  0  0
  -23.4303  -30.4732   21.5364 C   0  0  2  0  0  0
  -24.8849  -28.9090   20.1124 C   0  0  0  0  0  0
  -22.7516  -29.4605   22.4892 C   0  0  0  0  0  0
  -18.0315  -28.1413   22.8452 C   0  0  0  0  0  0
  -24.1488  -36.7267   23.2630 C   0  0  0  0  0  0
  -25.9752  -30.7600   21.3807 C   0  0  0  0  0  0
  -26.0506  -29.3786   20.7327 C   0  0  0  0  0  0
  -27.2259  -28.5591   20.7496 C   0  0  0  0  0  0
  -26.0464  -26.8428   19.5106 C   0  0  0  0  0  0
  -24.8890  -27.6500   19.4867 C   0  0  0  0  0  0
  -23.6531  -29.7962   20.1552 C   0  0  0  0  0  0
  -25.4108  -36.3044   24.0313 C   0  0  1  0  0  0
  -20.5913  -28.3719   23.1267 C   0  0  2  0  0  0
  -20.6814  -26.9427   22.5445 C   0  0  0  0  0  0
  -19.5828  -26.6402   21.5220 C   0  0  0  0  0  0
  -18.1977  -26.7954   22.1576 C   0  0  0  0  0  0
  -19.1566  -28.8883   23.2872 C   0  0  0  0  0  0
  -18.9476  -30.1479   23.8902 C   0  0  0  0  0  0
  -17.6474  -30.6601   24.0597 C   0  0  0  0  0  0
  -25.9053  -34.9427   23.5078 C   0  0  0  0  0  0
  -16.5371  -29.9095   23.6345 C   0  0  0  0  0  0
  -16.7303  -28.6526   23.0323 C   0  0  0  0  0  0
  -26.4511  -31.6557   25.0687 C   0  0  0  0  0  0
  -25.3703  -31.3741   26.1379 C   0  0  0  0  0  0
  -27.0373  -30.2970   24.6193 C   0  0  0  0  0  0
  -27.6064  -32.4303   25.7447 C   0  0  0  0  0  0
  -27.5572  -37.1781   24.8461 C   0  0  0  0  0  0
  -21.4221  -29.3055   22.3634 N   0  0  0  0  0  0
  -26.4293  -37.3740   23.9399 N   0  0  0  0  0  0
  -24.6969  -31.0487   22.0934 N   0  0  0  0  0  0
  -23.4207  -28.8148   23.3000 O   0  0  0  0  0  0
  -28.3247  -26.3540   20.1746 O   0  0  0  0  0  0
  -26.5629  -34.8918   22.4641 O   0  0  0  0  0  0
  -23.5456  -32.1412   23.7222 O   0  0  0  0  0  0
  -28.6789  -20.1826   21.9684 C   0  0  0  0  0  0
  -28.9791  -18.7874   21.6586 C   0  0  0  0  0  0
  -29.5627  -18.6063   20.4460 C   0  0  0  0  0  0
  -28.9526  -21.1398   20.9938 C   0  0  0  0  0  0
  -28.5064  -23.6373   20.3529 C   0  0  0  0  0  0
  -28.7095  -17.5576   22.4911 C   0  0  0  0  0  0
  -30.0435  -17.2121   19.9113 C   0  0  0  0  0  0
  -29.6623  -16.3400   22.2101 C   0  0  0  0  0  0
  -27.2793  -25.1259   22.1513 C   0  0  0  0  0  0
  -28.3473  -25.1041   21.0337 C   0  0  2  0  0  0
  -29.8926  -15.9609   20.7877 N   0  0  0  0  0  0
  -28.7763  -22.5345   21.1606 N   0  0  0  0  0  0
  -28.3852  -23.5207   19.1310 O   0  0  0  0  0  0
  -29.6554  -20.2118   19.6325 S   0  0  0  0  0  0
  -31.4766  -12.6153   19.1989 H   0  0  0  0  0  0
  -30.3873  -11.5124   19.9817 H   0  0  0  0  0  0
  -29.8182  -11.7606   17.5385 H   0  0  0  0  0  0
  -29.6433  -13.4863   17.7404 H   0  0  0  0  0  0
  -27.9104  -11.2880   18.9204 H   0  0  0  0  0  0
  -27.3944  -12.5273   17.8030 H   0  0  0  0  0  0
  -27.6386  -14.2607   19.4829 H   0  0  0  0  0  0
  -28.7213  -12.1659   21.4210 H   0  0  0  0  0  0
  -28.3714  -13.8233   21.8095 H   0  0  0  0  0  0
  -25.2742   -9.5719   22.4749 H   0  0  0  0  0  0
  -23.9984   -7.4673   22.7488 H   0  0  0  0  0  0
  -21.0808   -8.8780   19.8972 H   0  0  0  0  0  0
  -22.3648  -10.9685   19.6182 H   0  0  0  0  0  0
  -21.2010   -7.6138   23.9702 H   0  0  0  0  0  0
  -21.1479   -6.0516   25.9071 H   0  0  0  0  0  0
  -22.0596   -2.7595   23.2835 H   0  0  0  0  0  0
  -22.4022  -11.9940   22.4830 H   0  0  0  0  0  0
  -21.1076  -13.1348   22.2607 H   0  0  0  0  0  0
  -24.6666  -15.8552   20.5412 H   0  0  0  0  0  0
  -26.2818  -15.6295   20.1066 H   0  0  0  0  0  0
  -26.7197  -32.5390   23.1023 H   0  0  0  0  0  0
  -25.0122  -33.9662   25.0398 H   0  0  0  0  0  0
  -22.7241  -31.2941   21.3845 H   0  0  0  0  0  0
  -23.3753  -35.9605   23.3292 H   0  0  0  0  0  0
  -24.3588  -36.8895   22.2051 H   0  0  0  0  0  0
  -23.7265  -37.6465   23.6670 H   0  0  0  0  0  0
  -26.1192  -31.5136   20.6063 H   0  0  0  0  0  0
  -26.8504  -30.8128   22.0161 H   0  0  0  0  0  0
  -28.1177  -28.9120   21.2465 H   0  0  0  0  0  0
  -26.0171  -25.8765   19.0265 H   0  0  0  0  0  0
  -23.9996  -27.2876   18.9915 H   0  0  0  0  0  0
  -23.7812  -30.5697   19.3976 H   0  0  0  0  0  0
  -22.7727  -29.2276   19.8478 H   0  0  0  0  0  0
  -25.1291  -36.1877   25.0810 H   0  0  0  0  0  0
  -20.9993  -28.3320   24.1393 H   0  0  0  0  0  0
  -20.5720  -26.2351   23.3668 H   0  0  0  0  0  0
  -21.6691  -26.7467   22.1242 H   0  0  0  0  0  0
  -19.6997  -25.6307   21.1260 H   0  0  0  0  0  0
  -19.6813  -27.3226   20.6752 H   0  0  0  0  0  0
  -17.4304  -26.6743   21.3915 H   0  0  0  0  0  0
  -18.0319  -26.0077   22.8958 H   0  0  0  0  0  0
  -19.7941  -30.7296   24.2300 H   0  0  0  0  0  0
  -17.5009  -31.6257   24.5231 H   0  0  0  0  0  0
  -15.5356  -30.2976   23.7681 H   0  0  0  0  0  0
  -15.8711  -28.0829   22.7028 H   0  0  0  0  0  0
  -24.5865  -30.7117   25.7683 H   0  0  0  0  0  0
  -24.8902  -32.2925   26.4759 H   0  0  0  0  0  0
  -25.7971  -30.8922   27.0177 H   0  0  0  0  0  0
  -26.2981  -29.6682   24.1205 H   0  0  0  0  0  0
  -27.4042  -29.7261   25.4730 H   0  0  0  0  0  0
  -27.8861  -30.4229   23.9468 H   0  0  0  0  0  0
  -27.2670  -33.3603   26.2010 H   0  0  0  0  0  0
  -28.3861  -32.6852   25.0261 H   0  0  0  0  0  0
  -28.0741  -31.8433   26.5351 H   0  0  0  0  0  0
  -28.2573  -38.0081   24.7484 H   0  0  0  0  0  0
  -28.1076  -36.2613   24.6306 H   0  0  0  0  0  0
  -27.2294  -37.1445   25.8862 H   0  0  0  0  0  0
  -20.9428  -29.8782   21.6828 H   0  0  0  0  0  0
  -26.0165  -38.2814   24.1391 H   0  0  0  0  0  0
  -28.2480  -20.4340   22.9274 H   0  0  0  0  0  0
  -27.6809  -17.2422   22.3140 H   0  0  0  0  0  0
  -28.7521  -17.8051   23.5528 H   0  0  0  0  0  0
  -31.0946  -17.3117   19.6389 H   0  0  0  0  0  0
  -29.5262  -17.0081   18.9732 H   0  0  0  0  0  0
  -29.3076  -15.4863   22.7847 H   0  0  0  0  0  0
  -30.6406  -16.5765   22.6329 H   0  0  0  0  0  0
  -27.3596  -24.2652   22.8136 H   0  0  0  0  0  0
  -26.2684  -25.1296   21.7464 H   0  0  0  0  0  0
  -27.3916  -26.0125   22.7762 H   0  0  0  0  0  0
  -29.2983  -25.2100   21.5582 H   0  0  0  0  0  0
  -28.7960  -22.8136   22.1324 H   0  0  0  0  0  0
  1 25  1  0  0  0
  1 30  2  0  0  0
  1 81  1  0  0  0
  2  3  1  0  0  0
  2 25  1  0  0  0
  2 85  1  0  0  0
  2 86  1  0  0  0
  3  4  1  0  0  0
  3 87  1  0  0  0
  3 88  1  0  0  0
  4  5  1  0  0  0
  4 89  1  0  0  0
  4 90  1  0  0  0
  5  6  1  0  0  0
  5 26  1  0  0  0
  5 91  1  0  0  0
  6 25  1  0  0  0
  6 92  1  0  0  0
  6 93  1  0  0  0
  7  8  2  0  0  0
  7 26  1  0  0  0
  7 29  1  0  0  0
  8  9  1  0  0  0
  8 22  1  0  0  0
  9 10  1  0  0  0
  9 27  2  0  0  0
 10 11  2  0  0  0
 10 15  1  0  0  0
 11 12  1  0  0  0
 11 94  1  0  0  0
 12 13  2  0  0  0
 12 95  1  0  0  0
 13 14  1  0  0  0
 13 31  1  0  0  0
 14 15  2  0  0  0
 14 96  1  0  0  0
 15 97  1  0  0  0
 16 17  2  0  0  0
 16 21  1  0  0  0
 16 31  1  0  0  0
 17 18  1  0  0  0
 17 98  1  0  0  0
 18 19  2  0  0  0
 18 99  1  0  0  0
 19 20  1  0  0  0
 19 24  1  0  0  0
 20 21  2  0  0  0
 20100  1  0  0  0
 21 23  1  0  0  0
 22 28  1  0  0  0
 22 32  2  0  0  0
 26 27  1  0  0  0
 28101  1  0  0  0
 28102  1  0  0  0
 29103  1  0  0  0
 29104  1  0  0  0
 33 34  1  0  0  0
 33 66  1  0  0  0
 33 70  2  0  0  0
 34 36  1  0  0  0
 34 59  1  0  0  0
 34105  1  0  0  0
 35 44  2  0  0  0
 35 45  1  0  0  0
 35 68  1  0  0  0
 36 56  1  0  0  0
 36106  1  0  0  0
 37 39  1  0  0  0
 37 47  1  0  0  0
 37 66  1  0  0  0
 37107  1  0  0  0
 38 43  2  0  0  0
 38 46  1  0  0  0
 38 47  1  0  0  0
 39 64  1  0  0  0
 39 67  2  0  0  0
 40 52  1  0  0  0
 40 53  2  0  0  0
 40 58  1  0  0  0
 41108  1  0  0  0
 41109  1  0  0  0
 41110  1  0  0  0
 41 48  1  0  0  0
 42 43  1  0  0  0
 42 66  1  0  0  0
 42111  1  0  0  0
 42112  1  0  0  0
 43 44  1  0  0  0
 44113  1  0  0  0
 45 46  2  0  0  0
 45114  1  0  0  0
 46115  1  0  0  0
 47116  1  0  0  0
 47117  1  0  0  0
 48 56  1  0  0  0
 48 65  1  0  0  0
 48118  1  0  0  0
 49 50  1  0  0  0
 49 53  1  0  0  0
 49 64  1  0  0  0
 49119  1  0  0  0
 50 51  1  0  0  0
 50120  1  0  0  0
 50121  1  0  0  0
 51 52  1  0  0  0
 51122  1  0  0  0
 51123  1  0  0  0
 52124  1  0  0  0
 52125  1  0  0  0
 53 54  1  0  0  0
 54 55  2  0  0  0
 54126  1  0  0  0
 55 57  1  0  0  0
 55127  1  0  0  0
 56 69  2  0  0  0
 57 58  2  0  0  0
 57128  1  0  0  0
 58129  1  0  0  0
 59 60  1  0  0  0
 59 61  1  0  0  0
 59 62  1  0  0  0
 60130  1  0  0  0
 60131  1  0  0  0
 60132  1  0  0  0
 61133  1  0  0  0
 61134  1  0  0  0
 61135  1  0  0  0
 62136  1  0  0  0
 62137  1  0  0  0
 62138  1  0  0  0
 63 65  1  0  0  0
 63139  1  0  0  0
 63140  1  0  0  0
 63141  1  0  0  0
 64142  1  0  0  0
 65143  1  0  0  0
 68 80  1  0  0  0
 71 72  1  0  0  0
 71 74  2  0  0  0
 71144  1  0  0  0
 72 73  2  0  0  0
 72 76  1  0  0  0
 73 77  1  0  0  0
 73 84  1  0  0  0
 74 82  1  0  0  0
 74 84  1  0  0  0
 75 80  1  0  0  0
 75 82  1  0  0  0
 75 83  2  0  0  0
 76 78  1  0  0  0
 76145  1  0  0  0
 76146  1  0  0  0
 77 81  1  0  0  0
 77147  1  0  0  0
 77148  1  0  0  0
 78 81  1  0  0  0
 78149  1  0  0  0
 78150  1  0  0  0
 79151  1  0  0  0
 79152  1  0  0  0
 79153  1  0  0  0
 79 80  1  0  0  0
 80154  1  0  0  0
 82155  1  0  0  0
M  ISO  4   1 100  68 101  80 101  81 100
M  END
> <chiral flag>
0

> <version>
0

> <s_m_source_file>
/data/baiqing/PycharmProjects/Reinvent-master-3.2/result/LINK_invent/BTK/process_docking_weight1_custom_product_contain_oxygen_bond_distance_aromatic_linkinvent_7_9_3/rearranged_h_0147.sdf

> <i_m_source_file_index>
1

> <r_mmod_Potential_Energy-OPLS-2005>
337.188812255859

> <r_mmod_Stretch_Energy-OPLS-2005>
135.683197021484

> <r_mmod_Bend_Energy-OPLS-2005>
212.859115600586

> <r_mmod_Torsional_Energy-OPLS-2005>
322.608032226562

> <r_mmod_Improper_Torsional_Energy-OPLS-2005>
9.96359920501709

> <r_mmod_Van_der_Waal_Energy-OPLS-2005>
112.961883544922

> <r_mmod_Electrostatic_Energy-OPLS-2005>
-320.192932128906

> <r_mmod_Solvation_Energy-OPLS-2005>
-230.806854248047

> <b_mmod_Minimization_Converged-OPLS-2005>
0

> <r_mmod_RMS_Derivative-OPLS-2005>
3.77189230918884

$$$$
1
                    3D
 Structure written by MMmdl.
153162  0  0  1  0            999 V2000
  -30.5820  -14.7272   20.4740 C   0  0  0  0  0  0
  -30.4419  -12.4417   19.4753 C   0  0  0  0  0  0
  -29.5161  -12.5195   18.2391 C   0  0  0  0  0  0
  -28.0394  -12.3452   18.6465 C   0  0  0  0  0  0
  -27.6501  -13.2249   19.8645 C   0  0  2  0  0  0
  -28.6928  -13.1122   20.9995 C   0  0  0  0  0  0
  -25.2543  -13.8181   20.5707 C   0  0  0  0  0  0
  -24.1818  -13.0435   20.9197 C   0  0  0  0  0  0
  -24.6400  -11.6911   20.8742 C   0  0  0  0  0  0
  -23.9074  -10.4294   21.0406 C   0  0  0  0  0  0
  -24.3622   -9.4205   21.9185 C   0  0  0  0  0  0
  -23.6296   -8.2244   22.0758 C   0  0  0  0  0  0
  -22.4278   -8.0286   21.3547 C   0  0  0  0  0  0
  -21.9917   -9.0259   20.4644 C   0  0  0  0  0  0
  -22.7248  -10.2140   20.3055 C   0  0  0  0  0  0
  -21.6853   -6.0737   22.5280 C   0  0  0  0  0  0
  -21.4014   -6.5643   23.8214 C   0  0  0  0  0  0
  -21.3661   -5.6798   24.9175 C   0  0  0  0  0  0
  -21.6045   -4.3058   24.7221 C   0  0  0  0  0  0
  -21.8820   -3.8148   23.4342 C   0  0  0  0  0  0
  -21.9193   -4.6967   22.3398 C   0  0  0  0  0  0
  -22.7841  -13.5224   21.1857 C   0  0  0  0  0  0
  -22.1661   -4.2154   21.0975 F   0  0  0  0  0  0
  -21.5631   -3.4538   25.7734 F   0  0  0  0  0  0
  -30.0010  -13.4790   20.4358 N   0  0  0  0  0  0
  -26.2973  -12.9377   20.3326 N   0  0  0  0  0  0
  -25.9333  -11.6525   20.5760 N   0  0  0  0  0  0
  -22.0485  -12.8217   22.0411 N   0  0  0  0  0  0
  -25.4248  -15.1907   20.4138 N   0  0  0  0  0  0
  -31.7361  -14.8914   20.0664 O   0  0  0  0  0  0
  -21.6640   -6.8886   21.4245 O   0  0  0  0  0  0
  -22.3529  -14.5536   20.6710 O   0  0  0  0  0  0
  -24.6292  -31.8543   23.1972 C   0  0  0  0  0  0
  -25.9118  -32.4748   23.8319 C   0  0  1  0  0  0
  -27.2317  -27.2716   20.1181 C   0  0  0  0  0  0
  -25.5920  -33.8554   24.2245 N   0  0  0  0  0  0
  -23.4262  -30.4749   21.5399 C   0  0  2  0  0  0
  -24.8742  -28.9173   20.1080 C   0  0  0  0  0  0
  -22.7486  -29.4596   22.4913 C   0  0  0  0  0  0
  -18.0284  -28.1386   22.8493 C   0  0  0  0  0  0
  -24.1486  -36.7276   23.2645 C   0  0  0  0  0  0
  -25.9696  -30.7678   21.3757 C   0  0  0  0  0  0
  -26.0422  -29.3903   20.7176 C   0  0  0  0  0  0
  -27.2176  -28.5766   20.7159 C   0  0  0  0  0  0
  -26.0380  -26.8549   19.4891 C   0  0  0  0  0  0
  -24.8761  -27.6570   19.4863 C   0  0  0  0  0  0
  -23.6440  -29.8041   20.1566 C   0  0  0  0  0  0
  -25.4118  -36.3069   24.0327 C   0  0  1  0  0  0
  -20.5886  -28.3701   23.1275 C   0  0  2  0  0  0
  -20.6771  -26.9417   22.5421 C   0  0  0  0  0  0
  -19.5748  -26.6382   21.5222 C   0  0  0  0  0  0
  -18.1924  -26.7930   22.1628 C   0  0  0  0  0  0
  -19.1538  -28.8861   23.2875 C   0  0  0  0  0  0
  -18.9466  -30.1462   23.8896 C   0  0  0  0  0  0
  -17.6467  -30.6592   24.0568 C   0  0  0  0  0  0
  -25.9061  -34.9438   23.5093 C   0  0  0  0  0  0
  -16.5356  -29.9095   23.6336 C   0  0  0  0  0  0
  -16.7272  -28.6508   23.0363 C   0  0  0  0  0  0
  -26.4497  -31.6574   25.0709 C   0  0  0  0  0  0
  -25.3725  -31.3728   26.1436 C   0  0  0  0  0  0
  -27.0348  -30.2989   24.6204 C   0  0  0  0  0  0
  -27.6054  -32.4316   25.7480 C   0  0  0  0  0  0
  -27.5575  -37.1799   24.8472 C   0  0  0  0  0  0
  -21.4194  -29.3040   22.3655 N   0  0  0  0  0  0
  -26.4292  -37.3769   23.9406 N   0  0  0  0  0  0
  -24.6940  -31.0505   22.0943 N   0  0  0  0  0  0
  -23.4186  -28.8143   23.3018 O   0  0  0  0  0  0
  -28.3555  -26.4207   20.2091 O   0  0  0  0  0  0
  -26.5648  -34.8915   22.4669 O   0  0  0  0  0  0
  -23.5446  -32.1367   23.7274 O   0  0  0  0  0  0
  -30.4233  -17.8814   19.5701 C   0  0  0  0  0  0
  -29.7922  -17.1612   20.5733 C   0  0  0  0  0  0
  -29.2192  -19.7269   20.3940 C   0  0  0  0  0  0
  -29.2476  -22.5715   20.5399 C   0  0  0  0  0  0
  -27.4664  -22.7386   18.9713 C   0  0  0  0  0  0
  -28.5310  -21.1558   20.4579 C   0  0  1  0  0  0
  -28.1517  -23.6303   20.0556 C   0  0  2  0  0  0
  -28.5056  -25.1167   19.4884 C   0  0  0  0  0  0
  -30.0720  -19.2656   19.4572 N   0  0  0  0  0  0
  -29.7832  -15.7862   20.8673 N   0  0  0  0  0  0
  -27.7295  -21.2899   19.2357 N   0  3  0  0  0  0
  -28.8048  -18.3463   21.4791 S   0  0  0  0  0  0
  -31.4831  -12.5734   19.1763 H   0  0  0  0  0  0
  -30.3882  -11.4540   19.9360 H   0  0  0  0  0  0
  -29.7957  -11.7594   17.5087 H   0  0  0  0  0  0
  -29.6478  -13.4826   17.7425 H   0  0  0  0  0  0
  -27.8870  -11.2924   18.8865 H   0  0  0  0  0  0
  -27.3863  -12.5614   17.8002 H   0  0  0  0  0  0
  -27.6584  -14.2564   19.5108 H   0  0  0  0  0  0
  -28.7215  -12.0952   21.3944 H   0  0  0  0  0  0
  -28.4238  -13.7520   21.8413 H   0  0  0  0  0  0
  -25.2773   -9.5677   22.4755 H   0  0  0  0  0  0
  -24.0004   -7.4636   22.7483 H   0  0  0  0  0  0
  -21.0849   -8.8779   19.8946 H   0  0  0  0  0  0
  -22.3713  -10.9677   19.6160 H   0  0  0  0  0  0
  -21.2006   -7.6152   23.9715 H   0  0  0  0  0  0
  -21.1484   -6.0527   25.9081 H   0  0  0  0  0  0
  -22.0598   -2.7607   23.2845 H   0  0  0  0  0  0
  -22.4102  -11.9866   22.4777 H   0  0  0  0  0  0
  -21.1104  -13.1242   22.2624 H   0  0  0  0  0  0
  -24.6574  -15.8447   20.5245 H   0  0  0  0  0  0
  -26.2742  -15.6308   20.0851 H   0  0  0  0  0  0
  -26.7180  -32.5398   23.1055 H   0  0  0  0  0  0
  -25.0052  -33.9693   25.0380 H   0  0  0  0  0  0
  -22.7223  -31.2964   21.3924 H   0  0  0  0  0  0
  -23.3758  -35.9598   23.3308 H   0  0  0  0  0  0
  -24.3569  -36.8908   22.2058 H   0  0  0  0  0  0
  -23.7229  -37.6470   23.6678 H   0  0  0  0  0  0
  -26.1081  -31.5281   20.6058 H   0  0  0  0  0  0
  -26.8465  -30.8167   22.0099 H   0  0  0  0  0  0
  -28.1116  -28.9336   21.2081 H   0  0  0  0  0  0
  -25.9705  -25.8823   19.0260 H   0  0  0  0  0  0
  -23.9773  -27.2868   19.0118 H   0  0  0  0  0  0
  -23.7667  -30.5790   19.3991 H   0  0  0  0  0  0
  -22.7620  -29.2370   19.8543 H   0  0  0  0  0  0
  -25.1301  -36.1922   25.0820 H   0  0  0  0  0  0
  -20.9981  -28.3287   24.1395 H   0  0  0  0  0  0
  -20.5681  -26.2309   23.3625 H   0  0  0  0  0  0
  -21.6639  -26.7447   22.1216 H   0  0  0  0  0  0
  -19.6919  -25.6295   21.1249 H   0  0  0  0  0  0
  -19.6683  -27.3198   20.6753 H   0  0  0  0  0  0
  -17.4198  -26.6684   21.4024 H   0  0  0  0  0  0
  -18.0322  -26.0067   22.9016 H   0  0  0  0  0  0
  -19.7941  -30.7277   24.2263 H   0  0  0  0  0  0
  -17.5024  -31.6270   24.5172 H   0  0  0  0  0  0
  -15.5363  -30.3011   23.7646 H   0  0  0  0  0  0
  -15.8666  -28.0834   22.7086 H   0  0  0  0  0  0
  -24.5880  -30.7107   25.7759 H   0  0  0  0  0  0
  -24.8948  -32.2906   26.4877 H   0  0  0  0  0  0
  -25.8037  -30.8881   27.0204 H   0  0  0  0  0  0
  -26.2934  -29.6723   24.1235 H   0  0  0  0  0  0
  -27.4032  -29.7266   25.4729 H   0  0  0  0  0  0
  -27.8809  -30.4260   23.9446 H   0  0  0  0  0  0
  -27.2675  -33.3637   26.2020 H   0  0  0  0  0  0
  -28.3882  -32.6838   25.0314 H   0  0  0  0  0  0
  -28.0698  -31.8460   26.5425 H   0  0  0  0  0  0
  -28.2610  -38.0080   24.7501 H   0  0  0  0  0  0
  -28.1051  -36.2607   24.6329 H   0  0  0  0  0  0
  -27.2282  -37.1495   25.8874 H   0  0  0  0  0  0
  -20.9377  -29.8749   21.6852 H   0  0  0  0  0  0
  -26.0170  -38.2844   24.1405 H   0  0  0  0  0  0
  -31.0984  -17.4718   18.8306 H   0  0  0  0  0  0
  -30.0987  -22.5870   19.8586 H   0  0  0  0  0  0
  -29.6275  -22.7831   21.5396 H   0  0  0  0  0  0
  -27.8686  -22.9639   17.9827 H   0  0  0  0  0  0
  -26.3945  -22.9320   18.9244 H   0  0  0  0  0  0
  -27.8265  -21.1174   21.2900 H   0  0  0  0  0  0
  -27.4340  -23.7566   20.8673 H   0  0  0  0  0  0
  -28.0146  -25.2404   18.5236 H   0  0  0  0  0  0
  -29.5591  -25.0834   19.2096 H   0  0  0  0  0  0
  -28.9555  -15.4781   21.3550 H   0  0  0  0  0  0
  -28.2688  -20.9025   18.4780 H   0  0  0  0  0  0
  -26.8747  -20.7640   19.3143 H   0  0  0  0  0  0
  1 25  1  0  0  0
  1 30  2  0  0  0
  1 80  1  0  0  0
  2  3  1  0  0  0
  2 25  1  0  0  0
  2 83  1  0  0  0
  2 84  1  0  0  0
  3  4  1  0  0  0
  3 85  1  0  0  0
  3 86  1  0  0  0
  4  5  1  0  0  0
  4 87  1  0  0  0
  4 88  1  0  0  0
  5  6  1  0  0  0
  5 26  1  0  0  0
  5 89  1  0  0  0
  6 25  1  0  0  0
  6 90  1  0  0  0
  6 91  1  0  0  0
  7  8  2  0  0  0
  7 26  1  0  0  0
  7 29  1  0  0  0
  8  9  1  0  0  0
  8 22  1  0  0  0
  9 10  1  0  0  0
  9 27  2  0  0  0
 10 11  2  0  0  0
 10 15  1  0  0  0
 11 12  1  0  0  0
 11 92  1  0  0  0
 12 13  2  0  0  0
 12 93  1  0  0  0
 13 14  1  0  0  0
 13 31  1  0  0  0
 14 15  2  0  0  0
 14 94  1  0  0  0
 15 95  1  0  0  0
 16 17  2  0  0  0
 16 21  1  0  0  0
 16 31  1  0  0  0
 17 18  1  0  0  0
 17 96  1  0  0  0
 18 19  2  0  0  0
 18 97  1  0  0  0
 19 20  1  0  0  0
 19 24  1  0  0  0
 20 21  2  0  0  0
 20 98  1  0  0  0
 21 23  1  0  0  0
 22 28  1  0  0  0
 22 32  2  0  0  0
 26 27  1  0  0  0
 28 99  1  0  0  0
 28100  1  0  0  0
 29101  1  0  0  0
 29102  1  0  0  0
 33 34  1  0  0  0
 33 66  1  0  0  0
 33 70  2  0  0  0
 34 36  1  0  0  0
 34 59  1  0  0  0
 34103  1  0  0  0
 35 44  2  0  0  0
 35 45  1  0  0  0
 35 68  1  0  0  0
 36 56  1  0  0  0
 36104  1  0  0  0
 37 39  1  0  0  0
 37 47  1  0  0  0
 37 66  1  0  0  0
 37105  1  0  0  0
 38 43  2  0  0  0
 38 46  1  0  0  0
 38 47  1  0  0  0
 39 64  1  0  0  0
 39 67  2  0  0  0
 40 52  1  0  0  0
 40 53  2  0  0  0
 40 58  1  0  0  0
 41106  1  0  0  0
 41107  1  0  0  0
 41108  1  0  0  0
 41 48  1  0  0  0
 42 43  1  0  0  0
 42 66  1  0  0  0
 42109  1  0  0  0
 42110  1  0  0  0
 43 44  1  0  0  0
 44111  1  0  0  0
 45 46  2  0  0  0
 45112  1  0  0  0
 46113  1  0  0  0
 47114  1  0  0  0
 47115  1  0  0  0
 48 56  1  0  0  0
 48 65  1  0  0  0
 48116  1  0  0  0
 49 50  1  0  0  0
 49 53  1  0  0  0
 49 64  1  0  0  0
 49117  1  0  0  0
 50 51  1  0  0  0
 50118  1  0  0  0
 50119  1  0  0  0
 51 52  1  0  0  0
 51120  1  0  0  0
 51121  1  0  0  0
 52122  1  0  0  0
 52123  1  0  0  0
 53 54  1  0  0  0
 54 55  2  0  0  0
 54124  1  0  0  0
 55 57  1  0  0  0
 55125  1  0  0  0
 56 69  2  0  0  0
 57 58  2  0  0  0
 57126  1  0  0  0
 58127  1  0  0  0
 59 60  1  0  0  0
 59 61  1  0  0  0
 59 62  1  0  0  0
 60128  1  0  0  0
 60129  1  0  0  0
 60130  1  0  0  0
 61131  1  0  0  0
 61132  1  0  0  0
 61133  1  0  0  0
 62134  1  0  0  0
 62135  1  0  0  0
 62136  1  0  0  0
 63 65  1  0  0  0
 63137  1  0  0  0
 63138  1  0  0  0
 63139  1  0  0  0
 64140  1  0  0  0
 65141  1  0  0  0
 68 78  1  0  0  0
 71 72  2  0  0  0
 71 79  1  0  0  0
 71142  1  0  0  0
 72 80  1  0  0  0
 72 82  1  0  0  0
 73 79  2  0  0  0
 73 82  1  0  0  0
 73 76  1  0  0  0
 74 76  1  0  0  0
 74 77  1  0  0  0
 74143  1  0  0  0
 74144  1  0  0  0
 75 77  1  0  0  0
 75 81  1  0  0  0
 75145  1  0  0  0
 75146  1  0  0  0
 76 81  1  0  0  0
 76147  1  0  0  0
 77 78  1  0  0  0
 77148  1  0  0  0
 78149  1  0  0  0
 78150  1  0  0  0
 80151  1  0  0  0
 81152  1  0  0  0
 81153  1  0  0  0
M  CHG  1  81   1
M  ISO  4   1 100  68 101  78 101  80 100
M  END
> <chiral flag>
0

> <version>
0

> <s_m_source_file>
/data/baiqing/PycharmProjects/Reinvent-master-3.2/result/LINK_invent/BTK/process_docking_weight1_custom_product_contain_oxygen_bond_distance_aromatic_linkinvent_7_9_3/rearranged_h_0147.sdf

> <i_m_source_file_index>
2

> <r_mmod_Potential_Energy-OPLS-2005>
-66.8720016479492

> <r_mmod_Stretch_Energy-OPLS-2005>
107.369903564453

> <r_mmod_Bend_Energy-OPLS-2005>
226.24934387207

> <r_mmod_Torsional_Energy-OPLS-2005>
266.621826171875

> <r_mmod_Improper_Torsional_Energy-OPLS-2005>
4.27307558059692

> <r_mmod_Van_der_Waal_Energy-OPLS-2005>
111.073486328125

> <r_mmod_Electrostatic_Energy-OPLS-2005>
-359.750732421875

> <r_mmod_Solvation_Energy-OPLS-2005>
-499.06494140625

> <b_mmod_Minimization_Converged-OPLS-2005>
0

> <r_mmod_RMS_Derivative-OPLS-2005>
1.03653538227081

$$$$
2
                    3D
 Structure written by MMmdl.
162171  0  0  1  0            999 V2000
  -30.6245  -14.6432   20.5186 C   0  0  0  0  0  0
  -30.4408  -12.4000   19.4389 C   0  0  0  0  0  0
  -29.5050  -12.4800   18.2145 C   0  0  0  0  0  0
  -28.0233  -12.3381   18.6316 C   0  0  0  0  0  0
  -27.6450  -13.2265   19.8488 C   0  0  2  0  0  0
  -28.6930  -13.0855   20.9721 C   0  0  0  0  0  0
  -25.2418  -13.8170   20.5691 C   0  0  0  0  0  0
  -24.1728  -13.0440   20.9217 C   0  0  0  0  0  0
  -24.6329  -11.6911   20.8750 C   0  0  0  0  0  0
  -23.9014  -10.4273   21.0383 C   0  0  0  0  0  0
  -24.3606   -9.4187   21.9133 C   0  0  0  0  0  0
  -23.6265   -8.2235   22.0737 C   0  0  0  0  0  0
  -22.4220   -8.0261   21.3568 C   0  0  0  0  0  0
  -21.9879   -9.0222   20.4659 C   0  0  0  0  0  0
  -22.7221  -10.2090   20.3020 C   0  0  0  0  0  0
  -21.6841   -6.0693   22.5288 C   0  0  0  0  0  0
  -21.4015   -6.5593   23.8222 C   0  0  0  0  0  0
  -21.3661   -5.6764   24.9182 C   0  0  0  0  0  0
  -21.6047   -4.3005   24.7235 C   0  0  0  0  0  0
  -21.8814   -3.8106   23.4334 C   0  0  0  0  0  0
  -21.9190   -4.6933   22.3396 C   0  0  0  0  0  0
  -22.7748  -13.5194   21.1949 C   0  0  0  0  0  0
  -22.1658   -4.2111   21.0970 F   0  0  0  0  0  0
  -21.5652   -3.4503   25.7730 F   0  0  0  0  0  0
  -30.0020  -13.4280   20.4027 N   0  0  0  0  0  0
  -26.2914  -12.9438   20.3304 N   0  0  0  0  0  0
  -25.9261  -11.6584   20.5760 N   0  0  0  0  0  0
  -22.0346  -12.8244   22.0467 N   0  0  0  0  0  0
  -25.3954  -15.1923   20.4110 N   0  0  0  0  0  0
  -31.8067  -14.7979   20.2073 O   0  0  0  0  0  0
  -21.6612   -6.8841   21.4245 O   0  0  0  0  0  0
  -22.3471  -14.5479   20.6705 O   0  0  0  0  0  0
  -24.6264  -31.8600   23.1998 C   0  0  0  0  0  0
  -25.9145  -32.4751   23.8277 C   0  0  1  0  0  0
  -27.2187  -27.3343   20.0817 C   0  0  0  0  0  0
  -25.5952  -33.8566   24.2229 N   0  0  0  0  0  0
  -23.4140  -30.4874   21.5491 C   0  0  2  0  0  0
  -24.8511  -28.9398   20.1097 C   0  0  0  0  0  0
  -22.7410  -29.4678   22.4980 C   0  0  0  0  0  0
  -18.0276  -28.1422   22.8432 C   0  0  0  0  0  0
  -24.1492  -36.7285   23.2640 C   0  0  0  0  0  0
  -25.9547  -30.7975   21.3636 C   0  0  0  0  0  0
  -26.0235  -29.4261   20.6997 C   0  0  0  0  0  0
  -27.2113  -28.6386   20.6691 C   0  0  0  0  0  0
  -26.0094  -26.8847   19.5017 C   0  0  0  0  0  0
  -24.8444  -27.6720   19.5081 C   0  0  0  0  0  0
  -23.6213  -29.8233   20.1614 C   0  0  0  0  0  0
  -25.4123  -36.3062   24.0312 C   0  0  1  0  0  0
  -20.5861  -28.3718   23.1267 C   0  0  2  0  0  0
  -20.6792  -26.9448   22.5369 C   0  0  0  0  0  0
  -19.5787  -26.6442   21.5145 C   0  0  0  0  0  0
  -18.1960  -26.7962   22.1562 C   0  0  0  0  0  0
  -19.1521  -28.8871   23.2856 C   0  0  0  0  0  0
  -18.9471  -30.1474   23.8877 C   0  0  0  0  0  0
  -17.6488  -30.6602   24.0571 C   0  0  0  0  0  0
  -25.9052  -34.9445   23.5069 C   0  0  0  0  0  0
  -16.5368  -29.9102   23.6351 C   0  0  0  0  0  0
  -16.7269  -28.6541   23.0297 C   0  0  0  0  0  0
  -26.4543  -31.6549   25.0653 C   0  0  0  0  0  0
  -25.3768  -31.3703   26.1347 C   0  0  0  0  0  0
  -27.0380  -30.2945   24.6163 C   0  0  0  0  0  0
  -27.6095  -32.4270   25.7464 C   0  0  0  0  0  0
  -27.5572  -37.1795   24.8468 C   0  0  0  0  0  0
  -21.4130  -29.3075   22.3658 N   0  0  0  0  0  0
  -26.4272  -37.3781   23.9423 N   0  0  0  0  0  0
  -24.6844  -31.0587   22.0941 N   0  0  0  0  0  0
  -23.4113  -28.8263   23.3095 O   0  0  0  0  0  0
  -28.3682  -26.5266   20.1136 O   0  0  0  0  0  0
  -26.5616  -34.8943   22.4631 O   0  0  0  0  0  0
  -23.5448  -32.1413   23.7367 O   0  0  0  0  0  0
  -29.6248  -18.2919   20.5828 C   0  0  0  0  0  0
  -30.6427  -19.5249   22.3826 C   0  0  0  0  0  0
  -30.9250  -17.2207   22.3295 C   0  0  0  0  0  0
  -29.8635  -19.5742   21.2026 C   0  0  0  0  0  0
  -30.1500  -17.0775   21.1633 C   0  0  0  0  0  0
  -28.4671  -21.1731   19.4788 C   0  0  0  0  0  0
  -28.2275  -22.6743   19.0390 C   0  0  0  0  0  0
  -29.6142  -23.5084   21.0187 C   0  0  0  0  0  0
  -29.2458  -20.9915   20.8139 C   0  0  2  0  0  0
  -28.3633  -23.8190   20.1166 C   0  0  1  0  0  0
  -27.0978  -23.8477   20.9969 C   0  0  0  0  0  0
  -28.4678  -25.2435   19.3810 C   0  0  0  0  0  0
  -31.1669  -18.4049   22.9208 N   0  0  0  0  0  0
  -29.8049  -15.7266   20.7363 N   0  0  0  0  0  0
  -30.2067  -22.1325   20.9004 N   0  3  0  0  0  0
  -31.4730  -12.5437   19.1219 H   0  0  0  0  0  0
  -30.4093  -11.4103   19.8991 H   0  0  0  0  0  0
  -29.7603  -11.6977   17.4951 H   0  0  0  0  0  0
  -29.6590  -13.4273   17.6912 H   0  0  0  0  0  0
  -27.8528  -11.2910   18.8849 H   0  0  0  0  0  0
  -27.3694  -12.5617   17.7843 H   0  0  0  0  0  0
  -27.6530  -14.2641   19.5061 H   0  0  0  0  0  0
  -28.7010  -12.0627   21.3574 H   0  0  0  0  0  0
  -28.4367  -13.7264   21.8164 H   0  0  0  0  0  0
  -25.2721   -9.5663   22.4736 H   0  0  0  0  0  0
  -23.9948   -7.4605   22.7452 H   0  0  0  0  0  0
  -21.0807   -8.8776   19.8945 H   0  0  0  0  0  0
  -22.3678  -10.9648   19.6140 H   0  0  0  0  0  0
  -21.2013   -7.6102   23.9749 H   0  0  0  0  0  0
  -21.1509   -6.0457   25.9116 H   0  0  0  0  0  0
  -22.0587   -2.7561   23.2854 H   0  0  0  0  0  0
  -22.3922  -11.9972   22.4974 H   0  0  0  0  0  0
  -21.0961  -13.1340   22.2562 H   0  0  0  0  0  0
  -24.6064  -15.8157   20.5413 H   0  0  0  0  0  0
  -26.2210  -15.6670   20.0757 H   0  0  0  0  0  0
  -26.7233  -32.5391   23.1023 H   0  0  0  0  0  0
  -25.0077  -33.9691   25.0356 H   0  0  0  0  0  0
  -22.7153  -31.3154   21.4131 H   0  0  0  0  0  0
  -23.3722  -35.9641   23.3301 H   0  0  0  0  0  0
  -24.3587  -36.8893   22.2053 H   0  0  0  0  0  0
  -23.7268  -37.6506   23.6647 H   0  0  0  0  0  0
  -26.0855  -31.5772   20.6094 H   0  0  0  0  0  0
  -26.8350  -30.8338   21.9933 H   0  0  0  0  0  0
  -28.1167  -29.0220   21.1206 H   0  0  0  0  0  0
  -25.9249  -25.9046   19.0558 H   0  0  0  0  0  0
  -23.9422  -27.2770   19.0654 H   0  0  0  0  0  0
  -23.7363  -30.6057   19.4089 H   0  0  0  0  0  0
  -22.7335  -29.2626   19.8575 H   0  0  0  0  0  0
  -25.1333  -36.1885   25.0803 H   0  0  0  0  0  0
  -20.9967  -28.3279   24.1381 H   0  0  0  0  0  0
  -20.5693  -26.2324   23.3559 H   0  0  0  0  0  0
  -21.6680  -26.7496   22.1185 H   0  0  0  0  0  0
  -19.6956  -25.6383   21.1102 H   0  0  0  0  0  0
  -19.6711  -27.3289   20.6717 H   0  0  0  0  0  0
  -17.4221  -26.6614   21.3983 H   0  0  0  0  0  0
  -18.0403  -26.0127   22.9016 H   0  0  0  0  0  0
  -19.7956  -30.7282   24.2223 H   0  0  0  0  0  0
  -17.5063  -31.6272   24.5221 H   0  0  0  0  0  0
  -15.5383  -30.3013   23.7760 H   0  0  0  0  0  0
  -15.8651  -28.0917   22.6975 H   0  0  0  0  0  0
  -24.5941  -30.7066   25.7661 H   0  0  0  0  0  0
  -24.8942  -32.2857   26.4758 H   0  0  0  0  0  0
  -25.8052  -30.8864   27.0117 H   0  0  0  0  0  0
  -26.2951  -29.6655   24.1211 H   0  0  0  0  0  0
  -27.4055  -29.7281   25.4743 H   0  0  0  0  0  0
  -27.8858  -30.4201   23.9415 H   0  0  0  0  0  0
  -27.2677  -33.3546   26.2073 H   0  0  0  0  0  0
  -28.3886  -32.6822   25.0278 H   0  0  0  0  0  0
  -28.0739  -31.8321   26.5325 H   0  0  0  0  0  0
  -28.2617  -38.0079   24.7519 H   0  0  0  0  0  0
  -28.1025  -36.2594   24.6275 H   0  0  0  0  0  0
  -27.2278  -37.1476   25.8873 H   0  0  0  0  0  0
  -20.9278  -29.8665   21.6783 H   0  0  0  0  0  0
  -26.0119  -38.2859   24.1373 H   0  0  0  0  0  0
  -29.0061  -18.2369   19.6979 H   0  0  0  0  0  0
  -30.8395  -20.4286   22.9435 H   0  0  0  0  0  0
  -31.2854  -16.3636   22.8830 H   0  0  0  0  0  0
  -29.0145  -20.6853   18.6656 H   0  0  0  0  0  0
  -27.5137  -20.6405   19.5384 H   0  0  0  0  0  0
  -27.2518  -22.7465   18.5512 H   0  0  0  0  0  0
  -28.9414  -22.8860   18.2398 H   0  0  0  0  0  0
  -29.3629  -23.6651   22.0699 H   0  0  0  0  0  0
  -30.4126  -24.2254   20.8231 H   0  0  0  0  0  0
  -28.5185  -21.1706   21.6043 H   0  0  0  0  0  0
  -26.9195  -22.9032   21.5092 H   0  0  0  0  0  0
  -26.2029  -24.0703   20.4237 H   0  0  0  0  0  0
  -27.1777  -24.6223   21.7601 H   0  0  0  0  0  0
  -27.7998  -25.2389   18.5232 H   0  0  0  0  0  0
  -29.4436  -25.2805   18.8944 H   0  0  0  0  0  0
  -28.8203  -15.5071   20.7508 H   0  0  0  0  0  0
  -30.8115  -22.0169   21.6966 H   0  0  0  0  0  0
  -30.7837  -22.1201   20.0754 H   0  0  0  0  0  0
  1 25  1  0  0  0
  1 30  2  0  0  0
  1 84  1  0  0  0
  2  3  1  0  0  0
  2 25  1  0  0  0
  2 86  1  0  0  0
  2 87  1  0  0  0
  3  4  1  0  0  0
  3 88  1  0  0  0
  3 89  1  0  0  0
  4  5  1  0  0  0
  4 90  1  0  0  0
  4 91  1  0  0  0
  5  6  1  0  0  0
  5 26  1  0  0  0
  5 92  1  0  0  0
  6 25  1  0  0  0
  6 93  1  0  0  0
  6 94  1  0  0  0
  7  8  2  0  0  0
  7 26  1  0  0  0
  7 29  1  0  0  0
  8  9  1  0  0  0
  8 22  1  0  0  0
  9 10  1  0  0  0
  9 27  2  0  0  0
 10 11  2  0  0  0
 10 15  1  0  0  0
 11 12  1  0  0  0
 11 95  1  0  0  0
 12 13  2  0  0  0
 12 96  1  0  0  0
 13 14  1  0  0  0
 13 31  1  0  0  0
 14 15  2  0  0  0
 14 97  1  0  0  0
 15 98  1  0  0  0
 16 17  2  0  0  0
 16 21  1  0  0  0
 16 31  1  0  0  0
 17 18  1  0  0  0
 17 99  1  0  0  0
 18 19  2  0  0  0
 18100  1  0  0  0
 19 20  1  0  0  0
 19 24  1  0  0  0
 20 21  2  0  0  0
 20101  1  0  0  0
 21 23  1  0  0  0
 22 28  1  0  0  0
 22 32  2  0  0  0
 26 27  1  0  0  0
 28102  1  0  0  0
 28103  1  0  0  0
 29104  1  0  0  0
 29105  1  0  0  0
 33 34  1  0  0  0
 33 66  1  0  0  0
 33 70  2  0  0  0
 34 36  1  0  0  0
 34 59  1  0  0  0
 34106  1  0  0  0
 35 44  2  0  0  0
 35 45  1  0  0  0
 35 68  1  0  0  0
 36 56  1  0  0  0
 36107  1  0  0  0
 37 39  1  0  0  0
 37 47  1  0  0  0
 37 66  1  0  0  0
 37108  1  0  0  0
 38 43  2  0  0  0
 38 46  1  0  0  0
 38 47  1  0  0  0
 39 64  1  0  0  0
 39 67  2  0  0  0
 40 52  1  0  0  0
 40 53  2  0  0  0
 40 58  1  0  0  0
 41109  1  0  0  0
 41110  1  0  0  0
 41111  1  0  0  0
 41 48  1  0  0  0
 42 43  1  0  0  0
 42 66  1  0  0  0
 42112  1  0  0  0
 42113  1  0  0  0
 43 44  1  0  0  0
 44114  1  0  0  0
 45 46  2  0  0  0
 45115  1  0  0  0
 46116  1  0  0  0
 47117  1  0  0  0
 47118  1  0  0  0
 48 56  1  0  0  0
 48 65  1  0  0  0
 48119  1  0  0  0
 49 50  1  0  0  0
 49 53  1  0  0  0
 49 64  1  0  0  0
 49120  1  0  0  0
 50 51  1  0  0  0
 50121  1  0  0  0
 50122  1  0  0  0
 51 52  1  0  0  0
 51123  1  0  0  0
 51124  1  0  0  0
 52125  1  0  0  0
 52126  1  0  0  0
 53 54  1  0  0  0
 54 55  2  0  0  0
 54127  1  0  0  0
 55 57  1  0  0  0
 55128  1  0  0  0
 56 69  2  0  0  0
 57 58  2  0  0  0
 57129  1  0  0  0
 58130  1  0  0  0
 59 60  1  0  0  0
 59 61  1  0  0  0
 59 62  1  0  0  0
 60131  1  0  0  0
 60132  1  0  0  0
 60133  1  0  0  0
 61134  1  0  0  0
 61135  1  0  0  0
 61136  1  0  0  0
 62137  1  0  0  0
 62138  1  0  0  0
 62139  1  0  0  0
 63 65  1  0  0  0
 63140  1  0  0  0
 63141  1  0  0  0
 63142  1  0  0  0
 64143  1  0  0  0
 65144  1  0  0  0
 68 82  1  0  0  0
 71 74  2  0  0  0
 71 75  1  0  0  0
 71145  1  0  0  0
 72 74  1  0  0  0
 72 83  2  0  0  0
 72146  1  0  0  0
 73 75  2  0  0  0
 73 83  1  0  0  0
 73147  1  0  0  0
 74 79  1  0  0  0
 75 84  1  0  0  0
 76 77  1  0  0  0
 76 79  1  0  0  0
 76148  1  0  0  0
 76149  1  0  0  0
 77 80  1  0  0  0
 77150  1  0  0  0
 77151  1  0  0  0
 78 80  1  0  0  0
 78 85  1  0  0  0
 78152  1  0  0  0
 78153  1  0  0  0
 79 85  1  0  0  0
 79154  1  0  0  0
 80 81  1  0  0  0
 80 82  1  0  0  0
 81155  1  0  0  0
 81156  1  0  0  0
 81157  1  0  0  0
 82158  1  0  0  0
 82159  1  0  0  0
 84160  1  0  0  0
 85161  1  0  0  0
 85162  1  0  0  0
M  CHG  1  85   1
M  ISO  4   1 100  68 101  82 101  84 100
M  END
> <chiral flag>
0

> <version>
0

> <s_m_source_file>
/data/baiqing/PycharmProjects/Reinvent-master-3.2/result/LINK_invent/BTK/process_docking_weight1_custom_product_contain_oxygen_bond_distance_aromatic_linkinvent_7_9_3/rearranged_h_0147.sdf

> <i_m_source_file_index>
3

> <r_mmod_Potential_Energy-OPLS-2005>
-157.829498291016

> <r_mmod_Stretch_Energy-OPLS-2005>
88.6122665405273

> <r_mmod_Bend_Energy-OPLS-2005>
161.467575073242

> <r_mmod_Torsional_Energy-OPLS-2005>
299.809600830078

> <r_mmod_Improper_Torsional_Energy-OPLS-2005>
7.49344682693481

> <r_mmod_Van_der_Waal_Energy-OPLS-2005>
148.778182983398

> <r_mmod_Electrostatic_Energy-OPLS-2005>
-430.835327148438

> <r_mmod_Solvation_Energy-OPLS-2005>
-480.651885986328

> <b_mmod_Minimization_Converged-OPLS-2005>
0

> <r_mmod_RMS_Derivative-OPLS-2005>
8.28122901916504

$$$$
3
                    3D
 Structure written by MMmdl.
165175  0  0  1  0            999 V2000
  -30.5583  -14.8039   20.4485 C   0  0  0  0  0  0
  -30.4497  -12.4968   19.4562 C   0  0  0  0  0  0
  -29.5120  -12.5038   18.2278 C   0  0  0  0  0  0
  -28.0411  -12.3110   18.6524 C   0  0  0  0  0  0
  -27.6367  -13.2239   19.8403 C   0  0  2  0  0  0
  -28.6885  -13.1803   20.9681 C   0  0  0  0  0  0
  -25.2514  -13.8176   20.5712 C   0  0  0  0  0  0
  -24.1802  -13.0432   20.9217 C   0  0  0  0  0  0
  -24.6385  -11.6906   20.8754 C   0  0  0  0  0  0
  -23.9065  -10.4286   21.0415 C   0  0  0  0  0  0
  -24.3614   -9.4200   21.9189 C   0  0  0  0  0  0
  -23.6288   -8.2237   22.0760 C   0  0  0  0  0  0
  -22.4271   -8.0276   21.3548 C   0  0  0  0  0  0
  -21.9907   -9.0250   20.4651 C   0  0  0  0  0  0
  -22.7239  -10.2128   20.3063 C   0  0  0  0  0  0
  -21.6848   -6.0732   22.5278 C   0  0  0  0  0  0
  -21.4013   -6.5641   23.8211 C   0  0  0  0  0  0
  -21.3660   -5.6795   24.9175 C   0  0  0  0  0  0
  -21.6047   -4.3056   24.7228 C   0  0  0  0  0  0
  -21.8819   -3.8146   23.4348 C   0  0  0  0  0  0
  -21.9192   -4.6960   22.3400 C   0  0  0  0  0  0
  -22.7826  -13.5220   21.1872 C   0  0  0  0  0  0
  -22.1660   -4.2146   21.0975 F   0  0  0  0  0  0
  -21.5627   -3.4538   25.7742 F   0  0  0  0  0  0
  -29.9739  -13.5587   20.3680 N   0  0  0  0  0  0
  -26.2920  -12.9361   20.3263 N   0  0  0  0  0  0
  -25.9308  -11.6515   20.5748 N   0  0  0  0  0  0
  -22.0468  -12.8214   22.0422 N   0  0  0  0  0  0
  -25.4203  -15.1905   20.4159 N   0  0  0  0  0  0
  -31.7764  -14.9229   20.2826 O   0  0  0  0  0  0
  -21.6638   -6.8873   21.4241 O   0  0  0  0  0  0
  -22.3514  -14.5523   20.6714 O   0  0  0  0  0  0
  -24.6345  -31.8523   23.1952 C   0  0  0  0  0  0
  -25.9148  -32.4741   23.8323 C   0  0  1  0  0  0
  -27.2227  -27.2196   20.1507 C   0  0  0  0  0  0
  -25.5938  -33.8545   24.2249 N   0  0  0  0  0  0
  -23.4337  -30.4735   21.5386 C   0  0  2  0  0  0
  -24.8802  -28.9024   20.1269 C   0  0  0  0  0  0
  -22.7517  -29.4596   22.4891 C   0  0  0  0  0  0
  -18.0301  -28.1384   22.8476 C   0  0  0  0  0  0
  -24.1484  -36.7280   23.2637 C   0  0  0  0  0  0
  -25.9821  -30.7550   21.3776 C   0  0  0  0  0  0
  -26.0555  -29.3693   20.7277 C   0  0  0  0  0  0
  -27.2323  -28.5466   20.7127 C   0  0  0  0  0  0
  -26.0136  -26.8142   19.5506 C   0  0  0  0  0  0
  -24.8651  -27.6331   19.5274 C   0  0  0  0  0  0
  -23.6571  -29.8012   20.1588 C   0  0  0  0  0  0
  -25.4112  -36.3056   24.0314 C   0  0  1  0  0  0
  -20.5909  -28.3702   23.1252 C   0  0  2  0  0  0
  -20.6791  -26.9415   22.5396 C   0  0  0  0  0  0
  -19.5765  -26.6378   21.5201 C   0  0  0  0  0  0
  -18.1945  -26.7927   22.1611 C   0  0  0  0  0  0
  -19.1556  -28.8858   23.2855 C   0  0  0  0  0  0
  -18.9471  -30.1456   23.8879 C   0  0  0  0  0  0
  -17.6471  -30.6581   24.0561 C   0  0  0  0  0  0
  -25.9059  -34.9430   23.5083 C   0  0  0  0  0  0
  -16.5363  -29.9083   23.6326 C   0  0  0  0  0  0
  -16.7287  -28.6502   23.0347 C   0  0  0  0  0  0
  -26.4510  -31.6578   25.0723 C   0  0  0  0  0  0
  -25.3712  -31.3728   26.1430 C   0  0  0  0  0  0
  -27.0377  -30.2993   24.6239 C   0  0  0  0  0  0
  -27.6060  -32.4332   25.7493 C   0  0  0  0  0  0
  -27.5579  -37.1789   24.8458 C   0  0  0  0  0  0
  -21.4225  -29.3047   22.3633 N   0  0  0  0  0  0
  -26.4283  -37.3760   23.9408 N   0  0  0  0  0  0
  -24.7028  -31.0460   22.0938 N   0  0  0  0  0  0
  -23.4205  -28.8148   23.3006 O   0  0  0  0  0  0
  -28.3602  -26.3759   20.0602 O   0  0  0  0  0  0
  -26.5630  -34.8911   22.4655 O   0  0  0  0  0  0
  -23.5481  -32.1357   23.7220 O   0  0  0  0  0  0
  -28.4043  -19.5330   22.2398 C   0  0  0  0  0  0
  -28.7172  -17.1076   22.1182 C   0  0  0  0  0  0
  -29.6967  -18.5590   20.4215 C   0  0  0  0  0  0
  -28.1817  -18.2415   22.7606 C   0  0  0  0  0  0
  -29.1738  -19.7644   21.0802 C   0  0  0  0  0  0
  -29.4795  -17.1995   20.9360 C   0  0  0  0  0  0
  -28.9490  -21.9166   18.5113 C   0  0  0  0  0  0
  -28.1090  -22.7847   17.6062 C   0  0  0  0  0  0
  -27.4457  -23.7877   18.5406 C   0  0  0  0  0  0
  -26.0449  -17.3564   23.9801 C   0  0  0  0  0  0
  -26.1062  -18.8390   24.2633 C   0  0  0  0  0  0
  -27.3796  -18.0629   24.0142 C   0  0  0  0  0  0
  -27.9797  -23.5384   19.9663 C   0  0  2  0  0  0
  -29.5138  -21.3224   20.8176 C   0  0  0  0  0  0
  -28.4932  -24.9604   20.6086 C   0  0  0  0  0  0
  -28.8482  -22.2575   19.8055 N   0  0  0  0  0  0
  -29.7044  -15.8908   20.2601 N   0  0  0  0  0  0
  -29.6238  -20.9882   18.0569 O   0  0  0  0  0  0
  -31.4808  -12.6660   19.1419 H   0  0  0  0  0  0
  -30.4365  -11.5273   19.9566 H   0  0  0  0  0  0
  -29.8048  -11.7218   17.5263 H   0  0  0  0  0  0
  -29.6163  -13.4494   17.6932 H   0  0  0  0  0  0
  -27.9171  -11.2652   18.9357 H   0  0  0  0  0  0
  -27.3770  -12.4760   17.8028 H   0  0  0  0  0  0
  -27.6159  -14.2371   19.4404 H   0  0  0  0  0  0
  -28.7468  -12.1865   21.4143 H   0  0  0  0  0  0
  -28.4189  -13.8648   21.7735 H   0  0  0  0  0  0
  -25.2756   -9.5677   22.4768 H   0  0  0  0  0  0
  -23.9995   -7.4631   22.7482 H   0  0  0  0  0  0
  -21.0837   -8.8772   19.8956 H   0  0  0  0  0  0
  -22.3697  -10.9670   19.6173 H   0  0  0  0  0  0
  -21.2009   -7.6152   23.9714 H   0  0  0  0  0  0
  -21.1482   -6.0526   25.9078 H   0  0  0  0  0  0
  -22.0599   -2.7608   23.2851 H   0  0  0  0  0  0
  -22.4079  -11.9868   22.4803 H   0  0  0  0  0  0
  -21.1088  -13.1240   22.2636 H   0  0  0  0  0  0
  -24.6521  -15.8398   20.5423 H   0  0  0  0  0  0
  -26.2713  -15.6452   20.1146 H   0  0  0  0  0  0
  -26.7210  -32.5388   23.1063 H   0  0  0  0  0  0
  -25.0095  -33.9669   25.0398 H   0  0  0  0  0  0
  -22.7299  -31.2937   21.3851 H   0  0  0  0  0  0
  -23.3742  -35.9615   23.3295 H   0  0  0  0  0  0
  -24.3583  -36.8925   22.2055 H   0  0  0  0  0  0
  -23.7248  -37.6475   23.6685 H   0  0  0  0  0  0
  -26.1205  -31.5089   20.6010 H   0  0  0  0  0  0
  -26.8597  -30.8129   22.0108 H   0  0  0  0  0  0
  -28.1473  -28.9155   21.1540 H   0  0  0  0  0  0
  -25.9380  -25.8477   19.0830 H   0  0  0  0  0  0
  -23.9638  -27.2665   19.0564 H   0  0  0  0  0  0
  -23.7975  -30.5739   19.4016 H   0  0  0  0  0  0
  -22.7717  -29.2427   19.8481 H   0  0  0  0  0  0
  -25.1294  -36.1899   25.0805 H   0  0  0  0  0  0
  -20.9997  -28.3288   24.1374 H   0  0  0  0  0  0
  -20.5688  -26.2306   23.3605 H   0  0  0  0  0  0
  -21.6660  -26.7434   22.1188 H   0  0  0  0  0  0
  -19.6920  -25.6280   21.1245 H   0  0  0  0  0  0
  -19.6711  -27.3166   20.6713 H   0  0  0  0  0  0
  -17.4214  -26.6663   21.4014 H   0  0  0  0  0  0
  -18.0350  -26.0062   22.8999 H   0  0  0  0  0  0
  -19.7948  -30.7272   24.2249 H   0  0  0  0  0  0
  -17.5029  -31.6261   24.5164 H   0  0  0  0  0  0
  -15.5365  -30.2990   23.7651 H   0  0  0  0  0  0
  -15.8686  -28.0828   22.7069 H   0  0  0  0  0  0
  -24.5906  -30.7059   25.7758 H   0  0  0  0  0  0
  -24.8861  -32.2882   26.4815 H   0  0  0  0  0  0
  -25.7998  -30.8941   27.0243 H   0  0  0  0  0  0
  -26.2981  -29.6707   24.1262 H   0  0  0  0  0  0
  -27.4052  -29.7295   25.4785 H   0  0  0  0  0  0
  -27.8858  -30.4259   23.9505 H   0  0  0  0  0  0
  -27.2689  -33.3661   26.2018 H   0  0  0  0  0  0
  -28.3891  -32.6843   25.0327 H   0  0  0  0  0  0
  -28.0709  -31.8494   26.5446 H   0  0  0  0  0  0
  -28.2563  -38.0118   24.7542 H   0  0  0  0  0  0
  -28.1117  -36.2649   24.6248 H   0  0  0  0  0  0
  -27.2310  -37.1395   25.8865 H   0  0  0  0  0  0
  -20.9406  -29.8786   21.6857 H   0  0  0  0  0  0
  -26.0157  -38.2825   24.1443 H   0  0  0  0  0  0
  -28.0043  -20.3792   22.7827 H   0  0  0  0  0  0
  -28.4859  -16.1353   22.5315 H   0  0  0  0  0  0
  -30.2694  -18.6813   19.5133 H   0  0  0  0  0  0
  -27.3750  -22.1775   17.0753 H   0  0  0  0  0  0
  -28.7464  -23.2788   16.8727 H   0  0  0  0  0  0
  -26.3614  -23.6719   18.5087 H   0  0  0  0  0  0
  -27.6763  -24.7920   18.1878 H   0  0  0  0  0  0
  -25.6548  -17.0468   23.0118 H   0  0  0  0  0  0
  -25.7893  -16.7086   24.8161 H   0  0  0  0  0  0
  -25.8978  -19.1532   25.2841 H   0  0  0  0  0  0
  -25.7494  -19.5117   23.4863 H   0  0  0  0  0  0
  -28.0280  -17.8709   24.8676 H   0  0  0  0  0  0
  -27.1301  -23.2193   20.5715 H   0  0  0  0  0  0
  -30.5831  -21.3507   20.6025 H   0  0  0  0  0  0
  -29.4354  -21.8361   21.7767 H   0  0  0  0  0  0
  -28.1113  -25.0050   21.6296 H   0  0  0  0  0  0
  -29.5675  -24.8398   20.7463 H   0  0  0  0  0  0
  -28.8239  -15.5124   19.9496 H   0  0  0  0  0  0
  1 25  1  0  0  0
  1 30  2  0  0  0
  1 87  1  0  0  0
  2  3  1  0  0  0
  2 25  1  0  0  0
  2 89  1  0  0  0
  2 90  1  0  0  0
  3  4  1  0  0  0
  3 91  1  0  0  0
  3 92  1  0  0  0
  4  5  1  0  0  0
  4 93  1  0  0  0
  4 94  1  0  0  0
  5  6  1  0  0  0
  5 26  1  0  0  0
  5 95  1  0  0  0
  6 25  1  0  0  0
  6 96  1  0  0  0
  6 97  1  0  0  0
  7  8  2  0  0  0
  7 26  1  0  0  0
  7 29  1  0  0  0
  8  9  1  0  0  0
  8 22  1  0  0  0
  9 10  1  0  0  0
  9 27  2  0  0  0
 10 11  2  0  0  0
 10 15  1  0  0  0
 11 12  1  0  0  0
 11 98  1  0  0  0
 12 13  2  0  0  0
 12 99  1  0  0  0
 13 14  1  0  0  0
 13 31  1  0  0  0
 14 15  2  0  0  0
 14100  1  0  0  0
 15101  1  0  0  0
 16 17  2  0  0  0
 16 21  1  0  0  0
 16 31  1  0  0  0
 17 18  1  0  0  0
 17102  1  0  0  0
 18 19  2  0  0  0
 18103  1  0  0  0
 19 20  1  0  0  0
 19 24  1  0  0  0
 20 21  2  0  0  0
 20104  1  0  0  0
 21 23  1  0  0  0
 22 28  1  0  0  0
 22 32  2  0  0  0
 26 27  1  0  0  0
 28105  1  0  0  0
 28106  1  0  0  0
 29107  1  0  0  0
 29108  1  0  0  0
 33 34  1  0  0  0
 33 66  1  0  0  0
 33 70  2  0  0  0
 34 36  1  0  0  0
 34 59  1  0  0  0
 34109  1  0  0  0
 35 44  2  0  0  0
 35 45  1  0  0  0
 35 68  1  0  0  0
 36 56  1  0  0  0
 36110  1  0  0  0
 37 39  1  0  0  0
 37 47  1  0  0  0
 37 66  1  0  0  0
 37111  1  0  0  0
 38 43  2  0  0  0
 38 46  1  0  0  0
 38 47  1  0  0  0
 39 64  1  0  0  0
 39 67  2  0  0  0
 40 52  1  0  0  0
 40 53  2  0  0  0
 40 58  1  0  0  0
 41112  1  0  0  0
 41113  1  0  0  0
 41114  1  0  0  0
 41 48  1  0  0  0
 42 43  1  0  0  0
 42 66  1  0  0  0
 42115  1  0  0  0
 42116  1  0  0  0
 43 44  1  0  0  0
 44117  1  0  0  0
 45 46  2  0  0  0
 45118  1  0  0  0
 46119  1  0  0  0
 47120  1  0  0  0
 47121  1  0  0  0
 48 56  1  0  0  0
 48 65  1  0  0  0
 48122  1  0  0  0
 49 50  1  0  0  0
 49 53  1  0  0  0
 49 64  1  0  0  0
 49123  1  0  0  0
 50 51  1  0  0  0
 50124  1  0  0  0
 50125  1  0  0  0
 51 52  1  0  0  0
 51126  1  0  0  0
 51127  1  0  0  0
 52128  1  0  0  0
 52129  1  0  0  0
 53 54  1  0  0  0
 54 55  2  0  0  0
 54130  1  0  0  0
 55 57  1  0  0  0
 55131  1  0  0  0
 56 69  2  0  0  0
 57 58  2  0  0  0
 57132  1  0  0  0
 58133  1  0  0  0
 59 60  1  0  0  0
 59 61  1  0  0  0
 59 62  1  0  0  0
 60134  1  0  0  0
 60135  1  0  0  0
 60136  1  0  0  0
 61137  1  0  0  0
 61138  1  0  0  0
 61139  1  0  0  0
 62140  1  0  0  0
 62141  1  0  0  0
 62142  1  0  0  0
 63 65  1  0  0  0
 63143  1  0  0  0
 63144  1  0  0  0
 63145  1  0  0  0
 64146  1  0  0  0
 65147  1  0  0  0
 68 85  1  0  0  0
 71 74  2  0  0  0
 71 75  1  0  0  0
 71148  1  0  0  0
 72 74  1  0  0  0
 72 76  2  0  0  0
 72149  1  0  0  0
 73 75  2  0  0  0
 73 76  1  0  0  0
 73150  1  0  0  0
 74 82  1  0  0  0
 75 84  1  0  0  0
 76 87  1  0  0  0
 77 78  1  0  0  0
 77 86  1  0  0  0
 77 88  2  0  0  0
 78 79  1  0  0  0
 78151  1  0  0  0
 78152  1  0  0  0
 79 83  1  0  0  0
 79153  1  0  0  0
 79154  1  0  0  0
 80 81  1  0  0  0
 80 82  1  0  0  0
 80155  1  0  0  0
 80156  1  0  0  0
 81 82  1  0  0  0
 81157  1  0  0  0
 81158  1  0  0  0
 82159  1  0  0  0
 83 85  1  0  0  0
 83 86  1  0  0  0
 83160  1  0  0  0
 84 86  1  0  0  0
 84161  1  0  0  0
 84162  1  0  0  0
 85163  1  0  0  0
 85164  1  0  0  0
 87165  1  0  0  0
M  ISO  4   1 100  68 101  85 101  87 100
M  END
> <chiral flag>
0

> <version>
0

> <s_m_source_file>
/data/baiqing/PycharmProjects/Reinvent-master-3.2/result/LINK_invent/BTK/process_docking_weight1_custom_product_contain_oxygen_bond_distance_aromatic_linkinvent_7_9_3/rearranged_h_0147.sdf

> <i_m_source_file_index>
4

> <r_mmod_Potential_Energy-OPLS-2005>
431.612274169922

> <r_mmod_Stretch_Energy-OPLS-2005>
156.635101318359

> <r_mmod_Bend_Energy-OPLS-2005>
282.052520751953

> <r_mmod_Torsional_Energy-OPLS-2005>
376.233917236328

> <r_mmod_Improper_Torsional_Energy-OPLS-2005>
19.3743743896484

> <r_mmod_Van_der_Waal_Energy-OPLS-2005>
114.814575195312

> <r_mmod_Electrostatic_Energy-OPLS-2005>
-396.074432373047

> <r_mmod_Solvation_Energy-OPLS-2005>
-231.11865234375

> <b_mmod_Minimization_Converged-OPLS-2005>
0

> <r_mmod_RMS_Derivative-OPLS-2005>
1.45914888381958

$$$$
4
                    3D
 Structure written by MMmdl.
151159  0  0  1  0            999 V2000
  -30.6894  -14.5488   20.5389 C   0  0  0  0  0  0
  -30.4270  -12.3499   19.4272 C   0  0  0  0  0  0
  -29.4922  -12.4877   18.2074 C   0  0  0  0  0  0
  -28.0180  -12.3377   18.6293 C   0  0  0  0  0  0
  -27.6540  -13.2099   19.8599 C   0  0  2  0  0  0
  -28.7009  -13.0514   20.9850 C   0  0  0  0  0  0
  -25.2577  -13.8165   20.5683 C   0  0  0  0  0  0
  -24.1831  -13.0441   20.9189 C   0  0  0  0  0  0
  -24.6386  -11.6910   20.8748 C   0  0  0  0  0  0
  -23.9050  -10.4298   21.0400 C   0  0  0  0  0  0
  -24.3608   -9.4216   21.9179 C   0  0  0  0  0  0
  -23.6293   -8.2247   22.0747 C   0  0  0  0  0  0
  -22.4271   -8.0280   21.3543 C   0  0  0  0  0  0
  -21.9905   -9.0248   20.4636 C   0  0  0  0  0  0
  -22.7224  -10.2131   20.3047 C   0  0  0  0  0  0
  -21.6858   -6.0733   22.5280 C   0  0  0  0  0  0
  -21.4007   -6.5634   23.8214 C   0  0  0  0  0  0
  -21.3661   -5.6790   24.9174 C   0  0  0  0  0  0
  -21.6043   -4.3056   24.7226 C   0  0  0  0  0  0
  -21.8825   -3.8146   23.4352 C   0  0  0  0  0  0
  -21.9196   -4.6959   22.3405 C   0  0  0  0  0  0
  -22.7859  -13.5240   21.1863 C   0  0  0  0  0  0
  -22.1668   -4.2143   21.0985 F   0  0  0  0  0  0
  -21.5628   -3.4539   25.7742 F   0  0  0  0  0  0
  -30.0209  -13.3650   20.4149 N   0  0  0  0  0  0
  -26.2991  -12.9338   20.3314 N   0  0  0  0  0  0
  -25.9312  -11.6502   20.5764 N   0  0  0  0  0  0
  -22.0502  -12.8212   22.0401 N   0  0  0  0  0  0
  -25.4305  -15.1884   20.4092 N   0  0  0  0  0  0
  -31.8454  -14.6950   20.1354 O   0  0  0  0  0  0
  -21.6646   -6.8869   21.4240 O   0  0  0  0  0  0
  -22.3550  -14.5555   20.6729 O   0  0  0  0  0  0
  -24.6220  -31.8640   23.2068 C   0  0  0  0  0  0
  -25.9090  -32.4806   23.8374 C   0  0  1  0  0  0
  -27.2227  -27.3717   20.0989 C   0  0  0  0  0  0
  -25.5919  -33.8596   24.2306 N   0  0  0  0  0  0
  -23.4119  -30.4909   21.5486 C   0  0  2  0  0  0
  -24.8552  -28.9563   20.1135 C   0  0  0  0  0  0
  -22.7447  -29.4647   22.4947 C   0  0  0  0  0  0
  -18.0274  -28.1395   22.8502 C   0  0  0  0  0  0
  -24.1482  -36.7284   23.2640 C   0  0  0  0  0  0
  -25.9494  -30.8118   21.3691 C   0  0  0  0  0  0
  -26.0246  -29.4441   20.7109 C   0  0  0  0  0  0
  -27.2122  -28.6632   20.6951 C   0  0  0  0  0  0
  -26.0254  -26.9233   19.4878 C   0  0  0  0  0  0
  -24.8544  -27.6980   19.4968 C   0  0  0  0  0  0
  -23.6219  -29.8297   20.1627 C   0  0  0  0  0  0
  -25.4111  -36.3086   24.0335 C   0  0  1  0  0  0
  -20.5878  -28.3678   23.1295 C   0  0  2  0  0  0
  -20.6769  -26.9406   22.5412 C   0  0  0  0  0  0
  -19.5743  -26.6401   21.5214 C   0  0  0  0  0  0
  -18.1919  -26.7941   22.1630 C   0  0  0  0  0  0
  -19.1528  -28.8848   23.2895 C   0  0  0  0  0  0
  -18.9461  -30.1461   23.8903 C   0  0  0  0  0  0
  -17.6463  -30.6594   24.0574 C   0  0  0  0  0  0
  -25.9049  -34.9462   23.5119 C   0  0  0  0  0  0
  -16.5346  -29.9100   23.6344 C   0  0  0  0  0  0
  -16.7261  -28.6520   23.0361 C   0  0  0  0  0  0
  -26.4494  -31.6600   25.0722 C   0  0  0  0  0  0
  -25.3754  -31.3723   26.1461 C   0  0  0  0  0  0
  -27.0325  -30.3038   24.6127 C   0  0  0  0  0  0
  -27.6050  -32.4330   25.7490 C   0  0  0  0  0  0
  -27.5573  -37.1796   24.8470 C   0  0  0  0  0  0
  -21.4158  -29.3042   22.3691 N   0  0  0  0  0  0
  -26.4283  -37.3781   23.9410 N   0  0  0  0  0  0
  -24.6797  -31.0708   22.0987 N   0  0  0  0  0  0
  -23.4186  -28.8173   23.3002 O   0  0  0  0  0  0
  -28.3565  -26.5596   20.1257 O   0  0  0  0  0  0
  -26.5596  -34.8927   22.4674 O   0  0  0  0  0  0
  -23.5400  -32.1387   23.7455 O   0  0  0  0  0  0
  -30.2062  -19.5612   20.9931 C   0  0  0  0  0  0
  -29.5755  -18.2529   19.3157 C   0  0  0  0  0  0
  -30.0851  -18.1802   20.5898 C   0  0  0  0  0  0
  -29.8125  -20.3321   19.9288 C   0  0  0  0  0  0
  -29.3402  -24.1948   20.2131 C   0  0  0  0  0  0
  -30.5018  -16.9356   21.3979 C   0  0  0  0  0  0
  -29.1215  -22.6818   20.5560 C   0  0  0  0  0  0
  -28.0918  -25.1187   20.1307 C   0  0  0  0  0  0
  -29.9203  -21.7268   19.7542 N   0  0  0  0  0  0
  -29.9762  -15.6029   21.0040 N   0  0  0  0  0  0
  -30.4734  -24.6283   19.9779 O   0  0  0  0  0  0
  -29.4312  -19.5497   18.8891 O   0  0  0  0  0  0
  -31.4670  -12.4620   19.1154 H   0  0  0  0  0  0
  -30.3514  -11.3525   19.8627 H   0  0  0  0  0  0
  -29.7402  -11.7354   17.4573 H   0  0  0  0  0  0
  -29.6421  -13.4575   17.7305 H   0  0  0  0  0  0
  -27.8484  -11.2850   18.8595 H   0  0  0  0  0  0
  -27.3587  -12.5708   17.7924 H   0  0  0  0  0  0
  -27.6784  -14.2458   19.5231 H   0  0  0  0  0  0
  -28.6982  -12.0310   21.3697 H   0  0  0  0  0  0
  -28.4558  -13.6905   21.8345 H   0  0  0  0  0  0
  -25.2750   -9.5705   22.4753 H   0  0  0  0  0  0
  -24.0010   -7.4638   22.7467 H   0  0  0  0  0  0
  -21.0838   -8.8759   19.8940 H   0  0  0  0  0  0
  -22.3674  -10.9667   19.6157 H   0  0  0  0  0  0
  -21.1992   -7.6142   23.9711 H   0  0  0  0  0  0
  -21.1472   -6.0519   25.9075 H   0  0  0  0  0  0
  -22.0597   -2.7605   23.2856 H   0  0  0  0  0  0
  -22.4128  -11.9862   22.4764 H   0  0  0  0  0  0
  -21.1120  -13.1233   22.2616 H   0  0  0  0  0  0
  -24.6667  -15.8459   20.5200 H   0  0  0  0  0  0
  -26.2822  -15.6249   20.0800 H   0  0  0  0  0  0
  -26.7149  -32.5481   23.1118 H   0  0  0  0  0  0
  -25.0115  -33.9747   25.0480 H   0  0  0  0  0  0
  -22.7052  -31.3119   21.4131 H   0  0  0  0  0  0
  -23.3756  -35.9607   23.3319 H   0  0  0  0  0  0
  -24.3578  -36.8878   22.2048 H   0  0  0  0  0  0
  -23.7226  -37.6497   23.6643 H   0  0  0  0  0  0
  -26.0777  -31.5782   20.6028 H   0  0  0  0  0  0
  -26.8323  -30.8567   21.9951 H   0  0  0  0  0  0
  -28.1114  -29.0367   21.1668 H   0  0  0  0  0  0
  -25.9539  -25.9694   18.9894 H   0  0  0  0  0  0
  -23.9568  -27.3179   19.0266 H   0  0  0  0  0  0
  -23.7377  -30.6069   19.4067 H   0  0  0  0  0  0
  -22.7432  -29.2562   19.8632 H   0  0  0  0  0  0
  -25.1297  -36.1939   25.0831 H   0  0  0  0  0  0
  -20.9976  -28.3239   24.1414 H   0  0  0  0  0  0
  -20.5685  -26.2284   23.3606 H   0  0  0  0  0  0
  -21.6639  -26.7449   22.1201 H   0  0  0  0  0  0
  -19.6899  -25.6316   21.1234 H   0  0  0  0  0  0
  -19.6690  -27.3226   20.6756 H   0  0  0  0  0  0
  -17.4205  -26.6708   21.4017 H   0  0  0  0  0  0
  -18.0309  -26.0076   22.9021 H   0  0  0  0  0  0
  -19.7928  -30.7283   24.2272 H   0  0  0  0  0  0
  -17.5018  -31.6268   24.5181 H   0  0  0  0  0  0
  -15.5354  -30.3004   23.7668 H   0  0  0  0  0  0
  -15.8666  -28.0844   22.7067 H   0  0  0  0  0  0
  -24.5927  -30.7055   25.7822 H   0  0  0  0  0  0
  -24.8943  -32.2889   26.4880 H   0  0  0  0  0  0
  -25.8109  -30.8927   27.0235 H   0  0  0  0  0  0
  -26.2868  -29.6797   24.1183 H   0  0  0  0  0  0
  -27.4089  -29.7273   25.4588 H   0  0  0  0  0  0
  -27.8716  -30.4360   23.9289 H   0  0  0  0  0  0
  -27.2652  -33.3629   26.2061 H   0  0  0  0  0  0
  -28.3862  -32.6889   25.0322 H   0  0  0  0  0  0
  -28.0724  -31.8472   26.5413 H   0  0  0  0  0  0
  -28.2602  -38.0084   24.7519 H   0  0  0  0  0  0
  -28.1053  -36.2614   24.6294 H   0  0  0  0  0  0
  -27.2297  -37.1443   25.8879 H   0  0  0  0  0  0
  -20.9326  -29.8779   21.6917 H   0  0  0  0  0  0
  -26.0165  -38.2856   24.1439 H   0  0  0  0  0  0
  -30.5965  -19.9364   21.9289 H   0  0  0  0  0  0
  -29.3148  -17.5050   18.5792 H   0  0  0  0  0  0
  -30.2009  -17.1022   22.4325 H   0  0  0  0  0  0
  -31.5928  -16.9123   21.4178 H   0  0  0  0  0  0
  -28.0638  -22.4457   20.4388 H   0  0  0  0  0  0
  -29.3547  -22.5411   21.6120 H   0  0  0  0  0  0
  -27.4241  -24.8764   20.9577 H   0  0  0  0  0  0
  -27.5960  -24.8264   19.2071 H   0  0  0  0  0  0
  -29.9083  -21.9874   18.7720 H   0  0  0  0  0  0
  -29.0149  -15.4137   21.2443 H   0  0  0  0  0  0
  1 25  1  0  0  0
  1 30  2  0  0  0
  1 80  1  0  0  0
  2  3  1  0  0  0
  2 25  1  0  0  0
  2 83  1  0  0  0
  2 84  1  0  0  0
  3  4  1  0  0  0
  3 85  1  0  0  0
  3 86  1  0  0  0
  4  5  1  0  0  0
  4 87  1  0  0  0
  4 88  1  0  0  0
  5  6  1  0  0  0
  5 26  1  0  0  0
  5 89  1  0  0  0
  6 25  1  0  0  0
  6 90  1  0  0  0
  6 91  1  0  0  0
  7  8  2  0  0  0
  7 26  1  0  0  0
  7 29  1  0  0  0
  8  9  1  0  0  0
  8 22  1  0  0  0
  9 10  1  0  0  0
  9 27  2  0  0  0
 10 11  2  0  0  0
 10 15  1  0  0  0
 11 12  1  0  0  0
 11 92  1  0  0  0
 12 13  2  0  0  0
 12 93  1  0  0  0
 13 14  1  0  0  0
 13 31  1  0  0  0
 14 15  2  0  0  0
 14 94  1  0  0  0
 15 95  1  0  0  0
 16 17  2  0  0  0
 16 21  1  0  0  0
 16 31  1  0  0  0
 17 18  1  0  0  0
 17 96  1  0  0  0
 18 19  2  0  0  0
 18 97  1  0  0  0
 19 20  1  0  0  0
 19 24  1  0  0  0
 20 21  2  0  0  0
 20 98  1  0  0  0
 21 23  1  0  0  0
 22 28  1  0  0  0
 22 32  2  0  0  0
 26 27  1  0  0  0
 28 99  1  0  0  0
 28100  1  0  0  0
 29101  1  0  0  0
 29102  1  0  0  0
 33 34  1  0  0  0
 33 66  1  0  0  0
 33 70  2  0  0  0
 34 36  1  0  0  0
 34 59  1  0  0  0
 34103  1  0  0  0
 35 44  2  0  0  0
 35 45  1  0  0  0
 35 68  1  0  0  0
 36 56  1  0  0  0
 36104  1  0  0  0
 37 39  1  0  0  0
 37 47  1  0  0  0
 37 66  1  0  0  0
 37105  1  0  0  0
 38 43  2  0  0  0
 38 46  1  0  0  0
 38 47  1  0  0  0
 39 64  1  0  0  0
 39 67  2  0  0  0
 40 52  1  0  0  0
 40 53  2  0  0  0
 40 58  1  0  0  0
 41106  1  0  0  0
 41107  1  0  0  0
 41108  1  0  0  0
 41 48  1  0  0  0
 42 43  1  0  0  0
 42 66  1  0  0  0
 42109  1  0  0  0
 42110  1  0  0  0
 43 44  1  0  0  0
 44111  1  0  0  0
 45 46  2  0  0  0
 45112  1  0  0  0
 46113  1  0  0  0
 47114  1  0  0  0
 47115  1  0  0  0
 48 56  1  0  0  0
 48 65  1  0  0  0
 48116  1  0  0  0
 49 50  1  0  0  0
 49 53  1  0  0  0
 49 64  1  0  0  0
 49117  1  0  0  0
 50 51  1  0  0  0
 50118  1  0  0  0
 50119  1  0  0  0
 51 52  1  0  0  0
 51120  1  0  0  0
 51121  1  0  0  0
 52122  1  0  0  0
 52123  1  0  0  0
 53 54  1  0  0  0
 54 55  2  0  0  0
 54124  1  0  0  0
 55 57  1  0  0  0
 55125  1  0  0  0
 56 69  2  0  0  0
 57 58  2  0  0  0
 57126  1  0  0  0
 58127  1  0  0  0
 59 60  1  0  0  0
 59 61  1  0  0  0
 59 62  1  0  0  0
 60128  1  0  0  0
 60129  1  0  0  0
 60130  1  0  0  0
 61131  1  0  0  0
 61132  1  0  0  0
 61133  1  0  0  0
 62134  1  0  0  0
 62135  1  0  0  0
 62136  1  0  0  0
 63 65  1  0  0  0
 63137  1  0  0  0
 63138  1  0  0  0
 63139  1  0  0  0
 64140  1  0  0  0
 65141  1  0  0  0
 68 78  1  0  0  0
 71 73  1  0  0  0
 71 74  2  0  0  0
 71142  1  0  0  0
 72 73  2  0  0  0
 72 82  1  0  0  0
 72143  1  0  0  0
 73 76  1  0  0  0
 74 79  1  0  0  0
 74 82  1  0  0  0
 75 77  1  0  0  0
 75 78  1  0  0  0
 75 81  2  0  0  0
 76 80  1  0  0  0
 76144  1  0  0  0
 76145  1  0  0  0
 77 79  1  0  0  0
 77146  1  0  0  0
 77147  1  0  0  0
 78148  1  0  0  0
 78149  1  0  0  0
 79150  1  0  0  0
 80151  1  0  0  0
M  ISO  4   1 100  68 101  78 101  80 100
M  END
> <chiral flag>
0

> <version>
0

> <s_m_source_file>
/data/baiqing/PycharmProjects/Reinvent-master-3.2/result/LINK_invent/BTK/process_docking_weight1_custom_product_contain_oxygen_bond_distance_aromatic_linkinvent_7_9_3/rearranged_h_0147.sdf

> <i_m_source_file_index>
5

> <r_mmod_Potential_Energy-OPLS-2005>
-103.81664276123

> <r_mmod_Stretch_Energy-OPLS-2005>
49.9532318115234

> <r_mmod_Bend_Energy-OPLS-2005>
114.019332885742

> <r_mmod_Torsional_Energy-OPLS-2005>
213.091812133789

> <r_mmod_Improper_Torsional_Energy-OPLS-2005>
8.27691459655762

> <r_mmod_Van_der_Waal_Energy-OPLS-2005>
127.682029724121

> <r_mmod_Electrostatic_Energy-OPLS-2005>
-386.898376464844

> <r_mmod_Solvation_Energy-OPLS-2005>
-257.745025634766

> <b_mmod_Minimization_Converged-OPLS-2005>
0

> <r_mmod_RMS_Derivative-OPLS-2005>
1.94062459468842

$$$$
5
                    3D
 Structure written by MMmdl.
166175  0  0  1  0            999 V2000
  -30.7037  -14.4842   20.5258 C   0  0  0  0  0  0
  -30.4270  -12.2994   19.4310 C   0  0  0  0  0  0
  -29.4981  -12.4821   18.2114 C   0  0  0  0  0  0
  -28.0191  -12.3440   18.6257 C   0  0  0  0  0  0
  -27.6612  -13.2033   19.8684 C   0  0  2  0  0  0
  -28.7059  -13.0078   20.9925 C   0  0  0  0  0  0
  -25.2600  -13.8163   20.5684 C   0  0  0  0  0  0
  -24.1849  -13.0454   20.9198 C   0  0  0  0  0  0
  -24.6391  -11.6917   20.8746 C   0  0  0  0  0  0
  -23.9053  -10.4309   21.0403 C   0  0  0  0  0  0
  -24.3611   -9.4227   21.9183 C   0  0  0  0  0  0
  -23.6296   -8.2251   22.0744 C   0  0  0  0  0  0
  -22.4275   -8.0284   21.3543 C   0  0  0  0  0  0
  -21.9913   -9.0252   20.4634 C   0  0  0  0  0  0
  -22.7228  -10.2142   20.3047 C   0  0  0  0  0  0
  -21.6856   -6.0740   22.5277 C   0  0  0  0  0  0
  -21.3999   -6.5637   23.8214 C   0  0  0  0  0  0
  -21.3662   -5.6788   24.9178 C   0  0  0  0  0  0
  -21.6048   -4.3049   24.7223 C   0  0  0  0  0  0
  -21.8821   -3.8146   23.4345 C   0  0  0  0  0  0
  -21.9194   -4.6967   22.3402 C   0  0  0  0  0  0
  -22.7871  -13.5254   21.1870 C   0  0  0  0  0  0
  -22.1664   -4.2153   21.0980 F   0  0  0  0  0  0
  -21.5643   -3.4527   25.7736 F   0  0  0  0  0  0
  -30.0396  -13.2991   20.4376 N   0  0  0  0  0  0
  -26.3022  -12.9321   20.3351 N   0  0  0  0  0  0
  -25.9316  -11.6487   20.5772 N   0  0  0  0  0  0
  -22.0495  -12.8223   22.0396 N   0  0  0  0  0  0
  -25.4353  -15.1876   20.4082 N   0  0  0  0  0  0
  -31.8519  -14.6300   20.1023 O   0  0  0  0  0  0
  -21.6641   -6.8882   21.4240 O   0  0  0  0  0  0
  -22.3564  -14.5571   20.6739 O   0  0  0  0  0  0
  -24.6141  -31.8693   23.2106 C   0  0  0  0  0  0
  -25.9038  -32.4832   23.8389 C   0  0  1  0  0  0
  -27.2353  -27.4464   20.1062 C   0  0  0  0  0  0
  -25.5880  -33.8628   24.2324 N   0  0  0  0  0  0
  -23.4009  -30.4954   21.5499 C   0  0  2  0  0  0
  -24.8499  -28.9644   20.1083 C   0  0  0  0  0  0
  -22.7396  -29.4685   22.4985 C   0  0  0  0  0  0
  -18.0281  -28.1394   22.8534 C   0  0  0  0  0  0
  -24.1477  -36.7302   23.2641 C   0  0  0  0  0  0
  -25.9291  -30.8436   21.3573 C   0  0  0  0  0  0
  -26.0103  -29.4789   20.7049 C   0  0  0  0  0  0
  -27.2082  -28.7276   20.7006 C   0  0  0  0  0  0
  -26.0659  -26.9531   19.4866 C   0  0  0  0  0  0
  -24.8736  -27.7015   19.4921 C   0  0  0  0  0  0
  -23.6073  -29.8280   20.1630 C   0  0  0  0  0  0
  -25.4104  -36.3111   24.0342 C   0  0  1  0  0  0
  -20.5877  -28.3665   23.1344 C   0  0  2  0  0  0
  -20.6782  -26.9406   22.5437 C   0  0  0  0  0  0
  -19.5754  -26.6418   21.5238 C   0  0  0  0  0  0
  -18.1924  -26.7962   22.1637 C   0  0  0  0  0  0
  -19.1532  -28.8845   23.2940 C   0  0  0  0  0  0
  -18.9467  -30.1462   23.8922 C   0  0  0  0  0  0
  -17.6467  -30.6605   24.0596 C   0  0  0  0  0  0
  -25.9030  -34.9483   23.5141 C   0  0  0  0  0  0
  -16.5354  -29.9122   23.6348 C   0  0  0  0  0  0
  -16.7266  -28.6545   23.0357 C   0  0  0  0  0  0
  -26.4471  -31.6588   25.0698 C   0  0  0  0  0  0
  -25.3746  -31.3710   26.1441 C   0  0  0  0  0  0
  -27.0279  -30.3036   24.6037 C   0  0  0  0  0  0
  -27.6032  -32.4306   25.7467 C   0  0  0  0  0  0
  -27.5574  -37.1818   24.8474 C   0  0  0  0  0  0
  -21.4125  -29.3046   22.3724 N   0  0  0  0  0  0
  -26.4287  -37.3787   23.9407 N   0  0  0  0  0  0
  -24.6665  -31.0827   22.0988 N   0  0  0  0  0  0
  -23.4186  -28.8227   23.3002 O   0  0  0  0  0  0
  -28.3561  -26.6480   20.1681 O   0  0  0  0  0  0
  -26.5595  -34.8944   22.4700 O   0  0  0  0  0  0
  -23.5348  -32.1424   23.7530 O   0  0  0  0  0  0
  -28.8842  -19.0817   20.5654 C   0  0  0  0  0  0
  -31.1085  -18.8892   19.6174 C   0  0  0  0  0  0
  -28.9229  -17.7183   20.9365 C   0  0  0  0  0  0
  -31.1438  -17.5230   19.9808 C   0  0  0  0  0  0
  -29.9752  -19.6860   19.9011 C   0  0  0  0  0  0
  -30.0414  -16.9084   20.6329 C   0  0  0  0  0  0
  -29.8917  -21.0795   19.4075 C   0  0  0  0  0  0
  -28.8216  -23.3485   22.1103 C   0  0  0  0  0  0
  -29.4927  -22.0544   21.6572 C   0  0  0  0  0  0
  -29.1435  -23.5309   19.7658 C   0  0  1  0  0  0
  -29.2086  -24.3994   21.0549 C   0  0  2  0  0  0
  -29.9074  -24.1497   18.5718 C   0  0  0  0  0  0
  -30.6320  -24.9199   21.3647 C   0  0  0  0  0  0
  -28.1749  -25.5632   21.0968 C   0  0  0  0  0  0
  -29.5814  -22.1568   20.1856 N   0  0  0  0  0  0
  -29.9650  -15.5167   20.9790 N   0  0  0  0  0  0
  -30.1183  -21.2630   18.1114 N   0  3  0  0  0  0
  -31.4715  -12.3909   19.1267 H   0  0  0  0  0  0
  -30.3280  -11.2959   19.8484 H   0  0  0  0  0  0
  -29.7417  -11.7462   17.4432 H   0  0  0  0  0  0
  -29.6619  -13.4615   17.7602 H   0  0  0  0  0  0
  -27.8349  -11.2906   18.8396 H   0  0  0  0  0  0
  -27.3679  -12.5984   17.7890 H   0  0  0  0  0  0
  -27.6994  -14.2452   19.5502 H   0  0  0  0  0  0
  -28.6825  -11.9799   21.3570 H   0  0  0  0  0  0
  -28.4709  -13.6292   21.8580 H   0  0  0  0  0  0
  -25.2758   -9.5705   22.4752 H   0  0  0  0  0  0
  -24.0016   -7.4635   22.7450 H   0  0  0  0  0  0
  -21.0859   -8.8762   19.8926 H   0  0  0  0  0  0
  -22.3693  -10.9675   19.6148 H   0  0  0  0  0  0
  -21.1966   -7.6140   23.9719 H   0  0  0  0  0  0
  -21.1487   -6.0513   25.9086 H   0  0  0  0  0  0
  -22.0595   -2.7606   23.2837 H   0  0  0  0  0  0
  -22.4089  -11.9872   22.4768 H   0  0  0  0  0  0
  -21.1108  -13.1240   22.2589 H   0  0  0  0  0  0
  -24.6678  -15.8432   20.5074 H   0  0  0  0  0  0
  -26.2762  -15.6176   20.0441 H   0  0  0  0  0  0
  -26.7117  -32.5546   23.1153 H   0  0  0  0  0  0
  -25.0010  -33.9774   25.0464 H   0  0  0  0  0  0
  -22.6929  -31.3161   21.4140 H   0  0  0  0  0  0
  -23.3729  -35.9645   23.3330 H   0  0  0  0  0  0
  -24.3573  -36.8873   22.2047 H   0  0  0  0  0  0
  -23.7262  -37.6537   23.6625 H   0  0  0  0  0  0
  -26.0389  -31.6103   20.5888 H   0  0  0  0  0  0
  -26.8201  -30.9010   21.9706 H   0  0  0  0  0  0
  -28.0982  -29.1157   21.1771 H   0  0  0  0  0  0
  -26.0748  -25.9795   19.0182 H   0  0  0  0  0  0
  -23.9822  -27.3032   19.0253 H   0  0  0  0  0  0
  -23.7109  -30.6057   19.4057 H   0  0  0  0  0  0
  -22.7316  -29.2463   19.8660 H   0  0  0  0  0  0
  -25.1302  -36.1949   25.0841 H   0  0  0  0  0  0
  -20.9998  -28.3224   24.1451 H   0  0  0  0  0  0
  -20.5726  -26.2257   23.3616 H   0  0  0  0  0  0
  -21.6640  -26.7498   22.1176 H   0  0  0  0  0  0
  -19.6909  -25.6343   21.1232 H   0  0  0  0  0  0
  -19.6685  -27.3276   20.6795 H   0  0  0  0  0  0
  -17.4206  -26.6744   21.4008 H   0  0  0  0  0  0
  -18.0282  -26.0112   22.9030 H   0  0  0  0  0  0
  -19.7931  -30.7306   24.2260 H   0  0  0  0  0  0
  -17.5022  -31.6283   24.5203 H   0  0  0  0  0  0
  -15.5358  -30.3036   23.7675 H   0  0  0  0  0  0
  -15.8662  -28.0899   22.7012 H   0  0  0  0  0  0
  -24.5901  -30.7069   25.7791 H   0  0  0  0  0  0
  -24.8955  -32.2880   26.4887 H   0  0  0  0  0  0
  -25.8112  -30.8887   27.0191 H   0  0  0  0  0  0
  -26.2808  -29.6812   24.1104 H   0  0  0  0  0  0
  -27.4077  -29.7252   25.4467 H   0  0  0  0  0  0
  -27.8626  -30.4361   23.9154 H   0  0  0  0  0  0
  -27.2623  -33.3600   26.2046 H   0  0  0  0  0  0
  -28.3840  -32.6872   25.0293 H   0  0  0  0  0  0
  -28.0681  -31.8423   26.5386 H   0  0  0  0  0  0
  -28.2625  -38.0083   24.7480 H   0  0  0  0  0  0
  -28.1038  -36.2619   24.6345 H   0  0  0  0  0  0
  -27.2289  -37.1507   25.8879 H   0  0  0  0  0  0
  -20.9246  -29.8743   21.6945 H   0  0  0  0  0  0
  -26.0172  -38.2867   24.1386 H   0  0  0  0  0  0
  -27.9903  -19.6573   20.7653 H   0  0  0  0  0  0
  -31.9555  -19.3207   19.1007 H   0  0  0  0  0  0
  -28.0619  -17.2951   21.4348 H   0  0  0  0  0  0
  -32.0321  -16.9655   19.7256 H   0  0  0  0  0  0
  -29.1363  -23.6367   23.1137 H   0  0  0  0  0  0
  -27.7412  -23.1896   22.1434 H   0  0  0  0  0  0
  -28.9330  -21.1938   22.0184 H   0  0  0  0  0  0
  -30.5005  -21.9881   22.0717 H   0  0  0  0  0  0
  -28.0953  -23.4472   19.4715 H   0  0  0  0  0  0
  -30.9668  -23.8897   18.5767 H   0  0  0  0  0  0
  -29.8466  -25.2390   18.5890 H   0  0  0  0  0  0
  -29.4717  -23.8369   17.6234 H   0  0  0  0  0  0
  -31.3795  -24.1267   21.3035 H   0  0  0  0  0  0
  -30.6896  -25.3431   22.3685 H   0  0  0  0  0  0
  -30.9355  -25.7033   20.6709 H   0  0  0  0  0  0
  -28.1722  -25.9960   22.0983 H   0  0  0  0  0  0
  -27.1836  -25.1259   20.9733 H   0  0  0  0  0  0
  -29.0906  -15.2275   21.3863 H   0  0  0  0  0  0
  -30.3121  -20.4677   17.5238 H   0  0  0  0  0  0
  -30.1943  -22.1899   17.7267 H   0  0  0  0  0  0
  1 25  1  0  0  0
  1 30  2  0  0  0
  1 86  1  0  0  0
  2  3  1  0  0  0
  2 25  1  0  0  0
  2 88  1  0  0  0
  2 89  1  0  0  0
  3  4  1  0  0  0
  3 90  1  0  0  0
  3 91  1  0  0  0
  4  5  1  0  0  0
  4 92  1  0  0  0
  4 93  1  0  0  0
  5  6  1  0  0  0
  5 26  1  0  0  0
  5 94  1  0  0  0
  6 25  1  0  0  0
  6 95  1  0  0  0
  6 96  1  0  0  0
  7  8  2  0  0  0
  7 26  1  0  0  0
  7 29  1  0  0  0
  8  9  1  0  0  0
  8 22  1  0  0  0
  9 10  1  0  0  0
  9 27  2  0  0  0
 10 11  2  0  0  0
 10 15  1  0  0  0
 11 12  1  0  0  0
 11 97  1  0  0  0
 12 13  2  0  0  0
 12 98  1  0  0  0
 13 14  1  0  0  0
 13 31  1  0  0  0
 14 15  2  0  0  0
 14 99  1  0  0  0
 15100  1  0  0  0
 16 17  2  0  0  0
 16 21  1  0  0  0
 16 31  1  0  0  0
 17 18  1  0  0  0
 17101  1  0  0  0
 18 19  2  0  0  0
 18102  1  0  0  0
 19 20  1  0  0  0
 19 24  1  0  0  0
 20 21  2  0  0  0
 20103  1  0  0  0
 21 23  1  0  0  0
 22 28  1  0  0  0
 22 32  2  0  0  0
 26 27  1  0  0  0
 28104  1  0  0  0
 28105  1  0  0  0
 29106  1  0  0  0
 29107  1  0  0  0
 33 34  1  0  0  0
 33 66  1  0  0  0
 33 70  2  0  0  0
 34 36  1  0  0  0
 34 59  1  0  0  0
 34108  1  0  0  0
 35 44  2  0  0  0
 35 45  1  0  0  0
 35 68  1  0  0  0
 36 56  1  0  0  0
 36109  1  0  0  0
 37 39  1  0  0  0
 37 47  1  0  0  0
 37 66  1  0  0  0
 37110  1  0  0  0
 38 43  2  0  0  0
 38 46  1  0  0  0
 38 47  1  0  0  0
 39 64  1  0  0  0
 39 67  2  0  0  0
 40 52  1  0  0  0
 40 53  2  0  0  0
 40 58  1  0  0  0
 41111  1  0  0  0
 41112  1  0  0  0
 41113  1  0  0  0
 41 48  1  0  0  0
 42 43  1  0  0  0
 42 66  1  0  0  0
 42114  1  0  0  0
 42115  1  0  0  0
 43 44  1  0  0  0
 44116  1  0  0  0
 45 46  2  0  0  0
 45117  1  0  0  0
 46118  1  0  0  0
 47119  1  0  0  0
 47120  1  0  0  0
 48 56  1  0  0  0
 48 65  1  0  0  0
 48121  1  0  0  0
 49 50  1  0  0  0
 49 53  1  0  0  0
 49 64  1  0  0  0
 49122  1  0  0  0
 50 51  1  0  0  0
 50123  1  0  0  0
 50124  1  0  0  0
 51 52  1  0  0  0
 51125  1  0  0  0
 51126  1  0  0  0
 52127  1  0  0  0
 52128  1  0  0  0
 53 54  1  0  0  0
 54 55  2  0  0  0
 54129  1  0  0  0
 55 57  1  0  0  0
 55130  1  0  0  0
 56 69  2  0  0  0
 57 58  2  0  0  0
 57131  1  0  0  0
 58132  1  0  0  0
 59 60  1  0  0  0
 59 61  1  0  0  0
 59 62  1  0  0  0
 60133  1  0  0  0
 60134  1  0  0  0
 60135  1  0  0  0
 61136  1  0  0  0
 61137  1  0  0  0
 61138  1  0  0  0
 62139  1  0  0  0
 62140  1  0  0  0
 62141  1  0  0  0
 63 65  1  0  0  0
 63142  1  0  0  0
 63143  1  0  0  0
 63144  1  0  0  0
 64145  1  0  0  0
 65146  1  0  0  0
 68 84  1  0  0  0
 71 73  2  0  0  0
 71 75  1  0  0  0
 71147  1  0  0  0
 72 74  1  0  0  0
 72 75  2  0  0  0
 72148  1  0  0  0
 73 76  1  0  0  0
 73149  1  0  0  0
 74 76  2  0  0  0
 74150  1  0  0  0
 75 77  1  0  0  0
 76 86  1  0  0  0
 77 85  1  0  0  0
 77 87  2  0  0  0
 78 79  1  0  0  0
 78 81  1  0  0  0
 78151  1  0  0  0
 78152  1  0  0  0
 79 85  1  0  0  0
 79153  1  0  0  0
 79154  1  0  0  0
 80 81  1  0  0  0
 80 82  1  0  0  0
 80 85  1  0  0  0
 80155  1  0  0  0
 81 83  1  0  0  0
 81 84  1  0  0  0
 82156  1  0  0  0
 82157  1  0  0  0
 82158  1  0  0  0
 83159  1  0  0  0
 83160  1  0  0  0
 83161  1  0  0  0
 84162  1  0  0  0
 84163  1  0  0  0
 86164  1  0  0  0
 87165  1  0  0  0
 87166  1  0  0  0
M  CHG  1  87   1
M  ISO  4   1 100  68 101  84 101  86 100
M  END
> <chiral flag>
0

> <version>
0

> <s_m_source_file>
/data/baiqing/PycharmProjects/Reinvent-master-3.2/result/LINK_invent/BTK/process_docking_weight1_custom_product_contain_oxygen_bond_distance_aromatic_linkinvent_7_9_3/rearranged_h_0147.sdf

> <i_m_source_file_index>
6

> <r_mmod_Potential_Energy-OPLS-2005>
-59.1487312316895

> <r_mmod_Stretch_Energy-OPLS-2005>
43.1447334289551

> <r_mmod_Bend_Energy-OPLS-2005>
141.441818237305

> <r_mmod_Torsional_Energy-OPLS-2005>
336.423461914062

> <r_mmod_Improper_Torsional_Energy-OPLS-2005>
5.09784746170044

> <r_mmod_Van_der_Waal_Energy-OPLS-2005>
164.780364990234

> <r_mmod_Electrostatic_Energy-OPLS-2005>
-382.607971191406

> <r_mmod_Solvation_Energy-OPLS-2005>
-384.286895751953

> <b_mmod_Minimization_Converged-OPLS-2005>
0

> <r_mmod_RMS_Derivative-OPLS-2005>
3.11256766319275

$$$$
6
                    3D
 Structure written by MMmdl.
162171  0  0  1  0            999 V2000
  -30.7162  -14.5068   20.5413 C   0  0  0  0  0  0
  -30.4169  -12.3249   19.4295 C   0  0  0  0  0  0
  -29.4918  -12.5040   18.2071 C   0  0  0  0  0  0
  -28.0138  -12.3634   18.6225 C   0  0  0  0  0  0
  -27.6547  -13.2181   19.8684 C   0  0  2  0  0  0
  -28.7019  -13.0465   20.9927 C   0  0  0  0  0  0
  -25.2543  -13.8173   20.5688 C   0  0  0  0  0  0
  -24.1814  -13.0425   20.9180 C   0  0  0  0  0  0
  -24.6384  -11.6902   20.8728 C   0  0  0  0  0  0
  -23.9056  -10.4275   21.0391 C   0  0  0  0  0  0
  -24.3609   -9.4193   21.9168 C   0  0  0  0  0  0
  -23.6290   -8.2229   22.0745 C   0  0  0  0  0  0
  -22.4275   -8.0264   21.3537 C   0  0  0  0  0  0
  -21.9900   -9.0231   20.4645 C   0  0  0  0  0  0
  -22.7222  -10.2113   20.3045 C   0  0  0  0  0  0
  -21.6855   -6.0717   22.5273 C   0  0  0  0  0  0
  -21.4015   -6.5625   23.8206 C   0  0  0  0  0  0
  -21.3660   -5.6788   24.9169 C   0  0  0  0  0  0
  -21.6048   -4.3053   24.7228 C   0  0  0  0  0  0
  -21.8823   -3.8133   23.4350 C   0  0  0  0  0  0
  -21.9194   -4.6942   22.3406 C   0  0  0  0  0  0
  -22.7828  -13.5214   21.1851 C   0  0  0  0  0  0
  -22.1658   -4.2120   21.0982 F   0  0  0  0  0  0
  -21.5640   -3.4545   25.7745 F   0  0  0  0  0  0
  -30.0266  -13.3373   20.4250 N   0  0  0  0  0  0
  -26.2995  -12.9371   20.3364 N   0  0  0  0  0  0
  -25.9328  -11.6522   20.5779 N   0  0  0  0  0  0
  -22.0483  -12.8196   22.0413 N   0  0  0  0  0  0
  -25.4245  -15.1890   20.4092 N   0  0  0  0  0  0
  -31.8713  -14.6271   20.1267 O   0  0  0  0  0  0
  -21.6644   -6.8853   21.4233 O   0  0  0  0  0  0
  -22.3510  -14.5524   20.6703 O   0  0  0  0  0  0
  -24.6190  -31.8669   23.2099 C   0  0  0  0  0  0
  -25.9070  -32.4818   23.8399 C   0  0  1  0  0  0
  -27.2220  -27.3909   20.0984 C   0  0  0  0  0  0
  -25.5927  -33.8619   24.2326 N   0  0  0  0  0  0
  -23.4077  -30.4925   21.5531 C   0  0  2  0  0  0
  -24.8507  -28.9607   20.1143 C   0  0  0  0  0  0
  -22.7432  -29.4648   22.4991 C   0  0  0  0  0  0
  -18.0277  -28.1360   22.8500 C   0  0  0  0  0  0
  -24.1489  -36.7295   23.2630 C   0  0  0  0  0  0
  -25.9427  -30.8188   21.3704 C   0  0  0  0  0  0
  -26.0166  -29.4521   20.7136 C   0  0  0  0  0  0
  -27.2044  -28.6756   20.7024 C   0  0  0  0  0  0
  -26.0282  -26.9346   19.4846 C   0  0  0  0  0  0
  -24.8533  -27.7023   19.4971 C   0  0  0  0  0  0
  -23.6162  -29.8308   20.1663 C   0  0  0  0  0  0
  -25.4108  -36.3104   24.0336 C   0  0  1  0  0  0
  -20.5868  -28.3656   23.1315 C   0  0  2  0  0  0
  -20.6765  -26.9392   22.5407 C   0  0  0  0  0  0
  -19.5744  -26.6372   21.5209 C   0  0  0  0  0  0
  -18.1927  -26.7914   22.1622 C   0  0  0  0  0  0
  -19.1525  -28.8825   23.2906 C   0  0  0  0  0  0
  -18.9450  -30.1429   23.8917 C   0  0  0  0  0  0
  -17.6454  -30.6577   24.0555 C   0  0  0  0  0  0
  -25.9044  -34.9475   23.5122 C   0  0  0  0  0  0
  -16.5345  -29.9074   23.6324 C   0  0  0  0  0  0
  -16.7266  -28.6479   23.0369 C   0  0  0  0  0  0
  -26.4473  -31.6607   25.0740 C   0  0  0  0  0  0
  -25.3714  -31.3733   26.1474 C   0  0  0  0  0  0
  -27.0286  -30.3045   24.6120 C   0  0  0  0  0  0
  -27.6069  -32.4303   25.7499 C   0  0  0  0  0  0
  -27.5590  -37.1784   24.8451 C   0  0  0  0  0  0
  -21.4155  -29.3035   22.3732 N   0  0  0  0  0  0
  -26.4285  -37.3800   23.9428 N   0  0  0  0  0  0
  -24.6753  -31.0732   22.1027 N   0  0  0  0  0  0
  -23.4191  -28.8176   23.3030 O   0  0  0  0  0  0
  -28.3720  -26.6062   20.1340 O   0  0  0  0  0  0
  -26.5598  -34.8928   22.4679 O   0  0  0  0  0  0
  -23.5372  -32.1451   23.7457 O   0  0  0  0  0  0
  -29.8372  -18.0417   20.4645 C   0  0  0  0  0  0
  -31.6663  -19.5415   21.0644 C   0  0  0  0  0  0
  -31.7657  -17.1823   21.6825 C   0  0  0  0  0  0
  -30.4061  -19.3544   20.4552 C   0  0  0  0  0  0
  -30.5323  -16.9359   21.0367 C   0  0  0  0  0  0
  -32.3270  -18.4722   21.6928 C   0  0  0  0  0  0
  -29.2669  -22.9080   19.2787 C   0  0  0  0  0  0
  -29.7872  -20.4657   19.6822 C   0  0  0  0  0  0
  -29.6235  -23.7924   21.4620 C   0  0  0  0  0  0
  -30.1086  -22.3271   21.4012 C   0  0  0  0  0  0
  -29.4538  -24.2615   20.0050 C   0  0  1  0  0  0
  -30.7337  -24.9340   19.4637 C   0  0  0  0  0  0
  -28.2251  -25.2058   19.7733 C   0  0  0  0  0  0
  -29.7124  -21.7848   20.0835 N   0  0  0  0  0  0
  -30.0162  -15.5928   20.9522 N   0  0  0  0  0  0
  -29.3180  -20.1110   18.4826 N   0  3  0  0  0  0
  -28.8271  -22.7972   18.1282 O   0  0  0  0  0  0
  -33.5301  -18.6806   22.2797 F   0  0  0  0  0  0
  -31.4636  -12.4074   19.1302 H   0  0  0  0  0  0
  -30.3097  -11.3227   19.8473 H   0  0  0  0  0  0
  -29.7366  -11.7686   17.4397 H   0  0  0  0  0  0
  -29.6571  -13.4837   17.7544 H   0  0  0  0  0  0
  -27.8316  -11.3090   18.8309 H   0  0  0  0  0  0
  -27.3598  -12.6254   17.7898 H   0  0  0  0  0  0
  -27.6822  -14.2612   19.5519 H   0  0  0  0  0  0
  -28.6825  -12.0274   21.3828 H   0  0  0  0  0  0
  -28.4718  -13.6917   21.8423 H   0  0  0  0  0  0
  -25.2761   -9.5674   22.4737 H   0  0  0  0  0  0
  -24.0002   -7.4626   22.7470 H   0  0  0  0  0  0
  -21.0826   -8.8741   19.8971 H   0  0  0  0  0  0
  -22.3671  -10.9637   19.6156 H   0  0  0  0  0  0
  -21.2005   -7.6137   23.9694 H   0  0  0  0  0  0
  -21.1488   -6.0521   25.9068 H   0  0  0  0  0  0
  -22.0605   -2.7592   23.2858 H   0  0  0  0  0  0
  -22.4113  -11.9859   22.4796 H   0  0  0  0  0  0
  -21.1106  -13.1209   22.2649 H   0  0  0  0  0  0
  -24.6579  -15.8425   20.5270 H   0  0  0  0  0  0
  -26.2723  -15.6303   20.0776 H   0  0  0  0  0  0
  -26.7135  -32.5508   23.1155 H   0  0  0  0  0  0
  -25.0116  -33.9786   25.0497 H   0  0  0  0  0  0
  -22.6986  -31.3113   21.4151 H   0  0  0  0  0  0
  -23.3779  -35.9595   23.3248 H   0  0  0  0  0  0
  -24.3603  -36.8956   22.2055 H   0  0  0  0  0  0
  -23.7198  -37.6469   23.6671 H   0  0  0  0  0  0
  -26.0591  -31.5849   20.6022 H   0  0  0  0  0  0
  -26.8306  -30.8693   21.9897 H   0  0  0  0  0  0
  -28.1007  -29.0490   21.1778 H   0  0  0  0  0  0
  -25.9607  -25.9776   18.9907 H   0  0  0  0  0  0
  -23.9571  -27.3185   19.0291 H   0  0  0  0  0  0
  -23.7271  -30.6078   19.4092 H   0  0  0  0  0  0
  -22.7391  -29.2528   19.8688 H   0  0  0  0  0  0
  -25.1274  -36.1959   25.0827 H   0  0  0  0  0  0
  -20.9956  -28.3203   24.1438 H   0  0  0  0  0  0
  -20.5659  -26.2262   23.3590 H   0  0  0  0  0  0
  -21.6636  -26.7432   22.1201 H   0  0  0  0  0  0
  -19.6904  -25.6285   21.1235 H   0  0  0  0  0  0
  -19.6688  -27.3181   20.6740 H   0  0  0  0  0  0
  -17.4199  -26.6670   21.4024 H   0  0  0  0  0  0
  -18.0329  -26.0041   22.8998 H   0  0  0  0  0  0
  -19.7922  -30.7234   24.2307 H   0  0  0  0  0  0
  -17.5007  -31.6270   24.5126 H   0  0  0  0  0  0
  -15.5342  -30.2981   23.7630 H   0  0  0  0  0  0
  -15.8665  -28.0786   22.7106 H   0  0  0  0  0  0
  -24.5906  -30.7058   25.7812 H   0  0  0  0  0  0
  -24.8873  -32.2888   26.4881 H   0  0  0  0  0  0
  -25.8040  -30.8937   27.0262 H   0  0  0  0  0  0
  -26.2831  -29.6834   24.1138 H   0  0  0  0  0  0
  -27.4022  -29.7256   25.4575 H   0  0  0  0  0  0
  -27.8687  -30.4370   23.9297 H   0  0  0  0  0  0
  -27.2740  -33.3634   26.2054 H   0  0  0  0  0  0
  -28.3898  -32.6797   25.0324 H   0  0  0  0  0  0
  -28.0704  -31.8417   26.5427 H   0  0  0  0  0  0
  -28.2550  -38.0139   24.7595 H   0  0  0  0  0  0
  -28.1144  -36.2680   24.6150 H   0  0  0  0  0  0
  -27.2324  -37.1272   25.8852 H   0  0  0  0  0  0
  -20.9308  -29.8797   21.6996 H   0  0  0  0  0  0
  -26.0165  -38.2862   24.1496 H   0  0  0  0  0  0
  -28.8909  -17.8677   19.9699 H   0  0  0  0  0  0
  -32.1775  -20.4896   21.0223 H   0  0  0  0  0  0
  -32.3124  -16.3797   22.1544 H   0  0  0  0  0  0
  -30.3362  -24.4182   22.0013 H   0  0  0  0  0  0
  -28.6830  -23.8470   22.0114 H   0  0  0  0  0  0
  -29.6916  -21.7421   22.2224 H   0  0  0  0  0  0
  -31.1928  -22.3186   21.5051 H   0  0  0  0  0  0
  -31.6202  -24.3220   19.6328 H   0  0  0  0  0  0
  -30.9096  -25.8943   19.9479 H   0  0  0  0  0  0
  -30.6634  -25.1215   18.3920 H   0  0  0  0  0  0
  -27.3756  -24.7822   20.3135 H   0  0  0  0  0  0
  -27.9701  -25.1766   18.7123 H   0  0  0  0  0  0
  -29.0290  -15.4601   21.1059 H   0  0  0  0  0  0
  -29.4333  -19.1713   18.1395 H   0  0  0  0  0  0
  -28.9365  -20.8302   17.8797 H   0  0  0  0  0  0
  1 25  1  0  0  0
  1 30  2  0  0  0
  1 85  1  0  0  0
  2  3  1  0  0  0
  2 25  1  0  0  0
  2 89  1  0  0  0
  2 90  1  0  0  0
  3  4  1  0  0  0
  3 91  1  0  0  0
  3 92  1  0  0  0
  4  5  1  0  0  0
  4 93  1  0  0  0
  4 94  1  0  0  0
  5  6  1  0  0  0
  5 26  1  0  0  0
  5 95  1  0  0  0
  6 25  1  0  0  0
  6 96  1  0  0  0
  6 97  1  0  0  0
  7  8  2  0  0  0
  7 26  1  0  0  0
  7 29  1  0  0  0
  8  9  1  0  0  0
  8 22  1  0  0  0
  9 10  1  0  0  0
  9 27  2  0  0  0
 10 11  2  0  0  0
 10 15  1  0  0  0
 11 12  1  0  0  0
 11 98  1  0  0  0
 12 13  2  0  0  0
 12 99  1  0  0  0
 13 14  1  0  0  0
 13 31  1  0  0  0
 14 15  2  0  0  0
 14100  1  0  0  0
 15101  1  0  0  0
 16 17  2  0  0  0
 16 21  1  0  0  0
 16 31  1  0  0  0
 17 18  1  0  0  0
 17102  1  0  0  0
 18 19  2  0  0  0
 18103  1  0  0  0
 19 20  1  0  0  0
 19 24  1  0  0  0
 20 21  2  0  0  0
 20104  1  0  0  0
 21 23  1  0  0  0
 22 28  1  0  0  0
 22 32  2  0  0  0
 26 27  1  0  0  0
 28105  1  0  0  0
 28106  1  0  0  0
 29107  1  0  0  0
 29108  1  0  0  0
 33 34  1  0  0  0
 33 66  1  0  0  0
 33 70  2  0  0  0
 34 36  1  0  0  0
 34 59  1  0  0  0
 34109  1  0  0  0
 35 44  2  0  0  0
 35 45  1  0  0  0
 35 68  1  0  0  0
 36 56  1  0  0  0
 36110  1  0  0  0
 37 39  1  0  0  0
 37 47  1  0  0  0
 37 66  1  0  0  0
 37111  1  0  0  0
 38 43  2  0  0  0
 38 46  1  0  0  0
 38 47  1  0  0  0
 39 64  1  0  0  0
 39 67  2  0  0  0
 40 52  1  0  0  0
 40 53  2  0  0  0
 40 58  1  0  0  0
 41112  1  0  0  0
 41113  1  0  0  0
 41114  1  0  0  0
 41 48  1  0  0  0
 42 43  1  0  0  0
 42 66  1  0  0  0
 42115  1  0  0  0
 42116  1  0  0  0
 43 44  1  0  0  0
 44117  1  0  0  0
 45 46  2  0  0  0
 45118  1  0  0  0
 46119  1  0  0  0
 47120  1  0  0  0
 47121  1  0  0  0
 48 56  1  0  0  0
 48 65  1  0  0  0
 48122  1  0  0  0
 49 50  1  0  0  0
 49 53  1  0  0  0
 49 64  1  0  0  0
 49123  1  0  0  0
 50 51  1  0  0  0
 50124  1  0  0  0
 50125  1  0  0  0
 51 52  1  0  0  0
 51126  1  0  0  0
 51127  1  0  0  0
 52128  1  0  0  0
 52129  1  0  0  0
 53 54  1  0  0  0
 54 55  2  0  0  0
 54130  1  0  0  0
 55 57  1  0  0  0
 55131  1  0  0  0
 56 69  2  0  0  0
 57 58  2  0  0  0
 57132  1  0  0  0
 58133  1  0  0  0
 59 60  1  0  0  0
 59 61  1  0  0  0
 59 62  1  0  0  0
 60134  1  0  0  0
 60135  1  0  0  0
 60136  1  0  0  0
 61137  1  0  0  0
 61138  1  0  0  0
 61139  1  0  0  0
 62140  1  0  0  0
 62141  1  0  0  0
 62142  1  0  0  0
 63 65  1  0  0  0
 63143  1  0  0  0
 63144  1  0  0  0
 63145  1  0  0  0
 64146  1  0  0  0
 65147  1  0  0  0
 68 83  1  0  0  0
 71 74  2  0  0  0
 71 75  1  0  0  0
 71148  1  0  0  0
 72 74  1  0  0  0
 72 76  2  0  0  0
 72149  1  0  0  0
 73 75  2  0  0  0
 73 76  1  0  0  0
 73150  1  0  0  0
 74 78  1  0  0  0
 75 85  1  0  0  0
 76 88  1  0  0  0
 77 81  1  0  0  0
 77 84  1  0  0  0
 77 87  2  0  0  0
 78 84  1  0  0  0
 78 86  2  0  0  0
 79 80  1  0  0  0
 79 81  1  0  0  0
 79151  1  0  0  0
 79152  1  0  0  0
 80 84  1  0  0  0
 80153  1  0  0  0
 80154  1  0  0  0
 81 82  1  0  0  0
 81 83  1  0  0  0
 82155  1  0  0  0
 82156  1  0  0  0
 82157  1  0  0  0
 83158  1  0  0  0
 83159  1  0  0  0
 85160  1  0  0  0
 86161  1  0  0  0
 86162  1  0  0  0
M  CHG  1  86   1
M  ISO  4   1 100  68 101  83 101  85 100
M  END
> <chiral flag>
0

> <version>
0

> <s_m_source_file>
/data/baiqing/PycharmProjects/Reinvent-master-3.2/result/LINK_invent/BTK/process_docking_weight1_custom_product_contain_oxygen_bond_distance_aromatic_linkinvent_7_9_3/rearranged_h_0147.sdf

> <i_m_source_file_index>
7

> <r_mmod_Potential_Energy-OPLS-2005>
-197.127838134766

> <r_mmod_Stretch_Energy-OPLS-2005>
51.7069206237793

> <r_mmod_Bend_Energy-OPLS-2005>
135.372955322266

> <r_mmod_Torsional_Energy-OPLS-2005>
267.324127197266

> <r_mmod_Improper_Torsional_Energy-OPLS-2005>
5.32036542892456

> <r_mmod_Van_der_Waal_Energy-OPLS-2005>
173.704650878906

> <r_mmod_Electrostatic_Energy-OPLS-2005>
-435.145355224609

> <r_mmod_Solvation_Energy-OPLS-2005>
-417.369750976562

> <b_mmod_Minimization_Converged-OPLS-2005>
0

> <r_mmod_RMS_Derivative-OPLS-2005>
2.14776849746704

$$$$
7
                    3D
 Structure written by MMmdl.
169178  0  0  1  0            999 V2000
  -30.7496  -14.3662   20.6806 C   0  0  0  0  0  0
  -30.4171  -12.2870   19.3916 C   0  0  0  0  0  0
  -29.4830  -12.5329   18.1908 C   0  0  0  0  0  0
  -28.0043  -12.3993   18.6041 C   0  0  0  0  0  0
  -27.6672  -13.2048   19.8874 C   0  0  2  0  0  0
  -28.7049  -12.9223   20.9966 C   0  0  0  0  0  0
  -25.2592  -13.8163   20.5687 C   0  0  0  0  0  0
  -24.1837  -13.0441   20.9169 C   0  0  0  0  0  0
  -24.6386  -11.6906   20.8727 C   0  0  0  0  0  0
  -23.9059  -10.4287   21.0396 C   0  0  0  0  0  0
  -24.3607   -9.4208   21.9178 C   0  0  0  0  0  0
  -23.6283   -8.2245   22.0753 C   0  0  0  0  0  0
  -22.4267   -8.0276   21.3543 C   0  0  0  0  0  0
  -21.9900   -9.0248   20.4643 C   0  0  0  0  0  0
  -22.7229  -10.2130   20.3042 C   0  0  0  0  0  0
  -21.6855   -6.0731   22.5276 C   0  0  0  0  0  0
  -21.4013   -6.5636   23.8211 C   0  0  0  0  0  0
  -21.3660   -5.6788   24.9173 C   0  0  0  0  0  0
  -21.6044   -4.3046   24.7226 C   0  0  0  0  0  0
  -21.8821   -3.8142   23.4343 C   0  0  0  0  0  0
  -21.9190   -4.6959   22.3398 C   0  0  0  0  0  0
  -22.7859  -13.5237   21.1828 C   0  0  0  0  0  0
  -22.1661   -4.2138   21.0976 F   0  0  0  0  0  0
  -21.5630   -3.4532   25.7740 F   0  0  0  0  0  0
  -30.0463  -13.2242   20.4623 N   0  0  0  0  0  0
  -26.3046  -12.9332   20.3420 N   0  0  0  0  0  0
  -25.9313  -11.6489   20.5763 N   0  0  0  0  0  0
  -22.0492  -12.8229   22.0379 N   0  0  0  0  0  0
  -25.4310  -15.1882   20.4112 N   0  0  0  0  0  0
  -31.7841  -14.6515   20.0632 O   0  0  0  0  0  0
  -21.6637   -6.8873   21.4234 O   0  0  0  0  0  0
  -22.3544  -14.5553   20.6684 O   0  0  0  0  0  0
  -24.6099  -31.8713   23.2127 C   0  0  0  0  0  0
  -25.9012  -32.4839   23.8387 C   0  0  1  0  0  0
  -27.2336  -27.4819   20.0876 C   0  0  0  0  0  0
  -25.5889  -33.8641   24.2336 N   0  0  0  0  0  0
  -23.3930  -30.4969   21.5523 C   0  0  2  0  0  0
  -24.8365  -28.9647   20.1167 C   0  0  0  0  0  0
  -22.7373  -29.4686   22.5015 C   0  0  0  0  0  0
  -18.0263  -28.1387   22.8538 C   0  0  0  0  0  0
  -24.1483  -36.7291   23.2639 C   0  0  0  0  0  0
  -25.9140  -30.8548   21.3519 C   0  0  0  0  0  0
  -25.9915  -29.4904   20.7045 C   0  0  0  0  0  0
  -27.1930  -28.7558   20.6867 C   0  0  0  0  0  0
  -26.0603  -26.9524   19.5029 C   0  0  0  0  0  0
  -24.8613  -27.6919   19.5162 C   0  0  0  0  0  0
  -23.5966  -29.8271   20.1664 C   0  0  0  0  0  0
  -25.4111  -36.3121   24.0351 C   0  0  1  0  0  0
  -20.5855  -28.3645   23.1357 C   0  0  2  0  0  0
  -20.6764  -26.9394   22.5430 C   0  0  0  0  0  0
  -19.5743  -26.6410   21.5224 C   0  0  0  0  0  0
  -18.1914  -26.7950   22.1627 C   0  0  0  0  0  0
  -19.1519  -28.8831   23.2944 C   0  0  0  0  0  0
  -18.9453  -30.1447   23.8936 C   0  0  0  0  0  0
  -17.6468  -30.6604   24.0592 C   0  0  0  0  0  0
  -25.9029  -34.9493   23.5136 C   0  0  0  0  0  0
  -16.5347  -29.9125   23.6341 C   0  0  0  0  0  0
  -16.7259  -28.6534   23.0369 C   0  0  0  0  0  0
  -26.4463  -31.6605   25.0688 C   0  0  0  0  0  0
  -25.3728  -31.3723   26.1429 C   0  0  0  0  0  0
  -27.0301  -30.3072   24.6005 C   0  0  0  0  0  0
  -27.6055  -32.4303   25.7440 C   0  0  0  0  0  0
  -27.5582  -37.1806   24.8478 C   0  0  0  0  0  0
  -21.4104  -29.3036   22.3770 N   0  0  0  0  0  0
  -26.4299  -37.3803   23.9423 N   0  0  0  0  0  0
  -24.6573  -31.0864   22.0981 N   0  0  0  0  0  0
  -23.4184  -28.8229   23.3025 O   0  0  0  0  0  0
  -28.4394  -26.8291   20.0771 O   0  0  0  0  0  0
  -26.5582  -34.8943   22.4692 O   0  0  0  0  0  0
  -23.5317  -32.1440   23.7572 O   0  0  0  0  0  0
  -31.4153  -19.3428   21.4946 C   0  0  0  0  0  0
  -31.4821  -20.7615   21.4270 C   0  0  0  0  0  0
  -30.3280  -18.8825   22.1910 C   0  0  0  0  0  0
  -30.4591  -21.3930   22.0911 C   0  0  0  0  0  0
  -30.8798  -16.6915   23.3592 C   0  0  0  0  0  0
  -30.6803  -15.2257   22.9613 C   0  0  0  0  0  0
  -29.8984  -16.5949   21.1671 C   0  0  0  0  0  0
  -29.9467  -17.4549   22.4328 C   0  0  2  0  0  0
  -30.9858  -25.5288   19.8784 C   0  0  0  0  0  0
  -29.1472  -23.2356   23.2198 C   0  0  0  0  0  0
  -31.5721  -23.5297   22.6927 C   0  0  0  0  0  0
  -29.8472  -23.4266   20.7995 C   0  0  0  0  0  0
  -28.4491  -25.4130   20.0054 C   0  0  0  0  0  0
  -29.7724  -24.9671   20.6464 C   0  0  2  0  0  0
  -30.2571  -22.8872   22.1980 C   0  0  0  0  0  0
  -30.2073  -15.2205   21.5718 N   0  0  0  0  0  0
  -29.3716  -20.2100   22.7958 S   0  0  0  0  0  0
  -31.4603  -12.3931   19.0868 H   0  0  0  0  0  0
  -30.3177  -11.2609   19.7485 H   0  0  0  0  0  0
  -29.7102  -11.8321   17.3862 H   0  0  0  0  0  0
  -29.6609  -13.5311   17.7868 H   0  0  0  0  0  0
  -27.7929  -11.3404   18.7616 H   0  0  0  0  0  0
  -27.3584  -12.7183   17.7852 H   0  0  0  0  0  0
  -27.7309  -14.2636   19.6339 H   0  0  0  0  0  0
  -28.6673  -11.8717   21.2875 H   0  0  0  0  0  0
  -28.4591  -13.4792   21.9012 H   0  0  0  0  0  0
  -25.2753   -9.5689   22.4749 H   0  0  0  0  0  0
  -23.9993   -7.4639   22.7469 H   0  0  0  0  0  0
  -21.0833   -8.8759   19.8946 H   0  0  0  0  0  0
  -22.3685  -10.9660   19.6140 H   0  0  0  0  0  0
  -21.2004   -7.6144   23.9710 H   0  0  0  0  0  0
  -21.1481   -6.0519   25.9078 H   0  0  0  0  0  0
  -22.0598   -2.7597   23.2846 H   0  0  0  0  0  0
  -22.4088  -11.9877   22.4758 H   0  0  0  0  0  0
  -21.1109  -13.1251   22.2577 H   0  0  0  0  0  0
  -24.6683  -15.8456   20.5314 H   0  0  0  0  0  0
  -26.2913  -15.6303   20.1124 H   0  0  0  0  0  0
  -26.7085  -32.5550   23.1157 H   0  0  0  0  0  0
  -25.0102  -33.9810   25.0526 H   0  0  0  0  0  0
  -22.6796  -31.3128   21.4176 H   0  0  0  0  0  0
  -23.3761  -35.9601   23.3323 H   0  0  0  0  0  0
  -24.3587  -36.8862   22.2044 H   0  0  0  0  0  0
  -23.7213  -37.6504   23.6623 H   0  0  0  0  0  0
  -26.0108  -31.6211   20.5819 H   0  0  0  0  0  0
  -26.8077  -30.9139   21.9606 H   0  0  0  0  0  0
  -28.0913  -29.1634   21.1291 H   0  0  0  0  0  0
  -26.0642  -25.9844   19.0229 H   0  0  0  0  0  0
  -23.9674  -27.2858   19.0621 H   0  0  0  0  0  0
  -23.7039  -30.6021   19.4060 H   0  0  0  0  0  0
  -22.7193  -29.2475   19.8718 H   0  0  0  0  0  0
  -25.1292  -36.1983   25.0847 H   0  0  0  0  0  0
  -20.9937  -28.3187   24.1479 H   0  0  0  0  0  0
  -20.5690  -26.2232   23.3595 H   0  0  0  0  0  0
  -21.6624  -26.7477   22.1181 H   0  0  0  0  0  0
  -19.6892  -25.6335   21.1212 H   0  0  0  0  0  0
  -19.6683  -27.3264   20.6787 H   0  0  0  0  0  0
  -17.4188  -26.6739   21.4016 H   0  0  0  0  0  0
  -18.0283  -26.0088   22.9001 H   0  0  0  0  0  0
  -19.7928  -30.7268   24.2294 H   0  0  0  0  0  0
  -17.5028  -31.6291   24.5185 H   0  0  0  0  0  0
  -15.5354  -30.3050   23.7661 H   0  0  0  0  0  0
  -15.8645  -28.0883   22.7053 H   0  0  0  0  0  0
  -24.5893  -30.7081   25.7757 H   0  0  0  0  0  0
  -24.8921  -32.2892   26.4844 H   0  0  0  0  0  0
  -25.8058  -30.8905   27.0195 H   0  0  0  0  0  0
  -26.2838  -29.6815   24.1092 H   0  0  0  0  0  0
  -27.4174  -29.7317   25.4418 H   0  0  0  0  0  0
  -27.8611  -30.4448   23.9085 H   0  0  0  0  0  0
  -27.2696  -33.3598   26.2046 H   0  0  0  0  0  0
  -28.3844  -32.6850   25.0239 H   0  0  0  0  0  0
  -28.0731  -31.8388   26.5317 H   0  0  0  0  0  0
  -28.2615  -38.0086   24.7520 H   0  0  0  0  0  0
  -28.1063  -36.2623   24.6317 H   0  0  0  0  0  0
  -27.2306  -37.1457   25.8882 H   0  0  0  0  0  0
  -20.9238  -29.8771   21.7024 H   0  0  0  0  0  0
  -26.0192  -38.2882   24.1431 H   0  0  0  0  0  0
  -32.1576  -18.7145   21.0217 H   0  0  0  0  0  0
  -32.2757  -21.2656   20.8926 H   0  0  0  0  0  0
  -31.9149  -16.9753   23.1597 H   0  0  0  0  0  0
  -30.6843  -16.8866   24.4149 H   0  0  0  0  0  0
  -29.9203  -14.7599   23.5895 H   0  0  0  0  0  0
  -31.6055  -14.6608   23.0966 H   0  0  0  0  0  0
  -30.6438  -16.9370   20.4465 H   0  0  0  0  0  0
  -28.9264  -16.6575   20.6759 H   0  0  0  0  0  0
  -28.9521  -17.4281   22.8825 H   0  0  0  0  0  0
  -31.9260  -25.1931   20.3131 H   0  0  0  0  0  0
  -30.9974  -26.6201   19.8989 H   0  0  0  0  0  0
  -30.9727  -25.2196   18.8328 H   0  0  0  0  0  0
  -29.3765  -22.8379   24.2089 H   0  0  0  0  0  0
  -28.1798  -22.8334   22.9153 H   0  0  0  0  0  0
  -29.0123  -24.3095   23.3452 H   0  0  0  0  0  0
  -31.8860  -23.0884   23.6394 H   0  0  0  0  0  0
  -31.4778  -24.6025   22.8564 H   0  0  0  0  0  0
  -32.3885  -23.3868   21.9843 H   0  0  0  0  0  0
  -30.5349  -23.0458   20.0423 H   0  0  0  0  0  0
  -28.8894  -22.9770   20.5319 H   0  0  0  0  0  0
  -27.6131  -24.9879   20.5652 H   0  0  0  0  0  0
  -28.3706  -25.0790   18.9702 H   0  0  0  0  0  0
  -29.7852  -25.4284   21.6319 H   0  0  0  0  0  0
  1 25  1  0  0  0
  1 30  2  0  0  0
  1 86  1  0  0  0
  2  3  1  0  0  0
  2 25  1  0  0  0
  2 88  1  0  0  0
  2 89  1  0  0  0
  3  4  1  0  0  0
  3 90  1  0  0  0
  3 91  1  0  0  0
  4  5  1  0  0  0
  4 92  1  0  0  0
  4 93  1  0  0  0
  5  6  1  0  0  0
  5 26  1  0  0  0
  5 94  1  0  0  0
  6 25  1  0  0  0
  6 95  1  0  0  0
  6 96  1  0  0  0
  7  8  2  0  0  0
  7 26  1  0  0  0
  7 29  1  0  0  0
  8  9  1  0  0  0
  8 22  1  0  0  0
  9 10  1  0  0  0
  9 27  2  0  0  0
 10 11  2  0  0  0
 10 15  1  0  0  0
 11 12  1  0  0  0
 11 97  1  0  0  0
 12 13  2  0  0  0
 12 98  1  0  0  0
 13 14  1  0  0  0
 13 31  1  0  0  0
 14 15  2  0  0  0
 14 99  1  0  0  0
 15100  1  0  0  0
 16 17  2  0  0  0
 16 21  1  0  0  0
 16 31  1  0  0  0
 17 18  1  0  0  0
 17101  1  0  0  0
 18 19  2  0  0  0
 18102  1  0  0  0
 19 20  1  0  0  0
 19 24  1  0  0  0
 20 21  2  0  0  0
 20103  1  0  0  0
 21 23  1  0  0  0
 22 28  1  0  0  0
 22 32  2  0  0  0
 26 27  1  0  0  0
 28104  1  0  0  0
 28105  1  0  0  0
 29106  1  0  0  0
 29107  1  0  0  0
 33 34  1  0  0  0
 33 66  1  0  0  0
 33 70  2  0  0  0
 34 36  1  0  0  0
 34 59  1  0  0  0
 34108  1  0  0  0
 35 44  2  0  0  0
 35 45  1  0  0  0
 35 68  1  0  0  0
 36 56  1  0  0  0
 36109  1  0  0  0
 37 39  1  0  0  0
 37 47  1  0  0  0
 37 66  1  0  0  0
 37110  1  0  0  0
 38 43  2  0  0  0
 38 46  1  0  0  0
 38 47  1  0  0  0
 39 64  1  0  0  0
 39 67  2  0  0  0
 40 52  1  0  0  0
 40 53  2  0  0  0
 40 58  1  0  0  0
 41111  1  0  0  0
 41112  1  0  0  0
 41113  1  0  0  0
 41 48  1  0  0  0
 42 43  1  0  0  0
 42 66  1  0  0  0
 42114  1  0  0  0
 42115  1  0  0  0
 43 44  1  0  0  0
 44116  1  0  0  0
 45 46  2  0  0  0
 45117  1  0  0  0
 46118  1  0  0  0
 47119  1  0  0  0
 47120  1  0  0  0
 48 56  1  0  0  0
 48 65  1  0  0  0
 48121  1  0  0  0
 49 50  1  0  0  0
 49 53  1  0  0  0
 49 64  1  0  0  0
 49122  1  0  0  0
 50 51  1  0  0  0
 50123  1  0  0  0
 50124  1  0  0  0
 51 52  1  0  0  0
 51125  1  0  0  0
 51126  1  0  0  0
 52127  1  0  0  0
 52128  1  0  0  0
 53 54  1  0  0  0
 54 55  2  0  0  0
 54129  1  0  0  0
 55 57  1  0  0  0
 55130  1  0  0  0
 56 69  2  0  0  0
 57 58  2  0  0  0
 57131  1  0  0  0
 58132  1  0  0  0
 59 60  1  0  0  0
 59 61  1  0  0  0
 59 62  1  0  0  0
 60133  1  0  0  0
 60134  1  0  0  0
 60135  1  0  0  0
 61136  1  0  0  0
 61137  1  0  0  0
 61138  1  0  0  0
 62139  1  0  0  0
 62140  1  0  0  0
 62141  1  0  0  0
 63 65  1  0  0  0
 63142  1  0  0  0
 63143  1  0  0  0
 63144  1  0  0  0
 64145  1  0  0  0
 65146  1  0  0  0
 68 83  1  0  0  0
 71 72  1  0  0  0
 71 73  2  0  0  0
 71147  1  0  0  0
 72 74  2  0  0  0
 72148  1  0  0  0
 73 87  1  0  0  0
 73 78  1  0  0  0
 74 85  1  0  0  0
 74 87  1  0  0  0
 75 76  1  0  0  0
 75 78  1  0  0  0
 75149  1  0  0  0
 75150  1  0  0  0
 76 86  1  0  0  0
 76151  1  0  0  0
 76152  1  0  0  0
 77 78  1  0  0  0
 77 86  1  0  0  0
 77153  1  0  0  0
 77154  1  0  0  0
 78155  1  0  0  0
 79156  1  0  0  0
 79157  1  0  0  0
 79158  1  0  0  0
 79 84  1  0  0  0
 80159  1  0  0  0
 80160  1  0  0  0
 80161  1  0  0  0
 80 85  1  0  0  0
 81 85  1  0  0  0
 81162  1  0  0  0
 81163  1  0  0  0
 81164  1  0  0  0
 82 84  1  0  0  0
 82 85  1  0  0  0
 82165  1  0  0  0
 82166  1  0  0  0
 83 84  1  0  0  0
 83167  1  0  0  0
 83168  1  0  0  0
 84169  1  0  0  0
M  ISO  4   1 100  68 101  83 101  86 100
M  END
> <chiral flag>
0

> <version>
0

> <s_m_source_file>
/data/baiqing/PycharmProjects/Reinvent-master-3.2/result/LINK_invent/BTK/process_docking_weight1_custom_product_contain_oxygen_bond_distance_aromatic_linkinvent_7_9_3/rearranged_h_0147.sdf

> <i_m_source_file_index>
8

> <r_mmod_Potential_Energy-OPLS-2005>
120.854499816895

> <r_mmod_Stretch_Energy-OPLS-2005>
32.8301048278809

> <r_mmod_Bend_Energy-OPLS-2005>
125.464431762695

> <r_mmod_Torsional_Energy-OPLS-2005>
313.443267822266

> <r_mmod_Improper_Torsional_Energy-OPLS-2005>
5.57567930221558

> <r_mmod_Van_der_Waal_Energy-OPLS-2005>
136.705612182617

> <r_mmod_Electrostatic_Energy-OPLS-2005>
-322.881195068359

> <r_mmod_Solvation_Energy-OPLS-2005>
-177.918350219727

> <b_mmod_Minimization_Converged-OPLS-2005>
0

> <r_mmod_RMS_Derivative-OPLS-2005>
2.4700562953949

$$$$
8
                    3D
 Structure written by MMmdl.
158167  0  0  1  0            999 V2000
  -30.6768  -14.5603   20.5147 C   0  0  0  0  0  0
  -30.4222  -12.3479   19.4394 C   0  0  0  0  0  0
  -29.4976  -12.4994   18.2131 C   0  0  0  0  0  0
  -28.0193  -12.3496   18.6250 C   0  0  0  0  0  0
  -27.6505  -13.2124   19.8617 C   0  0  2  0  0  0
  -28.6962  -13.0566   20.9866 C   0  0  0  0  0  0
  -25.2561  -13.8166   20.5704 C   0  0  0  0  0  0
  -24.1817  -13.0436   20.9181 C   0  0  0  0  0  0
  -24.6381  -11.6905   20.8734 C   0  0  0  0  0  0
  -23.9053  -10.4289   21.0403 C   0  0  0  0  0  0
  -24.3610   -9.4207   21.9182 C   0  0  0  0  0  0
  -23.6289   -8.2241   22.0752 C   0  0  0  0  0  0
  -22.4270   -8.0277   21.3544 C   0  0  0  0  0  0
  -21.9903   -9.0247   20.4644 C   0  0  0  0  0  0
  -22.7227  -10.2128   20.3052 C   0  0  0  0  0  0
  -21.6849   -6.0733   22.5279 C   0  0  0  0  0  0
  -21.4012   -6.5637   23.8212 C   0  0  0  0  0  0
  -21.3658   -5.6791   24.9174 C   0  0  0  0  0  0
  -21.6042   -4.3055   24.7226 C   0  0  0  0  0  0
  -21.8819   -3.8146   23.4346 C   0  0  0  0  0  0
  -21.9193   -4.6961   22.3403 C   0  0  0  0  0  0
  -22.7841  -13.5234   21.1853 C   0  0  0  0  0  0
  -22.1660   -4.2147   21.0981 F   0  0  0  0  0  0
  -21.5632   -3.4537   25.7739 F   0  0  0  0  0  0
  -30.0137  -13.3702   20.4191 N   0  0  0  0  0  0
  -26.2977  -12.9336   20.3334 N   0  0  0  0  0  0
  -25.9308  -11.6495   20.5753 N   0  0  0  0  0  0
  -22.0481  -12.8223   22.0405 N   0  0  0  0  0  0
  -25.4296  -15.1889   20.4160 N   0  0  0  0  0  0
  -31.8570  -14.6660   20.1623 O   0  0  0  0  0  0
  -21.6635   -6.8873   21.4240 O   0  0  0  0  0  0
  -22.3527  -14.5540   20.6702 O   0  0  0  0  0  0
  -24.6197  -31.8643   23.2054 C   0  0  0  0  0  0
  -25.9073  -32.4803   23.8366 C   0  0  1  0  0  0
  -27.2305  -27.3861   20.1133 C   0  0  0  0  0  0
  -25.5913  -33.8598   24.2305 N   0  0  0  0  0  0
  -23.4103  -30.4865   21.5471 C   0  0  2  0  0  0
  -24.8575  -28.9442   20.1145 C   0  0  0  0  0  0
  -22.7439  -29.4644   22.4970 C   0  0  0  0  0  0
  -18.0277  -28.1379   22.8489 C   0  0  0  0  0  0
  -24.1486  -36.7296   23.2639 C   0  0  0  0  0  0
  -25.9432  -30.8167   21.3640 C   0  0  0  0  0  0
  -26.0211  -29.4472   20.7110 C   0  0  0  0  0  0
  -27.2143  -28.6794   20.6983 C   0  0  0  0  0  0
  -26.0506  -26.9095   19.5053 C   0  0  0  0  0  0
  -24.8698  -27.6774   19.5042 C   0  0  0  0  0  0
  -23.6211  -29.8163   20.1630 C   0  0  0  0  0  0
  -25.4109  -36.3098   24.0338 C   0  0  1  0  0  0
  -20.5874  -28.3675   23.1305 C   0  0  2  0  0  0
  -20.6768  -26.9405   22.5417 C   0  0  0  0  0  0
  -19.5748  -26.6384   21.5216 C   0  0  0  0  0  0
  -18.1926  -26.7927   22.1620 C   0  0  0  0  0  0
  -19.1529  -28.8843   23.2892 C   0  0  0  0  0  0
  -18.9455  -30.1449   23.8904 C   0  0  0  0  0  0
  -17.6456  -30.6585   24.0567 C   0  0  0  0  0  0
  -25.9037  -34.9464   23.5120 C   0  0  0  0  0  0
  -16.5348  -29.9085   23.6329 C   0  0  0  0  0  0
  -16.7265  -28.6504   23.0345 C   0  0  0  0  0  0
  -26.4484  -31.6589   25.0707 C   0  0  0  0  0  0
  -25.3740  -31.3706   26.1450 C   0  0  0  0  0  0
  -27.0318  -30.3027   24.6098 C   0  0  0  0  0  0
  -27.6059  -32.4310   25.7474 C   0  0  0  0  0  0
  -27.5580  -37.1803   24.8465 C   0  0  0  0  0  0
  -21.4162  -29.3038   22.3711 N   0  0  0  0  0  0
  -26.4292  -37.3787   23.9410 N   0  0  0  0  0  0
  -24.6762  -31.0710   22.0970 N   0  0  0  0  0  0
  -23.4192  -28.8192   23.3030 O   0  0  0  0  0  0
  -28.3720  -26.5989   20.1103 O   0  0  0  0  0  0
  -26.5600  -34.8932   22.4683 O   0  0  0  0  0  0
  -23.5379  -32.1411   23.7426 O   0  0  0  0  0  0
  -29.3399  -19.2135   19.2592 C   0  0  0  0  0  0
  -29.5517  -17.9300   19.8658 C   0  0  0  0  0  0
  -29.6690  -17.9750   21.1940 C   0  0  0  0  0  0
  -29.2800  -20.2616   20.1679 C   0  0  0  0  0  0
  -28.8795  -22.6909   20.5876 C   0  0  0  0  0  0
  -29.6873  -16.5090   19.4181 C   0  0  0  0  0  0
  -29.9066  -16.6364   21.8253 C   0  0  0  0  0  0
  -31.2421  -16.6413   22.6001 C   0  0  0  0  0  0
  -28.7568  -16.2852   22.7848 C   0  0  0  0  0  0
  -28.7699  -24.0692   19.8568 C   0  0  0  0  0  0
  -28.2575  -25.2779   20.7178 C   0  0  0  0  0  0
  -29.9034  -15.6848   20.6510 N   0  0  0  0  0  0
  -29.1021  -21.5857   19.8265 N   0  0  0  0  0  0
  -28.7621  -22.6424   21.8143 O   0  0  0  0  0  0
  -29.5039  -19.6084   21.8092 S   0  0  0  0  0  0
  -31.4671  -12.4456   19.1399 H   0  0  0  0  0  0
  -30.3278  -11.3508   19.8722 H   0  0  0  0  0  0
  -29.7513  -11.7567   17.4554 H   0  0  0  0  0  0
  -29.6535  -13.4747   17.7488 H   0  0  0  0  0  0
  -27.8449  -11.2958   18.8452 H   0  0  0  0  0  0
  -27.3668  -12.5952   17.7865 H   0  0  0  0  0  0
  -27.6677  -14.2491   19.5308 H   0  0  0  0  0  0
  -28.6906  -12.0388   21.3790 H   0  0  0  0  0  0
  -28.4528  -13.7026   21.8273 H   0  0  0  0  0  0
  -25.2758   -9.5681   22.4752 H   0  0  0  0  0  0
  -23.9997   -7.4630   22.7470 H   0  0  0  0  0  0
  -21.0835   -8.8762   19.8949 H   0  0  0  0  0  0
  -22.3690  -10.9662   19.6156 H   0  0  0  0  0  0
  -21.1998   -7.6146   23.9715 H   0  0  0  0  0  0
  -21.1481   -6.0521   25.9077 H   0  0  0  0  0  0
  -22.0599   -2.7606   23.2848 H   0  0  0  0  0  0
  -22.4092  -11.9881   22.4790 H   0  0  0  0  0  0
  -21.1098  -13.1245   22.2609 H   0  0  0  0  0  0
  -24.6699  -15.8485   20.5418 H   0  0  0  0  0  0
  -26.2974  -15.6321   20.1436 H   0  0  0  0  0  0
  -26.7142  -32.5501   23.1121 H   0  0  0  0  0  0
  -25.0091  -33.9756   25.0472 H   0  0  0  0  0  0
  -22.7007  -31.3041   21.4043 H   0  0  0  0  0  0
  -23.3755  -35.9623   23.3310 H   0  0  0  0  0  0
  -24.3577  -36.8899   22.2050 H   0  0  0  0  0  0
  -23.7231  -37.6501   23.6646 H   0  0  0  0  0  0
  -26.0604  -31.5805   20.5939 H   0  0  0  0  0  0
  -26.8289  -30.8700   21.9850 H   0  0  0  0  0  0
  -28.1140  -29.0650   21.1576 H   0  0  0  0  0  0
  -26.0436  -25.9373   19.0332 H   0  0  0  0  0  0
  -23.9768  -27.2860   19.0364 H   0  0  0  0  0  0
  -23.7323  -30.5901   19.4027 H   0  0  0  0  0  0
  -22.7438  -29.2380   19.8664 H   0  0  0  0  0  0
  -25.1286  -36.1956   25.0831 H   0  0  0  0  0  0
  -20.9959  -28.3239   24.1426 H   0  0  0  0  0  0
  -20.5675  -26.2280   23.3607 H   0  0  0  0  0  0
  -21.6636  -26.7444   22.1204 H   0  0  0  0  0  0
  -19.6913  -25.6299   21.1230 H   0  0  0  0  0  0
  -19.6692  -27.3206   20.6758 H   0  0  0  0  0  0
  -17.4201  -26.6688   21.4016 H   0  0  0  0  0  0
  -18.0314  -26.0060   22.9004 H   0  0  0  0  0  0
  -19.7933  -30.7262   24.2272 H   0  0  0  0  0  0
  -17.5014  -31.6265   24.5168 H   0  0  0  0  0  0
  -15.5350  -30.2989   23.7655 H   0  0  0  0  0  0
  -15.8664  -28.0832   22.7046 H   0  0  0  0  0  0
  -24.5912  -30.7056   25.7781 H   0  0  0  0  0  0
  -24.8940  -32.2868   26.4897 H   0  0  0  0  0  0
  -25.8085  -30.8868   27.0209 H   0  0  0  0  0  0
  -26.2864  -29.6780   24.1159 H   0  0  0  0  0  0
  -27.4093  -29.7264   25.4556 H   0  0  0  0  0  0
  -27.8697  -30.4337   23.9247 H   0  0  0  0  0  0
  -27.2679  -33.3611   26.2054 H   0  0  0  0  0  0
  -28.3870  -32.6864   25.0301 H   0  0  0  0  0  0
  -28.0723  -31.8429   26.5387 H   0  0  0  0  0  0
  -28.2599  -38.0101   24.7514 H   0  0  0  0  0  0
  -28.1078  -36.2632   24.6286 H   0  0  0  0  0  0
  -27.2302  -37.1439   25.8870 H   0  0  0  0  0  0
  -20.9331  -29.8752   21.6921 H   0  0  0  0  0  0
  -26.0180  -38.2866   24.1414 H   0  0  0  0  0  0
  -29.2389  -19.3200   18.1877 H   0  0  0  0  0  0
  -30.5134  -16.4098   18.7111 H   0  0  0  0  0  0
  -28.7851  -16.1775   18.9051 H   0  0  0  0  0  0
  -31.2304  -17.3895   23.3941 H   0  0  0  0  0  0
  -32.0843  -16.8786   21.9487 H   0  0  0  0  0  0
  -31.4458  -15.6796   23.0730 H   0  0  0  0  0  0
  -28.6513  -17.0422   23.5630 H   0  0  0  0  0  0
  -28.9264  -15.3347   23.2900 H   0  0  0  0  0  0
  -27.8022  -16.2234   22.2608 H   0  0  0  0  0  0
  -28.1211  -23.9523   18.9885 H   0  0  0  0  0  0
  -29.7601  -24.3092   19.4687 H   0  0  0  0  0  0
  -28.8422  -25.3226   21.6374 H   0  0  0  0  0  0
  -27.2364  -25.0711   21.0434 H   0  0  0  0  0  0
  -29.1385  -21.7739   18.8334 H   0  0  0  0  0  0
  1 25  1  0  0  0
  1 30  2  0  0  0
  1 82  1  0  0  0
  2  3  1  0  0  0
  2 25  1  0  0  0
  2 86  1  0  0  0
  2 87  1  0  0  0
  3  4  1  0  0  0
  3 88  1  0  0  0
  3 89  1  0  0  0
  4  5  1  0  0  0
  4 90  1  0  0  0
  4 91  1  0  0  0
  5  6  1  0  0  0
  5 26  1  0  0  0
  5 92  1  0  0  0
  6 25  1  0  0  0
  6 93  1  0  0  0
  6 94  1  0  0  0
  7  8  2  0  0  0
  7 26  1  0  0  0
  7 29  1  0  0  0
  8  9  1  0  0  0
  8 22  1  0  0  0
  9 10  1  0  0  0
  9 27  2  0  0  0
 10 11  2  0  0  0
 10 15  1  0  0  0
 11 12  1  0  0  0
 11 95  1  0  0  0
 12 13  2  0  0  0
 12 96  1  0  0  0
 13 14  1  0  0  0
 13 31  1  0  0  0
 14 15  2  0  0  0
 14 97  1  0  0  0
 15 98  1  0  0  0
 16 17  2  0  0  0
 16 21  1  0  0  0
 16 31  1  0  0  0
 17 18  1  0  0  0
 17 99  1  0  0  0
 18 19  2  0  0  0
 18100  1  0  0  0
 19 20  1  0  0  0
 19 24  1  0  0  0
 20 21  2  0  0  0
 20101  1  0  0  0
 21 23  1  0  0  0
 22 28  1  0  0  0
 22 32  2  0  0  0
 26 27  1  0  0  0
 28102  1  0  0  0
 28103  1  0  0  0
 29104  1  0  0  0
 29105  1  0  0  0
 33 34  1  0  0  0
 33 66  1  0  0  0
 33 70  2  0  0  0
 34 36  1  0  0  0
 34 59  1  0  0  0
 34106  1  0  0  0
 35 44  2  0  0  0
 35 45  1  0  0  0
 35 68  1  0  0  0
 36 56  1  0  0  0
 36107  1  0  0  0
 37 39  1  0  0  0
 37 47  1  0  0  0
 37 66  1  0  0  0
 37108  1  0  0  0
 38 43  2  0  0  0
 38 46  1  0  0  0
 38 47  1  0  0  0
 39 64  1  0  0  0
 39 67  2  0  0  0
 40 52  1  0  0  0
 40 53  2  0  0  0
 40 58  1  0  0  0
 41109  1  0  0  0
 41110  1  0  0  0
 41111  1  0  0  0
 41 48  1  0  0  0
 42 43  1  0  0  0
 42 66  1  0  0  0
 42112  1  0  0  0
 42113  1  0  0  0
 43 44  1  0  0  0
 44114  1  0  0  0
 45 46  2  0  0  0
 45115  1  0  0  0
 46116  1  0  0  0
 47117  1  0  0  0
 47118  1  0  0  0
 48 56  1  0  0  0
 48 65  1  0  0  0
 48119  1  0  0  0
 49 50  1  0  0  0
 49 53  1  0  0  0
 49 64  1  0  0  0
 49120  1  0  0  0
 50 51  1  0  0  0
 50121  1  0  0  0
 50122  1  0  0  0
 51 52  1  0  0  0
 51123  1  0  0  0
 51124  1  0  0  0
 52125  1  0  0  0
 52126  1  0  0  0
 53 54  1  0  0  0
 54 55  2  0  0  0
 54127  1  0  0  0
 55 57  1  0  0  0
 55128  1  0  0  0
 56 69  2  0  0  0
 57 58  2  0  0  0
 57129  1  0  0  0
 58130  1  0  0  0
 59 60  1  0  0  0
 59 61  1  0  0  0
 59 62  1  0  0  0
 60131  1  0  0  0
 60132  1  0  0  0
 60133  1  0  0  0
 61134  1  0  0  0
 61135  1  0  0  0
 61136  1  0  0  0
 62137  1  0  0  0
 62138  1  0  0  0
 62139  1  0  0  0
 63 65  1  0  0  0
 63140  1  0  0  0
 63141  1  0  0  0
 63142  1  0  0  0
 64143  1  0  0  0
 65144  1  0  0  0
 68 81  1  0  0  0
 71 72  1  0  0  0
 71 74  2  0  0  0
 71145  1  0  0  0
 72 73  2  0  0  0
 72 76  1  0  0  0
 73 77  1  0  0  0
 73 85  1  0  0  0
 74 83  1  0  0  0
 74 85  1  0  0  0
 75 80  1  0  0  0
 75 83  1  0  0  0
 75 84  2  0  0  0
 76 82  1  0  0  0
 76146  1  0  0  0
 76147  1  0  0  0
 77 78  1  0  0  0
 77 79  1  0  0  0
 77 82  1  0  0  0
 78148  1  0  0  0
 78149  1  0  0  0
 78150  1  0  0  0
 79151  1  0  0  0
 79152  1  0  0  0
 79153  1  0  0  0
 80 81  1  0  0  0
 80154  1  0  0  0
 80155  1  0  0  0
 81156  1  0  0  0
 81157  1  0  0  0
 83158  1  0  0  0
M  ISO  4   1 100  68 101  81 101  82 100
M  END
> <chiral flag>
0

> <version>
0

> <s_m_source_file>
/data/baiqing/PycharmProjects/Reinvent-master-3.2/result/LINK_invent/BTK/process_docking_weight1_custom_product_contain_oxygen_bond_distance_aromatic_linkinvent_7_9_3/rearranged_h_0147.sdf

> <i_m_source_file_index>
9

> <r_mmod_Potential_Energy-OPLS-2005>
118.957763671875

> <r_mmod_Stretch_Energy-OPLS-2005>
60.0774726867676

> <r_mmod_Bend_Energy-OPLS-2005>
190.393981933594

> <r_mmod_Torsional_Energy-OPLS-2005>
272.442108154297

> <r_mmod_Improper_Torsional_Energy-OPLS-2005>
12.8818473815918

> <r_mmod_Van_der_Waal_Energy-OPLS-2005>
114.012603759766

> <r_mmod_Electrostatic_Energy-OPLS-2005>
-339.184539794922

> <r_mmod_Solvation_Energy-OPLS-2005>
-218.532180786133

> <b_mmod_Minimization_Converged-OPLS-2005>
0

> <r_mmod_RMS_Derivative-OPLS-2005>
0.8367640376091

$$$$
9
                    3D
 Structure written by MMmdl.
166175  0  0  1  0            999 V2000
  -30.6829  -14.5310   20.4674 C   0  0  0  0  0  0
  -30.4369  -12.3214   19.4278 C   0  0  0  0  0  0
  -29.5042  -12.4775   18.2089 C   0  0  0  0  0  0
  -28.0249  -12.3423   18.6249 C   0  0  0  0  0  0
  -27.6613  -13.2074   19.8579 C   0  0  2  0  0  0
  -28.7096  -13.0421   20.9838 C   0  0  0  0  0  0
  -25.2636  -13.8174   20.5655 C   0  0  0  0  0  0
  -24.1856  -13.0475   20.9178 C   0  0  0  0  0  0
  -24.6384  -11.6919   20.8710 C   0  0  0  0  0  0
  -23.9022  -10.4292   21.0380 C   0  0  0  0  0  0
  -24.3554   -9.4212   21.9179 C   0  0  0  0  0  0
  -23.6237   -8.2232   22.0755 C   0  0  0  0  0  0
  -22.4232   -8.0246   21.3528 C   0  0  0  0  0  0
  -21.9863   -9.0240   20.4665 C   0  0  0  0  0  0
  -22.7173  -10.2123   20.3071 C   0  0  0  0  0  0
  -21.6832   -6.0701   22.5259 C   0  0  0  0  0  0
  -21.4000   -6.5625   23.8178 C   0  0  0  0  0  0
  -21.3661   -5.6784   24.9146 C   0  0  0  0  0  0
  -21.6045   -4.3042   24.7207 C   0  0  0  0  0  0
  -21.8820   -3.8119   23.4331 C   0  0  0  0  0  0
  -21.9200   -4.6939   22.3380 C   0  0  0  0  0  0
  -22.7879  -13.5305   21.1767 C   0  0  0  0  0  0
  -22.1677   -4.2132   21.0957 F   0  0  0  0  0  0
  -21.5630   -3.4547   25.7733 F   0  0  0  0  0  0
  -30.0350  -13.3362   20.4182 N   0  0  0  0  0  0
  -26.3013  -12.9337   20.3261 N   0  0  0  0  0  0
  -25.9305  -11.6488   20.5695 N   0  0  0  0  0  0
  -22.0410  -12.8398   22.0296 N   0  0  0  0  0  0
  -25.4438  -15.1874   20.3999 N   0  0  0  0  0  0
  -31.8600  -14.6607   20.1169 O   0  0  0  0  0  0
  -21.6595   -6.8854   21.4217 O   0  0  0  0  0  0
  -22.3619  -14.5600   20.6540 O   0  0  0  0  0  0
  -24.6163  -31.8672   23.2079 C   0  0  0  0  0  0
  -25.9041  -32.4815   23.8372 C   0  0  1  0  0  0
  -27.2205  -27.4002   20.1218 C   0  0  0  0  0  0
  -25.5900  -33.8613   24.2317 N   0  0  0  0  0  0
  -23.4026  -30.4925   21.5498 C   0  0  2  0  0  0
  -24.8439  -28.9579   20.1092 C   0  0  0  0  0  0
  -22.7411  -29.4661   22.4991 C   0  0  0  0  0  0
  -18.0269  -28.1397   22.8490 C   0  0  0  0  0  0
  -24.1486  -36.7304   23.2645 C   0  0  0  0  0  0
  -25.9320  -30.8281   21.3602 C   0  0  0  0  0  0
  -26.0032  -29.4566   20.7148 C   0  0  0  0  0  0
  -27.1870  -28.6845   20.7188 C   0  0  0  0  0  0
  -26.0394  -26.9166   19.5123 C   0  0  0  0  0  0
  -24.8600  -27.6898   19.4991 C   0  0  0  0  0  0
  -23.6057  -29.8260   20.1608 C   0  0  0  0  0  0
  -25.4107  -36.3122   24.0352 C   0  0  1  0  0  0
  -20.5859  -28.3680   23.1348 C   0  0  2  0  0  0
  -20.6754  -26.9416   22.5455 C   0  0  0  0  0  0
  -19.5734  -26.6404   21.5239 C   0  0  0  0  0  0
  -18.1904  -26.7939   22.1627 C   0  0  0  0  0  0
  -19.1525  -28.8852   23.2904 C   0  0  0  0  0  0
  -18.9447  -30.1455   23.8901 C   0  0  0  0  0  0
  -17.6455  -30.6589   24.0581 C   0  0  0  0  0  0
  -25.9023  -34.9474   23.5129 C   0  0  0  0  0  0
  -16.5339  -29.9083   23.6360 C   0  0  0  0  0  0
  -16.7263  -28.6518   23.0351 C   0  0  0  0  0  0
  -26.4455  -31.6595   25.0707 C   0  0  0  0  0  0
  -25.3712  -31.3719   26.1473 C   0  0  0  0  0  0
  -27.0271  -30.3039   24.6063 C   0  0  0  0  0  0
  -27.6083  -32.4286   25.7416 C   0  0  0  0  0  0
  -27.5591  -37.1802   24.8461 C   0  0  0  0  0  0
  -21.4155  -29.3039   22.3742 N   0  0  0  0  0  0
  -26.4293  -37.3819   23.9425 N   0  0  0  0  0  0
  -24.6684  -31.0766   22.0969 N   0  0  0  0  0  0
  -23.4188  -28.8215   23.3039 O   0  0  0  0  0  0
  -28.3936  -26.6630   20.1879 O   0  0  0  0  0  0
  -26.5603  -34.8917   22.4695 O   0  0  0  0  0  0
  -23.5353  -32.1447   23.7482 O   0  0  0  0  0  0
  -30.2898  -18.0736   17.8578 C   0  0  0  0  0  0
  -30.1425  -19.3067   18.5136 C   0  0  0  0  0  0
  -30.2332  -16.8704   18.5859 C   0  0  0  0  0  0
  -29.8538  -18.1354   20.6429 C   0  0  0  0  0  0
  -29.9435  -19.3586   19.9099 C   0  0  0  0  0  0
  -30.0157  -16.8772   19.9892 C   0  0  0  0  0  0
  -30.0211  -20.6930   20.5503 C   0  0  0  0  0  0
  -27.4467  -23.0913   19.3542 C   0  0  0  0  0  0
  -28.1383  -21.7080   19.2441 C   0  0  0  0  0  0
  -29.7199  -23.2331   20.0855 C   0  0  1  0  0  0
  -28.3943  -24.0471   20.1406 C   0  0  2  0  0  0
  -30.8536  -23.6877   21.0272 C   0  0  0  0  0  0
  -27.8734  -24.1534   21.5943 C   0  0  0  0  0  0
  -28.5541  -25.4515   19.4262 C   0  0  0  0  0  0
  -29.3377  -21.7919   20.0949 N   0  0  0  0  0  0
  -29.9141  -15.6243   20.6982 N   0  0  0  0  0  0
  -30.8712  -20.8236   21.5642 N   0  3  0  0  0  0
  -31.4782  -12.4345   19.1134 H   0  0  0  0  0  0
  -30.3601  -11.3204   19.8523 H   0  0  0  0  0  0
  -29.7439  -11.7307   17.4496 H   0  0  0  0  0  0
  -29.6725  -13.4474   17.7414 H   0  0  0  0  0  0
  -27.8315  -11.2904   18.8402 H   0  0  0  0  0  0
  -27.3816  -12.6067   17.7844 H   0  0  0  0  0  0
  -27.6913  -14.2413   19.5129 H   0  0  0  0  0  0
  -28.7001  -12.0233   21.3751 H   0  0  0  0  0  0
  -28.4854  -13.6999   21.8242 H   0  0  0  0  0  0
  -25.2676   -9.5761   22.4767 H   0  0  0  0  0  0
  -23.9968   -7.4678   22.7496 H   0  0  0  0  0  0
  -21.0790   -8.8780   19.8989 H   0  0  0  0  0  0
  -22.3611  -10.9680   19.6202 H   0  0  0  0  0  0
  -21.1976   -7.6133   23.9689 H   0  0  0  0  0  0
  -21.1481   -6.0489   25.9060 H   0  0  0  0  0  0
  -22.0604   -2.7585   23.2781 H   0  0  0  0  0  0
  -22.3917  -12.0126   22.4888 H   0  0  0  0  0  0
  -21.1006  -13.1524   22.2314 H   0  0  0  0  0  0
  -24.6749  -15.8440   20.4881 H   0  0  0  0  0  0
  -26.2818  -15.6086   20.0194 H   0  0  0  0  0  0
  -26.7105  -32.5534   23.1133 H   0  0  0  0  0  0
  -25.0071  -33.9733   25.0473 H   0  0  0  0  0  0
  -22.6909  -31.3092   21.4197 H   0  0  0  0  0  0
  -23.3755  -35.9624   23.3300 H   0  0  0  0  0  0
  -24.3618  -36.8914   22.2060 H   0  0  0  0  0  0
  -23.7165  -37.6482   23.6651 H   0  0  0  0  0  0
  -26.0395  -31.5908   20.5867 H   0  0  0  0  0  0
  -26.8223  -30.8874   21.9746 H   0  0  0  0  0  0
  -28.0755  -29.0668   21.2003 H   0  0  0  0  0  0
  -25.9900  -25.9363   19.0631 H   0  0  0  0  0  0
  -23.9726  -27.3014   19.0229 H   0  0  0  0  0  0
  -23.6993  -30.6003   19.3970 H   0  0  0  0  0  0
  -22.7274  -29.2395   19.8832 H   0  0  0  0  0  0
  -25.1260  -36.2019   25.0845 H   0  0  0  0  0  0
  -20.9953  -28.3239   24.1469 H   0  0  0  0  0  0
  -20.5701  -26.2253   23.3626 H   0  0  0  0  0  0
  -21.6615  -26.7496   22.1236 H   0  0  0  0  0  0
  -19.6892  -25.6318   21.1253 H   0  0  0  0  0  0
  -19.6673  -27.3209   20.6757 H   0  0  0  0  0  0
  -17.4204  -26.6746   21.3987 H   0  0  0  0  0  0
  -18.0258  -26.0079   22.9019 H   0  0  0  0  0  0
  -19.7917  -30.7295   24.2243 H   0  0  0  0  0  0
  -17.5006  -31.6265   24.5173 H   0  0  0  0  0  0
  -15.5338  -30.2997   23.7666 H   0  0  0  0  0  0
  -15.8666  -28.0854   22.7046 H   0  0  0  0  0  0
  -24.5858  -30.7093   25.7810 H   0  0  0  0  0  0
  -24.8917  -32.2877   26.4946 H   0  0  0  0  0  0
  -25.8056  -30.8862   27.0222 H   0  0  0  0  0  0
  -26.2801  -29.6786   24.1175 H   0  0  0  0  0  0
  -27.4107  -29.7290   25.4495 H   0  0  0  0  0  0
  -27.8600  -30.4353   23.9159 H   0  0  0  0  0  0
  -27.2791  -33.3625   26.1985 H   0  0  0  0  0  0
  -28.3872  -32.6778   25.0192 H   0  0  0  0  0  0
  -28.0780  -31.8402   26.5309 H   0  0  0  0  0  0
  -28.2633  -38.0093   24.7577 H   0  0  0  0  0  0
  -28.1075  -36.2635   24.6213 H   0  0  0  0  0  0
  -27.2352  -37.1382   25.8881 H   0  0  0  0  0  0
  -20.9306  -29.8699   21.6929 H   0  0  0  0  0  0
  -26.0191  -38.2908   24.1435 H   0  0  0  0  0  0
  -30.4690  -18.0555   16.7912 H   0  0  0  0  0  0
  -30.2386  -20.2189   17.9401 H   0  0  0  0  0  0
  -30.3565  -15.9473   18.0388 H   0  0  0  0  0  0
  -29.7040  -18.1638   21.7136 H   0  0  0  0  0  0
  -26.4838  -22.9836   19.8576 H   0  0  0  0  0  0
  -27.2159  -23.4641   18.3554 H   0  0  0  0  0  0
  -28.4148  -21.5134   18.2060 H   0  0  0  0  0  0
  -27.4697  -20.9087   19.5656 H   0  0  0  0  0  0
  -30.1290  -23.3726   19.0845 H   0  0  0  0  0  0
  -30.6168  -23.5583   22.0821 H   0  0  0  0  0  0
  -31.0860  -24.7403   20.8661 H   0  0  0  0  0  0
  -31.7748  -23.1465   20.8084 H   0  0  0  0  0  0
  -27.7916  -23.1605   22.0453 H   0  0  0  0  0  0
  -26.8821  -24.6094   21.6334 H   0  0  0  0  0  0
  -28.5377  -24.7456   22.2254 H   0  0  0  0  0  0
  -27.9937  -25.5014   18.4946 H   0  0  0  0  0  0
  -29.5793  -25.5240   19.0664 H   0  0  0  0  0  0
  -29.0251  -15.4436   21.1371 H   0  0  0  0  0  0
  -31.4387  -20.0379   21.8424 H   0  0  0  0  0  0
  -30.9622  -21.6914   22.0645 H   0  0  0  0  0  0
  1 25  1  0  0  0
  1 30  2  0  0  0
  1 86  1  0  0  0
  2  3  1  0  0  0
  2 25  1  0  0  0
  2 88  1  0  0  0
  2 89  1  0  0  0
  3  4  1  0  0  0
  3 90  1  0  0  0
  3 91  1  0  0  0
  4  5  1  0  0  0
  4 92  1  0  0  0
  4 93  1  0  0  0
  5  6  1  0  0  0
  5 26  1  0  0  0
  5 94  1  0  0  0
  6 25  1  0  0  0
  6 95  1  0  0  0
  6 96  1  0  0  0
  7  8  2  0  0  0
  7 26  1  0  0  0
  7 29  1  0  0  0
  8  9  1  0  0  0
  8 22  1  0  0  0
  9 10  1  0  0  0
  9 27  2  0  0  0
 10 11  2  0  0  0
 10 15  1  0  0  0
 11 12  1  0  0  0
 11 97  1  0  0  0
 12 13  2  0  0  0
 12 98  1  0  0  0
 13 14  1  0  0  0
 13 31  1  0  0  0
 14 15  2  0  0  0
 14 99  1  0  0  0
 15100  1  0  0  0
 16 17  2  0  0  0
 16 21  1  0  0  0
 16 31  1  0  0  0
 17 18  1  0  0  0
 17101  1  0  0  0
 18 19  2  0  0  0
 18102  1  0  0  0
 19 20  1  0  0  0
 19 24  1  0  0  0
 20 21  2  0  0  0
 20103  1  0  0  0
 21 23  1  0  0  0
 22 28  1  0  0  0
 22 32  2  0  0  0
 26 27  1  0  0  0
 28104  1  0  0  0
 28105  1  0  0  0
 29106  1  0  0  0
 29107  1  0  0  0
 33 34  1  0  0  0
 33 66  1  0  0  0
 33 70  2  0  0  0
 34 36  1  0  0  0
 34 59  1  0  0  0
 34108  1  0  0  0
 35 44  2  0  0  0
 35 45  1  0  0  0
 35 68  1  0  0  0
 36 56  1  0  0  0
 36109  1  0  0  0
 37 39  1  0  0  0
 37 47  1  0  0  0
 37 66  1  0  0  0
 37110  1  0  0  0
 38 43  2  0  0  0
 38 46  1  0  0  0
 38 47  1  0  0  0
 39 64  1  0  0  0
 39 67  2  0  0  0
 40 52  1  0  0  0
 40 53  2  0  0  0
 40 58  1  0  0  0
 41111  1  0  0  0
 41112  1  0  0  0
 41113  1  0  0  0
 41 48  1  0  0  0
 42 43  1  0  0  0
 42 66  1  0  0  0
 42114  1  0  0  0
 42115  1  0  0  0
 43 44  1  0  0  0
 44116  1  0  0  0
 45 46  2  0  0  0
 45117  1  0  0  0
 46118  1  0  0  0
 47119  1  0  0  0
 47120  1  0  0  0
 48 56  1  0  0  0
 48 65  1  0  0  0
 48121  1  0  0  0
 49 50  1  0  0  0
 49 53  1  0  0  0
 49 64  1  0  0  0
 49122  1  0  0  0
 50 51  1  0  0  0
 50123  1  0  0  0
 50124  1  0  0  0
 51 52  1  0  0  0
 51125  1  0  0  0
 51126  1  0  0  0
 52127  1  0  0  0
 52128  1  0  0  0
 53 54  1  0  0  0
 54 55  2  0  0  0
 54129  1  0  0  0
 55 57  1  0  0  0
 55130  1  0  0  0
 56 69  2  0  0  0
 57 58  2  0  0  0
 57131  1  0  0  0
 58132  1  0  0  0
 59 60  1  0  0  0
 59 61  1  0  0  0
 59 62  1  0  0  0
 60133  1  0  0  0
 60134  1  0  0  0
 60135  1  0  0  0
 61136  1  0  0  0
 61137  1  0  0  0
 61138  1  0  0  0
 62139  1  0  0  0
 62140  1  0  0  0
 62141  1  0  0  0
 63 65  1  0  0  0
 63142  1  0  0  0
 63143  1  0  0  0
 63144  1  0  0  0
 64145  1  0  0  0
 65146  1  0  0  0
 68 84  1  0  0  0
 71 72  2  0  0  0
 71 73  1  0  0  0
 71147  1  0  0  0
 72 75  1  0  0  0
 72148  1  0  0  0
 73 76  2  0  0  0
 73149  1  0  0  0
 74 75  2  0  0  0
 74 76  1  0  0  0
 74150  1  0  0  0
 75 77  1  0  0  0
 76 86  1  0  0  0
 77 85  1  0  0  0
 77 87  2  0  0  0
 78 79  1  0  0  0
 78 81  1  0  0  0
 78151  1  0  0  0
 78152  1  0  0  0
 79 85  1  0  0  0
 79153  1  0  0  0
 79154  1  0  0  0
 80 81  1  0  0  0
 80 82  1  0  0  0
 80 85  1  0  0  0
 80155  1  0  0  0
 81 83  1  0  0  0
 81 84  1  0  0  0
 82156  1  0  0  0
 82157  1  0  0  0
 82158  1  0  0  0
 83159  1  0  0  0
 83160  1  0  0  0
 83161  1  0  0  0
 84162  1  0  0  0
 84163  1  0  0  0
 86164  1  0  0  0
 87165  1  0  0  0
 87166  1  0  0  0
M  CHG  1  87   1
M  ISO  4   1 100  68 101  84 101  86 100
M  END
> <chiral flag>
0

> <version>
0

> <s_m_source_file>
/data/baiqing/PycharmProjects/Reinvent-master-3.2/result/LINK_invent/BTK/process_docking_weight1_custom_product_contain_oxygen_bond_distance_aromatic_linkinvent_7_9_3/rearranged_h_0147.sdf

> <i_m_source_file_index>
10

> <r_mmod_Potential_Energy-OPLS-2005>
-14.4464530944824

> <r_mmod_Stretch_Energy-OPLS-2005>
51.0855178833008

> <r_mmod_Bend_Energy-OPLS-2005>
164.772048950195

> <r_mmod_Torsional_Energy-OPLS-2005>
366.466033935547

> <r_mmod_Improper_Torsional_Energy-OPLS-2005>
8.59550762176514

> <r_mmod_Van_der_Waal_Energy-OPLS-2005>
158.925170898438

> <r_mmod_Electrostatic_Energy-OPLS-2005>
-398.101959228516

> <r_mmod_Solvation_Energy-OPLS-2005>
-391.316802978516

> <b_mmod_Minimization_Converged-OPLS-2005>
0

> <r_mmod_RMS_Derivative-OPLS-2005>
5.58084440231323

$$$$
10
                    3D
 Structure written by MMmdl.
158167  0  0  1  0            999 V2000
  -30.7149  -14.4124   20.6551 C   0  0  0  0  0  0
  -30.4395  -12.2947   19.4066 C   0  0  0  0  0  0
  -29.5066  -12.5237   18.1984 C   0  0  0  0  0  0
  -28.0182  -12.3947   18.5982 C   0  0  0  0  0  0
  -27.6665  -13.2097   19.8741 C   0  0  2  0  0  0
  -28.7026  -12.9363   20.9866 C   0  0  0  0  0  0
  -25.2512  -13.8208   20.5446 C   0  0  0  0  0  0
  -24.1799  -13.0464   20.9135 C   0  0  0  0  0  0
  -24.6380  -11.6953   20.8712 C   0  0  0  0  0  0
  -23.9037  -10.4321   21.0377 C   0  0  0  0  0  0
  -24.3579   -9.4252   21.9161 C   0  0  0  0  0  0
  -23.6297   -8.2288   22.0753 C   0  0  0  0  0  0
  -22.4268   -8.0275   21.3564 C   0  0  0  0  0  0
  -21.9886   -9.0250   20.4679 C   0  0  0  0  0  0
  -22.7194  -10.2151   20.3065 C   0  0  0  0  0  0
  -21.6872   -6.0704   22.5252 C   0  0  0  0  0  0
  -21.4034   -6.5614   23.8193 C   0  0  0  0  0  0
  -21.3660   -5.6762   24.9156 C   0  0  0  0  0  0
  -21.6044   -4.3033   24.7203 C   0  0  0  0  0  0
  -21.8827   -3.8116   23.4344 C   0  0  0  0  0  0
  -21.9222   -4.6936   22.3386 C   0  0  0  0  0  0
  -22.7827  -13.5267   21.1825 C   0  0  0  0  0  0
  -22.1674   -4.2114   21.0980 F   0  0  0  0  0  0
  -21.5639   -3.4523   25.7745 F   0  0  0  0  0  0
  -30.0409  -13.2465   20.4561 N   0  0  0  0  0  0
  -26.3013  -12.9395   20.3318 N   0  0  0  0  0  0
  -25.9311  -11.6560   20.5741 N   0  0  0  0  0  0
  -22.0482  -12.8286   22.0437 N   0  0  0  0  0  0
  -25.4118  -15.1883   20.3426 N   0  0  0  0  0  0
  -31.8367  -14.6236   20.1879 O   0  0  0  0  0  0
  -21.6685   -6.8834   21.4211 O   0  0  0  0  0  0
  -22.3529  -14.5545   20.6662 O   0  0  0  0  0  0
  -24.6198  -31.8665   23.2104 C   0  0  0  0  0  0
  -25.9086  -32.4819   23.8403 C   0  0  1  0  0  0
  -27.2019  -27.4056   20.0628 C   0  0  0  0  0  0
  -25.5951  -33.8618   24.2327 N   0  0  0  0  0  0
  -23.4052  -30.5015   21.5517 C   0  0  2  0  0  0
  -24.8382  -28.9704   20.1045 C   0  0  0  0  0  0
  -22.7433  -29.4665   22.4923 C   0  0  0  0  0  0
  -18.0247  -28.1408   22.8509 C   0  0  0  0  0  0
  -24.1475  -36.7309   23.2634 C   0  0  0  0  0  0
  -25.9445  -30.8213   21.3703 C   0  0  0  0  0  0
  -26.0065  -29.4568   20.7053 C   0  0  0  0  0  0
  -27.1928  -28.6829   20.6771 C   0  0  0  0  0  0
  -26.0166  -26.9516   19.4401 C   0  0  0  0  0  0
  -24.8405  -27.7199   19.4647 C   0  0  0  0  0  0
  -23.6142  -29.8560   20.1578 C   0  0  0  0  0  0
  -25.4103  -36.3121   24.0343 C   0  0  1  0  0  0
  -20.5864  -28.3691   23.1307 C   0  0  2  0  0  0
  -20.6727  -26.9424   22.5416 C   0  0  0  0  0  0
  -19.5699  -26.6413   21.5207 C   0  0  0  0  0  0
  -18.1881  -26.7955   22.1629 C   0  0  0  0  0  0
  -19.1520  -28.8861   23.2916 C   0  0  0  0  0  0
  -18.9444  -30.1460   23.8937 C   0  0  0  0  0  0
  -17.6445  -30.6607   24.0600 C   0  0  0  0  0  0
  -25.9058  -34.9483   23.5145 C   0  0  0  0  0  0
  -16.5334  -29.9134   23.6315 C   0  0  0  0  0  0
  -16.7246  -28.6552   23.0345 C   0  0  0  0  0  0
  -26.4456  -31.6602   25.0755 C   0  0  0  0  0  0
  -25.3761  -31.3735   26.1544 C   0  0  0  0  0  0
  -27.0204  -30.3026   24.6128 C   0  0  0  0  0  0
  -27.6022  -32.4292   25.7551 C   0  0  0  0  0  0
  -27.5567  -37.1821   24.8470 C   0  0  0  0  0  0
  -21.4154  -29.3077   22.3716 N   0  0  0  0  0  0
  -26.4257  -37.3833   23.9455 N   0  0  0  0  0  0
  -24.6756  -31.0760   22.1017 N   0  0  0  0  0  0
  -23.4185  -28.8128   23.2908 O   0  0  0  0  0  0
  -28.3511  -26.6375   20.0605 O   0  0  0  0  0  0
  -26.5595  -34.8937   22.4684 O   0  0  0  0  0  0
  -23.5377  -32.1397   23.7498 O   0  0  0  0  0  0
  -29.4729  -18.5549   22.4063 C   0  0  0  0  0  0
  -29.9016  -18.9986   19.9819 C   0  0  0  0  0  0
  -29.7202  -17.2149   22.0998 C   0  0  0  0  0  0
  -30.1024  -17.6178   19.6780 C   0  0  0  0  0  0
  -30.0004  -16.7643   20.7763 C   0  0  0  0  0  0
  -29.5609  -19.4634   21.3056 C   0  0  0  0  0  0
  -29.3214  -21.9702   20.9168 C   0  0  0  0  0  0
  -29.7269  -15.7897   22.6199 C   0  0  0  0  0  0
  -30.3375  -17.1038   18.2722 C   0  0  0  0  0  0
  -28.9018  -23.2318   21.6957 C   0  0  0  0  0  0
  -29.2301  -24.6088   21.0501 C   0  0  0  0  0  0
  -28.1860  -25.1996   20.0807 C   0  0  0  0  0  0
  -29.9762  -15.4141   21.1780 N   0  0  0  0  0  0
  -29.2356  -20.8187   21.6203 N   0  0  0  0  0  0
  -29.7325  -22.0605   19.7562 O   0  0  0  0  0  0
  -31.4815  -12.4133   19.0977 H   0  0  0  0  0  0
  -30.3612  -11.2699   19.7723 H   0  0  0  0  0  0
  -29.7448  -11.8229   17.3981 H   0  0  0  0  0  0
  -29.6858  -13.5223   17.7893 H   0  0  0  0  0  0
  -27.8028  -11.3383   18.7666 H   0  0  0  0  0  0
  -27.3833  -12.7075   17.7652 H   0  0  0  0  0  0
  -27.7298  -14.2633   19.6038 H   0  0  0  0  0  0
  -28.6688  -11.8900   21.2953 H   0  0  0  0  0  0
  -28.4547  -13.5082   21.8784 H   0  0  0  0  0  0
  -25.2683   -9.5788   22.4771 H   0  0  0  0  0  0
  -24.0013   -7.4686   22.7479 H   0  0  0  0  0  0
  -21.0808   -8.8723   19.9008 H   0  0  0  0  0  0
  -22.3551  -10.9675   19.6208 H   0  0  0  0  0  0
  -21.2006   -7.6118   23.9691 H   0  0  0  0  0  0
  -21.1491   -6.0496   25.9064 H   0  0  0  0  0  0
  -22.0617   -2.7582   23.2862 H   0  0  0  0  0  0
  -22.4028  -11.9919   22.4783 H   0  0  0  0  0  0
  -21.1142  -13.1437   22.2677 H   0  0  0  0  0  0
  -24.5871  -15.7728   20.2530 H   0  0  0  0  0  0
  -26.1993  -15.5451   19.8113 H   0  0  0  0  0  0
  -26.7164  -32.5482   23.1163 H   0  0  0  0  0  0
  -25.0220  -33.9774   25.0554 H   0  0  0  0  0  0
  -22.6936  -31.3224   21.4257 H   0  0  0  0  0  0
  -23.3733  -35.9648   23.3324 H   0  0  0  0  0  0
  -24.3566  -36.8869   22.2043 H   0  0  0  0  0  0
  -23.7218  -37.6528   23.6594 H   0  0  0  0  0  0
  -26.0695  -31.5868   20.6018 H   0  0  0  0  0  0
  -26.8322  -30.8611   21.9934 H   0  0  0  0  0  0
  -28.0983  -29.0596   21.1304 H   0  0  0  0  0  0
  -25.9860  -26.0099   18.9084 H   0  0  0  0  0  0
  -23.9475  -27.3600   18.9697 H   0  0  0  0  0  0
  -23.7541  -30.6457   19.4205 H   0  0  0  0  0  0
  -22.7261  -29.3105   19.8326 H   0  0  0  0  0  0
  -25.1254  -36.1981   25.0827 H   0  0  0  0  0  0
  -20.9964  -28.3249   24.1427 H   0  0  0  0  0  0
  -20.5558  -26.2317   23.3620 H   0  0  0  0  0  0
  -21.6602  -26.7397   22.1266 H   0  0  0  0  0  0
  -19.6829  -25.6320   21.1233 H   0  0  0  0  0  0
  -19.6636  -27.3226   20.6744 H   0  0  0  0  0  0
  -17.4149  -26.6731   21.4041 H   0  0  0  0  0  0
  -18.0291  -26.0084   22.9017 H   0  0  0  0  0  0
  -19.7920  -30.7282   24.2327 H   0  0  0  0  0  0
  -17.5005  -31.6284   24.5223 H   0  0  0  0  0  0
  -15.5346  -30.3077   23.7605 H   0  0  0  0  0  0
  -15.8644  -28.0899   22.7039 H   0  0  0  0  0  0
  -24.6008  -30.6944   25.7979 H   0  0  0  0  0  0
  -24.8884  -32.2886   26.4902 H   0  0  0  0  0  0
  -25.8202  -30.9061   27.0359 H   0  0  0  0  0  0
  -26.2735  -29.6956   24.1009 H   0  0  0  0  0  0
  -27.3730  -29.7084   25.4563 H   0  0  0  0  0  0
  -27.8685  -30.4301   23.9412 H   0  0  0  0  0  0
  -27.2646  -33.3637   26.2063 H   0  0  0  0  0  0
  -28.3916  -32.6771   25.0443 H   0  0  0  0  0  0
  -28.0592  -31.8453   26.5551 H   0  0  0  0  0  0
  -28.2595  -38.0111   24.7541 H   0  0  0  0  0  0
  -28.1049  -36.2647   24.6257 H   0  0  0  0  0  0
  -27.2287  -37.1431   25.8869 H   0  0  0  0  0  0
  -20.9243  -29.8977   21.7161 H   0  0  0  0  0  0
  -26.0125  -38.2898   24.1503 H   0  0  0  0  0  0
  -29.1966  -18.8799   23.3977 H   0  0  0  0  0  0
  -29.9799  -19.6923   19.1571 H   0  0  0  0  0  0
  -28.7540  -15.4788   23.0086 H   0  0  0  0  0  0
  -30.5486  -15.5524   23.3011 H   0  0  0  0  0  0
  -30.0343  -16.0593   18.1746 H   0  0  0  0  0  0
  -31.3888  -17.1670   17.9945 H   0  0  0  0  0  0
  -29.7519  -17.6886   17.5614 H   0  0  0  0  0  0
  -29.4377  -23.1812   22.6466 H   0  0  0  0  0  0
  -27.8463  -23.1799   21.9652 H   0  0  0  0  0  0
  -30.2061  -24.5836   20.5616 H   0  0  0  0  0  0
  -29.3269  -25.3103   21.8804 H   0  0  0  0  0  0
  -27.1952  -24.8988   20.4327 H   0  0  0  0  0  0
  -28.3051  -24.7774   19.0815 H   0  0  0  0  0  0
  -28.8853  -20.9399   22.5615 H   0  0  0  0  0  0
  1 25  1  0  0  0
  1 30  2  0  0  0
  1 83  1  0  0  0
  2  3  1  0  0  0
  2 25  1  0  0  0
  2 86  1  0  0  0
  2 87  1  0  0  0
  3  4  1  0  0  0
  3 88  1  0  0  0
  3 89  1  0  0  0
  4  5  1  0  0  0
  4 90  1  0  0  0
  4 91  1  0  0  0
  5  6  1  0  0  0
  5 26  1  0  0  0
  5 92  1  0  0  0
  6 25  1  0  0  0
  6 93  1  0  0  0
  6 94  1  0  0  0
  7  8  2  0  0  0
  7 26  1  0  0  0
  7 29  1  0  0  0
  8  9  1  0  0  0
  8 22  1  0  0  0
  9 10  1  0  0  0
  9 27  2  0  0  0
 10 11  2  0  0  0
 10 15  1  0  0  0
 11 12  1  0  0  0
 11 95  1  0  0  0
 12 13  2  0  0  0
 12 96  1  0  0  0
 13 14  1  0  0  0
 13 31  1  0  0  0
 14 15  2  0  0  0
 14 97  1  0  0  0
 15 98  1  0  0  0
 16 17  2  0  0  0
 16 21  1  0  0  0
 16 31  1  0  0  0
 17 18  1  0  0  0
 17 99  1  0  0  0
 18 19  2  0  0  0
 18100  1  0  0  0
 19 20  1  0  0  0
 19 24  1  0  0  0
 20 21  2  0  0  0
 20101  1  0  0  0
 21 23  1  0  0  0
 22 28  1  0  0  0
 22 32  2  0  0  0
 26 27  1  0  0  0
 28102  1  0  0  0
 28103  1  0  0  0
 29104  1  0  0  0
 29105  1  0  0  0
 33 34  1  0  0  0
 33 66  1  0  0  0
 33 70  2  0  0  0
 34 36  1  0  0  0
 34 59  1  0  0  0
 34106  1  0  0  0
 35 44  2  0  0  0
 35 45  1  0  0  0
 35 68  1  0  0  0
 36 56  1  0  0  0
 36107  1  0  0  0
 37 39  1  0  0  0
 37 47  1  0  0  0
 37 66  1  0  0  0
 37108  1  0  0  0
 38 43  2  0  0  0
 38 46  1  0  0  0
 38 47  1  0  0  0
 39 64  1  0  0  0
 39 67  2  0  0  0
 40 52  1  0  0  0
 40 53  2  0  0  0
 40 58  1  0  0  0
 41109  1  0  0  0
 41110  1  0  0  0
 41111  1  0  0  0
 41 48  1  0  0  0
 42 43  1  0  0  0
 42 66  1  0  0  0
 42112  1  0  0  0
 42113  1  0  0  0
 43 44  1  0  0  0
 44114  1  0  0  0
 45 46  2  0  0  0
 45115  1  0  0  0
 46116  1  0  0  0
 47117  1  0  0  0
 47118  1  0  0  0
 48 56  1  0  0  0
 48 65  1  0  0  0
 48119  1  0  0  0
 49 50  1  0  0  0
 49 53  1  0  0  0
 49 64  1  0  0  0
 49120  1  0  0  0
 50 51  1  0  0  0
 50121  1  0  0  0
 50122  1  0  0  0
 51 52  1  0  0  0
 51123  1  0  0  0
 51124  1  0  0  0
 52125  1  0  0  0
 52126  1  0  0  0
 53 54  1  0  0  0
 54 55  2  0  0  0
 54127  1  0  0  0
 55 57  1  0  0  0
 55128  1  0  0  0
 56 69  2  0  0  0
 57 58  2  0  0  0
 57129  1  0  0  0
 58130  1  0  0  0
 59 60  1  0  0  0
 59 61  1  0  0  0
 59 62  1  0  0  0
 60131  1  0  0  0
 60132  1  0  0  0
 60133  1  0  0  0
 61134  1  0  0  0
 61135  1  0  0  0
 61136  1  0  0  0
 62137  1  0  0  0
 62138  1  0  0  0
 62139  1  0  0  0
 63 65  1  0  0  0
 63140  1  0  0  0
 63141  1  0  0  0
 63142  1  0  0  0
 64143  1  0  0  0
 65144  1  0  0  0
 68 82  1  0  0  0
 71 73  2  0  0  0
 71 76  1  0  0  0
 71145  1  0  0  0
 72 74  1  0  0  0
 72 76  2  0  0  0
 72146  1  0  0  0
 73 75  1  0  0  0
 73 78  1  0  0  0
 74 75  2  0  0  0
 74 79  1  0  0  0
 75 83  1  0  0  0
 76 84  1  0  0  0
 77 80  1  0  0  0
 77 84  1  0  0  0
 77 85  2  0  0  0
 78 83  1  0  0  0
 78147  1  0  0  0
 78148  1  0  0  0
 79149  1  0  0  0
 79150  1  0  0  0
 79151  1  0  0  0
 80 81  1  0  0  0
 80152  1  0  0  0
 80153  1  0  0  0
 81 82  1  0  0  0
 81154  1  0  0  0
 81155  1  0  0  0
 82156  1  0  0  0
 82157  1  0  0  0
 84158  1  0  0  0
M  ISO  4   1 100  68 101  82 101  83 100
M  END
> <chiral flag>
0

> <version>
0

> <s_m_source_file>
/data/baiqing/PycharmProjects/Reinvent-master-3.2/result/LINK_invent/BTK/process_docking_weight1_custom_product_contain_oxygen_bond_distance_aromatic_linkinvent_7_9_3/rearranged_h_0147.sdf

> <i_m_source_file_index>
11

> <r_mmod_Potential_Energy-OPLS-2005>
408.471466064453

> <r_mmod_Stretch_Energy-OPLS-2005>
57.3062591552734

> <r_mmod_Bend_Energy-OPLS-2005>
523.665100097656

> <r_mmod_Torsional_Energy-OPLS-2005>
282.155944824219

> <r_mmod_Improper_Torsional_Energy-OPLS-2005>
13.6425590515137

> <r_mmod_Van_der_Waal_Energy-OPLS-2005>
145.339401245117

> <r_mmod_Electrostatic_Energy-OPLS-2005>
-410.608245849609

> <r_mmod_Solvation_Energy-OPLS-2005>
-219.499313354492

> <b_mmod_Minimization_Converged-OPLS-2005>
0

> <r_mmod_RMS_Derivative-OPLS-2005>
6.62208271026611

$$$$
11
                    3D
 Structure written by MMmdl.
166174  0  0  1  0            999 V2000
  -30.6893  -14.4495   20.5550 C   0  0  0  0  0  0
  -30.4243  -12.2810   19.4273 C   0  0  0  0  0  0
  -29.5060  -12.5123   18.2082 C   0  0  0  0  0  0
  -28.0198  -12.3933   18.6070 C   0  0  0  0  0  0
  -27.6656  -13.2087   19.8806 C   0  0  2  0  0  0
  -28.7041  -12.9604   21.0008 C   0  0  0  0  0  0
  -25.2582  -13.8168   20.5653 C   0  0  0  0  0  0
  -24.1830  -13.0441   20.9166 C   0  0  0  0  0  0
  -24.6389  -11.6917   20.8726 C   0  0  0  0  0  0
  -23.9041  -10.4302   21.0375 C   0  0  0  0  0  0
  -24.3608   -9.4231   21.9151 C   0  0  0  0  0  0
  -23.6312   -8.2244   22.0726 C   0  0  0  0  0  0
  -22.4291   -8.0261   21.3520 C   0  0  0  0  0  0
  -21.9910   -9.0223   20.4617 C   0  0  0  0  0  0
  -22.7218  -10.2119   20.3024 C   0  0  0  0  0  0
  -21.6851   -6.0728   22.5272 C   0  0  0  0  0  0
  -21.3995   -6.5624   23.8209 C   0  0  0  0  0  0
  -21.3679   -5.6781   24.9176 C   0  0  0  0  0  0
  -21.6057   -4.3045   24.7222 C   0  0  0  0  0  0
  -21.8818   -3.8132   23.4349 C   0  0  0  0  0  0
  -21.9193   -4.6948   22.3403 C   0  0  0  0  0  0
  -22.7867  -13.5212   21.1868 C   0  0  0  0  0  0
  -22.1653   -4.2134   21.0986 F   0  0  0  0  0  0
  -21.5663   -3.4532   25.7742 F   0  0  0  0  0  0
  -30.0430  -13.2564   20.4620 N   0  0  0  0  0  0
  -26.3035  -12.9353   20.3362 N   0  0  0  0  0  0
  -25.9313  -11.6507   20.5730 N   0  0  0  0  0  0
  -22.0493  -12.8205   22.0431 N   0  0  0  0  0  0
  -25.4291  -15.1894   20.4078 N   0  0  0  0  0  0
  -31.8093  -14.6479   20.0738 O   0  0  0  0  0  0
  -21.6645   -6.8875   21.4237 O   0  0  0  0  0  0
  -22.3542  -14.5515   20.6736 O   0  0  0  0  0  0
  -24.6142  -31.8685   23.2108 C   0  0  0  0  0  0
  -25.9035  -32.4831   23.8407 C   0  0  1  0  0  0
  -27.2416  -27.4484   20.0919 C   0  0  0  0  0  0
  -25.5887  -33.8629   24.2330 N   0  0  0  0  0  0
  -23.4045  -30.4910   21.5484 C   0  0  2  0  0  0
  -24.8542  -28.9565   20.1166 C   0  0  0  0  0  0
  -22.7422  -29.4656   22.4978 C   0  0  0  0  0  0
  -18.0274  -28.1379   22.8487 C   0  0  0  0  0  0
  -24.1478  -36.7319   23.2642 C   0  0  0  0  0  0
  -25.9307  -30.8371   21.3640 C   0  0  0  0  0  0
  -26.0120  -29.4697   20.7171 C   0  0  0  0  0  0
  -27.2106  -28.7196   20.7117 C   0  0  0  0  0  0
  -26.0749  -26.9516   19.4817 C   0  0  0  0  0  0
  -24.8785  -27.6943   19.4983 C   0  0  0  0  0  0
  -23.6146  -29.8211   20.1639 C   0  0  0  0  0  0
  -25.4101  -36.3123   24.0341 C   0  0  1  0  0  0
  -20.5869  -28.3666   23.1307 C   0  0  2  0  0  0
  -20.6750  -26.9400   22.5415 C   0  0  0  0  0  0
  -19.5740  -26.6378   21.5201 C   0  0  0  0  0  0
  -18.1916  -26.7926   22.1604 C   0  0  0  0  0  0
  -19.1521  -28.8838   23.2904 C   0  0  0  0  0  0
  -18.9451  -30.1434   23.8921 C   0  0  0  0  0  0
  -17.6460  -30.6586   24.0562 C   0  0  0  0  0  0
  -25.9030  -34.9485   23.5137 C   0  0  0  0  0  0
  -16.5344  -29.9089   23.6323 C   0  0  0  0  0  0
  -16.7260  -28.6503   23.0340 C   0  0  0  0  0  0
  -26.4462  -31.6608   25.0730 C   0  0  0  0  0  0
  -25.3729  -31.3684   26.1475 C   0  0  0  0  0  0
  -27.0299  -30.3064   24.6081 C   0  0  0  0  0  0
  -27.6035  -32.4329   25.7498 C   0  0  0  0  0  0
  -27.5575  -37.1821   24.8462 C   0  0  0  0  0  0
  -21.4152  -29.3041   22.3712 N   0  0  0  0  0  0
  -26.4286  -37.3809   23.9408 N   0  0  0  0  0  0
  -24.6677  -31.0789   22.1005 N   0  0  0  0  0  0
  -23.4190  -28.8202   23.3030 O   0  0  0  0  0  0
  -28.3749  -26.6717   20.0312 O   0  0  0  0  0  0
  -26.5597  -34.8935   22.4700 O   0  0  0  0  0  0
  -23.5336  -32.1424   23.7508 O   0  0  0  0  0  0
  -29.7204  -16.9176   19.1240 C   0  0  0  0  0  0
  -29.7619  -16.7205   20.4825 C   0  0  0  0  0  0
  -29.2037  -18.9407   20.4472 C   0  0  0  0  0  0
  -29.8826  -22.6066   21.8102 C   0  0  0  0  0  0
  -26.8875  -21.4329   22.2791 C   0  0  0  0  0  0
  -31.1307  -20.4602   22.2464 C   0  0  0  0  0  0
  -31.0104  -21.3634   19.9285 C   0  0  0  0  0  0
  -29.2835  -23.7000   20.8997 C   0  0  0  0  0  0
  -27.8389  -20.2383   22.1016 C   0  0  0  0  0  0
  -29.9065  -25.1077   21.1300 C   0  0  0  0  0  0
  -28.9015  -26.2698   21.2916 C   0  0  0  0  0  0
  -28.9007  -20.3352   20.9657 C   0  0  1  0  0  0
  -30.1979  -21.1909   21.2409 C   0  0  0  0  0  0
  -29.4671  -17.8730   21.2238 N   0  0  0  0  0  0
  -29.9722  -15.4535   21.0928 N   0  0  0  0  0  0
  -30.0845  -22.8626   23.0012 O   0  0  0  0  0  0
  -29.2796  -18.5574   18.7267 S   0  0  0  0  0  0
  -31.4711  -12.3711   19.1331 H   0  0  0  0  0  0
  -30.3115  -11.2627   19.8024 H   0  0  0  0  0  0
  -29.7448  -11.7998   17.4184 H   0  0  0  0  0  0
  -29.6988  -13.5018   17.7920 H   0  0  0  0  0  0
  -27.8068  -11.3369   18.7716 H   0  0  0  0  0  0
  -27.3853  -12.7047   17.7755 H   0  0  0  0  0  0
  -27.7172  -14.2641   19.6146 H   0  0  0  0  0  0
  -28.6649  -11.9169   21.3171 H   0  0  0  0  0  0
  -28.4713  -13.5442   21.8924 H   0  0  0  0  0  0
  -25.2740   -9.5728   22.4742 H   0  0  0  0  0  0
  -24.0021   -7.4636   22.7441 H   0  0  0  0  0  0
  -21.0833   -8.8724   19.8928 H   0  0  0  0  0  0
  -22.3639  -10.9652   19.6143 H   0  0  0  0  0  0
  -21.1951   -7.6127   23.9717 H   0  0  0  0  0  0
  -21.1518   -6.0505   25.9090 H   0  0  0  0  0  0
  -22.0590   -2.7586   23.2849 H   0  0  0  0  0  0
  -22.4029  -11.9851   22.4833 H   0  0  0  0  0  0
  -21.1094  -13.1198   22.2580 H   0  0  0  0  0  0
  -24.6631  -15.8455   20.5160 H   0  0  0  0  0  0
  -26.2854  -15.6289   20.0999 H   0  0  0  0  0  0
  -26.7117  -32.5552   23.1187 H   0  0  0  0  0  0
  -25.0030  -33.9790   25.0469 H   0  0  0  0  0  0
  -22.6951  -31.3089   21.4059 H   0  0  0  0  0  0
  -23.3745  -35.9650   23.3317 H   0  0  0  0  0  0
  -24.3581  -36.8922   22.2057 H   0  0  0  0  0  0
  -23.7220  -37.6523   23.6645 H   0  0  0  0  0  0
  -26.0374  -31.6049   20.5965 H   0  0  0  0  0  0
  -26.8208  -30.8964   21.9791 H   0  0  0  0  0  0
  -28.1081  -29.1180   21.1630 H   0  0  0  0  0  0
  -26.0944  -25.9854   18.9976 H   0  0  0  0  0  0
  -23.9909  -27.2930   19.0288 H   0  0  0  0  0  0
  -23.7250  -30.5940   19.4024 H   0  0  0  0  0  0
  -22.7408  -29.2396   19.8641 H   0  0  0  0  0  0
  -25.1280  -36.1995   25.0835 H   0  0  0  0  0  0
  -20.9962  -28.3220   24.1426 H   0  0  0  0  0  0
  -20.5610  -26.2290   23.3612 H   0  0  0  0  0  0
  -21.6626  -26.7419   22.1230 H   0  0  0  0  0  0
  -19.6897  -25.6287   21.1233 H   0  0  0  0  0  0
  -19.6685  -27.3186   20.6730 H   0  0  0  0  0  0
  -17.4197  -26.6702   21.3994 H   0  0  0  0  0  0
  -18.0306  -26.0047   22.8979 H   0  0  0  0  0  0
  -19.7938  -30.7232   24.2313 H   0  0  0  0  0  0
  -17.5021  -31.6268   24.5157 H   0  0  0  0  0  0
  -15.5351  -30.2997   23.7632 H   0  0  0  0  0  0
  -15.8662  -28.0825   22.7050 H   0  0  0  0  0  0
  -24.5921  -30.7015   25.7793 H   0  0  0  0  0  0
  -24.8902  -32.2830   26.4939 H   0  0  0  0  0  0
  -25.8095  -30.8841   27.0223 H   0  0  0  0  0  0
  -26.2837  -29.6833   24.1138 H   0  0  0  0  0  0
  -27.4088  -29.7285   25.4520 H   0  0  0  0  0  0
  -27.8662  -30.4404   23.9216 H   0  0  0  0  0  0
  -27.2643  -33.3609   26.2116 H   0  0  0  0  0  0
  -28.3828  -32.6928   25.0318 H   0  0  0  0  0  0
  -28.0725  -31.8434   26.5386 H   0  0  0  0  0  0
  -28.2601  -38.0111   24.7516 H   0  0  0  0  0  0
  -28.1064  -36.2651   24.6277 H   0  0  0  0  0  0
  -27.2307  -37.1455   25.8868 H   0  0  0  0  0  0
  -20.9304  -29.8798   21.6970 H   0  0  0  0  0  0
  -26.0180  -38.2891   24.1414 H   0  0  0  0  0  0
  -29.8911  -16.2037   18.3281 H   0  0  0  0  0  0
  -26.0561  -21.1557   22.9277 H   0  0  0  0  0  0
  -26.4645  -21.7488   21.3259 H   0  0  0  0  0  0
  -27.3635  -22.2921   22.7457 H   0  0  0  0  0  0
  -32.0067  -21.0619   22.4929 H   0  0  0  0  0  0
  -31.5057  -19.5169   21.8504 H   0  0  0  0  0  0
  -30.6141  -20.2352   23.1799 H   0  0  0  0  0  0
  -31.7636  -22.1493   20.0100 H   0  0  0  0  0  0
  -30.3711  -21.6151   19.0804 H   0  0  0  0  0  0
  -31.5376  -20.4477   19.6570 H   0  0  0  0  0  0
  -28.2144  -23.7337   21.1091 H   0  0  0  0  0  0
  -29.3714  -23.4264   19.8502 H   0  0  0  0  0  0
  -27.1850  -19.3968   21.8672 H   0  0  0  0  0  0
  -28.3083  -19.9746   23.0501 H   0  0  0  0  0  0
  -30.6060  -25.3298   20.3227 H   0  0  0  0  0  0
  -30.5214  -25.1069   22.0306 H   0  0  0  0  0  0
  -29.4128  -27.1209   21.7429 H   0  0  0  0  0  0
  -28.0990  -25.9828   21.9749 H   0  0  0  0  0  0
  -28.3813  -20.8297   20.1416 H   0  0  0  0  0  0
  -29.2573  -15.1755   21.7470 H   0  0  0  0  0  0
  1 25  1  0  0  0
  1 30  2  0  0  0
  1 85  1  0  0  0
  2  3  1  0  0  0
  2 25  1  0  0  0
  2 88  1  0  0  0
  2 89  1  0  0  0
  3  4  1  0  0  0
  3 90  1  0  0  0
  3 91  1  0  0  0
  4  5  1  0  0  0
  4 92  1  0  0  0
  4 93  1  0  0  0
  5  6  1  0  0  0
  5 26  1  0  0  0
  5 94  1  0  0  0
  6 25  1  0  0  0
  6 95  1  0  0  0
  6 96  1  0  0  0
  7  8  2  0  0  0
  7 26  1  0  0  0
  7 29  1  0  0  0
  8  9  1  0  0  0
  8 22  1  0  0  0
  9 10  1  0  0  0
  9 27  2  0  0  0
 10 11  2  0  0  0
 10 15  1  0  0  0
 11 12  1  0  0  0
 11 97  1  0  0  0
 12 13  2  0  0  0
 12 98  1  0  0  0
 13 14  1  0  0  0
 13 31  1  0  0  0
 14 15  2  0  0  0
 14 99  1  0  0  0
 15100  1  0  0  0
 16 17  2  0  0  0
 16 21  1  0  0  0
 16 31  1  0  0  0
 17 18  1  0  0  0
 17101  1  0  0  0
 18 19  2  0  0  0
 18102  1  0  0  0
 19 20  1  0  0  0
 19 24  1  0  0  0
 20 21  2  0  0  0
 20103  1  0  0  0
 21 23  1  0  0  0
 22 28  1  0  0  0
 22 32  2  0  0  0
 26 27  1  0  0  0
 28104  1  0  0  0
 28105  1  0  0  0
 29106  1  0  0  0
 29107  1  0  0  0
 33 34  1  0  0  0
 33 66  1  0  0  0
 33 70  2  0  0  0
 34 36  1  0  0  0
 34 59  1  0  0  0
 34108  1  0  0  0
 35 44  2  0  0  0
 35 45  1  0  0  0
 35 68  1  0  0  0
 36 56  1  0  0  0
 36109  1  0  0  0
 37 39  1  0  0  0
 37 47  1  0  0  0
 37 66  1  0  0  0
 37110  1  0  0  0
 38 43  2  0  0  0
 38 46  1  0  0  0
 38 47  1  0  0  0
 39 64  1  0  0  0
 39 67  2  0  0  0
 40 52  1  0  0  0
 40 53  2  0  0  0
 40 58  1  0  0  0
 41111  1  0  0  0
 41112  1  0  0  0
 41113  1  0  0  0
 41 48  1  0  0  0
 42 43  1  0  0  0
 42 66  1  0  0  0
 42114  1  0  0  0
 42115  1  0  0  0
 43 44  1  0  0  0
 44116  1  0  0  0
 45 46  2  0  0  0
 45117  1  0  0  0
 46118  1  0  0  0
 47119  1  0  0  0
 47120  1  0  0  0
 48 56  1  0  0  0
 48 65  1  0  0  0
 48121  1  0  0  0
 49 50  1  0  0  0
 49 53  1  0  0  0
 49 64  1  0  0  0
 49122  1  0  0  0
 50 51  1  0  0  0
 50123  1  0  0  0
 50124  1  0  0  0
 51 52  1  0  0  0
 51125  1  0  0  0
 51126  1  0  0  0
 52127  1  0  0  0
 52128  1  0  0  0
 53 54  1  0  0  0
 54 55  2  0  0  0
 54129  1  0  0  0
 55 57  1  0  0  0
 55130  1  0  0  0
 56 69  2  0  0  0
 57 58  2  0  0  0
 57131  1  0  0  0
 58132  1  0  0  0
 59 60  1  0  0  0
 59 61  1  0  0  0
 59 62  1  0  0  0
 60133  1  0  0  0
 60134  1  0  0  0
 60135  1  0  0  0
 61136  1  0  0  0
 61137  1  0  0  0
 61138  1  0  0  0
 62139  1  0  0  0
 62140  1  0  0  0
 62141  1  0  0  0
 63 65  1  0  0  0
 63142  1  0  0  0
 63143  1  0  0  0
 63144  1  0  0  0
 64145  1  0  0  0
 65146  1  0  0  0
 68 81  1  0  0  0
 71 72  2  0  0  0
 71 87  1  0  0  0
 71147  1  0  0  0
 72 84  1  0  0  0
 72 85  1  0  0  0
 73 82  1  0  0  0
 73 84  2  0  0  0
 73 87  1  0  0  0
 74 78  1  0  0  0
 74 83  1  0  0  0
 74 86  2  0  0  0
 75 79  1  0  0  0
 75148  1  0  0  0
 75149  1  0  0  0
 75150  1  0  0  0
 76151  1  0  0  0
 76152  1  0  0  0
 76153  1  0  0  0
 76 83  1  0  0  0
 77 83  1  0  0  0
 77154  1  0  0  0
 77155  1  0  0  0
 77156  1  0  0  0
 78 80  1  0  0  0
 78157  1  0  0  0
 78158  1  0  0  0
 79159  1  0  0  0
 79160  1  0  0  0
 79 82  1  0  0  0
 80 81  1  0  0  0
 80161  1  0  0  0
 80162  1  0  0  0
 81163  1  0  0  0
 81164  1  0  0  0
 82 83  1  0  0  0
 82165  1  0  0  0
 85166  1  0  0  0
M  ISO  4   1 100  68 101  81 101  85 100
M  END
> <chiral flag>
0

> <version>
0

> <s_m_source_file>
/data/baiqing/PycharmProjects/Reinvent-master-3.2/result/LINK_invent/BTK/process_docking_weight1_custom_product_contain_oxygen_bond_distance_aromatic_linkinvent_7_9_3/rearranged_h_0147.sdf

> <i_m_source_file_index>
12

> <r_mmod_Potential_Energy-OPLS-2005>
-48.8332710266113

> <r_mmod_Stretch_Energy-OPLS-2005>
40.7617263793945

> <r_mmod_Bend_Energy-OPLS-2005>
110.46223449707

> <r_mmod_Torsional_Energy-OPLS-2005>
257.225341796875

> <r_mmod_Improper_Torsional_Energy-OPLS-2005>
5.23608350753784

> <r_mmod_Van_der_Waal_Energy-OPLS-2005>
134.036758422852

> <r_mmod_Electrostatic_Energy-OPLS-2005>
-392.800445556641

> <r_mmod_Solvation_Energy-OPLS-2005>
-214.010025024414

> <b_mmod_Minimization_Converged-OPLS-2005>
0

> <r_mmod_RMS_Derivative-OPLS-2005>
3.00589871406555

$$$$
12
                    3D
 Structure written by MMmdl.
155164  0  0  1  0            999 V2000
  -30.5402  -14.7558   20.5055 C   0  0  0  0  0  0
  -30.4558  -12.4606   19.4797 C   0  0  0  0  0  0
  -29.5255  -12.5284   18.2443 C   0  0  0  0  0  0
  -28.0501  -12.3373   18.6524 C   0  0  0  0  0  0
  -27.6535  -13.2169   19.8673 C   0  0  2  0  0  0
  -28.6936  -13.0883   21.0018 C   0  0  0  0  0  0
  -25.2576  -13.8154   20.5713 C   0  0  0  0  0  0
  -24.1832  -13.0427   20.9170 C   0  0  0  0  0  0
  -24.6383  -11.6886   20.8700 C   0  0  0  0  0  0
  -23.9048  -10.4286   21.0412 C   0  0  0  0  0  0
  -24.3599   -9.4200   21.9191 C   0  0  0  0  0  0
  -23.6272   -8.2238   22.0760 C   0  0  0  0  0  0
  -22.4259   -8.0281   21.3536 C   0  0  0  0  0  0
  -21.9886   -9.0265   20.4655 C   0  0  0  0  0  0
  -22.7216  -10.2138   20.3066 C   0  0  0  0  0  0
  -21.6841   -6.0723   22.5265 C   0  0  0  0  0  0
  -21.4026   -6.5628   23.8204 C   0  0  0  0  0  0
  -21.3660   -5.6776   24.9159 C   0  0  0  0  0  0
  -21.6054   -4.3045   24.7214 C   0  0  0  0  0  0
  -21.8817   -3.8130   23.4332 C   0  0  0  0  0  0
  -21.9203   -4.6949   22.3383 C   0  0  0  0  0  0
  -22.7870  -13.5246   21.1835 C   0  0  0  0  0  0
  -22.1668   -4.2117   21.0960 F   0  0  0  0  0  0
  -21.5608   -3.4532   25.7726 F   0  0  0  0  0  0
  -30.0014  -13.4843   20.4481 N   0  0  0  0  0  0
  -26.2996  -12.9325   20.3325 N   0  0  0  0  0  0
  -25.9317  -11.6473   20.5729 N   0  0  0  0  0  0
  -22.0497  -12.8259   22.0391 N   0  0  0  0  0  0
  -25.4313  -15.1879   20.4219 N   0  0  0  0  0  0
  -31.6851  -14.9709   20.0924 O   0  0  0  0  0  0
  -21.6624   -6.8878   21.4238 O   0  0  0  0  0  0
  -22.3588  -14.5577   20.6701 O   0  0  0  0  0  0
  -24.6352  -31.8524   23.1954 C   0  0  0  0  0  0
  -25.9158  -32.4741   23.8323 C   0  0  1  0  0  0
  -27.2186  -27.2276   20.1321 C   0  0  0  0  0  0
  -25.5934  -33.8544   24.2243 N   0  0  0  0  0  0
  -23.4370  -30.4773   21.5354 C   0  0  2  0  0  0
  -24.8857  -28.9277   20.1045 C   0  0  0  0  0  0
  -22.7543  -29.4589   22.4814 C   0  0  0  0  0  0
  -18.0314  -28.1405   22.8462 C   0  0  0  0  0  0
  -24.1494  -36.7295   23.2628 C   0  0  0  0  0  0
  -25.9877  -30.7572   21.3807 C   0  0  0  0  0  0
  -26.0604  -29.3773   20.7222 C   0  0  0  0  0  0
  -27.2292  -28.5419   20.7265 C   0  0  0  0  0  0
  -26.0199  -26.8707   19.4674 C   0  0  0  0  0  0
  -24.8733  -27.6844   19.4635 C   0  0  0  0  0  0
  -23.6625  -29.8210   20.1499 C   0  0  0  0  0  0
  -25.4109  -36.3053   24.0312 C   0  0  1  0  0  0
  -20.5927  -28.3722   23.1225 C   0  0  2  0  0  0
  -20.6797  -26.9425   22.5388 C   0  0  0  0  0  0
  -19.5771  -26.6391   21.5189 C   0  0  0  0  0  0
  -18.1955  -26.7941   22.1610 C   0  0  0  0  0  0
  -19.1573  -28.8871   23.2848 C   0  0  0  0  0  0
  -18.9482  -30.1459   23.8898 C   0  0  0  0  0  0
  -17.6479  -30.6580   24.0577 C   0  0  0  0  0  0
  -25.9062  -34.9431   23.5082 C   0  0  0  0  0  0
  -16.5372  -29.9085   23.6329 C   0  0  0  0  0  0
  -16.7300  -28.6509   23.0336 C   0  0  0  0  0  0
  -26.4507  -31.6553   25.0713 C   0  0  0  0  0  0
  -25.3721  -31.3749   26.1431 C   0  0  0  0  0  0
  -27.0305  -30.2940   24.6214 C   0  0  0  0  0  0
  -27.6074  -32.4275   25.7473 C   0  0  0  0  0  0
  -27.5588  -37.1792   24.8438 C   0  0  0  0  0  0
  -21.4235  -29.3063   22.3592 N   0  0  0  0  0  0
  -26.4276  -37.3759   23.9418 N   0  0  0  0  0  0
  -24.7063  -31.0481   22.0932 N   0  0  0  0  0  0
  -23.4225  -28.8119   23.2918 O   0  0  0  0  0  0
  -28.2784  -26.2775   20.2171 O   0  0  0  0  0  0
  -26.5633  -34.8910   22.4653 O   0  0  0  0  0  0
  -23.5492  -32.1341   23.7231 O   0  0  0  0  0  0
  -30.0523  -18.3148   20.4474 C   0  0  0  0  0  0
  -28.1532  -19.3069   21.3487 C   0  0  0  0  0  0
  -29.3185  -19.5958   20.6851 C   0  0  0  0  0  0
  -29.4471  -17.1263   20.9181 C   0  0  0  0  0  0
  -29.7379  -23.4043   21.3575 C   0  0  0  0  0  0
  -28.8269  -23.5489   20.3840 C   0  0  0  0  0  0
  -30.2475  -21.9598   21.5231 C   0  0  0  0  0  0
  -28.6010  -22.1299   19.7629 C   0  0  0  0  0  0
  -29.6949  -21.1066   20.3362 C   0  0  2  0  0  0
  -30.2210  -24.4713   22.3223 C   0  0  0  0  0  0
  -27.9382  -24.8192   19.9681 C   0  0  0  0  0  0
  -29.6705  -15.7329   20.9587 N   0  0  0  0  0  0
  -27.9394  -17.6039   21.6726 S   0  0  0  0  0  0
  -31.4961  -12.6121   19.1852 H   0  0  0  0  0  0
  -30.4144  -11.4691   19.9337 H   0  0  0  0  0  0
  -29.8083  -11.7666   17.5171 H   0  0  0  0  0  0
  -29.6503  -13.4904   17.7430 H   0  0  0  0  0  0
  -27.9111  -11.2856   18.9043 H   0  0  0  0  0  0
  -27.3965  -12.5392   17.8034 H   0  0  0  0  0  0
  -27.6648  -14.2484   19.5155 H   0  0  0  0  0  0
  -28.7273  -12.0633   21.3701 H   0  0  0  0  0  0
  -28.4104  -13.6950   21.8640 H   0  0  0  0  0  0
  -25.2757   -9.5660   22.4760 H   0  0  0  0  0  0
  -23.9956   -7.4644   22.7507 H   0  0  0  0  0  0
  -21.0783   -8.8832   19.8992 H   0  0  0  0  0  0
  -22.3696  -10.9695   19.6177 H   0  0  0  0  0  0
  -21.2023   -7.6130   23.9695 H   0  0  0  0  0  0
  -21.1486   -6.0502   25.9058 H   0  0  0  0  0  0
  -22.0593   -2.7581   23.2846 H   0  0  0  0  0  0
  -22.4089  -11.9899   22.4755 H   0  0  0  0  0  0
  -21.1163  -13.1384   22.2653 H   0  0  0  0  0  0
  -24.6746  -15.8469   20.5714 H   0  0  0  0  0  0
  -26.2812  -15.6338   20.0997 H   0  0  0  0  0  0
  -26.7226  -32.5385   23.1069 H   0  0  0  0  0  0
  -25.0034  -33.9660   25.0356 H   0  0  0  0  0  0
  -22.7349  -31.2995   21.3882 H   0  0  0  0  0  0
  -23.3734  -35.9644   23.3240 H   0  0  0  0  0  0
  -24.3613  -36.8973   22.2057 H   0  0  0  0  0  0
  -23.7265  -37.6488   23.6689 H   0  0  0  0  0  0
  -26.1310  -31.5149   20.6082 H   0  0  0  0  0  0
  -26.8641  -30.8089   22.0163 H   0  0  0  0  0  0
  -28.1253  -28.8798   21.2300 H   0  0  0  0  0  0
  -25.9248  -25.9300   18.9478 H   0  0  0  0  0  0
  -23.9794  -27.3395   18.9621 H   0  0  0  0  0  0
  -23.8075  -30.6023   19.4041 H   0  0  0  0  0  0
  -22.7806  -29.2676   19.8256 H   0  0  0  0  0  0
  -25.1283  -36.1881   25.0795 H   0  0  0  0  0  0
  -21.0042  -28.3312   24.1334 H   0  0  0  0  0  0
  -20.5677  -26.2327   23.3595 H   0  0  0  0  0  0
  -21.6667  -26.7410   22.1209 H   0  0  0  0  0  0
  -19.6936  -25.6297   21.1220 H   0  0  0  0  0  0
  -19.6718  -27.3195   20.6713 H   0  0  0  0  0  0
  -17.4219  -26.6665   21.4026 H   0  0  0  0  0  0
  -18.0374  -26.0092   22.9016 H   0  0  0  0  0  0
  -19.7953  -30.7271   24.2285 H   0  0  0  0  0  0
  -17.5026  -31.6258   24.5193 H   0  0  0  0  0  0
  -15.5372  -30.2991   23.7633 H   0  0  0  0  0  0
  -15.8703  -28.0829   22.7040 H   0  0  0  0  0  0
  -24.5897  -30.7089   25.7771 H   0  0  0  0  0  0
  -24.8925  -32.2943   26.4799 H   0  0  0  0  0  0
  -25.8038  -30.8970   27.0232 H   0  0  0  0  0  0
  -26.2861  -29.6708   24.1249 H   0  0  0  0  0  0
  -27.3940  -29.7198   25.4741 H   0  0  0  0  0  0
  -27.8772  -30.4146   23.9457 H   0  0  0  0  0  0
  -27.2692  -33.3572   26.2049 H   0  0  0  0  0  0
  -28.3883  -32.6829   25.0300 H   0  0  0  0  0  0
  -28.0725  -31.8392   26.5389 H   0  0  0  0  0  0
  -28.2546  -38.0146   24.7529 H   0  0  0  0  0  0
  -28.1144  -36.2682   24.6172 H   0  0  0  0  0  0
  -27.2344  -37.1325   25.8848 H   0  0  0  0  0  0
  -20.9402  -29.8782   21.6805 H   0  0  0  0  0  0
  -26.0136  -38.2811   24.1467 H   0  0  0  0  0  0
  -31.0061  -18.3224   19.9347 H   0  0  0  0  0  0
  -27.3904  -20.0005   21.6876 H   0  0  0  0  0  0
  -29.8566  -21.5855   22.4703 H   0  0  0  0  0  0
  -31.3360  -21.9165   21.5771 H   0  0  0  0  0  0
  -28.6414  -22.1720   18.6735 H   0  0  0  0  0  0
  -27.5945  -21.8058   20.0285 H   0  0  0  0  0  0
  -30.4904  -21.0745   19.5878 H   0  0  0  0  0  0
  -29.7281  -25.4290   22.1507 H   0  0  0  0  0  0
  -31.2979  -24.6188   22.2239 H   0  0  0  0  0  0
  -30.0121  -24.1741   23.3507 H   0  0  0  0  0  0
  -26.9812  -24.6165   20.4532 H   0  0  0  0  0  0
  -27.7715  -24.7129   18.8967 H   0  0  0  0  0  0
  -28.8711  -15.2591   21.3541 H   0  0  0  0  0  0
  1 25  1  0  0  0
  1 30  2  0  0  0
  1 82  1  0  0  0
  2  3  1  0  0  0
  2 25  1  0  0  0
  2 84  1  0  0  0
  2 85  1  0  0  0
  3  4  1  0  0  0
  3 86  1  0  0  0
  3 87  1  0  0  0
  4  5  1  0  0  0
  4 88  1  0  0  0
  4 89  1  0  0  0
  5  6  1  0  0  0
  5 26  1  0  0  0
  5 90  1  0  0  0
  6 25  1  0  0  0
  6 91  1  0  0  0
  6 92  1  0  0  0
  7  8  2  0  0  0
  7 26  1  0  0  0
  7 29  1  0  0  0
  8  9  1  0  0  0
  8 22  1  0  0  0
  9 10  1  0  0  0
  9 27  2  0  0  0
 10 11  2  0  0  0
 10 15  1  0  0  0
 11 12  1  0  0  0
 11 93  1  0  0  0
 12 13  2  0  0  0
 12 94  1  0  0  0
 13 14  1  0  0  0
 13 31  1  0  0  0
 14 15  2  0  0  0
 14 95  1  0  0  0
 15 96  1  0  0  0
 16 17  2  0  0  0
 16 21  1  0  0  0
 16 31  1  0  0  0
 17 18  1  0  0  0
 17 97  1  0  0  0
 18 19  2  0  0  0
 18 98  1  0  0  0
 19 20  1  0  0  0
 19 24  1  0  0  0
 20 21  2  0  0  0
 20 99  1  0  0  0
 21 23  1  0  0  0
 22 28  1  0  0  0
 22 32  2  0  0  0
 26 27  1  0  0  0
 28100  1  0  0  0
 28101  1  0  0  0
 29102  1  0  0  0
 29103  1  0  0  0
 33 34  1  0  0  0
 33 66  1  0  0  0
 33 70  2  0  0  0
 34 36  1  0  0  0
 34 59  1  0  0  0
 34104  1  0  0  0
 35 44  2  0  0  0
 35 45  1  0  0  0
 35 68  1  0  0  0
 36 56  1  0  0  0
 36105  1  0  0  0
 37 39  1  0  0  0
 37 47  1  0  0  0
 37 66  1  0  0  0
 37106  1  0  0  0
 38 43  2  0  0  0
 38 46  1  0  0  0
 38 47  1  0  0  0
 39 64  1  0  0  0
 39 67  2  0  0  0
 40 52  1  0  0  0
 40 53  2  0  0  0
 40 58  1  0  0  0
 41107  1  0  0  0
 41108  1  0  0  0
 41109  1  0  0  0
 41 48  1  0  0  0
 42 43  1  0  0  0
 42 66  1  0  0  0
 42110  1  0  0  0
 42111  1  0  0  0
 43 44  1  0  0  0
 44112  1  0  0  0
 45 46  2  0  0  0
 45113  1  0  0  0
 46114  1  0  0  0
 47115  1  0  0  0
 47116  1  0  0  0
 48 56  1  0  0  0
 48 65  1  0  0  0
 48117  1  0  0  0
 49 50  1  0  0  0
 49 53  1  0  0  0
 49 64  1  0  0  0
 49118  1  0  0  0
 50 51  1  0  0  0
 50119  1  0  0  0
 50120  1  0  0  0
 51 52  1  0  0  0
 51121  1  0  0  0
 51122  1  0  0  0
 52123  1  0  0  0
 52124  1  0  0  0
 53 54  1  0  0  0
 54 55  2  0  0  0
 54125  1  0  0  0
 55 57  1  0  0  0
 55126  1  0  0  0
 56 69  2  0  0  0
 57 58  2  0  0  0
 57127  1  0  0  0
 58128  1  0  0  0
 59 60  1  0  0  0
 59 61  1  0  0  0
 59 62  1  0  0  0
 60129  1  0  0  0
 60130  1  0  0  0
 60131  1  0  0  0
 61132  1  0  0  0
 61133  1  0  0  0
 61134  1  0  0  0
 62135  1  0  0  0
 62136  1  0  0  0
 62137  1  0  0  0
 63 65  1  0  0  0
 63138  1  0  0  0
 63139  1  0  0  0
 63140  1  0  0  0
 64141  1  0  0  0
 65142  1  0  0  0
 68 81  1  0  0  0
 71 73  1  0  0  0
 71 74  2  0  0  0
 71143  1  0  0  0
 72 73  2  0  0  0
 72 83  1  0  0  0
 72144  1  0  0  0
 73 79  1  0  0  0
 74 82  1  0  0  0
 74 83  1  0  0  0
 75 76  2  0  0  0
 75 77  1  0  0  0
 75 80  1  0  0  0
 76 78  1  0  0  0
 76 81  1  0  0  0
 77 79  1  0  0  0
 77145  1  0  0  0
 77146  1  0  0  0
 78 79  1  0  0  0
 78147  1  0  0  0
 78148  1  0  0  0
 79149  1  0  0  0
 80150  1  0  0  0
 80151  1  0  0  0
 80152  1  0  0  0
 81153  1  0  0  0
 81154  1  0  0  0
 82155  1  0  0  0
M  ISO  4   1 100  68 101  81 101  82 100
M  END
> <chiral flag>
0

> <version>
0

> <s_m_source_file>
/data/baiqing/PycharmProjects/Reinvent-master-3.2/result/LINK_invent/BTK/process_docking_weight1_custom_product_contain_oxygen_bond_distance_aromatic_linkinvent_7_9_3/rearranged_h_0147.sdf

> <i_m_source_file_index>
13

> <r_mmod_Potential_Energy-OPLS-2005>
251.659255981445

> <r_mmod_Stretch_Energy-OPLS-2005>
128.594375610352

> <r_mmod_Bend_Energy-OPLS-2005>
269.412780761719

> <r_mmod_Torsional_Energy-OPLS-2005>
215.400466918945

> <r_mmod_Improper_Torsional_Energy-OPLS-2005>
3.22276377677917

> <r_mmod_Van_der_Waal_Energy-OPLS-2005>
113.115653991699

> <r_mmod_Electrostatic_Energy-OPLS-2005>
-381.47509765625

> <r_mmod_Solvation_Energy-OPLS-2005>
-200.150573730469

> <b_mmod_Minimization_Converged-OPLS-2005>
0

> <r_mmod_RMS_Derivative-OPLS-2005>
3.67729258537292

$$$$
13
                    3D
 Structure written by MMmdl.
157166  0  0  1  0            999 V2000
  -30.6023  -14.8191   20.4608 C   0  0  0  0  0  0
  -30.4363  -12.5096   19.4804 C   0  0  0  0  0  0
  -29.5161  -12.5216   18.2402 C   0  0  0  0  0  0
  -28.0431  -12.3362   18.6532 C   0  0  0  0  0  0
  -27.6370  -13.2425   19.8460 C   0  0  2  0  0  0
  -28.6835  -13.2148   20.9817 C   0  0  0  0  0  0
  -25.2487  -13.8206   20.5692 C   0  0  0  0  0  0
  -24.1797  -13.0432   20.9221 C   0  0  0  0  0  0
  -24.6405  -11.6919   20.8741 C   0  0  0  0  0  0
  -23.9081  -10.4292   21.0399 C   0  0  0  0  0  0
  -24.3632   -9.4202   21.9177 C   0  0  0  0  0  0
  -23.6299   -8.2237   22.0745 C   0  0  0  0  0  0
  -22.4275   -8.0285   21.3541 C   0  0  0  0  0  0
  -21.9919   -9.0255   20.4631 C   0  0  0  0  0  0
  -22.7258  -10.2131   20.3043 C   0  0  0  0  0  0
  -21.6856   -6.0735   22.5279 C   0  0  0  0  0  0
  -21.4014   -6.5634   23.8211 C   0  0  0  0  0  0
  -21.3668   -5.6789   24.9177 C   0  0  0  0  0  0
  -21.6048   -4.3049   24.7221 C   0  0  0  0  0  0
  -21.8822   -3.8141   23.4345 C   0  0  0  0  0  0
  -21.9189   -4.6954   22.3399 C   0  0  0  0  0  0
  -22.7811  -13.5201   21.1875 C   0  0  0  0  0  0
  -22.1661   -4.2134   21.0981 F   0  0  0  0  0  0
  -21.5633   -3.4541   25.7742 F   0  0  0  0  0  0
  -29.9721  -13.5902   20.3866 N   0  0  0  0  0  0
  -26.2918  -12.9439   20.3265 N   0  0  0  0  0  0
  -25.9341  -11.6570   20.5747 N   0  0  0  0  0  0
  -22.0461  -12.8180   22.0423 N   0  0  0  0  0  0
  -25.4132  -15.1946   20.4112 N   0  0  0  0  0  0
  -31.8038  -14.8752   20.1810 O   0  0  0  0  0  0
  -21.6647   -6.8872   21.4236 O   0  0  0  0  0  0
  -22.3481  -14.5507   20.6728 O   0  0  0  0  0  0
  -24.6344  -31.8541   23.1986 C   0  0  0  0  0  0
  -25.9161  -32.4754   23.8331 C   0  0  1  0  0  0
  -27.2095  -27.2242   20.1369 C   0  0  0  0  0  0
  -25.5939  -33.8556   24.2252 N   0  0  0  0  0  0
  -23.4358  -30.4754   21.5409 C   0  0  2  0  0  0
  -24.8869  -28.9225   20.1059 C   0  0  0  0  0  0
  -22.7524  -29.4590   22.4886 C   0  0  0  0  0  0
  -18.0287  -28.1397   22.8484 C   0  0  0  0  0  0
  -24.1465  -36.7273   23.2634 C   0  0  0  0  0  0
  -25.9844  -30.7534   21.3874 C   0  0  0  0  0  0
  -26.0599  -29.3724   20.7279 C   0  0  0  0  0  0
  -27.2287  -28.5331   20.7389 C   0  0  0  0  0  0
  -26.0213  -26.8633   19.4693 C   0  0  0  0  0  0
  -24.8738  -27.6757   19.4632 C   0  0  0  0  0  0
  -23.6600  -29.8144   20.1551 C   0  0  0  0  0  0
  -25.4097  -36.3072   24.0320 C   0  0  1  0  0  0
  -20.5891  -28.3726   23.1233 C   0  0  2  0  0  0
  -20.6759  -26.9426   22.5406 C   0  0  0  0  0  0
  -19.5741  -26.6386   21.5196 C   0  0  0  0  0  0
  -18.1922  -26.7941   22.1609 C   0  0  0  0  0  0
  -19.1542  -28.8874   23.2862 C   0  0  0  0  0  0
  -18.9472  -30.1461   23.8892 C   0  0  0  0  0  0
  -17.6476  -30.6603   24.0556 C   0  0  0  0  0  0
  -25.9056  -34.9446   23.5098 C   0  0  0  0  0  0
  -16.5367  -29.9099   23.6331 C   0  0  0  0  0  0
  -16.7274  -28.6509   23.0374 C   0  0  0  0  0  0
  -26.4512  -31.6586   25.0739 C   0  0  0  0  0  0
  -25.3727  -31.3787   26.1461 C   0  0  0  0  0  0
  -27.0341  -30.2972   24.6282 C   0  0  0  0  0  0
  -27.6066  -32.4323   25.7530 C   0  0  0  0  0  0
  -27.5569  -37.1777   24.8459 C   0  0  0  0  0  0
  -21.4226  -29.3064   22.3628 N   0  0  0  0  0  0
  -26.4268  -37.3775   23.9424 N   0  0  0  0  0  0
  -24.7034  -31.0455   22.0986 N   0  0  0  0  0  0
  -23.4201  -28.8127   23.3005 O   0  0  0  0  0  0
  -28.2134  -26.2187   20.2142 O   0  0  0  0  0  0
  -26.5623  -34.8937   22.4656 O   0  0  0  0  0  0
  -23.5482  -32.1391   23.7231 O   0  0  0  0  0  0
  -31.9029  -19.0435   21.5684 C   0  0  0  0  0  0
  -31.4864  -17.7234   21.3113 C   0  0  0  0  0  0
  -29.3966  -18.6291   20.4953 C   0  0  0  0  0  0
  -31.1013  -20.1833   21.3087 C   0  0  0  0  0  0
  -29.7992  -20.0319   20.7290 C   0  0  0  0  0  0
  -30.2217  -17.4390   20.7649 C   0  0  0  0  0  0
  -28.1262  -23.6075   20.7575 C   0  0  0  0  0  0
  -31.6624  -21.4837   21.7601 C   0  0  0  0  0  0
  -27.7816  -24.9702   20.7807 C   0  0  0  0  0  0
  -27.2911  -22.6250   21.5694 C   0  0  0  0  0  0
  -29.1880  -22.6573   20.0880 C   0  0  0  0  0  0
  -27.6177  -21.1792   21.1166 C   0  0  0  0  0  0
  -32.8934  -21.7913   21.7875 N   0  0  0  0  0  0
  -28.9264  -21.1983   20.4802 N   0  0  0  0  0  0
  -29.8356  -15.9905   20.5896 N   0  0  0  0  0  0
  -31.4752  -12.6446   19.1754 H   0  0  0  0  0  0
  -30.3976  -11.5440   19.9855 H   0  0  0  0  0  0
  -29.8133  -11.7398   17.5402 H   0  0  0  0  0  0
  -29.6327  -13.4672   17.7079 H   0  0  0  0  0  0
  -27.9063  -11.2881   18.9201 H   0  0  0  0  0  0
  -27.3879  -12.5188   17.7999 H   0  0  0  0  0  0
  -27.6156  -14.2586   19.4521 H   0  0  0  0  0  0
  -28.7410  -12.2258   21.4385 H   0  0  0  0  0  0
  -28.4087  -13.9078   21.7792 H   0  0  0  0  0  0
  -25.2777   -9.5678   22.4757 H   0  0  0  0  0  0
  -24.0009   -7.4624   22.7468 H   0  0  0  0  0  0
  -21.0855   -8.8776   19.8933 H   0  0  0  0  0  0
  -22.3725  -10.9668   19.6151 H   0  0  0  0  0  0
  -21.2010   -7.6146   23.9708 H   0  0  0  0  0  0
  -21.1493   -6.0524   25.9080 H   0  0  0  0  0  0
  -22.0592   -2.7594   23.2856 H   0  0  0  0  0  0
  -22.4093  -11.9862   22.4843 H   0  0  0  0  0  0
  -21.1057  -13.1165   22.2604 H   0  0  0  0  0  0
  -24.6369  -15.8400   20.5101 H   0  0  0  0  0  0
  -26.2506  -15.6370   20.0558 H   0  0  0  0  0  0
  -26.7232  -32.5420   23.1081 H   0  0  0  0  0  0
  -25.0093  -33.9684   25.0408 H   0  0  0  0  0  0
  -22.7341  -31.2989   21.3930 H   0  0  0  0  0  0
  -23.3749  -35.9579   23.3297 H   0  0  0  0  0  0
  -24.3552  -36.8908   22.2050 H   0  0  0  0  0  0
  -23.7206  -37.6464   23.6669 H   0  0  0  0  0  0
  -26.1216  -31.5132   20.6170 H   0  0  0  0  0  0
  -26.8581  -30.8054   22.0241 H   0  0  0  0  0  0
  -28.1194  -28.8568   21.2582 H   0  0  0  0  0  0
  -25.9603  -25.8989   18.9858 H   0  0  0  0  0  0
  -23.9762  -27.3236   18.9749 H   0  0  0  0  0  0
  -23.7975  -30.5968   19.4068 H   0  0  0  0  0  0
  -22.7754  -29.2575   19.8397 H   0  0  0  0  0  0
  -25.1271  -36.1909   25.0804 H   0  0  0  0  0  0
  -20.9969  -28.3333   24.1355 H   0  0  0  0  0  0
  -20.5596  -26.2359   23.3642 H   0  0  0  0  0  0
  -21.6640  -26.7422   22.1230 H   0  0  0  0  0  0
  -19.6913  -25.6288   21.1244 H   0  0  0  0  0  0
  -19.6668  -27.3184   20.6709 H   0  0  0  0  0  0
  -17.4180  -26.6682   21.4029 H   0  0  0  0  0  0
  -18.0338  -26.0089   22.9004 H   0  0  0  0  0  0
  -19.7959  -30.7255   24.2286 H   0  0  0  0  0  0
  -17.5044  -31.6289   24.5156 H   0  0  0  0  0  0
  -15.5368  -30.2998   23.7665 H   0  0  0  0  0  0
  -15.8673  -28.0810   22.7106 H   0  0  0  0  0  0
  -24.5940  -30.7064   25.7846 H   0  0  0  0  0  0
  -24.8867  -32.2960   26.4787 H   0  0  0  0  0  0
  -25.8036  -30.9094   27.0312 H   0  0  0  0  0  0
  -26.2933  -29.6739   24.1255 H   0  0  0  0  0  0
  -27.3919  -29.7242   25.4853 H   0  0  0  0  0  0
  -27.8866  -30.4202   23.9600 H   0  0  0  0  0  0
  -27.2677  -33.3650   26.2057 H   0  0  0  0  0  0
  -28.3916  -32.6821   25.0380 H   0  0  0  0  0  0
  -28.0675  -31.8468   26.5503 H   0  0  0  0  0  0
  -28.2568  -38.0093   24.7520 H   0  0  0  0  0  0
  -28.1081  -36.2622   24.6245 H   0  0  0  0  0  0
  -27.2298  -37.1381   25.8867 H   0  0  0  0  0  0
  -20.9430  -29.8809   21.6837 H   0  0  0  0  0  0
  -26.0157  -38.2835   24.1489 H   0  0  0  0  0  0
  -32.8695  -19.1691   22.0358 H   0  0  0  0  0  0
  -32.1576  -16.9247   21.5914 H   0  0  0  0  0  0
  -28.4116  -18.4618   20.0856 H   0  0  0  0  0  0
  -30.9359  -22.2168   22.1178 H   0  0  0  0  0  0
  -26.9331  -25.1880   21.4163 H   0  0  0  0  0  0
  -26.2229  -22.8363   21.4964 H   0  0  0  0  0  0
  -27.5692  -22.7431   22.6167 H   0  0  0  0  0  0
  -30.1916  -23.0190   20.2944 H   0  0  0  0  0  0
  -29.0631  -22.7462   19.0078 H   0  0  0  0  0  0
  -26.8816  -20.8375   20.3861 H   0  0  0  0  0  0
  -27.5828  -20.4888   21.9624 H   0  0  0  0  0  0
  -33.4777  -21.0415   21.4333 H   0  0  0  0  0  0
  -28.8427  -15.8177   20.5737 H   0  0  0  0  0  0
  1 25  1  0  0  0
  1 30  2  0  0  0
  1 85  1  0  0  0
  2  3  1  0  0  0
  2 25  1  0  0  0
  2 86  1  0  0  0
  2 87  1  0  0  0
  3  4  1  0  0  0
  3 88  1  0  0  0
  3 89  1  0  0  0
  4  5  1  0  0  0
  4 90  1  0  0  0
  4 91  1  0  0  0
  5  6  1  0  0  0
  5 26  1  0  0  0
  5 92  1  0  0  0
  6 25  1  0  0  0
  6 93  1  0  0  0
  6 94  1  0  0  0
  7  8  2  0  0  0
  7 26  1  0  0  0
  7 29  1  0  0  0
  8  9  1  0  0  0
  8 22  1  0  0  0
  9 10  1  0  0  0
  9 27  2  0  0  0
 10 11  2  0  0  0
 10 15  1  0  0  0
 11 12  1  0  0  0
 11 95  1  0  0  0
 12 13  2  0  0  0
 12 96  1  0  0  0
 13 14  1  0  0  0
 13 31  1  0  0  0
 14 15  2  0  0  0
 14 97  1  0  0  0
 15 98  1  0  0  0
 16 17  2  0  0  0
 16 21  1  0  0  0
 16 31  1  0  0  0
 17 18  1  0  0  0
 17 99  1  0  0  0
 18 19  2  0  0  0
 18100  1  0  0  0
 19 20  1  0  0  0
 19 24  1  0  0  0
 20 21  2  0  0  0
 20101  1  0  0  0
 21 23  1  0  0  0
 22 28  1  0  0  0
 22 32  2  0  0  0
 26 27  1  0  0  0
 28102  1  0  0  0
 28103  1  0  0  0
 29104  1  0  0  0
 29105  1  0  0  0
 33 34  1  0  0  0
 33 66  1  0  0  0
 33 70  2  0  0  0
 34 36  1  0  0  0
 34 59  1  0  0  0
 34106  1  0  0  0
 35 44  2  0  0  0
 35 45  1  0  0  0
 35 68  1  0  0  0
 36 56  1  0  0  0
 36107  1  0  0  0
 37 39  1  0  0  0
 37 47  1  0  0  0
 37 66  1  0  0  0
 37108  1  0  0  0
 38 43  2  0  0  0
 38 46  1  0  0  0
 38 47  1  0  0  0
 39 64  1  0  0  0
 39 67  2  0  0  0
 40 52  1  0  0  0
 40 53  2  0  0  0
 40 58  1  0  0  0
 41109  1  0  0  0
 41110  1  0  0  0
 41111  1  0  0  0
 41 48  1  0  0  0
 42 43  1  0  0  0
 42 66  1  0  0  0
 42112  1  0  0  0
 42113  1  0  0  0
 43 44  1  0  0  0
 44114  1  0  0  0
 45 46  2  0  0  0
 45115  1  0  0  0
 46116  1  0  0  0
 47117  1  0  0  0
 47118  1  0  0  0
 48 56  1  0  0  0
 48 65  1  0  0  0
 48119  1  0  0  0
 49 50  1  0  0  0
 49 53  1  0  0  0
 49 64  1  0  0  0
 49120  1  0  0  0
 50 51  1  0  0  0
 50121  1  0  0  0
 50122  1  0  0  0
 51 52  1  0  0  0
 51123  1  0  0  0
 51124  1  0  0  0
 52125  1  0  0  0
 52126  1  0  0  0
 53 54  1  0  0  0
 54 55  2  0  0  0
 54127  1  0  0  0
 55 57  1  0  0  0
 55128  1  0  0  0
 56 69  2  0  0  0
 57 58  2  0  0  0
 57129  1  0  0  0
 58130  1  0  0  0
 59 60  1  0  0  0
 59 61  1  0  0  0
 59 62  1  0  0  0
 60131  1  0  0  0
 60132  1  0  0  0
 60133  1  0  0  0
 61134  1  0  0  0
 61135  1  0  0  0
 61136  1  0  0  0
 62137  1  0  0  0
 62138  1  0  0  0
 62139  1  0  0  0
 63 65  1  0  0  0
 63140  1  0  0  0
 63141  1  0  0  0
 63142  1  0  0  0
 64143  1  0  0  0
 65144  1  0  0  0
 68 79  1  0  0  0
 71 72  2  0  0  0
 71 74  1  0  0  0
 71145  1  0  0  0
 72 76  1  0  0  0
 72146  1  0  0  0
 73 75  1  0  0  0
 73 76  2  0  0  0
 73147  1  0  0  0
 74 75  2  0  0  0
 74 78  1  0  0  0
 75 84  1  0  0  0
 76 85  1  0  0  0
 77 79  2  0  0  0
 77 80  1  0  0  0
 77 81  1  0  0  0
 78 83  2  0  0  0
 78148  1  0  0  0
 79149  1  0  0  0
 80 82  1  0  0  0
 80150  1  0  0  0
 80151  1  0  0  0
 81 84  1  0  0  0
 81152  1  0  0  0
 81153  1  0  0  0
 82 84  1  0  0  0
 82154  1  0  0  0
 82155  1  0  0  0
 83156  1  0  0  0
 85157  1  0  0  0
M  ISO  4   1 100  68 101  79 101  85 100
M  END
> <chiral flag>
0

> <version>
0

> <s_m_source_file>
/data/baiqing/PycharmProjects/Reinvent-master-3.2/result/LINK_invent/BTK/process_docking_weight1_custom_product_contain_oxygen_bond_distance_aromatic_linkinvent_7_9_3/rearranged_h_0147.sdf

> <i_m_source_file_index>
14

> <r_mmod_Potential_Energy-OPLS-2005>
443.104553222656

> <r_mmod_Stretch_Energy-OPLS-2005>
154.455001831055

> <r_mmod_Bend_Energy-OPLS-2005>
265.972229003906

> <r_mmod_Torsional_Energy-OPLS-2005>
262.770690917969

> <r_mmod_Improper_Torsional_Energy-OPLS-2005>
8.12981128692627

> <r_mmod_Van_der_Waal_Energy-OPLS-2005>
148.841659545898

> <r_mmod_Electrostatic_Energy-OPLS-2005>
-289.838806152344

> <r_mmod_Solvation_Energy-OPLS-2005>
-234.865921020508

> <b_mmod_Minimization_Converged-OPLS-2005>
0

> <r_mmod_RMS_Derivative-OPLS-2005>
2.77637887001038

$$$$
14
                    3D
 Structure written by MMmdl.
160168  0  0  1  0            999 V2000
  -30.6955  -14.4536   20.5719 C   0  0  0  0  0  0
  -30.4273  -12.2945   19.4184 C   0  0  0  0  0  0
  -29.4997  -12.5097   18.2040 C   0  0  0  0  0  0
  -28.0187  -12.3727   18.6116 C   0  0  0  0  0  0
  -27.6646  -13.2028   19.8746 C   0  0  2  0  0  0
  -28.7043  -12.9662   20.9937 C   0  0  0  0  0  0
  -25.2606  -13.8159   20.5669 C   0  0  0  0  0  0
  -24.1857  -13.0442   20.9174 C   0  0  0  0  0  0
  -24.6400  -11.6905   20.8719 C   0  0  0  0  0  0
  -23.9062  -10.4297   21.0391 C   0  0  0  0  0  0
  -24.3616   -9.4219   21.9171 C   0  0  0  0  0  0
  -23.6302   -8.2249   22.0746 C   0  0  0  0  0  0
  -22.4283   -8.0281   21.3537 C   0  0  0  0  0  0
  -21.9912   -9.0255   20.4641 C   0  0  0  0  0  0
  -22.7235  -10.2137   20.3046 C   0  0  0  0  0  0
  -21.6855   -6.0741   22.5283 C   0  0  0  0  0  0
  -21.4011   -6.5640   23.8217 C   0  0  0  0  0  0
  -21.3660   -5.6789   24.9179 C   0  0  0  0  0  0
  -21.6047   -4.3055   24.7220 C   0  0  0  0  0  0
  -21.8821   -3.8149   23.4341 C   0  0  0  0  0  0
  -21.9195   -4.6971   22.3400 C   0  0  0  0  0  0
  -22.7879  -13.5245   21.1840 C   0  0  0  0  0  0
  -22.1665   -4.2156   21.0978 F   0  0  0  0  0  0
  -21.5629   -3.4538   25.7733 F   0  0  0  0  0  0
  -30.0401  -13.2690   20.4482 N   0  0  0  0  0  0
  -26.3039  -12.9320   20.3344 N   0  0  0  0  0  0
  -25.9324  -11.6482   20.5728 N   0  0  0  0  0  0
  -22.0509  -12.8241   22.0396 N   0  0  0  0  0  0
  -25.4335  -15.1884   20.4083 N   0  0  0  0  0  0
  -31.8242  -14.6532   20.1101 O   0  0  0  0  0  0
  -21.6641   -6.8884   21.4245 O   0  0  0  0  0  0
  -22.3565  -14.5546   20.6688 O   0  0  0  0  0  0
  -24.6133  -31.8688   23.2129 C   0  0  0  0  0  0
  -25.9033  -32.4830   23.8407 C   0  0  1  0  0  0
  -27.2362  -27.4662   20.0730 C   0  0  0  0  0  0
  -25.5894  -33.8624   24.2351 N   0  0  0  0  0  0
  -23.4000  -30.4949   21.5524 C   0  0  2  0  0  0
  -24.8471  -28.9667   20.1128 C   0  0  0  0  0  0
  -22.7400  -29.4666   22.4993 C   0  0  0  0  0  0
  -18.0269  -28.1373   22.8495 C   0  0  0  0  0  0
  -24.1480  -36.7320   23.2642 C   0  0  0  0  0  0
  -25.9272  -30.8447   21.3603 C   0  0  0  0  0  0
  -26.0074  -29.4817   20.7060 C   0  0  0  0  0  0
  -27.2066  -28.7355   20.6902 C   0  0  0  0  0  0
  -26.0554  -26.9480   19.5085 C   0  0  0  0  0  0
  -24.8636  -27.6952   19.5148 C   0  0  0  0  0  0
  -23.6074  -29.8300   20.1652 C   0  0  0  0  0  0
  -25.4099  -36.3123   24.0352 C   0  0  1  0  0  0
  -20.5861  -28.3653   23.1321 C   0  0  2  0  0  0
  -20.6759  -26.9392   22.5417 C   0  0  0  0  0  0
  -19.5737  -26.6386   21.5211 C   0  0  0  0  0  0
  -18.1919  -26.7920   22.1627 C   0  0  0  0  0  0
  -19.1522  -28.8830   23.2907 C   0  0  0  0  0  0
  -18.9454  -30.1437   23.8914 C   0  0  0  0  0  0
  -17.6459  -30.6583   24.0568 C   0  0  0  0  0  0
  -25.9028  -34.9483   23.5152 C   0  0  0  0  0  0
  -16.5348  -29.9092   23.6316 C   0  0  0  0  0  0
  -16.7261  -28.6510   23.0336 C   0  0  0  0  0  0
  -26.4477  -31.6591   25.0711 C   0  0  0  0  0  0
  -25.3766  -31.3665   26.1477 C   0  0  0  0  0  0
  -27.0306  -30.3048   24.6040 C   0  0  0  0  0  0
  -27.6065  -32.4291   25.7466 C   0  0  0  0  0  0
  -27.5579  -37.1815   24.8471 C   0  0  0  0  0  0
  -21.4131  -29.3028   22.3734 N   0  0  0  0  0  0
  -26.4290  -37.3804   23.9420 N   0  0  0  0  0  0
  -24.6653  -31.0817   22.1014 N   0  0  0  0  0  0
  -23.4186  -28.8200   23.3018 O   0  0  0  0  0  0
  -28.3779  -26.7053   20.0933 O   0  0  0  0  0  0
  -26.5580  -34.8932   22.4706 O   0  0  0  0  0  0
  -23.5333  -32.1422   23.7552 O   0  0  0  0  0  0
  -31.2014  -17.5800   21.0182 C   0  0  0  0  0  0
  -30.9785  -18.9383   20.6306 C   0  0  0  0  0  0
  -30.1036  -16.7668   20.8526 C   0  0  0  0  0  0
  -29.7118  -19.1599   20.1544 C   0  0  0  0  0  0
  -29.1252  -22.6666   18.8042 C   0  0  0  0  0  0
  -27.9957  -25.1816   17.1796 C   0  0  0  0  0  0
  -30.4837  -25.1903   17.3752 C   0  0  0  0  0  0
  -29.1350  -24.1383   19.2629 C   0  0  0  0  0  0
  -29.7876  -21.6294   19.7280 C   0  0  0  0  0  0
  -29.1503  -26.6647   18.8946 C   0  0  0  0  0  0
  -29.1701  -25.2731   18.1844 C   0  0  0  0  0  0
  -29.9638  -15.4409   21.1175 N   0  0  0  0  0  0
  -29.1275  -20.3235   19.6519 N   0  0  0  0  0  0
  -28.5543  -22.2975   17.7729 O   0  0  0  0  0  0
  -28.7609  -17.6967   20.2284 S   0  0  0  0  0  0
  -31.4730  -12.3952   19.1199 H   0  0  0  0  0  0
  -30.3255  -11.2795   19.8054 H   0  0  0  0  0  0
  -29.7393  -11.7940   17.4165 H   0  0  0  0  0  0
  -29.6743  -13.4999   17.7796 H   0  0  0  0  0  0
  -27.8232  -11.3162   18.7972 H   0  0  0  0  0  0
  -27.3721  -12.6592   17.7816 H   0  0  0  0  0  0
  -27.7132  -14.2529   19.5855 H   0  0  0  0  0  0
  -28.6754  -11.9271   21.3246 H   0  0  0  0  0  0
  -28.4648  -13.5545   21.8807 H   0  0  0  0  0  0
  -25.2759   -9.5705   22.4747 H   0  0  0  0  0  0
  -24.0021   -7.4640   22.7458 H   0  0  0  0  0  0
  -21.0842   -8.8769   19.8945 H   0  0  0  0  0  0
  -22.3688  -10.9675   19.6155 H   0  0  0  0  0  0
  -21.1997   -7.6148   23.9727 H   0  0  0  0  0  0
  -21.1480   -6.0513   25.9082 H   0  0  0  0  0  0
  -22.0600   -2.7615   23.2834 H   0  0  0  0  0  0
  -22.4104  -11.9913   22.4814 H   0  0  0  0  0  0
  -21.1119  -13.1267   22.2562 H   0  0  0  0  0  0
  -24.6634  -15.8407   20.5068 H   0  0  0  0  0  0
  -26.2837  -15.6297   20.0814 H   0  0  0  0  0  0
  -26.7101  -32.5561   23.1177 H   0  0  0  0  0  0
  -25.0058  -33.9776   25.0506 H   0  0  0  0  0  0
  -22.6883  -31.3119   21.4159 H   0  0  0  0  0  0
  -23.3741  -35.9655   23.3313 H   0  0  0  0  0  0
  -24.3580  -36.8915   22.2055 H   0  0  0  0  0  0
  -23.7224  -37.6531   23.6635 H   0  0  0  0  0  0
  -26.0328  -31.6123   20.5921 H   0  0  0  0  0  0
  -26.8181  -30.9005   21.9740 H   0  0  0  0  0  0
  -28.1025  -29.1259   21.1534 H   0  0  0  0  0  0
  -26.0398  -25.9562   19.0915 H   0  0  0  0  0  0
  -23.9673  -27.2823   19.0728 H   0  0  0  0  0  0
  -23.7173  -30.6072   19.4076 H   0  0  0  0  0  0
  -22.7311  -29.2517   19.8656 H   0  0  0  0  0  0
  -25.1271  -36.2005   25.0846 H   0  0  0  0  0  0
  -20.9959  -28.3222   24.1438 H   0  0  0  0  0  0
  -20.5658  -26.2263   23.3604 H   0  0  0  0  0  0
  -21.6631  -26.7439   22.1210 H   0  0  0  0  0  0
  -19.6899  -25.6307   21.1214 H   0  0  0  0  0  0
  -19.6672  -27.3217   20.6759 H   0  0  0  0  0  0
  -17.4187  -26.6664   21.4029 H   0  0  0  0  0  0
  -18.0326  -26.0056   22.9020 H   0  0  0  0  0  0
  -19.7935  -30.7243   24.2291 H   0  0  0  0  0  0
  -17.5021  -31.6259   24.5176 H   0  0  0  0  0  0
  -15.5351  -30.3008   23.7628 H   0  0  0  0  0  0
  -15.8657  -28.0845   22.7028 H   0  0  0  0  0  0
  -24.5951  -30.6992   25.7825 H   0  0  0  0  0  0
  -24.8944  -32.2804   26.4952 H   0  0  0  0  0  0
  -25.8158  -30.8829   27.0213 H   0  0  0  0  0  0
  -26.2823  -29.6792   24.1158 H   0  0  0  0  0  0
  -27.4179  -29.7293   25.4457 H   0  0  0  0  0  0
  -27.8611  -30.4389   23.9106 H   0  0  0  0  0  0
  -27.2706  -33.3593   26.2061 H   0  0  0  0  0  0
  -28.3871  -32.6837   25.0283 H   0  0  0  0  0  0
  -28.0731  -31.8389   26.5365 H   0  0  0  0  0  0
  -28.2618  -38.0094   24.7520 H   0  0  0  0  0  0
  -28.1055  -36.2632   24.6301 H   0  0  0  0  0  0
  -27.2300  -37.1476   25.8875 H   0  0  0  0  0  0
  -20.9289  -29.8772   21.6979 H   0  0  0  0  0  0
  -26.0191  -38.2890   24.1413 H   0  0  0  0  0  0
  -32.1582  -17.2518   21.3995 H   0  0  0  0  0  0
  -31.7578  -19.6841   20.7030 H   0  0  0  0  0  0
  -28.1896  -24.4490   16.3954 H   0  0  0  0  0  0
  -27.8145  -26.1303   16.6725 H   0  0  0  0  0  0
  -27.0689  -24.8720   17.6549 H   0  0  0  0  0  0
  -30.5579  -24.2618   16.8068 H   0  0  0  0  0  0
  -31.3583  -25.2399   18.0256 H   0  0  0  0  0  0
  -30.5630  -26.0118   16.6613 H   0  0  0  0  0  0
  -29.9785  -24.2670   19.9412 H   0  0  0  0  0  0
  -28.2428  -24.2616   19.8777 H   0  0  0  0  0  0
  -29.7547  -21.9964   20.7544 H   0  0  0  0  0  0
  -30.8380  -21.5449   19.4465 H   0  0  0  0  0  0
  -28.8660  -27.4619   18.2046 H   0  0  0  0  0  0
  -30.1624  -26.9182   19.2120 H   0  0  0  0  0  0
  -29.0466  -15.1437   21.4147 H   0  0  0  0  0  0
  -28.2291  -20.3278   19.1718 H   0  0  0  0  0  0
  1 25  1  0  0  0
  1 30  2  0  0  0
  1 82  1  0  0  0
  2  3  1  0  0  0
  2 25  1  0  0  0
  2 86  1  0  0  0
  2 87  1  0  0  0
  3  4  1  0  0  0
  3 88  1  0  0  0
  3 89  1  0  0  0
  4  5  1  0  0  0
  4 90  1  0  0  0
  4 91  1  0  0  0
  5  6  1  0  0  0
  5 26  1  0  0  0
  5 92  1  0  0  0
  6 25  1  0  0  0
  6 93  1  0  0  0
  6 94  1  0  0  0
  7  8  2  0  0  0
  7 26  1  0  0  0
  7 29  1  0  0  0
  8  9  1  0  0  0
  8 22  1  0  0  0
  9 10  1  0  0  0
  9 27  2  0  0  0
 10 11  2  0  0  0
 10 15  1  0  0  0
 11 12  1  0  0  0
 11 95  1  0  0  0
 12 13  2  0  0  0
 12 96  1  0  0  0
 13 14  1  0  0  0
 13 31  1  0  0  0
 14 15  2  0  0  0
 14 97  1  0  0  0
 15 98  1  0  0  0
 16 17  2  0  0  0
 16 21  1  0  0  0
 16 31  1  0  0  0
 17 18  1  0  0  0
 17 99  1  0  0  0
 18 19  2  0  0  0
 18100  1  0  0  0
 19 20  1  0  0  0
 19 24  1  0  0  0
 20 21  2  0  0  0
 20101  1  0  0  0
 21 23  1  0  0  0
 22 28  1  0  0  0
 22 32  2  0  0  0
 26 27  1  0  0  0
 28102  1  0  0  0
 28103  1  0  0  0
 29104  1  0  0  0
 29105  1  0  0  0
 33 34  1  0  0  0
 33 66  1  0  0  0
 33 70  2  0  0  0
 34 36  1  0  0  0
 34 59  1  0  0  0
 34106  1  0  0  0
 35 44  2  0  0  0
 35 45  1  0  0  0
 35 68  1  0  0  0
 36 56  1  0  0  0
 36107  1  0  0  0
 37 39  1  0  0  0
 37 47  1  0  0  0
 37 66  1  0  0  0
 37108  1  0  0  0
 38 43  2  0  0  0
 38 46  1  0  0  0
 38 47  1  0  0  0
 39 64  1  0  0  0
 39 67  2  0  0  0
 40 52  1  0  0  0
 40 53  2  0  0  0
 40 58  1  0  0  0
 41109  1  0  0  0
 41110  1  0  0  0
 41111  1  0  0  0
 41 48  1  0  0  0
 42 43  1  0  0  0
 42 66  1  0  0  0
 42112  1  0  0  0
 42113  1  0  0  0
 43 44  1  0  0  0
 44114  1  0  0  0
 45 46  2  0  0  0
 45115  1  0  0  0
 46116  1  0  0  0
 47117  1  0  0  0
 47118  1  0  0  0
 48 56  1  0  0  0
 48 65  1  0  0  0
 48119  1  0  0  0
 49 50  1  0  0  0
 49 53  1  0  0  0
 49 64  1  0  0  0
 49120  1  0  0  0
 50 51  1  0  0  0
 50121  1  0  0  0
 50122  1  0  0  0
 51 52  1  0  0  0
 51123  1  0  0  0
 51124  1  0  0  0
 52125  1  0  0  0
 52126  1  0  0  0
 53 54  1  0  0  0
 54 55  2  0  0  0
 54127  1  0  0  0
 55 57  1  0  0  0
 55128  1  0  0  0
 56 69  2  0  0  0
 57 58  2  0  0  0
 57129  1  0  0  0
 58130  1  0  0  0
 59 60  1  0  0  0
 59 61  1  0  0  0
 59 62  1  0  0  0
 60131  1  0  0  0
 60132  1  0  0  0
 60133  1  0  0  0
 61134  1  0  0  0
 61135  1  0  0  0
 61136  1  0  0  0
 62137  1  0  0  0
 62138  1  0  0  0
 62139  1  0  0  0
 63 65  1  0  0  0
 63140  1  0  0  0
 63141  1  0  0  0
 63142  1  0  0  0
 64143  1  0  0  0
 65144  1  0  0  0
 68 80  1  0  0  0
 71 72  1  0  0  0
 71 73  2  0  0  0
 71145  1  0  0  0
 72 74  2  0  0  0
 72146  1  0  0  0
 73 82  1  0  0  0
 73 85  1  0  0  0
 74 83  1  0  0  0
 74 85  1  0  0  0
 75 78  1  0  0  0
 75 79  1  0  0  0
 75 84  2  0  0  0
 76147  1  0  0  0
 76148  1  0  0  0
 76149  1  0  0  0
 76 81  1  0  0  0
 77 81  1  0  0  0
 77150  1  0  0  0
 77151  1  0  0  0
 77152  1  0  0  0
 78 81  1  0  0  0
 78153  1  0  0  0
 78154  1  0  0  0
 79 83  1  0  0  0
 79155  1  0  0  0
 79156  1  0  0  0
 80 81  1  0  0  0
 80157  1  0  0  0
 80158  1  0  0  0
 82159  1  0  0  0
 83160  1  0  0  0
M  ISO  4   1 100  68 101  80 101  82 100
M  END
> <chiral flag>
0

> <version>
0

> <s_m_source_file>
/data/baiqing/PycharmProjects/Reinvent-master-3.2/result/LINK_invent/BTK/process_docking_weight1_custom_product_contain_oxygen_bond_distance_aromatic_linkinvent_7_9_3/rearranged_h_0147.sdf

> <i_m_source_file_index>
15

> <r_mmod_Potential_Energy-OPLS-2005>
-7.74225616455078

> <r_mmod_Stretch_Energy-OPLS-2005>
35.0262069702148

> <r_mmod_Bend_Energy-OPLS-2005>
112.494537353516

> <r_mmod_Torsional_Energy-OPLS-2005>
248.567657470703

> <r_mmod_Improper_Torsional_Energy-OPLS-2005>
5.38099575042725

> <r_mmod_Van_der_Waal_Energy-OPLS-2005>
131.242828369141

> <r_mmod_Electrostatic_Energy-OPLS-2005>
-328.278533935547

> <r_mmod_Solvation_Energy-OPLS-2005>
-222.820831298828

> <b_mmod_Minimization_Converged-OPLS-2005>
0

> <r_mmod_RMS_Derivative-OPLS-2005>
1.1847927570343

$$$$
15
                    3D
 Structure written by MMmdl.
158167  0  0  1  0            999 V2000
  -30.5855  -14.6568   20.5061 C   0  0  0  0  0  0
  -30.4523  -12.4055   19.4426 C   0  0  0  0  0  0
  -29.5097  -12.5065   18.2204 C   0  0  0  0  0  0
  -28.0329  -12.3380   18.6356 C   0  0  0  0  0  0
  -27.6560  -13.2065   19.8647 C   0  0  2  0  0  0
  -28.7029  -13.0412   20.9895 C   0  0  0  0  0  0
  -25.2578  -13.8140   20.5674 C   0  0  0  0  0  0
  -24.1837  -13.0426   20.9191 C   0  0  0  0  0  0
  -24.6385  -11.6892   20.8743 C   0  0  0  0  0  0
  -23.9048  -10.4283   21.0408 C   0  0  0  0  0  0
  -24.3602   -9.4204   21.9184 C   0  0  0  0  0  0
  -23.6281   -8.2238   22.0755 C   0  0  0  0  0  0
  -22.4263   -8.0273   21.3543 C   0  0  0  0  0  0
  -21.9896   -9.0249   20.4649 C   0  0  0  0  0  0
  -22.7223  -10.2128   20.3059 C   0  0  0  0  0  0
  -21.6851   -6.0733   22.5278 C   0  0  0  0  0  0
  -21.4014   -6.5636   23.8211 C   0  0  0  0  0  0
  -21.3658   -5.6787   24.9171 C   0  0  0  0  0  0
  -21.6047   -4.3052   24.7221 C   0  0  0  0  0  0
  -21.8823   -3.8145   23.4344 C   0  0  0  0  0  0
  -21.9194   -4.6961   22.3401 C   0  0  0  0  0  0
  -22.7862  -13.5237   21.1841 C   0  0  0  0  0  0
  -22.1665   -4.2150   21.0978 F   0  0  0  0  0  0
  -21.5624   -3.4539   25.7737 F   0  0  0  0  0  0
  -30.0162  -13.4104   20.4313 N   0  0  0  0  0  0
  -26.2999  -12.9299   20.3322 N   0  0  0  0  0  0
  -25.9309  -11.6466   20.5753 N   0  0  0  0  0  0
  -22.0490  -12.8250   22.0401 N   0  0  0  0  0  0
  -25.4280  -15.1861   20.4072 N   0  0  0  0  0  0
  -31.7404  -14.8673   20.1204 O   0  0  0  0  0  0
  -21.6626   -6.8874   21.4239 O   0  0  0  0  0  0
  -22.3565  -14.5546   20.6676 O   0  0  0  0  0  0
  -24.6277  -31.8577   23.1999 C   0  0  0  0  0  0
  -25.9117  -32.4772   23.8334 C   0  0  1  0  0  0
  -27.2310  -27.3153   20.1192 C   0  0  0  0  0  0
  -25.5922  -33.8572   24.2282 N   0  0  0  0  0  0
  -23.4214  -30.4808   21.5421 C   0  0  2  0  0  0
  -24.8688  -28.9329   20.1099 C   0  0  0  0  0  0
  -22.7473  -29.4618   22.4927 C   0  0  0  0  0  0
  -18.0281  -28.1398   22.8487 C   0  0  0  0  0  0
  -24.1476  -36.7280   23.2643 C   0  0  0  0  0  0
  -25.9612  -30.7913   21.3660 C   0  0  0  0  0  0
  -26.0375  -29.4163   20.7119 C   0  0  0  0  0  0
  -27.2212  -28.6207   20.7028 C   0  0  0  0  0  0
  -26.0365  -26.8810   19.4992 C   0  0  0  0  0  0
  -24.8709  -27.6715   19.4930 C   0  0  0  0  0  0
  -23.6365  -29.8129   20.1579 C   0  0  0  0  0  0
  -25.4100  -36.3087   24.0343 C   0  0  1  0  0  0
  -20.5882  -28.3697   23.1288 C   0  0  2  0  0  0
  -20.6764  -26.9417   22.5425 C   0  0  0  0  0  0
  -19.5751  -26.6399   21.5211 C   0  0  0  0  0  0
  -18.1926  -26.7946   22.1612 C   0  0  0  0  0  0
  -19.1534  -28.8862   23.2885 C   0  0  0  0  0  0
  -18.9458  -30.1462   23.8912 C   0  0  0  0  0  0
  -17.6460  -30.6596   24.0573 C   0  0  0  0  0  0
  -25.9038  -34.9458   23.5111 C   0  0  0  0  0  0
  -16.5352  -29.9100   23.6337 C   0  0  0  0  0  0
  -16.7271  -28.6513   23.0364 C   0  0  0  0  0  0
  -26.4506  -31.6584   25.0700 C   0  0  0  0  0  0
  -25.3760  -31.3711   26.1439 C   0  0  0  0  0  0
  -27.0345  -30.3023   24.6124 C   0  0  0  0  0  0
  -27.6073  -32.4308   25.7463 C   0  0  0  0  0  0
  -27.5575  -37.1789   24.8469 C   0  0  0  0  0  0
  -21.4186  -29.3045   22.3680 N   0  0  0  0  0  0
  -26.4282  -37.3786   23.9426 N   0  0  0  0  0  0
  -24.6894  -31.0600   22.0937 N   0  0  0  0  0  0
  -23.4196  -28.8163   23.3007 O   0  0  0  0  0  0
  -28.3590  -26.4797   20.1672 O   0  0  0  0  0  0
  -26.5610  -34.8928   22.4681 O   0  0  0  0  0  0
  -23.5445  -32.1362   23.7337 O   0  0  0  0  0  0
  -30.5826  -18.0443   20.4940 C   0  0  0  0  0  0
  -28.8146  -19.4420   21.1639 C   0  0  0  0  0  0
  -30.1038  -19.4199   20.7160 C   0  0  0  0  0  0
  -29.6822  -17.0372   20.8378 C   0  0  0  0  0  0
  -29.5238  -22.7317   20.3044 C   0  0  0  0  0  0
  -29.4090  -24.1114   20.4563 C   0  0  0  0  0  0
  -31.0048  -20.6344   20.6510 C   0  0  0  0  0  0
  -30.5626  -24.9490   20.9945 C   0  0  0  0  0  0
  -31.7378  -24.0942   21.4605 C   0  0  0  0  0  0
  -31.9417  -22.9303   20.4902 C   0  0  0  0  0  0
  -28.1737  -25.0061   20.0875 C   0  0  0  0  0  0
  -30.7549  -22.0170   20.5043 N   0  0  0  0  0  0
  -29.7172  -15.6484   20.8824 N   0  0  0  0  0  0
  -32.2844  -20.2500   20.8127 N   0  3  0  0  0  0
  -28.1842  -17.8157   21.3343 S   0  0  0  0  0  0
  -31.4876  -12.5612   19.1330 H   0  0  0  0  0  0
  -30.4170  -11.4056   19.8778 H   0  0  0  0  0  0
  -29.7761  -11.7530   17.4776 H   0  0  0  0  0  0
  -29.6431  -13.4742   17.7347 H   0  0  0  0  0  0
  -27.8746  -11.2842   18.8685 H   0  0  0  0  0  0
  -27.3750  -12.5646   17.7958 H   0  0  0  0  0  0
  -27.6772  -14.2431   19.5287 H   0  0  0  0  0  0
  -28.7227  -12.0088   21.3412 H   0  0  0  0  0  0
  -28.4420  -13.6410   21.8626 H   0  0  0  0  0  0
  -25.2749   -9.5690   22.4753 H   0  0  0  0  0  0
  -24.0000   -7.4633   22.7477 H   0  0  0  0  0  0
  -21.0828   -8.8768   19.8953 H   0  0  0  0  0  0
  -22.3682  -10.9665   19.6171 H   0  0  0  0  0  0
  -21.2005   -7.6145   23.9716 H   0  0  0  0  0  0
  -21.1473   -6.0513   25.9075 H   0  0  0  0  0  0
  -22.0602   -2.7609   23.2835 H   0  0  0  0  0  0
  -22.4081  -11.9910   22.4802 H   0  0  0  0  0  0
  -21.1105  -13.1288   22.2582 H   0  0  0  0  0  0
  -24.6536  -15.8338   20.5071 H   0  0  0  0  0  0
  -26.2687  -15.6285   20.0589 H   0  0  0  0  0  0
  -26.7180  -32.5449   23.1083 H   0  0  0  0  0  0
  -25.0106  -33.9700   25.0452 H   0  0  0  0  0  0
  -22.7166  -31.3025   21.3982 H   0  0  0  0  0  0
  -23.3751  -35.9598   23.3305 H   0  0  0  0  0  0
  -24.3579  -36.8892   22.2060 H   0  0  0  0  0  0
  -23.7207  -37.6479   23.6647 H   0  0  0  0  0  0
  -26.0866  -31.5514   20.5935 H   0  0  0  0  0  0
  -26.8445  -30.8463   21.9901 H   0  0  0  0  0  0
  -28.1191  -28.9885   21.1788 H   0  0  0  0  0  0
  -25.9785  -25.9151   19.0195 H   0  0  0  0  0  0
  -23.9751  -27.2955   19.0174 H   0  0  0  0  0  0
  -23.7562  -30.5871   19.3987 H   0  0  0  0  0  0
  -22.7567  -29.2412   19.8581 H   0  0  0  0  0  0
  -25.1283  -36.1941   25.0837 H   0  0  0  0  0  0
  -20.9986  -28.3264   24.1403 H   0  0  0  0  0  0
  -20.5648  -26.2304   23.3625 H   0  0  0  0  0  0
  -21.6636  -26.7435   22.1234 H   0  0  0  0  0  0
  -19.6912  -25.6311   21.1234 H   0  0  0  0  0  0
  -19.6696  -27.3208   20.6742 H   0  0  0  0  0  0
  -17.4206  -26.6709   21.4001 H   0  0  0  0  0  0
  -18.0306  -26.0083   22.9003 H   0  0  0  0  0  0
  -19.7937  -30.7261   24.2296 H   0  0  0  0  0  0
  -17.5022  -31.6279   24.5176 H   0  0  0  0  0  0
  -15.5354  -30.3016   23.7651 H   0  0  0  0  0  0
  -15.8667  -28.0830   22.7099 H   0  0  0  0  0  0
  -24.5969  -30.7004   25.7798 H   0  0  0  0  0  0
  -24.8904  -32.2864   26.4839 H   0  0  0  0  0  0
  -25.8125  -30.8949   27.0229 H   0  0  0  0  0  0
  -26.2895  -29.6765   24.1197 H   0  0  0  0  0  0
  -27.4125  -29.7293   25.4600 H   0  0  0  0  0  0
  -27.8728  -30.4327   23.9274 H   0  0  0  0  0  0
  -27.2693  -33.3624   26.2012 H   0  0  0  0  0  0
  -28.3897  -32.6830   25.0293 H   0  0  0  0  0  0
  -28.0720  -31.8444   26.5401 H   0  0  0  0  0  0
  -28.2604  -38.0078   24.7541 H   0  0  0  0  0  0
  -28.1064  -36.2623   24.6263 H   0  0  0  0  0  0
  -27.2314  -37.1415   25.8878 H   0  0  0  0  0  0
  -20.9368  -29.8777   21.6897 H   0  0  0  0  0  0
  -26.0167  -38.2862   24.1450 H   0  0  0  0  0  0
  -31.5847  -17.8374   20.1480 H   0  0  0  0  0  0
  -28.2067  -20.2901   21.4511 H   0  0  0  0  0  0
  -28.7266  -22.1241   19.9051 H   0  0  0  0  0  0
  -30.2123  -25.5716   21.8198 H   0  0  0  0  0  0
  -30.8900  -25.6259   20.2038 H   0  0  0  0  0  0
  -31.5470  -23.7057   22.4619 H   0  0  0  0  0  0
  -32.6413  -24.7017   21.5310 H   0  0  0  0  0  0
  -32.8898  -22.4719   20.7561 H   0  0  0  0  0  0
  -32.0756  -23.3042   19.4743 H   0  0  0  0  0  0
  -27.3568  -24.7168   20.7500 H   0  0  0  0  0  0
  -27.8755  -24.7366   19.0737 H   0  0  0  0  0  0
  -28.8418  -15.2467   21.1834 H   0  0  0  0  0  0
  -32.4949  -19.2811   20.9905 H   0  0  0  0  0  0
  -33.0473  -20.9062   20.8092 H   0  0  0  0  0  0
  1 25  1  0  0  0
  1 30  2  0  0  0
  1 83  1  0  0  0
  2  3  1  0  0  0
  2 25  1  0  0  0
  2 86  1  0  0  0
  2 87  1  0  0  0
  3  4  1  0  0  0
  3 88  1  0  0  0
  3 89  1  0  0  0
  4  5  1  0  0  0
  4 90  1  0  0  0
  4 91  1  0  0  0
  5  6  1  0  0  0
  5 26  1  0  0  0
  5 92  1  0  0  0
  6 25  1  0  0  0
  6 93  1  0  0  0
  6 94  1  0  0  0
  7  8  2  0  0  0
  7 26  1  0  0  0
  7 29  1  0  0  0
  8  9  1  0  0  0
  8 22  1  0  0  0
  9 10  1  0  0  0
  9 27  2  0  0  0
 10 11  2  0  0  0
 10 15  1  0  0  0
 11 12  1  0  0  0
 11 95  1  0  0  0
 12 13  2  0  0  0
 12 96  1  0  0  0
 13 14  1  0  0  0
 13 31  1  0  0  0
 14 15  2  0  0  0
 14 97  1  0  0  0
 15 98  1  0  0  0
 16 17  2  0  0  0
 16 21  1  0  0  0
 16 31  1  0  0  0
 17 18  1  0  0  0
 17 99  1  0  0  0
 18 19  2  0  0  0
 18100  1  0  0  0
 19 20  1  0  0  0
 19 24  1  0  0  0
 20 21  2  0  0  0
 20101  1  0  0  0
 21 23  1  0  0  0
 22 28  1  0  0  0
 22 32  2  0  0  0
 26 27  1  0  0  0
 28102  1  0  0  0
 28103  1  0  0  0
 29104  1  0  0  0
 29105  1  0  0  0
 33 34  1  0  0  0
 33 66  1  0  0  0
 33 70  2  0  0  0
 34 36  1  0  0  0
 34 59  1  0  0  0
 34106  1  0  0  0
 35 44  2  0  0  0
 35 45  1  0  0  0
 35 68  1  0  0  0
 36 56  1  0  0  0
 36107  1  0  0  0
 37 39  1  0  0  0
 37 47  1  0  0  0
 37 66  1  0  0  0
 37108  1  0  0  0
 38 43  2  0  0  0
 38 46  1  0  0  0
 38 47  1  0  0  0
 39 64  1  0  0  0
 39 67  2  0  0  0
 40 52  1  0  0  0
 40 53  2  0  0  0
 40 58  1  0  0  0
 41109  1  0  0  0
 41110  1  0  0  0
 41111  1  0  0  0
 41 48  1  0  0  0
 42 43  1  0  0  0
 42 66  1  0  0  0
 42112  1  0  0  0
 42113  1  0  0  0
 43 44  1  0  0  0
 44114  1  0  0  0
 45 46  2  0  0  0
 45115  1  0  0  0
 46116  1  0  0  0
 47117  1  0  0  0
 47118  1  0  0  0
 48 56  1  0  0  0
 48 65  1  0  0  0
 48119  1  0  0  0
 49 50  1  0  0  0
 49 53  1  0  0  0
 49 64  1  0  0  0
 49120  1  0  0  0
 50 51  1  0  0  0
 50121  1  0  0  0
 50122  1  0  0  0
 51 52  1  0  0  0
 51123  1  0  0  0
 51124  1  0  0  0
 52125  1  0  0  0
 52126  1  0  0  0
 53 54  1  0  0  0
 54 55  2  0  0  0
 54127  1  0  0  0
 55 57  1  0  0  0
 55128  1  0  0  0
 56 69  2  0  0  0
 57 58  2  0  0  0
 57129  1  0  0  0
 58130  1  0  0  0
 59 60  1  0  0  0
 59 61  1  0  0  0
 59 62  1  0  0  0
 60131  1  0  0  0
 60132  1  0  0  0
 60133  1  0  0  0
 61134  1  0  0  0
 61135  1  0  0  0
 61136  1  0  0  0
 62137  1  0  0  0
 62138  1  0  0  0
 62139  1  0  0  0
 63 65  1  0  0  0
 63140  1  0  0  0
 63141  1  0  0  0
 63142  1  0  0  0
 64143  1  0  0  0
 65144  1  0  0  0
 68 81  1  0  0  0
 71 73  1  0  0  0
 71 74  2  0  0  0
 71145  1  0  0  0
 72 73  2  0  0  0
 72 85  1  0  0  0
 72146  1  0  0  0
 73 77  1  0  0  0
 74 83  1  0  0  0
 74 85  1  0  0  0
 75 76  2  0  0  0
 75 82  1  0  0  0
 75147  1  0  0  0
 76 78  1  0  0  0
 76 81  1  0  0  0
 77 82  1  0  0  0
 77 84  2  0  0  0
 78 79  1  0  0  0
 78148  1  0  0  0
 78149  1  0  0  0
 79 80  1  0  0  0
 79150  1  0  0  0
 79151  1  0  0  0
 80 82  1  0  0  0
 80152  1  0  0  0
 80153  1  0  0  0
 81154  1  0  0  0
 81155  1  0  0  0
 83156  1  0  0  0
 84157  1  0  0  0
 84158  1  0  0  0
M  CHG  1  84   1
M  ISO  4   1 100  68 101  81 101  83 100
M  END
> <chiral flag>
0

> <version>
0

> <s_m_source_file>
/data/baiqing/PycharmProjects/Reinvent-master-3.2/result/LINK_invent/BTK/process_docking_weight1_custom_product_contain_oxygen_bond_distance_aromatic_linkinvent_7_9_3/rearranged_h_0147.sdf

> <i_m_source_file_index>
16

> <r_mmod_Potential_Energy-OPLS-2005>
-3.88760781288147

> <r_mmod_Stretch_Energy-OPLS-2005>
93.2554244995117

> <r_mmod_Bend_Energy-OPLS-2005>
186.826248168945

> <r_mmod_Torsional_Energy-OPLS-2005>
218.283538818359

> <r_mmod_Improper_Torsional_Energy-OPLS-2005>
5.31844472885132

> <r_mmod_Van_der_Waal_Energy-OPLS-2005>
150.544738769531

> <r_mmod_Electrostatic_Energy-OPLS-2005>
-268.568054199219

> <r_mmod_Solvation_Energy-OPLS-2005>
-441.893676757812

> <b_mmod_Minimization_Converged-OPLS-2005>
0

> <r_mmod_RMS_Derivative-OPLS-2005>
1.38963496685028

$$$$
16
                    3D
 Structure written by MMmdl.
156165  0  0  1  0            999 V2000
  -30.6918  -14.7094   20.5050 C   0  0  0  0  0  0
  -30.4167  -12.4434   19.4792 C   0  0  0  0  0  0
  -29.5034  -12.5024   18.2370 C   0  0  0  0  0  0
  -28.0292  -12.3367   18.6457 C   0  0  0  0  0  0
  -27.6393  -13.2358   19.8476 C   0  0  2  0  0  0
  -28.6814  -13.1717   20.9828 C   0  0  0  0  0  0
  -25.2487  -13.8211   20.5710 C   0  0  0  0  0  0
  -24.1782  -13.0447   20.9191 C   0  0  0  0  0  0
  -24.6372  -11.6918   20.8724 C   0  0  0  0  0  0
  -23.9050  -10.4300   21.0387 C   0  0  0  0  0  0
  -24.3613   -9.4225   21.9165 C   0  0  0  0  0  0
  -23.6289   -8.2258   22.0743 C   0  0  0  0  0  0
  -22.4270   -8.0281   21.3539 C   0  0  0  0  0  0
  -21.9909   -9.0248   20.4639 C   0  0  0  0  0  0
  -22.7222  -10.2132   20.3041 C   0  0  0  0  0  0
  -21.6861   -6.0735   22.5278 C   0  0  0  0  0  0
  -21.4015   -6.5640   23.8212 C   0  0  0  0  0  0
  -21.3665   -5.6787   24.9172 C   0  0  0  0  0  0
  -21.6047   -4.3050   24.7222 C   0  0  0  0  0  0
  -21.8820   -3.8142   23.4342 C   0  0  0  0  0  0
  -21.9196   -4.6959   22.3400 C   0  0  0  0  0  0
  -22.7809  -13.5230   21.1859 C   0  0  0  0  0  0
  -22.1662   -4.2148   21.0982 F   0  0  0  0  0  0
  -21.5634   -3.4532   25.7735 F   0  0  0  0  0  0
  -29.9898  -13.5213   20.4090 N   0  0  0  0  0  0
  -26.2918  -12.9437   20.3274 N   0  0  0  0  0  0
  -25.9309  -11.6569   20.5735 N   0  0  0  0  0  0
  -22.0472  -12.8222   22.0422 N   0  0  0  0  0  0
  -25.4202  -15.1939   20.4158 N   0  0  0  0  0  0
  -31.8435  -14.7367   20.0612 O   0  0  0  0  0  0
  -21.6645   -6.8875   21.4234 O   0  0  0  0  0  0
  -22.3493  -14.5545   20.6711 O   0  0  0  0  0  0
  -24.6319  -31.8558   23.1970 C   0  0  0  0  0  0
  -25.9142  -32.4757   23.8327 C   0  0  1  0  0  0
  -27.2171  -27.2562   20.1199 C   0  0  0  0  0  0
  -25.5917  -33.8555   24.2238 N   0  0  0  0  0  0
  -23.4305  -30.4821   21.5416 C   0  0  2  0  0  0
  -24.8754  -28.9315   20.1146 C   0  0  0  0  0  0
  -22.7503  -29.4622   22.4871 C   0  0  0  0  0  0
  -18.0303  -28.1387   22.8461 C   0  0  0  0  0  0
  -24.1503  -36.7302   23.2633 C   0  0  0  0  0  0
  -25.9811  -30.7661   21.3832 C   0  0  0  0  0  0
  -26.0514  -29.3901   20.7224 C   0  0  0  0  0  0
  -27.2264  -28.5665   20.7119 C   0  0  0  0  0  0
  -26.0131  -26.8745   19.4819 C   0  0  0  0  0  0
  -24.8622  -27.6804   19.4854 C   0  0  0  0  0  0
  -23.6483  -29.8203   20.1593 C   0  0  0  0  0  0
  -25.4118  -36.3070   24.0321 C   0  0  1  0  0  0
  -20.5909  -28.3716   23.1231 C   0  0  2  0  0  0
  -20.6798  -26.9430   22.5387 C   0  0  0  0  0  0
  -19.5782  -26.6384   21.5193 C   0  0  0  0  0  0
  -18.1959  -26.7929   22.1606 C   0  0  0  0  0  0
  -19.1555  -28.8858   23.2861 C   0  0  0  0  0  0
  -18.9483  -30.1449   23.8900 C   0  0  0  0  0  0
  -17.6480  -30.6589   24.0549 C   0  0  0  0  0  0
  -25.9051  -34.9431   23.5075 C   0  0  0  0  0  0
  -16.5368  -29.9092   23.6333 C   0  0  0  0  0  0
  -16.7293  -28.6509   23.0345 C   0  0  0  0  0  0
  -26.4497  -31.6587   25.0715 C   0  0  0  0  0  0
  -25.3685  -31.3730   26.1406 C   0  0  0  0  0  0
  -27.0353  -30.2988   24.6247 C   0  0  0  0  0  0
  -27.6052  -32.4339   25.7466 C   0  0  0  0  0  0
  -27.5602  -37.1782   24.8441 C   0  0  0  0  0  0
  -21.4209  -29.3076   22.3596 N   0  0  0  0  0  0
  -26.4299  -37.3763   23.9417 N   0  0  0  0  0  0
  -24.7003  -31.0513   22.0962 N   0  0  0  0  0  0
  -23.4179  -28.8150   23.2976 O   0  0  0  0  0  0
  -28.2953  -26.3373   20.1658 O   0  0  0  0  0  0
  -26.5650  -34.8921   22.4661 O   0  0  0  0  0  0
  -23.5457  -32.1387   23.7249 O   0  0  0  0  0  0
  -29.8054  -19.8297   21.0067 C   0  0  0  0  0  0
  -28.5678  -20.5202   19.1902 C   0  0  0  0  0  0
  -29.0853  -20.9581   20.3867 C   0  0  0  0  0  0
  -29.8443  -18.6054   20.3096 C   0  0  0  0  0  0
  -29.0592  -23.7382   20.2323 C   0  0  0  0  0  0
  -30.9883  -16.8834   22.8918 C   0  0  0  0  0  0
  -31.7019  -17.4751   21.6753 C   0  0  0  0  0  0
  -29.8019  -16.0879   22.3152 C   0  0  0  0  0  0
  -30.6920  -17.2814   20.5362 C   0  0  1  0  0  0
  -28.7703  -22.3763   21.0251 C   0  0  0  0  0  0
  -27.9344  -24.8713   20.1420 C   0  0  0  0  0  0
  -30.0819  -15.9151   20.8847 N   0  0  0  0  0  0
  -30.1596  -23.9210   19.6980 O   0  0  0  0  0  0
  -28.9258  -18.8281   18.8403 S   0  0  0  0  0  0
  -31.4594  -12.5313   19.1692 H   0  0  0  0  0  0
  -30.3427  -11.4706   19.9683 H   0  0  0  0  0  0
  -29.7829  -11.7219   17.5277 H   0  0  0  0  0  0
  -29.6403  -13.4535   17.7207 H   0  0  0  0  0  0
  -27.8753  -11.2877   18.9031 H   0  0  0  0  0  0
  -27.3757  -12.5371   17.7966 H   0  0  0  0  0  0
  -27.6376  -14.2593   19.4724 H   0  0  0  0  0  0
  -28.7115  -12.1760   21.4281 H   0  0  0  0  0  0
  -28.3814  -13.8458   21.7806 H   0  0  0  0  0  0
  -25.2757   -9.5728   22.4732 H   0  0  0  0  0  0
  -24.0012   -7.4670   22.7467 H   0  0  0  0  0  0
  -21.0850   -8.8751   19.8946 H   0  0  0  0  0  0
  -22.3658  -10.9669   19.6154 H   0  0  0  0  0  0
  -21.2000   -7.6137   23.9717 H   0  0  0  0  0  0
  -21.1489   -6.0511   25.9080 H   0  0  0  0  0  0
  -22.0592   -2.7597   23.2840 H   0  0  0  0  0  0
  -22.4091  -11.9891   22.4830 H   0  0  0  0  0  0
  -21.1082  -13.1240   22.2618 H   0  0  0  0  0  0
  -24.6583  -15.8510   20.5391 H   0  0  0  0  0  0
  -26.2829  -15.6382   20.1256 H   0  0  0  0  0  0
  -26.7210  -32.5395   23.1068 H   0  0  0  0  0  0
  -24.9966  -33.9695   25.0314 H   0  0  0  0  0  0
  -22.7291  -31.3045   21.3953 H   0  0  0  0  0  0
  -23.3766  -35.9632   23.3255 H   0  0  0  0  0  0
  -24.3585  -36.8978   22.2056 H   0  0  0  0  0  0
  -23.7288  -37.6493   23.6698 H   0  0  0  0  0  0
  -26.1301  -31.5265   20.6145 H   0  0  0  0  0  0
  -26.8539  -30.8064   22.0226 H   0  0  0  0  0  0
  -28.1252  -28.9137   21.2018 H   0  0  0  0  0  0
  -25.9190  -25.9294   18.9738 H   0  0  0  0  0  0
  -23.9625  -27.3200   19.0072 H   0  0  0  0  0  0
  -23.7769  -30.5974   19.4048 H   0  0  0  0  0  0
  -22.7659  -29.2571   19.8507 H   0  0  0  0  0  0
  -25.1315  -36.1881   25.0817 H   0  0  0  0  0  0
  -21.0036  -28.3327   24.1333 H   0  0  0  0  0  0
  -20.5711  -26.2336   23.3602 H   0  0  0  0  0  0
  -21.6664  -26.7448   22.1184 H   0  0  0  0  0  0
  -19.6949  -25.6290   21.1240 H   0  0  0  0  0  0
  -19.6715  -27.3158   20.6695 H   0  0  0  0  0  0
  -17.4223  -26.6642   21.4011 H   0  0  0  0  0  0
  -18.0374  -26.0082   22.9010 H   0  0  0  0  0  0
  -19.7953  -30.7256   24.2285 H   0  0  0  0  0  0
  -17.5042  -31.6279   24.5141 H   0  0  0  0  0  0
  -15.5364  -30.2997   23.7681 H   0  0  0  0  0  0
  -15.8686  -28.0840   22.7069 H   0  0  0  0  0  0
  -24.5878  -30.7078   25.7698 H   0  0  0  0  0  0
  -24.8839  -32.2890   26.4801 H   0  0  0  0  0  0
  -25.7962  -30.8902   27.0207 H   0  0  0  0  0  0
  -26.2944  -29.6686   24.1306 H   0  0  0  0  0  0
  -27.4045  -29.7302   25.4801 H   0  0  0  0  0  0
  -27.8835  -30.4241   23.9511 H   0  0  0  0  0  0
  -27.2702  -33.3689   26.1974 H   0  0  0  0  0  0
  -28.3886  -32.6821   25.0287 H   0  0  0  0  0  0
  -28.0714  -31.8503   26.5423 H   0  0  0  0  0  0
  -28.2547  -38.0150   24.7591 H   0  0  0  0  0  0
  -28.1198  -36.2689   24.6163 H   0  0  0  0  0  0
  -27.2326  -37.1297   25.8839 H   0  0  0  0  0  0
  -20.9373  -29.8822   21.6826 H   0  0  0  0  0  0
  -26.0169  -38.2818   24.1460 H   0  0  0  0  0  0
  -30.2992  -19.9700   21.9599 H   0  0  0  0  0  0
  -27.9499  -21.0793   18.4965 H   0  0  0  0  0  0
  -30.6446  -17.6602   23.5753 H   0  0  0  0  0  0
  -31.6654  -16.2306   23.4481 H   0  0  0  0  0  0
  -32.5952  -16.8820   21.4684 H   0  0  0  0  0  0
  -32.0504  -18.4988   21.8094 H   0  0  0  0  0  0
  -28.8759  -16.6552   22.4203 H   0  0  0  0  0  0
  -29.6797  -15.1564   22.8691 H   0  0  0  0  0  0
  -31.2592  -17.1529   19.6120 H   0  0  0  0  0  0
  -29.2971  -22.4630   21.9752 H   0  0  0  0  0  0
  -27.7158  -22.4023   21.2957 H   0  0  0  0  0  0
  -27.1940  -24.6784   20.9190 H   0  0  0  0  0  0
  -27.4514  -24.6552   19.1899 H   0  0  0  0  0  0
  1 25  1  0  0  0
  1 30  2  0  0  0
  1 82  1  0  0  0
  2  3  1  0  0  0
  2 25  1  0  0  0
  2 85  1  0  0  0
  2 86  1  0  0  0
  3  4  1  0  0  0
  3 87  1  0  0  0
  3 88  1  0  0  0
  4  5  1  0  0  0
  4 89  1  0  0  0
  4 90  1  0  0  0
  5  6  1  0  0  0
  5 26  1  0  0  0
  5 91  1  0  0  0
  6 25  1  0  0  0
  6 92  1  0  0  0
  6 93  1  0  0  0
  7  8  2  0  0  0
  7 26  1  0  0  0
  7 29  1  0  0  0
  8  9  1  0  0  0
  8 22  1  0  0  0
  9 10  1  0  0  0
  9 27  2  0  0  0
 10 11  2  0  0  0
 10 15  1  0  0  0
 11 12  1  0  0  0
 11 94  1  0  0  0
 12 13  2  0  0  0
 12 95  1  0  0  0
 13 14  1  0  0  0
 13 31  1  0  0  0
 14 15  2  0  0  0
 14 96  1  0  0  0
 15 97  1  0  0  0
 16 17  2  0  0  0
 16 21  1  0  0  0
 16 31  1  0  0  0
 17 18  1  0  0  0
 17 98  1  0  0  0
 18 19  2  0  0  0
 18 99  1  0  0  0
 19 20  1  0  0  0
 19 24  1  0  0  0
 20 21  2  0  0  0
 20100  1  0  0  0
 21 23  1  0  0  0
 22 28  1  0  0  0
 22 32  2  0  0  0
 26 27  1  0  0  0
 28101  1  0  0  0
 28102  1  0  0  0
 29103  1  0  0  0
 29104  1  0  0  0
 33 34  1  0  0  0
 33 66  1  0  0  0
 33 70  2  0  0  0
 34 36  1  0  0  0
 34 59  1  0  0  0
 34105  1  0  0  0
 35 44  2  0  0  0
 35 45  1  0  0  0
 35 68  1  0  0  0
 36 56  1  0  0  0
 36106  1  0  0  0
 37 39  1  0  0  0
 37 47  1  0  0  0
 37 66  1  0  0  0
 37107  1  0  0  0
 38 43  2  0  0  0
 38 46  1  0  0  0
 38 47  1  0  0  0
 39 64  1  0  0  0
 39 67  2  0  0  0
 40 52  1  0  0  0
 40 53  2  0  0  0
 40 58  1  0  0  0
 41108  1  0  0  0
 41109  1  0  0  0
 41110  1  0  0  0
 41 48  1  0  0  0
 42 43  1  0  0  0
 42 66  1  0  0  0
 42111  1  0  0  0
 42112  1  0  0  0
 43 44  1  0  0  0
 44113  1  0  0  0
 45 46  2  0  0  0
 45114  1  0  0  0
 46115  1  0  0  0
 47116  1  0  0  0
 47117  1  0  0  0
 48 56  1  0  0  0
 48 65  1  0  0  0
 48118  1  0  0  0
 49 50  1  0  0  0
 49 53  1  0  0  0
 49 64  1  0  0  0
 49119  1  0  0  0
 50 51  1  0  0  0
 50120  1  0  0  0
 50121  1  0  0  0
 51 52  1  0  0  0
 51122  1  0  0  0
 51123  1  0  0  0
 52124  1  0  0  0
 52125  1  0  0  0
 53 54  1  0  0  0
 54 55  2  0  0  0
 54126  1  0  0  0
 55 57  1  0  0  0
 55127  1  0  0  0
 56 69  2  0  0  0
 57 58  2  0  0  0
 57128  1  0  0  0
 58129  1  0  0  0
 59 60  1  0  0  0
 59 61  1  0  0  0
 59 62  1  0  0  0
 60130  1  0  0  0
 60131  1  0  0  0
 60132  1  0  0  0
 61133  1  0  0  0
 61134  1  0  0  0
 61135  1  0  0  0
 62136  1  0  0  0
 62137  1  0  0  0
 62138  1  0  0  0
 63 65  1  0  0  0
 63139  1  0  0  0
 63140  1  0  0  0
 63141  1  0  0  0
 64142  1  0  0  0
 65143  1  0  0  0
 68 81  1  0  0  0
 71 73  1  0  0  0
 71 74  2  0  0  0
 71144  1  0  0  0
 72 73  2  0  0  0
 72 84  1  0  0  0
 72145  1  0  0  0
 73 80  1  0  0  0
 74 84  1  0  0  0
 74 79  1  0  0  0
 75 80  1  0  0  0
 75 81  1  0  0  0
 75 83  2  0  0  0
 76 77  1  0  0  0
 76 78  1  0  0  0
 76146  1  0  0  0
 76147  1  0  0  0
 77 79  1  0  0  0
 77148  1  0  0  0
 77149  1  0  0  0
 78 82  1  0  0  0
 78150  1  0  0  0
 78151  1  0  0  0
 79 82  1  0  0  0
 79152  1  0  0  0
 80153  1  0  0  0
 80154  1  0  0  0
 81155  1  0  0  0
 81156  1  0  0  0
M  ISO  4   1 100  68 101  81 101  82 100
M  END
> <chiral flag>
0

> <version>
0

> <s_m_source_file>
/data/baiqing/PycharmProjects/Reinvent-master-3.2/result/LINK_invent/BTK/process_docking_weight1_custom_product_contain_oxygen_bond_distance_aromatic_linkinvent_7_9_3/rearranged_h_0147.sdf

> <i_m_source_file_index>
17

> <r_mmod_Potential_Energy-OPLS-2005>
458.118865966797

> <r_mmod_Stretch_Energy-OPLS-2005>
127.143028259277

> <r_mmod_Bend_Energy-OPLS-2005>
231.078430175781

> <r_mmod_Torsional_Energy-OPLS-2005>
331.264251708984

> <r_mmod_Improper_Torsional_Energy-OPLS-2005>
12.0055284500122

> <r_mmod_Van_der_Waal_Energy-OPLS-2005>
125.484840393066

> <r_mmod_Electrostatic_Energy-OPLS-2005>
-227.673065185547

> <r_mmod_Solvation_Energy-OPLS-2005>
-220.601104736328

> <b_mmod_Minimization_Converged-OPLS-2005>
0

> <r_mmod_RMS_Derivative-OPLS-2005>
2.87360572814941

$$$$
17
                    3D
 Structure written by MMmdl.
165174  0  0  1  0            999 V2000
  -30.6157  -14.6410   20.5140 C   0  0  0  0  0  0
  -30.4396  -12.3966   19.4518 C   0  0  0  0  0  0
  -29.5110  -12.5253   18.2239 C   0  0  0  0  0  0
  -28.0330  -12.3575   18.6299 C   0  0  0  0  0  0
  -27.6559  -13.2175   19.8659 C   0  0  2  0  0  0
  -28.6990  -13.0591   20.9942 C   0  0  0  0  0  0
  -25.2569  -13.8171   20.5662 C   0  0  0  0  0  0
  -24.1836  -13.0433   20.9163 C   0  0  0  0  0  0
  -24.6407  -11.6904   20.8715 C   0  0  0  0  0  0
  -23.9069  -10.4292   21.0393 C   0  0  0  0  0  0
  -24.3621   -9.4211   21.9174 C   0  0  0  0  0  0
  -23.6297   -8.2245   22.0749 C   0  0  0  0  0  0
  -22.4274   -8.0282   21.3544 C   0  0  0  0  0  0
  -21.9912   -9.0253   20.4643 C   0  0  0  0  0  0
  -22.7236  -10.2136   20.3043 C   0  0  0  0  0  0
  -21.6861   -6.0732   22.5273 C   0  0  0  0  0  0
  -21.4023   -6.5634   23.8205 C   0  0  0  0  0  0
  -21.3660   -5.6787   24.9168 C   0  0  0  0  0  0
  -21.6048   -4.3050   24.7222 C   0  0  0  0  0  0
  -21.8820   -3.8138   23.4344 C   0  0  0  0  0  0
  -21.9199   -4.6959   22.3403 C   0  0  0  0  0  0
  -22.7855  -13.5227   21.1834 C   0  0  0  0  0  0
  -22.1660   -4.2141   21.0980 F   0  0  0  0  0  0
  -21.5640   -3.4535   25.7740 F   0  0  0  0  0  0
  -30.0161  -13.4100   20.4384 N   0  0  0  0  0  0
  -26.3006  -12.9353   20.3316 N   0  0  0  0  0  0
  -25.9340  -11.6504   20.5732 N   0  0  0  0  0  0
  -22.0497  -12.8221   22.0392 N   0  0  0  0  0  0
  -25.4284  -15.1891   20.4054 N   0  0  0  0  0  0
  -31.7638  -14.8244   20.0948 O   0  0  0  0  0  0
  -21.6643   -6.8874   21.4234 O   0  0  0  0  0  0
  -22.3532  -14.5533   20.6688 O   0  0  0  0  0  0
  -24.6258  -31.8607   23.2048 C   0  0  0  0  0  0
  -25.9112  -32.4784   23.8360 C   0  0  1  0  0  0
  -27.2141  -27.3125   20.1251 C   0  0  0  0  0  0
  -25.5927  -33.8584   24.2287 N   0  0  0  0  0  0
  -23.4181  -30.4864   21.5479 C   0  0  2  0  0  0
  -24.8637  -28.9441   20.1104 C   0  0  0  0  0  0
  -22.7462  -29.4637   22.4945 C   0  0  0  0  0  0
  -18.0284  -28.1375   22.8488 C   0  0  0  0  0  0
  -24.1483  -36.7301   23.2638 C   0  0  0  0  0  0
  -25.9607  -30.7866   21.3804 C   0  0  0  0  0  0
  -26.0321  -29.4146   20.7234 C   0  0  0  0  0  0
  -27.2106  -28.6087   20.7262 C   0  0  0  0  0  0
  -26.0331  -26.9129   19.4593 C   0  0  0  0  0  0
  -24.8665  -27.6971   19.4693 C   0  0  0  0  0  0
  -23.6317  -29.8245   20.1619 C   0  0  0  0  0  0
  -25.4109  -36.3094   24.0332 C   0  0  1  0  0  0
  -20.5886  -28.3691   23.1285 C   0  0  2  0  0  0
  -20.6784  -26.9413   22.5414 C   0  0  0  0  0  0
  -19.5755  -26.6383   21.5219 C   0  0  0  0  0  0
  -18.1932  -26.7921   22.1626 C   0  0  0  0  0  0
  -19.1534  -28.8848   23.2879 C   0  0  0  0  0  0
  -18.9461  -30.1453   23.8889 C   0  0  0  0  0  0
  -17.6461  -30.6585   24.0565 C   0  0  0  0  0  0
  -25.9048  -34.9463   23.5115 C   0  0  0  0  0  0
  -16.5351  -29.9082   23.6335 C   0  0  0  0  0  0
  -16.7272  -28.6499   23.0352 C   0  0  0  0  0  0
  -26.4489  -31.6591   25.0732 C   0  0  0  0  0  0
  -25.3721  -31.3734   26.1457 C   0  0  0  0  0  0
  -27.0345  -30.3013   24.6215 C   0  0  0  0  0  0
  -27.6038  -32.4325   25.7511 C   0  0  0  0  0  0
  -27.5576  -37.1813   24.8458 C   0  0  0  0  0  0
  -21.4179  -29.3047   22.3679 N   0  0  0  0  0  0
  -26.4288  -37.3790   23.9404 N   0  0  0  0  0  0
  -24.6869  -31.0609   22.1010 N   0  0  0  0  0  0
  -23.4186  -28.8172   23.3019 O   0  0  0  0  0  0
  -28.3141  -26.4396   20.1716 O   0  0  0  0  0  0
  -26.5614  -34.8933   22.4678 O   0  0  0  0  0  0
  -23.5426  -32.1406   23.7386 O   0  0  0  0  0  0
  -29.6133  -19.2750   19.6344 C   0  0  0  0  0  0
  -29.9946  -17.8996   22.0275 C   0  0  0  0  0  0
  -29.7065  -17.8445   19.6371 C   0  0  0  0  0  0
  -29.8932  -19.3241   22.0254 C   0  0  0  0  0  0
  -29.7066  -20.0591   20.8162 C   0  0  0  0  0  0
  -29.9170  -17.1198   20.8474 C   0  0  0  0  0  0
  -30.2836  -23.7933   21.1238 C   0  0  0  0  0  0
  -30.8036  -22.3348   21.0920 C   0  0  0  0  0  0
  -28.5290  -22.3699   20.3597 C   0  0  0  0  0  0
  -29.0717  -23.8512   20.1719 C   0  0  2  0  0  0
  -29.5268  -17.0972   18.3272 C   0  0  0  0  0  0
  -29.9366  -20.0356   23.3678 C   0  0  0  0  0  0
  -29.5351  -24.0326   18.7136 C   0  0  0  0  0  0
  -28.0320  -25.0178   20.5133 C   0  0  0  0  0  0
  -29.6484  -21.4982   20.7877 N   0  0  0  0  0  0
  -29.8209  -15.6645   20.9566 N   0  0  0  0  0  0
  -31.4816  -12.5236   19.1544 H   0  0  0  0  0  0
  -30.3710  -11.3962   19.8823 H   0  0  0  0  0  0
  -29.7784  -11.7864   17.4674 H   0  0  0  0  0  0
  -29.6545  -13.5018   17.7579 H   0  0  0  0  0  0
  -27.8684  -11.3023   18.8493 H   0  0  0  0  0  0
  -27.3813  -12.5984   17.7892 H   0  0  0  0  0  0
  -27.6763  -14.2564   19.5362 H   0  0  0  0  0  0
  -28.7090  -12.0320   21.3606 H   0  0  0  0  0  0
  -28.4383  -13.6763   21.8545 H   0  0  0  0  0  0
  -25.2766   -9.5701   22.4740 H   0  0  0  0  0  0
  -24.0017   -7.4640   22.7472 H   0  0  0  0  0  0
  -21.0841   -8.8763   19.8951 H   0  0  0  0  0  0
  -22.3683  -10.9672   19.6149 H   0  0  0  0  0  0
  -21.2000   -7.6137   23.9705 H   0  0  0  0  0  0
  -21.1490   -6.0518   25.9075 H   0  0  0  0  0  0
  -22.0598   -2.7600   23.2847 H   0  0  0  0  0  0
  -22.4124  -11.9895   22.4805 H   0  0  0  0  0  0
  -21.1110  -13.1244   22.2583 H   0  0  0  0  0  0
  -24.6613  -15.8440   20.5051 H   0  0  0  0  0  0
  -26.2790  -15.6270   20.0747 H   0  0  0  0  0  0
  -26.7175  -32.5447   23.1097 H   0  0  0  0  0  0
  -25.0063  -33.9719   25.0427 H   0  0  0  0  0  0
  -22.7134  -31.3090   21.4076 H   0  0  0  0  0  0
  -23.3753  -35.9625   23.3302 H   0  0  0  0  0  0
  -24.3572  -36.8920   22.2052 H   0  0  0  0  0  0
  -23.7232  -37.6506   23.6653 H   0  0  0  0  0  0
  -26.0966  -31.5504   20.6137 H   0  0  0  0  0  0
  -26.8399  -30.8316   22.0117 H   0  0  0  0  0  0
  -28.1018  -28.9595   21.2282 H   0  0  0  0  0  0
  -25.9884  -25.9832   18.9143 H   0  0  0  0  0  0
  -23.9777  -27.3380   18.9694 H   0  0  0  0  0  0
  -23.7508  -30.6031   19.4078 H   0  0  0  0  0  0
  -22.7504  -29.2565   19.8587 H   0  0  0  0  0  0
  -25.1298  -36.1954   25.0828 H   0  0  0  0  0  0
  -20.9976  -28.3274   24.1408 H   0  0  0  0  0  0
  -20.5713  -26.2299   23.3615 H   0  0  0  0  0  0
  -21.6649  -26.7459   22.1195 H   0  0  0  0  0  0
  -19.6926  -25.6297   21.1244 H   0  0  0  0  0  0
  -19.6693  -27.3208   20.6762 H   0  0  0  0  0  0
  -17.4211  -26.6673   21.4019 H   0  0  0  0  0  0
  -18.0316  -26.0056   22.9012 H   0  0  0  0  0  0
  -19.7941  -30.7267   24.2250 H   0  0  0  0  0  0
  -17.5021  -31.6269   24.5161 H   0  0  0  0  0  0
  -15.5353  -30.2980   23.7670 H   0  0  0  0  0  0
  -15.8671  -28.0823   22.7061 H   0  0  0  0  0  0
  -24.5877  -30.7103   25.7787 H   0  0  0  0  0  0
  -24.8929  -32.2905   26.4897 H   0  0  0  0  0  0
  -25.8039  -30.8893   27.0227 H   0  0  0  0  0  0
  -26.2943  -29.6753   24.1217 H   0  0  0  0  0  0
  -27.4006  -29.7279   25.4743 H   0  0  0  0  0  0
  -27.8822  -30.4289   23.9478 H   0  0  0  0  0  0
  -27.2631  -33.3607   26.2111 H   0  0  0  0  0  0
  -28.3844  -32.6919   25.0346 H   0  0  0  0  0  0
  -28.0710  -31.8437   26.5416 H   0  0  0  0  0  0
  -28.2607  -38.0101   24.7518 H   0  0  0  0  0  0
  -28.1067  -36.2642   24.6278 H   0  0  0  0  0  0
  -27.2290  -37.1453   25.8860 H   0  0  0  0  0  0
  -20.9354  -29.8756   21.6883 H   0  0  0  0  0  0
  -26.0179  -38.2870   24.1406 H   0  0  0  0  0  0
  -29.4628  -19.7855   18.6939 H   0  0  0  0  0  0
  -30.1018  -17.3869   22.9728 H   0  0  0  0  0  0
  -31.0598  -24.5150   20.8669 H   0  0  0  0  0  0
  -29.9578  -24.0285   22.1387 H   0  0  0  0  0  0
  -31.2785  -22.0711   22.0367 H   0  0  0  0  0  0
  -31.5487  -22.2112   20.3042 H   0  0  0  0  0  0
  -28.0525  -21.9898   19.4548 H   0  0  0  0  0  0
  -27.7757  -22.3527   21.1488 H   0  0  0  0  0  0
  -29.1997  -17.7635   17.5285 H   0  0  0  0  0  0
  -28.7758  -16.3137   18.4311 H   0  0  0  0  0  0
  -30.4644  -16.6344   18.0186 H   0  0  0  0  0  0
  -29.7031  -19.3523   24.1845 H   0  0  0  0  0  0
  -29.2039  -20.8414   23.4052 H   0  0  0  0  0  0
  -30.9243  -20.4544   23.5527 H   0  0  0  0  0  0
  -30.1980  -23.2280   18.3937 H   0  0  0  0  0  0
  -30.0710  -24.9737   18.5834 H   0  0  0  0  0  0
  -28.6850  -24.0452   18.0309 H   0  0  0  0  0  0
  -27.8307  -24.9906   21.5848 H   0  0  0  0  0  0
  -27.0972  -24.6865   20.0692 H   0  0  0  0  0  0
  -28.9594  -15.3360   21.3661 H   0  0  0  0  0  0
  1 25  1  0  0  0
  1 30  2  0  0  0
  1 86  1  0  0  0
  2  3  1  0  0  0
  2 25  1  0  0  0
  2 87  1  0  0  0
  2 88  1  0  0  0
  3  4  1  0  0  0
  3 89  1  0  0  0
  3 90  1  0  0  0
  4  5  1  0  0  0
  4 91  1  0  0  0
  4 92  1  0  0  0
  5  6  1  0  0  0
  5 26  1  0  0  0
  5 93  1  0  0  0
  6 25  1  0  0  0
  6 94  1  0  0  0
  6 95  1  0  0  0
  7  8  2  0  0  0
  7 26  1  0  0  0
  7 29  1  0  0  0
  8  9  1  0  0  0
  8 22  1  0  0  0
  9 10  1  0  0  0
  9 27  2  0  0  0
 10 11  2  0  0  0
 10 15  1  0  0  0
 11 12  1  0  0  0
 11 96  1  0  0  0
 12 13  2  0  0  0
 12 97  1  0  0  0
 13 14  1  0  0  0
 13 31  1  0  0  0
 14 15  2  0  0  0
 14 98  1  0  0  0
 15 99  1  0  0  0
 16 17  2  0  0  0
 16 21  1  0  0  0
 16 31  1  0  0  0
 17 18  1  0  0  0
 17100  1  0  0  0
 18 19  2  0  0  0
 18101  1  0  0  0
 19 20  1  0  0  0
 19 24  1  0  0  0
 20 21  2  0  0  0
 20102  1  0  0  0
 21 23  1  0  0  0
 22 28  1  0  0  0
 22 32  2  0  0  0
 26 27  1  0  0  0
 28103  1  0  0  0
 28104  1  0  0  0
 29105  1  0  0  0
 29106  1  0  0  0
 33 34  1  0  0  0
 33 66  1  0  0  0
 33 70  2  0  0  0
 34 36  1  0  0  0
 34 59  1  0  0  0
 34107  1  0  0  0
 35 44  2  0  0  0
 35 45  1  0  0  0
 35 68  1  0  0  0
 36 56  1  0  0  0
 36108  1  0  0  0
 37 39  1  0  0  0
 37 47  1  0  0  0
 37 66  1  0  0  0
 37109  1  0  0  0
 38 43  2  0  0  0
 38 46  1  0  0  0
 38 47  1  0  0  0
 39 64  1  0  0  0
 39 67  2  0  0  0
 40 52  1  0  0  0
 40 53  2  0  0  0
 40 58  1  0  0  0
 41110  1  0  0  0
 41111  1  0  0  0
 41112  1  0  0  0
 41 48  1  0  0  0
 42 43  1  0  0  0
 42 66  1  0  0  0
 42113  1  0  0  0
 42114  1  0  0  0
 43 44  1  0  0  0
 44115  1  0  0  0
 45 46  2  0  0  0
 45116  1  0  0  0
 46117  1  0  0  0
 47118  1  0  0  0
 47119  1  0  0  0
 48 56  1  0  0  0
 48 65  1  0  0  0
 48120  1  0  0  0
 49 50  1  0  0  0
 49 53  1  0  0  0
 49 64  1  0  0  0
 49121  1  0  0  0
 50 51  1  0  0  0
 50122  1  0  0  0
 50123  1  0  0  0
 51 52  1  0  0  0
 51124  1  0  0  0
 51125  1  0  0  0
 52126  1  0  0  0
 52127  1  0  0  0
 53 54  1  0  0  0
 54 55  2  0  0  0
 54128  1  0  0  0
 55 57  1  0  0  0
 55129  1  0  0  0
 56 69  2  0  0  0
 57 58  2  0  0  0
 57130  1  0  0  0
 58131  1  0  0  0
 59 60  1  0  0  0
 59 61  1  0  0  0
 59 62  1  0  0  0
 60132  1  0  0  0
 60133  1  0  0  0
 60134  1  0  0  0
 61135  1  0  0  0
 61136  1  0  0  0
 61137  1  0  0  0
 62138  1  0  0  0
 62139  1  0  0  0
 62140  1  0  0  0
 63 65  1  0  0  0
 63141  1  0  0  0
 63142  1  0  0  0
 63143  1  0  0  0
 64144  1  0  0  0
 65145  1  0  0  0
 68 84  1  0  0  0
 71 73  2  0  0  0
 71 75  1  0  0  0
 71146  1  0  0  0
 72 74  1  0  0  0
 72 76  2  0  0  0
 72147  1  0  0  0
 73 76  1  0  0  0
 73 81  1  0  0  0
 74 75  2  0  0  0
 74 82  1  0  0  0
 75 85  1  0  0  0
 76 86  1  0  0  0
 77 78  1  0  0  0
 77 80  1  0  0  0
 77148  1  0  0  0
 77149  1  0  0  0
 78 85  1  0  0  0
 78150  1  0  0  0
 78151  1  0  0  0
 79 80  1  0  0  0
 79 85  1  0  0  0
 79152  1  0  0  0
 79153  1  0  0  0
 80 83  1  0  0  0
 80 84  1  0  0  0
 81154  1  0  0  0
 81155  1  0  0  0
 81156  1  0  0  0
 82157  1  0  0  0
 82158  1  0  0  0
 82159  1  0  0  0
 83160  1  0  0  0
 83161  1  0  0  0
 83162  1  0  0  0
 84163  1  0  0  0
 84164  1  0  0  0
 86165  1  0  0  0
M  ISO  4   1 100  68 101  84 101  86 100
M  END
> <chiral flag>
0

> <version>
0

> <s_m_source_file>
/data/baiqing/PycharmProjects/Reinvent-master-3.2/result/LINK_invent/BTK/process_docking_weight1_custom_product_contain_oxygen_bond_distance_aromatic_linkinvent_7_9_3/rearranged_h_0147.sdf

> <i_m_source_file_index>
18

> <r_mmod_Potential_Energy-OPLS-2005>
164.377136230469

> <r_mmod_Stretch_Energy-OPLS-2005>
78.6458511352539

> <r_mmod_Bend_Energy-OPLS-2005>
178.488250732422

> <r_mmod_Torsional_Energy-OPLS-2005>
344.380889892578

> <r_mmod_Improper_Torsional_Energy-OPLS-2005>
4.73436069488525

> <r_mmod_Van_der_Waal_Energy-OPLS-2005>
136.360473632812

> <r_mmod_Electrostatic_Energy-OPLS-2005>
-419.768737792969

> <r_mmod_Solvation_Energy-OPLS-2005>
-209.872085571289

> <b_mmod_Minimization_Converged-OPLS-2005>
0

> <r_mmod_RMS_Derivative-OPLS-2005>
1.51353693008423

$$$$
18
                    3D
 Structure written by MMmdl.
161170  0  0  1  0            999 V2000
  -30.5999  -14.5284   20.5721 C   0  0  0  0  0  0
  -30.4409  -12.3331   19.4447 C   0  0  0  0  0  0
  -29.4999  -12.4916   18.2263 C   0  0  0  0  0  0
  -28.0270  -12.2972   18.6437 C   0  0  0  0  0  0
  -27.6401  -13.1874   19.8536 C   0  0  2  0  0  0
  -28.6733  -12.9956   20.9883 C   0  0  0  0  0  0
  -25.2471  -13.8165   20.5577 C   0  0  0  0  0  0
  -24.1692  -13.0453   20.9164 C   0  0  0  0  0  0
  -24.6230  -11.6930   20.8651 C   0  0  0  0  0  0
  -23.8897  -10.4342   21.0354 C   0  0  0  0  0  0
  -24.3536   -9.4319   21.9137 C   0  0  0  0  0  0
  -23.6298   -8.2304   22.0717 C   0  0  0  0  0  0
  -22.4274   -8.0288   21.3514 C   0  0  0  0  0  0
  -21.9828   -9.0232   20.4617 C   0  0  0  0  0  0
  -22.7076  -10.2155   20.3017 C   0  0  0  0  0  0
  -21.6904   -6.0731   22.5254 C   0  0  0  0  0  0
  -21.4054   -6.5645   23.8183 C   0  0  0  0  0  0
  -21.3645   -5.6805   24.9139 C   0  0  0  0  0  0
  -21.6033   -4.3054   24.7213 C   0  0  0  0  0  0
  -21.8846   -3.8155   23.4328 C   0  0  0  0  0  0
  -21.9221   -4.6958   22.3391 C   0  0  0  0  0  0
  -22.7749  -13.5293   21.1898 C   0  0  0  0  0  0
  -22.1689   -4.2157   21.0963 F   0  0  0  0  0  0
  -21.5596   -3.4540   25.7716 F   0  0  0  0  0  0
  -30.0052  -13.3122   20.4453 N   0  0  0  0  0  0
  -26.2839  -12.9253   20.3176 N   0  0  0  0  0  0
  -25.9128  -11.6456   20.5654 N   0  0  0  0  0  0
  -22.0433  -12.8214   22.0455 N   0  0  0  0  0  0
  -25.4190  -15.1857   20.3995 N   0  0  0  0  0  0
  -31.7747  -14.7501   20.2648 O   0  0  0  0  0  0
  -21.6682   -6.8852   21.4200 O   0  0  0  0  0  0
  -22.3416  -14.5602   20.6799 O   0  0  0  0  0  0
  -24.6142  -31.8765   23.2125 C   0  0  0  0  0  0
  -25.9045  -32.4905   23.8463 C   0  0  1  0  0  0
  -27.1900  -27.4092   20.1037 C   0  0  0  0  0  0
  -25.5868  -33.8696   24.2437 N   0  0  0  0  0  0
  -23.4074  -30.5119   21.5476 C   0  0  2  0  0  0
  -24.8359  -28.9825   20.1153 C   0  0  0  0  0  0
  -22.7485  -29.4739   22.4846 C   0  0  0  0  0  0
  -18.0289  -28.1483   22.8281 C   0  0  0  0  0  0
  -24.1442  -36.7322   23.2645 C   0  0  0  0  0  0
  -25.9376  -30.8421   21.3700 C   0  0  0  0  0  0
  -25.9997  -29.4734   20.7142 C   0  0  0  0  0  0
  -27.1771  -28.6883   20.7166 C   0  0  0  0  0  0
  -25.9975  -26.9547   19.4859 C   0  0  0  0  0  0
  -24.8299  -27.7251   19.4951 C   0  0  0  0  0  0
  -23.6150  -29.8595   20.1617 C   0  0  0  0  0  0
  -25.4088  -36.3184   24.0372 C   0  0  1  0  0  0
  -20.5860  -28.3849   23.0998 C   0  0  2  0  0  0
  -20.6753  -26.9578   22.5179 C   0  0  0  0  0  0
  -19.5666  -26.6399   21.5014 C   0  0  0  0  0  0
  -18.1917  -26.8050   22.1445 C   0  0  0  0  0  0
  -19.1524  -28.8998   23.2640 C   0  0  0  0  0  0
  -18.9338  -30.1503   23.8773 C   0  0  0  0  0  0
  -17.6309  -30.6476   24.0626 C   0  0  0  0  0  0
  -25.9005  -34.9526   23.5193 C   0  0  0  0  0  0
  -16.5212  -29.8951   23.6366 C   0  0  0  0  0  0
  -16.7217  -28.6466   23.0247 C   0  0  0  0  0  0
  -26.4475  -31.6665   25.0773 C   0  0  0  0  0  0
  -25.3779  -31.3850   26.1579 C   0  0  0  0  0  0
  -27.0322  -30.3081   24.6267 C   0  0  0  0  0  0
  -27.6033  -32.4402   25.7530 C   0  0  0  0  0  0
  -27.5593  -37.1836   24.8456 C   0  0  0  0  0  0
  -21.4198  -29.3218   22.3500 N   0  0  0  0  0  0
  -26.4318  -37.3814   23.9381 N   0  0  0  0  0  0
  -24.6729  -31.0925   22.1016 N   0  0  0  0  0  0
  -23.4193  -28.8290   23.2957 O   0  0  0  0  0  0
  -28.3549  -26.6544   20.1325 O   0  0  0  0  0  0
  -26.5536  -34.8934   22.4715 O   0  0  0  0  0  0
  -23.5292  -32.1533   23.7446 O   0  0  0  0  0  0
  -28.7424  -19.1075   21.0319 C   0  0  0  0  0  0
  -30.7627  -18.7617   22.3337 C   0  0  0  0  0  0
  -28.7186  -17.7342   20.7081 C   0  0  0  0  0  0
  -30.7430  -17.3851   22.0031 C   0  0  0  0  0  0
  -29.7820  -19.6574   21.8289 C   0  0  0  0  0  0
  -29.7499  -16.8702   21.1452 C   0  0  0  0  0  0
  -26.7868  -23.9983   21.0177 C   0  0  0  0  0  0
  -28.0198  -24.1824   20.5079 C   0  0  0  0  0  0
  -26.4093  -22.8196   21.8969 C   0  0  0  0  0  0
  -29.1287  -23.1392   20.7282 C   0  0  0  0  0  0
  -27.6577  -22.2043   22.5658 C   0  0  0  0  0  0
  -29.8828  -21.1705   22.1350 C   0  0  0  0  0  0
  -28.3664  -25.3321   19.5436 C   0  0  0  0  0  0
  -29.6750  -15.5019   20.7529 N   0  0  0  0  0  0
  -28.7435  -21.9588   21.5727 N   0  3  2  0  0  0
  -31.4859  -12.4737   19.1565 H   0  0  0  0  0  0
  -30.3680  -11.3316   19.8683 H   0  0  0  0  0  0
  -29.7733  -11.7773   17.4475 H   0  0  0  0  0  0
  -29.6236  -13.4898   17.7920 H   0  0  0  0  0  0
  -27.8971  -11.2476   18.9170 H   0  0  0  0  0  0
  -27.3673  -12.4758   17.7965 H   0  0  0  0  0  0
  -27.6693  -14.2203   19.5057 H   0  0  0  0  0  0
  -28.6541  -11.9705   21.3519 H   0  0  0  0  0  0
  -28.4139  -13.6126   21.8494 H   0  0  0  0  0  0
  -25.2683   -9.5896   22.4669 H   0  0  0  0  0  0
  -24.0082   -7.4732   22.7422 H   0  0  0  0  0  0
  -21.0777   -8.8726   19.8936 H   0  0  0  0  0  0
  -22.3494  -10.9683   19.6138 H   0  0  0  0  0  0
  -21.2088   -7.6166   23.9694 H   0  0  0  0  0  0
  -21.1396   -6.0509   25.9034 H   0  0  0  0  0  0
  -22.0623   -2.7617   23.2827 H   0  0  0  0  0  0
  -22.4180  -11.9875   22.4751 H   0  0  0  0  0  0
  -21.1056  -13.1123   22.2818 H   0  0  0  0  0  0
  -24.6504  -15.8365   20.5224 H   0  0  0  0  0  0
  -26.2561  -15.6227   20.0443 H   0  0  0  0  0  0
  -26.7229  -32.5640   23.1312 H   0  0  0  0  0  0
  -25.0007  -33.9857   25.0611 H   0  0  0  0  0  0
  -22.6906  -31.3251   21.3986 H   0  0  0  0  0  0
  -23.3716  -35.9628   23.3342 H   0  0  0  0  0  0
  -24.3532  -36.8898   22.2043 H   0  0  0  0  0  0
  -23.7183  -37.6547   23.6616 H   0  0  0  0  0  0
  -26.0879  -31.6058   20.6036 H   0  0  0  0  0  0
  -26.8165  -30.8704   22.0018 H   0  0  0  0  0  0
  -28.0705  -29.0637   21.1932 H   0  0  0  0  0  0
  -25.9064  -25.9989   18.9978 H   0  0  0  0  0  0
  -23.9356  -27.3575   19.0142 H   0  0  0  0  0  0
  -23.7531  -30.6454   19.4085 H   0  0  0  0  0  0
  -22.7330  -29.2892   19.8585 H   0  0  0  0  0  0
  -25.1253  -36.2135   25.0899 H   0  0  0  0  0  0
  -21.0016  -28.3251   24.1003 H   0  0  0  0  0  0
  -20.5847  -26.2645   23.3532 H   0  0  0  0  0  0
  -21.6638  -26.7882   22.0854 H   0  0  0  0  0  0
  -19.6505  -25.6188   21.1257 H   0  0  0  0  0  0
  -19.6512  -27.3066   20.6433 H   0  0  0  0  0  0
  -17.4259  -26.6931   21.3676 H   0  0  0  0  0  0
  -18.0413  -26.0179   22.8893 H   0  0  0  0  0  0
  -19.7774  -30.7354   24.2176 H   0  0  0  0  0  0
  -17.4791  -31.6055   24.5417 H   0  0  0  0  0  0
  -15.5142  -30.2675   23.7819 H   0  0  0  0  0  0
  -15.8648  -28.0676   22.7033 H   0  0  0  0  0  0
  -24.5889  -30.7248   25.8011 H   0  0  0  0  0  0
  -24.9020  -32.3005   26.5115 H   0  0  0  0  0  0
  -25.8148  -30.9032   27.0351 H   0  0  0  0  0  0
  -26.2920  -29.6837   24.1277 H   0  0  0  0  0  0
  -27.3961  -29.7404   25.4859 H   0  0  0  0  0  0
  -27.8792  -30.4312   23.9515 H   0  0  0  0  0  0
  -27.2675  -33.3684   26.2187 H   0  0  0  0  0  0
  -28.3794  -32.7102   25.0350 H   0  0  0  0  0  0
  -28.0811  -31.8567   26.5427 H   0  0  0  0  0  0
  -28.2662  -38.0109   24.7482 H   0  0  0  0  0  0
  -28.1084  -36.2625   24.6325 H   0  0  0  0  0  0
  -27.2276  -37.1508   25.8874 H   0  0  0  0  0  0
  -20.9395  -29.9069   21.6833 H   0  0  0  0  0  0
  -26.0250  -38.2889   24.1515 H   0  0  0  0  0  0
  -27.9450  -19.7205   20.6403 H   0  0  0  0  0  0
  -31.5507  -19.1286   22.9773 H   0  0  0  0  0  0
  -27.8976  -17.3704   20.1046 H   0  0  0  0  0  0
  -31.4900  -16.7243   22.4236 H   0  0  0  0  0  0
  -25.9899  -24.6888   20.7935 H   0  0  0  0  0  0
  -25.8471  -22.0838   21.3080 H   0  0  0  0  0  0
  -25.7205  -23.1647   22.6668 H   0  0  0  0  0  0
  -30.0148  -23.6379   21.1162 H   0  0  0  0  0  0
  -29.3993  -22.7246   19.7507 H   0  0  0  0  0  0
  -27.4014  -21.2721   23.0733 H   0  0  0  0  0  0
  -28.0325  -22.8893   23.3273 H   0  0  0  0  0  0
  -30.8404  -21.5328   21.7491 H   0  0  0  0  0  0
  -29.9395  -21.3416   23.2128 H   0  0  0  0  0  0
  -29.3705  -25.1581   19.1726 H   0  0  0  0  0  0
  -27.7658  -25.2586   18.6431 H   0  0  0  0  0  0
  -28.7459  -15.1718   20.5558 H   0  0  0  0  0  0
  -28.3499  -21.3217   20.9053 H   0  0  0  0  0  0
  1 25  1  0  0  0
  1 30  2  0  0  0
  1 84  1  0  0  0
  2  3  1  0  0  0
  2 25  1  0  0  0
  2 86  1  0  0  0
  2 87  1  0  0  0
  3  4  1  0  0  0
  3 88  1  0  0  0
  3 89  1  0  0  0
  4  5  1  0  0  0
  4 90  1  0  0  0
  4 91  1  0  0  0
  5  6  1  0  0  0
  5 26  1  0  0  0
  5 92  1  0  0  0
  6 25  1  0  0  0
  6 93  1  0  0  0
  6 94  1  0  0  0
  7  8  2  0  0  0
  7 26  1  0  0  0
  7 29  1  0  0  0
  8  9  1  0  0  0
  8 22  1  0  0  0
  9 10  1  0  0  0
  9 27  2  0  0  0
 10 11  2  0  0  0
 10 15  1  0  0  0
 11 12  1  0  0  0
 11 95  1  0  0  0
 12 13  2  0  0  0
 12 96  1  0  0  0
 13 14  1  0  0  0
 13 31  1  0  0  0
 14 15  2  0  0  0
 14 97  1  0  0  0
 15 98  1  0  0  0
 16 17  2  0  0  0
 16 21  1  0  0  0
 16 31  1  0  0  0
 17 18  1  0  0  0
 17 99  1  0  0  0
 18 19  2  0  0  0
 18100  1  0  0  0
 19 20  1  0  0  0
 19 24  1  0  0  0
 20 21  2  0  0  0
 20101  1  0  0  0
 21 23  1  0  0  0
 22 28  1  0  0  0
 22 32  2  0  0  0
 26 27  1  0  0  0
 28102  1  0  0  0
 28103  1  0  0  0
 29104  1  0  0  0
 29105  1  0  0  0
 33 34  1  0  0  0
 33 66  1  0  0  0
 33 70  2  0  0  0
 34 36  1  0  0  0
 34 59  1  0  0  0
 34106  1  0  0  0
 35 44  2  0  0  0
 35 45  1  0  0  0
 35 68  1  0  0  0
 36 56  1  0  0  0
 36107  1  0  0  0
 37 39  1  0  0  0
 37 47  1  0  0  0
 37 66  1  0  0  0
 37108  1  0  0  0
 38 43  2  0  0  0
 38 46  1  0  0  0
 38 47  1  0  0  0
 39 64  1  0  0  0
 39 67  2  0  0  0
 40 52  1  0  0  0
 40 53  2  0  0  0
 40 58  1  0  0  0
 41109  1  0  0  0
 41110  1  0  0  0
 41111  1  0  0  0
 41 48  1  0  0  0
 42 43  1  0  0  0
 42 66  1  0  0  0
 42112  1  0  0  0
 42113  1  0  0  0
 43 44  1  0  0  0
 44114  1  0  0  0
 45 46  2  0  0  0
 45115  1  0  0  0
 46116  1  0  0  0
 47117  1  0  0  0
 47118  1  0  0  0
 48 56  1  0  0  0
 48 65  1  0  0  0
 48119  1  0  0  0
 49 50  1  0  0  0
 49 53  1  0  0  0
 49 64  1  0  0  0
 49120  1  0  0  0
 50 51  1  0  0  0
 50121  1  0  0  0
 50122  1  0  0  0
 51 52  1  0  0  0
 51123  1  0  0  0
 51124  1  0  0  0
 52125  1  0  0  0
 52126  1  0  0  0
 53 54  1  0  0  0
 54 55  2  0  0  0
 54127  1  0  0  0
 55 57  1  0  0  0
 55128  1  0  0  0
 56 69  2  0  0  0
 57 58  2  0  0  0
 57129  1  0  0  0
 58130  1  0  0  0
 59 60  1  0  0  0
 59 61  1  0  0  0
 59 62  1  0  0  0
 60131  1  0  0  0
 60132  1  0  0  0
 60133  1  0  0  0
 61134  1  0  0  0
 61135  1  0  0  0
 61136  1  0  0  0
 62137  1  0  0  0
 62138  1  0  0  0
 62139  1  0  0  0
 63 65  1  0  0  0
 63140  1  0  0  0
 63141  1  0  0  0
 63142  1  0  0  0
 64143  1  0  0  0
 65144  1  0  0  0
 68 83  1  0  0  0
 71 73  2  0  0  0
 71 75  1  0  0  0
 71145  1  0  0  0
 72 74  1  0  0  0
 72 75  2  0  0  0
 72146  1  0  0  0
 73 76  1  0  0  0
 73147  1  0  0  0
 74 76  2  0  0  0
 74148  1  0  0  0
 75 82  1  0  0  0
 76 84  1  0  0  0
 77 78  2  0  0  0
 77 79  1  0  0  0
 77149  1  0  0  0
 78 80  1  0  0  0
 78 83  1  0  0  0
 79 81  1  0  0  0
 79150  1  0  0  0
 79151  1  0  0  0
 80 85  1  0  0  0
 80152  1  0  0  0
 80153  1  0  0  0
 81 85  1  0  0  0
 81154  1  0  0  0
 81155  1  0  0  0
 82156  1  0  0  0
 82157  1  0  0  0
 82 85  1  0  0  0
 83158  1  0  0  0
 83159  1  0  0  0
 84160  1  0  0  0
 85161  1  0  0  0
M  CHG  1  85   1
M  ISO  4   1 100  68 101  83 101  84 100
M  END
> <chiral flag>
0

> <version>
0

> <s_m_source_file>
/data/baiqing/PycharmProjects/Reinvent-master-3.2/result/LINK_invent/BTK/process_docking_weight1_custom_product_contain_oxygen_bond_distance_aromatic_linkinvent_7_9_3/rearranged_h_0147.sdf

> <i_m_source_file_index>
19

> <r_mmod_Potential_Energy-OPLS-2005>
-90.8447647094727

> <r_mmod_Stretch_Energy-OPLS-2005>
44.7142143249512

> <r_mmod_Bend_Energy-OPLS-2005>
121.921508789062

> <r_mmod_Torsional_Energy-OPLS-2005>
233.300750732422

> <r_mmod_Improper_Torsional_Energy-OPLS-2005>
8.31439971923828

> <r_mmod_Van_der_Waal_Energy-OPLS-2005>
165.768615722656

> <r_mmod_Electrostatic_Energy-OPLS-2005>
-254.479629516602

> <r_mmod_Solvation_Energy-OPLS-2005>
-439.723785400391

> <b_mmod_Minimization_Converged-OPLS-2005>
0

> <r_mmod_RMS_Derivative-OPLS-2005>
12.4664859771729

$$$$
19
                    3D
 Structure written by MMmdl.
154163  0  0  1  0            999 V2000
  -30.5984  -14.7570   20.4590 C   0  0  0  0  0  0
  -30.4340  -12.4593   19.4882 C   0  0  0  0  0  0
  -29.5151  -12.5228   18.2466 C   0  0  0  0  0  0
  -28.0407  -12.3419   18.6539 C   0  0  0  0  0  0
  -27.6458  -13.2335   19.8601 C   0  0  2  0  0  0
  -28.6871  -13.1571   20.9997 C   0  0  0  0  0  0
  -25.2512  -13.8206   20.5676 C   0  0  0  0  0  0
  -24.1797  -13.0457   20.9184 C   0  0  0  0  0  0
  -24.6386  -11.6929   20.8737 C   0  0  0  0  0  0
  -23.9056  -10.4306   21.0397 C   0  0  0  0  0  0
  -24.3605   -9.4221   21.9175 C   0  0  0  0  0  0
  -23.6280   -8.2259   22.0744 C   0  0  0  0  0  0
  -22.4260   -8.0294   21.3543 C   0  0  0  0  0  0
  -21.9886   -9.0267   20.4652 C   0  0  0  0  0  0
  -22.7216  -10.2147   20.3059 C   0  0  0  0  0  0
  -21.6859   -6.0730   22.5266 C   0  0  0  0  0  0
  -21.4024   -6.5629   23.8199 C   0  0  0  0  0  0
  -21.3661   -5.6781   24.9165 C   0  0  0  0  0  0
  -21.6041   -4.3044   24.7215 C   0  0  0  0  0  0
  -21.8823   -3.8136   23.4338 C   0  0  0  0  0  0
  -21.9195   -4.6955   22.3392 C   0  0  0  0  0  0
  -22.7826  -13.5251   21.1844 C   0  0  0  0  0  0
  -22.1665   -4.2141   21.0969 F   0  0  0  0  0  0
  -21.5621   -3.4526   25.7731 F   0  0  0  0  0  0
  -29.9947  -13.5150   20.4336 N   0  0  0  0  0  0
  -26.2950  -12.9412   20.3308 N   0  0  0  0  0  0
  -25.9325  -11.6550   20.5761 N   0  0  0  0  0  0
  -22.0460  -12.8270   22.0415 N   0  0  0  0  0  0
  -25.4216  -15.1928   20.4051 N   0  0  0  0  0  0
  -31.7590  -14.8743   20.0517 O   0  0  0  0  0  0
  -21.6642   -6.8880   21.4229 O   0  0  0  0  0  0
  -22.3518  -14.5551   20.6680 O   0  0  0  0  0  0
  -24.6329  -31.8545   23.1969 C   0  0  0  0  0  0
  -25.9157  -32.4741   23.8319 C   0  0  1  0  0  0
  -27.2176  -27.2385   20.1236 C   0  0  0  0  0  0
  -25.5951  -33.8541   24.2247 N   0  0  0  0  0  0
  -23.4296  -30.4775   21.5408 C   0  0  2  0  0  0
  -24.8775  -28.9254   20.1058 C   0  0  0  0  0  0
  -22.7507  -29.4600   22.4897 C   0  0  0  0  0  0
  -18.0304  -28.1391   22.8473 C   0  0  0  0  0  0
  -24.1496  -36.7281   23.2634 C   0  0  0  0  0  0
  -25.9783  -30.7574   21.3843 C   0  0  0  0  0  0
  -26.0488  -29.3785   20.7248 C   0  0  0  0  0  0
  -27.2163  -28.5446   20.7302 C   0  0  0  0  0  0
  -26.0267  -26.8747   19.4514 C   0  0  0  0  0  0
  -24.8737  -27.6821   19.4593 C   0  0  0  0  0  0
  -23.6487  -29.8137   20.1558 C   0  0  0  0  0  0
  -25.4118  -36.3055   24.0321 C   0  0  1  0  0  0
  -20.5903  -28.3706   23.1256 C   0  0  2  0  0  0
  -20.6795  -26.9423   22.5397 C   0  0  0  0  0  0
  -19.5768  -26.6380   21.5205 C   0  0  0  0  0  0
  -18.1952  -26.7930   22.1622 C   0  0  0  0  0  0
  -19.1555  -28.8866   23.2862 C   0  0  0  0  0  0
  -18.9473  -30.1465   23.8885 C   0  0  0  0  0  0
  -17.6468  -30.6589   24.0556 C   0  0  0  0  0  0
  -25.9058  -34.9428   23.5086 C   0  0  0  0  0  0
  -16.5363  -29.9080   23.6325 C   0  0  0  0  0  0
  -16.7290  -28.6500   23.0347 C   0  0  0  0  0  0
  -26.4515  -31.6570   25.0716 C   0  0  0  0  0  0
  -25.3744  -31.3770   26.1456 C   0  0  0  0  0  0
  -27.0329  -30.2959   24.6237 C   0  0  0  0  0  0
  -27.6088  -32.4300   25.7470 C   0  0  0  0  0  0
  -27.5587  -37.1785   24.8454 C   0  0  0  0  0  0
  -21.4212  -29.3051   22.3639 N   0  0  0  0  0  0
  -26.4290  -37.3758   23.9407 N   0  0  0  0  0  0
  -24.6992  -31.0486   22.0961 N   0  0  0  0  0  0
  -23.4200  -28.8143   23.3007 O   0  0  0  0  0  0
  -28.3048  -26.3263   20.2183 O   0  0  0  0  0  0
  -26.5621  -34.8908   22.4650 O   0  0  0  0  0  0
  -23.5478  -32.1395   23.7246 O   0  0  0  0  0  0
  -29.7298  -18.5280   21.0693 C   0  0  0  0  0  0
  -29.7998  -17.5291   18.9661 C   0  0  0  0  0  0
  -29.8399  -17.2653   20.3113 C   0  0  0  0  0  0
  -29.6694  -19.7296   20.3170 C   0  0  0  0  0  0
  -31.0030  -21.3776   21.2232 C   0  0  0  0  0  0
  -28.8199  -23.6869   20.5799 C   0  0  0  0  0  0
  -31.7011  -22.5206   20.4943 C   0  0  0  0  0  0
  -30.7892  -22.7283   19.2832 C   0  0  0  0  0  0
  -29.4218  -22.3379   19.8549 C   0  0  1  0  0  0
  -28.1900  -24.8959   19.7251 C   0  0  0  0  0  0
  -29.7954  -21.0904   20.6911 N   0  0  0  0  0  0
  -29.8553  -15.8697   20.8394 N   0  0  0  0  0  0
  -31.5380  -20.7876   22.1667 O   0  0  0  0  0  0
  -28.8549  -23.8074   21.8087 O   0  0  0  0  0  0
  -29.6329  -19.2510   18.6256 S   0  0  0  0  0  0
  -31.4763  -12.5785   19.1892 H   0  0  0  0  0  0
  -30.3760  -11.4782   19.9619 H   0  0  0  0  0  0
  -29.7983  -11.7580   17.5231 H   0  0  0  0  0  0
  -29.6429  -13.4835   17.7450 H   0  0  0  0  0  0
  -27.8966  -11.2913   18.9086 H   0  0  0  0  0  0
  -27.3882  -12.5423   17.8035 H   0  0  0  0  0  0
  -27.6454  -14.2579   19.4862 H   0  0  0  0  0  0
  -28.7190  -12.1526   21.4262 H   0  0  0  0  0  0
  -28.4138  -13.8238   21.8188 H   0  0  0  0  0  0
  -25.2745   -9.5696   22.4755 H   0  0  0  0  0  0
  -23.9985   -7.4649   22.7466 H   0  0  0  0  0  0
  -21.0805   -8.8794   19.8967 H   0  0  0  0  0  0
  -22.3661  -10.9688   19.6182 H   0  0  0  0  0  0
  -21.2026   -7.6136   23.9708 H   0  0  0  0  0  0
  -21.1473   -6.0507   25.9067 H   0  0  0  0  0  0
  -22.0598   -2.7599   23.2845 H   0  0  0  0  0  0
  -22.4058  -11.9947   22.4838 H   0  0  0  0  0  0
  -21.1091  -13.1340   22.2622 H   0  0  0  0  0  0
  -24.6507  -15.8462   20.4929 H   0  0  0  0  0  0
  -26.2699  -15.6250   20.0600 H   0  0  0  0  0  0
  -26.7218  -32.5383   23.1052 H   0  0  0  0  0  0
  -25.0096  -33.9672   25.0390 H   0  0  0  0  0  0
  -22.7271  -31.3007   21.3951 H   0  0  0  0  0  0
  -23.3767  -35.9602   23.3254 H   0  0  0  0  0  0
  -24.3600  -36.8950   22.2057 H   0  0  0  0  0  0
  -23.7241  -37.6464   23.6691 H   0  0  0  0  0  0
  -26.1253  -31.5192   20.6172 H   0  0  0  0  0  0
  -26.8521  -30.8023   22.0222 H   0  0  0  0  0  0
  -28.1067  -28.8807   21.2430 H   0  0  0  0  0  0
  -25.9352  -25.9466   18.9111 H   0  0  0  0  0  0
  -23.9811  -27.3356   18.9567 H   0  0  0  0  0  0
  -23.7733  -30.5916   19.4017 H   0  0  0  0  0  0
  -22.7657  -29.2496   19.8490 H   0  0  0  0  0  0
  -25.1301  -36.1890   25.0812 H   0  0  0  0  0  0
  -21.0001  -28.3300   24.1375 H   0  0  0  0  0  0
  -20.5709  -26.2316   23.3603 H   0  0  0  0  0  0
  -21.6667  -26.7455   22.1191 H   0  0  0  0  0  0
  -19.6933  -25.6286   21.1248 H   0  0  0  0  0  0
  -19.6701  -27.3175   20.6721 H   0  0  0  0  0  0
  -17.4213  -26.6657   21.4039 H   0  0  0  0  0  0
  -18.0368  -26.0084   22.9031 H   0  0  0  0  0  0
  -19.7946  -30.7286   24.2255 H   0  0  0  0  0  0
  -17.5020  -31.6270   24.5151 H   0  0  0  0  0  0
  -15.5363  -30.2975   23.7654 H   0  0  0  0  0  0
  -15.8692  -28.0807   22.7073 H   0  0  0  0  0  0
  -24.5794  -30.7282   25.7769 H   0  0  0  0  0  0
  -24.9105  -32.2977   26.4999 H   0  0  0  0  0  0
  -25.8030  -30.8796   27.0162 H   0  0  0  0  0  0
  -26.2896  -29.6708   24.1274 H   0  0  0  0  0  0
  -27.3981  -29.7238   25.4776 H   0  0  0  0  0  0
  -27.8807  -30.4187   23.9494 H   0  0  0  0  0  0
  -27.2723  -33.3613   26.2036 H   0  0  0  0  0  0
  -28.3894  -32.6835   25.0285 H   0  0  0  0  0  0
  -28.0756  -31.8426   26.5386 H   0  0  0  0  0  0
  -28.2584  -38.0101   24.7521 H   0  0  0  0  0  0
  -28.1106  -36.2635   24.6249 H   0  0  0  0  0  0
  -27.2312  -37.1395   25.8858 H   0  0  0  0  0  0
  -20.9399  -29.8762   21.6828 H   0  0  0  0  0  0
  -26.0168  -38.2828   24.1417 H   0  0  0  0  0  0
  -29.7526  -18.5190   22.1504 H   0  0  0  0  0  0
  -29.8278  -16.8320   18.1385 H   0  0  0  0  0  0
  -32.7178  -22.2551   20.2023 H   0  0  0  0  0  0
  -31.7380  -23.3985   21.1402 H   0  0  0  0  0  0
  -31.0730  -22.0606   18.4687 H   0  0  0  0  0  0
  -30.8350  -23.7483   18.8990 H   0  0  0  0  0  0
  -28.7463  -22.0550   19.0471 H   0  0  0  0  0  0
  -27.1482  -24.6009   19.6455 H   0  0  0  0  0  0
  -28.5980  -24.8481   18.7159 H   0  0  0  0  0  0
  -29.0561  -15.6367   21.4122 H   0  0  0  0  0  0
  1 25  1  0  0  0
  1 30  2  0  0  0
  1 82  1  0  0  0
  2  3  1  0  0  0
  2 25  1  0  0  0
  2 86  1  0  0  0
  2 87  1  0  0  0
  3  4  1  0  0  0
  3 88  1  0  0  0
  3 89  1  0  0  0
  4  5  1  0  0  0
  4 90  1  0  0  0
  4 91  1  0  0  0
  5  6  1  0  0  0
  5 26  1  0  0  0
  5 92  1  0  0  0
  6 25  1  0  0  0
  6 93  1  0  0  0
  6 94  1  0  0  0
  7  8  2  0  0  0
  7 26  1  0  0  0
  7 29  1  0  0  0
  8  9  1  0  0  0
  8 22  1  0  0  0
  9 10  1  0  0  0
  9 27  2  0  0  0
 10 11  2  0  0  0
 10 15  1  0  0  0
 11 12  1  0  0  0
 11 95  1  0  0  0
 12 13  2  0  0  0
 12 96  1  0  0  0
 13 14  1  0  0  0
 13 31  1  0  0  0
 14 15  2  0  0  0
 14 97  1  0  0  0
 15 98  1  0  0  0
 16 17  2  0  0  0
 16 21  1  0  0  0
 16 31  1  0  0  0
 17 18  1  0  0  0
 17 99  1  0  0  0
 18 19  2  0  0  0
 18100  1  0  0  0
 19 20  1  0  0  0
 19 24  1  0  0  0
 20 21  2  0  0  0
 20101  1  0  0  0
 21 23  1  0  0  0
 22 28  1  0  0  0
 22 32  2  0  0  0
 26 27  1  0  0  0
 28102  1  0  0  0
 28103  1  0  0  0
 29104  1  0  0  0
 29105  1  0  0  0
 33 34  1  0  0  0
 33 66  1  0  0  0
 33 70  2  0  0  0
 34 36  1  0  0  0
 34 59  1  0  0  0
 34106  1  0  0  0
 35 44  2  0  0  0
 35 45  1  0  0  0
 35 68  1  0  0  0
 36 56  1  0  0  0
 36107  1  0  0  0
 37 39  1  0  0  0
 37 47  1  0  0  0
 37 66  1  0  0  0
 37108  1  0  0  0
 38 43  2  0  0  0
 38 46  1  0  0  0
 38 47  1  0  0  0
 39 64  1  0  0  0
 39 67  2  0  0  0
 40 52  1  0  0  0
 40 53  2  0  0  0
 40 58  1  0  0  0
 41109  1  0  0  0
 41110  1  0  0  0
 41111  1  0  0  0
 41 48  1  0  0  0
 42 43  1  0  0  0
 42 66  1  0  0  0
 42112  1  0  0  0
 42113  1  0  0  0
 43 44  1  0  0  0
 44114  1  0  0  0
 45 46  2  0  0  0
 45115  1  0  0  0
 46116  1  0  0  0
 47117  1  0  0  0
 47118  1  0  0  0
 48 56  1  0  0  0
 48 65  1  0  0  0
 48119  1  0  0  0
 49 50  1  0  0  0
 49 53  1  0  0  0
 49 64  1  0  0  0
 49120  1  0  0  0
 50 51  1  0  0  0
 50121  1  0  0  0
 50122  1  0  0  0
 51 52  1  0  0  0
 51123  1  0  0  0
 51124  1  0  0  0
 52125  1  0  0  0
 52126  1  0  0  0
 53 54  1  0  0  0
 54 55  2  0  0  0
 54127  1  0  0  0
 55 57  1  0  0  0
 55128  1  0  0  0
 56 69  2  0  0  0
 57 58  2  0  0  0
 57129  1  0  0  0
 58130  1  0  0  0
 59 60  1  0  0  0
 59 61  1  0  0  0
 59 62  1  0  0  0
 60131  1  0  0  0
 60132  1  0  0  0
 60133  1  0  0  0
 61134  1  0  0  0
 61135  1  0  0  0
 61136  1  0  0  0
 62137  1  0  0  0
 62138  1  0  0  0
 62139  1  0  0  0
 63 65  1  0  0  0
 63140  1  0  0  0
 63141  1  0  0  0
 63142  1  0  0  0
 64143  1  0  0  0
 65144  1  0  0  0
 68 80  1  0  0  0
 71 73  1  0  0  0
 71 74  2  0  0  0
 71145  1  0  0  0
 72 73  2  0  0  0
 72 85  1  0  0  0
 72146  1  0  0  0
 73 82  1  0  0  0
 74 81  1  0  0  0
 74 85  1  0  0  0
 75 77  1  0  0  0
 75 81  1  0  0  0
 75 83  2  0  0  0
 76 80  1  0  0  0
 76 84  2  0  0  0
 76 79  1  0  0  0
 77 78  1  0  0  0
 77147  1  0  0  0
 77148  1  0  0  0
 78 79  1  0  0  0
 78149  1  0  0  0
 78150  1  0  0  0
 79 81  1  0  0  0
 79151  1  0  0  0
 80152  1  0  0  0
 80153  1  0  0  0
 82154  1  0  0  0
M  ISO  4   1 100  68 101  80 101  82 100
M  END
> <chiral flag>
0

> <version>
0

> <s_m_source_file>
/data/baiqing/PycharmProjects/Reinvent-master-3.2/result/LINK_invent/BTK/process_docking_weight1_custom_product_contain_oxygen_bond_distance_aromatic_linkinvent_7_9_3/rearranged_h_0147.sdf

> <i_m_source_file_index>
20

> <r_mmod_Potential_Energy-OPLS-2005>
307.334716796875

> <r_mmod_Stretch_Energy-OPLS-2005>
141.473648071289

> <r_mmod_Bend_Energy-OPLS-2005>
223.210494995117

> <r_mmod_Torsional_Energy-OPLS-2005>
314.951324462891

> <r_mmod_Improper_Torsional_Energy-OPLS-2005>
7.76308393478394

> <r_mmod_Van_der_Waal_Energy-OPLS-2005>
121.330635070801

> <r_mmod_Electrostatic_Energy-OPLS-2005>
-338.696105957031

> <r_mmod_Solvation_Energy-OPLS-2005>
-257.772674560547

> <b_mmod_Minimization_Converged-OPLS-2005>
0

> <r_mmod_RMS_Derivative-OPLS-2005>
1.61824703216553

$$$$
20
                    3D
 Structure written by MMmdl.
155163  0  0  1  0            999 V2000
  -30.6814  -14.6657   20.5377 C   0  0  0  0  0  0
  -30.4230  -12.4322   19.4538 C   0  0  0  0  0  0
  -29.5038  -12.5138   18.2154 C   0  0  0  0  0  0
  -28.0291  -12.3403   18.6308 C   0  0  0  0  0  0
  -27.6413  -13.2246   19.8463 C   0  0  2  0  0  0
  -28.6849  -13.0948   20.9726 C   0  0  0  0  0  0
  -25.2507  -13.8163   20.5680 C   0  0  0  0  0  0
  -24.1784  -13.0423   20.9196 C   0  0  0  0  0  0
  -24.6350  -11.6903   20.8702 C   0  0  0  0  0  0
  -23.9007  -10.4288   21.0367 C   0  0  0  0  0  0
  -24.3572   -9.4214   21.9171 C   0  0  0  0  0  0
  -23.6274   -8.2230   22.0743 C   0  0  0  0  0  0
  -22.4254   -8.0251   21.3534 C   0  0  0  0  0  0
  -21.9860   -9.0212   20.4634 C   0  0  0  0  0  0
  -22.7155  -10.2122   20.3035 C   0  0  0  0  0  0
  -21.6847   -6.0705   22.5280 C   0  0  0  0  0  0
  -21.4001   -6.5618   23.8209 C   0  0  0  0  0  0
  -21.3675   -5.6778   24.9174 C   0  0  0  0  0  0
  -21.6072   -4.3037   24.7226 C   0  0  0  0  0  0
  -21.8810   -3.8126   23.4344 C   0  0  0  0  0  0
  -21.9176   -4.6933   22.3396 C   0  0  0  0  0  0
  -22.7822  -13.5253   21.1874 C   0  0  0  0  0  0
  -22.1643   -4.2130   21.0966 F   0  0  0  0  0  0
  -21.5664   -3.4517   25.7736 F   0  0  0  0  0  0
  -29.9855  -13.4817   20.4085 N   0  0  0  0  0  0
  -26.2917  -12.9358   20.3241 N   0  0  0  0  0  0
  -25.9269  -11.6507   20.5667 N   0  0  0  0  0  0
  -22.0430  -12.8269   22.0423 N   0  0  0  0  0  0
  -25.4194  -15.1872   20.4088 N   0  0  0  0  0  0
  -31.8580  -14.6915   20.1603 O   0  0  0  0  0  0
  -21.6642   -6.8834   21.4233 O   0  0  0  0  0  0
  -22.3528  -14.5573   20.6733 O   0  0  0  0  0  0
  -24.6189  -31.8648   23.2070 C   0  0  0  0  0  0
  -25.9058  -32.4819   23.8374 C   0  0  1  0  0  0
  -27.2149  -27.3451   20.1309 C   0  0  0  0  0  0
  -25.5909  -33.8613   24.2316 N   0  0  0  0  0  0
  -23.4143  -30.4862   21.5477 C   0  0  2  0  0  0
  -24.8592  -28.9349   20.1264 C   0  0  0  0  0  0
  -22.7457  -29.4645   22.4948 C   0  0  0  0  0  0
  -18.0288  -28.1391   22.8507 C   0  0  0  0  0  0
  -24.1482  -36.7302   23.2644 C   0  0  0  0  0  0
  -25.9509  -30.8030   21.3743 C   0  0  0  0  0  0
  -26.0265  -29.4250   20.7321 C   0  0  0  0  0  0
  -27.2137  -28.6395   20.7265 C   0  0  0  0  0  0
  -26.0337  -26.8943   19.5110 C   0  0  0  0  0  0
  -24.8607  -27.6721   19.5114 C   0  0  0  0  0  0
  -23.6300  -29.8189   20.1639 C   0  0  0  0  0  0
  -25.4111  -36.3120   24.0342 C   0  0  1  0  0  0
  -20.5877  -28.3706   23.1304 C   0  0  2  0  0  0
  -20.6759  -26.9423   22.5429 C   0  0  0  0  0  0
  -19.5732  -26.6384   21.5232 C   0  0  0  0  0  0
  -18.1912  -26.7944   22.1637 C   0  0  0  0  0  0
  -19.1533  -28.8863   23.2904 C   0  0  0  0  0  0
  -18.9471  -30.1466   23.8908 C   0  0  0  0  0  0
  -17.6469  -30.6602   24.0566 C   0  0  0  0  0  0
  -25.9040  -34.9478   23.5130 C   0  0  0  0  0  0
  -16.5356  -29.9094   23.6337 C   0  0  0  0  0  0
  -16.7274  -28.6512   23.0363 C   0  0  0  0  0  0
  -26.4483  -31.6624   25.0727 C   0  0  0  0  0  0
  -25.3735  -31.3722   26.1463 C   0  0  0  0  0  0
  -27.0325  -30.3062   24.6147 C   0  0  0  0  0  0
  -27.6056  -32.4352   25.7499 C   0  0  0  0  0  0
  -27.5588  -37.1796   24.8470 C   0  0  0  0  0  0
  -21.4164  -29.3064   22.3715 N   0  0  0  0  0  0
  -26.4301  -37.3804   23.9417 N   0  0  0  0  0  0
  -24.6796  -31.0693   22.1006 N   0  0  0  0  0  0
  -23.4195  -28.8176   23.3019 O   0  0  0  0  0  0
  -28.3354  -26.5322   20.0143 O   0  0  0  0  0  0
  -26.5603  -34.8933   22.4683 O   0  0  0  0  0  0
  -23.5361  -32.1425   23.7424 O   0  0  0  0  0  0
  -29.1396  -18.8234   22.1580 C   0  0  0  0  0  0
  -29.1168  -17.5299   22.5803 C   0  0  0  0  0  0
  -29.2344  -19.3582   20.7675 C   0  0  0  0  0  0
  -28.8764  -23.0255   20.8287 C   0  0  0  0  0  0
  -28.2062  -24.1835   21.1667 C   0  0  0  0  0  0
  -28.4611  -21.6269   21.1586 C   0  0  0  0  0  0
  -29.0719  -16.1702   21.8386 C   0  0  0  0  0  0
  -29.6376  -18.2834   19.7290 C   0  0  0  0  0  0
  -30.6230  -17.1489   20.1970 C   0  0  0  0  0  0
  -28.7310  -25.6592   21.1068 C   0  0  0  0  0  0
  -29.0908  -20.6111   20.3893 N   0  0  0  0  0  0
  -30.0277  -15.8868   20.7408 N   0  0  0  0  0  0
  -27.6467  -21.3958   22.0540 O   0  0  0  0  0  0
  -26.9908  -24.1934   21.7361 O   0  0  0  0  0  0
  -31.4659  -12.5403   19.1493 H   0  0  0  0  0  0
  -30.3548  -11.4465   19.9159 H   0  0  0  0  0  0
  -29.7766  -11.7518   17.4835 H   0  0  0  0  0  0
  -29.6415  -13.4740   17.7147 H   0  0  0  0  0  0
  -27.8819  -11.2916   18.8882 H   0  0  0  0  0  0
  -27.3688  -12.5336   17.7848 H   0  0  0  0  0  0
  -27.6514  -14.2564   19.4948 H   0  0  0  0  0  0
  -28.7226  -12.0636   21.3275 H   0  0  0  0  0  0
  -28.3981  -13.6768   21.8402 H   0  0  0  0  0  0
  -25.2680   -9.5762   22.4779 H   0  0  0  0  0  0
  -23.9994   -7.4634   22.7478 H   0  0  0  0  0  0
  -21.0777   -8.8670   19.8972 H   0  0  0  0  0  0
  -22.3510  -10.9646   19.6169 H   0  0  0  0  0  0
  -21.1969   -7.6125   23.9689 H   0  0  0  0  0  0
  -21.1529   -6.0523   25.9085 H   0  0  0  0  0  0
  -22.0572   -2.7587   23.2835 H   0  0  0  0  0  0
  -22.3977  -11.9961   22.4910 H   0  0  0  0  0  0
  -21.1051  -13.1360   22.2518 H   0  0  0  0  0  0
  -24.6518  -15.8409   20.5198 H   0  0  0  0  0  0
  -26.2666  -15.6268   20.0733 H   0  0  0  0  0  0
  -26.7131  -32.5532   23.1135 H   0  0  0  0  0  0
  -25.0040  -33.9766   25.0452 H   0  0  0  0  0  0
  -22.7055  -31.3042   21.4054 H   0  0  0  0  0  0
  -23.3768  -35.9615   23.3318 H   0  0  0  0  0  0
  -24.3558  -36.8896   22.2057 H   0  0  0  0  0  0
  -23.7207  -37.6497   23.6636 H   0  0  0  0  0  0
  -26.0680  -31.5656   20.6017 H   0  0  0  0  0  0
  -26.8341  -30.8590   21.9975 H   0  0  0  0  0  0
  -28.1244  -29.0207   21.1652 H   0  0  0  0  0  0
  -26.0213  -25.9279   19.0240 H   0  0  0  0  0  0
  -23.9632  -27.2945   19.0407 H   0  0  0  0  0  0
  -23.7578  -30.5935   19.4068 H   0  0  0  0  0  0
  -22.7489  -29.2519   19.8597 H   0  0  0  0  0  0
  -25.1287  -36.1982   25.0839 H   0  0  0  0  0  0
  -20.9967  -28.3256   24.1423 H   0  0  0  0  0  0
  -20.5670  -26.2310   23.3619 H   0  0  0  0  0  0
  -21.6627  -26.7452   22.1218 H   0  0  0  0  0  0
  -19.6894  -25.6299   21.1260 H   0  0  0  0  0  0
  -19.6673  -27.3202   20.6767 H   0  0  0  0  0  0
  -17.4182  -26.6699   21.4041 H   0  0  0  0  0  0
  -18.0310  -26.0091   22.9039 H   0  0  0  0  0  0
  -19.7946  -30.7285   24.2281 H   0  0  0  0  0  0
  -17.5028  -31.6283   24.5178 H   0  0  0  0  0  0
  -15.5360  -30.3010   23.7651 H   0  0  0  0  0  0
  -15.8677  -28.0837   22.7050 H   0  0  0  0  0  0
  -24.5907  -30.7089   25.7784 H   0  0  0  0  0  0
  -24.8938  -32.2879   26.4940 H   0  0  0  0  0  0
  -25.8083  -30.8861   27.0205 H   0  0  0  0  0  0
  -26.2878  -29.6827   24.1192 H   0  0  0  0  0  0
  -27.4073  -29.7310   25.4628 H   0  0  0  0  0  0
  -27.8730  -30.4391   23.9322 H   0  0  0  0  0  0
  -27.2668  -33.3639   26.2106 H   0  0  0  0  0  0
  -28.3846  -32.6930   25.0309 H   0  0  0  0  0  0
  -28.0744  -31.8452   26.5382 H   0  0  0  0  0  0
  -28.2610  -38.0093   24.7527 H   0  0  0  0  0  0
  -28.1070  -36.2613   24.6286 H   0  0  0  0  0  0
  -27.2282  -37.1450   25.8867 H   0  0  0  0  0  0
  -20.9327  -29.8796   21.6937 H   0  0  0  0  0  0
  -26.0195  -38.2874   24.1447 H   0  0  0  0  0  0
  -29.1550  -19.5850   22.9240 H   0  0  0  0  0  0
  -29.0728  -17.4109   23.6560 H   0  0  0  0  0  0
  -29.8265  -23.1454   20.3325 H   0  0  0  0  0  0
  -28.0579  -16.0185   21.4742 H   0  0  0  0  0  0
  -29.2420  -15.4378   22.6301 H   0  0  0  0  0  0
  -30.1154  -18.8094   18.9035 H   0  0  0  0  0  0
  -28.7340  -17.8455   19.3023 H   0  0  0  0  0  0
  -31.3524  -17.5483   20.9032 H   0  0  0  0  0  0
  -31.2130  -16.8984   19.3155 H   0  0  0  0  0  0
  -29.8182  -25.6006   21.0712 H   0  0  0  0  0  0
  -28.5091  -26.1575   22.0526 H   0  0  0  0  0  0
  -26.7631  -25.0992   21.9110 H   0  0  0  0  0  0
  1 25  1  0  0  0
  1 30  2  0  0  0
  1 82  1  0  0  0
  2  3  1  0  0  0
  2 25  1  0  0  0
  2 85  1  0  0  0
  2 86  1  0  0  0
  3  4  1  0  0  0
  3 87  1  0  0  0
  3 88  1  0  0  0
  4  5  1  0  0  0
  4 89  1  0  0  0
  4 90  1  0  0  0
  5  6  1  0  0  0
  5 26  1  0  0  0
  5 91  1  0  0  0
  6 25  1  0  0  0
  6 92  1  0  0  0
  6 93  1  0  0  0
  7  8  2  0  0  0
  7 26  1  0  0  0
  7 29  1  0  0  0
  8  9  1  0  0  0
  8 22  1  0  0  0
  9 10  1  0  0  0
  9 27  2  0  0  0
 10 11  2  0  0  0
 10 15  1  0  0  0
 11 12  1  0  0  0
 11 94  1  0  0  0
 12 13  2  0  0  0
 12 95  1  0  0  0
 13 14  1  0  0  0
 13 31  1  0  0  0
 14 15  2  0  0  0
 14 96  1  0  0  0
 15 97  1  0  0  0
 16 17  2  0  0  0
 16 21  1  0  0  0
 16 31  1  0  0  0
 17 18  1  0  0  0
 17 98  1  0  0  0
 18 19  2  0  0  0
 18 99  1  0  0  0
 19 20  1  0  0  0
 19 24  1  0  0  0
 20 21  2  0  0  0
 20100  1  0  0  0
 21 23  1  0  0  0
 22 28  1  0  0  0
 22 32  2  0  0  0
 26 27  1  0  0  0
 28101  1  0  0  0
 28102  1  0  0  0
 29103  1  0  0  0
 29104  1  0  0  0
 33 34  1  0  0  0
 33 66  1  0  0  0
 33 70  2  0  0  0
 34 36  1  0  0  0
 34 59  1  0  0  0
 34105  1  0  0  0
 35 44  2  0  0  0
 35 45  1  0  0  0
 35 68  1  0  0  0
 36 56  1  0  0  0
 36106  1  0  0  0
 37 39  1  0  0  0
 37 47  1  0  0  0
 37 66  1  0  0  0
 37107  1  0  0  0
 38 43  2  0  0  0
 38 46  1  0  0  0
 38 47  1  0  0  0
 39 64  1  0  0  0
 39 67  2  0  0  0
 40 52  1  0  0  0
 40 53  2  0  0  0
 40 58  1  0  0  0
 41108  1  0  0  0
 41109  1  0  0  0
 41110  1  0  0  0
 41 48  1  0  0  0
 42 43  1  0  0  0
 42 66  1  0  0  0
 42111  1  0  0  0
 42112  1  0  0  0
 43 44  1  0  0  0
 44113  1  0  0  0
 45 46  2  0  0  0
 45114  1  0  0  0
 46115  1  0  0  0
 47116  1  0  0  0
 47117  1  0  0  0
 48 56  1  0  0  0
 48 65  1  0  0  0
 48118  1  0  0  0
 49 50  1  0  0  0
 49 53  1  0  0  0
 49 64  1  0  0  0
 49119  1  0  0  0
 50 51  1  0  0  0
 50120  1  0  0  0
 50121  1  0  0  0
 51 52  1  0  0  0
 51122  1  0  0  0
 51123  1  0  0  0
 52124  1  0  0  0
 52125  1  0  0  0
 53 54  1  0  0  0
 54 55  2  0  0  0
 54126  1  0  0  0
 55 57  1  0  0  0
 55127  1  0  0  0
 56 69  2  0  0  0
 57 58  2  0  0  0
 57128  1  0  0  0
 58129  1  0  0  0
 59 60  1  0  0  0
 59 61  1  0  0  0
 59 62  1  0  0  0
 60130  1  0  0  0
 60131  1  0  0  0
 60132  1  0  0  0
 61133  1  0  0  0
 61134  1  0  0  0
 61135  1  0  0  0
 62136  1  0  0  0
 62137  1  0  0  0
 62138  1  0  0  0
 63 65  1  0  0  0
 63139  1  0  0  0
 63140  1  0  0  0
 63141  1  0  0  0
 64142  1  0  0  0
 65143  1  0  0  0
 68 80  1  0  0  0
 71 72  2  0  0  0
 71 73  1  0  0  0
 71144  1  0  0  0
 72 77  1  0  0  0
 72145  1  0  0  0
 73 78  1  0  0  0
 73 81  2  0  0  0
 74 75  2  0  0  0
 74 76  1  0  0  0
 74146  1  0  0  0
 75 80  1  0  0  0
 75 84  1  0  0  0
 76 81  1  0  0  0
 76 83  2  0  0  0
 77 82  1  0  0  0
 77147  1  0  0  0
 77148  1  0  0  0
 78 79  1  0  0  0
 78149  1  0  0  0
 78150  1  0  0  0
 79 82  1  0  0  0
 79151  1  0  0  0
 79152  1  0  0  0
 80153  1  0  0  0
 80154  1  0  0  0
 84155  1  0  0  0
M  ISO  4   1 100  68 101  80 101  82 100
M  END
> <chiral flag>
0

> <version>
0

> <s_m_source_file>
/data/baiqing/PycharmProjects/Reinvent-master-3.2/result/LINK_invent/BTK/process_docking_weight1_custom_product_contain_oxygen_bond_distance_aromatic_linkinvent_7_9_3/rearranged_h_0147.sdf

> <i_m_source_file_index>
21

> <r_mmod_Potential_Energy-OPLS-2005>
310.586090087891

> <r_mmod_Stretch_Energy-OPLS-2005>
84.8411560058594

> <r_mmod_Bend_Energy-OPLS-2005>
197.080017089844

> <r_mmod_Torsional_Energy-OPLS-2005>
318.123657226562

> <r_mmod_Improper_Torsional_Energy-OPLS-2005>
12.7538146972656

> <r_mmod_Van_der_Waal_Energy-OPLS-2005>
147.491516113281

> <r_mmod_Electrostatic_Energy-OPLS-2005>
-288.457122802734

> <r_mmod_Solvation_Energy-OPLS-2005>
-206.973251342773

> <b_mmod_Minimization_Converged-OPLS-2005>
0

> <r_mmod_RMS_Derivative-OPLS-2005>
3.92208051681519

$$$$
21
                    3D
 Structure written by MMmdl.
156165  0  0  1  0            999 V2000
  -30.6370  -14.5527   20.4888 C   0  0  0  0  0  0
  -30.4325  -12.3321   19.4391 C   0  0  0  0  0  0
  -29.5003  -12.4894   18.2179 C   0  0  0  0  0  0
  -28.0192  -12.3493   18.6258 C   0  0  0  0  0  0
  -27.6580  -13.1999   19.8729 C   0  0  2  0  0  0
  -28.7031  -13.0107   20.9960 C   0  0  0  0  0  0
  -25.2588  -13.8139   20.5716 C   0  0  0  0  0  0
  -24.1828  -13.0418   20.9193 C   0  0  0  0  0  0
  -24.6382  -11.6887   20.8749 C   0  0  0  0  0  0
  -23.9050  -10.4282   21.0415 C   0  0  0  0  0  0
  -24.3630   -9.4195   21.9172 C   0  0  0  0  0  0
  -23.6315   -8.2228   22.0753 C   0  0  0  0  0  0
  -22.4291   -8.0274   21.3548 C   0  0  0  0  0  0
  -21.9923   -9.0237   20.4646 C   0  0  0  0  0  0
  -22.7241  -10.2120   20.3053 C   0  0  0  0  0  0
  -21.6851   -6.0742   22.5293 C   0  0  0  0  0  0
  -21.4004   -6.5649   23.8220 C   0  0  0  0  0  0
  -21.3649   -5.6804   24.9190 C   0  0  0  0  0  0
  -21.6056   -4.3075   24.7238 C   0  0  0  0  0  0
  -21.8818   -3.8152   23.4356 C   0  0  0  0  0  0
  -21.9191   -4.6962   22.3414 C   0  0  0  0  0  0
  -22.7848  -13.5199   21.1846 C   0  0  0  0  0  0
  -22.1665   -4.2151   21.0988 F   0  0  0  0  0  0
  -21.5635   -3.4555   25.7748 F   0  0  0  0  0  0
  -30.0265  -13.3345   20.4372 N   0  0  0  0  0  0
  -26.3009  -12.9295   20.3389 N   0  0  0  0  0  0
  -25.9309  -11.6460   20.5800 N   0  0  0  0  0  0
  -22.0513  -12.8198   22.0428 N   0  0  0  0  0  0
  -25.4303  -15.1875   20.4183 N   0  0  0  0  0  0
  -31.7891  -14.7337   20.0790 O   0  0  0  0  0  0
  -21.6647   -6.8878   21.4253 O   0  0  0  0  0  0
  -22.3512  -14.5491   20.6680 O   0  0  0  0  0  0
  -24.6184  -31.8637   23.2012 C   0  0  0  0  0  0
  -25.9054  -32.4788   23.8326 C   0  0  1  0  0  0
  -27.2376  -27.3734   20.0883 C   0  0  0  0  0  0
  -25.5901  -33.8594   24.2238 N   0  0  0  0  0  0
  -23.4080  -30.4816   21.5470 C   0  0  2  0  0  0
  -24.8546  -28.9380   20.1081 C   0  0  0  0  0  0
  -22.7405  -29.4637   22.4990 C   0  0  0  0  0  0
  -18.0252  -28.1376   22.8510 C   0  0  0  0  0  0
  -24.1483  -36.7283   23.2598 C   0  0  0  0  0  0
  -25.9437  -30.8002   21.3721 C   0  0  0  0  0  0
  -26.0155  -29.4313   20.7154 C   0  0  0  0  0  0
  -27.2024  -28.6532   20.7085 C   0  0  0  0  0  0
  -26.0544  -26.9080   19.4723 C   0  0  0  0  0  0
  -24.8721  -27.6775   19.4857 C   0  0  0  0  0  0
  -23.6165  -29.8082   20.1637 C   0  0  0  0  0  0
  -25.4090  -36.3075   24.0310 C   0  0  1  0  0  0
  -20.5846  -28.3673   23.1336 C   0  0  2  0  0  0
  -20.6747  -26.9412   22.5441 C   0  0  0  0  0  0
  -19.5729  -26.6388   21.5241 C   0  0  0  0  0  0
  -18.1899  -26.7923   22.1637 C   0  0  0  0  0  0
  -19.1502  -28.8838   23.2921 C   0  0  0  0  0  0
  -18.9439  -30.1443   23.8924 C   0  0  0  0  0  0
  -17.6445  -30.6599   24.0569 C   0  0  0  0  0  0
  -25.9085  -34.9464   23.5088 C   0  0  0  0  0  0
  -16.5337  -29.9100   23.6339 C   0  0  0  0  0  0
  -16.7241  -28.6511   23.0374 C   0  0  0  0  0  0
  -26.4442  -31.6599   25.0703 C   0  0  0  0  0  0
  -25.3670  -31.3757   26.1439 C   0  0  0  0  0  0
  -27.0232  -30.2995   24.6176 C   0  0  0  0  0  0
  -27.6048  -32.4310   25.7425 C   0  0  0  0  0  0
  -27.5661  -37.1647   24.8343 C   0  0  0  0  0  0
  -21.4128  -29.3033   22.3724 N   0  0  0  0  0  0
  -26.4201  -37.3851   23.9554 N   0  0  0  0  0  0
  -24.6738  -31.0658   22.0961 N   0  0  0  0  0  0
  -23.4152  -28.8210   23.3077 O   0  0  0  0  0  0
  -28.4064  -26.6182   20.1349 O   0  0  0  0  0  0
  -26.5688  -34.8949   22.4679 O   0  0  0  0  0  0
  -23.5370  -32.1456   23.7367 O   0  0  0  0  0  0
  -30.1181  -18.1194   20.6975 C   0  0  0  0  0  0
  -28.9403  -16.9456   19.0463 C   0  0  0  0  0  0
  -29.6766  -16.8396   20.1986 C   0  0  0  0  0  0
  -29.7470  -19.1948   19.8954 C   0  0  0  0  0  0
  -28.3799  -24.0583   20.0363 C   0  0  0  0  0  0
  -30.5685  -21.2097   21.3888 C   0  0  0  0  0  0
  -29.8920  -22.5808   21.5353 C   0  0  0  0  0  0
  -30.1471  -20.6770   20.0034 C   0  0  2  0  0  0
  -29.5660  -23.0227   20.0988 C   0  0  1  0  0  0
  -28.6104  -25.4275   19.3127 C   0  0  0  0  0  0
  -29.8462  -15.5820   20.8802 N   0  0  0  0  0  0
  -29.3054  -21.7461   19.3618 N   0  3  0  0  0  0
  -27.2684  -23.8068   20.5158 O   0  0  0  0  0  0
  -28.7955  -18.6128   18.5408 S   0  0  0  0  0  0
  -31.4760  -12.4463   19.1371 H   0  0  0  0  0  0
  -30.3547  -11.3283   19.8604 H   0  0  0  0  0  0
  -29.7491  -11.7498   17.4564 H   0  0  0  0  0  0
  -29.6584  -13.4654   17.7568 H   0  0  0  0  0  0
  -27.8302  -11.2929   18.8269 H   0  0  0  0  0  0
  -27.3703  -12.6156   17.7897 H   0  0  0  0  0  0
  -27.6869  -14.2421   19.5565 H   0  0  0  0  0  0
  -28.6952  -11.9803   21.3564 H   0  0  0  0  0  0
  -28.4627  -13.6235   21.8669 H   0  0  0  0  0  0
  -25.2790   -9.5669   22.4733 H   0  0  0  0  0  0
  -24.0035   -7.4622   22.7467 H   0  0  0  0  0  0
  -21.0860   -8.8749   19.8943 H   0  0  0  0  0  0
  -22.3706  -10.9664   19.6167 H   0  0  0  0  0  0
  -21.1989   -7.6160   23.9729 H   0  0  0  0  0  0
  -21.1483   -6.0545   25.9099 H   0  0  0  0  0  0
  -22.0605   -2.7611   23.2879 H   0  0  0  0  0  0
  -22.4177  -11.9861   22.4796 H   0  0  0  0  0  0
  -21.1124  -13.1187   22.2648 H   0  0  0  0  0  0
  -24.6613  -15.8401   20.5246 H   0  0  0  0  0  0
  -26.2890  -15.6395   20.1309 H   0  0  0  0  0  0
  -26.7131  -32.5447   23.1081 H   0  0  0  0  0  0
  -24.9950  -33.9760   25.0309 H   0  0  0  0  0  0
  -22.7013  -31.3002   21.4030 H   0  0  0  0  0  0
  -23.3868  -35.9479   23.2955 H   0  0  0  0  0  0
  -24.3683  -36.9239   22.2096 H   0  0  0  0  0  0
  -23.7055  -37.6299   23.6834 H   0  0  0  0  0  0
  -26.0817  -31.5665   20.6082 H   0  0  0  0  0  0
  -26.8214  -30.8409   22.0044 H   0  0  0  0  0  0
  -28.0936  -29.0279   21.1928 H   0  0  0  0  0  0
  -26.0173  -25.9405   18.9955 H   0  0  0  0  0  0
  -23.9777  -27.2910   19.0161 H   0  0  0  0  0  0
  -23.7148  -30.5804   19.4001 H   0  0  0  0  0  0
  -22.7403  -29.2240   19.8764 H   0  0  0  0  0  0
  -25.1221  -36.1839   25.0779 H   0  0  0  0  0  0
  -20.9928  -28.3255   24.1464 H   0  0  0  0  0  0
  -20.5675  -26.2289   23.3634 H   0  0  0  0  0  0
  -21.6621  -26.7470   22.1240 H   0  0  0  0  0  0
  -19.6909  -25.6306   21.1260 H   0  0  0  0  0  0
  -19.6667  -27.3216   20.6786 H   0  0  0  0  0  0
  -17.4181  -26.6686   21.4027 H   0  0  0  0  0  0
  -18.0285  -26.0057   22.9022 H   0  0  0  0  0  0
  -19.7909  -30.7252   24.2323 H   0  0  0  0  0  0
  -17.5000  -31.6282   24.5154 H   0  0  0  0  0  0
  -15.5341  -30.3019   23.7649 H   0  0  0  0  0  0
  -15.8632  -28.0834   22.7108 H   0  0  0  0  0  0
  -24.5876  -30.7067   25.7779 H   0  0  0  0  0  0
  -24.8811  -32.2928   26.4799 H   0  0  0  0  0  0
  -25.7999  -30.8997   27.0252 H   0  0  0  0  0  0
  -26.2791  -29.6793   24.1183 H   0  0  0  0  0  0
  -27.3863  -29.7225   25.4692 H   0  0  0  0  0  0
  -27.8700  -30.4230   23.9419 H   0  0  0  0  0  0
  -27.2717  -33.3623   26.2022 H   0  0  0  0  0  0
  -28.3818  -32.6866   25.0202 H   0  0  0  0  0  0
  -28.0764  -31.8419   26.5305 H   0  0  0  0  0  0
  -28.2243  -38.0341   24.8133 H   0  0  0  0  0  0
  -28.1574  -36.3026   24.5223 H   0  0  0  0  0  0
  -27.2546  -37.0121   25.8690 H   0  0  0  0  0  0
  -20.9284  -29.8742   21.6936 H   0  0  0  0  0  0
  -26.0038  -38.2789   24.2032 H   0  0  0  0  0  0
  -30.7065  -18.2026   21.6011 H   0  0  0  0  0  0
  -28.4693  -16.1731   18.4513 H   0  0  0  0  0  0
  -30.2416  -20.5534   22.1966 H   0  0  0  0  0  0
  -31.6556  -21.2923   21.4618 H   0  0  0  0  0  0
  -30.5248  -23.3025   22.0524 H   0  0  0  0  0  0
  -28.9795  -22.4718   22.1264 H   0  0  0  0  0  0
  -31.0630  -20.7363   19.4106 H   0  0  0  0  0  0
  -30.4590  -23.4714   19.6585 H   0  0  0  0  0  0
  -28.0123  -25.4670   18.4035 H   0  0  0  0  0  0
  -29.6460  -25.4527   18.9776 H   0  0  0  0  0  0
  -29.0031  -15.2451   21.3204 H   0  0  0  0  0  0
  -28.3314  -21.5167   19.4796 H   0  0  0  0  0  0
  -29.4984  -21.8397   18.3768 H   0  0  0  0  0  0
  1 25  1  0  0  0
  1 30  2  0  0  0
  1 81  1  0  0  0
  2  3  1  0  0  0
  2 25  1  0  0  0
  2 85  1  0  0  0
  2 86  1  0  0  0
  3  4  1  0  0  0
  3 87  1  0  0  0
  3 88  1  0  0  0
  4  5  1  0  0  0
  4 89  1  0  0  0
  4 90  1  0  0  0
  5  6  1  0  0  0
  5 26  1  0  0  0
  5 91  1  0  0  0
  6 25  1  0  0  0
  6 92  1  0  0  0
  6 93  1  0  0  0
  7  8  2  0  0  0
  7 26  1  0  0  0
  7 29  1  0  0  0
  8  9  1  0  0  0
  8 22  1  0  0  0
  9 10  1  0  0  0
  9 27  2  0  0  0
 10 11  2  0  0  0
 10 15  1  0  0  0
 11 12  1  0  0  0
 11 94  1  0  0  0
 12 13  2  0  0  0
 12 95  1  0  0  0
 13 14  1  0  0  0
 13 31  1  0  0  0
 14 15  2  0  0  0
 14 96  1  0  0  0
 15 97  1  0  0  0
 16 17  2  0  0  0
 16 21  1  0  0  0
 16 31  1  0  0  0
 17 18  1  0  0  0
 17 98  1  0  0  0
 18 19  2  0  0  0
 18 99  1  0  0  0
 19 20  1  0  0  0
 19 24  1  0  0  0
 20 21  2  0  0  0
 20100  1  0  0  0
 21 23  1  0  0  0
 22 28  1  0  0  0
 22 32  2  0  0  0
 26 27  1  0  0  0
 28101  1  0  0  0
 28102  1  0  0  0
 29103  1  0  0  0
 29104  1  0  0  0
 33 34  1  0  0  0
 33 66  1  0  0  0
 33 70  2  0  0  0
 34 36  1  0  0  0
 34 59  1  0  0  0
 34105  1  0  0  0
 35 44  2  0  0  0
 35 45  1  0  0  0
 35 68  1  0  0  0
 36 56  1  0  0  0
 36106  1  0  0  0
 37 39  1  0  0  0
 37 47  1  0  0  0
 37 66  1  0  0  0
 37107  1  0  0  0
 38 43  2  0  0  0
 38 46  1  0  0  0
 38 47  1  0  0  0
 39 64  1  0  0  0
 39 67  2  0  0  0
 40 52  1  0  0  0
 40 53  2  0  0  0
 40 58  1  0  0  0
 41108  1  0  0  0
 41109  1  0  0  0
 41110  1  0  0  0
 41 48  1  0  0  0
 42 43  1  0  0  0
 42 66  1  0  0  0
 42111  1  0  0  0
 42112  1  0  0  0
 43 44  1  0  0  0
 44113  1  0  0  0
 45 46  2  0  0  0
 45114  1  0  0  0
 46115  1  0  0  0
 47116  1  0  0  0
 47117  1  0  0  0
 48 56  1  0  0  0
 48 65  1  0  0  0
 48118  1  0  0  0
 49 50  1  0  0  0
 49 53  1  0  0  0
 49 64  1  0  0  0
 49119  1  0  0  0
 50 51  1  0  0  0
 50120  1  0  0  0
 50121  1  0  0  0
 51 52  1  0  0  0
 51122  1  0  0  0
 51123  1  0  0  0
 52124  1  0  0  0
 52125  1  0  0  0
 53 54  1  0  0  0
 54 55  2  0  0  0
 54126  1  0  0  0
 55 57  1  0  0  0
 55127  1  0  0  0
 56 69  2  0  0  0
 57 58  2  0  0  0
 57128  1  0  0  0
 58129  1  0  0  0
 59 60  1  0  0  0
 59 61  1  0  0  0
 59 62  1  0  0  0
 60130  1  0  0  0
 60131  1  0  0  0
 60132  1  0  0  0
 61133  1  0  0  0
 61134  1  0  0  0
 61135  1  0  0  0
 62136  1  0  0  0
 62137  1  0  0  0
 62138  1  0  0  0
 63 65  1  0  0  0
 63139  1  0  0  0
 63140  1  0  0  0
 63141  1  0  0  0
 64142  1  0  0  0
 65143  1  0  0  0
 68 80  1  0  0  0
 71 73  1  0  0  0
 71 74  2  0  0  0
 71144  1  0  0  0
 72 73  2  0  0  0
 72 84  1  0  0  0
 72145  1  0  0  0
 73 81  1  0  0  0
 74 84  1  0  0  0
 74 78  1  0  0  0
 75 80  1  0  0  0
 75 83  2  0  0  0
 75 79  1  0  0  0
 76 77  1  0  0  0
 76 78  1  0  0  0
 76146  1  0  0  0
 76147  1  0  0  0
 77 79  1  0  0  0
 77148  1  0  0  0
 77149  1  0  0  0
 78 82  1  0  0  0
 78150  1  0  0  0
 79 82  1  0  0  0
 79151  1  0  0  0
 80152  1  0  0  0
 80153  1  0  0  0
 81154  1  0  0  0
 82155  1  0  0  0
 82156  1  0  0  0
M  CHG  1  82   1
M  ISO  4   1 100  68 101  80 101  81 100
M  END
> <chiral flag>
0

> <version>
0

> <s_m_source_file>
/data/baiqing/PycharmProjects/Reinvent-master-3.2/result/LINK_invent/BTK/process_docking_weight1_custom_product_contain_oxygen_bond_distance_aromatic_linkinvent_7_9_3/rearranged_h_0147.sdf

> <i_m_source_file_index>
22

> <r_mmod_Potential_Energy-OPLS-2005>
-205.042739868164

> <r_mmod_Stretch_Energy-OPLS-2005>
52.7632522583008

> <r_mmod_Bend_Energy-OPLS-2005>
152.829742431641

> <r_mmod_Torsional_Energy-OPLS-2005>
288.44482421875

> <r_mmod_Improper_Torsional_Energy-OPLS-2005>
7.15807294845581

> <r_mmod_Van_der_Waal_Energy-OPLS-2005>
112.89183807373

> <r_mmod_Electrostatic_Energy-OPLS-2005>
-340.56298828125

> <r_mmod_Solvation_Energy-OPLS-2005>
-505.615020751953

> <b_mmod_Minimization_Converged-OPLS-2005>
0

> <r_mmod_RMS_Derivative-OPLS-2005>
2.9493293762207

$$$$
22
                    3D
 Structure written by MMmdl.
189199  0  0  1  0            999 V2000
  -30.7252  -14.4814   20.4189 C   0  0  0  0  0  0
  -30.4151  -12.2767   19.4285 C   0  0  0  0  0  0
  -29.4904  -12.4660   18.2063 C   0  0  0  0  0  0
  -28.0096  -12.3316   18.6191 C   0  0  0  0  0  0
  -27.6434  -13.1950   19.8549 C   0  0  2  0  0  0
  -28.7081  -13.0594   20.9715 C   0  0  0  0  0  0
  -25.2523  -13.8045   20.5728 C   0  0  0  0  0  0
  -24.1790  -13.0340   20.9212 C   0  0  0  0  0  0
  -24.6374  -11.6825   20.8788 C   0  0  0  0  0  0
  -23.9059  -10.4237   21.0443 C   0  0  0  0  0  0
  -24.3616   -9.4151   21.9209 C   0  0  0  0  0  0
  -23.6275   -8.2199   22.0770 C   0  0  0  0  0  0
  -22.4245   -8.0263   21.3559 C   0  0  0  0  0  0
  -21.9895   -9.0237   20.4654 C   0  0  0  0  0  0
  -22.7253  -10.2096   20.3076 C   0  0  0  0  0  0
  -21.6833   -6.0739   22.5299 C   0  0  0  0  0  0
  -21.4001   -6.5649   23.8233 C   0  0  0  0  0  0
  -21.3648   -5.6800   24.9199 C   0  0  0  0  0  0
  -21.6032   -4.3059   24.7249 C   0  0  0  0  0  0
  -21.8818   -3.8160   23.4367 C   0  0  0  0  0  0
  -21.9185   -4.6970   22.3419 C   0  0  0  0  0  0
  -22.7819  -13.5152   21.1853 C   0  0  0  0  0  0
  -22.1646   -4.2171   21.0984 F   0  0  0  0  0  0
  -21.5632   -3.4525   25.7752 F   0  0  0  0  0  0
  -30.0479  -13.3015   20.4126 N   0  0  0  0  0  0
  -26.2954  -12.9209   20.3382 N   0  0  0  0  0  0
  -25.9297  -11.6389   20.5837 N   0  0  0  0  0  0
  -22.0471  -12.8161   22.0426 N   0  0  0  0  0  0
  -25.4137  -15.1758   20.4160 N   0  0  0  0  0  0
  -31.9477  -14.5339   20.2829 O   0  0  0  0  0  0
  -21.6609   -6.8867   21.4251 O   0  0  0  0  0  0
  -22.3526  -14.5474   20.6719 O   0  0  0  0  0  0
  -24.6102  -31.8696   23.2140 C   0  0  0  0  0  0
  -25.9017  -32.4837   23.8411 C   0  0  1  0  0  0
  -27.2472  -27.4715   20.1040 C   0  0  0  0  0  0
  -25.5913  -33.8632   24.2353 N   0  0  0  0  0  0
  -23.3968  -30.4907   21.5505 C   0  0  2  0  0  0
  -24.8481  -28.9581   20.1171 C   0  0  0  0  0  0
  -22.7375  -29.4664   22.5014 C   0  0  0  0  0  0
  -18.0269  -28.1369   22.8486 C   0  0  0  0  0  0
  -24.1484  -36.7311   23.2639 C   0  0  0  0  0  0
  -25.9183  -30.8500   21.3588 C   0  0  0  0  0  0
  -26.0009  -29.4837   20.7147 C   0  0  0  0  0  0
  -27.2019  -28.7458   20.7143 C   0  0  0  0  0  0
  -26.0869  -26.9594   19.4928 C   0  0  0  0  0  0
  -24.8831  -27.6916   19.5053 C   0  0  0  0  0  0
  -23.6057  -29.8183   20.1648 C   0  0  0  0  0  0
  -25.4111  -36.3123   24.0349 C   0  0  1  0  0  0
  -20.5849  -28.3648   23.1328 C   0  0  2  0  0  0
  -20.6759  -26.9391   22.5417 C   0  0  0  0  0  0
  -19.5742  -26.6378   21.5205 C   0  0  0  0  0  0
  -18.1913  -26.7913   22.1615 C   0  0  0  0  0  0
  -19.1512  -28.8829   23.2897 C   0  0  0  0  0  0
  -18.9452  -30.1436   23.8904 C   0  0  0  0  0  0
  -17.6461  -30.6585   24.0556 C   0  0  0  0  0  0
  -25.9034  -34.9484   23.5150 C   0  0  0  0  0  0
  -16.5355  -29.9091   23.6320 C   0  0  0  0  0  0
  -16.7262  -28.6504   23.0347 C   0  0  0  0  0  0
  -26.4480  -31.6594   25.0705 C   0  0  0  0  0  0
  -25.3762  -31.3664   26.1454 C   0  0  0  0  0  0
  -27.0301  -30.3046   24.6029 C   0  0  0  0  0  0
  -27.6059  -32.4289   25.7487 C   0  0  0  0  0  0
  -27.5584  -37.1812   24.8475 C   0  0  0  0  0  0
  -21.4118  -29.3014   22.3739 N   0  0  0  0  0  0
  -26.4298  -37.3804   23.9423 N   0  0  0  0  0  0
  -24.6585  -31.0848   22.1000 N   0  0  0  0  0  0
  -23.4159  -28.8208   23.3051 O   0  0  0  0  0  0
  -28.3847  -26.7002   20.0748 O   0  0  0  0  0  0
  -26.5567  -34.8935   22.4697 O   0  0  0  0  0  0
  -23.5313  -32.1421   23.7578 O   0  0  0  0  0  0
  -26.6509  -18.1079   18.0325 C   0  0  0  0  0  0
  -25.6440  -18.5490   17.1568 C   0  0  0  0  0  0
  -26.4897  -20.8154   17.3552 C   0  0  0  0  0  0
  -27.5939  -19.0074   18.5911 C   0  0  0  0  0  0
  -25.5620  -19.9081   16.8121 C   0  0  0  0  0  0
  -27.5099  -20.3814   18.2325 C   0  0  0  0  0  0
  -28.2266  -17.5073   20.5948 C   0  0  0  0  0  0
  -29.2920  -16.5483   21.1702 C   0  0  0  0  0  0
  -30.3663  -23.5208   19.9098 C   0  0  0  0  0  0
  -30.7814  -24.9238   20.3551 C   0  0  0  0  0  0
  -29.7435  -17.7605   18.4911 C   0  0  0  0  0  0
  -28.7446  -24.2021   21.5130 C   0  0  0  0  0  0
  -28.7353  -18.4365   19.4506 C   0  0  1  0  0  0
  -29.9656  -15.7757   20.0192 C   0  0  1  0  0  0
  -28.8569  -23.4933   20.1573 C   0  0  2  0  0  0
  -30.7590  -16.8225   19.1722 C   0  0  1  0  0  0
  -29.8200  -25.3174   21.5014 C   0  0  1  0  0  0
  -24.5020  -20.3926   15.8423 C   0  0  0  0  0  0
  -30.5765  -25.3427   22.8429 C   0  0  0  0  0  0
  -26.6817  -22.1952   20.3665 C   0  0  0  0  0  0
  -28.5118  -21.4273   18.7130 C   0  0  0  0  0  0
  -29.1822  -26.7093   21.2591 C   0  0  0  0  0  0
  -28.1960  -22.0956   20.0781 C   0  0  1  0  0  0
  -31.6675  -16.2486   18.1527 N   0  3  0  0  0  0
  -31.4631  -12.3368   19.1276 H   0  0  0  0  0  0
  -30.2827  -11.2819   19.8569 H   0  0  0  0  0  0
  -29.7273  -11.7293   17.4369 H   0  0  0  0  0  0
  -29.6609  -13.4416   17.7514 H   0  0  0  0  0  0
  -27.8244  -11.2792   18.8365 H   0  0  0  0  0  0
  -27.3603  -12.5828   17.7795 H   0  0  0  0  0  0
  -27.6089  -14.2185   19.5040 H   0  0  0  0  0  0
  -28.6820  -12.0530   21.3903 H   0  0  0  0  0  0
  -28.4967  -13.7276   21.8053 H   0  0  0  0  0  0
  -25.2764   -9.5598   22.4786 H   0  0  0  0  0  0
  -23.9978   -7.4576   22.7467 H   0  0  0  0  0  0
  -21.0840   -8.8772   19.8941 H   0  0  0  0  0  0
  -22.3751  -10.9644   19.6183 H   0  0  0  0  0  0
  -21.1992   -7.6158   23.9737 H   0  0  0  0  0  0
  -21.1457   -6.0541   25.9101 H   0  0  0  0  0  0
  -22.0606   -2.7629   23.2876 H   0  0  0  0  0  0
  -22.4069  -11.9812   22.4810 H   0  0  0  0  0  0
  -21.1105  -13.1218   22.2638 H   0  0  0  0  0  0
  -24.6450  -15.8262   20.5382 H   0  0  0  0  0  0
  -26.2758  -15.6250   20.1458 H   0  0  0  0  0  0
  -26.7093  -32.5572   23.1189 H   0  0  0  0  0  0
  -25.0125  -33.9785   25.0543 H   0  0  0  0  0  0
  -22.6834  -31.3055   21.4096 H   0  0  0  0  0  0
  -23.3756  -35.9624   23.3316 H   0  0  0  0  0  0
  -24.3589  -36.8907   22.2050 H   0  0  0  0  0  0
  -23.7212  -37.6519   23.6635 H   0  0  0  0  0  0
  -26.0186  -31.6158   20.5889 H   0  0  0  0  0  0
  -26.8105  -30.9111   21.9710 H   0  0  0  0  0  0
  -28.0860  -29.1613   21.1737 H   0  0  0  0  0  0
  -26.1115  -25.9858   19.0217 H   0  0  0  0  0  0
  -23.9972  -27.2781   19.0421 H   0  0  0  0  0  0
  -23.7123  -30.5894   19.4007 H   0  0  0  0  0  0
  -22.7314  -29.2341   19.8725 H   0  0  0  0  0  0
  -25.1282  -36.2010   25.0838 H   0  0  0  0  0  0
  -20.9941  -28.3218   24.1450 H   0  0  0  0  0  0
  -20.5680  -26.2258   23.3599 H   0  0  0  0  0  0
  -21.6630  -26.7443   22.1214 H   0  0  0  0  0  0
  -19.6912  -25.6294   21.1231 H   0  0  0  0  0  0
  -19.6689  -27.3180   20.6727 H   0  0  0  0  0  0
  -17.4189  -26.6668   21.4012 H   0  0  0  0  0  0
  -18.0304  -26.0043   22.9001 H   0  0  0  0  0  0
  -19.7936  -30.7229   24.2293 H   0  0  0  0  0  0
  -17.5029  -31.6267   24.5157 H   0  0  0  0  0  0
  -15.5358  -30.3008   23.7648 H   0  0  0  0  0  0
  -15.8650  -28.0841   22.7069 H   0  0  0  0  0  0
  -24.5973  -30.6959   25.7805 H   0  0  0  0  0  0
  -24.8899  -32.2790   26.4893 H   0  0  0  0  0  0
  -25.8134  -30.8864   27.0213 H   0  0  0  0  0  0
  -26.2805  -29.6808   24.1129 H   0  0  0  0  0  0
  -27.4147  -29.7287   25.4460 H   0  0  0  0  0  0
  -27.8617  -30.4394   23.9102 H   0  0  0  0  0  0
  -27.2681  -33.3586   26.2081 H   0  0  0  0  0  0
  -28.3875  -32.6839   25.0315 H   0  0  0  0  0  0
  -28.0694  -31.8371   26.5391 H   0  0  0  0  0  0
  -28.2615  -38.0096   24.7538 H   0  0  0  0  0  0
  -28.1064  -36.2642   24.6291 H   0  0  0  0  0  0
  -27.2300  -37.1457   25.8871 H   0  0  0  0  0  0
  -20.9285  -29.8732   21.6956 H   0  0  0  0  0  0
  -26.0205  -38.2886   24.1421 H   0  0  0  0  0  0
  -26.7094  -17.0493   18.2361 H   0  0  0  0  0  0
  -24.9494  -17.8331   16.7385 H   0  0  0  0  0  0
  -26.4269  -21.8595   17.0800 H   0  0  0  0  0  0
  -27.7898  -18.1107   21.3921 H   0  0  0  0  0  0
  -27.4178  -16.8802   20.2404 H   0  0  0  0  0  0
  -28.8251  -15.8783   21.8902 H   0  0  0  0  0  0
  -30.0357  -17.1124   21.7360 H   0  0  0  0  0  0
  -30.8657  -22.7702   20.5243 H   0  0  0  0  0  0
  -30.6341  -23.3299   18.8698 H   0  0  0  0  0  0
  -30.6707  -25.6077   19.5118 H   0  0  0  0  0  0
  -31.8326  -24.9579   20.6438 H   0  0  0  0  0  0
  -30.2571  -18.5321   17.9147 H   0  0  0  0  0  0
  -29.1933  -17.1681   17.7586 H   0  0  0  0  0  0
  -28.9481  -23.4809   22.3066 H   0  0  0  0  0  0
  -27.7435  -24.5964   21.6931 H   0  0  0  0  0  0
  -29.2663  -19.2415   19.9556 H   0  0  0  0  0  0
  -29.2003  -15.4295   19.3378 H   0  0  0  0  0  0
  -28.3877  -24.1322   19.4071 H   0  0  0  0  0  0
  -31.3862  -17.4116   19.8429 H   0  0  0  0  0  0
  -23.9976  -19.5580   15.3550 H   0  0  0  0  0  0
  -24.9504  -21.0092   15.0626 H   0  0  0  0  0  0
  -23.7503  -20.9878   16.3602 H   0  0  0  0  0  0
  -31.0595  -24.3863   23.0487 H   0  0  0  0  0  0
  -29.9035  -25.5587   23.6732 H   0  0  0  0  0  0
  -31.3528  -26.1089   22.8449 H   0  0  0  0  0  0
  -26.4780  -22.6748   21.3230 H   0  0  0  0  0  0
  -26.2150  -21.2107   20.4159 H   0  0  0  0  0  0
  -26.1660  -22.7690   19.5950 H   0  0  0  0  0  0
  -28.5427  -22.2007   17.9430 H   0  0  0  0  0  0
  -29.5218  -21.0183   18.7113 H   0  0  0  0  0  0
  -29.9525  -27.4761   21.1692 H   0  0  0  0  0  0
  -28.5796  -26.9685   22.1339 H   0  0  0  0  0  0
  -28.6181  -21.4608   20.8600 H   0  0  0  0  0  0
  -31.1731  -15.7891   17.4091 H   0  0  0  0  0  0
  -32.2694  -15.5781   18.6121 H   0  0  0  0  0  0
  -32.2496  -16.9654   17.7551 H   0  0  0  0  0  0
  1 25  1  0  0  0
  1 30  2  0  0  0
  1 84  1  0  0  0
  2  3  1  0  0  0
  2 25  1  0  0  0
  2 95  1  0  0  0
  2 96  1  0  0  0
  3  4  1  0  0  0
  3 97  1  0  0  0
  3 98  1  0  0  0
  4  5  1  0  0  0
  4 99  1  0  0  0
  4100  1  0  0  0
  5  6  1  0  0  0
  5 26  1  0  0  0
  5101  1  0  0  0
  6 25  1  0  0  0
  6102  1  0  0  0
  6103  1  0  0  0
  7  8  2  0  0  0
  7 26  1  0  0  0
  7 29  1  0  0  0
  8  9  1  0  0  0
  8 22  1  0  0  0
  9 10  1  0  0  0
  9 27  2  0  0  0
 10 11  2  0  0  0
 10 15  1  0  0  0
 11 12  1  0  0  0
 11104  1  0  0  0
 12 13  2  0  0  0
 12105  1  0  0  0
 13 14  1  0  0  0
 13 31  1  0  0  0
 14 15  2  0  0  0
 14106  1  0  0  0
 15107  1  0  0  0
 16 17  2  0  0  0
 16 21  1  0  0  0
 16 31  1  0  0  0
 17 18  1  0  0  0
 17108  1  0  0  0
 18 19  2  0  0  0
 18109  1  0  0  0
 19 20  1  0  0  0
 19 24  1  0  0  0
 20 21  2  0  0  0
 20110  1  0  0  0
 21 23  1  0  0  0
 22 28  1  0  0  0
 22 32  2  0  0  0
 26 27  1  0  0  0
 28111  1  0  0  0
 28112  1  0  0  0
 29113  1  0  0  0
 29114  1  0  0  0
 33 34  1  0  0  0
 33 66  1  0  0  0
 33 70  2  0  0  0
 34 36  1  0  0  0
 34 59  1  0  0  0
 34115  1  0  0  0
 35 44  2  0  0  0
 35 45  1  0  0  0
 35 68  1  0  0  0
 36 56  1  0  0  0
 36116  1  0  0  0
 37 39  1  0  0  0
 37 47  1  0  0  0
 37 66  1  0  0  0
 37117  1  0  0  0
 38 43  2  0  0  0
 38 46  1  0  0  0
 38 47  1  0  0  0
 39 64  1  0  0  0
 39 67  2  0  0  0
 40 52  1  0  0  0
 40 53  2  0  0  0
 40 58  1  0  0  0
 41118  1  0  0  0
 41119  1  0  0  0
 41120  1  0  0  0
 41 48  1  0  0  0
 42 43  1  0  0  0
 42 66  1  0  0  0
 42121  1  0  0  0
 42122  1  0  0  0
 43 44  1  0  0  0
 44123  1  0  0  0
 45 46  2  0  0  0
 45124  1  0  0  0
 46125  1  0  0  0
 47126  1  0  0  0
 47127  1  0  0  0
 48 56  1  0  0  0
 48 65  1  0  0  0
 48128  1  0  0  0
 49 50  1  0  0  0
 49 53  1  0  0  0
 49 64  1  0  0  0
 49129  1  0  0  0
 50 51  1  0  0  0
 50130  1  0  0  0
 50131  1  0  0  0
 51 52  1  0  0  0
 51132  1  0  0  0
 51133  1  0  0  0
 52134  1  0  0  0
 52135  1  0  0  0
 53 54  1  0  0  0
 54 55  2  0  0  0
 54136  1  0  0  0
 55 57  1  0  0  0
 55137  1  0  0  0
 56 69  2  0  0  0
 57 58  2  0  0  0
 57138  1  0  0  0
 58139  1  0  0  0
 59 60  1  0  0  0
 59 61  1  0  0  0
 59 62  1  0  0  0
 60140  1  0  0  0
 60141  1  0  0  0
 60142  1  0  0  0
 61143  1  0  0  0
 61144  1  0  0  0
 61145  1  0  0  0
 62146  1  0  0  0
 62147  1  0  0  0
 62148  1  0  0  0
 63 65  1  0  0  0
 63149  1  0  0  0
 63150  1  0  0  0
 63151  1  0  0  0
 64152  1  0  0  0
 65153  1  0  0  0
 68 92  1  0  0  0
 71 72  2  0  0  0
 71 74  1  0  0  0
 71154  1  0  0  0
 72 75  1  0  0  0
 72155  1  0  0  0
 73 75  2  0  0  0
 73 76  1  0  0  0
 73156  1  0  0  0
 74 76  2  0  0  0
 74 83  1  0  0  0
 75 88  1  0  0  0
 76 91  1  0  0  0
 77 78  1  0  0  0
 77 83  1  0  0  0
 77157  1  0  0  0
 77158  1  0  0  0
 78 84  1  0  0  0
 78159  1  0  0  0
 78160  1  0  0  0
 79 80  1  0  0  0
 79161  1  0  0  0
 79162  1  0  0  0
 79 85  1  0  0  0
 80 87  1  0  0  0
 80163  1  0  0  0
 80164  1  0  0  0
 81 83  1  0  0  0
 81 86  1  0  0  0
 81165  1  0  0  0
 81166  1  0  0  0
 82 85  1  0  0  0
 82 87  1  0  0  0
 82167  1  0  0  0
 82168  1  0  0  0
 83169  1  0  0  0
 84 86  1  0  0  0
 84170  1  0  0  0
 85 93  1  0  0  0
 85171  1  0  0  0
 86 94  1  0  0  0
 86172  1  0  0  0
 87 89  1  0  0  0
 87 92  1  0  0  0
 88173  1  0  0  0
 88174  1  0  0  0
 88175  1  0  0  0
 89176  1  0  0  0
 89177  1  0  0  0
 89178  1  0  0  0
 90179  1  0  0  0
 90180  1  0  0  0
 90181  1  0  0  0
 90 93  1  0  0  0
 91 93  1  0  0  0
 91182  1  0  0  0
 91183  1  0  0  0
 92184  1  0  0  0
 92185  1  0  0  0
 93186  1  0  0  0
 94187  1  0  0  0
 94188  1  0  0  0
 94189  1  0  0  0
M  CHG  1  94   1
M  ISO  4   1 100  68 101  84 100  92 101
M  END
> <chiral flag>
0

> <version>
0

> <s_m_source_file>
/data/baiqing/PycharmProjects/Reinvent-master-3.2/result/LINK_invent/BTK/process_docking_weight1_custom_product_contain_oxygen_bond_distance_aromatic_linkinvent_7_9_3/rearranged_h_0147.sdf

> <i_m_source_file_index>
23

> <r_mmod_Potential_Energy-OPLS-2005>
-39.8907165527344

> <r_mmod_Stretch_Energy-OPLS-2005>
40.0941162109375

> <r_mmod_Bend_Energy-OPLS-2005>
148.097106933594

> <r_mmod_Torsional_Energy-OPLS-2005>
295.809234619141

> <r_mmod_Improper_Torsional_Energy-OPLS-2005>
16.2757320404053

> <r_mmod_Van_der_Waal_Energy-OPLS-2005>
161.455062866211

> <r_mmod_Electrostatic_Energy-OPLS-2005>
-302.837432861328

> <r_mmod_Solvation_Energy-OPLS-2005>
-425.856597900391

> <b_mmod_Minimization_Converged-OPLS-2005>
0

> <r_mmod_RMS_Derivative-OPLS-2005>
2.47491645812988

$$$$
23
                    3D
 Structure written by MMmdl.
181190  0  0  1  0            999 V2000
  -30.6933  -14.5149   20.5570 C   0  0  0  0  0  0
  -30.4239  -12.3320   19.4284 C   0  0  0  0  0  0
  -29.4940  -12.5042   18.2096 C   0  0  0  0  0  0
  -28.0168  -12.3603   18.6242 C   0  0  0  0  0  0
  -27.6571  -13.2107   19.8717 C   0  0  2  0  0  0
  -28.7024  -13.0248   20.9956 C   0  0  0  0  0  0
  -25.2567  -13.8168   20.5684 C   0  0  0  0  0  0
  -24.1829  -13.0442   20.9191 C   0  0  0  0  0  0
  -24.6390  -11.6913   20.8742 C   0  0  0  0  0  0
  -23.9062  -10.4300   21.0406 C   0  0  0  0  0  0
  -24.3613   -9.4212   21.9187 C   0  0  0  0  0  0
  -23.6292   -8.2245   22.0757 C   0  0  0  0  0  0
  -22.4273   -8.0276   21.3547 C   0  0  0  0  0  0
  -21.9907   -9.0250   20.4648 C   0  0  0  0  0  0
  -22.7233  -10.2137   20.3059 C   0  0  0  0  0  0
  -21.6854   -6.0731   22.5276 C   0  0  0  0  0  0
  -21.4013   -6.5638   23.8206 C   0  0  0  0  0  0
  -21.3661   -5.6792   24.9170 C   0  0  0  0  0  0
  -21.6049   -4.3058   24.7222 C   0  0  0  0  0  0
  -21.8818   -3.8147   23.4344 C   0  0  0  0  0  0
  -21.9193   -4.6959   22.3403 C   0  0  0  0  0  0
  -22.7854  -13.5233   21.1855 C   0  0  0  0  0  0
  -22.1661   -4.2147   21.0980 F   0  0  0  0  0  0
  -21.5634   -3.4543   25.7737 F   0  0  0  0  0  0
  -30.0257  -13.3341   20.4303 N   0  0  0  0  0  0
  -26.3002  -12.9345   20.3354 N   0  0  0  0  0  0
  -25.9322  -11.6503   20.5784 N   0  0  0  0  0  0
  -22.0494  -12.8214   22.0401 N   0  0  0  0  0  0
  -25.4280  -15.1886   20.4072 N   0  0  0  0  0  0
  -31.8380  -14.6676   20.1215 O   0  0  0  0  0  0
  -21.6637   -6.8872   21.4241 O   0  0  0  0  0  0
  -22.3540  -14.5544   20.6710 O   0  0  0  0  0  0
  -24.6166  -31.8674   23.2101 C   0  0  0  0  0  0
  -25.9046  -32.4824   23.8403 C   0  0  1  0  0  0
  -27.2248  -27.4134   20.0989 C   0  0  0  0  0  0
  -25.5893  -33.8620   24.2335 N   0  0  0  0  0  0
  -23.4065  -30.4914   21.5514 C   0  0  2  0  0  0
  -24.8536  -28.9594   20.1114 C   0  0  0  0  0  0
  -22.7441  -29.4658   22.5000 C   0  0  0  0  0  0
  -18.0278  -28.1383   22.8509 C   0  0  0  0  0  0
  -24.1485  -36.7323   23.2644 C   0  0  0  0  0  0
  -25.9386  -30.8268   21.3668 C   0  0  0  0  0  0
  -26.0174  -29.4608   20.7112 C   0  0  0  0  0  0
  -27.2099  -28.6951   20.7022 C   0  0  0  0  0  0
  -26.0493  -26.9394   19.4814 C   0  0  0  0  0  0
  -24.8659  -27.6988   19.4920 C   0  0  0  0  0  0
  -23.6155  -29.8267   20.1655 C   0  0  0  0  0  0
  -25.4109  -36.3116   24.0340 C   0  0  1  0  0  0
  -20.5880  -28.3675   23.1328 C   0  0  2  0  0  0
  -20.6778  -26.9412   22.5433 C   0  0  0  0  0  0
  -19.5748  -26.6387   21.5234 C   0  0  0  0  0  0
  -18.1919  -26.7930   22.1631 C   0  0  0  0  0  0
  -19.1527  -28.8842   23.2912 C   0  0  0  0  0  0
  -18.9452  -30.1445   23.8923 C   0  0  0  0  0  0
  -17.6456  -30.6586   24.0575 C   0  0  0  0  0  0
  -25.9046  -34.9478   23.5139 C   0  0  0  0  0  0
  -16.5346  -29.9092   23.6332 C   0  0  0  0  0  0
  -16.7269  -28.6509   23.0362 C   0  0  0  0  0  0
  -26.4469  -31.6600   25.0733 C   0  0  0  0  0  0
  -25.3725  -31.3681   26.1470 C   0  0  0  0  0  0
  -27.0309  -30.3047   24.6109 C   0  0  0  0  0  0
  -27.6052  -32.4323   25.7485 C   0  0  0  0  0  0
  -27.5583  -37.1809   24.8465 C   0  0  0  0  0  0
  -21.4168  -29.3032   22.3727 N   0  0  0  0  0  0
  -26.4297  -37.3797   23.9408 N   0  0  0  0  0  0
  -24.6725  -31.0757   22.1010 N   0  0  0  0  0  0
  -23.4200  -28.8204   23.3052 O   0  0  0  0  0  0
  -28.3369  -26.5938   20.1373 O   0  0  0  0  0  0
  -26.5613  -34.8919   22.4707 O   0  0  0  0  0  0
  -23.5355  -32.1438   23.7484 O   0  0  0  0  0  0
  -31.1065  -19.5405   22.0527 C   0  0  0  0  0  0
  -29.4420  -17.9863   21.1969 C   0  0  0  0  0  0
  -31.6969  -17.2089   21.6972 C   0  0  0  0  0  0
  -29.7986  -19.3128   21.5779 C   0  0  0  0  0  0
  -32.0815  -18.5176   22.0790 C   0  0  0  0  0  0
  -30.3787  -16.9168   21.2713 C   0  0  0  0  0  0
  -28.7851  -20.3988   21.6672 C   0  0  0  0  0  0
  -30.0273  -23.7414   20.4701 C   0  0  0  0  0  0
  -30.1637  -22.2081   20.5774 C   0  0  0  0  0  0
  -28.5219  -24.0292   20.5835 C   0  0  2  0  0  0
  -28.0943  -22.9079   21.6181 C   0  0  0  0  0  0
  -27.8818  -23.7927   19.1920 C   0  0  0  0  0  0
  -26.5670  -22.6385   21.5270 C   0  0  0  0  0  0
  -28.4179  -23.3169   23.0773 C   0  0  0  0  0  0
  -33.4632  -18.8725   24.1347 C   0  0  0  0  0  0
  -33.9993  -20.1906   22.0626 C   0  0  0  0  0  0
  -34.5378  -17.7736   22.1554 C   0  0  0  0  0  0
  -28.1987  -25.4950   21.0748 C   0  0  0  0  0  0
  -33.4997  -18.8287   22.5966 C   0  0  0  0  0  0
  -28.9490  -21.7130   21.2756 N   0  0  0  0  0  0
  -29.9585  -15.5633   21.0050 N   0  0  0  0  0  0
  -27.6400  -20.0408   22.2392 N   0  3  0  0  0  0
  -31.4672  -12.4336   19.1238 H   0  0  0  0  0  0
  -30.3325  -11.3275   19.8446 H   0  0  0  0  0  0
  -29.7390  -11.7696   17.4415 H   0  0  0  0  0  0
  -29.6551  -13.4844   17.7581 H   0  0  0  0  0  0
  -27.8323  -11.3053   18.8297 H   0  0  0  0  0  0
  -27.3652  -12.6243   17.7903 H   0  0  0  0  0  0
  -27.6898  -14.2533   19.5559 H   0  0  0  0  0  0
  -28.6895  -11.9988   21.3655 H   0  0  0  0  0  0
  -28.4640  -13.6505   21.8574 H   0  0  0  0  0  0
  -25.2759   -9.5692   22.4764 H   0  0  0  0  0  0
  -24.0003   -7.4637   22.7480 H   0  0  0  0  0  0
  -21.0840   -8.8772   19.8952 H   0  0  0  0  0  0
  -22.3690  -10.9677   19.6170 H   0  0  0  0  0  0
  -21.2004   -7.6142   23.9707 H   0  0  0  0  0  0
  -21.1487   -6.0524   25.9072 H   0  0  0  0  0  0
  -22.0598   -2.7608   23.2847 H   0  0  0  0  0  0
  -22.4113  -11.9870   22.4771 H   0  0  0  0  0  0
  -21.1115  -13.1238   22.2623 H   0  0  0  0  0  0
  -24.6548  -15.8383   20.5009 H   0  0  0  0  0  0
  -26.2644  -15.6236   20.0416 H   0  0  0  0  0  0
  -26.7120  -32.5531   23.1167 H   0  0  0  0  0  0
  -24.9992  -33.9776   25.0444 H   0  0  0  0  0  0
  -22.6966  -31.3097   21.4136 H   0  0  0  0  0  0
  -23.3741  -35.9663   23.3318 H   0  0  0  0  0  0
  -24.3584  -36.8938   22.2058 H   0  0  0  0  0  0
  -23.7235  -37.6529   23.6658 H   0  0  0  0  0  0
  -26.0531  -31.5931   20.5991 H   0  0  0  0  0  0
  -26.8266  -30.8807   21.9854 H   0  0  0  0  0  0
  -28.1059  -29.0674   21.1800 H   0  0  0  0  0  0
  -26.0408  -25.9738   19.0009 H   0  0  0  0  0  0
  -23.9724  -27.3103   19.0218 H   0  0  0  0  0  0
  -23.7223  -30.6042   19.4085 H   0  0  0  0  0  0
  -22.7393  -29.2475   19.8693 H   0  0  0  0  0  0
  -25.1276  -36.1998   25.0830 H   0  0  0  0  0  0
  -20.9963  -28.3246   24.1456 H   0  0  0  0  0  0
  -20.5729  -26.2269   23.3616 H   0  0  0  0  0  0
  -21.6637  -26.7482   22.1192 H   0  0  0  0  0  0
  -19.6925  -25.6307   21.1238 H   0  0  0  0  0  0
  -19.6687  -27.3226   20.6786 H   0  0  0  0  0  0
  -17.4203  -26.6713   21.4018 H   0  0  0  0  0  0
  -18.0299  -26.0065   22.9014 H   0  0  0  0  0  0
  -19.7930  -30.7258   24.2311 H   0  0  0  0  0  0
  -17.5009  -31.6276   24.5165 H   0  0  0  0  0  0
  -15.5350  -30.2996   23.7640 H   0  0  0  0  0  0
  -15.8671  -28.0826   22.7065 H   0  0  0  0  0  0
  -24.5935  -30.6998   25.7786 H   0  0  0  0  0  0
  -24.8861  -32.2807   26.4918 H   0  0  0  0  0  0
  -25.8068  -30.8852   27.0231 H   0  0  0  0  0  0
  -26.2851  -29.6801   24.1183 H   0  0  0  0  0  0
  -27.4103  -29.7294   25.4563 H   0  0  0  0  0  0
  -27.8671  -30.4378   23.9246 H   0  0  0  0  0  0
  -27.2699  -33.3637   26.2060 H   0  0  0  0  0  0
  -28.3844  -32.6868   25.0287 H   0  0  0  0  0  0
  -28.0735  -31.8449   26.5389 H   0  0  0  0  0  0
  -28.2597  -38.0108   24.7517 H   0  0  0  0  0  0
  -28.1077  -36.2637   24.6285 H   0  0  0  0  0  0
  -27.2300  -37.1459   25.8868 H   0  0  0  0  0  0
  -20.9344  -29.8728   21.6917 H   0  0  0  0  0  0
  -26.0198  -38.2885   24.1397 H   0  0  0  0  0  0
  -31.3491  -20.5057   22.4660 H   0  0  0  0  0  0
  -28.4267  -17.7814   20.8864 H   0  0  0  0  0  0
  -32.4068  -16.4031   21.7790 H   0  0  0  0  0  0
  -30.4492  -24.1210   19.5391 H   0  0  0  0  0  0
  -30.5865  -24.2150   21.2781 H   0  0  0  0  0  0
  -31.0947  -21.9791   21.0877 H   0  0  0  0  0  0
  -30.2156  -21.7584   19.5848 H   0  0  0  0  0  0
  -28.0645  -22.7844   18.8220 H   0  0  0  0  0  0
  -28.2778  -24.4868   18.4507 H   0  0  0  0  0  0
  -26.8028  -23.9310   19.2082 H   0  0  0  0  0  0
  -26.0055  -23.5595   21.3757 H   0  0  0  0  0  0
  -26.1669  -22.2060   22.4439 H   0  0  0  0  0  0
  -26.3146  -21.9738   20.6989 H   0  0  0  0  0  0
  -27.7992  -24.1486   23.4149 H   0  0  0  0  0  0
  -29.4592  -23.6068   23.2100 H   0  0  0  0  0  0
  -28.2286  -22.4966   23.7698 H   0  0  0  0  0  0
  -32.7755  -19.6375   24.4979 H   0  0  0  0  0  0
  -34.4461  -19.0928   24.5535 H   0  0  0  0  0  0
  -33.1359  -17.9185   24.5509 H   0  0  0  0  0  0
  -33.4231  -21.0340   22.4413 H   0  0  0  0  0  0
  -33.9636  -20.2256   20.9729 H   0  0  0  0  0  0
  -35.0321  -20.3770   22.3595 H   0  0  0  0  0  0
  -34.3565  -16.7952   22.5997 H   0  0  0  0  0  0
  -35.5454  -18.0590   22.4586 H   0  0  0  0  0  0
  -34.5518  -17.6575   21.0709 H   0  0  0  0  0  0
  -28.8474  -25.7437   21.9152 H   0  0  0  0  0  0
  -27.1943  -25.4945   21.5018 H   0  0  0  0  0  0
  -28.9830  -15.3606   21.1592 H   0  0  0  0  0  0
  -27.5348  -19.1067   22.6044 H   0  0  0  0  0  0
  -26.8736  -20.6866   22.3119 H   0  0  0  0  0  0
  1 25  1  0  0  0
  1 30  2  0  0  0
  1 91  1  0  0  0
  2  3  1  0  0  0
  2 25  1  0  0  0
  2 93  1  0  0  0
  2 94  1  0  0  0
  3  4  1  0  0  0
  3 95  1  0  0  0
  3 96  1  0  0  0
  4  5  1  0  0  0
  4 97  1  0  0  0
  4 98  1  0  0  0
  5  6  1  0  0  0
  5 26  1  0  0  0
  5 99  1  0  0  0
  6 25  1  0  0  0
  6100  1  0  0  0
  6101  1  0  0  0
  7  8  2  0  0  0
  7 26  1  0  0  0
  7 29  1  0  0  0
  8  9  1  0  0  0
  8 22  1  0  0  0
  9 10  1  0  0  0
  9 27  2  0  0  0
 10 11  2  0  0  0
 10 15  1  0  0  0
 11 12  1  0  0  0
 11102  1  0  0  0
 12 13  2  0  0  0
 12103  1  0  0  0
 13 14  1  0  0  0
 13 31  1  0  0  0
 14 15  2  0  0  0
 14104  1  0  0  0
 15105  1  0  0  0
 16 17  2  0  0  0
 16 21  1  0  0  0
 16 31  1  0  0  0
 17 18  1  0  0  0
 17106  1  0  0  0
 18 19  2  0  0  0
 18107  1  0  0  0
 19 20  1  0  0  0
 19 24  1  0  0  0
 20 21  2  0  0  0
 20108  1  0  0  0
 21 23  1  0  0  0
 22 28  1  0  0  0
 22 32  2  0  0  0
 26 27  1  0  0  0
 28109  1  0  0  0
 28110  1  0  0  0
 29111  1  0  0  0
 29112  1  0  0  0
 33 34  1  0  0  0
 33 66  1  0  0  0
 33 70  2  0  0  0
 34 36  1  0  0  0
 34 59  1  0  0  0
 34113  1  0  0  0
 35 44  2  0  0  0
 35 45  1  0  0  0
 35 68  1  0  0  0
 36 56  1  0  0  0
 36114  1  0  0  0
 37 39  1  0  0  0
 37 47  1  0  0  0
 37 66  1  0  0  0
 37115  1  0  0  0
 38 43  2  0  0  0
 38 46  1  0  0  0
 38 47  1  0  0  0
 39 64  1  0  0  0
 39 67  2  0  0  0
 40 52  1  0  0  0
 40 53  2  0  0  0
 40 58  1  0  0  0
 41116  1  0  0  0
 41117  1  0  0  0
 41118  1  0  0  0
 41 48  1  0  0  0
 42 43  1  0  0  0
 42 66  1  0  0  0
 42119  1  0  0  0
 42120  1  0  0  0
 43 44  1  0  0  0
 44121  1  0  0  0
 45 46  2  0  0  0
 45122  1  0  0  0
 46123  1  0  0  0
 47124  1  0  0  0
 47125  1  0  0  0
 48 56  1  0  0  0
 48 65  1  0  0  0
 48126  1  0  0  0
 49 50  1  0  0  0
 49 53  1  0  0  0
 49 64  1  0  0  0
 49127  1  0  0  0
 50 51  1  0  0  0
 50128  1  0  0  0
 50129  1  0  0  0
 51 52  1  0  0  0
 51130  1  0  0  0
 51131  1  0  0  0
 52132  1  0  0  0
 52133  1  0  0  0
 53 54  1  0  0  0
 54 55  2  0  0  0
 54134  1  0  0  0
 55 57  1  0  0  0
 55135  1  0  0  0
 56 69  2  0  0  0
 57 58  2  0  0  0
 57136  1  0  0  0
 58137  1  0  0  0
 59 60  1  0  0  0
 59 61  1  0  0  0
 59 62  1  0  0  0
 60138  1  0  0  0
 60139  1  0  0  0
 60140  1  0  0  0
 61141  1  0  0  0
 61142  1  0  0  0
 61143  1  0  0  0
 62144  1  0  0  0
 62145  1  0  0  0
 62146  1  0  0  0
 63 65  1  0  0  0
 63147  1  0  0  0
 63148  1  0  0  0
 63149  1  0  0  0
 64150  1  0  0  0
 65151  1  0  0  0
 68 88  1  0  0  0
 71 74  2  0  0  0
 71 75  1  0  0  0
 71152  1  0  0  0
 72 74  1  0  0  0
 72 76  2  0  0  0
 72153  1  0  0  0
 73 75  2  0  0  0
 73 76  1  0  0  0
 73154  1  0  0  0
 74 77  1  0  0  0
 75 89  1  0  0  0
 76 91  1  0  0  0
 77 90  1  0  0  0
 77 92  2  0  0  0
 78 79  1  0  0  0
 78 80  1  0  0  0
 78155  1  0  0  0
 78156  1  0  0  0
 79 90  1  0  0  0
 79157  1  0  0  0
 79158  1  0  0  0
 80 81  1  0  0  0
 80 82  1  0  0  0
 80 88  1  0  0  0
 81 83  1  0  0  0
 81 84  1  0  0  0
 81 90  1  0  0  0
 82159  1  0  0  0
 82160  1  0  0  0
 82161  1  0  0  0
 83162  1  0  0  0
 83163  1  0  0  0
 83164  1  0  0  0
 84165  1  0  0  0
 84166  1  0  0  0
 84167  1  0  0  0
 85168  1  0  0  0
 85169  1  0  0  0
 85170  1  0  0  0
 85 89  1  0  0  0
 86 89  1  0  0  0
 86171  1  0  0  0
 86172  1  0  0  0
 86173  1  0  0  0
 87 89  1  0  0  0
 87174  1  0  0  0
 87175  1  0  0  0
 87176  1  0  0  0
 88177  1  0  0  0
 88178  1  0  0  0
 91179  1  0  0  0
 92180  1  0  0  0
 92181  1  0  0  0
M  CHG  1  92   1
M  ISO  4   1 100  68 101  88 101  91 100
M  END
> <chiral flag>
0

> <version>
0

> <s_m_source_file>
/data/baiqing/PycharmProjects/Reinvent-master-3.2/result/LINK_invent/BTK/process_docking_weight1_custom_product_contain_oxygen_bond_distance_aromatic_linkinvent_7_9_3/rearranged_h_0147.sdf

> <i_m_source_file_index>
24

> <r_mmod_Potential_Energy-OPLS-2005>
-38.8698997497559

> <r_mmod_Stretch_Energy-OPLS-2005>
59.010799407959

> <r_mmod_Bend_Energy-OPLS-2005>
153.248229980469

> <r_mmod_Torsional_Energy-OPLS-2005>
351.336303710938

> <r_mmod_Improper_Torsional_Energy-OPLS-2005>
6.09679317474365

> <r_mmod_Van_der_Waal_Energy-OPLS-2005>
180.242919921875

> <r_mmod_Electrostatic_Energy-OPLS-2005>
-437.001220703125

> <r_mmod_Solvation_Energy-OPLS-2005>
-372.0126953125

> <b_mmod_Minimization_Converged-OPLS-2005>
0

> <r_mmod_RMS_Derivative-OPLS-2005>
1.52314257621765

$$$$
24
                    3D
 Structure written by MMmdl.
165174  0  0  1  0            999 V2000
  -30.6872  -14.5628   20.4485 C   0  0  0  0  0  0
  -30.4137  -12.3336   19.4560 C   0  0  0  0  0  0
  -29.4994  -12.4789   18.2217 C   0  0  0  0  0  0
  -28.0209  -12.3399   18.6316 C   0  0  0  0  0  0
  -27.6486  -13.2211   19.8549 C   0  0  2  0  0  0
  -28.6922  -13.1019   20.9887 C   0  0  0  0  0  0
  -25.2541  -13.8190   20.5680 C   0  0  0  0  0  0
  -24.1818  -13.0447   20.9194 C   0  0  0  0  0  0
  -24.6393  -11.6921   20.8741 C   0  0  0  0  0  0
  -23.9068  -10.4298   21.0402 C   0  0  0  0  0  0
  -24.3620   -9.4213   21.9180 C   0  0  0  0  0  0
  -23.6297   -8.2247   22.0750 C   0  0  0  0  0  0
  -22.4278   -8.0284   21.3542 C   0  0  0  0  0  0
  -21.9912   -9.0257   20.4643 C   0  0  0  0  0  0
  -22.7239  -10.2138   20.3053 C   0  0  0  0  0  0
  -21.6856   -6.0737   22.5278 C   0  0  0  0  0  0
  -21.4016   -6.5640   23.8213 C   0  0  0  0  0  0
  -21.3661   -5.6792   24.9174 C   0  0  0  0  0  0
  -21.6045   -4.3055   24.7224 C   0  0  0  0  0  0
  -21.8821   -3.8147   23.4344 C   0  0  0  0  0  0
  -21.9193   -4.6964   22.3402 C   0  0  0  0  0  0
  -22.7840  -13.5232   21.1856 C   0  0  0  0  0  0
  -22.1662   -4.2149   21.0978 F   0  0  0  0  0  0
  -21.5630   -3.4538   25.7735 F   0  0  0  0  0  0
  -30.0137  -13.3785   20.4148 N   0  0  0  0  0  0
  -26.2966  -12.9383   20.3292 N   0  0  0  0  0  0
  -25.9320  -11.6533   20.5756 N   0  0  0  0  0  0
  -22.0483  -12.8226   22.0415 N   0  0  0  0  0  0
  -25.4241  -15.1913   20.4094 N   0  0  0  0  0  0
  -31.8930  -14.6239   20.1980 O   0  0  0  0  0  0
  -21.6643   -6.8879   21.4240 O   0  0  0  0  0  0
  -22.3523  -14.5536   20.6701 O   0  0  0  0  0  0
  -24.6193  -31.8645   23.2068 C   0  0  0  0  0  0
  -25.9066  -32.4804   23.8375 C   0  0  1  0  0  0
  -27.2235  -27.3775   20.1142 C   0  0  0  0  0  0
  -25.5903  -33.8604   24.2302 N   0  0  0  0  0  0
  -23.4096  -30.4882   21.5484 C   0  0  2  0  0  0
  -24.8546  -28.9478   20.1157 C   0  0  0  0  0  0
  -22.7434  -29.4644   22.4969 C   0  0  0  0  0  0
  -18.0274  -28.1379   22.8490 C   0  0  0  0  0  0
  -24.1488  -36.7308   23.2639 C   0  0  0  0  0  0
  -25.9443  -30.8137   21.3685 C   0  0  0  0  0  0
  -26.0194  -29.4446   20.7142 C   0  0  0  0  0  0
  -27.2087  -28.6701   20.7033 C   0  0  0  0  0  0
  -26.0408  -26.9157   19.4954 C   0  0  0  0  0  0
  -24.8635  -27.6859   19.5000 C   0  0  0  0  0  0
  -23.6207  -29.8218   20.1634 C   0  0  0  0  0  0
  -25.4111  -36.3102   24.0333 C   0  0  1  0  0  0
  -20.5870  -28.3672   23.1306 C   0  0  2  0  0  0
  -20.6764  -26.9403   22.5416 C   0  0  0  0  0  0
  -19.5742  -26.6384   21.5212 C   0  0  0  0  0  0
  -18.1922  -26.7923   22.1625 C   0  0  0  0  0  0
  -19.1527  -28.8841   23.2894 C   0  0  0  0  0  0
  -18.9455  -30.1447   23.8905 C   0  0  0  0  0  0
  -17.6458  -30.6585   24.0565 C   0  0  0  0  0  0
  -25.9041  -34.9468   23.5116 C   0  0  0  0  0  0
  -16.5347  -29.9088   23.6329 C   0  0  0  0  0  0
  -16.7265  -28.6504   23.0349 C   0  0  0  0  0  0
  -26.4474  -31.6599   25.0724 C   0  0  0  0  0  0
  -25.3730  -31.3723   26.1467 C   0  0  0  0  0  0
  -27.0309  -30.3032   24.6137 C   0  0  0  0  0  0
  -27.6041  -32.4328   25.7490 C   0  0  0  0  0  0
  -27.5580  -37.1810   24.8464 C   0  0  0  0  0  0
  -21.4156  -29.3036   22.3709 N   0  0  0  0  0  0
  -26.4295  -37.3790   23.9406 N   0  0  0  0  0  0
  -24.6762  -31.0708   22.0989 N   0  0  0  0  0  0
  -23.4184  -28.8184   23.3028 O   0  0  0  0  0  0
  -28.3731  -26.5990   20.1182 O   0  0  0  0  0  0
  -26.5611  -34.8926   22.4684 O   0  0  0  0  0  0
  -23.5373  -32.1419   23.7433 O   0  0  0  0  0  0
  -31.1747  -17.7563   17.5757 C   0  0  0  0  0  0
  -30.7889  -16.6826   18.3881 C   0  0  0  0  0  0
  -29.9285  -18.2427   20.0826 C   0  0  0  0  0  0
  -30.9591  -19.0564   18.0421 C   0  0  0  0  0  0
  -30.3197  -19.3455   19.2491 C   0  0  0  0  0  0
  -30.2173  -16.8872   19.6735 C   0  0  0  0  0  0
  -31.4090  -20.2823   17.3336 C   0  0  0  0  0  0
  -30.9065  -21.3724   18.2734 C   0  0  0  0  0  0
  -29.7197  -24.3609   18.6085 C   0  0  0  0  0  0
  -30.7250  -25.0911   20.7670 C   0  0  0  0  0  0
  -29.5390  -22.8650   20.7739 C   0  0  0  0  0  0
  -29.1315  -21.5240   20.0331 C   0  0  0  0  0  0
  -28.2447  -25.1820   20.4570 C   0  0  0  0  0  0
  -29.5320  -24.3370   20.1357 C   0  0  0  0  0  0
  -30.2606  -20.7628   19.4463 N   0  0  0  0  0  0
  -29.9434  -15.7077   20.4820 N   0  0  0  0  0  0
  -31.4616  -12.4114   19.1603 H   0  0  0  0  0  0
  -30.3020  -11.3460   19.9061 H   0  0  0  0  0  0
  -29.7520  -11.7247   17.4752 H   0  0  0  0  0  0
  -29.6626  -13.4475   17.7465 H   0  0  0  0  0  0
  -27.8460  -11.2895   18.8664 H   0  0  0  0  0  0
  -27.3710  -12.5731   17.7872 H   0  0  0  0  0  0
  -27.6617  -14.2518   19.5007 H   0  0  0  0  0  0
  -28.6777  -12.1024   21.4252 H   0  0  0  0  0  0
  -28.4639  -13.7948   21.8001 H   0  0  0  0  0  0
  -25.2765   -9.5694   22.4755 H   0  0  0  0  0  0
  -24.0008   -7.4640   22.7471 H   0  0  0  0  0  0
  -21.0841   -8.8777   19.8951 H   0  0  0  0  0  0
  -22.3693  -10.9679   19.6166 H   0  0  0  0  0  0
  -21.2008   -7.6148   23.9716 H   0  0  0  0  0  0
  -21.1481   -6.0520   25.9078 H   0  0  0  0  0  0
  -22.0597   -2.7609   23.2843 H   0  0  0  0  0  0
  -22.4099  -11.9892   22.4815 H   0  0  0  0  0  0
  -21.1098  -13.1249   22.2611 H   0  0  0  0  0  0
  -24.6559  -15.8445   20.5190 H   0  0  0  0  0  0
  -26.2711  -15.6316   20.0730 H   0  0  0  0  0  0
  -26.7135  -32.5496   23.1130 H   0  0  0  0  0  0
  -25.0040  -33.9757   25.0437 H   0  0  0  0  0  0
  -22.7010  -31.3070   21.4077 H   0  0  0  0  0  0
  -23.3747  -35.9645   23.3313 H   0  0  0  0  0  0
  -24.3577  -36.8915   22.2051 H   0  0  0  0  0  0
  -23.7245  -37.6517   23.6651 H   0  0  0  0  0  0
  -26.0668  -31.5793   20.6010 H   0  0  0  0  0  0
  -26.8282  -30.8631   21.9928 H   0  0  0  0  0  0
  -28.1080  -29.0495   21.1680 H   0  0  0  0  0  0
  -26.0125  -25.9617   18.9910 H   0  0  0  0  0  0
  -23.9713  -27.3020   19.0247 H   0  0  0  0  0  0
  -23.7360  -30.5973   19.4054 H   0  0  0  0  0  0
  -22.7425  -29.2470   19.8638 H   0  0  0  0  0  0
  -25.1292  -36.1962   25.0827 H   0  0  0  0  0  0
  -20.9960  -28.3236   24.1427 H   0  0  0  0  0  0
  -20.5662  -26.2278   23.3605 H   0  0  0  0  0  0
  -21.6635  -26.7439   22.1211 H   0  0  0  0  0  0
  -19.6905  -25.6297   21.1234 H   0  0  0  0  0  0
  -19.6682  -27.3201   20.6747 H   0  0  0  0  0  0
  -17.4191  -26.6668   21.4029 H   0  0  0  0  0  0
  -18.0328  -26.0063   22.9021 H   0  0  0  0  0  0
  -19.7933  -30.7259   24.2275 H   0  0  0  0  0  0
  -17.5017  -31.6267   24.5165 H   0  0  0  0  0  0
  -15.5350  -30.2995   23.7652 H   0  0  0  0  0  0
  -15.8662  -28.0831   22.7057 H   0  0  0  0  0  0
  -24.5891  -30.7084   25.7803 H   0  0  0  0  0  0
  -24.8937  -32.2887   26.4921 H   0  0  0  0  0  0
  -25.8072  -30.8882   27.0223 H   0  0  0  0  0  0
  -26.2868  -29.6796   24.1168 H   0  0  0  0  0  0
  -27.4033  -29.7271   25.4618 H   0  0  0  0  0  0
  -27.8725  -30.4334   23.9329 H   0  0  0  0  0  0
  -27.2647  -33.3613   26.2092 H   0  0  0  0  0  0
  -28.3837  -32.6912   25.0311 H   0  0  0  0  0  0
  -28.0725  -31.8441   26.5387 H   0  0  0  0  0  0
  -28.2607  -38.0099   24.7505 H   0  0  0  0  0  0
  -28.1067  -36.2631   24.6299 H   0  0  0  0  0  0
  -27.2296  -37.1472   25.8868 H   0  0  0  0  0  0
  -20.9318  -29.8768   21.6939 H   0  0  0  0  0  0
  -26.0182  -38.2868   24.1403 H   0  0  0  0  0  0
  -31.6555  -17.5797   16.6238 H   0  0  0  0  0  0
  -30.9800  -15.6877   18.0110 H   0  0  0  0  0  0
  -29.4743  -18.4327   21.0442 H   0  0  0  0  0  0
  -30.9602  -20.3532   16.3420 H   0  0  0  0  0  0
  -32.4952  -20.2959   17.2366 H   0  0  0  0  0  0
  -30.1812  -21.9655   17.7205 H   0  0  0  0  0  0
  -31.7236  -22.0253   18.5832 H   0  0  0  0  0  0
  -30.7092  -24.0178   18.3148 H   0  0  0  0  0  0
  -29.6314  -25.3747   18.2160 H   0  0  0  0  0  0
  -28.9631  -23.7636   18.1005 H   0  0  0  0  0  0
  -31.6705  -24.5817   20.5755 H   0  0  0  0  0  0
  -30.6109  -25.1763   21.8485 H   0  0  0  0  0  0
  -30.8283  -26.1023   20.3713 H   0  0  0  0  0  0
  -30.5199  -22.6735   21.2112 H   0  0  0  0  0  0
  -28.8952  -22.9230   21.6526 H   0  0  0  0  0  0
  -28.3740  -21.7246   19.2744 H   0  0  0  0  0  0
  -28.6499  -20.8677   20.7598 H   0  0  0  0  0  0
  -28.0279  -25.1268   21.5247 H   0  0  0  0  0  0
  -27.4021  -24.7064   19.9586 H   0  0  0  0  0  0
  -29.0178  -15.6356   20.8771 H   0  0  0  0  0  0
  1 25  1  0  0  0
  1 30  2  0  0  0
  1 86  1  0  0  0
  2  3  1  0  0  0
  2 25  1  0  0  0
  2 87  1  0  0  0
  2 88  1  0  0  0
  3  4  1  0  0  0
  3 89  1  0  0  0
  3 90  1  0  0  0
  4  5  1  0  0  0
  4 91  1  0  0  0
  4 92  1  0  0  0
  5  6  1  0  0  0
  5 26  1  0  0  0
  5 93  1  0  0  0
  6 25  1  0  0  0
  6 94  1  0  0  0
  6 95  1  0  0  0
  7  8  2  0  0  0
  7 26  1  0  0  0
  7 29  1  0  0  0
  8  9  1  0  0  0
  8 22  1  0  0  0
  9 10  1  0  0  0
  9 27  2  0  0  0
 10 11  2  0  0  0
 10 15  1  0  0  0
 11 12  1  0  0  0
 11 96  1  0  0  0
 12 13  2  0  0  0
 12 97  1  0  0  0
 13 14  1  0  0  0
 13 31  1  0  0  0
 14 15  2  0  0  0
 14 98  1  0  0  0
 15 99  1  0  0  0
 16 17  2  0  0  0
 16 21  1  0  0  0
 16 31  1  0  0  0
 17 18  1  0  0  0
 17100  1  0  0  0
 18 19  2  0  0  0
 18101  1  0  0  0
 19 20  1  0  0  0
 19 24  1  0  0  0
 20 21  2  0  0  0
 20102  1  0  0  0
 21 23  1  0  0  0
 22 28  1  0  0  0
 22 32  2  0  0  0
 26 27  1  0  0  0
 28103  1  0  0  0
 28104  1  0  0  0
 29105  1  0  0  0
 29106  1  0  0  0
 33 34  1  0  0  0
 33 66  1  0  0  0
 33 70  2  0  0  0
 34 36  1  0  0  0
 34 59  1  0  0  0
 34107  1  0  0  0
 35 44  2  0  0  0
 35 45  1  0  0  0
 35 68  1  0  0  0
 36 56  1  0  0  0
 36108  1  0  0  0
 37 39  1  0  0  0
 37 47  1  0  0  0
 37 66  1  0  0  0
 37109  1  0  0  0
 38 43  2  0  0  0
 38 46  1  0  0  0
 38 47  1  0  0  0
 39 64  1  0  0  0
 39 67  2  0  0  0
 40 52  1  0  0  0
 40 53  2  0  0  0
 40 58  1  0  0  0
 41110  1  0  0  0
 41111  1  0  0  0
 41112  1  0  0  0
 41 48  1  0  0  0
 42 43  1  0  0  0
 42 66  1  0  0  0
 42113  1  0  0  0
 42114  1  0  0  0
 43 44  1  0  0  0
 44115  1  0  0  0
 45 46  2  0  0  0
 45116  1  0  0  0
 46117  1  0  0  0
 47118  1  0  0  0
 47119  1  0  0  0
 48 56  1  0  0  0
 48 65  1  0  0  0
 48120  1  0  0  0
 49 50  1  0  0  0
 49 53  1  0  0  0
 49 64  1  0  0  0
 49121  1  0  0  0
 50 51  1  0  0  0
 50122  1  0  0  0
 50123  1  0  0  0
 51 52  1  0  0  0
 51124  1  0  0  0
 51125  1  0  0  0
 52126  1  0  0  0
 52127  1  0  0  0
 53 54  1  0  0  0
 54 55  2  0  0  0
 54128  1  0  0  0
 55 57  1  0  0  0
 55129  1  0  0  0
 56 69  2  0  0  0
 57 58  2  0  0  0
 57130  1  0  0  0
 58131  1  0  0  0
 59 60  1  0  0  0
 59 61  1  0  0  0
 59 62  1  0  0  0
 60132  1  0  0  0
 60133  1  0  0  0
 60134  1  0  0  0
 61135  1  0  0  0
 61136  1  0  0  0
 61137  1  0  0  0
 62138  1  0  0  0
 62139  1  0  0  0
 62140  1  0  0  0
 63 65  1  0  0  0
 63141  1  0  0  0
 63142  1  0  0  0
 63143  1  0  0  0
 64144  1  0  0  0
 65145  1  0  0  0
 68 83  1  0  0  0
 71 72  2  0  0  0
 71 74  1  0  0  0
 71146  1  0  0  0
 72 76  1  0  0  0
 72147  1  0  0  0
 73 75  1  0  0  0
 73 76  2  0  0  0
 73148  1  0  0  0
 74 75  2  0  0  0
 74 77  1  0  0  0
 75 85  1  0  0  0
 76 86  1  0  0  0
 77 78  1  0  0  0
 77149  1  0  0  0
 77150  1  0  0  0
 78 85  1  0  0  0
 78151  1  0  0  0
 78152  1  0  0  0
 79153  1  0  0  0
 79154  1  0  0  0
 79155  1  0  0  0
 79 84  1  0  0  0
 80 84  1  0  0  0
 80156  1  0  0  0
 80157  1  0  0  0
 80158  1  0  0  0
 81 82  1  0  0  0
 81 84  1  0  0  0
 81159  1  0  0  0
 81160  1  0  0  0
 82 85  1  0  0  0
 82161  1  0  0  0
 82162  1  0  0  0
 83 84  1  0  0  0
 83163  1  0  0  0
 83164  1  0  0  0
 86165  1  0  0  0
M  ISO  4   1 100  68 101  83 101  86 100
M  END
> <chiral flag>
0

> <version>
0

> <s_m_source_file>
/data/baiqing/PycharmProjects/Reinvent-master-3.2/result/LINK_invent/BTK/process_docking_weight1_custom_product_contain_oxygen_bond_distance_aromatic_linkinvent_7_9_3/rearranged_h_0147.sdf

> <i_m_source_file_index>
25

> <r_mmod_Potential_Energy-OPLS-2005>
175.564437866211

> <r_mmod_Stretch_Energy-OPLS-2005>
68.0218276977539

> <r_mmod_Bend_Energy-OPLS-2005>
183.80989074707

> <r_mmod_Torsional_Energy-OPLS-2005>
295.53955078125

> <r_mmod_Improper_Torsional_Energy-OPLS-2005>
11.1652240753174

> <r_mmod_Van_der_Waal_Energy-OPLS-2005>
152.441543579102

> <r_mmod_Electrostatic_Energy-OPLS-2005>
-345.579925537109

> <r_mmod_Solvation_Energy-OPLS-2005>
-223.316299438477

> <b_mmod_Minimization_Converged-OPLS-2005>
0

> <r_mmod_RMS_Derivative-OPLS-2005>
0.401432901620865

$$$$
25
                    3D
 Structure written by MMmdl.
167176  0  0  1  0            999 V2000
  -30.6334  -14.7468   20.4574 C   0  0  0  0  0  0
  -30.4247  -12.4558   19.4743 C   0  0  0  0  0  0
  -29.5046  -12.4967   18.2359 C   0  0  0  0  0  0
  -28.0337  -12.3197   18.6552 C   0  0  0  0  0  0
  -27.6381  -13.2323   19.8464 C   0  0  2  0  0  0
  -28.6835  -13.1905   20.9823 C   0  0  0  0  0  0
  -25.2500  -13.8204   20.5697 C   0  0  0  0  0  0
  -24.1795  -13.0442   20.9216 C   0  0  0  0  0  0
  -24.6391  -11.6921   20.8757 C   0  0  0  0  0  0
  -23.9069  -10.4294   21.0414 C   0  0  0  0  0  0
  -24.3618   -9.4207   21.9190 C   0  0  0  0  0  0
  -23.6294   -8.2241   22.0755 C   0  0  0  0  0  0
  -22.4276   -8.0281   21.3545 C   0  0  0  0  0  0
  -21.9914   -9.0252   20.4644 C   0  0  0  0  0  0
  -22.7242  -10.2135   20.3057 C   0  0  0  0  0  0
  -21.6854   -6.0735   22.5278 C   0  0  0  0  0  0
  -21.4016   -6.5640   23.8210 C   0  0  0  0  0  0
  -21.3657   -5.6795   24.9172 C   0  0  0  0  0  0
  -21.6044   -4.3057   24.7225 C   0  0  0  0  0  0
  -21.8820   -3.8146   23.4346 C   0  0  0  0  0  0
  -21.9193   -4.6963   22.3401 C   0  0  0  0  0  0
  -22.7819  -13.5223   21.1869 C   0  0  0  0  0  0
  -22.1663   -4.2150   21.0979 F   0  0  0  0  0  0
  -21.5626   -3.4539   25.7736 F   0  0  0  0  0  0
  -29.9817  -13.5340   20.3909 N   0  0  0  0  0  0
  -26.2920  -12.9411   20.3280 N   0  0  0  0  0  0
  -25.9321  -11.6553   20.5765 N   0  0  0  0  0  0
  -22.0473  -12.8200   22.0425 N   0  0  0  0  0  0
  -25.4186  -15.1925   20.4097 N   0  0  0  0  0  0
  -31.8247  -14.7906   20.1414 O   0  0  0  0  0  0
  -21.6642   -6.8876   21.4237 O   0  0  0  0  0  0
  -22.3498  -14.5525   20.6717 O   0  0  0  0  0  0
  -24.6296  -31.8547   23.1979 C   0  0  0  0  0  0
  -25.9131  -32.4754   23.8316 C   0  0  1  0  0  0
  -27.2243  -27.2636   20.1220 C   0  0  0  0  0  0
  -25.5925  -33.8553   24.2240 N   0  0  0  0  0  0
  -23.4257  -30.4744   21.5433 C   0  0  2  0  0  0
  -24.8721  -28.9197   20.1087 C   0  0  0  0  0  0
  -22.7502  -29.4562   22.4940 C   0  0  0  0  0  0
  -18.0279  -28.1358   22.8474 C   0  0  0  0  0  0
  -24.1490  -36.7273   23.2643 C   0  0  0  0  0  0
  -25.9700  -30.7668   21.3775 C   0  0  0  0  0  0
  -26.0419  -29.3899   20.7172 C   0  0  0  0  0  0
  -27.2159  -28.5731   20.7130 C   0  0  0  0  0  0
  -26.0252  -26.8509   19.4981 C   0  0  0  0  0  0
  -24.8689  -27.6586   19.4907 C   0  0  0  0  0  0
  -23.6427  -29.8072   20.1587 C   0  0  0  0  0  0
  -25.4119  -36.3068   24.0321 C   0  0  1  0  0  0
  -20.5883  -28.3657   23.1281 C   0  0  2  0  0  0
  -20.6767  -26.9375   22.5410 C   0  0  0  0  0  0
  -19.5743  -26.6355   21.5207 C   0  0  0  0  0  0
  -18.1920  -26.7902   22.1614 C   0  0  0  0  0  0
  -19.1534  -28.8827   23.2867 C   0  0  0  0  0  0
  -18.9462  -30.1436   23.8873 C   0  0  0  0  0  0
  -17.6465  -30.6573   24.0544 C   0  0  0  0  0  0
  -25.9057  -34.9440   23.5087 C   0  0  0  0  0  0
  -16.5355  -29.9062   23.6333 C   0  0  0  0  0  0
  -16.7269  -28.6478   23.0352 C   0  0  0  0  0  0
  -26.4498  -31.6590   25.0716 C   0  0  0  0  0  0
  -25.3713  -31.3745   26.1437 C   0  0  0  0  0  0
  -27.0355  -30.3009   24.6203 C   0  0  0  0  0  0
  -27.6039  -32.4354   25.7489 C   0  0  0  0  0  0
  -27.5578  -37.1791   24.8462 C   0  0  0  0  0  0
  -21.4209  -29.3010   22.3692 N   0  0  0  0  0  0
  -26.4293  -37.3767   23.9405 N   0  0  0  0  0  0
  -24.6939  -31.0505   22.0959 N   0  0  0  0  0  0
  -23.4209  -28.8113   23.3038 O   0  0  0  0  0  0
  -28.3568  -26.4213   20.1942 O   0  0  0  0  0  0
  -26.5638  -34.8920   22.4662 O   0  0  0  0  0  0
  -23.5449  -32.1371   23.7289 O   0  0  0  0  0  0
  -32.1151  -18.9459   21.2439 C   0  0  0  0  0  0
  -31.6632  -17.6332   21.0493 C   0  0  0  0  0  0
  -29.4534  -18.5226   20.6067 C   0  0  0  0  0  0
  -31.2673  -20.0699   21.1517 C   0  0  0  0  0  0
  -29.8918  -19.9146   20.7837 C   0  0  0  0  0  0
  -30.3178  -17.3478   20.7384 C   0  0  0  0  0  0
  -29.1900  -22.3525   20.1615 C   0  0  0  0  0  0
  -27.0506  -22.1340   22.0841 C   0  0  0  0  0  0
  -27.0895  -23.3865   21.1927 C   0  0  0  0  0  0
  -27.6513  -20.8948   21.3872 C   0  0  0  0  0  0
  -28.5110  -23.7240   20.6997 C   0  0  1  0  0  0
  -29.3810  -24.2091   21.8804 C   0  0  0  0  0  0
  -31.6650  -21.6169   23.1134 C   0  0  0  0  0  0
  -31.9020  -21.3810   21.6165 C   0  0  0  0  0  0
  -28.4324  -25.0018   19.6932 C   0  0  0  0  0  0
  -28.9718  -21.1069   20.7723 N   0  0  0  0  0  0
  -29.8910  -15.9165   20.6386 N   0  0  0  0  0  0
  -29.9422  -22.4403   19.1860 O   0  0  0  0  0  0
  -31.4660  -12.5667   19.1675 H   0  0  0  0  0  0
  -30.3637  -11.4857   19.9706 H   0  0  0  0  0  0
  -29.7869  -11.7152   17.5293 H   0  0  0  0  0  0
  -29.6279  -13.4451   17.7108 H   0  0  0  0  0  0
  -27.8987  -11.2737   18.9332 H   0  0  0  0  0  0
  -27.3717  -12.4946   17.8066 H   0  0  0  0  0  0
  -27.6265  -14.2480   19.4512 H   0  0  0  0  0  0
  -28.7212  -12.2034   21.4454 H   0  0  0  0  0  0
  -28.4193  -13.8921   21.7750 H   0  0  0  0  0  0
  -25.2763   -9.5685   22.4768 H   0  0  0  0  0  0
  -24.0003   -7.4634   22.7477 H   0  0  0  0  0  0
  -21.0847   -8.8770   19.8948 H   0  0  0  0  0  0
  -22.3699  -10.9674   19.6167 H   0  0  0  0  0  0
  -21.2013   -7.6150   23.9713 H   0  0  0  0  0  0
  -21.1477   -6.0526   25.9077 H   0  0  0  0  0  0
  -22.0601   -2.7609   23.2845 H   0  0  0  0  0  0
  -22.4105  -11.9866   22.4803 H   0  0  0  0  0  0
  -21.1086  -13.1208   22.2641 H   0  0  0  0  0  0
  -24.6477  -15.8432   20.5156 H   0  0  0  0  0  0
  -26.2593  -15.6308   20.0574 H   0  0  0  0  0  0
  -26.7197  -32.5403   23.1052 H   0  0  0  0  0  0
  -25.0072  -33.9677   25.0386 H   0  0  0  0  0  0
  -22.7214  -31.2966   21.3997 H   0  0  0  0  0  0
  -23.3761  -35.9596   23.3302 H   0  0  0  0  0  0
  -24.3583  -36.8907   22.2061 H   0  0  0  0  0  0
  -23.7234  -37.6464   23.6680 H   0  0  0  0  0  0
  -26.1136  -31.5304   20.6121 H   0  0  0  0  0  0
  -26.8455  -30.8110   22.0138 H   0  0  0  0  0  0
  -28.1133  -28.9294   21.2001 H   0  0  0  0  0  0
  -25.9382  -25.8841   19.0295 H   0  0  0  0  0  0
  -23.9695  -27.2902   19.0163 H   0  0  0  0  0  0
  -23.7665  -30.5846   19.4040 H   0  0  0  0  0  0
  -22.7606  -29.2410   19.8548 H   0  0  0  0  0  0
  -25.1307  -36.1912   25.0812 H   0  0  0  0  0  0
  -20.9958  -28.3217   24.1406 H   0  0  0  0  0  0
  -20.5653  -26.2252   23.3602 H   0  0  0  0  0  0
  -21.6634  -26.7385   22.1209 H   0  0  0  0  0  0
  -19.6898  -25.6264   21.1232 H   0  0  0  0  0  0
  -19.6691  -27.3169   20.6740 H   0  0  0  0  0  0
  -17.4192  -26.6639   21.4018 H   0  0  0  0  0  0
  -18.0315  -26.0044   22.9006 H   0  0  0  0  0  0
  -19.7949  -30.7246   24.2227 H   0  0  0  0  0  0
  -17.5027  -31.6255   24.5144 H   0  0  0  0  0  0
  -15.5353  -30.2956   23.7679 H   0  0  0  0  0  0
  -15.8664  -28.0802   22.7074 H   0  0  0  0  0  0
  -24.5884  -30.7100   25.7763 H   0  0  0  0  0  0
  -24.8906  -32.2921   26.4845 H   0  0  0  0  0  0
  -25.8023  -30.8934   27.0223 H   0  0  0  0  0  0
  -26.2937  -29.6750   24.1229 H   0  0  0  0  0  0
  -27.4042  -29.7284   25.4721 H   0  0  0  0  0  0
  -27.8812  -30.4287   23.9442 H   0  0  0  0  0  0
  -27.2624  -33.3664   26.2025 H   0  0  0  0  0  0
  -28.3859  -32.6905   25.0326 H   0  0  0  0  0  0
  -28.0688  -31.8512   26.5440 H   0  0  0  0  0  0
  -28.2590  -38.0099   24.7535 H   0  0  0  0  0  0
  -28.1086  -36.2629   24.6268 H   0  0  0  0  0  0
  -27.2296  -37.1412   25.8867 H   0  0  0  0  0  0
  -20.9394  -29.8759   21.6925 H   0  0  0  0  0  0
  -26.0174  -38.2833   24.1427 H   0  0  0  0  0  0
  -33.1472  -19.0798   21.5383 H   0  0  0  0  0  0
  -32.3861  -16.8470   21.2017 H   0  0  0  0  0  0
  -28.4112  -18.3503   20.3806 H   0  0  0  0  0  0
  -26.0194  -21.9223   22.3697 H   0  0  0  0  0  0
  -27.5793  -22.3204   23.0187 H   0  0  0  0  0  0
  -26.6724  -24.2361   21.7349 H   0  0  0  0  0  0
  -26.4346  -23.2325   20.3333 H   0  0  0  0  0  0
  -26.9723  -20.5502   20.6063 H   0  0  0  0  0  0
  -27.7113  -20.0879   22.1187 H   0  0  0  0  0  0
  -29.5222  -23.4414   22.6371 H   0  0  0  0  0  0
  -28.9297  -25.0662   22.3807 H   0  0  0  0  0  0
  -30.3713  -24.5154   21.5401 H   0  0  0  0  0  0
  -32.0905  -22.5687   23.4324 H   0  0  0  0  0  0
  -32.1251  -20.8305   23.7123 H   0  0  0  0  0  0
  -30.6020  -21.6259   23.3526 H   0  0  0  0  0  0
  -31.5991  -22.2465   21.0402 H   0  0  0  0  0  0
  -32.9781  -21.3348   21.4416 H   0  0  0  0  0  0
  -27.6947  -24.8057   18.9189 H   0  0  0  0  0  0
  -29.3669  -24.9990   19.1322 H   0  0  0  0  0  0
  -28.8982  -15.7587   20.7131 H   0  0  0  0  0  0
  1 25  1  0  0  0
  1 30  2  0  0  0
  1 87  1  0  0  0
  2  3  1  0  0  0
  2 25  1  0  0  0
  2 89  1  0  0  0
  2 90  1  0  0  0
  3  4  1  0  0  0
  3 91  1  0  0  0
  3 92  1  0  0  0
  4  5  1  0  0  0
  4 93  1  0  0  0
  4 94  1  0  0  0
  5  6  1  0  0  0
  5 26  1  0  0  0
  5 95  1  0  0  0
  6 25  1  0  0  0
  6 96  1  0  0  0
  6 97  1  0  0  0
  7  8  2  0  0  0
  7 26  1  0  0  0
  7 29  1  0  0  0
  8  9  1  0  0  0
  8 22  1  0  0  0
  9 10  1  0  0  0
  9 27  2  0  0  0
 10 11  2  0  0  0
 10 15  1  0  0  0
 11 12  1  0  0  0
 11 98  1  0  0  0
 12 13  2  0  0  0
 12 99  1  0  0  0
 13 14  1  0  0  0
 13 31  1  0  0  0
 14 15  2  0  0  0
 14100  1  0  0  0
 15101  1  0  0  0
 16 17  2  0  0  0
 16 21  1  0  0  0
 16 31  1  0  0  0
 17 18  1  0  0  0
 17102  1  0  0  0
 18 19  2  0  0  0
 18103  1  0  0  0
 19 20  1  0  0  0
 19 24  1  0  0  0
 20 21  2  0  0  0
 20104  1  0  0  0
 21 23  1  0  0  0
 22 28  1  0  0  0
 22 32  2  0  0  0
 26 27  1  0  0  0
 28105  1  0  0  0
 28106  1  0  0  0
 29107  1  0  0  0
 29108  1  0  0  0
 33 34  1  0  0  0
 33 66  1  0  0  0
 33 70  2  0  0  0
 34 36  1  0  0  0
 34 59  1  0  0  0
 34109  1  0  0  0
 35 44  2  0  0  0
 35 45  1  0  0  0
 35 68  1  0  0  0
 36 56  1  0  0  0
 36110  1  0  0  0
 37 39  1  0  0  0
 37 47  1  0  0  0
 37 66  1  0  0  0
 37111  1  0  0  0
 38 43  2  0  0  0
 38 46  1  0  0  0
 38 47  1  0  0  0
 39 64  1  0  0  0
 39 67  2  0  0  0
 40 52  1  0  0  0
 40 53  2  0  0  0
 40 58  1  0  0  0
 41112  1  0  0  0
 41113  1  0  0  0
 41114  1  0  0  0
 41 48  1  0  0  0
 42 43  1  0  0  0
 42 66  1  0  0  0
 42115  1  0  0  0
 42116  1  0  0  0
 43 44  1  0  0  0
 44117  1  0  0  0
 45 46  2  0  0  0
 45118  1  0  0  0
 46119  1  0  0  0
 47120  1  0  0  0
 47121  1  0  0  0
 48 56  1  0  0  0
 48 65  1  0  0  0
 48122  1  0  0  0
 49 50  1  0  0  0
 49 53  1  0  0  0
 49 64  1  0  0  0
 49123  1  0  0  0
 50 51  1  0  0  0
 50124  1  0  0  0
 50125  1  0  0  0
 51 52  1  0  0  0
 51126  1  0  0  0
 51127  1  0  0  0
 52128  1  0  0  0
 52129  1  0  0  0
 53 54  1  0  0  0
 54 55  2  0  0  0
 54130  1  0  0  0
 55 57  1  0  0  0
 55131  1  0  0  0
 56 69  2  0  0  0
 57 58  2  0  0  0
 57132  1  0  0  0
 58133  1  0  0  0
 59 60  1  0  0  0
 59 61  1  0  0  0
 59 62  1  0  0  0
 60134  1  0  0  0
 60135  1  0  0  0
 60136  1  0  0  0
 61137  1  0  0  0
 61138  1  0  0  0
 61139  1  0  0  0
 62140  1  0  0  0
 62141  1  0  0  0
 62142  1  0  0  0
 63 65  1  0  0  0
 63143  1  0  0  0
 63144  1  0  0  0
 63145  1  0  0  0
 64146  1  0  0  0
 65147  1  0  0  0
 68 85  1  0  0  0
 71 72  2  0  0  0
 71 74  1  0  0  0
 71148  1  0  0  0
 72 76  1  0  0  0
 72149  1  0  0  0
 73 75  1  0  0  0
 73 76  2  0  0  0
 73150  1  0  0  0
 74 75  2  0  0  0
 74 84  1  0  0  0
 75 86  1  0  0  0
 76 87  1  0  0  0
 77 81  1  0  0  0
 77 86  1  0  0  0
 77 88  2  0  0  0
 78 79  1  0  0  0
 78 80  1  0  0  0
 78151  1  0  0  0
 78152  1  0  0  0
 79 81  1  0  0  0
 79153  1  0  0  0
 79154  1  0  0  0
 80 86  1  0  0  0
 80155  1  0  0  0
 80156  1  0  0  0
 81 82  1  0  0  0
 81 85  1  0  0  0
 82157  1  0  0  0
 82158  1  0  0  0
 82159  1  0  0  0
 83 84  1  0  0  0
 83160  1  0  0  0
 83161  1  0  0  0
 83162  1  0  0  0
 84163  1  0  0  0
 84164  1  0  0  0
 85165  1  0  0  0
 85166  1  0  0  0
 87167  1  0  0  0
M  ISO  4   1 100  68 101  85 101  87 100
M  END
> <chiral flag>
0

> <version>
0

> <s_m_source_file>
/data/baiqing/PycharmProjects/Reinvent-master-3.2/result/LINK_invent/BTK/process_docking_weight1_custom_product_contain_oxygen_bond_distance_aromatic_linkinvent_7_9_3/rearranged_h_0147.sdf

> <i_m_source_file_index>
26

> <r_mmod_Potential_Energy-OPLS-2005>
336.170745849609

> <r_mmod_Stretch_Energy-OPLS-2005>
148.601150512695

> <r_mmod_Bend_Energy-OPLS-2005>
186.788558959961

> <r_mmod_Torsional_Energy-OPLS-2005>
297.881652832031

> <r_mmod_Improper_Torsional_Energy-OPLS-2005>
6.80062818527222

> <r_mmod_Van_der_Waal_Energy-OPLS-2005>
153.708129882812

> <r_mmod_Electrostatic_Energy-OPLS-2005>
-323.774871826172

> <r_mmod_Solvation_Energy-OPLS-2005>
-216.327407836914

> <b_mmod_Minimization_Converged-OPLS-2005>
0

> <r_mmod_RMS_Derivative-OPLS-2005>
1.10508847236633

$$$$
26
                    3D
 Structure written by MMmdl.
161170  0  0  1  0            999 V2000
  -30.6436  -14.4821   20.6459 C   0  0  0  0  0  0
  -30.4456  -12.3477   19.3956 C   0  0  0  0  0  0
  -29.4966  -12.5510   18.1914 C   0  0  0  0  0  0
  -28.0112  -12.4026   18.5926 C   0  0  0  0  0  0
  -27.6685  -13.1818   19.8913 C   0  0  2  0  0  0
  -28.7138  -12.8283   20.9707 C   0  0  0  0  0  0
  -25.2647  -13.8085   20.5656 C   0  0  0  0  0  0
  -24.1869  -13.0404   20.9136 C   0  0  0  0  0  0
  -24.6391  -11.6855   20.8710 C   0  0  0  0  0  0
  -23.9048  -10.4267   21.0392 C   0  0  0  0  0  0
  -24.3603   -9.4182   21.9170 C   0  0  0  0  0  0
  -23.6275   -8.2222   22.0746 C   0  0  0  0  0  0
  -22.4259   -8.0271   21.3542 C   0  0  0  0  0  0
  -21.9893   -9.0240   20.4637 C   0  0  0  0  0  0
  -22.7224  -10.2106   20.3045 C   0  0  0  0  0  0
  -21.6841   -6.0732   22.5274 C   0  0  0  0  0  0
  -21.4010   -6.5638   23.8213 C   0  0  0  0  0  0
  -21.3661   -5.6794   24.9177 C   0  0  0  0  0  0
  -21.6039   -4.3052   24.7227 C   0  0  0  0  0  0
  -21.8822   -3.8144   23.4350 C   0  0  0  0  0  0
  -21.9188   -4.6962   22.3400 C   0  0  0  0  0  0
  -22.7904  -13.5209   21.1811 C   0  0  0  0  0  0
  -22.1651   -4.2156   21.0975 F   0  0  0  0  0  0
  -21.5637   -3.4534   25.7736 F   0  0  0  0  0  0
  -30.0230  -13.2733   20.4654 N   0  0  0  0  0  0
  -26.3060  -12.9204   20.3428 N   0  0  0  0  0  0
  -25.9307  -11.6378   20.5756 N   0  0  0  0  0  0
  -22.0553  -12.8197   22.0363 N   0  0  0  0  0  0
  -25.4392  -15.1814   20.4077 N   0  0  0  0  0  0
  -31.7526  -14.7032   20.1393 O   0  0  0  0  0  0
  -21.6617   -6.8870   21.4238 O   0  0  0  0  0  0
  -22.3582  -14.5528   20.6684 O   0  0  0  0  0  0
  -24.6047  -31.8746   23.2128 C   0  0  0  0  0  0
  -25.8961  -32.4857   23.8391 C   0  0  1  0  0  0
  -27.2265  -27.4650   20.1080 C   0  0  0  0  0  0
  -25.5912  -33.8664   24.2369 N   0  0  0  0  0  0
  -23.3915  -30.4948   21.5546 C   0  0  2  0  0  0
  -24.8417  -28.9711   20.1080 C   0  0  0  0  0  0
  -22.7347  -29.4639   22.5008 C   0  0  0  0  0  0
  -18.0270  -28.1304   22.8467 C   0  0  0  0  0  0
  -24.1517  -36.7288   23.2654 C   0  0  0  0  0  0
  -25.9169  -30.8474   21.3650 C   0  0  0  0  0  0
  -25.9967  -29.4859   20.7122 C   0  0  0  0  0  0
  -27.1938  -28.7402   20.7133 C   0  0  0  0  0  0
  -26.0696  -26.9690   19.4759 C   0  0  0  0  0  0
  -24.8724  -27.7111   19.4845 C   0  0  0  0  0  0
  -23.5984  -29.8320   20.1662 C   0  0  0  0  0  0
  -25.4137  -36.3143   24.0375 C   0  0  1  0  0  0
  -20.5846  -28.3584   23.1320 C   0  0  2  0  0  0
  -20.6759  -26.9325   22.5404 C   0  0  0  0  0  0
  -19.5764  -26.6319   21.5168 C   0  0  0  0  0  0
  -18.1925  -26.7852   22.1566 C   0  0  0  0  0  0
  -19.1515  -28.8755   23.2890 C   0  0  0  0  0  0
  -18.9459  -30.1369   23.8885 C   0  0  0  0  0  0
  -17.6467  -30.6532   24.0517 C   0  0  0  0  0  0
  -25.9044  -34.9504   23.5163 C   0  0  0  0  0  0
  -16.5352  -29.9026   23.6306 C   0  0  0  0  0  0
  -16.7258  -28.6438   23.0328 C   0  0  0  0  0  0
  -26.4448  -31.6591   25.0664 C   0  0  0  0  0  0
  -25.3762  -31.3675   26.1452 C   0  0  0  0  0  0
  -27.0242  -30.3051   24.5933 C   0  0  0  0  0  0
  -27.6044  -32.4290   25.7403 C   0  0  0  0  0  0
  -27.5613  -37.1817   24.8474 C   0  0  0  0  0  0
  -21.4078  -29.2985   22.3739 N   0  0  0  0  0  0
  -26.4331  -37.3816   23.9416 N   0  0  0  0  0  0
  -24.6544  -31.0867   22.1018 N   0  0  0  0  0  0
  -23.4136  -28.8177   23.3031 O   0  0  0  0  0  0
  -28.3540  -26.6823   20.1206 O   0  0  0  0  0  0
  -26.5557  -34.8945   22.4699 O   0  0  0  0  0  0
  -23.5250  -32.1495   23.7542 O   0  0  0  0  0  0
  -28.0309  -19.9011   22.2619 C   0  0  0  0  0  0
  -29.7784  -20.0575   20.5881 C   0  0  0  0  0  0
  -27.9280  -21.3049   22.2955 C   0  0  0  0  0  0
  -29.6755  -21.4713   20.6188 C   0  0  0  0  0  0
  -28.9506  -19.2543   21.4056 C   0  0  0  0  0  0
  -28.7389  -22.1125   21.4702 C   0  0  0  0  0  0
  -29.1774  -24.5695   20.9987 C   0  0  0  0  0  0
  -28.7122  -16.9896   22.6384 C   0  0  0  0  0  0
  -28.9445  -15.5353   22.2472 C   0  0  0  0  0  0
  -30.1233  -16.9398   20.7341 C   0  0  0  0  0  0
  -28.9245  -17.7179   21.3182 C   0  0  2  0  0  0
  -27.5550  -25.9827   22.4415 C   0  0  0  0  0  0
  -28.6683  -25.9922   21.3520 C   0  0  1  0  0  0
  -29.8933  -15.5284   21.1192 N   0  0  0  0  0  0
  -28.5192  -23.5242   21.5433 N   0  0  0  0  0  0
  -30.1444  -24.4533   20.2420 O   0  0  0  0  0  0
  -31.4799  -12.5090   19.0834 H   0  0  0  0  0  0
  -30.4063  -11.3153   19.7467 H   0  0  0  0  0  0
  -29.7428  -11.8581   17.3859 H   0  0  0  0  0  0
  -29.6550  -13.5516   17.7870 H   0  0  0  0  0  0
  -27.8005  -11.3411   18.7259 H   0  0  0  0  0  0
  -27.3685  -12.7356   17.7765 H   0  0  0  0  0  0
  -27.7400  -14.2455   19.6643 H   0  0  0  0  0  0
  -28.7238  -11.7443   21.1007 H   0  0  0  0  0  0
  -28.4628  -13.1574   21.9721 H   0  0  0  0  0  0
  -25.2759   -9.5645   22.4726 H   0  0  0  0  0  0
  -23.9988   -7.4611   22.7470 H   0  0  0  0  0  0
  -21.0822   -8.8750   19.8947 H   0  0  0  0  0  0
  -22.3693  -10.9640   19.6144 H   0  0  0  0  0  0
  -21.1995   -7.6144   23.9719 H   0  0  0  0  0  0
  -21.1484   -6.0520   25.9082 H   0  0  0  0  0  0
  -22.0598   -2.7608   23.2849 H   0  0  0  0  0  0
  -22.4188  -11.9846   22.4721 H   0  0  0  0  0  0
  -21.1187  -13.1232   22.2614 H   0  0  0  0  0  0
  -24.6789  -15.8403   20.5345 H   0  0  0  0  0  0
  -26.3006  -15.6195   20.1079 H   0  0  0  0  0  0
  -26.6985  -32.5617   23.1119 H   0  0  0  0  0  0
  -25.0231  -33.9861   25.0618 H   0  0  0  0  0  0
  -22.6741  -31.3078   21.4195 H   0  0  0  0  0  0
  -23.3839  -35.9556   23.3287 H   0  0  0  0  0  0
  -24.3641  -36.8906   22.2071 H   0  0  0  0  0  0
  -23.7170  -37.6457   23.6656 H   0  0  0  0  0  0
  -26.0331  -31.6156   20.5999 H   0  0  0  0  0  0
  -26.8029  -30.8963   21.9854 H   0  0  0  0  0  0
  -28.0821  -29.1327   21.1875 H   0  0  0  0  0  0
  -26.0983  -26.0053   18.9900 H   0  0  0  0  0  0
  -23.9898  -27.3099   19.0056 H   0  0  0  0  0  0
  -23.6923  -30.6116   19.4088 H   0  0  0  0  0  0
  -22.7234  -29.2480   19.8774 H   0  0  0  0  0  0
  -25.1298  -36.2057   25.0867 H   0  0  0  0  0  0
  -20.9947  -28.3148   24.1439 H   0  0  0  0  0  0
  -20.5622  -26.2181   23.3572 H   0  0  0  0  0  0
  -21.6652  -26.7337   22.1256 H   0  0  0  0  0  0
  -19.6947  -25.6240   21.1187 H   0  0  0  0  0  0
  -19.6735  -27.3120   20.6686 H   0  0  0  0  0  0
  -17.4204  -26.6598   21.3952 H   0  0  0  0  0  0
  -18.0317  -25.9967   22.8931 H   0  0  0  0  0  0
  -19.7944  -30.7162   24.2268 H   0  0  0  0  0  0
  -17.5038  -31.6234   24.5075 H   0  0  0  0  0  0
  -15.5364  -30.2922   23.7650 H   0  0  0  0  0  0
  -15.8649  -28.0761   22.7044 H   0  0  0  0  0  0
  -24.5868  -30.7106   25.7785 H   0  0  0  0  0  0
  -24.9052  -32.2836   26.5018 H   0  0  0  0  0  0
  -25.8166  -30.8736   27.0119 H   0  0  0  0  0  0
  -26.2722  -29.6818   24.1089 H   0  0  0  0  0  0
  -27.4173  -29.7263   25.4288 H   0  0  0  0  0  0
  -27.8488  -30.4397   23.8932 H   0  0  0  0  0  0
  -27.2678  -33.3568   26.2036 H   0  0  0  0  0  0
  -28.3821  -32.6890   25.0208 H   0  0  0  0  0  0
  -28.0743  -31.8375   26.5269 H   0  0  0  0  0  0
  -28.2635  -38.0107   24.7544 H   0  0  0  0  0  0
  -28.1113  -36.2650   24.6294 H   0  0  0  0  0  0
  -27.2338  -37.1449   25.8877 H   0  0  0  0  0  0
  -20.9171  -29.8773   21.7066 H   0  0  0  0  0  0
  -26.0244  -38.2914   24.1400 H   0  0  0  0  0  0
  -27.3666  -19.3223   22.8876 H   0  0  0  0  0  0
  -30.4804  -19.5965   19.9069 H   0  0  0  0  0  0
  -27.1992  -21.7545   22.9566 H   0  0  0  0  0  0
  -30.3081  -22.0452   19.9584 H   0  0  0  0  0  0
  -29.4508  -17.2982   23.3790 H   0  0  0  0  0  0
  -27.7187  -17.1306   23.0685 H   0  0  0  0  0  0
  -27.9734  -15.1710   21.9136 H   0  0  0  0  0  0
  -29.2802  -14.9373   23.0961 H   0  0  0  0  0  0
  -31.0627  -17.2788   21.1741 H   0  0  0  0  0  0
  -30.1903  -17.0546   19.6497 H   0  0  0  0  0  0
  -28.0706  -17.4950   20.6765 H   0  0  0  0  0  0
  -26.6275  -25.5398   22.0764 H   0  0  0  0  0  0
  -27.3229  -26.9891   22.7893 H   0  0  0  0  0  0
  -27.8684  -25.4344   23.3303 H   0  0  0  0  0  0
  -29.5277  -26.5115   21.7792 H   0  0  0  0  0  0
  -27.7470  -23.8101   22.1304 H   0  0  0  0  0  0
  1 25  1  0  0  0
  1 30  2  0  0  0
  1 84  1  0  0  0
  2  3  1  0  0  0
  2 25  1  0  0  0
  2 87  1  0  0  0
  2 88  1  0  0  0
  3  4  1  0  0  0
  3 89  1  0  0  0
  3 90  1  0  0  0
  4  5  1  0  0  0
  4 91  1  0  0  0
  4 92  1  0  0  0
  5  6  1  0  0  0
  5 26  1  0  0  0
  5 93  1  0  0  0
  6 25  1  0  0  0
  6 94  1  0  0  0
  6 95  1  0  0  0
  7  8  2  0  0  0
  7 26  1  0  0  0
  7 29  1  0  0  0
  8  9  1  0  0  0
  8 22  1  0  0  0
  9 10  1  0  0  0
  9 27  2  0  0  0
 10 11  2  0  0  0
 10 15  1  0  0  0
 11 12  1  0  0  0
 11 96  1  0  0  0
 12 13  2  0  0  0
 12 97  1  0  0  0
 13 14  1  0  0  0
 13 31  1  0  0  0
 14 15  2  0  0  0
 14 98  1  0  0  0
 15 99  1  0  0  0
 16 17  2  0  0  0
 16 21  1  0  0  0
 16 31  1  0  0  0
 17 18  1  0  0  0
 17100  1  0  0  0
 18 19  2  0  0  0
 18101  1  0  0  0
 19 20  1  0  0  0
 19 24  1  0  0  0
 20 21  2  0  0  0
 20102  1  0  0  0
 21 23  1  0  0  0
 22 28  1  0  0  0
 22 32  2  0  0  0
 26 27  1  0  0  0
 28103  1  0  0  0
 28104  1  0  0  0
 29105  1  0  0  0
 29106  1  0  0  0
 33 34  1  0  0  0
 33 66  1  0  0  0
 33 70  2  0  0  0
 34 36  1  0  0  0
 34 59  1  0  0  0
 34107  1  0  0  0
 35 44  2  0  0  0
 35 45  1  0  0  0
 35 68  1  0  0  0
 36 56  1  0  0  0
 36108  1  0  0  0
 37 39  1  0  0  0
 37 47  1  0  0  0
 37 66  1  0  0  0
 37109  1  0  0  0
 38 43  2  0  0  0
 38 46  1  0  0  0
 38 47  1  0  0  0
 39 64  1  0  0  0
 39 67  2  0  0  0
 40 52  1  0  0  0
 40 53  2  0  0  0
 40 58  1  0  0  0
 41110  1  0  0  0
 41111  1  0  0  0
 41112  1  0  0  0
 41 48  1  0  0  0
 42 43  1  0  0  0
 42 66  1  0  0  0
 42113  1  0  0  0
 42114  1  0  0  0
 43 44  1  0  0  0
 44115  1  0  0  0
 45 46  2  0  0  0
 45116  1  0  0  0
 46117  1  0  0  0
 47118  1  0  0  0
 47119  1  0  0  0
 48 56  1  0  0  0
 48 65  1  0  0  0
 48120  1  0  0  0
 49 50  1  0  0  0
 49 53  1  0  0  0
 49 64  1  0  0  0
 49121  1  0  0  0
 50 51  1  0  0  0
 50122  1  0  0  0
 50123  1  0  0  0
 51 52  1  0  0  0
 51124  1  0  0  0
 51125  1  0  0  0
 52126  1  0  0  0
 52127  1  0  0  0
 53 54  1  0  0  0
 54 55  2  0  0  0
 54128  1  0  0  0
 55 57  1  0  0  0
 55129  1  0  0  0
 56 69  2  0  0  0
 57 58  2  0  0  0
 57130  1  0  0  0
 58131  1  0  0  0
 59 60  1  0  0  0
 59 61  1  0  0  0
 59 62  1  0  0  0
 60132  1  0  0  0
 60133  1  0  0  0
 60134  1  0  0  0
 61135  1  0  0  0
 61136  1  0  0  0
 61137  1  0  0  0
 62138  1  0  0  0
 62139  1  0  0  0
 62140  1  0  0  0
 63 65  1  0  0  0
 63141  1  0  0  0
 63142  1  0  0  0
 63143  1  0  0  0
 64144  1  0  0  0
 65145  1  0  0  0
 68 83  1  0  0  0
 71 73  2  0  0  0
 71 75  1  0  0  0
 71146  1  0  0  0
 72 74  1  0  0  0
 72 75  2  0  0  0
 72147  1  0  0  0
 73 76  1  0  0  0
 73148  1  0  0  0
 74 76  2  0  0  0
 74149  1  0  0  0
 75 81  1  0  0  0
 76 85  1  0  0  0
 77 83  1  0  0  0
 77 85  1  0  0  0
 77 86  2  0  0  0
 78 79  1  0  0  0
 78 81  1  0  0  0
 78150  1  0  0  0
 78151  1  0  0  0
 79 84  1  0  0  0
 79152  1  0  0  0
 79153  1  0  0  0
 80 81  1  0  0  0
 80 84  1  0  0  0
 80154  1  0  0  0
 80155  1  0  0  0
 81156  1  0  0  0
 82157  1  0  0  0
 82158  1  0  0  0
 82159  1  0  0  0
 82 83  1  0  0  0
 83160  1  0  0  0
 85161  1  0  0  0
M  ISO  4   1 100  68 101  83 101  84 100
M  END
> <chiral flag>
0

> <version>
0

> <s_m_source_file>
/data/baiqing/PycharmProjects/Reinvent-master-3.2/result/LINK_invent/BTK/process_docking_weight1_custom_product_contain_oxygen_bond_distance_aromatic_linkinvent_7_9_3/rearranged_h_0147.sdf

> <i_m_source_file_index>
27

> <r_mmod_Potential_Energy-OPLS-2005>
190.390213012695

> <r_mmod_Stretch_Energy-OPLS-2005>
44.610279083252

> <r_mmod_Bend_Energy-OPLS-2005>
162.15901184082

> <r_mmod_Torsional_Energy-OPLS-2005>
342.910278320312

> <r_mmod_Improper_Torsional_Energy-OPLS-2005>
8.39351749420166

> <r_mmod_Van_der_Waal_Energy-OPLS-2005>
164.100112915039

> <r_mmod_Electrostatic_Energy-OPLS-2005>
-322.477416992188

> <r_mmod_Solvation_Energy-OPLS-2005>
-224.554595947266

> <b_mmod_Minimization_Converged-OPLS-2005>
0

> <r_mmod_RMS_Derivative-OPLS-2005>
3.45312523841858

$$$$
27
                    3D
 Structure written by MMmdl.
168176  0  0  1  0            999 V2000
  -30.6837  -14.4704   20.6249 C   0  0  0  0  0  0
  -30.4353  -12.3239   19.4153 C   0  0  0  0  0  0
  -29.4978  -12.5269   18.2058 C   0  0  0  0  0  0
  -28.0201  -12.3791   18.6178 C   0  0  0  0  0  0
  -27.6689  -13.2027   19.8840 C   0  0  2  0  0  0
  -28.7065  -12.9484   20.9999 C   0  0  0  0  0  0
  -25.2614  -13.8151   20.5684 C   0  0  0  0  0  0
  -24.1847  -13.0439   20.9165 C   0  0  0  0  0  0
  -24.6386  -11.6902   20.8716 C   0  0  0  0  0  0
  -23.9042  -10.4296   21.0396 C   0  0  0  0  0  0
  -24.3591   -9.4217   21.9181 C   0  0  0  0  0  0
  -23.6276   -8.2245   22.0749 C   0  0  0  0  0  0
  -22.4264   -8.0273   21.3532 C   0  0  0  0  0  0
  -21.9886   -9.0251   20.4637 C   0  0  0  0  0  0
  -22.7206  -10.2138   20.3050 C   0  0  0  0  0  0
  -21.6856   -6.0721   22.5267 C   0  0  0  0  0  0
  -21.4022   -6.5630   23.8201 C   0  0  0  0  0  0
  -21.3663   -5.6783   24.9167 C   0  0  0  0  0  0
  -21.6048   -4.3046   24.7221 C   0  0  0  0  0  0
  -21.8821   -3.8133   23.4345 C   0  0  0  0  0  0
  -21.9196   -4.6947   22.3400 C   0  0  0  0  0  0
  -22.7873  -13.5247   21.1849 C   0  0  0  0  0  0
  -22.1663   -4.2132   21.0977 F   0  0  0  0  0  0
  -21.5630   -3.4532   25.7737 F   0  0  0  0  0  0
  -30.0460  -13.2755   20.4695 N   0  0  0  0  0  0
  -26.3053  -12.9311   20.3383 N   0  0  0  0  0  0
  -25.9317  -11.6474   20.5745 N   0  0  0  0  0  0
  -22.0513  -12.8245   22.0410 N   0  0  0  0  0  0
  -25.4369  -15.1871   20.4128 N   0  0  0  0  0  0
  -31.7390  -14.7496   20.0463 O   0  0  0  0  0  0
  -21.6638   -6.8864   21.4226 O   0  0  0  0  0  0
  -22.3559  -14.5559   20.6712 O   0  0  0  0  0  0
  -24.6170  -31.8677   23.2114 C   0  0  0  0  0  0
  -25.9067  -32.4809   23.8400 C   0  0  1  0  0  0
  -27.2286  -27.4107   20.0846 C   0  0  0  0  0  0
  -25.5925  -33.8613   24.2333 N   0  0  0  0  0  0
  -23.4036  -30.4945   21.5528 C   0  0  2  0  0  0
  -24.8479  -28.9605   20.1149 C   0  0  0  0  0  0
  -22.7429  -29.4670   22.4987 C   0  0  0  0  0  0
  -18.0301  -28.1344   22.8497 C   0  0  0  0  0  0
  -24.1491  -36.7305   23.2638 C   0  0  0  0  0  0
  -25.9379  -30.8221   21.3730 C   0  0  0  0  0  0
  -26.0110  -29.4561   20.7168 C   0  0  0  0  0  0
  -27.2002  -28.6868   20.7035 C   0  0  0  0  0  0
  -26.0484  -26.9535   19.4567 C   0  0  0  0  0  0
  -24.8627  -27.7072   19.4843 C   0  0  0  0  0  0
  -23.6128  -29.8320   20.1660 C   0  0  0  0  0  0
  -25.4108  -36.3103   24.0340 C   0  0  1  0  0  0
  -20.5892  -28.3667   23.1334 C   0  0  2  0  0  0
  -20.6805  -26.9402   22.5452 C   0  0  0  0  0  0
  -19.5808  -26.6402   21.5219 C   0  0  0  0  0  0
  -18.1974  -26.7900   22.1609 C   0  0  0  0  0  0
  -19.1539  -28.8822   23.2913 C   0  0  0  0  0  0
  -18.9446  -30.1432   23.8914 C   0  0  0  0  0  0
  -17.6438  -30.6562   24.0531 C   0  0  0  0  0  0
  -25.9045  -34.9469   23.5129 C   0  0  0  0  0  0
  -16.5348  -29.9044   23.6289 C   0  0  0  0  0  0
  -16.7289  -28.6451   23.0333 C   0  0  0  0  0  0
  -26.4487  -31.6580   25.0725 C   0  0  0  0  0  0
  -25.3754  -31.3695   26.1479 C   0  0  0  0  0  0
  -27.0330  -30.3017   24.6122 C   0  0  0  0  0  0
  -27.6057  -32.4297   25.7479 C   0  0  0  0  0  0
  -27.5577  -37.1815   24.8469 C   0  0  0  0  0  0
  -21.4156  -29.3034   22.3731 N   0  0  0  0  0  0
  -26.4294  -37.3782   23.9407 N   0  0  0  0  0  0
  -24.6708  -31.0772   22.1024 N   0  0  0  0  0  0
  -23.4214  -28.8215   23.3022 O   0  0  0  0  0  0
  -28.3954  -26.6607   20.1082 O   0  0  0  0  0  0
  -26.5603  -34.8923   22.4693 O   0  0  0  0  0  0
  -23.5367  -32.1450   23.7512 O   0  0  0  0  0  0
  -30.2254  -17.5662   20.3285 C   0  0  0  0  0  0
  -29.7691  -18.9104   20.2607 C   0  0  0  0  0  0
  -28.9545  -17.2503   22.3697 C   0  0  0  0  0  0
  -28.4794  -18.5777   22.3025 C   0  0  0  0  0  0
  -29.7992  -16.7124   21.3777 C   0  0  0  0  0  0
  -28.8707  -19.4235   21.2316 C   0  0  0  0  0  0
  -27.8181  -24.3192   20.7970 C   0  0  0  0  0  0
  -28.4363  -21.8240   20.4256 C   0  0  0  0  0  0
  -28.1360  -20.0542   24.3564 C   0  0  0  0  0  0
  -25.1151  -23.3484   19.0058 C   0  0  0  0  0  0
  -26.2340  -22.4932   21.5656 C   0  0  0  0  0  0
  -27.5073  -19.0498   23.3812 C   0  0  0  0  0  0
  -28.3740  -25.2655   19.6950 C   0  0  0  0  0  0
  -26.5539  -22.7962   19.0720 C   0  0  0  0  0  0
  -27.2728  -22.8788   20.4592 C   0  0  1  0  0  0
  -28.2382  -20.7074   21.1610 N   0  0  0  0  0  0
  -30.0862  -15.3132   21.4896 N   0  0  0  0  0  0
  -27.8132  -24.7195   21.9683 O   0  0  0  0  0  0
  -29.4372  -22.0049   19.7269 O   0  0  0  0  0  0
  -31.4769  -12.4476   19.1129 H   0  0  0  0  0  0
  -30.3551  -11.3017   19.7891 H   0  0  0  0  0  0
  -29.7370  -11.8082   17.4210 H   0  0  0  0  0  0
  -29.6607  -13.5155   17.7736 H   0  0  0  0  0  0
  -27.8283  -11.3210   18.8010 H   0  0  0  0  0  0
  -27.3698  -12.6667   17.7915 H   0  0  0  0  0  0
  -27.7240  -14.2563   19.6102 H   0  0  0  0  0  0
  -28.6851  -11.9001   21.3006 H   0  0  0  0  0  0
  -28.4418  -13.5036   21.9001 H   0  0  0  0  0  0
  -25.2739   -9.5704   22.4747 H   0  0  0  0  0  0
  -23.9992   -7.4641   22.7469 H   0  0  0  0  0  0
  -21.0816   -8.8773   19.8944 H   0  0  0  0  0  0
  -22.3662  -10.9680   19.6156 H   0  0  0  0  0  0
  -21.2017   -7.6136   23.9700 H   0  0  0  0  0  0
  -21.1483   -6.0515   25.9069 H   0  0  0  0  0  0
  -22.0598   -2.7592   23.2854 H   0  0  0  0  0  0
  -22.4120  -11.9901   22.4796 H   0  0  0  0  0  0
  -21.1131  -13.1283   22.2614 H   0  0  0  0  0  0
  -24.6797  -15.8510   20.5313 H   0  0  0  0  0  0
  -26.3054  -15.6236   20.1280 H   0  0  0  0  0  0
  -26.7125  -32.5498   23.1144 H   0  0  0  0  0  0
  -25.0086  -33.9759   25.0486 H   0  0  0  0  0  0
  -22.6907  -31.3111   21.4171 H   0  0  0  0  0  0
  -23.3742  -35.9649   23.3320 H   0  0  0  0  0  0
  -24.3592  -36.8901   22.2049 H   0  0  0  0  0  0
  -23.7260  -37.6525   23.6640 H   0  0  0  0  0  0
  -26.0667  -31.5898   20.6087 H   0  0  0  0  0  0
  -26.8197  -30.8665   22.0002 H   0  0  0  0  0  0
  -28.0953  -29.0653   21.1767 H   0  0  0  0  0  0
  -26.0205  -26.0247   18.9158 H   0  0  0  0  0  0
  -23.9729  -27.3248   19.0045 H   0  0  0  0  0  0
  -23.7259  -30.6111   19.4110 H   0  0  0  0  0  0
  -22.7337  -29.2592   19.8653 H   0  0  0  0  0  0
  -25.1284  -36.1963   25.0830 H   0  0  0  0  0  0
  -20.9988  -28.3253   24.1453 H   0  0  0  0  0  0
  -20.5670  -26.2283   23.3645 H   0  0  0  0  0  0
  -21.6691  -26.7438   22.1283 H   0  0  0  0  0  0
  -19.7004  -25.6337   21.1201 H   0  0  0  0  0  0
  -19.6758  -27.3268   20.6794 H   0  0  0  0  0  0
  -17.4246  -26.6646   21.4007 H   0  0  0  0  0  0
  -18.0402  -26.0029   22.8997 H   0  0  0  0  0  0
  -19.7909  -30.7264   24.2283 H   0  0  0  0  0  0
  -17.4967  -31.6252   24.5112 H   0  0  0  0  0  0
  -15.5337  -30.2919   23.7593 H   0  0  0  0  0  0
  -15.8703  -28.0753   22.7052 H   0  0  0  0  0  0
  -24.5923  -30.7038   25.7836 H   0  0  0  0  0  0
  -24.8954  -32.2859   26.4922 H   0  0  0  0  0  0
  -25.8121  -30.8877   27.0239 H   0  0  0  0  0  0
  -26.2901  -29.6756   24.1163 H   0  0  0  0  0  0
  -27.4096  -29.7261   25.4588 H   0  0  0  0  0  0
  -27.8733  -30.4327   23.9296 H   0  0  0  0  0  0
  -27.2670  -33.3585   26.2073 H   0  0  0  0  0  0
  -28.3847  -32.6870   25.0292 H   0  0  0  0  0  0
  -28.0736  -31.8409   26.5376 H   0  0  0  0  0  0
  -28.2613  -38.0091   24.7490 H   0  0  0  0  0  0
  -28.1055  -36.2631   24.6319 H   0  0  0  0  0  0
  -27.2305  -37.1487   25.8875 H   0  0  0  0  0  0
  -20.9309  -29.8794   21.6987 H   0  0  0  0  0  0
  -26.0185  -38.2868   24.1382 H   0  0  0  0  0  0
  -30.8713  -17.1976   19.5440 H   0  0  0  0  0  0
  -30.0816  -19.5202   19.4251 H   0  0  0  0  0  0
  -28.6274  -16.6212   23.1856 H   0  0  0  0  0  0
  -27.4178  -20.3491   25.1219 H   0  0  0  0  0  0
  -28.4673  -20.9622   23.8532 H   0  0  0  0  0  0
  -29.0000  -19.6199   24.8602 H   0  0  0  0  0  0
  -24.8067  -23.5073   17.9721 H   0  0  0  0  0  0
  -24.9960  -24.2859   19.5442 H   0  0  0  0  0  0
  -24.4054  -22.6458   19.4446 H   0  0  0  0  0  0
  -26.6975  -22.3450   22.5425 H   0  0  0  0  0  0
  -25.6847  -21.5843   21.3141 H   0  0  0  0  0  0
  -25.4891  -23.2774   21.7068 H   0  0  0  0  0  0
  -27.1478  -18.1893   23.9477 H   0  0  0  0  0  0
  -26.6170  -19.4735   22.9149 H   0  0  0  0  0  0
  -27.8601  -25.1540   18.7439 H   0  0  0  0  0  0
  -29.4050  -24.9674   19.5047 H   0  0  0  0  0  0
  -27.1571  -23.2643   18.2960 H   0  0  0  0  0  0
  -26.5010  -21.7530   18.7528 H   0  0  0  0  0  0
  -27.4207  -20.7870   21.7481 H   0  0  0  0  0  0
  -29.4650  -14.8273   22.1176 H   0  0  0  0  0  0
  1 25  1  0  0  0
  1 30  2  0  0  0
  1 87  1  0  0  0
  2  3  1  0  0  0
  2 25  1  0  0  0
  2 90  1  0  0  0
  2 91  1  0  0  0
  3  4  1  0  0  0
  3 92  1  0  0  0
  3 93  1  0  0  0
  4  5  1  0  0  0
  4 94  1  0  0  0
  4 95  1  0  0  0
  5  6  1  0  0  0
  5 26  1  0  0  0
  5 96  1  0  0  0
  6 25  1  0  0  0
  6 97  1  0  0  0
  6 98  1  0  0  0
  7  8  2  0  0  0
  7 26  1  0  0  0
  7 29  1  0  0  0
  8  9  1  0  0  0
  8 22  1  0  0  0
  9 10  1  0  0  0
  9 27  2  0  0  0
 10 11  2  0  0  0
 10 15  1  0  0  0
 11 12  1  0  0  0
 11 99  1  0  0  0
 12 13  2  0  0  0
 12100  1  0  0  0
 13 14  1  0  0  0
 13 31  1  0  0  0
 14 15  2  0  0  0
 14101  1  0  0  0
 15102  1  0  0  0
 16 17  2  0  0  0
 16 21  1  0  0  0
 16 31  1  0  0  0
 17 18  1  0  0  0
 17103  1  0  0  0
 18 19  2  0  0  0
 18104  1  0  0  0
 19 20  1  0  0  0
 19 24  1  0  0  0
 20 21  2  0  0  0
 20105  1  0  0  0
 21 23  1  0  0  0
 22 28  1  0  0  0
 22 32  2  0  0  0
 26 27  1  0  0  0
 28106  1  0  0  0
 28107  1  0  0  0
 29108  1  0  0  0
 29109  1  0  0  0
 33 34  1  0  0  0
 33 66  1  0  0  0
 33 70  2  0  0  0
 34 36  1  0  0  0
 34 59  1  0  0  0
 34110  1  0  0  0
 35 44  2  0  0  0
 35 45  1  0  0  0
 35 68  1  0  0  0
 36 56  1  0  0  0
 36111  1  0  0  0
 37 39  1  0  0  0
 37 47  1  0  0  0
 37 66  1  0  0  0
 37112  1  0  0  0
 38 43  2  0  0  0
 38 46  1  0  0  0
 38 47  1  0  0  0
 39 64  1  0  0  0
 39 67  2  0  0  0
 40 52  1  0  0  0
 40 53  2  0  0  0
 40 58  1  0  0  0
 41113  1  0  0  0
 41114  1  0  0  0
 41115  1  0  0  0
 41 48  1  0  0  0
 42 43  1  0  0  0
 42 66  1  0  0  0
 42116  1  0  0  0
 42117  1  0  0  0
 43 44  1  0  0  0
 44118  1  0  0  0
 45 46  2  0  0  0
 45119  1  0  0  0
 46120  1  0  0  0
 47121  1  0  0  0
 47122  1  0  0  0
 48 56  1  0  0  0
 48 65  1  0  0  0
 48123  1  0  0  0
 49 50  1  0  0  0
 49 53  1  0  0  0
 49 64  1  0  0  0
 49124  1  0  0  0
 50 51  1  0  0  0
 50125  1  0  0  0
 50126  1  0  0  0
 51 52  1  0  0  0
 51127  1  0  0  0
 51128  1  0  0  0
 52129  1  0  0  0
 52130  1  0  0  0
 53 54  1  0  0  0
 54 55  2  0  0  0
 54131  1  0  0  0
 55 57  1  0  0  0
 55132  1  0  0  0
 56 69  2  0  0  0
 57 58  2  0  0  0
 57133  1  0  0  0
 58134  1  0  0  0
 59 60  1  0  0  0
 59 61  1  0  0  0
 59 62  1  0  0  0
 60135  1  0  0  0
 60136  1  0  0  0
 60137  1  0  0  0
 61138  1  0  0  0
 61139  1  0  0  0
 61140  1  0  0  0
 62141  1  0  0  0
 62142  1  0  0  0
 62143  1  0  0  0
 63 65  1  0  0  0
 63144  1  0  0  0
 63145  1  0  0  0
 63146  1  0  0  0
 64147  1  0  0  0
 65148  1  0  0  0
 68 83  1  0  0  0
 71 72  2  0  0  0
 71 75  1  0  0  0
 71149  1  0  0  0
 72 76  1  0  0  0
 72150  1  0  0  0
 73 74  1  0  0  0
 73 75  2  0  0  0
 73151  1  0  0  0
 74 76  2  0  0  0
 74 82  1  0  0  0
 75 87  1  0  0  0
 76 86  1  0  0  0
 77 83  1  0  0  0
 77 88  2  0  0  0
 77 85  1  0  0  0
 78 85  1  0  0  0
 78 86  1  0  0  0
 78 89  2  0  0  0
 79 82  1  0  0  0
 79152  1  0  0  0
 79153  1  0  0  0
 79154  1  0  0  0
 80 84  1  0  0  0
 80155  1  0  0  0
 80156  1  0  0  0
 80157  1  0  0  0
 81158  1  0  0  0
 81159  1  0  0  0
 81160  1  0  0  0
 81 85  1  0  0  0
 82161  1  0  0  0
 82162  1  0  0  0
 83163  1  0  0  0
 83164  1  0  0  0
 84 85  1  0  0  0
 84165  1  0  0  0
 84166  1  0  0  0
 86167  1  0  0  0
 87168  1  0  0  0
M  ISO  4   1 100  68 101  83 101  87 100
M  END
> <chiral flag>
0

> <version>
0

> <s_m_source_file>
/data/baiqing/PycharmProjects/Reinvent-master-3.2/result/LINK_invent/BTK/process_docking_weight1_custom_product_contain_oxygen_bond_distance_aromatic_linkinvent_7_9_3/rearranged_h_0147.sdf

> <i_m_source_file_index>
28

> <r_mmod_Potential_Energy-OPLS-2005>
22.4625930786133

> <r_mmod_Stretch_Energy-OPLS-2005>
53.3390960693359

> <r_mmod_Bend_Energy-OPLS-2005>
138.764007568359

> <r_mmod_Torsional_Energy-OPLS-2005>
252.911468505859

> <r_mmod_Improper_Torsional_Energy-OPLS-2005>
4.32256126403809

> <r_mmod_Van_der_Waal_Energy-OPLS-2005>
165.180374145508

> <r_mmod_Electrostatic_Energy-OPLS-2005>
-371.380920410156

> <r_mmod_Solvation_Energy-OPLS-2005>
-235.038284301758

> <b_mmod_Minimization_Converged-OPLS-2005>
0

> <r_mmod_RMS_Derivative-OPLS-2005>
1.58640551567078

$$$$
28
                    3D
 Structure written by MMmdl.
160169  0  0  1  0            999 V2000
  -30.6290  -14.6871   20.4845 C   0  0  0  0  0  0
  -30.4164  -12.4147   19.4840 C   0  0  0  0  0  0
  -29.4977  -12.4868   18.2463 C   0  0  0  0  0  0
  -28.0254  -12.3164   18.6619 C   0  0  0  0  0  0
  -27.6378  -13.2229   19.8598 C   0  0  2  0  0  0
  -28.6756  -13.1377   20.9980 C   0  0  0  0  0  0
  -25.2472  -13.8204   20.5703 C   0  0  0  0  0  0
  -24.1751  -13.0458   20.9244 C   0  0  0  0  0  0
  -24.6343  -11.6947   20.8815 C   0  0  0  0  0  0
  -23.9046  -10.4305   21.0460 C   0  0  0  0  0  0
  -24.3607   -9.4202   21.9209 C   0  0  0  0  0  0
  -23.6276   -8.2232   22.0752 C   0  0  0  0  0  0
  -22.4259   -8.0283   21.3540 C   0  0  0  0  0  0
  -21.9914   -9.0268   20.4647 C   0  0  0  0  0  0
  -22.7242  -10.2149   20.3077 C   0  0  0  0  0  0
  -21.6845   -6.0735   22.5280 C   0  0  0  0  0  0
  -21.3999   -6.5635   23.8220 C   0  0  0  0  0  0
  -21.3666   -5.6792   24.9187 C   0  0  0  0  0  0
  -21.6052   -4.3050   24.7239 C   0  0  0  0  0  0
  -21.8814   -3.8141   23.4361 C   0  0  0  0  0  0
  -21.9185   -4.6959   22.3416 C   0  0  0  0  0  0
  -22.7762  -13.5241   21.1914 C   0  0  0  0  0  0
  -22.1653   -4.2142   21.0989 F   0  0  0  0  0  0
  -21.5658   -3.4535   25.7756 F   0  0  0  0  0  0
  -29.9825  -13.4758   20.4217 N   0  0  0  0  0  0
  -26.2880  -12.9390   20.3329 N   0  0  0  0  0  0
  -25.9266  -11.6551   20.5833 N   0  0  0  0  0  0
  -22.0432  -12.8201   22.0479 N   0  0  0  0  0  0
  -25.4189  -15.1912   20.4082 N   0  0  0  0  0  0
  -31.8094  -14.7445   20.1270 O   0  0  0  0  0  0
  -21.6624   -6.8872   21.4237 O   0  0  0  0  0  0
  -22.3463  -14.5560   20.6794 O   0  0  0  0  0  0
  -24.6312  -31.8553   23.1972 C   0  0  0  0  0  0
  -25.9127  -32.4765   23.8327 C   0  0  1  0  0  0
  -27.2205  -27.2764   20.1472 C   0  0  0  0  0  0
  -25.5927  -33.8560   24.2246 N   0  0  0  0  0  0
  -23.4302  -30.4718   21.5405 C   0  0  2  0  0  0
  -24.8793  -28.9159   20.1181 C   0  0  0  0  0  0
  -22.7524  -29.4559   22.4924 C   0  0  0  0  0  0
  -18.0284  -28.1394   22.8452 C   0  0  0  0  0  0
  -24.1503  -36.7283   23.2636 C   0  0  0  0  0  0
  -25.9710  -30.7753   21.3714 C   0  0  0  0  0  0
  -26.0497  -29.3947   20.7210 C   0  0  0  0  0  0
  -27.2304  -28.5893   20.7152 C   0  0  0  0  0  0
  -26.0306  -26.8460   19.5284 C   0  0  0  0  0  0
  -24.8716  -27.6469   19.5145 C   0  0  0  0  0  0
  -23.6520  -29.8024   20.1584 C   0  0  0  0  0  0
  -25.4135  -36.3066   24.0312 C   0  0  1  0  0  0
  -20.5879  -28.3678   23.1277 C   0  0  2  0  0  0
  -20.6770  -26.9402   22.5397 C   0  0  0  0  0  0
  -19.5755  -26.6377   21.5190 C   0  0  0  0  0  0
  -18.1938  -26.7932   22.1605 C   0  0  0  0  0  0
  -19.1539  -28.8856   23.2843 C   0  0  0  0  0  0
  -18.9460  -30.1456   23.8864 C   0  0  0  0  0  0
  -17.6463  -30.6589   24.0546 C   0  0  0  0  0  0
  -25.9057  -34.9444   23.5081 C   0  0  0  0  0  0
  -16.5349  -29.9078   23.6329 C   0  0  0  0  0  0
  -16.7270  -28.6500   23.0343 C   0  0  0  0  0  0
  -26.4483  -31.6597   25.0728 C   0  0  0  0  0  0
  -25.3700  -31.3746   26.1454 C   0  0  0  0  0  0
  -27.0305  -30.3024   24.6174 C   0  0  0  0  0  0
  -27.6042  -32.4336   25.7507 C   0  0  0  0  0  0
  -27.5584  -37.1813   24.8464 C   0  0  0  0  0  0
  -21.4229  -29.3022   22.3684 N   0  0  0  0  0  0
  -26.4308  -37.3770   23.9397 N   0  0  0  0  0  0
  -24.6959  -31.0508   22.0948 N   0  0  0  0  0  0
  -23.4232  -28.8111   23.3027 O   0  0  0  0  0  0
  -28.3173  -26.4011   20.1683 O   0  0  0  0  0  0
  -26.5627  -34.8910   22.4650 O   0  0  0  0  0  0
  -23.5450  -32.1369   23.7259 O   0  0  0  0  0  0
  -32.0939  -18.9383   20.7795 C   0  0  0  0  0  0
  -31.1861  -20.0092   20.7169 C   0  0  0  0  0  0
  -31.6560  -17.6055   20.7870 C   0  0  0  0  0  0
  -29.3604  -18.4057   20.6763 C   0  0  0  0  0  0
  -29.7902  -19.8026   20.6616 C   0  0  0  0  0  0
  -30.2826  -17.2707   20.7236 C   0  0  0  0  0  0
  -27.8136  -21.2790   19.5612 C   0  0  0  0  0  0
  -27.2967  -22.7454   19.6984 C   0  0  0  0  0  0
  -29.4505  -22.5836   20.7205 C   0  0  0  0  0  0
  -28.8428  -21.0998   20.6865 C   0  0  2  0  0  0
  -28.5154  -23.6633   19.9834 C   0  0  1  0  0  0
  -29.1468  -24.0795   18.6397 C   0  0  0  0  0  0
  -28.1312  -25.0390   20.7614 C   0  0  0  0  0  0
  -29.8866  -15.8346   20.7425 N   0  0  0  0  0  0
  -30.3450  -11.4367   19.9617 H   0  0  0  0  0  0
  -31.4607  -12.5134   19.1817 H   0  0  0  0  0  0
  -29.7728  -11.7075   17.5364 H   0  0  0  0  0  0
  -29.6273  -13.4399   17.7348 H   0  0  0  0  0  0
  -27.8835  -11.2675   18.9342 H   0  0  0  0  0  0
  -27.3625  -12.5017   17.8148 H   0  0  0  0  0  0
  -27.6437  -14.2453   19.4804 H   0  0  0  0  0  0
  -28.4104  -13.8151   21.8096 H   0  0  0  0  0  0
  -28.6909  -12.1379   21.4329 H   0  0  0  0  0  0
  -25.2765   -9.5662   22.4786 H   0  0  0  0  0  0
  -24.0001   -7.4609   22.7448 H   0  0  0  0  0  0
  -21.0867   -8.8797   19.8929 H   0  0  0  0  0  0
  -22.3728  -10.9697   19.6186 H   0  0  0  0  0  0
  -21.1963   -7.6139   23.9726 H   0  0  0  0  0  0
  -21.1505   -6.0519   25.9097 H   0  0  0  0  0  0
  -22.0583   -2.7601   23.2870 H   0  0  0  0  0  0
  -22.4050  -11.9817   22.4774 H   0  0  0  0  0  0
  -21.1053  -13.1200   22.2762 H   0  0  0  0  0  0
  -24.6528  -15.8470   20.5156 H   0  0  0  0  0  0
  -26.2633  -15.6237   20.0575 H   0  0  0  0  0  0
  -26.7199  -32.5419   23.1068 H   0  0  0  0  0  0
  -25.0086  -33.9686   25.0404 H   0  0  0  0  0  0
  -22.7229  -31.2889   21.3896 H   0  0  0  0  0  0
  -23.3767  -35.9611   23.3314 H   0  0  0  0  0  0
  -24.3566  -36.8905   22.2042 H   0  0  0  0  0  0
  -23.7263  -37.6494   23.6657 H   0  0  0  0  0  0
  -26.0981  -31.5311   20.5955 H   0  0  0  0  0  0
  -26.8518  -30.8333   21.9994 H   0  0  0  0  0  0
  -28.1362  -28.9435   21.1900 H   0  0  0  0  0  0
  -25.9889  -25.8641   19.0781 H   0  0  0  0  0  0
  -23.9721  -27.2676   19.0514 H   0  0  0  0  0  0
  -23.7868  -30.5762   19.4019 H   0  0  0  0  0  0
  -22.7699  -29.2385   19.8518 H   0  0  0  0  0  0
  -25.1323  -36.1910   25.0802 H   0  0  0  0  0  0
  -20.9925  -28.3228   24.1414 H   0  0  0  0  0  0
  -20.5657  -26.2279   23.3586 H   0  0  0  0  0  0
  -21.6646  -26.7423   22.1203 H   0  0  0  0  0  0
  -19.6925  -25.6277   21.1245 H   0  0  0  0  0  0
  -19.6729  -27.3162   20.6701 H   0  0  0  0  0  0
  -17.4207  -26.6632   21.4023 H   0  0  0  0  0  0
  -18.0367  -26.0092   22.9022 H   0  0  0  0  0  0
  -19.7934  -30.7270   24.2253 H   0  0  0  0  0  0
  -17.5013  -31.6274   24.5152 H   0  0  0  0  0  0
  -15.5350  -30.2973   23.7684 H   0  0  0  0  0  0
  -15.8663  -28.0811   22.7089 H   0  0  0  0  0  0
  -24.5877  -30.7087   25.7793 H   0  0  0  0  0  0
  -24.8878  -32.2908   26.4871 H   0  0  0  0  0  0
  -25.8009  -30.8943   27.0251 H   0  0  0  0  0  0
  -26.2862  -29.6825   24.1171 H   0  0  0  0  0  0
  -27.3975  -29.7233   25.4656 H   0  0  0  0  0  0
  -27.8745  -30.4327   23.9403 H   0  0  0  0  0  0
  -27.2660  -33.3642   26.2079 H   0  0  0  0  0  0
  -28.3863  -32.6907   25.0349 H   0  0  0  0  0  0
  -28.0713  -31.8482   26.5441 H   0  0  0  0  0  0
  -28.2611  -38.0103   24.7491 H   0  0  0  0  0  0
  -28.1069  -36.2627   24.6326 H   0  0  0  0  0  0
  -27.2273  -37.1501   25.8860 H   0  0  0  0  0  0
  -20.9441  -29.8766   21.6891 H   0  0  0  0  0  0
  -26.0183  -38.2843   24.1410 H   0  0  0  0  0  0
  -33.1533  -19.1407   20.8451 H   0  0  0  0  0  0
  -31.6121  -20.9977   20.7453 H   0  0  0  0  0  0
  -32.4300  -16.8576   20.8585 H   0  0  0  0  0  0
  -28.2979  -18.2031   20.6581 H   0  0  0  0  0  0
  -28.2987  -21.1566   18.5917 H   0  0  0  0  0  0
  -27.0096  -20.5468   19.6216 H   0  0  0  0  0  0
  -26.7263  -23.0722   18.8264 H   0  0  0  0  0  0
  -26.6087  -22.7875   20.5443 H   0  0  0  0  0  0
  -30.4012  -22.5927   20.1924 H   0  0  0  0  0  0
  -29.6892  -22.8666   21.7461 H   0  0  0  0  0  0
  -28.2738  -20.9963   21.6117 H   0  0  0  0  0  0
  -30.0841  -24.6152   18.8015 H   0  0  0  0  0  0
  -29.3497  -23.2251   17.9942 H   0  0  0  0  0  0
  -28.4831  -24.7482   18.0870 H   0  0  0  0  0  0
  -28.7306  -25.0685   21.6710 H   0  0  0  0  0  0
  -27.1112  -24.9574   21.1416 H   0  0  0  0  0  0
  -28.9086  -15.6552   20.9177 H   0  0  0  0  0  0
  1 25  1  0  0  0
  1 30  2  0  0  0
  1 84  1  0  0  0
  2  3  1  0  0  0
  2 25  1  0  0  0
  2 85  1  0  0  0
  2 86  1  0  0  0
  3  4  1  0  0  0
  3 87  1  0  0  0
  3 88  1  0  0  0
  4  5  1  0  0  0
  4 89  1  0  0  0
  4 90  1  0  0  0
  5  6  1  0  0  0
  5 26  1  0  0  0
  5 91  1  0  0  0
  6 25  1  0  0  0
  6 92  1  0  0  0
  6 93  1  0  0  0
  7  8  2  0  0  0
  7 26  1  0  0  0
  7 29  1  0  0  0
  8  9  1  0  0  0
  8 22  1  0  0  0
  9 10  1  0  0  0
  9 27  2  0  0  0
 10 11  2  0  0  0
 10 15  1  0  0  0
 11 12  1  0  0  0
 11 94  1  0  0  0
 12 13  2  0  0  0
 12 95  1  0  0  0
 13 14  1  0  0  0
 13 31  1  0  0  0
 14 15  2  0  0  0
 14 96  1  0  0  0
 15 97  1  0  0  0
 16 17  2  0  0  0
 16 21  1  0  0  0
 16 31  1  0  0  0
 17 18  1  0  0  0
 17 98  1  0  0  0
 18 19  2  0  0  0
 18 99  1  0  0  0
 19 20  1  0  0  0
 19 24  1  0  0  0
 20 21  2  0  0  0
 20100  1  0  0  0
 21 23  1  0  0  0
 22 28  1  0  0  0
 22 32  2  0  0  0
 26 27  1  0  0  0
 28101  1  0  0  0
 28102  1  0  0  0
 29103  1  0  0  0
 29104  1  0  0  0
 33 34  1  0  0  0
 33 66  1  0  0  0
 33 70  2  0  0  0
 34 36  1  0  0  0
 34 59  1  0  0  0
 34105  1  0  0  0
 35 44  2  0  0  0
 35 45  1  0  0  0
 35 68  1  0  0  0
 36 56  1  0  0  0
 36106  1  0  0  0
 37 39  1  0  0  0
 37 47  1  0  0  0
 37 66  1  0  0  0
 37107  1  0  0  0
 38 43  2  0  0  0
 38 46  1  0  0  0
 38 47  1  0  0  0
 39 64  1  0  0  0
 39 67  2  0  0  0
 40 52  1  0  0  0
 40 53  2  0  0  0
 40 58  1  0  0  0
 41108  1  0  0  0
 41109  1  0  0  0
 41110  1  0  0  0
 41 48  1  0  0  0
 42 43  1  0  0  0
 42 66  1  0  0  0
 42111  1  0  0  0
 42112  1  0  0  0
 43 44  1  0  0  0
 44113  1  0  0  0
 45 46  2  0  0  0
 45114  1  0  0  0
 46115  1  0  0  0
 47116  1  0  0  0
 47117  1  0  0  0
 48 56  1  0  0  0
 48 65  1  0  0  0
 48118  1  0  0  0
 49 50  1  0  0  0
 49 53  1  0  0  0
 49 64  1  0  0  0
 49119  1  0  0  0
 50 51  1  0  0  0
 50120  1  0  0  0
 50121  1  0  0  0
 51 52  1  0  0  0
 51122  1  0  0  0
 51123  1  0  0  0
 52124  1  0  0  0
 52125  1  0  0  0
 53 54  1  0  0  0
 54 55  2  0  0  0
 54126  1  0  0  0
 55 57  1  0  0  0
 55127  1  0  0  0
 56 69  2  0  0  0
 57 58  2  0  0  0
 57128  1  0  0  0
 58129  1  0  0  0
 59 60  1  0  0  0
 59 61  1  0  0  0
 59 62  1  0  0  0
 60130  1  0  0  0
 60131  1  0  0  0
 60132  1  0  0  0
 61133  1  0  0  0
 61134  1  0  0  0
 61135  1  0  0  0
 62136  1  0  0  0
 62137  1  0  0  0
 62138  1  0  0  0
 63 65  1  0  0  0
 63139  1  0  0  0
 63140  1  0  0  0
 63141  1  0  0  0
 64142  1  0  0  0
 65143  1  0  0  0
 68 83  1  0  0  0
 71 72  2  0  0  0
 71 73  1  0  0  0
 71144  1  0  0  0
 72 75  1  0  0  0
 72145  1  0  0  0
 73 76  2  0  0  0
 73146  1  0  0  0
 74 75  2  0  0  0
 74 76  1  0  0  0
 74147  1  0  0  0
 75 80  1  0  0  0
 76 84  1  0  0  0
 77 78  1  0  0  0
 77 80  1  0  0  0
 77148  1  0  0  0
 77149  1  0  0  0
 78 81  1  0  0  0
 78150  1  0  0  0
 78151  1  0  0  0
 79 80  1  0  0  0
 79 81  1  0  0  0
 79152  1  0  0  0
 79153  1  0  0  0
 80154  1  0  0  0
 81 82  1  0  0  0
 81 83  1  0  0  0
 82155  1  0  0  0
 82156  1  0  0  0
 82157  1  0  0  0
 83158  1  0  0  0
 83159  1  0  0  0
 84160  1  0  0  0
M  ISO  4   1 100  68 101  83 101  84 100
M  END
> <chiral flag>
0

> <version>
0

> <s_m_source_file>
/data/baiqing/PycharmProjects/Reinvent-master-3.2/result/LINK_invent/BTK/process_docking_weight1_custom_product_contain_oxygen_bond_distance_aromatic_linkinvent_7_9_3/rearranged_h_0147.sdf

> <i_m_source_file_index>
29

> <r_mmod_Potential_Energy-OPLS-2005>
260.777465820312

> <r_mmod_Stretch_Energy-OPLS-2005>
120.569381713867

> <r_mmod_Bend_Energy-OPLS-2005>
191.959747314453

> <r_mmod_Torsional_Energy-OPLS-2005>
295.138641357422

> <r_mmod_Improper_Torsional_Energy-OPLS-2005>
4.91280174255371

> <r_mmod_Van_der_Waal_Energy-OPLS-2005>
145.825668334961

> <r_mmod_Electrostatic_Energy-OPLS-2005>
-370.637023925781

> <r_mmod_Solvation_Energy-OPLS-2005>
-195.790252685547

> <b_mmod_Minimization_Converged-OPLS-2005>
0

> <r_mmod_RMS_Derivative-OPLS-2005>
3.54766941070557

$$$$
29
                    3D
 Structure written by MMmdl.
176184  0  0  1  0            999 V2000
  -30.7266  -14.4460   20.6298 C   0  0  0  0  0  0
  -30.4198  -12.3146   19.4132 C   0  0  0  0  0  0
  -29.4885  -12.5105   18.2009 C   0  0  0  0  0  0
  -28.0121  -12.3646   18.6171 C   0  0  0  0  0  0
  -27.6592  -13.2056   19.8731 C   0  0  2  0  0  0
  -28.6993  -12.9811   20.9927 C   0  0  0  0  0  0
  -25.2577  -13.8164   20.5675 C   0  0  0  0  0  0
  -24.1831  -13.0449   20.9184 C   0  0  0  0  0  0
  -24.6381  -11.6911   20.8736 C   0  0  0  0  0  0
  -23.9050  -10.4299   21.0407 C   0  0  0  0  0  0
  -24.3607   -9.4213   21.9181 C   0  0  0  0  0  0
  -23.6286   -8.2246   22.0754 C   0  0  0  0  0  0
  -22.4268   -8.0283   21.3544 C   0  0  0  0  0  0
  -21.9903   -9.0254   20.4647 C   0  0  0  0  0  0
  -22.7228  -10.2134   20.3056 C   0  0  0  0  0  0
  -21.6847   -6.0735   22.5280 C   0  0  0  0  0  0
  -21.4009   -6.5638   23.8212 C   0  0  0  0  0  0
  -21.3659   -5.6793   24.9177 C   0  0  0  0  0  0
  -21.6050   -4.3056   24.7228 C   0  0  0  0  0  0
  -21.8816   -3.8147   23.4348 C   0  0  0  0  0  0
  -21.9189   -4.6964   22.3406 C   0  0  0  0  0  0
  -22.7853  -13.5245   21.1851 C   0  0  0  0  0  0
  -22.1658   -4.2153   21.0982 F   0  0  0  0  0  0
  -21.5633   -3.4538   25.7738 F   0  0  0  0  0  0
  -30.0299  -13.2917   20.4426 N   0  0  0  0  0  0
  -26.3004  -12.9329   20.3348 N   0  0  0  0  0  0
  -25.9304  -11.6492   20.5756 N   0  0  0  0  0  0
  -22.0487  -12.8238   22.0401 N   0  0  0  0  0  0
  -25.4315  -15.1888   20.4081 N   0  0  0  0  0  0
  -31.8265  -14.6475   20.1059 O   0  0  0  0  0  0
  -21.6632   -6.8881   21.4242 O   0  0  0  0  0  0
  -22.3545  -14.5556   20.6710 O   0  0  0  0  0  0
  -24.6183  -31.8687   23.2113 C   0  0  0  0  0  0
  -25.9078  -32.4808   23.8391 C   0  0  1  0  0  0
  -27.2106  -27.4168   20.0754 C   0  0  0  0  0  0
  -25.5929  -33.8600   24.2330 N   0  0  0  0  0  0
  -23.4024  -30.5007   21.5520 C   0  0  2  0  0  0
  -24.8407  -28.9724   20.1072 C   0  0  0  0  0  0
  -22.7407  -29.4695   22.4957 C   0  0  0  0  0  0
  -18.0260  -28.1375   22.8484 C   0  0  0  0  0  0
  -24.1492  -36.7330   23.2636 C   0  0  0  0  0  0
  -25.9360  -30.8236   21.3712 C   0  0  0  0  0  0
  -26.0039  -29.4592   20.7168 C   0  0  0  0  0  0
  -27.1877  -28.6821   20.7105 C   0  0  0  0  0  0
  -26.0299  -26.9682   19.4398 C   0  0  0  0  0  0
  -24.8484  -27.7235   19.4711 C   0  0  0  0  0  0
  -23.6090  -29.8439   20.1632 C   0  0  0  0  0  0
  -25.4101  -36.3103   24.0345 C   0  0  1  0  0  0
  -20.5857  -28.3691   23.1293 C   0  0  2  0  0  0
  -20.6771  -26.9428   22.5400 C   0  0  0  0  0  0
  -19.5740  -26.6391   21.5206 C   0  0  0  0  0  0
  -18.1914  -26.7919   22.1617 C   0  0  0  0  0  0
  -19.1514  -28.8842   23.2886 C   0  0  0  0  0  0
  -18.9452  -30.1441   23.8910 C   0  0  0  0  0  0
  -17.6463  -30.6587   24.0574 C   0  0  0  0  0  0
  -25.9035  -34.9467   23.5136 C   0  0  0  0  0  0
  -16.5348  -29.9101   23.6323 C   0  0  0  0  0  0
  -16.7258  -28.6512   23.0350 C   0  0  0  0  0  0
  -26.4486  -31.6575   25.0716 C   0  0  0  0  0  0
  -25.3748  -31.3704   26.1470 C   0  0  0  0  0  0
  -27.0337  -30.3016   24.6104 C   0  0  0  0  0  0
  -27.6042  -32.4316   25.7470 C   0  0  0  0  0  0
  -27.5584  -37.1799   24.8455 C   0  0  0  0  0  0
  -21.4134  -29.3063   22.3699 N   0  0  0  0  0  0
  -26.4289  -37.3785   23.9412 N   0  0  0  0  0  0
  -24.6706  -31.0792   22.1028 N   0  0  0  0  0  0
  -23.4182  -28.8213   23.2979 O   0  0  0  0  0  0
  -28.3707  -26.6598   20.1108 O   0  0  0  0  0  0
  -26.5584  -34.8922   22.4686 O   0  0  0  0  0  0
  -23.5376  -32.1456   23.7508 O   0  0  0  0  0  0
  -31.6176  -18.9272   23.1705 C   0  0  0  0  0  0
  -31.9753  -16.6690   22.3288 C   0  0  0  0  0  0
  -29.8169  -17.7641   22.0170 C   0  0  0  0  0  0
  -32.4647  -17.8184   22.9791 C   0  0  0  0  0  0
  -30.3017  -18.9351   22.6585 C   0  0  0  0  0  0
  -30.6410  -16.6182   21.8610 C   0  0  0  0  0  0
  -33.8411  -17.8510   23.4714 C   0  0  0  0  0  0
  -29.0755  -21.9050   21.0565 C   0  0  0  0  0  0
  -29.1726  -22.5664   23.4929 C   0  0  0  0  0  0
  -31.2480  -21.8590   22.2977 C   0  0  0  0  0  0
  -26.9721  -24.2723   21.0834 C   0  0  0  0  0  0
  -27.2936  -23.2948   18.7989 C   0  0  0  0  0  0
  -29.3670  -20.1266   22.9330 C   0  0  0  0  0  0
  -29.2445  -23.3287   20.4599 C   0  0  0  0  0  0
  -28.4608  -25.4653   19.3099 C   0  0  0  0  0  0
  -29.7309  -21.5858   22.4313 C   0  0  0  0  0  0
  -27.9868  -24.0934   19.9300 C   0  0  0  0  0  0
  -34.1249  -18.3549   24.6701 N   0  0  0  0  0  0
  -30.0905  -15.4094   21.3278 N   0  0  0  0  0  0
  -34.8327  -17.3807   22.7184 N   0  3  0  0  0  0
  -28.5125  -21.0178   20.4105 O   0  0  0  0  0  0
  -31.4630  -12.4180   19.1085 H   0  0  0  0  0  0
  -30.3279  -11.3013   19.8074 H   0  0  0  0  0  0
  -29.7296  -11.7885   17.4200 H   0  0  0  0  0  0
  -29.6519  -13.4977   17.7658 H   0  0  0  0  0  0
  -27.8275  -11.3083   18.8158 H   0  0  0  0  0  0
  -27.3579  -12.6337   17.7866 H   0  0  0  0  0  0
  -27.7058  -14.2537   19.5769 H   0  0  0  0  0  0
  -28.6767  -11.9415   21.3231 H   0  0  0  0  0  0
  -28.4527  -13.5694   21.8779 H   0  0  0  0  0  0
  -25.2753   -9.5685   22.4754 H   0  0  0  0  0  0
  -23.9999   -7.4632   22.7466 H   0  0  0  0  0  0
  -21.0838   -8.8773   19.8943 H   0  0  0  0  0  0
  -22.3692  -10.9674   19.6162 H   0  0  0  0  0  0
  -21.1995   -7.6144   23.9721 H   0  0  0  0  0  0
  -21.1487   -6.0520   25.9081 H   0  0  0  0  0  0
  -22.0595   -2.7610   23.2846 H   0  0  0  0  0  0
  -22.4091  -11.9893   22.4786 H   0  0  0  0  0  0
  -21.1103  -13.1268   22.2604 H   0  0  0  0  0  0
  -24.6646  -15.8447   20.5093 H   0  0  0  0  0  0
  -26.2814  -15.6237   20.0718 H   0  0  0  0  0  0
  -26.7142  -32.5512   23.1140 H   0  0  0  0  0  0
  -25.0091  -33.9723   25.0488 H   0  0  0  0  0  0
  -22.6941  -31.3213   21.4175 H   0  0  0  0  0  0
  -23.3743  -35.9675   23.3284 H   0  0  0  0  0  0
  -24.3599  -36.8966   22.2058 H   0  0  0  0  0  0
  -23.7256  -37.6542   23.6651 H   0  0  0  0  0  0
  -26.0532  -31.5870   20.6015 H   0  0  0  0  0  0
  -26.8252  -30.8733   21.9883 H   0  0  0  0  0  0
  -28.0826  -29.0438   21.1968 H   0  0  0  0  0  0
  -25.9799  -26.0225   18.9241 H   0  0  0  0  0  0
  -23.9566  -27.3440   18.9905 H   0  0  0  0  0  0
  -23.7208  -30.6237   19.4086 H   0  0  0  0  0  0
  -22.7315  -29.2691   19.8645 H   0  0  0  0  0  0
  -25.1267  -36.1963   25.0837 H   0  0  0  0  0  0
  -20.9940  -28.3271   24.1420 H   0  0  0  0  0  0
  -20.5698  -26.2306   23.3593 H   0  0  0  0  0  0
  -21.6644  -26.7488   22.1185 H   0  0  0  0  0  0
  -19.6932  -25.6307   21.1229 H   0  0  0  0  0  0
  -19.6681  -27.3213   20.6745 H   0  0  0  0  0  0
  -17.4194  -26.6668   21.4014 H   0  0  0  0  0  0
  -18.0325  -26.0035   22.8994 H   0  0  0  0  0  0
  -19.7937  -30.7228   24.2309 H   0  0  0  0  0  0
  -17.5032  -31.6266   24.5182 H   0  0  0  0  0  0
  -15.5359  -30.3032   23.7628 H   0  0  0  0  0  0
  -15.8644  -28.0850   22.7077 H   0  0  0  0  0  0
  -24.5894  -30.7070   25.7829 H   0  0  0  0  0  0
  -24.8965  -32.2884   26.4908 H   0  0  0  0  0  0
  -25.8092  -30.8880   27.0234 H   0  0  0  0  0  0
  -26.2900  -29.6738   24.1185 H   0  0  0  0  0  0
  -27.4160  -29.7271   25.4548 H   0  0  0  0  0  0
  -27.8697  -30.4348   23.9230 H   0  0  0  0  0  0
  -27.2643  -33.3615   26.2044 H   0  0  0  0  0  0
  -28.3837  -32.6893   25.0286 H   0  0  0  0  0  0
  -28.0720  -31.8450   26.5389 H   0  0  0  0  0  0
  -28.2569  -38.0129   24.7540 H   0  0  0  0  0  0
  -28.1110  -36.2655   24.6221 H   0  0  0  0  0  0
  -27.2305  -37.1400   25.8859 H   0  0  0  0  0  0
  -20.9290  -29.8825   21.6957 H   0  0  0  0  0  0
  -26.0187  -38.2869   24.1410 H   0  0  0  0  0  0
  -31.9900  -19.7736   23.7254 H   0  0  0  0  0  0
  -32.6232  -15.8085   22.2418 H   0  0  0  0  0  0
  -28.7916  -17.7325   21.6758 H   0  0  0  0  0  0
  -29.3739  -23.6128   23.2656 H   0  0  0  0  0  0
  -29.6175  -22.3797   24.4714 H   0  0  0  0  0  0
  -28.0937  -22.4575   23.6093 H   0  0  0  0  0  0
  -31.4605  -22.8564   21.9139 H   0  0  0  0  0  0
  -31.7368  -21.1579   21.6205 H   0  0  0  0  0  0
  -31.7448  -21.8198   23.2656 H   0  0  0  0  0  0
  -26.6865  -23.3176   21.5238 H   0  0  0  0  0  0
  -26.0402  -24.7248   20.7537 H   0  0  0  0  0  0
  -27.3778  -24.8921   21.8839 H   0  0  0  0  0  0
  -26.8254  -22.3799   19.1601 H   0  0  0  0  0  0
  -28.0012  -23.0175   18.0169 H   0  0  0  0  0  0
  -26.4976  -23.8695   18.3253 H   0  0  0  0  0  0
  -29.2951  -20.1443   24.0213 H   0  0  0  0  0  0
  -28.3527  -19.8648   22.6288 H   0  0  0  0  0  0
  -29.9650  -23.2288   19.6479 H   0  0  0  0  0  0
  -29.7308  -23.9655   21.1950 H   0  0  0  0  0  0
  -28.0097  -25.6429   18.3335 H   0  0  0  0  0  0
  -29.5172  -25.3792   19.0559 H   0  0  0  0  0  0
  -33.3704  -18.6627   25.2662 H   0  0  0  0  0  0
  -35.0645  -18.4160   25.0298 H   0  0  0  0  0  0
  -29.1209  -15.2269   21.5359 H   0  0  0  0  0  0
  -34.6214  -17.0540   21.7868 H   0  0  0  0  0  0
  -35.7951  -17.3856   23.0168 H   0  0  0  0  0  0
  1 25  1  0  0  0
  1 30  2  0  0  0
  1 89  1  0  0  0
  2  3  1  0  0  0
  2 25  1  0  0  0
  2 92  1  0  0  0
  2 93  1  0  0  0
  3  4  1  0  0  0
  3 94  1  0  0  0
  3 95  1  0  0  0
  4  5  1  0  0  0
  4 96  1  0  0  0
  4 97  1  0  0  0
  5  6  1  0  0  0
  5 26  1  0  0  0
  5 98  1  0  0  0
  6 25  1  0  0  0
  6 99  1  0  0  0
  6100  1  0  0  0
  7  8  2  0  0  0
  7 26  1  0  0  0
  7 29  1  0  0  0
  8  9  1  0  0  0
  8 22  1  0  0  0
  9 10  1  0  0  0
  9 27  2  0  0  0
 10 11  2  0  0  0
 10 15  1  0  0  0
 11 12  1  0  0  0
 11101  1  0  0  0
 12 13  2  0  0  0
 12102  1  0  0  0
 13 14  1  0  0  0
 13 31  1  0  0  0
 14 15  2  0  0  0
 14103  1  0  0  0
 15104  1  0  0  0
 16 17  2  0  0  0
 16 21  1  0  0  0
 16 31  1  0  0  0
 17 18  1  0  0  0
 17105  1  0  0  0
 18 19  2  0  0  0
 18106  1  0  0  0
 19 20  1  0  0  0
 19 24  1  0  0  0
 20 21  2  0  0  0
 20107  1  0  0  0
 21 23  1  0  0  0
 22 28  1  0  0  0
 22 32  2  0  0  0
 26 27  1  0  0  0
 28108  1  0  0  0
 28109  1  0  0  0
 29110  1  0  0  0
 29111  1  0  0  0
 33 34  1  0  0  0
 33 66  1  0  0  0
 33 70  2  0  0  0
 34 36  1  0  0  0
 34 59  1  0  0  0
 34112  1  0  0  0
 35 44  2  0  0  0
 35 45  1  0  0  0
 35 68  1  0  0  0
 36 56  1  0  0  0
 36113  1  0  0  0
 37 39  1  0  0  0
 37 47  1  0  0  0
 37 66  1  0  0  0
 37114  1  0  0  0
 38 43  2  0  0  0
 38 46  1  0  0  0
 38 47  1  0  0  0
 39 64  1  0  0  0
 39 67  2  0  0  0
 40 52  1  0  0  0
 40 53  2  0  0  0
 40 58  1  0  0  0
 41115  1  0  0  0
 41116  1  0  0  0
 41117  1  0  0  0
 41 48  1  0  0  0
 42 43  1  0  0  0
 42 66  1  0  0  0
 42118  1  0  0  0
 42119  1  0  0  0
 43 44  1  0  0  0
 44120  1  0  0  0
 45 46  2  0  0  0
 45121  1  0  0  0
 46122  1  0  0  0
 47123  1  0  0  0
 47124  1  0  0  0
 48 56  1  0  0  0
 48 65  1  0  0  0
 48125  1  0  0  0
 49 50  1  0  0  0
 49 53  1  0  0  0
 49 64  1  0  0  0
 49126  1  0  0  0
 50 51  1  0  0  0
 50127  1  0  0  0
 50128  1  0  0  0
 51 52  1  0  0  0
 51129  1  0  0  0
 51130  1  0  0  0
 52131  1  0  0  0
 52132  1  0  0  0
 53 54  1  0  0  0
 54 55  2  0  0  0
 54133  1  0  0  0
 55 57  1  0  0  0
 55134  1  0  0  0
 56 69  2  0  0  0
 57 58  2  0  0  0
 57135  1  0  0  0
 58136  1  0  0  0
 59 60  1  0  0  0
 59 61  1  0  0  0
 59 62  1  0  0  0
 60137  1  0  0  0
 60138  1  0  0  0
 60139  1  0  0  0
 61140  1  0  0  0
 61141  1  0  0  0
 61142  1  0  0  0
 62143  1  0  0  0
 62144  1  0  0  0
 62145  1  0  0  0
 63 65  1  0  0  0
 63146  1  0  0  0
 63147  1  0  0  0
 63148  1  0  0  0
 64149  1  0  0  0
 65150  1  0  0  0
 68 85  1  0  0  0
 71 74  2  0  0  0
 71 75  1  0  0  0
 71151  1  0  0  0
 72 74  1  0  0  0
 72 76  2  0  0  0
 72152  1  0  0  0
 73 75  2  0  0  0
 73 76  1  0  0  0
 73153  1  0  0  0
 74 77  1  0  0  0
 75 83  1  0  0  0
 76 89  1  0  0  0
 77 88  1  0  0  0
 77 90  2  0  0  0
 78 84  1  0  0  0
 78 86  1  0  0  0
 78 91  2  0  0  0
 79154  1  0  0  0
 79155  1  0  0  0
 79156  1  0  0  0
 79 86  1  0  0  0
 80 86  1  0  0  0
 80157  1  0  0  0
 80158  1  0  0  0
 80159  1  0  0  0
 81160  1  0  0  0
 81161  1  0  0  0
 81162  1  0  0  0
 81 87  1  0  0  0
 82 87  1  0  0  0
 82163  1  0  0  0
 82164  1  0  0  0
 82165  1  0  0  0
 83 86  1  0  0  0
 83166  1  0  0  0
 83167  1  0  0  0
 84 87  1  0  0  0
 84168  1  0  0  0
 84169  1  0  0  0
 85 87  1  0  0  0
 85170  1  0  0  0
 85171  1  0  0  0
 88172  1  0  0  0
 88173  1  0  0  0
 89174  1  0  0  0
 90175  1  0  0  0
 90176  1  0  0  0
M  CHG  1  90   1
M  ISO  4   1 100  68 101  85 101  89 100
M  END
> <chiral flag>
0

> <version>
0

> <s_m_source_file>
/data/baiqing/PycharmProjects/Reinvent-master-3.2/result/LINK_invent/BTK/process_docking_weight1_custom_product_contain_oxygen_bond_distance_aromatic_linkinvent_7_9_3/rearranged_h_0147.sdf

> <i_m_source_file_index>
30

> <r_mmod_Potential_Energy-OPLS-2005>
-261.266296386719

> <r_mmod_Stretch_Energy-OPLS-2005>
49.0650177001953

> <r_mmod_Bend_Energy-OPLS-2005>
133.18376159668

> <r_mmod_Torsional_Energy-OPLS-2005>
221.843780517578

> <r_mmod_Improper_Torsional_Energy-OPLS-2005>
4.0521559715271

> <r_mmod_Van_der_Waal_Energy-OPLS-2005>
180.462677001953

> <r_mmod_Electrostatic_Energy-OPLS-2005>
-444.370544433594

> <r_mmod_Solvation_Energy-OPLS-2005>
-419.634307861328

> <b_mmod_Minimization_Converged-OPLS-2005>
0

> <r_mmod_RMS_Derivative-OPLS-2005>
1.77941799163818

$$$$
30
                    3D
 Structure written by MMmdl.
163172  0  0  1  0            999 V2000
  -30.5488  -14.7262   20.3745 C   0  0  0  0  0  0
  -30.4531  -12.4212   19.3909 C   0  0  0  0  0  0
  -29.5091  -12.4165   18.1900 C   0  0  0  0  0  0
  -28.0809  -12.1341   18.6936 C   0  0  0  0  0  0
  -27.6196  -13.1357   19.7835 C   0  0  2  0  0  0
  -28.6638  -13.1550   20.9137 C   0  0  0  0  0  0
  -25.2609  -13.7683   20.5356 C   0  0  0  0  0  0
  -24.1790  -13.0126   20.9043 C   0  0  0  0  0  0
  -24.6199  -11.6676   20.8577 C   0  0  0  0  0  0
  -23.8871  -10.4092   21.0362 C   0  0  0  0  0  0
  -24.3460   -9.3891   21.9097 C   0  0  0  0  0  0
  -23.6111   -8.1985   22.0706 C   0  0  0  0  0  0
  -22.4089   -7.9992   21.3562 C   0  0  0  0  0  0
  -21.9609   -8.9980   20.4862 C   0  0  0  0  0  0
  -22.6946  -10.1939   20.3227 C   0  0  0  0  0  0
  -21.6740   -6.0392   22.5196 C   0  0  0  0  0  0
  -21.4037   -6.5477   23.8077 C   0  0  0  0  0  0
  -21.3691   -5.6741   24.9137 C   0  0  0  0  0  0
  -21.6019   -4.2996   24.7273 C   0  0  0  0  0  0
  -21.8859   -3.7942   23.4466 C   0  0  0  0  0  0
  -21.9178   -4.6633   22.3440 C   0  0  0  0  0  0
  -22.8057  -13.5171   21.1875 C   0  0  0  0  0  0
  -22.1666   -4.1801   21.1061 F   0  0  0  0  0  0
  -21.5595   -3.4536   25.7865 F   0  0  0  0  0  0
  -29.9473  -13.4944   20.2919 N   0  0  0  0  0  0
  -26.2873  -12.8730   20.2881 N   0  0  0  0  0  0
  -25.9043  -11.6005   20.5395 N   0  0  0  0  0  0
  -22.0784  -12.8567   22.0878 N   0  0  0  0  0  0
  -25.4370  -15.1334   20.3568 N   0  0  0  0  0  0
  -31.7569  -14.8215   20.1708 O   0  0  0  0  0  0
  -21.6591   -6.8498   21.4163 O   0  0  0  0  0  0
  -22.3549  -14.5320   20.6584 O   0  0  0  0  0  0
  -24.6289  -31.8676   23.2100 C   0  0  0  0  0  0
  -25.9145  -32.4818   23.8392 C   0  0  1  0  0  0
  -27.1282  -27.2800   20.0712 C   0  0  0  0  0  0
  -25.5975  -33.8603   24.2339 N   0  0  0  0  0  0
  -23.4102  -30.5070   21.5633 C   0  0  2  0  0  0
  -24.8296  -28.9723   20.1083 C   0  0  0  0  0  0
  -22.7452  -29.4693   22.4999 C   0  0  0  0  0  0
  -18.0283  -28.1388   22.8495 C   0  0  0  0  0  0
  -24.1499  -36.7294   23.2642 C   0  0  0  0  0  0
  -25.9604  -30.7825   21.3874 C   0  0  0  0  0  0
  -26.0128  -29.4085   20.7236 C   0  0  0  0  0  0
  -27.1754  -28.5680   20.7069 C   0  0  0  0  0  0
  -25.9448  -26.9522   19.4049 C   0  0  0  0  0  0
  -24.7971  -27.7458   19.4436 C   0  0  0  0  0  0
  -23.6140  -29.8670   20.1685 C   0  0  0  0  0  0
  -25.4119  -36.3097   24.0349 C   0  0  1  0  0  0
  -20.5896  -28.3696   23.1297 C   0  0  2  0  0  0
  -20.6789  -26.9430   22.5407 C   0  0  0  0  0  0
  -19.5761  -26.6392   21.5211 C   0  0  0  0  0  0
  -18.1941  -26.7935   22.1628 C   0  0  0  0  0  0
  -19.1542  -28.8841   23.2896 C   0  0  0  0  0  0
  -18.9473  -30.1447   23.8896 C   0  0  0  0  0  0
  -17.6473  -30.6590   24.0564 C   0  0  0  0  0  0
  -25.9066  -34.9465   23.5134 C   0  0  0  0  0  0
  -16.5357  -29.9094   23.6340 C   0  0  0  0  0  0
  -16.7270  -28.6517   23.0355 C   0  0  0  0  0  0
  -26.4506  -31.6584   25.0726 C   0  0  0  0  0  0
  -25.3753  -31.3710   26.1472 C   0  0  0  0  0  0
  -27.0309  -30.2996   24.6157 C   0  0  0  0  0  0
  -27.6097  -32.4264   25.7495 C   0  0  0  0  0  0
  -27.5582  -37.1808   24.8465 C   0  0  0  0  0  0
  -21.4180  -29.3056   22.3699 N   0  0  0  0  0  0
  -26.4287  -37.3789   23.9427 N   0  0  0  0  0  0
  -24.6875  -31.0672   22.1087 N   0  0  0  0  0  0
  -23.4181  -28.8197   23.3047 O   0  0  0  0  0  0
  -28.1431  -26.3174   20.0268 O   0  0  0  0  0  0
  -26.5607  -34.8924   22.4680 O   0  0  0  0  0  0
  -23.5478  -32.1472   23.7472 O   0  0  0  0  0  0
  -28.0601  -17.0879   17.4166 C   0  0  0  0  0  0
  -27.6814  -18.3965   17.7366 C   0  0  0  0  0  0
  -28.7445  -16.2941   18.3437 C   0  0  0  0  0  0
  -28.6987  -18.1399   19.9446 C   0  0  0  0  0  0
  -28.0022  -18.9826   18.9805 C   0  0  0  0  0  0
  -29.0821  -16.7637   19.6408 C   0  0  0  0  0  0
  -26.8328  -20.9727   20.4213 C   0  0  0  0  0  0
  -28.0570  -21.5898   18.1745 C   0  0  0  0  0  0
  -27.1558  -22.4376   20.8576 C   0  0  0  0  0  0
  -28.4317  -22.9544   18.8355 C   0  0  0  0  0  0
  -27.4838  -20.4650   19.1177 C   0  0  1  0  0  0
  -27.3456  -23.5677   19.7775 C   0  0  1  0  0  0
  -25.9812  -23.6855   19.0497 C   0  0  0  0  0  0
  -27.8331  -24.9396   20.5429 C   0  0  0  0  0  0
  -29.7982  -15.8740   20.5901 N   0  0  0  0  0  0
  -31.5005  -12.5220   19.0935 H   0  0  0  0  0  0
  -30.4031  -11.4273   19.8559 H   0  0  0  0  0  0
  -29.8045  -11.6614   17.4384 H   0  0  0  0  0  0
  -29.5184  -13.3689   17.6930 H   0  0  0  0  0  0
  -28.1437  -11.1340   19.1461 H   0  0  0  0  0  0
  -27.3717  -12.0589   17.8806 H   0  0  0  0  0  0
  -27.5804  -14.0793   19.2660 H   0  0  0  0  0  0
  -28.7200  -12.1768   21.3885 H   0  0  0  0  0  0
  -28.3629  -13.8643   21.6886 H   0  0  0  0  0  0
  -25.2508   -9.5326   22.4631 H   0  0  0  0  0  0
  -23.9697   -7.4372   22.7287 H   0  0  0  0  0  0
  -21.0444   -8.8524   19.9309 H   0  0  0  0  0  0
  -22.2982  -10.9465   19.6518 H   0  0  0  0  0  0
  -21.2205   -7.6049   23.9493 H   0  0  0  0  0  0
  -21.1502   -6.0588   25.9033 H   0  0  0  0  0  0
  -22.0694   -2.7382   23.3157 H   0  0  0  0  0  0
  -22.4462  -12.0727   22.5861 H   0  0  0  0  0  0
  -21.1575  -13.2238   22.3142 H   0  0  0  0  0  0
  -24.6816  -15.8022   20.4457 H   0  0  0  0  0  0
  -26.3103  -15.5316   20.0371 H   0  0  0  0  0  0
  -26.7179  -32.5463   23.1132 H   0  0  0  0  0  0
  -25.0151  -33.9752   25.0496 H   0  0  0  0  0  0
  -22.7054  -31.3312   21.4435 H   0  0  0  0  0  0
  -23.3770  -35.9605   23.3282 H   0  0  0  0  0  0
  -24.3596  -36.8931   22.2055 H   0  0  0  0  0  0
  -23.7227  -37.6485   23.6669 H   0  0  0  0  0  0
  -26.0946  -31.5466   20.6183 H   0  0  0  0  0  0
  -26.8421  -30.8236   22.0130 H   0  0  0  0  0  0
  -28.0787  -28.8926   21.2073 H   0  0  0  0  0  0
  -25.9017  -26.0803   18.7980 H   0  0  0  0  0  0
  -23.9049  -27.4255   18.9243 H   0  0  0  0  0  0
  -23.7334  -30.6608   19.4318 H   0  0  0  0  0  0
  -22.7245  -29.3189   19.8646 H   0  0  0  0  0  0
  -25.1293  -36.1953   25.0833 H   0  0  0  0  0  0
  -20.9969  -28.3255   24.1422 H   0  0  0  0  0  0
  -20.5723  -26.2286   23.3599 H   0  0  0  0  0  0
  -21.6667  -26.7489   22.1188 H   0  0  0  0  0  0
  -19.6938  -25.6300   21.1246 H   0  0  0  0  0  0
  -19.6708  -27.3201   20.6749 H   0  0  0  0  0  0
  -17.4216  -26.6671   21.4028 H   0  0  0  0  0  0
  -18.0349  -26.0069   22.9018 H   0  0  0  0  0  0
  -19.7948  -30.7275   24.2258 H   0  0  0  0  0  0
  -17.5036  -31.6286   24.5169 H   0  0  0  0  0  0
  -15.5368  -30.3006   23.7671 H   0  0  0  0  0  0
  -15.8672  -28.0845   22.7067 H   0  0  0  0  0  0
  -24.5928  -30.7064   25.7803 H   0  0  0  0  0  0
  -24.8947  -32.2873   26.4922 H   0  0  0  0  0  0
  -25.8087  -30.8869   27.0246 H   0  0  0  0  0  0
  -26.2877  -29.6828   24.1104 H   0  0  0  0  0  0
  -27.3913  -29.7164   25.4651 H   0  0  0  0  0  0
  -27.8806  -30.4276   23.9437 H   0  0  0  0  0  0
  -27.2744  -33.3544   26.2170 H   0  0  0  0  0  0
  -28.3882  -32.6876   25.0293 H   0  0  0  0  0  0
  -28.0828  -31.8321   26.5356 H   0  0  0  0  0  0
  -28.2602  -38.0110   24.7532 H   0  0  0  0  0  0
  -28.1091  -36.2644   24.6276 H   0  0  0  0  0  0
  -27.2307  -37.1430   25.8871 H   0  0  0  0  0  0
  -20.9317  -29.8766   21.6929 H   0  0  0  0  0  0
  -26.0182  -38.2861   24.1433 H   0  0  0  0  0  0
  -27.8135  -16.7101   16.4360 H   0  0  0  0  0  0
  -27.1048  -18.9395   16.9945 H   0  0  0  0  0  0
  -29.0162  -15.3092   18.0393 H   0  0  0  0  0  0
  -28.9263  -18.5500   20.9206 H   0  0  0  0  0  0
  -25.7502  -20.8591   20.3110 H   0  0  0  0  0  0
  -27.1067  -20.2969   21.2343 H   0  0  0  0  0  0
  -28.8900  -21.1986   17.5826 H   0  0  0  0  0  0
  -27.3090  -21.8422   17.4244 H   0  0  0  0  0  0
  -28.0561  -22.3720   21.4588 H   0  0  0  0  0  0
  -26.3730  -22.7199   21.5643 H   0  0  0  0  0  0
  -28.6837  -23.6871   18.0690 H   0  0  0  0  0  0
  -29.3341  -22.7941   19.4173 H   0  0  0  0  0  0
  -26.5447  -20.3001   18.5869 H   0  0  0  0  0  0
  -25.5189  -22.7229   18.8519 H   0  0  0  0  0  0
  -26.0970  -24.1615   18.0746 H   0  0  0  0  0  0
  -25.2420  -24.2326   19.6398 H   0  0  0  0  0  0
  -28.7851  -24.6545   20.9879 H   0  0  0  0  0  0
  -27.1866  -25.0722   21.4134 H   0  0  0  0  0  0
  -30.2766  -16.4197   21.3027 H   0  0  0  0  0  0
  1 25  1  0  0  0
  1 30  2  0  0  0
  1 85  1  0  0  0
  2  3  1  0  0  0
  2 25  1  0  0  0
  2 86  1  0  0  0
  2 87  1  0  0  0
  3  4  1  0  0  0
  3 88  1  0  0  0
  3 89  1  0  0  0
  4  5  1  0  0  0
  4 90  1  0  0  0
  4 91  1  0  0  0
  5  6  1  0  0  0
  5 26  1  0  0  0
  5 92  1  0  0  0
  6 25  1  0  0  0
  6 93  1  0  0  0
  6 94  1  0  0  0
  7  8  2  0  0  0
  7 26  1  0  0  0
  7 29  1  0  0  0
  8  9  1  0  0  0
  8 22  1  0  0  0
  9 10  1  0  0  0
  9 27  2  0  0  0
 10 11  2  0  0  0
 10 15  1  0  0  0
 11 12  1  0  0  0
 11 95  1  0  0  0
 12 13  2  0  0  0
 12 96  1  0  0  0
 13 14  1  0  0  0
 13 31  1  0  0  0
 14 15  2  0  0  0
 14 97  1  0  0  0
 15 98  1  0  0  0
 16 17  2  0  0  0
 16 21  1  0  0  0
 16 31  1  0  0  0
 17 18  1  0  0  0
 17 99  1  0  0  0
 18 19  2  0  0  0
 18100  1  0  0  0
 19 20  1  0  0  0
 19 24  1  0  0  0
 20 21  2  0  0  0
 20101  1  0  0  0
 21 23  1  0  0  0
 22 28  1  0  0  0
 22 32  2  0  0  0
 26 27  1  0  0  0
 28102  1  0  0  0
 28103  1  0  0  0
 29104  1  0  0  0
 29105  1  0  0  0
 33 34  1  0  0  0
 33 66  1  0  0  0
 33 70  2  0  0  0
 34 36  1  0  0  0
 34 59  1  0  0  0
 34106  1  0  0  0
 35 44  2  0  0  0
 35 45  1  0  0  0
 35 68  1  0  0  0
 36 56  1  0  0  0
 36107  1  0  0  0
 37 39  1  0  0  0
 37 47  1  0  0  0
 37 66  1  0  0  0
 37108  1  0  0  0
 38 43  2  0  0  0
 38 46  1  0  0  0
 38 47  1  0  0  0
 39 64  1  0  0  0
 39 67  2  0  0  0
 40 52  1  0  0  0
 40 53  2  0  0  0
 40 58  1  0  0  0
 41109  1  0  0  0
 41110  1  0  0  0
 41111  1  0  0  0
 41 48  1  0  0  0
 42 43  1  0  0  0
 42 66  1  0  0  0
 42112  1  0  0  0
 42113  1  0  0  0
 43 44  1  0  0  0
 44114  1  0  0  0
 45 46  2  0  0  0
 45115  1  0  0  0
 46116  1  0  0  0
 47117  1  0  0  0
 47118  1  0  0  0
 48 56  1  0  0  0
 48 65  1  0  0  0
 48119  1  0  0  0
 49 50  1  0  0  0
 49 53  1  0  0  0
 49 64  1  0  0  0
 49120  1  0  0  0
 50 51  1  0  0  0
 50121  1  0  0  0
 50122  1  0  0  0
 51 52  1  0  0  0
 51123  1  0  0  0
 51124  1  0  0  0
 52125  1  0  0  0
 52126  1  0  0  0
 53 54  1  0  0  0
 54 55  2  0  0  0
 54127  1  0  0  0
 55 57  1  0  0  0
 55128  1  0  0  0
 56 69  2  0  0  0
 57 58  2  0  0  0
 57129  1  0  0  0
 58130  1  0  0  0
 59 60  1  0  0  0
 59 61  1  0  0  0
 59 62  1  0  0  0
 60131  1  0  0  0
 60132  1  0  0  0
 60133  1  0  0  0
 61134  1  0  0  0
 61135  1  0  0  0
 61136  1  0  0  0
 62137  1  0  0  0
 62138  1  0  0  0
 62139  1  0  0  0
 63 65  1  0  0  0
 63140  1  0  0  0
 63141  1  0  0  0
 63142  1  0  0  0
 64143  1  0  0  0
 65144  1  0  0  0
 68 84  1  0  0  0
 71 72  2  0  0  0
 71 73  1  0  0  0
 71145  1  0  0  0
 72 75  1  0  0  0
 72146  1  0  0  0
 73 76  2  0  0  0
 73147  1  0  0  0
 74 75  2  0  0  0
 74 76  1  0  0  0
 74148  1  0  0  0
 75 81  1  0  0  0
 76 85  1  0  0  0
 77 79  1  0  0  0
 77 81  1  0  0  0
 77149  1  0  0  0
 77150  1  0  0  0
 78 80  1  0  0  0
 78 81  1  0  0  0
 78151  1  0  0  0
 78152  1  0  0  0
 79 82  1  0  0  0
 79153  1  0  0  0
 79154  1  0  0  0
 80 82  1  0  0  0
 80155  1  0  0  0
 80156  1  0  0  0
 81157  1  0  0  0
 82 83  1  0  0  0
 82 84  1  0  0  0
 83158  1  0  0  0
 83159  1  0  0  0
 83160  1  0  0  0
 84161  1  0  0  0
 84162  1  0  0  0
 85163  1  0  0  0
M  ISO  4   1 100  68 101  84 101  85 100
M  END
> <chiral flag>
0

> <version>
0

> <s_m_source_file>
/data/baiqing/PycharmProjects/Reinvent-master-3.2/result/LINK_invent/BTK/process_docking_weight1_custom_product_contain_oxygen_bond_distance_aromatic_linkinvent_7_9_3/rearranged_h_0147.sdf

> <i_m_source_file_index>
31

> <r_mmod_Potential_Energy-OPLS-2005>
406.827056884766

> <r_mmod_Stretch_Energy-OPLS-2005>
112.74942779541

> <r_mmod_Bend_Energy-OPLS-2005>
257.527740478516

> <r_mmod_Torsional_Energy-OPLS-2005>
332.773254394531

> <r_mmod_Improper_Torsional_Energy-OPLS-2005>
5.56996774673462

> <r_mmod_Van_der_Waal_Energy-OPLS-2005>
153.946060180664

> <r_mmod_Electrostatic_Energy-OPLS-2005>
-384.595916748047

> <r_mmod_Solvation_Energy-OPLS-2005>
-186.784881591797

> <b_mmod_Minimization_Converged-OPLS-2005>
0

> <r_mmod_RMS_Derivative-OPLS-2005>
22.7687339782715

$$$$
31
                    3D
 Structure written by MMmdl.
167176  0  0  1  0            999 V2000
  -30.7073  -14.4529   20.6197 C   0  0  0  0  0  0
  -30.4280  -12.3119   19.4276 C   0  0  0  0  0  0
  -29.5088  -12.5361   18.2085 C   0  0  0  0  0  0
  -28.0239  -12.3940   18.6022 C   0  0  0  0  0  0
  -27.6638  -13.2056   19.8765 C   0  0  2  0  0  0
  -28.7005  -12.9541   20.9928 C   0  0  0  0  0  0
  -25.2573  -13.8132   20.5674 C   0  0  0  0  0  0
  -24.1817  -13.0419   20.9176 C   0  0  0  0  0  0
  -24.6364  -11.6890   20.8724 C   0  0  0  0  0  0
  -23.9025  -10.4276   21.0408 C   0  0  0  0  0  0
  -24.3581   -9.4206   21.9187 C   0  0  0  0  0  0
  -23.6277   -8.2223   22.0740 C   0  0  0  0  0  0
  -22.4285   -8.0247   21.3531 C   0  0  0  0  0  0
  -21.9907   -9.0213   20.4630 C   0  0  0  0  0  0
  -22.7204  -10.2101   20.3038 C   0  0  0  0  0  0
  -21.6842   -6.0722   22.5281 C   0  0  0  0  0  0
  -21.3970   -6.5622   23.8207 C   0  0  0  0  0  0
  -21.3672   -5.6771   24.9167 C   0  0  0  0  0  0
  -21.6082   -4.3030   24.7222 C   0  0  0  0  0  0
  -21.8813   -3.8111   23.4343 C   0  0  0  0  0  0
  -21.9184   -4.6938   22.3405 C   0  0  0  0  0  0
  -22.7865  -13.5240   21.1837 C   0  0  0  0  0  0
  -22.1662   -4.2113   21.1000 F   0  0  0  0  0  0
  -21.5680   -3.4523   25.7742 F   0  0  0  0  0  0
  -30.0309  -13.2796   20.4622 N   0  0  0  0  0  0
  -26.3022  -12.9304   20.3318 N   0  0  0  0  0  0
  -25.9269  -11.6459   20.5690 N   0  0  0  0  0  0
  -22.0451  -12.8270   22.0394 N   0  0  0  0  0  0
  -25.4326  -15.1867   20.4203 N   0  0  0  0  0  0
  -31.8197  -14.6372   20.1128 O   0  0  0  0  0  0
  -21.6629   -6.8852   21.4234 O   0  0  0  0  0  0
  -22.3576  -14.5552   20.6680 O   0  0  0  0  0  0
  -24.6080  -31.8709   23.2121 C   0  0  0  0  0  0
  -25.8970  -32.4854   23.8416 C   0  0  1  0  0  0
  -27.2395  -27.4761   20.0756 C   0  0  0  0  0  0
  -25.5826  -33.8654   24.2345 N   0  0  0  0  0  0
  -23.3972  -30.4894   21.5527 C   0  0  2  0  0  0
  -24.8462  -28.9573   20.1155 C   0  0  0  0  0  0
  -22.7376  -29.4648   22.5028 C   0  0  0  0  0  0
  -18.0249  -28.1378   22.8516 C   0  0  0  0  0  0
  -24.1466  -36.7325   23.2654 C   0  0  0  0  0  0
  -25.9211  -30.8424   21.3626 C   0  0  0  0  0  0
  -26.0008  -29.4769   20.7171 C   0  0  0  0  0  0
  -27.1980  -28.7320   20.7139 C   0  0  0  0  0  0
  -26.0741  -26.9560   19.4814 C   0  0  0  0  0  0
  -24.8737  -27.6913   19.5014 C   0  0  0  0  0  0
  -23.6038  -29.8164   20.1686 C   0  0  0  0  0  0
  -25.4096  -36.3148   24.0363 C   0  0  1  0  0  0
  -20.5842  -28.3642   23.1373 C   0  0  2  0  0  0
  -20.6729  -26.9389   22.5448 C   0  0  0  0  0  0
  -19.5711  -26.6386   21.5246 C   0  0  0  0  0  0
  -18.1887  -26.7930   22.1639 C   0  0  0  0  0  0
  -19.1496  -28.8822   23.2940 C   0  0  0  0  0  0
  -18.9428  -30.1428   23.8943 C   0  0  0  0  0  0
  -17.6441  -30.6606   24.0569 C   0  0  0  0  0  0
  -25.9024  -34.9508   23.5162 C   0  0  0  0  0  0
  -16.5330  -29.9114   23.6315 C   0  0  0  0  0  0
  -16.7246  -28.6516   23.0358 C   0  0  0  0  0  0
  -26.4413  -31.6624   25.0735 C   0  0  0  0  0  0
  -25.3676  -31.3673   26.1470 C   0  0  0  0  0  0
  -27.0249  -30.3090   24.6056 C   0  0  0  0  0  0
  -27.6025  -32.4320   25.7462 C   0  0  0  0  0  0
  -27.5583  -37.1821   24.8469 C   0  0  0  0  0  0
  -21.4110  -29.3001   22.3775 N   0  0  0  0  0  0
  -26.4280  -37.3842   23.9431 N   0  0  0  0  0  0
  -24.6598  -31.0818   22.1011 N   0  0  0  0  0  0
  -23.4169  -28.8216   23.3066 O   0  0  0  0  0  0
  -28.3959  -26.7452   20.0813 O   0  0  0  0  0  0
  -26.5632  -34.8943   22.4747 O   0  0  0  0  0  0
  -23.5273  -32.1447   23.7519 O   0  0  0  0  0  0
  -29.7749  -20.2563   21.9480 C   0  0  0  0  0  0
  -29.5343  -19.7434   19.5893 C   0  0  0  0  0  0
  -29.9399  -21.6211   21.6324 C   0  0  0  0  0  0
  -29.6995  -21.1095   19.2707 C   0  0  0  0  0  0
  -29.5658  -19.2980   20.9324 C   0  0  0  0  0  0
  -29.8900  -22.0716   20.2928 C   0  0  0  0  0  0
  -29.8712  -24.2060   18.9458 C   0  0  0  0  0  0
  -29.7825  -17.3247   22.6378 C   0  0  0  0  0  0
  -29.7469  -15.7961   22.4859 C   0  0  0  0  0  0
  -30.0016  -16.7969   20.3431 C   0  0  0  0  0  0
  -29.3211  -17.8164   21.2677 C   0  0  2  0  0  0
  -31.2503  -25.9754   17.7958 C   0  0  0  0  0  0
  -31.0386  -26.1011   20.2803 C   0  0  0  0  0  0
  -29.0374  -26.6007   18.8179 C   0  0  0  0  0  0
  -30.2930  -25.7039   18.9778 C   0  0  0  0  0  0
  -29.9755  -15.5103   21.0607 N   0  0  0  0  0  0
  -30.0853  -23.4673   20.0534 N   0  0  0  0  0  0
  -29.3504  -23.7555   17.9199 O   0  0  0  0  0  0
  -31.4757  -12.4112   19.1412 H   0  0  0  0  0  0
  -30.3260  -11.2909   19.8043 H   0  0  0  0  0  0
  -29.7641  -11.8400   17.4093 H   0  0  0  0  0  0
  -29.6825  -13.5345   17.8029 H   0  0  0  0  0  0
  -27.8163  -11.3368   18.7651 H   0  0  0  0  0  0
  -27.3880  -12.7005   17.7720 H   0  0  0  0  0  0
  -27.7156  -14.2631   19.6097 H   0  0  0  0  0  0
  -28.6847  -11.9058   21.2912 H   0  0  0  0  0  0
  -28.4474  -13.5110   21.8887 H   0  0  0  0  0  0
  -25.2712   -9.5722   22.4763 H   0  0  0  0  0  0
  -24.0015   -7.4620   22.7463 H   0  0  0  0  0  0
  -21.0836   -8.8687   19.8948 H   0  0  0  0  0  0
  -22.3644  -10.9610   19.6129 H   0  0  0  0  0  0
  -21.1899   -7.6125   23.9707 H   0  0  0  0  0  0
  -21.1550   -6.0492   25.9082 H   0  0  0  0  0  0
  -22.0591   -2.7568   23.2834 H   0  0  0  0  0  0
  -22.4017  -11.9914   22.4797 H   0  0  0  0  0  0
  -21.1023  -13.1291   22.2469 H   0  0  0  0  0  0
  -24.6762  -15.8461   20.5574 H   0  0  0  0  0  0
  -26.2951  -15.6283   20.1280 H   0  0  0  0  0  0
  -26.7034  -32.5594   23.1194 H   0  0  0  0  0  0
  -24.9852  -33.9810   25.0395 H   0  0  0  0  0  0
  -22.6840  -31.3044   21.4131 H   0  0  0  0  0  0
  -23.3756  -35.9632   23.3322 H   0  0  0  0  0  0
  -24.3545  -36.8917   22.2063 H   0  0  0  0  0  0
  -23.7149  -37.6507   23.6645 H   0  0  0  0  0  0
  -26.0158  -31.6008   20.5853 H   0  0  0  0  0  0
  -26.8154  -30.9076   21.9704 H   0  0  0  0  0  0
  -28.0887  -29.1183   21.1912 H   0  0  0  0  0  0
  -26.0964  -25.9821   19.0119 H   0  0  0  0  0  0
  -23.9860  -27.2816   19.0392 H   0  0  0  0  0  0
  -23.7063  -30.5875   19.4047 H   0  0  0  0  0  0
  -22.7302  -29.2281   19.8778 H   0  0  0  0  0  0
  -25.1268  -36.2043   25.0859 H   0  0  0  0  0  0
  -20.9938  -28.3185   24.1498 H   0  0  0  0  0  0
  -20.5651  -26.2252   23.3619 H   0  0  0  0  0  0
  -21.6591  -26.7446   22.1227 H   0  0  0  0  0  0
  -19.6863  -25.6305   21.1242 H   0  0  0  0  0  0
  -19.6668  -27.3225   20.6804 H   0  0  0  0  0  0
  -17.4178  -26.6724   21.4010 H   0  0  0  0  0  0
  -18.0256  -26.0061   22.9013 H   0  0  0  0  0  0
  -19.7903  -30.7209   24.2358 H   0  0  0  0  0  0
  -17.5005  -31.6293   24.5154 H   0  0  0  0  0  0
  -15.5339  -30.3034   23.7609 H   0  0  0  0  0  0
  -15.8634  -28.0861   22.7049 H   0  0  0  0  0  0
  -24.5846  -30.7050   25.7740 H   0  0  0  0  0  0
  -24.8860  -32.2804   26.4990 H   0  0  0  0  0  0
  -25.8012  -30.8744   27.0186 H   0  0  0  0  0  0
  -26.2778  -29.6858   24.1126 H   0  0  0  0  0  0
  -27.4054  -29.7304   25.4486 H   0  0  0  0  0  0
  -27.8586  -30.4442   23.9165 H   0  0  0  0  0  0
  -27.2692  -33.3610   26.2102 H   0  0  0  0  0  0
  -28.3784  -32.6898   25.0238 H   0  0  0  0  0  0
  -28.0757  -31.8400   26.5310 H   0  0  0  0  0  0
  -28.2622  -38.0109   24.7552 H   0  0  0  0  0  0
  -28.1049  -36.2649   24.6257 H   0  0  0  0  0  0
  -27.2308  -37.1398   25.8870 H   0  0  0  0  0  0
  -20.9270  -29.8709   21.6983 H   0  0  0  0  0  0
  -26.0195  -38.2919   24.1458 H   0  0  0  0  0  0
  -29.8063  -19.9653   22.9891 H   0  0  0  0  0  0
  -29.3788  -19.0425   18.7822 H   0  0  0  0  0  0
  -30.1035  -22.3212   22.4413 H   0  0  0  0  0  0
  -29.6837  -21.3918   18.2259 H   0  0  0  0  0  0
  -30.8064  -17.6532   22.8330 H   0  0  0  0  0  0
  -29.1572  -17.6776   23.4594 H   0  0  0  0  0  0
  -28.7549  -15.4464   22.7743 H   0  0  0  0  0  0
  -30.4661  -15.2995   23.1407 H   0  0  0  0  0  0
  -31.0371  -17.0950   20.1585 H   0  0  0  0  0  0
  -29.5053  -16.7188   19.3767 H   0  0  0  0  0  0
  -28.2423  -17.6532   21.2098 H   0  0  0  0  0  0
  -32.1054  -25.2966   17.8080 H   0  0  0  0  0  0
  -31.6513  -26.9881   17.8362 H   0  0  0  0  0  0
  -30.7506  -25.8665   16.8324 H   0  0  0  0  0  0
  -32.0451  -25.6822   20.3243 H   0  0  0  0  0  0
  -30.5042  -25.7982   21.1815 H   0  0  0  0  0  0
  -31.1404  -27.1842   20.3429 H   0  0  0  0  0  0
  -28.3521  -26.1917   18.0734 H   0  0  0  0  0  0
  -29.3246  -27.5891   18.4541 H   0  0  0  0  0  0
  -30.4189  -24.0086   20.8388 H   0  0  0  0  0  0
  1 25  1  0  0  0
  1 30  2  0  0  0
  1 86  1  0  0  0
  2  3  1  0  0  0
  2 25  1  0  0  0
  2 89  1  0  0  0
  2 90  1  0  0  0
  3  4  1  0  0  0
  3 91  1  0  0  0
  3 92  1  0  0  0
  4  5  1  0  0  0
  4 93  1  0  0  0
  4 94  1  0  0  0
  5  6  1  0  0  0
  5 26  1  0  0  0
  5 95  1  0  0  0
  6 25  1  0  0  0
  6 96  1  0  0  0
  6 97  1  0  0  0
  7  8  2  0  0  0
  7 26  1  0  0  0
  7 29  1  0  0  0
  8  9  1  0  0  0
  8 22  1  0  0  0
  9 10  1  0  0  0
  9 27  2  0  0  0
 10 11  2  0  0  0
 10 15  1  0  0  0
 11 12  1  0  0  0
 11 98  1  0  0  0
 12 13  2  0  0  0
 12 99  1  0  0  0
 13 14  1  0  0  0
 13 31  1  0  0  0
 14 15  2  0  0  0
 14100  1  0  0  0
 15101  1  0  0  0
 16 17  2  0  0  0
 16 21  1  0  0  0
 16 31  1  0  0  0
 17 18  1  0  0  0
 17102  1  0  0  0
 18 19  2  0  0  0
 18103  1  0  0  0
 19 20  1  0  0  0
 19 24  1  0  0  0
 20 21  2  0  0  0
 20104  1  0  0  0
 21 23  1  0  0  0
 22 28  1  0  0  0
 22 32  2  0  0  0
 26 27  1  0  0  0
 28105  1  0  0  0
 28106  1  0  0  0
 29107  1  0  0  0
 29108  1  0  0  0
 33 34  1  0  0  0
 33 66  1  0  0  0
 33 70  2  0  0  0
 34 36  1  0  0  0
 34 59  1  0  0  0
 34109  1  0  0  0
 35 44  2  0  0  0
 35 45  1  0  0  0
 35 68  1  0  0  0
 36 56  1  0  0  0
 36110  1  0  0  0
 37 39  1  0  0  0
 37 47  1  0  0  0
 37 66  1  0  0  0
 37111  1  0  0  0
 38 43  2  0  0  0
 38 46  1  0  0  0
 38 47  1  0  0  0
 39 64  1  0  0  0
 39 67  2  0  0  0
 40 52  1  0  0  0
 40 53  2  0  0  0
 40 58  1  0  0  0
 41112  1  0  0  0
 41113  1  0  0  0
 41114  1  0  0  0
 41 48  1  0  0  0
 42 43  1  0  0  0
 42 66  1  0  0  0
 42115  1  0  0  0
 42116  1  0  0  0
 43 44  1  0  0  0
 44117  1  0  0  0
 45 46  2  0  0  0
 45118  1  0  0  0
 46119  1  0  0  0
 47120  1  0  0  0
 47121  1  0  0  0
 48 56  1  0  0  0
 48 65  1  0  0  0
 48122  1  0  0  0
 49 50  1  0  0  0
 49 53  1  0  0  0
 49 64  1  0  0  0
 49123  1  0  0  0
 50 51  1  0  0  0
 50124  1  0  0  0
 50125  1  0  0  0
 51 52  1  0  0  0
 51126  1  0  0  0
 51127  1  0  0  0
 52128  1  0  0  0
 52129  1  0  0  0
 53 54  1  0  0  0
 54 55  2  0  0  0
 54130  1  0  0  0
 55 57  1  0  0  0
 55131  1  0  0  0
 56 69  2  0  0  0
 57 58  2  0  0  0
 57132  1  0  0  0
 58133  1  0  0  0
 59 60  1  0  0  0
 59 61  1  0  0  0
 59 62  1  0  0  0
 60134  1  0  0  0
 60135  1  0  0  0
 60136  1  0  0  0
 61137  1  0  0  0
 61138  1  0  0  0
 61139  1  0  0  0
 62140  1  0  0  0
 62141  1  0  0  0
 62142  1  0  0  0
 63 65  1  0  0  0
 63143  1  0  0  0
 63144  1  0  0  0
 63145  1  0  0  0
 64146  1  0  0  0
 65147  1  0  0  0
 68 84  1  0  0  0
 71 73  2  0  0  0
 71 75  1  0  0  0
 71148  1  0  0  0
 72 74  1  0  0  0
 72 75  2  0  0  0
 72149  1  0  0  0
 73 76  1  0  0  0
 73150  1  0  0  0
 74 76  2  0  0  0
 74151  1  0  0  0
 75 81  1  0  0  0
 76 87  1  0  0  0
 77 85  1  0  0  0
 77 87  1  0  0  0
 77 88  2  0  0  0
 78 79  1  0  0  0
 78 81  1  0  0  0
 78152  1  0  0  0
 78153  1  0  0  0
 79 86  1  0  0  0
 79154  1  0  0  0
 79155  1  0  0  0
 80 81  1  0  0  0
 80 86  1  0  0  0
 80156  1  0  0  0
 80157  1  0  0  0
 81158  1  0  0  0
 82159  1  0  0  0
 82160  1  0  0  0
 82161  1  0  0  0
 82 85  1  0  0  0
 83 85  1  0  0  0
 83162  1  0  0  0
 83163  1  0  0  0
 83164  1  0  0  0
 84 85  1  0  0  0
 84165  1  0  0  0
 84166  1  0  0  0
 87167  1  0  0  0
M  ISO  4   1 100  68 101  84 101  86 100
M  END
> <chiral flag>
0

> <version>
0

> <s_m_source_file>
/data/baiqing/PycharmProjects/Reinvent-master-3.2/result/LINK_invent/BTK/process_docking_weight1_custom_product_contain_oxygen_bond_distance_aromatic_linkinvent_7_9_3/rearranged_h_0147.sdf

> <i_m_source_file_index>
32

> <r_mmod_Potential_Energy-OPLS-2005>
163.049377441406

> <r_mmod_Stretch_Energy-OPLS-2005>
39.6132736206055

> <r_mmod_Bend_Energy-OPLS-2005>
133.889358520508

> <r_mmod_Torsional_Energy-OPLS-2005>
359.032165527344

> <r_mmod_Improper_Torsional_Energy-OPLS-2005>
11.2701177597046

> <r_mmod_Van_der_Waal_Energy-OPLS-2005>
158.88151550293

> <r_mmod_Electrostatic_Energy-OPLS-2005>
-343.821166992188

> <r_mmod_Solvation_Energy-OPLS-2005>
-205.592071533203

> <b_mmod_Minimization_Converged-OPLS-2005>
0

> <r_mmod_RMS_Derivative-OPLS-2005>
4.7071681022644

$$$$
32
                    3D
 Structure written by MMmdl.
155163  0  0  1  0            999 V2000
  -30.6057  -14.7097   20.4601 C   0  0  0  0  0  0
  -30.4493  -12.4306   19.4507 C   0  0  0  0  0  0
  -29.5198  -12.4990   18.2196 C   0  0  0  0  0  0
  -28.0462  -12.3210   18.6395 C   0  0  0  0  0  0
  -27.6534  -13.2153   19.8452 C   0  0  2  0  0  0
  -28.7020  -13.1176   20.9767 C   0  0  0  0  0  0
  -25.2610  -13.8145   20.5647 C   0  0  0  0  0  0
  -24.1881  -13.0430   20.9192 C   0  0  0  0  0  0
  -24.6429  -11.6892   20.8726 C   0  0  0  0  0  0
  -23.9071  -10.4292   21.0366 C   0  0  0  0  0  0
  -24.3636   -9.4223   21.9155 C   0  0  0  0  0  0
  -23.6323   -8.2257   22.0731 C   0  0  0  0  0  0
  -22.4304   -8.0277   21.3517 C   0  0  0  0  0  0
  -21.9908   -9.0243   20.4622 C   0  0  0  0  0  0
  -22.7229  -10.2128   20.3025 C   0  0  0  0  0  0
  -21.6855   -6.0736   22.5277 C   0  0  0  0  0  0
  -21.4013   -6.5640   23.8213 C   0  0  0  0  0  0
  -21.3663   -5.6775   24.9171 C   0  0  0  0  0  0
  -21.6038   -4.3046   24.7213 C   0  0  0  0  0  0
  -21.8834   -3.8131   23.4342 C   0  0  0  0  0  0
  -21.9207   -4.6951   22.3398 C   0  0  0  0  0  0
  -22.7912  -13.5232   21.1837 C   0  0  0  0  0  0
  -22.1671   -4.2155   21.0979 F   0  0  0  0  0  0
  -21.5623   -3.4517   25.7718 F   0  0  0  0  0  0
  -30.0056  -13.4747   20.3975 N   0  0  0  0  0  0
  -26.3003  -12.9322   20.3229 N   0  0  0  0  0  0
  -25.9353  -11.6480   20.5717 N   0  0  0  0  0  0
  -22.0527  -12.8259   22.0397 N   0  0  0  0  0  0
  -25.4317  -15.1863   20.4069 N   0  0  0  0  0  0
  -31.8011  -14.8459   20.1784 O   0  0  0  0  0  0
  -21.6653   -6.8884   21.4241 O   0  0  0  0  0  0
  -22.3610  -14.5518   20.6641 O   0  0  0  0  0  0
  -24.6306  -31.8583   23.1998 C   0  0  0  0  0  0
  -25.9133  -32.4772   23.8339 C   0  0  1  0  0  0
  -27.2266  -27.2816   20.1150 C   0  0  0  0  0  0
  -25.5951  -33.8569   24.2258 N   0  0  0  0  0  0
  -23.4268  -30.4785   21.5468 C   0  0  2  0  0  0
  -24.8731  -28.9243   20.1178 C   0  0  0  0  0  0
  -22.7504  -29.4593   22.4955 C   0  0  0  0  0  0
  -18.0291  -28.1367   22.8509 C   0  0  0  0  0  0
  -24.1487  -36.7270   23.2638 C   0  0  0  0  0  0
  -25.9723  -30.7712   21.3809 C   0  0  0  0  0  0
  -26.0454  -29.3946   20.7246 C   0  0  0  0  0  0
  -27.2255  -28.5861   20.7131 C   0  0  0  0  0  0
  -26.0321  -26.8736   19.4822 C   0  0  0  0  0  0
  -24.8706  -27.6686   19.4901 C   0  0  0  0  0  0
  -23.6440  -29.8113   20.1634 C   0  0  0  0  0  0
  -25.4118  -36.3088   24.0332 C   0  0  1  0  0  0
  -20.5897  -28.3681   23.1296 C   0  0  2  0  0  0
  -20.6795  -26.9405   22.5418 C   0  0  0  0  0  0
  -19.5750  -26.6373   21.5236 C   0  0  0  0  0  0
  -18.1930  -26.7912   22.1638 C   0  0  0  0  0  0
  -19.1545  -28.8841   23.2893 C   0  0  0  0  0  0
  -18.9459  -30.1448   23.8899 C   0  0  0  0  0  0
  -17.6453  -30.6585   24.0545 C   0  0  0  0  0  0
  -25.9071  -34.9459   23.5100 C   0  0  0  0  0  0
  -16.5347  -29.9075   23.6318 C   0  0  0  0  0  0
  -16.7275  -28.6480   23.0364 C   0  0  0  0  0  0
  -26.4500  -31.6606   25.0726 C   0  0  0  0  0  0
  -25.3712  -31.3759   26.1432 C   0  0  0  0  0  0
  -27.0358  -30.3044   24.6201 C   0  0  0  0  0  0
  -27.6080  -32.4344   25.7481 C   0  0  0  0  0  0
  -27.5590  -37.1787   24.8462 C   0  0  0  0  0  0
  -21.4215  -29.3030   22.3696 N   0  0  0  0  0  0
  -26.4283  -37.3803   23.9430 N   0  0  0  0  0  0
  -24.6958  -31.0547   22.0981 N   0  0  0  0  0  0
  -23.4216  -28.8156   23.3052 O   0  0  0  0  0  0
  -28.3413  -26.4159   20.0971 O   0  0  0  0  0  0
  -26.5635  -34.8946   22.4663 O   0  0  0  0  0  0
  -23.5460  -32.1400   23.7293 O   0  0  0  0  0  0
  -30.7606  -17.9738   21.3701 C   0  0  0  0  0  0
  -30.6105  -19.4095   21.1946 C   0  0  0  0  0  0
  -29.9586  -17.1782   20.5721 C   0  0  0  0  0  0
  -29.7107  -19.8022   20.2249 C   0  0  0  0  0  0
  -30.4826  -24.1872   19.7057 C   0  0  0  0  0  0
  -28.4903  -23.6825   18.2671 C   0  0  0  0  0  0
  -28.8957  -22.3135   20.4263 C   0  0  0  0  0  0
  -28.1596  -24.9655   20.4447 C   0  0  0  0  0  0
  -28.9974  -23.7803   19.7226 C   0  0  0  0  0  0
  -29.7592  -15.7920   20.5894 N   0  0  0  0  0  0
  -29.4281  -21.1151   19.6791 N   0  0  0  0  0  0
  -29.0087  -18.3051   19.5586 S   0  0  0  0  0  0
  -31.4886  -12.5656   19.1460 H   0  0  0  0  0  0
  -30.3980  -11.4434   19.9121 H   0  0  0  0  0  0
  -29.8016  -11.7270   17.5029 H   0  0  0  0  0  0
  -29.6511  -13.4533   17.7073 H   0  0  0  0  0  0
  -27.9108  -11.2699   18.9032 H   0  0  0  0  0  0
  -27.3838  -12.5089   17.7902 H   0  0  0  0  0  0
  -27.6541  -14.2390   19.4728 H   0  0  0  0  0  0
  -28.7396  -12.1062   21.3806 H   0  0  0  0  0  0
  -28.4445  -13.7743   21.8111 H   0  0  0  0  0  0
  -25.2790   -9.5707   22.4712 H   0  0  0  0  0  0
  -24.0028   -7.4644   22.7446 H   0  0  0  0  0  0
  -21.0822   -8.8733   19.8956 H   0  0  0  0  0  0
  -22.3658  -10.9640   19.6128 H   0  0  0  0  0  0
  -21.1997   -7.6138   23.9729 H   0  0  0  0  0  0
  -21.1464   -6.0494   25.9080 H   0  0  0  0  0  0
  -22.0616   -2.7584   23.2833 H   0  0  0  0  0  0
  -22.4133  -11.9977   22.4871 H   0  0  0  0  0  0
  -21.1118  -13.1245   22.2483 H   0  0  0  0  0  0
  -24.6582  -15.8335   20.5148 H   0  0  0  0  0  0
  -26.2627  -15.6293   20.0351 H   0  0  0  0  0  0
  -26.7197  -32.5433   23.1083 H   0  0  0  0  0  0
  -25.0145  -33.9706   25.0433 H   0  0  0  0  0  0
  -22.7255  -31.3031   21.4022 H   0  0  0  0  0  0
  -23.3798  -35.9552   23.3263 H   0  0  0  0  0  0
  -24.3588  -36.8920   22.2063 H   0  0  0  0  0  0
  -23.7172  -37.6434   23.6670 H   0  0  0  0  0  0
  -26.1116  -31.5305   20.6110 H   0  0  0  0  0  0
  -26.8499  -30.8203   22.0126 H   0  0  0  0  0  0
  -28.1249  -28.9430   21.1980 H   0  0  0  0  0  0
  -25.9861  -25.9224   18.9717 H   0  0  0  0  0  0
  -23.9755  -27.3040   19.0045 H   0  0  0  0  0  0
  -23.7732  -30.5878   19.4087 H   0  0  0  0  0  0
  -22.7611  -29.2490   19.8547 H   0  0  0  0  0  0
  -25.1299  -36.1945   25.0826 H   0  0  0  0  0  0
  -20.9985  -28.3242   24.1414 H   0  0  0  0  0  0
  -20.5739  -26.2282   23.3616 H   0  0  0  0  0  0
  -21.6658  -26.7457   22.1176 H   0  0  0  0  0  0
  -19.6916  -25.6288   21.1252 H   0  0  0  0  0  0
  -19.6678  -27.3194   20.6780 H   0  0  0  0  0  0
  -17.4222  -26.6693   21.4017 H   0  0  0  0  0  0
  -18.0291  -26.0031   22.9002 H   0  0  0  0  0  0
  -19.7942  -30.7260   24.2276 H   0  0  0  0  0  0
  -17.5010  -31.6270   24.5134 H   0  0  0  0  0  0
  -15.5343  -30.2970   23.7634 H   0  0  0  0  0  0
  -15.8683  -28.0783   22.7089 H   0  0  0  0  0  0
  -24.5847  -30.7167   25.7734 H   0  0  0  0  0  0
  -24.8928  -32.2923   26.4903 H   0  0  0  0  0  0
  -25.7980  -30.8872   27.0191 H   0  0  0  0  0  0
  -26.2936  -29.6787   24.1221 H   0  0  0  0  0  0
  -27.4072  -29.7323   25.4713 H   0  0  0  0  0  0
  -27.8803  -30.4367   23.9431 H   0  0  0  0  0  0
  -27.2714  -33.3643   26.2078 H   0  0  0  0  0  0
  -28.3857  -32.6903   25.0272 H   0  0  0  0  0  0
  -28.0779  -31.8450   26.5361 H   0  0  0  0  0  0
  -28.2598  -38.0110   24.7598 H   0  0  0  0  0  0
  -28.1107  -36.2650   24.6182 H   0  0  0  0  0  0
  -27.2316  -37.1308   25.8867 H   0  0  0  0  0  0
  -20.9421  -29.8730   21.6871 H   0  0  0  0  0  0
  -26.0170  -38.2870   24.1485 H   0  0  0  0  0  0
  -31.4422  -17.5813   22.1116 H   0  0  0  0  0  0
  -31.2122  -20.0947   21.7737 H   0  0  0  0  0  0
  -31.0913  -23.4670   19.1581 H   0  0  0  0  0  0
  -30.8890  -24.2516   20.7159 H   0  0  0  0  0  0
  -30.6282  -25.1584   19.2314 H   0  0  0  0  0  0
  -29.0956  -23.0012   17.6673 H   0  0  0  0  0  0
  -28.5169  -24.6548   17.7715 H   0  0  0  0  0  0
  -27.4632  -23.3233   18.2217 H   0  0  0  0  0  0
  -27.8443  -22.1048   20.6268 H   0  0  0  0  0  0
  -29.3742  -22.3545   21.4062 H   0  0  0  0  0  0
  -28.3777  -24.9046   21.5100 H   0  0  0  0  0  0
  -27.1081  -24.6899   20.3845 H   0  0  0  0  0  0
  -28.7913  -15.5110   20.6080 H   0  0  0  0  0  0
  -29.1646  -21.1214   18.6953 H   0  0  0  0  0  0
  1 25  1  0  0  0
  1 30  2  0  0  0
  1 80  1  0  0  0
  2  3  1  0  0  0
  2 25  1  0  0  0
  2 83  1  0  0  0
  2 84  1  0  0  0
  3  4  1  0  0  0
  3 85  1  0  0  0
  3 86  1  0  0  0
  4  5  1  0  0  0
  4 87  1  0  0  0
  4 88  1  0  0  0
  5  6  1  0  0  0
  5 26  1  0  0  0
  5 89  1  0  0  0
  6 25  1  0  0  0
  6 90  1  0  0  0
  6 91  1  0  0  0
  7  8  2  0  0  0
  7 26  1  0  0  0
  7 29  1  0  0  0
  8  9  1  0  0  0
  8 22  1  0  0  0
  9 10  1  0  0  0
  9 27  2  0  0  0
 10 11  2  0  0  0
 10 15  1  0  0  0
 11 12  1  0  0  0
 11 92  1  0  0  0
 12 13  2  0  0  0
 12 93  1  0  0  0
 13 14  1  0  0  0
 13 31  1  0  0  0
 14 15  2  0  0  0
 14 94  1  0  0  0
 15 95  1  0  0  0
 16 17  2  0  0  0
 16 21  1  0  0  0
 16 31  1  0  0  0
 17 18  1  0  0  0
 17 96  1  0  0  0
 18 19  2  0  0  0
 18 97  1  0  0  0
 19 20  1  0  0  0
 19 24  1  0  0  0
 20 21  2  0  0  0
 20 98  1  0  0  0
 21 23  1  0  0  0
 22 28  1  0  0  0
 22 32  2  0  0  0
 26 27  1  0  0  0
 28 99  1  0  0  0
 28100  1  0  0  0
 29101  1  0  0  0
 29102  1  0  0  0
 33 34  1  0  0  0
 33 66  1  0  0  0
 33 70  2  0  0  0
 34 36  1  0  0  0
 34 59  1  0  0  0
 34103  1  0  0  0
 35 44  2  0  0  0
 35 45  1  0  0  0
 35 68  1  0  0  0
 36 56  1  0  0  0
 36104  1  0  0  0
 37 39  1  0  0  0
 37 47  1  0  0  0
 37 66  1  0  0  0
 37105  1  0  0  0
 38 43  2  0  0  0
 38 46  1  0  0  0
 38 47  1  0  0  0
 39 64  1  0  0  0
 39 67  2  0  0  0
 40 52  1  0  0  0
 40 53  2  0  0  0
 40 58  1  0  0  0
 41106  1  0  0  0
 41107  1  0  0  0
 41108  1  0  0  0
 41 48  1  0  0  0
 42 43  1  0  0  0
 42 66  1  0  0  0
 42109  1  0  0  0
 42110  1  0  0  0
 43 44  1  0  0  0
 44111  1  0  0  0
 45 46  2  0  0  0
 45112  1  0  0  0
 46113  1  0  0  0
 47114  1  0  0  0
 47115  1  0  0  0
 48 56  1  0  0  0
 48 65  1  0  0  0
 48116  1  0  0  0
 49 50  1  0  0  0
 49 53  1  0  0  0
 49 64  1  0  0  0
 49117  1  0  0  0
 50 51  1  0  0  0
 50118  1  0  0  0
 50119  1  0  0  0
 51 52  1  0  0  0
 51120  1  0  0  0
 51121  1  0  0  0
 52122  1  0  0  0
 52123  1  0  0  0
 53 54  1  0  0  0
 54 55  2  0  0  0
 54124  1  0  0  0
 55 57  1  0  0  0
 55125  1  0  0  0
 56 69  2  0  0  0
 57 58  2  0  0  0
 57126  1  0  0  0
 58127  1  0  0  0
 59 60  1  0  0  0
 59 61  1  0  0  0
 59 62  1  0  0  0
 60128  1  0  0  0
 60129  1  0  0  0
 60130  1  0  0  0
 61131  1  0  0  0
 61132  1  0  0  0
 61133  1  0  0  0
 62134  1  0  0  0
 62135  1  0  0  0
 62136  1  0  0  0
 63 65  1  0  0  0
 63137  1  0  0  0
 63138  1  0  0  0
 63139  1  0  0  0
 64140  1  0  0  0
 65141  1  0  0  0
 68 78  1  0  0  0
 71 72  1  0  0  0
 71 73  2  0  0  0
 71142  1  0  0  0
 72 74  2  0  0  0
 72143  1  0  0  0
 73 80  1  0  0  0
 73 82  1  0  0  0
 74 81  1  0  0  0
 74 82  1  0  0  0
 75144  1  0  0  0
 75145  1  0  0  0
 75146  1  0  0  0
 75 79  1  0  0  0
 76 79  1  0  0  0
 76147  1  0  0  0
 76148  1  0  0  0
 76149  1  0  0  0
 77 79  1  0  0  0
 77 81  1  0  0  0
 77150  1  0  0  0
 77151  1  0  0  0
 78 79  1  0  0  0
 78152  1  0  0  0
 78153  1  0  0  0
 80154  1  0  0  0
 81155  1  0  0  0
M  ISO  4   1 100  68 101  78 101  80 100
M  END
> <chiral flag>
0

> <version>
0

> <s_m_source_file>
/data/baiqing/PycharmProjects/Reinvent-master-3.2/result/LINK_invent/BTK/process_docking_weight1_custom_product_contain_oxygen_bond_distance_aromatic_linkinvent_7_9_3/rearranged_h_0147.sdf

> <i_m_source_file_index>
33

> <r_mmod_Potential_Energy-OPLS-2005>
159.655502319336

> <r_mmod_Stretch_Energy-OPLS-2005>
102.895606994629

> <r_mmod_Bend_Energy-OPLS-2005>
162.974304199219

> <r_mmod_Torsional_Energy-OPLS-2005>
277.657104492188

> <r_mmod_Improper_Torsional_Energy-OPLS-2005>
8.89992809295654

> <r_mmod_Van_der_Waal_Energy-OPLS-2005>
112.657890319824

> <r_mmod_Electrostatic_Energy-OPLS-2005>
-364.93359375

> <r_mmod_Solvation_Energy-OPLS-2005>
-210.843307495117

> <b_mmod_Minimization_Converged-OPLS-2005>
0

> <r_mmod_RMS_Derivative-OPLS-2005>
4.07538843154907

$$$$
33
                    3D
 Structure written by MMmdl.
159168  0  0  1  0            999 V2000
  -30.5793  -14.6686   20.5331 C   0  0  0  0  0  0
  -30.4564  -12.4181   19.4483 C   0  0  0  0  0  0
  -29.5137  -12.5225   18.2259 C   0  0  0  0  0  0
  -28.0344  -12.3532   18.6345 C   0  0  0  0  0  0
  -27.6584  -13.2099   19.8706 C   0  0  2  0  0  0
  -28.7032  -13.0348   20.9957 C   0  0  0  0  0  0
  -25.2590  -13.8149   20.5689 C   0  0  0  0  0  0
  -24.1836  -13.0437   20.9157 C   0  0  0  0  0  0
  -24.6389  -11.6900   20.8700 C   0  0  0  0  0  0
  -23.9043  -10.4286   21.0377 C   0  0  0  0  0  0
  -24.3594   -9.4208   21.9166 C   0  0  0  0  0  0
  -23.6272   -8.2241   22.0753 C   0  0  0  0  0  0
  -22.4253   -8.0273   21.3548 C   0  0  0  0  0  0
  -21.9881   -9.0240   20.4650 C   0  0  0  0  0  0
  -22.7203  -10.2123   20.3048 C   0  0  0  0  0  0
  -21.6859   -6.0714   22.5273 C   0  0  0  0  0  0
  -21.4017   -6.5626   23.8200 C   0  0  0  0  0  0
  -21.3659   -5.6782   24.9164 C   0  0  0  0  0  0
  -21.6047   -4.3046   24.7221 C   0  0  0  0  0  0
  -21.8822   -3.8134   23.4345 C   0  0  0  0  0  0
  -21.9189   -4.6941   22.3393 C   0  0  0  0  0  0
  -22.7855  -13.5240   21.1814 C   0  0  0  0  0  0
  -22.1667   -4.2125   21.0970 F   0  0  0  0  0  0
  -21.5620   -3.4537   25.7737 F   0  0  0  0  0  0
  -30.0165  -13.4183   20.4436 N   0  0  0  0  0  0
  -26.3017  -12.9324   20.3347 N   0  0  0  0  0  0
  -25.9324  -11.6489   20.5752 N   0  0  0  0  0  0
  -22.0497  -12.8247   22.0389 N   0  0  0  0  0  0
  -25.4333  -15.1873   20.4136 N   0  0  0  0  0  0
  -31.7148  -14.8997   20.1016 O   0  0  0  0  0  0
  -21.6639   -6.8857   21.4237 O   0  0  0  0  0  0
  -22.3530  -14.5530   20.6638 O   0  0  0  0  0  0
  -24.6286  -31.8588   23.2023 C   0  0  0  0  0  0
  -25.9132  -32.4770   23.8362 C   0  0  1  0  0  0
  -27.2240  -27.2938   20.1318 C   0  0  0  0  0  0
  -25.5943  -33.8574   24.2293 N   0  0  0  0  0  0
  -23.4219  -30.4816   21.5453 C   0  0  2  0  0  0
  -24.8707  -28.9340   20.1127 C   0  0  0  0  0  0
  -22.7492  -29.4616   22.4946 C   0  0  0  0  0  0
  -18.0289  -28.1400   22.8482 C   0  0  0  0  0  0
  -24.1485  -36.7275   23.2636 C   0  0  0  0  0  0
  -25.9647  -30.7825   21.3769 C   0  0  0  0  0  0
  -26.0400  -29.4063   20.7228 C   0  0  0  0  0  0
  -27.2206  -28.5991   20.7216 C   0  0  0  0  0  0
  -26.0367  -26.8909   19.4791 C   0  0  0  0  0  0
  -24.8734  -27.6834   19.4779 C   0  0  0  0  0  0
  -23.6381  -29.8164   20.1607 C   0  0  0  0  0  0
  -25.4109  -36.3077   24.0339 C   0  0  1  0  0  0
  -20.5886  -28.3706   23.1292 C   0  0  2  0  0  0
  -20.6776  -26.9429   22.5419 C   0  0  0  0  0  0
  -19.5751  -26.6403   21.5219 C   0  0  0  0  0  0
  -18.1928  -26.7940   22.1630 C   0  0  0  0  0  0
  -19.1536  -28.8874   23.2874 C   0  0  0  0  0  0
  -18.9456  -30.1470   23.8898 C   0  0  0  0  0  0
  -17.6452  -30.6594   24.0566 C   0  0  0  0  0  0
  -25.9059  -34.9447   23.5116 C   0  0  0  0  0  0
  -16.5348  -29.9084   23.6332 C   0  0  0  0  0  0
  -16.7274  -28.6504   23.0352 C   0  0  0  0  0  0
  -26.4512  -31.6577   25.0730 C   0  0  0  0  0  0
  -25.3723  -31.3710   26.1436 C   0  0  0  0  0  0
  -27.0351  -30.2998   24.6186 C   0  0  0  0  0  0
  -27.6087  -32.4296   25.7498 C   0  0  0  0  0  0
  -27.5575  -37.1794   24.8470 C   0  0  0  0  0  0
  -21.4207  -29.3034   22.3680 N   0  0  0  0  0  0
  -26.4285  -37.3771   23.9419 N   0  0  0  0  0  0
  -24.6900  -31.0588   22.0980 N   0  0  0  0  0  0
  -23.4210  -28.8163   23.3036 O   0  0  0  0  0  0
  -28.3276  -26.4168   20.1664 O   0  0  0  0  0  0
  -26.5624  -34.8912   22.4679 O   0  0  0  0  0  0
  -23.5448  -32.1415   23.7338 O   0  0  0  0  0  0
  -30.1727  -18.0733   20.3891 C   0  0  0  0  0  0
  -28.6879  -18.8636   21.8797 C   0  0  0  0  0  0
  -29.5345  -19.2873   20.8919 C   0  0  0  0  0  0
  -29.6416  -17.0100   21.1213 C   0  0  0  0  0  0
  -29.9895  -23.1544   21.1128 C   0  0  0  0  0  0
  -28.1294  -22.5149   19.5945 C   0  0  0  0  0  0
  -29.7444  -21.6710   21.5981 C   0  0  0  0  0  0
  -28.9031  -21.1551   19.3566 C   0  0  0  0  0  0
  -28.9922  -23.7532   20.0432 C   0  0  0  0  0  0
  -29.7908  -24.2634   18.8272 C   0  0  0  0  0  0
  -28.0805  -24.9908   20.5558 C   0  0  0  0  0  0
  -29.6919  -20.6717   20.5085 N   0  0  0  0  0  0
  -29.7345  -15.6244   21.0360 N   0  0  0  0  0  0
  -28.7329  -17.5039   22.0153 O   0  0  0  0  0  0
  -31.4913  -12.5776   19.1399 H   0  0  0  0  0  0
  -30.4270  -11.4174   19.8821 H   0  0  0  0  0  0
  -29.7850  -11.7747   17.4794 H   0  0  0  0  0  0
  -29.6456  -13.4951   17.7494 H   0  0  0  0  0  0
  -27.8669  -11.2974   18.8525 H   0  0  0  0  0  0
  -27.3827  -12.5994   17.7949 H   0  0  0  0  0  0
  -27.6857  -14.2504   19.5452 H   0  0  0  0  0  0
  -28.7294  -11.9989   21.3384 H   0  0  0  0  0  0
  -28.4321  -13.6188   21.8765 H   0  0  0  0  0  0
  -25.2740   -9.5693   22.4741 H   0  0  0  0  0  0
  -23.9979   -7.4645   22.7493 H   0  0  0  0  0  0
  -21.0803   -8.8753   19.8970 H   0  0  0  0  0  0
  -22.3647  -10.9654   19.6155 H   0  0  0  0  0  0
  -21.2029   -7.6140   23.9697 H   0  0  0  0  0  0
  -21.1480   -6.0516   25.9062 H   0  0  0  0  0  0
  -22.0603   -2.7599   23.2851 H   0  0  0  0  0  0
  -22.4107  -11.9907   22.4780 H   0  0  0  0  0  0
  -21.1127  -13.1308   22.2608 H   0  0  0  0  0  0
  -24.6697  -15.8444   20.5310 H   0  0  0  0  0  0
  -26.2894  -15.6296   20.1027 H   0  0  0  0  0  0
  -26.7187  -32.5436   23.1098 H   0  0  0  0  0  0
  -25.0088  -33.9733   25.0434 H   0  0  0  0  0  0
  -22.7138  -31.3003   21.4032 H   0  0  0  0  0  0
  -23.3761  -35.9593   23.3303 H   0  0  0  0  0  0
  -24.3549  -36.8891   22.2044 H   0  0  0  0  0  0
  -23.7232  -37.6475   23.6649 H   0  0  0  0  0  0
  -26.0946  -31.5420   20.6053 H   0  0  0  0  0  0
  -26.8451  -30.8357   22.0047 H   0  0  0  0  0  0
  -28.1154  -28.9549   21.2125 H   0  0  0  0  0  0
  -25.9884  -25.9469   18.9578 H   0  0  0  0  0  0
  -23.9824  -27.3241   18.9813 H   0  0  0  0  0  0
  -23.7563  -30.5920   19.4032 H   0  0  0  0  0  0
  -22.7569  -29.2463   19.8617 H   0  0  0  0  0  0
  -25.1282  -36.1923   25.0832 H   0  0  0  0  0  0
  -20.9969  -28.3273   24.1419 H   0  0  0  0  0  0
  -20.5681  -26.2316   23.3615 H   0  0  0  0  0  0
  -21.6642  -26.7451   22.1209 H   0  0  0  0  0  0
  -19.6905  -25.6316   21.1241 H   0  0  0  0  0  0
  -19.6685  -27.3221   20.6751 H   0  0  0  0  0  0
  -17.4201  -26.6697   21.4027 H   0  0  0  0  0  0
  -18.0313  -26.0082   22.9030 H   0  0  0  0  0  0
  -19.7927  -30.7292   24.2265 H   0  0  0  0  0  0
  -17.5002  -31.6271   24.5181 H   0  0  0  0  0  0
  -15.5345  -30.2990   23.7659 H   0  0  0  0  0  0
  -15.8673  -28.0830   22.7067 H   0  0  0  0  0  0
  -24.5938  -30.7017   25.7750 H   0  0  0  0  0  0
  -24.8867  -32.2867   26.4822 H   0  0  0  0  0  0
  -25.8032  -30.8917   27.0233 H   0  0  0  0  0  0
  -26.2929  -29.6747   24.1205 H   0  0  0  0  0  0
  -27.4032  -29.7247   25.4696 H   0  0  0  0  0  0
  -27.8806  -30.4285   23.9421 H   0  0  0  0  0  0
  -27.2734  -33.3617   26.2055 H   0  0  0  0  0  0
  -28.3908  -32.6817   25.0324 H   0  0  0  0  0  0
  -28.0735  -31.8420   26.5427 H   0  0  0  0  0  0
  -28.2603  -38.0085   24.7511 H   0  0  0  0  0  0
  -28.1059  -36.2615   24.6294 H   0  0  0  0  0  0
  -27.2285  -37.1439   25.8872 H   0  0  0  0  0  0
  -20.9407  -29.8731   21.6857 H   0  0  0  0  0  0
  -26.0166  -38.2841   24.1426 H   0  0  0  0  0  0
  -30.9016  -17.9896   19.5968 H   0  0  0  0  0  0
  -28.0027  -19.3648   22.5498 H   0  0  0  0  0  0
  -31.0056  -23.1978   20.7184 H   0  0  0  0  0  0
  -30.0182  -23.8002   21.9900 H   0  0  0  0  0  0
  -27.3556  -22.3317   20.3425 H   0  0  0  0  0  0
  -27.5790  -22.7716   18.6879 H   0  0  0  0  0  0
  -28.8131  -21.6293   22.1665 H   0  0  0  0  0  0
  -30.5335  -21.3876   22.2985 H   0  0  0  0  0  0
  -29.5794  -21.2613   18.5072 H   0  0  0  0  0  0
  -28.1824  -20.3896   19.0659 H   0  0  0  0  0  0
  -30.4166  -23.4851   18.3895 H   0  0  0  0  0  0
  -30.4426  -25.0940   19.1041 H   0  0  0  0  0  0
  -29.1205  -24.6249   18.0478 H   0  0  0  0  0  0
  -27.0553  -24.7183   20.3212 H   0  0  0  0  0  0
  -28.0803  -24.9788   21.6459 H   0  0  0  0  0  0
  -28.9289  -15.1703   21.4365 H   0  0  0  0  0  0
  1 25  1  0  0  0
  1 30  2  0  0  0
  1 83  1  0  0  0
  2  3  1  0  0  0
  2 25  1  0  0  0
  2 85  1  0  0  0
  2 86  1  0  0  0
  3  4  1  0  0  0
  3 87  1  0  0  0
  3 88  1  0  0  0
  4  5  1  0  0  0
  4 89  1  0  0  0
  4 90  1  0  0  0
  5  6  1  0  0  0
  5 26  1  0  0  0
  5 91  1  0  0  0
  6 25  1  0  0  0
  6 92  1  0  0  0
  6 93  1  0  0  0
  7  8  2  0  0  0
  7 26  1  0  0  0
  7 29  1  0  0  0
  8  9  1  0  0  0
  8 22  1  0  0  0
  9 10  1  0  0  0
  9 27  2  0  0  0
 10 11  2  0  0  0
 10 15  1  0  0  0
 11 12  1  0  0  0
 11 94  1  0  0  0
 12 13  2  0  0  0
 12 95  1  0  0  0
 13 14  1  0  0  0
 13 31  1  0  0  0
 14 15  2  0  0  0
 14 96  1  0  0  0
 15 97  1  0  0  0
 16 17  2  0  0  0
 16 21  1  0  0  0
 16 31  1  0  0  0
 17 18  1  0  0  0
 17 98  1  0  0  0
 18 19  2  0  0  0
 18 99  1  0  0  0
 19 20  1  0  0  0
 19 24  1  0  0  0
 20 21  2  0  0  0
 20100  1  0  0  0
 21 23  1  0  0  0
 22 28  1  0  0  0
 22 32  2  0  0  0
 26 27  1  0  0  0
 28101  1  0  0  0
 28102  1  0  0  0
 29103  1  0  0  0
 29104  1  0  0  0
 33 34  1  0  0  0
 33 66  1  0  0  0
 33 70  2  0  0  0
 34 36  1  0  0  0
 34 59  1  0  0  0
 34105  1  0  0  0
 35 44  2  0  0  0
 35 45  1  0  0  0
 35 68  1  0  0  0
 36 56  1  0  0  0
 36106  1  0  0  0
 37 39  1  0  0  0
 37 47  1  0  0  0
 37 66  1  0  0  0
 37107  1  0  0  0
 38 43  2  0  0  0
 38 46  1  0  0  0
 38 47  1  0  0  0
 39 64  1  0  0  0
 39 67  2  0  0  0
 40 52  1  0  0  0
 40 53  2  0  0  0
 40 58  1  0  0  0
 41108  1  0  0  0
 41109  1  0  0  0
 41110  1  0  0  0
 41 48  1  0  0  0
 42 43  1  0  0  0
 42 66  1  0  0  0
 42111  1  0  0  0
 42112  1  0  0  0
 43 44  1  0  0  0
 44113  1  0  0  0
 45 46  2  0  0  0
 45114  1  0  0  0
 46115  1  0  0  0
 47116  1  0  0  0
 47117  1  0  0  0
 48 56  1  0  0  0
 48 65  1  0  0  0
 48118  1  0  0  0
 49 50  1  0  0  0
 49 53  1  0  0  0
 49 64  1  0  0  0
 49119  1  0  0  0
 50 51  1  0  0  0
 50120  1  0  0  0
 50121  1  0  0  0
 51 52  1  0  0  0
 51122  1  0  0  0
 51123  1  0  0  0
 52124  1  0  0  0
 52125  1  0  0  0
 53 54  1  0  0  0
 54 55  2  0  0  0
 54126  1  0  0  0
 55 57  1  0  0  0
 55127  1  0  0  0
 56 69  2  0  0  0
 57 58  2  0  0  0
 57128  1  0  0  0
 58129  1  0  0  0
 59 60  1  0  0  0
 59 61  1  0  0  0
 59 62  1  0  0  0
 60130  1  0  0  0
 60131  1  0  0  0
 60132  1  0  0  0
 61133  1  0  0  0
 61134  1  0  0  0
 61135  1  0  0  0
 62136  1  0  0  0
 62137  1  0  0  0
 62138  1  0  0  0
 63 65  1  0  0  0
 63139  1  0  0  0
 63140  1  0  0  0
 63141  1  0  0  0
 64142  1  0  0  0
 65143  1  0  0  0
 68 81  1  0  0  0
 71 73  1  0  0  0
 71 74  2  0  0  0
 71144  1  0  0  0
 72 73  2  0  0  0
 72 84  1  0  0  0
 72145  1  0  0  0
 73 82  1  0  0  0
 74 83  1  0  0  0
 74 84  1  0  0  0
 75 77  1  0  0  0
 75 79  1  0  0  0
 75146  1  0  0  0
 75147  1  0  0  0
 76 78  1  0  0  0
 76 79  1  0  0  0
 76148  1  0  0  0
 76149  1  0  0  0
 77 82  1  0  0  0
 77150  1  0  0  0
 77151  1  0  0  0
 78 82  1  0  0  0
 78152  1  0  0  0
 78153  1  0  0  0
 79 80  1  0  0  0
 79 81  1  0  0  0
 80154  1  0  0  0
 80155  1  0  0  0
 80156  1  0  0  0
 81157  1  0  0  0
 81158  1  0  0  0
 83159  1  0  0  0
M  ISO  4   1 100  68 101  81 101  83 100
M  END
> <chiral flag>
0

> <version>
0

> <s_m_source_file>
/data/baiqing/PycharmProjects/Reinvent-master-3.2/result/LINK_invent/BTK/process_docking_weight1_custom_product_contain_oxygen_bond_distance_aromatic_linkinvent_7_9_3/rearranged_h_0147.sdf

> <i_m_source_file_index>
34

> <r_mmod_Potential_Energy-OPLS-2005>
215.096618652344

> <r_mmod_Stretch_Energy-OPLS-2005>
91.9365615844727

> <r_mmod_Bend_Energy-OPLS-2005>
195.298843383789

> <r_mmod_Torsional_Energy-OPLS-2005>
323.287719726562

> <r_mmod_Improper_Torsional_Energy-OPLS-2005>
6.93197822570801

> <r_mmod_Van_der_Waal_Energy-OPLS-2005>
136.791244506836

> <r_mmod_Electrostatic_Energy-OPLS-2005>
-377.451843261719

> <r_mmod_Solvation_Energy-OPLS-2005>
-222.157516479492

> <b_mmod_Minimization_Converged-OPLS-2005>
0

> <r_mmod_RMS_Derivative-OPLS-2005>
2.16525101661682

$$$$
34
                    3D
 Structure written by MMmdl.
167175  0  0  1  0            999 V2000
  -30.7246  -14.4314   20.6105 C   0  0  0  0  0  0
  -30.4224  -12.2940   19.4151 C   0  0  0  0  0  0
  -29.4923  -12.5071   18.2035 C   0  0  0  0  0  0
  -28.0131  -12.3726   18.6158 C   0  0  0  0  0  0
  -27.6657  -13.2044   19.8793 C   0  0  2  0  0  0
  -28.7052  -12.9637   20.9972 C   0  0  0  0  0  0
  -25.2606  -13.8156   20.5678 C   0  0  0  0  0  0
  -24.1846  -13.0439   20.9166 C   0  0  0  0  0  0
  -24.6391  -11.6903   20.8731 C   0  0  0  0  0  0
  -23.9057  -10.4291   21.0401 C   0  0  0  0  0  0
  -24.3610   -9.4211   21.9183 C   0  0  0  0  0  0
  -23.6290   -8.2245   22.0756 C   0  0  0  0  0  0
  -22.4273   -8.0281   21.3544 C   0  0  0  0  0  0
  -21.9908   -9.0244   20.4641 C   0  0  0  0  0  0
  -22.7232  -10.2126   20.3046 C   0  0  0  0  0  0
  -21.6854   -6.0735   22.5280 C   0  0  0  0  0  0
  -21.4007   -6.5635   23.8214 C   0  0  0  0  0  0
  -21.3655   -5.6789   24.9175 C   0  0  0  0  0  0
  -21.6043   -4.3053   24.7223 C   0  0  0  0  0  0
  -21.8822   -3.8144   23.4345 C   0  0  0  0  0  0
  -21.9194   -4.6962   22.3403 C   0  0  0  0  0  0
  -22.7867  -13.5243   21.1835 C   0  0  0  0  0  0
  -22.1665   -4.2149   21.0983 F   0  0  0  0  0  0
  -21.5628   -3.4540   25.7737 F   0  0  0  0  0  0
  -30.0428  -13.2645   20.4541 N   0  0  0  0  0  0
  -26.3043  -12.9324   20.3383 N   0  0  0  0  0  0
  -25.9322  -11.6485   20.5766 N   0  0  0  0  0  0
  -22.0499  -12.8224   22.0377 N   0  0  0  0  0  0
  -25.4346  -15.1872   20.4088 N   0  0  0  0  0  0
  -31.8212  -14.6357   20.0810 O   0  0  0  0  0  0
  -21.6638   -6.8876   21.4243 O   0  0  0  0  0  0
  -22.3559  -14.5559   20.6703 O   0  0  0  0  0  0
  -24.6141  -31.8702   23.2135 C   0  0  0  0  0  0
  -25.9042  -32.4835   23.8415 C   0  0  1  0  0  0
  -27.2282  -27.4340   20.0934 C   0  0  0  0  0  0
  -25.5905  -33.8630   24.2354 N   0  0  0  0  0  0
  -23.4021  -30.4963   21.5538 C   0  0  2  0  0  0
  -24.8499  -28.9657   20.1190 C   0  0  0  0  0  0
  -22.7404  -29.4676   22.4990 C   0  0  0  0  0  0
  -18.0272  -28.1371   22.8484 C   0  0  0  0  0  0
  -24.1484  -36.7295   23.2638 C   0  0  0  0  0  0
  -25.9346  -30.8293   21.3757 C   0  0  0  0  0  0
  -26.0100  -29.4636   20.7261 C   0  0  0  0  0  0
  -27.2035  -28.7007   20.7221 C   0  0  0  0  0  0
  -26.0591  -26.9708   19.4574 C   0  0  0  0  0  0
  -24.8677  -27.7142   19.4850 C   0  0  0  0  0  0
  -23.6124  -29.8329   20.1680 C   0  0  0  0  0  0
  -25.4104  -36.3115   24.0348 C   0  0  1  0  0  0
  -20.5863  -28.3656   23.1304 C   0  0  2  0  0  0
  -20.6765  -26.9393   22.5401 C   0  0  0  0  0  0
  -19.5747  -26.6386   21.5195 C   0  0  0  0  0  0
  -18.1924  -26.7928   22.1605 C   0  0  0  0  0  0
  -19.1523  -28.8825   23.2900 C   0  0  0  0  0  0
  -18.9455  -30.1430   23.8914 C   0  0  0  0  0  0
  -17.6464  -30.6580   24.0564 C   0  0  0  0  0  0
  -25.9029  -34.9480   23.5143 C   0  0  0  0  0  0
  -16.5349  -29.9083   23.6333 C   0  0  0  0  0  0
  -16.7262  -28.6499   23.0354 C   0  0  0  0  0  0
  -26.4465  -31.6594   25.0729 C   0  0  0  0  0  0
  -25.3727  -31.3697   26.1469 C   0  0  0  0  0  0
  -27.0281  -30.3034   24.6085 C   0  0  0  0  0  0
  -27.6044  -32.4297   25.7501 C   0  0  0  0  0  0
  -27.5583  -37.1812   24.8464 C   0  0  0  0  0  0
  -21.4132  -29.3034   22.3715 N   0  0  0  0  0  0
  -26.4295  -37.3795   23.9410 N   0  0  0  0  0  0
  -24.6679  -31.0797   22.1053 N   0  0  0  0  0  0
  -23.4185  -28.8205   23.3017 O   0  0  0  0  0  0
  -28.3688  -26.6598   20.0517 O   0  0  0  0  0  0
  -26.5580  -34.8924   22.4698 O   0  0  0  0  0  0
  -23.5333  -32.1463   23.7523 O   0  0  0  0  0  0
  -31.4532  -17.4359   21.0108 C   0  0  0  0  0  0
  -31.3294  -18.8468   21.1973 C   0  0  0  0  0  0
  -30.3333  -16.7174   21.3729 C   0  0  0  0  0  0
  -30.1139  -19.2173   21.7087 C   0  0  0  0  0  0
  -29.5226  -22.4104   24.2428 C   0  0  0  0  0  0
  -30.9039  -23.9983   22.9625 C   0  0  0  0  0  0
  -29.5202  -23.8370   19.7681 C   0  0  0  0  0  0
  -27.0981  -23.9052   20.1853 C   0  0  0  0  0  0
  -28.5301  -23.3732   22.1465 C   0  0  0  0  0  0
  -30.5015  -21.6561   22.0627 C   0  0  0  0  0  0
  -28.5479  -25.7624   21.1633 C   0  0  0  0  0  0
  -29.8629  -22.8709   22.8045 C   0  0  0  0  0  0
  -28.4655  -24.2307   20.8254 C   0  0  0  0  0  0
  -30.0811  -15.3773   21.3207 N   0  0  0  0  0  0
  -29.6226  -20.4875   22.0177 N   0  0  0  0  0  0
  -29.1073  -17.8147   21.9741 S   0  0  0  0  0  0
  -31.4664  -12.3901   19.1117 H   0  0  0  0  0  0
  -30.3218  -11.2787   19.8011 H   0  0  0  0  0  0
  -29.7271  -11.7861   17.4193 H   0  0  0  0  0  0
  -29.6653  -13.4945   17.7732 H   0  0  0  0  0  0
  -27.8156  -11.3164   18.8014 H   0  0  0  0  0  0
  -27.3646  -12.6591   17.7868 H   0  0  0  0  0  0
  -27.7172  -14.2557   19.5948 H   0  0  0  0  0  0
  -28.6736  -11.9223   21.3201 H   0  0  0  0  0  0
  -28.4605  -13.5447   21.8869 H   0  0  0  0  0  0
  -25.2755   -9.5695   22.4758 H   0  0  0  0  0  0
  -24.0002   -7.4639   22.7476 H   0  0  0  0  0  0
  -21.0843   -8.8754   19.8939 H   0  0  0  0  0  0
  -22.3694  -10.9660   19.6146 H   0  0  0  0  0  0
  -21.1990   -7.6142   23.9719 H   0  0  0  0  0  0
  -21.1473   -6.0517   25.9080 H   0  0  0  0  0  0
  -22.0601   -2.7609   23.2846 H   0  0  0  0  0  0
  -22.4094  -11.9863   22.4741 H   0  0  0  0  0  0
  -21.1113  -13.1248   22.2571 H   0  0  0  0  0  0
  -24.6714  -15.8467   20.5147 H   0  0  0  0  0  0
  -26.2923  -15.6233   20.0931 H   0  0  0  0  0  0
  -26.7107  -32.5553   23.1172 H   0  0  0  0  0  0
  -25.0084  -33.9794   25.0518 H   0  0  0  0  0  0
  -22.6901  -31.3137   21.4165 H   0  0  0  0  0  0
  -23.3762  -35.9616   23.3320 H   0  0  0  0  0  0
  -24.3576  -36.8875   22.2049 H   0  0  0  0  0  0
  -23.7218  -37.6500   23.6625 H   0  0  0  0  0  0
  -26.0539  -31.5938   20.6070 H   0  0  0  0  0  0
  -26.8202  -30.8784   21.9971 H   0  0  0  0  0  0
  -28.0981  -29.0801   21.1955 H   0  0  0  0  0  0
  -26.0518  -26.0416   18.9172 H   0  0  0  0  0  0
  -23.9827  -27.3292   18.9975 H   0  0  0  0  0  0
  -23.7224  -30.6106   19.4114 H   0  0  0  0  0  0
  -22.7367  -29.2545   19.8684 H   0  0  0  0  0  0
  -25.1288  -36.1987   25.0847 H   0  0  0  0  0  0
  -20.9951  -28.3215   24.1426 H   0  0  0  0  0  0
  -20.5649  -26.2260   23.3578 H   0  0  0  0  0  0
  -21.6635  -26.7429   22.1191 H   0  0  0  0  0  0
  -19.6907  -25.6304   21.1200 H   0  0  0  0  0  0
  -19.6703  -27.3215   20.6743 H   0  0  0  0  0  0
  -17.4192  -26.6677   21.4006 H   0  0  0  0  0  0
  -18.0327  -26.0058   22.8985 H   0  0  0  0  0  0
  -19.7937  -30.7233   24.2291 H   0  0  0  0  0  0
  -17.5027  -31.6271   24.5151 H   0  0  0  0  0  0
  -15.5351  -30.2998   23.7657 H   0  0  0  0  0  0
  -15.8655  -28.0827   22.7072 H   0  0  0  0  0  0
  -24.5909  -30.7038   25.7792 H   0  0  0  0  0  0
  -24.8914  -32.2857   26.4909 H   0  0  0  0  0  0
  -25.8073  -30.8863   27.0227 H   0  0  0  0  0  0
  -26.2820  -29.6828   24.1104 H   0  0  0  0  0  0
  -27.4020  -29.7222   25.4524 H   0  0  0  0  0  0
  -27.8676  -30.4352   23.9255 H   0  0  0  0  0  0
  -27.2668  -33.3596   26.2086 H   0  0  0  0  0  0
  -28.3861  -32.6846   25.0335 H   0  0  0  0  0  0
  -28.0693  -31.8407   26.5414 H   0  0  0  0  0  0
  -28.2595  -38.0115   24.7515 H   0  0  0  0  0  0
  -28.1086  -36.2644   24.6292 H   0  0  0  0  0  0
  -27.2299  -37.1455   25.8867 H   0  0  0  0  0  0
  -20.9271  -29.8771   21.6961 H   0  0  0  0  0  0
  -26.0192  -38.2878   24.1410 H   0  0  0  0  0  0
  -32.3649  -17.0158   20.6118 H   0  0  0  0  0  0
  -32.1325  -19.5245   20.9461 H   0  0  0  0  0  0
  -29.2070  -23.2467   24.8679 H   0  0  0  0  0  0
  -30.3844  -21.9526   24.7303 H   0  0  0  0  0  0
  -28.7141  -21.6790   24.2626 H   0  0  0  0  0  0
  -30.4862  -24.8554   23.4920 H   0  0  0  0  0  0
  -31.2979  -24.3582   22.0165 H   0  0  0  0  0  0
  -31.7647  -23.6568   23.5385 H   0  0  0  0  0  0
  -29.4470  -22.7794   19.5129 H   0  0  0  0  0  0
  -30.5407  -24.0393   20.0772 H   0  0  0  0  0  0
  -29.3716  -24.3950   18.8428 H   0  0  0  0  0  0
  -26.9289  -22.8307   20.1053 H   0  0  0  0  0  0
  -27.0459  -24.2696   19.1622 H   0  0  0  0  0  0
  -26.2677  -24.3251   20.7543 H   0  0  0  0  0  0
  -27.9788  -23.9317   22.9042 H   0  0  0  0  0  0
  -27.9135  -22.4847   22.0158 H   0  0  0  0  0  0
  -31.4224  -21.3706   22.5746 H   0  0  0  0  0  0
  -30.8027  -21.9222   21.0511 H   0  0  0  0  0  0
  -29.5271  -25.9877   21.5833 H   0  0  0  0  0  0
  -27.8364  -26.0027   21.9565 H   0  0  0  0  0  0
  -29.2057  -15.0761   21.7221 H   0  0  0  0  0  0
  -28.7167  -20.5972   22.4626 H   0  0  0  0  0  0
  1 25  1  0  0  0
  1 30  2  0  0  0
  1 84  1  0  0  0
  2  3  1  0  0  0
  2 25  1  0  0  0
  2 87  1  0  0  0
  2 88  1  0  0  0
  3  4  1  0  0  0
  3 89  1  0  0  0
  3 90  1  0  0  0
  4  5  1  0  0  0
  4 91  1  0  0  0
  4 92  1  0  0  0
  5  6  1  0  0  0
  5 26  1  0  0  0
  5 93  1  0  0  0
  6 25  1  0  0  0
  6 94  1  0  0  0
  6 95  1  0  0  0
  7  8  2  0  0  0
  7 26  1  0  0  0
  7 29  1  0  0  0
  8  9  1  0  0  0
  8 22  1  0  0  0
  9 10  1  0  0  0
  9 27  2  0  0  0
 10 11  2  0  0  0
 10 15  1  0  0  0
 11 12  1  0  0  0
 11 96  1  0  0  0
 12 13  2  0  0  0
 12 97  1  0  0  0
 13 14  1  0  0  0
 13 31  1  0  0  0
 14 15  2  0  0  0
 14 98  1  0  0  0
 15 99  1  0  0  0
 16 17  2  0  0  0
 16 21  1  0  0  0
 16 31  1  0  0  0
 17 18  1  0  0  0
 17100  1  0  0  0
 18 19  2  0  0  0
 18101  1  0  0  0
 19 20  1  0  0  0
 19 24  1  0  0  0
 20 21  2  0  0  0
 20102  1  0  0  0
 21 23  1  0  0  0
 22 28  1  0  0  0
 22 32  2  0  0  0
 26 27  1  0  0  0
 28103  1  0  0  0
 28104  1  0  0  0
 29105  1  0  0  0
 29106  1  0  0  0
 33 34  1  0  0  0
 33 66  1  0  0  0
 33 70  2  0  0  0
 34 36  1  0  0  0
 34 59  1  0  0  0
 34107  1  0  0  0
 35 44  2  0  0  0
 35 45  1  0  0  0
 35 68  1  0  0  0
 36 56  1  0  0  0
 36108  1  0  0  0
 37 39  1  0  0  0
 37 47  1  0  0  0
 37 66  1  0  0  0
 37109  1  0  0  0
 38 43  2  0  0  0
 38 46  1  0  0  0
 38 47  1  0  0  0
 39 64  1  0  0  0
 39 67  2  0  0  0
 40 52  1  0  0  0
 40 53  2  0  0  0
 40 58  1  0  0  0
 41110  1  0  0  0
 41111  1  0  0  0
 41112  1  0  0  0
 41 48  1  0  0  0
 42 43  1  0  0  0
 42 66  1  0  0  0
 42113  1  0  0  0
 42114  1  0  0  0
 43 44  1  0  0  0
 44115  1  0  0  0
 45 46  2  0  0  0
 45116  1  0  0  0
 46117  1  0  0  0
 47118  1  0  0  0
 47119  1  0  0  0
 48 56  1  0  0  0
 48 65  1  0  0  0
 48120  1  0  0  0
 49 50  1  0  0  0
 49 53  1  0  0  0
 49 64  1  0  0  0
 49121  1  0  0  0
 50 51  1  0  0  0
 50122  1  0  0  0
 50123  1  0  0  0
 51 52  1  0  0  0
 51124  1  0  0  0
 51125  1  0  0  0
 52126  1  0  0  0
 52127  1  0  0  0
 53 54  1  0  0  0
 54 55  2  0  0  0
 54128  1  0  0  0
 55 57  1  0  0  0
 55129  1  0  0  0
 56 69  2  0  0  0
 57 58  2  0  0  0
 57130  1  0  0  0
 58131  1  0  0  0
 59 60  1  0  0  0
 59 61  1  0  0  0
 59 62  1  0  0  0
 60132  1  0  0  0
 60133  1  0  0  0
 60134  1  0  0  0
 61135  1  0  0  0
 61136  1  0  0  0
 61137  1  0  0  0
 62138  1  0  0  0
 62139  1  0  0  0
 62140  1  0  0  0
 63 65  1  0  0  0
 63141  1  0  0  0
 63142  1  0  0  0
 63143  1  0  0  0
 64144  1  0  0  0
 65145  1  0  0  0
 68 81  1  0  0  0
 71 72  1  0  0  0
 71 73  2  0  0  0
 71146  1  0  0  0
 72 74  2  0  0  0
 72147  1  0  0  0
 73 84  1  0  0  0
 73 86  1  0  0  0
 74 85  1  0  0  0
 74 86  1  0  0  0
 75148  1  0  0  0
 75149  1  0  0  0
 75150  1  0  0  0
 75 82  1  0  0  0
 76 82  1  0  0  0
 76151  1  0  0  0
 76152  1  0  0  0
 76153  1  0  0  0
 77154  1  0  0  0
 77155  1  0  0  0
 77156  1  0  0  0
 77 83  1  0  0  0
 78 83  1  0  0  0
 78157  1  0  0  0
 78158  1  0  0  0
 78159  1  0  0  0
 79 82  1  0  0  0
 79 83  1  0  0  0
 79160  1  0  0  0
 79161  1  0  0  0
 80 82  1  0  0  0
 80 85  1  0  0  0
 80162  1  0  0  0
 80163  1  0  0  0
 81 83  1  0  0  0
 81164  1  0  0  0
 81165  1  0  0  0
 84166  1  0  0  0
 85167  1  0  0  0
M  ISO  4   1 100  68 101  81 101  84 100
M  END
> <chiral flag>
0

> <version>
0

> <s_m_source_file>
/data/baiqing/PycharmProjects/Reinvent-master-3.2/result/LINK_invent/BTK/process_docking_weight1_custom_product_contain_oxygen_bond_distance_aromatic_linkinvent_7_9_3/rearranged_h_0147.sdf

> <i_m_source_file_index>
35

> <r_mmod_Potential_Energy-OPLS-2005>
8.21761798858643

> <r_mmod_Stretch_Energy-OPLS-2005>
41.0141181945801

> <r_mmod_Bend_Energy-OPLS-2005>
132.086563110352

> <r_mmod_Torsional_Energy-OPLS-2005>
269.648284912109

> <r_mmod_Improper_Torsional_Energy-OPLS-2005>
3.36437678337097

> <r_mmod_Van_der_Waal_Energy-OPLS-2005>
143.844970703125

> <r_mmod_Electrostatic_Energy-OPLS-2005>
-400.649169921875

> <r_mmod_Solvation_Energy-OPLS-2005>
-191.423278808594

> <b_mmod_Minimization_Converged-OPLS-2005>
0

> <r_mmod_RMS_Derivative-OPLS-2005>
1.11579179763794

$$$$
35
                    3D
 Structure written by MMmdl.
163172  0  0  1  0            999 V2000
  -30.6467  -14.5511   20.6005 C   0  0  0  0  0  0
  -30.4420  -12.3582   19.4469 C   0  0  0  0  0  0
  -29.5121  -12.5281   18.2257 C   0  0  0  0  0  0
  -28.0336  -12.3584   18.6305 C   0  0  0  0  0  0
  -27.6627  -13.2050   19.8765 C   0  0  2  0  0  0
  -28.6974  -12.9992   21.0051 C   0  0  0  0  0  0
  -25.2607  -13.8154   20.5682 C   0  0  0  0  0  0
  -24.1846  -13.0435   20.9130 C   0  0  0  0  0  0
  -24.6377  -11.6901   20.8698 C   0  0  0  0  0  0
  -23.9031  -10.4292   21.0390 C   0  0  0  0  0  0
  -24.3592   -9.4216   21.9182 C   0  0  0  0  0  0
  -23.6270   -8.2245   22.0763 C   0  0  0  0  0  0
  -22.4266   -8.0272   21.3535 C   0  0  0  0  0  0
  -21.9884   -9.0251   20.4652 C   0  0  0  0  0  0
  -22.7195  -10.2133   20.3049 C   0  0  0  0  0  0
  -21.6860   -6.0720   22.5267 C   0  0  0  0  0  0
  -21.4026   -6.5632   23.8200 C   0  0  0  0  0  0
  -21.3661   -5.6790   24.9162 C   0  0  0  0  0  0
  -21.6046   -4.3048   24.7214 C   0  0  0  0  0  0
  -21.8826   -3.8123   23.4341 C   0  0  0  0  0  0
  -21.9199   -4.6943   22.3390 C   0  0  0  0  0  0
  -22.7884  -13.5251   21.1784 C   0  0  0  0  0  0
  -22.1673   -4.2126   21.0971 F   0  0  0  0  0  0
  -21.5606   -3.4535   25.7728 F   0  0  0  0  0  0
  -30.0336  -13.3361   20.4731 N   0  0  0  0  0  0
  -26.3024  -12.9308   20.3345 N   0  0  0  0  0  0
  -25.9305  -11.6471   20.5737 N   0  0  0  0  0  0
  -22.0507  -12.8280   22.0361 N   0  0  0  0  0  0
  -25.4365  -15.1883   20.4166 N   0  0  0  0  0  0
  -31.7231  -14.8157   20.0546 O   0  0  0  0  0  0
  -21.6636   -6.8868   21.4231 O   0  0  0  0  0  0
  -22.3583  -14.5551   20.6607 O   0  0  0  0  0  0
  -24.6237  -31.8637   23.2074 C   0  0  0  0  0  0
  -25.9102  -32.4797   23.8379 C   0  0  1  0  0  0
  -27.2144  -27.3495   20.0782 C   0  0  0  0  0  0
  -25.5939  -33.8597   24.2314 N   0  0  0  0  0  0
  -23.4130  -30.4908   21.5528 C   0  0  2  0  0  0
  -24.8516  -28.9569   20.1110 C   0  0  0  0  0  0
  -22.7450  -29.4641   22.4972 C   0  0  0  0  0  0
  -18.0279  -28.1390   22.8486 C   0  0  0  0  0  0
  -24.1492  -36.7312   23.2637 C   0  0  0  0  0  0
  -25.9532  -30.7988   21.3763 C   0  0  0  0  0  0
  -26.0215  -29.4293   20.7171 C   0  0  0  0  0  0
  -27.2001  -28.6319   20.7032 C   0  0  0  0  0  0
  -26.0132  -26.9285   19.4536 C   0  0  0  0  0  0
  -24.8463  -27.7082   19.4797 C   0  0  0  0  0  0
  -23.6221  -29.8357   20.1648 C   0  0  0  0  0  0
  -25.4109  -36.3099   24.0339 C   0  0  1  0  0  0
  -20.5878  -28.3688   23.1301 C   0  0  2  0  0  0
  -20.6773  -26.9418   22.5411 C   0  0  0  0  0  0
  -19.5749  -26.6391   21.5212 C   0  0  0  0  0  0
  -18.1929  -26.7930   22.1623 C   0  0  0  0  0  0
  -19.1529  -28.8849   23.2889 C   0  0  0  0  0  0
  -18.9460  -30.1452   23.8912 C   0  0  0  0  0  0
  -17.6458  -30.6595   24.0570 C   0  0  0  0  0  0
  -25.9046  -34.9460   23.5120 C   0  0  0  0  0  0
  -16.5347  -29.9097   23.6325 C   0  0  0  0  0  0
  -16.7270  -28.6513   23.0349 C   0  0  0  0  0  0
  -26.4493  -31.6584   25.0727 C   0  0  0  0  0  0
  -25.3740  -31.3726   26.1470 C   0  0  0  0  0  0
  -27.0312  -30.3007   24.6144 C   0  0  0  0  0  0
  -27.6075  -32.4297   25.7477 C   0  0  0  0  0  0
  -27.5582  -37.1809   24.8462 C   0  0  0  0  0  0
  -21.4169  -29.3045   22.3704 N   0  0  0  0  0  0
  -26.4292  -37.3786   23.9411 N   0  0  0  0  0  0
  -24.6826  -31.0663   22.1030 N   0  0  0  0  0  0
  -23.4186  -28.8175   23.3033 O   0  0  0  0  0  0
  -28.3628  -26.5494   20.1248 O   0  0  0  0  0  0
  -26.5598  -34.8918   22.4678 O   0  0  0  0  0  0
  -23.5406  -32.1439   23.7411 O   0  0  0  0  0  0
  -30.1904  -17.8286   20.5205 C   0  0  0  0  0  0
  -28.2085  -18.8512   21.2564 C   0  0  0  0  0  0
  -29.3677  -19.0267   20.5522 C   0  0  0  0  0  0
  -29.6265  -16.7468   21.1933 C   0  0  0  0  0  0
  -29.6017  -20.2563   19.7316 C   0  0  0  0  0  0
  -28.4384  -23.4400   21.3189 C   0  0  0  0  0  0
  -29.0162  -22.0126   21.4747 C   0  0  0  0  0  0
  -29.2601  -22.7713   19.2148 C   0  0  1  0  0  0
  -29.1896  -24.0569   20.1237 C   0  0  2  0  0  0
  -30.3171  -22.8670   18.0925 C   0  0  0  0  0  0
  -30.5913  -24.5390   20.5583 C   0  0  0  0  0  0
  -28.4222  -25.2556   19.4336 C   0  0  0  0  0  0
  -29.3816  -21.5706   20.1159 N   0  0  0  0  0  0
  -29.9846  -15.4349   21.3856 N   0  0  0  0  0  0
  -29.9902  -19.9979   18.4762 N   0  3  0  0  0  0
  -28.1166  -17.2491   21.9274 S   0  0  0  0  0  0
  -31.4853  -12.4845   19.1521 H   0  0  0  0  0  0
  -30.3674  -11.3471   19.8510 H   0  0  0  0  0  0
  -29.7725  -11.8050   17.4525 H   0  0  0  0  0  0
  -29.6644  -13.5162   17.7862 H   0  0  0  0  0  0
  -27.8679  -11.3009   18.8431 H   0  0  0  0  0  0
  -27.3822  -12.6071   17.7916 H   0  0  0  0  0  0
  -27.6998  -14.2515   19.5720 H   0  0  0  0  0  0
  -28.6888  -11.9621   21.3435 H   0  0  0  0  0  0
  -28.4174  -13.5826   21.8830 H   0  0  0  0  0  0
  -25.2743   -9.5693   22.4753 H   0  0  0  0  0  0
  -23.9971   -7.4655   22.7511 H   0  0  0  0  0  0
  -21.0793   -8.8770   19.8990 H   0  0  0  0  0  0
  -22.3646  -10.9673   19.6153 H   0  0  0  0  0  0
  -21.2043   -7.6151   23.9695 H   0  0  0  0  0  0
  -21.1475   -6.0520   25.9064 H   0  0  0  0  0  0
  -22.0603   -2.7583   23.2849 H   0  0  0  0  0  0
  -22.4095  -11.9945   22.4771 H   0  0  0  0  0  0
  -21.1141  -13.1367   22.2557 H   0  0  0  0  0  0
  -24.6776  -15.8502   20.5386 H   0  0  0  0  0  0
  -26.3028  -15.6280   20.1334 H   0  0  0  0  0  0
  -26.7171  -32.5471   23.1128 H   0  0  0  0  0  0
  -25.0080  -33.9747   25.0453 H   0  0  0  0  0  0
  -22.7055  -31.3113   21.4170 H   0  0  0  0  0  0
  -23.3743  -35.9659   23.3302 H   0  0  0  0  0  0
  -24.3585  -36.8918   22.2052 H   0  0  0  0  0  0
  -23.7252  -37.6524   23.6643 H   0  0  0  0  0  0
  -26.0773  -31.5625   20.6072 H   0  0  0  0  0  0
  -26.8375  -30.8474   22.0000 H   0  0  0  0  0  0
  -28.0973  -28.9877   21.1898 H   0  0  0  0  0  0
  -25.9014  -25.9959   18.9301 H   0  0  0  0  0  0
  -23.9468  -27.3417   19.0035 H   0  0  0  0  0  0
  -23.7407  -30.6181   19.4141 H   0  0  0  0  0  0
  -22.7410  -29.2685   19.8594 H   0  0  0  0  0  0
  -25.1281  -36.1963   25.0833 H   0  0  0  0  0  0
  -20.9945  -28.3258   24.1430 H   0  0  0  0  0  0
  -20.5683  -26.2296   23.3603 H   0  0  0  0  0  0
  -21.6643  -26.7461   22.1202 H   0  0  0  0  0  0
  -19.6915  -25.6301   21.1242 H   0  0  0  0  0  0
  -19.6696  -27.3204   20.6744 H   0  0  0  0  0  0
  -17.4197  -26.6670   21.4033 H   0  0  0  0  0  0
  -18.0341  -26.0076   22.9023 H   0  0  0  0  0  0
  -19.7935  -30.7258   24.2298 H   0  0  0  0  0  0
  -17.5019  -31.6269   24.5174 H   0  0  0  0  0  0
  -15.5352  -30.3010   23.7637 H   0  0  0  0  0  0
  -15.8668  -28.0837   22.7059 H   0  0  0  0  0  0
  -24.5907  -30.7079   25.7809 H   0  0  0  0  0  0
  -24.8945  -32.2898   26.4900 H   0  0  0  0  0  0
  -25.8078  -30.8900   27.0238 H   0  0  0  0  0  0
  -26.2861  -29.6769   24.1193 H   0  0  0  0  0  0
  -27.4049  -29.7247   25.4619 H   0  0  0  0  0  0
  -27.8719  -30.4300   23.9324 H   0  0  0  0  0  0
  -27.2713  -33.3596   26.2073 H   0  0  0  0  0  0
  -28.3865  -32.6854   25.0282 H   0  0  0  0  0  0
  -28.0763  -31.8405   26.5368 H   0  0  0  0  0  0
  -28.2608  -38.0100   24.7494 H   0  0  0  0  0  0
  -28.1067  -36.2629   24.6294 H   0  0  0  0  0  0
  -27.2303  -37.1463   25.8867 H   0  0  0  0  0  0
  -20.9339  -29.8789   21.6939 H   0  0  0  0  0  0
  -26.0181  -38.2865   24.1405 H   0  0  0  0  0  0
  -31.1264  -17.7955   19.9822 H   0  0  0  0  0  0
  -27.3748  -19.5262   21.3840 H   0  0  0  0  0  0
  -28.5525  -24.0284   22.2291 H   0  0  0  0  0  0
  -27.3687  -23.3725   21.1132 H   0  0  0  0  0  0
  -28.3070  -21.3600   21.9754 H   0  0  0  0  0  0
  -29.9221  -22.0336   22.0813 H   0  0  0  0  0  0
  -28.2884  -22.6606   18.7301 H   0  0  0  0  0  0
  -31.2837  -22.4676   18.4017 H   0  0  0  0  0  0
  -30.4822  -23.8993   17.7855 H   0  0  0  0  0  0
  -29.9873  -22.3403   17.1965 H   0  0  0  0  0  0
  -31.2072  -23.7277   20.9449 H   0  0  0  0  0  0
  -30.5172  -25.2982   21.3368 H   0  0  0  0  0  0
  -31.1322  -24.9922   19.7275 H   0  0  0  0  0  0
  -27.4548  -24.8405   19.1827 H   0  0  0  0  0  0
  -28.8913  -25.4650   18.4718 H   0  0  0  0  0  0
  -29.3114  -14.9428   21.9542 H   0  0  0  0  0  0
  -30.0397  -19.0445   18.1512 H   0  0  0  0  0  0
  -30.2324  -20.7416   17.8398 H   0  0  0  0  0  0
  1 25  1  0  0  0
  1 30  2  0  0  0
  1 84  1  0  0  0
  2  3  1  0  0  0
  2 25  1  0  0  0
  2 87  1  0  0  0
  2 88  1  0  0  0
  3  4  1  0  0  0
  3 89  1  0  0  0
  3 90  1  0  0  0
  4  5  1  0  0  0
  4 91  1  0  0  0
  4 92  1  0  0  0
  5  6  1  0  0  0
  5 26  1  0  0  0
  5 93  1  0  0  0
  6 25  1  0  0  0
  6 94  1  0  0  0
  6 95  1  0  0  0
  7  8  2  0  0  0
  7 26  1  0  0  0
  7 29  1  0  0  0
  8  9  1  0  0  0
  8 22  1  0  0  0
  9 10  1  0  0  0
  9 27  2  0  0  0
 10 11  2  0  0  0
 10 15  1  0  0  0
 11 12  1  0  0  0
 11 96  1  0  0  0
 12 13  2  0  0  0
 12 97  1  0  0  0
 13 14  1  0  0  0
 13 31  1  0  0  0
 14 15  2  0  0  0
 14 98  1  0  0  0
 15 99  1  0  0  0
 16 17  2  0  0  0
 16 21  1  0  0  0
 16 31  1  0  0  0
 17 18  1  0  0  0
 17100  1  0  0  0
 18 19  2  0  0  0
 18101  1  0  0  0
 19 20  1  0  0  0
 19 24  1  0  0  0
 20 21  2  0  0  0
 20102  1  0  0  0
 21 23  1  0  0  0
 22 28  1  0  0  0
 22 32  2  0  0  0
 26 27  1  0  0  0
 28103  1  0  0  0
 28104  1  0  0  0
 29105  1  0  0  0
 29106  1  0  0  0
 33 34  1  0  0  0
 33 66  1  0  0  0
 33 70  2  0  0  0
 34 36  1  0  0  0
 34 59  1  0  0  0
 34107  1  0  0  0
 35 44  2  0  0  0
 35 45  1  0  0  0
 35 68  1  0  0  0
 36 56  1  0  0  0
 36108  1  0  0  0
 37 39  1  0  0  0
 37 47  1  0  0  0
 37 66  1  0  0  0
 37109  1  0  0  0
 38 43  2  0  0  0
 38 46  1  0  0  0
 38 47  1  0  0  0
 39 64  1  0  0  0
 39 67  2  0  0  0
 40 52  1  0  0  0
 40 53  2  0  0  0
 40 58  1  0  0  0
 41110  1  0  0  0
 41111  1  0  0  0
 41112  1  0  0  0
 41 48  1  0  0  0
 42 43  1  0  0  0
 42 66  1  0  0  0
 42113  1  0  0  0
 42114  1  0  0  0
 43 44  1  0  0  0
 44115  1  0  0  0
 45 46  2  0  0  0
 45116  1  0  0  0
 46117  1  0  0  0
 47118  1  0  0  0
 47119  1  0  0  0
 48 56  1  0  0  0
 48 65  1  0  0  0
 48120  1  0  0  0
 49 50  1  0  0  0
 49 53  1  0  0  0
 49 64  1  0  0  0
 49121  1  0  0  0
 50 51  1  0  0  0
 50122  1  0  0  0
 50123  1  0  0  0
 51 52  1  0  0  0
 51124  1  0  0  0
 51125  1  0  0  0
 52126  1  0  0  0
 52127  1  0  0  0
 53 54  1  0  0  0
 54 55  2  0  0  0
 54128  1  0  0  0
 55 57  1  0  0  0
 55129  1  0  0  0
 56 69  2  0  0  0
 57 58  2  0  0  0
 57130  1  0  0  0
 58131  1  0  0  0
 59 60  1  0  0  0
 59 61  1  0  0  0
 59 62  1  0  0  0
 60132  1  0  0  0
 60133  1  0  0  0
 60134  1  0  0  0
 61135  1  0  0  0
 61136  1  0  0  0
 61137  1  0  0  0
 62138  1  0  0  0
 62139  1  0  0  0
 62140  1  0  0  0
 63 65  1  0  0  0
 63141  1  0  0  0
 63142  1  0  0  0
 63143  1  0  0  0
 64144  1  0  0  0
 65145  1  0  0  0
 68 82  1  0  0  0
 71 73  1  0  0  0
 71 74  2  0  0  0
 71146  1  0  0  0
 72 73  2  0  0  0
 72 86  1  0  0  0
 72147  1  0  0  0
 73 75  1  0  0  0
 74 84  1  0  0  0
 74 86  1  0  0  0
 75 83  1  0  0  0
 75 85  2  0  0  0
 76 77  1  0  0  0
 76 79  1  0  0  0
 76148  1  0  0  0
 76149  1  0  0  0
 77 83  1  0  0  0
 77150  1  0  0  0
 77151  1  0  0  0
 78 79  1  0  0  0
 78 80  1  0  0  0
 78 83  1  0  0  0
 78152  1  0  0  0
 79 81  1  0  0  0
 79 82  1  0  0  0
 80153  1  0  0  0
 80154  1  0  0  0
 80155  1  0  0  0
 81156  1  0  0  0
 81157  1  0  0  0
 81158  1  0  0  0
 82159  1  0  0  0
 82160  1  0  0  0
 84161  1  0  0  0
 85162  1  0  0  0
 85163  1  0  0  0
M  CHG  1  85   1
M  ISO  4   1 100  68 101  82 101  84 100
M  END
> <chiral flag>
0

> <version>
0

> <s_m_source_file>
/data/baiqing/PycharmProjects/Reinvent-master-3.2/result/LINK_invent/BTK/process_docking_weight1_custom_product_contain_oxygen_bond_distance_aromatic_linkinvent_7_9_3/rearranged_h_0147.sdf

> <i_m_source_file_index>
36

> <r_mmod_Potential_Energy-OPLS-2005>
15.9418649673462

> <r_mmod_Stretch_Energy-OPLS-2005>
61.8393440246582

> <r_mmod_Bend_Energy-OPLS-2005>
187.827423095703

> <r_mmod_Torsional_Energy-OPLS-2005>
309.092987060547

> <r_mmod_Improper_Torsional_Energy-OPLS-2005>
6.31507682800293

> <r_mmod_Van_der_Waal_Energy-OPLS-2005>
136.20442199707

> <r_mmod_Electrostatic_Energy-OPLS-2005>
-270.416961669922

> <r_mmod_Solvation_Energy-OPLS-2005>
-445.343444824219

> <b_mmod_Minimization_Converged-OPLS-2005>
0

> <r_mmod_RMS_Derivative-OPLS-2005>
2.642169713974

$$$$
36
                    3D
 Structure written by MMmdl.
160169  0  0  1  0            999 V2000
  -30.6836  -14.5136   20.5693 C   0  0  0  0  0  0
  -30.4267  -12.3275   19.4315 C   0  0  0  0  0  0
  -29.5105  -12.5327   18.2090 C   0  0  0  0  0  0
  -28.0252  -12.3960   18.6092 C   0  0  0  0  0  0
  -27.6658  -13.2171   19.8780 C   0  0  2  0  0  0
  -28.7081  -12.9962   20.9988 C   0  0  0  0  0  0
  -25.2593  -13.8166   20.5690 C   0  0  0  0  0  0
  -24.1849  -13.0429   20.9173 C   0  0  0  0  0  0
  -24.6417  -11.6922   20.8716 C   0  0  0  0  0  0
  -23.9087  -10.4303   21.0393 C   0  0  0  0  0  0
  -24.3631   -9.4210   21.9179 C   0  0  0  0  0  0
  -23.6306   -8.2261   22.0759 C   0  0  0  0  0  0
  -22.4282   -8.0303   21.3558 C   0  0  0  0  0  0
  -21.9937   -9.0272   20.4652 C   0  0  0  0  0  0
  -22.7272  -10.2143   20.3032 C   0  0  0  0  0  0
  -21.6853   -6.0744   22.5298 C   0  0  0  0  0  0
  -21.4021   -6.5638   23.8231 C   0  0  0  0  0  0
  -21.3646   -5.6778   24.9193 C   0  0  0  0  0  0
  -21.6046   -4.3054   24.7224 C   0  0  0  0  0  0
  -21.8812   -3.8153   23.4340 C   0  0  0  0  0  0
  -21.9197   -4.6976   22.3408 C   0  0  0  0  0  0
  -22.7856  -13.5238   21.1838 C   0  0  0  0  0  0
  -22.1655   -4.2173   21.0983 F   0  0  0  0  0  0
  -21.5630   -3.4526   25.7719 F   0  0  0  0  0  0
  -30.0380  -13.3155   20.4520 N   0  0  0  0  0  0
  -26.3059  -12.9372   20.3357 N   0  0  0  0  0  0
  -25.9351  -11.6519   20.5711 N   0  0  0  0  0  0
  -22.0462  -12.8229   22.0360 N   0  0  0  0  0  0
  -25.4285  -15.1902   20.4129 N   0  0  0  0  0  0
  -31.8065  -14.7070   20.0923 O   0  0  0  0  0  0
  -21.6649   -6.8898   21.4255 O   0  0  0  0  0  0
  -22.3549  -14.5558   20.6704 O   0  0  0  0  0  0
  -24.6192  -31.8657   23.2086 C   0  0  0  0  0  0
  -25.9087  -32.4799   23.8376 C   0  0  1  0  0  0
  -27.2301  -27.3985   20.1086 C   0  0  0  0  0  0
  -25.5941  -33.8589   24.2324 N   0  0  0  0  0  0
  -23.4079  -30.4925   21.5493 C   0  0  2  0  0  0
  -24.8550  -28.9530   20.1170 C   0  0  0  0  0  0
  -22.7417  -29.4659   22.4957 C   0  0  0  0  0  0
  -18.0276  -28.1364   22.8478 C   0  0  0  0  0  0
  -24.1485  -36.7260   23.2644 C   0  0  0  0  0  0
  -25.9416  -30.8208   21.3685 C   0  0  0  0  0  0
  -26.0168  -29.4505   20.7210 C   0  0  0  0  0  0
  -27.2083  -28.6790   20.7180 C   0  0  0  0  0  0
  -26.0551  -26.9359   19.4836 C   0  0  0  0  0  0
  -24.8691  -27.6926   19.4975 C   0  0  0  0  0  0
  -23.6187  -29.8254   20.1643 C   0  0  0  0  0  0
  -25.4109  -36.3072   24.0351 C   0  0  1  0  0  0
  -20.5876  -28.3655   23.1297 C   0  0  2  0  0  0
  -20.6750  -26.9379   22.5427 C   0  0  0  0  0  0
  -19.5745  -26.6369   21.5203 C   0  0  0  0  0  0
  -18.1908  -26.7926   22.1594 C   0  0  0  0  0  0
  -19.1536  -28.8824   23.2891 C   0  0  0  0  0  0
  -18.9460  -30.1439   23.8891 C   0  0  0  0  0  0
  -17.6466  -30.6577   24.0542 C   0  0  0  0  0  0
  -25.9039  -34.9455   23.5121 C   0  0  0  0  0  0
  -16.5354  -29.9069   23.6337 C   0  0  0  0  0  0
  -16.7274  -28.6486   23.0357 C   0  0  0  0  0  0
  -26.4509  -31.6572   25.0706 C   0  0  0  0  0  0
  -25.3799  -31.3662   26.1478 C   0  0  0  0  0  0
  -27.0340  -30.3017   24.6076 C   0  0  0  0  0  0
  -27.6067  -32.4298   25.7495 C   0  0  0  0  0  0
  -27.5585  -37.1774   24.8453 C   0  0  0  0  0  0
  -21.4148  -29.3028   22.3684 N   0  0  0  0  0  0
  -26.4261  -37.3786   23.9449 N   0  0  0  0  0  0
  -24.6749  -31.0743   22.0996 N   0  0  0  0  0  0
  -23.4176  -28.8194   23.2991 O   0  0  0  0  0  0
  -28.3731  -26.6167   20.0541 O   0  0  0  0  0  0
  -26.5564  -34.8916   22.4659 O   0  0  0  0  0  0
  -23.5382  -32.1407   23.7478 O   0  0  0  0  0  0
  -30.9527  -19.0697   20.8260 C   0  0  0  0  0  0
  -31.1387  -17.6590   20.6160 C   0  0  0  0  0  0
  -29.8015  -19.3882   21.5065 C   0  0  0  0  0  0
  -30.1336  -16.8662   21.1355 C   0  0  0  0  0  0
  -29.2938  -20.6750   22.0114 C   0  0  0  0  0  0
  -29.6482  -23.6329   19.7389 C   0  0  0  0  0  0
  -29.7811  -22.1063   19.9649 C   0  0  0  0  0  0
  -28.7582  -23.1446   21.8711 C   0  0  0  0  0  0
  -28.4946  -24.0879   20.6609 C   0  0  2  0  0  0
  -27.1271  -23.7349   20.0305 C   0  0  0  0  0  0
  -28.5317  -25.6106   21.0842 C   0  0  0  0  0  0
  -29.2783  -21.8640   21.3264 N   0  0  0  0  0  0
  -29.9599  -15.5032   21.1444 N   0  0  0  0  0  0
  -28.8066  -20.6669   23.2661 N   0  3  0  0  0  0
  -28.9264  -17.9069   21.8738 S   0  0  0  0  0  0
  -31.4761  -12.4173   19.1426 H   0  0  0  0  0  0
  -30.3086  -11.3184   19.8264 H   0  0  0  0  0  0
  -29.7600  -11.8178   17.4230 H   0  0  0  0  0  0
  -29.6908  -13.5202   17.7805 H   0  0  0  0  0  0
  -27.8174  -11.3395   18.7746 H   0  0  0  0  0  0
  -27.3894  -12.7022   17.7776 H   0  0  0  0  0  0
  -27.7106  -14.2686   19.5946 H   0  0  0  0  0  0
  -28.6897  -11.9579   21.3333 H   0  0  0  0  0  0
  -28.4605  -13.5863   21.8818 H   0  0  0  0  0  0
  -25.2786   -9.5691   22.4742 H   0  0  0  0  0  0
  -24.0026   -7.4650   22.7477 H   0  0  0  0  0  0
  -21.0887   -8.8802   19.8950 H   0  0  0  0  0  0
  -22.3769  -10.9666   19.6114 H   0  0  0  0  0  0
  -21.2012   -7.6130   23.9731 H   0  0  0  0  0  0
  -21.1462   -6.0507   25.9092 H   0  0  0  0  0  0
  -22.0592   -2.7623   23.2828 H   0  0  0  0  0  0
  -22.4025  -11.9854   22.4726 H   0  0  0  0  0  0
  -21.1075  -13.1272   22.2527 H   0  0  0  0  0  0
  -24.6632  -15.8433   20.5394 H   0  0  0  0  0  0
  -26.2855  -15.6381   20.1116 H   0  0  0  0  0  0
  -26.7147  -32.5509   23.1123 H   0  0  0  0  0  0
  -25.0203  -33.9727   25.0549 H   0  0  0  0  0  0
  -22.6992  -31.3126   21.4089 H   0  0  0  0  0  0
  -23.3779  -35.9551   23.3242 H   0  0  0  0  0  0
  -24.3614  -36.8924   22.2076 H   0  0  0  0  0  0
  -23.7178  -37.6429   23.6679 H   0  0  0  0  0  0
  -26.0643  -31.5844   20.5982 H   0  0  0  0  0  0
  -26.8297  -30.8733   21.9873 H   0  0  0  0  0  0
  -28.1059  -29.0630   21.1807 H   0  0  0  0  0  0
  -26.0488  -25.9886   18.9688 H   0  0  0  0  0  0
  -23.9778  -27.3053   19.0213 H   0  0  0  0  0  0
  -23.7282  -30.5979   19.4036 H   0  0  0  0  0  0
  -22.7412  -29.2457   19.8716 H   0  0  0  0  0  0
  -25.1275  -36.1906   25.0841 H   0  0  0  0  0  0
  -21.0012  -28.3230   24.1410 H   0  0  0  0  0  0
  -20.5645  -26.2243   23.3615 H   0  0  0  0  0  0
  -21.6619  -26.7420   22.1222 H   0  0  0  0  0  0
  -19.6891  -25.6285   21.1210 H   0  0  0  0  0  0
  -19.6709  -27.3192   20.6739 H   0  0  0  0  0  0
  -17.4215  -26.6742   21.3950 H   0  0  0  0  0  0
  -18.0268  -26.0072   22.8985 H   0  0  0  0  0  0
  -19.7941  -30.7247   24.2265 H   0  0  0  0  0  0
  -17.5031  -31.6271   24.5120 H   0  0  0  0  0  0
  -15.5350  -30.2960   23.7687 H   0  0  0  0  0  0
  -15.8661  -28.0810   22.7078 H   0  0  0  0  0  0
  -24.5984  -30.6978   25.7852 H   0  0  0  0  0  0
  -24.8985  -32.2809   26.4939 H   0  0  0  0  0  0
  -25.8228  -30.8859   27.0214 H   0  0  0  0  0  0
  -26.2862  -29.6766   24.1196 H   0  0  0  0  0  0
  -27.4182  -29.7267   25.4507 H   0  0  0  0  0  0
  -27.8662  -30.4328   23.9163 H   0  0  0  0  0  0
  -27.2680  -33.3616   26.2034 H   0  0  0  0  0  0
  -28.3920  -32.6831   25.0362 H   0  0  0  0  0  0
  -28.0681  -31.8443   26.5455 H   0  0  0  0  0  0
  -28.2529  -38.0146   24.7607 H   0  0  0  0  0  0
  -28.1138  -36.2671   24.6111 H   0  0  0  0  0  0
  -27.2319  -37.1252   25.8855 H   0  0  0  0  0  0
  -20.9265  -29.8751   21.6936 H   0  0  0  0  0  0
  -26.0120  -38.2829   24.1543 H   0  0  0  0  0  0
  -31.6936  -19.7838   20.4972 H   0  0  0  0  0  0
  -32.0170  -17.2925   20.1017 H   0  0  0  0  0  0
  -29.4566  -23.8677   18.6911 H   0  0  0  0  0  0
  -30.5870  -24.1225   20.0059 H   0  0  0  0  0  0
  -30.8127  -21.7736   19.8462 H   0  0  0  0  0  0
  -29.1637  -21.5541   19.2566 H   0  0  0  0  0  0
  -27.8446  -22.9877   22.4451 H   0  0  0  0  0  0
  -29.5088  -23.5620   22.5438 H   0  0  0  0  0  0
  -26.9480  -22.6589   19.9883 H   0  0  0  0  0  0
  -27.0595  -24.0993   19.0057 H   0  0  0  0  0  0
  -26.3048  -24.1690   20.6011 H   0  0  0  0  0  0
  -29.5039  -25.8084   21.5381 H   0  0  0  0  0  0
  -27.8102  -25.7798   21.8877 H   0  0  0  0  0  0
  -29.0922  -15.1813   21.5465 H   0  0  0  0  0  0
  -28.8612  -19.8296   23.8255 H   0  0  0  0  0  0
  -28.4170  -21.4881   23.7030 H   0  0  0  0  0  0
  1 25  1  0  0  0
  1 30  2  0  0  0
  1 83  1  0  0  0
  2  3  1  0  0  0
  2 25  1  0  0  0
  2 86  1  0  0  0
  2 87  1  0  0  0
  3  4  1  0  0  0
  3 88  1  0  0  0
  3 89  1  0  0  0
  4  5  1  0  0  0
  4 90  1  0  0  0
  4 91  1  0  0  0
  5  6  1  0  0  0
  5 26  1  0  0  0
  5 92  1  0  0  0
  6 25  1  0  0  0
  6 93  1  0  0  0
  6 94  1  0  0  0
  7  8  2  0  0  0
  7 26  1  0  0  0
  7 29  1  0  0  0
  8  9  1  0  0  0
  8 22  1  0  0  0
  9 10  1  0  0  0
  9 27  2  0  0  0
 10 11  2  0  0  0
 10 15  1  0  0  0
 11 12  1  0  0  0
 11 95  1  0  0  0
 12 13  2  0  0  0
 12 96  1  0  0  0
 13 14  1  0  0  0
 13 31  1  0  0  0
 14 15  2  0  0  0
 14 97  1  0  0  0
 15 98  1  0  0  0
 16 17  2  0  0  0
 16 21  1  0  0  0
 16 31  1  0  0  0
 17 18  1  0  0  0
 17 99  1  0  0  0
 18 19  2  0  0  0
 18100  1  0  0  0
 19 20  1  0  0  0
 19 24  1  0  0  0
 20 21  2  0  0  0
 20101  1  0  0  0
 21 23  1  0  0  0
 22 28  1  0  0  0
 22 32  2  0  0  0
 26 27  1  0  0  0
 28102  1  0  0  0
 28103  1  0  0  0
 29104  1  0  0  0
 29105  1  0  0  0
 33 34  1  0  0  0
 33 66  1  0  0  0
 33 70  2  0  0  0
 34 36  1  0  0  0
 34 59  1  0  0  0
 34106  1  0  0  0
 35 44  2  0  0  0
 35 45  1  0  0  0
 35 68  1  0  0  0
 36 56  1  0  0  0
 36107  1  0  0  0
 37 39  1  0  0  0
 37 47  1  0  0  0
 37 66  1  0  0  0
 37108  1  0  0  0
 38 43  2  0  0  0
 38 46  1  0  0  0
 38 47  1  0  0  0
 39 64  1  0  0  0
 39 67  2  0  0  0
 40 52  1  0  0  0
 40 53  2  0  0  0
 40 58  1  0  0  0
 41109  1  0  0  0
 41110  1  0  0  0
 41111  1  0  0  0
 41 48  1  0  0  0
 42 43  1  0  0  0
 42 66  1  0  0  0
 42112  1  0  0  0
 42113  1  0  0  0
 43 44  1  0  0  0
 44114  1  0  0  0
 45 46  2  0  0  0
 45115  1  0  0  0
 46116  1  0  0  0
 47117  1  0  0  0
 47118  1  0  0  0
 48 56  1  0  0  0
 48 65  1  0  0  0
 48119  1  0  0  0
 49 50  1  0  0  0
 49 53  1  0  0  0
 49 64  1  0  0  0
 49120  1  0  0  0
 50 51  1  0  0  0
 50121  1  0  0  0
 50122  1  0  0  0
 51 52  1  0  0  0
 51123  1  0  0  0
 51124  1  0  0  0
 52125  1  0  0  0
 52126  1  0  0  0
 53 54  1  0  0  0
 54 55  2  0  0  0
 54127  1  0  0  0
 55 57  1  0  0  0
 55128  1  0  0  0
 56 69  2  0  0  0
 57 58  2  0  0  0
 57129  1  0  0  0
 58130  1  0  0  0
 59 60  1  0  0  0
 59 61  1  0  0  0
 59 62  1  0  0  0
 60131  1  0  0  0
 60132  1  0  0  0
 60133  1  0  0  0
 61134  1  0  0  0
 61135  1  0  0  0
 61136  1  0  0  0
 62137  1  0  0  0
 62138  1  0  0  0
 62139  1  0  0  0
 63 65  1  0  0  0
 63140  1  0  0  0
 63141  1  0  0  0
 63142  1  0  0  0
 64143  1  0  0  0
 65144  1  0  0  0
 68 81  1  0  0  0
 71 72  1  0  0  0
 71 73  2  0  0  0
 71145  1  0  0  0
 72 74  2  0  0  0
 72146  1  0  0  0
 73 75  1  0  0  0
 73 85  1  0  0  0
 74 83  1  0  0  0
 74 85  1  0  0  0
 75 82  1  0  0  0
 75 84  2  0  0  0
 76 77  1  0  0  0
 76 79  1  0  0  0
 76147  1  0  0  0
 76148  1  0  0  0
 77 82  1  0  0  0
 77149  1  0  0  0
 77150  1  0  0  0
 78 79  1  0  0  0
 78 82  1  0  0  0
 78151  1  0  0  0
 78152  1  0  0  0
 79 80  1  0  0  0
 79 81  1  0  0  0
 80153  1  0  0  0
 80154  1  0  0  0
 80155  1  0  0  0
 81156  1  0  0  0
 81157  1  0  0  0
 83158  1  0  0  0
 84159  1  0  0  0
 84160  1  0  0  0
M  CHG  1  84   1
M  ISO  4   1 100  68 101  81 101  83 100
M  END
> <chiral flag>
0

> <version>
0

> <s_m_source_file>
/data/baiqing/PycharmProjects/Reinvent-master-3.2/result/LINK_invent/BTK/process_docking_weight1_custom_product_contain_oxygen_bond_distance_aromatic_linkinvent_7_9_3/rearranged_h_0147.sdf

> <i_m_source_file_index>
37

> <r_mmod_Potential_Energy-OPLS-2005>
-45.8264808654785

> <r_mmod_Stretch_Energy-OPLS-2005>
47.3418731689453

> <r_mmod_Bend_Energy-OPLS-2005>
151.567611694336

> <r_mmod_Torsional_Energy-OPLS-2005>
308.912933349609

> <r_mmod_Improper_Torsional_Energy-OPLS-2005>
3.15526485443115

> <r_mmod_Van_der_Waal_Energy-OPLS-2005>
126.675834655762

> <r_mmod_Electrostatic_Energy-OPLS-2005>
-256.290252685547

> <r_mmod_Solvation_Energy-OPLS-2005>
-444.079681396484

> <b_mmod_Minimization_Converged-OPLS-2005>
0

> <r_mmod_RMS_Derivative-OPLS-2005>
3.58441424369812

$$$$
37
                    3D
 Structure written by MMmdl.
160168  0  0  1  0            999 V2000
  -30.7486  -14.4551   20.4784 C   0  0  0  0  0  0
  -30.4037  -12.2661   19.4356 C   0  0  0  0  0  0
  -29.4897  -12.4612   18.2106 C   0  0  0  0  0  0
  -28.0089  -12.3517   18.6229 C   0  0  0  0  0  0
  -27.6575  -13.2172   19.8614 C   0  0  2  0  0  0
  -28.7029  -13.0635   20.9870 C   0  0  0  0  0  0
  -25.2604  -13.8180   20.5694 C   0  0  0  0  0  0
  -24.1850  -13.0450   20.9148 C   0  0  0  0  0  0
  -24.6426  -11.6914   20.8749 C   0  0  0  0  0  0
  -23.9086  -10.4283   21.0408 C   0  0  0  0  0  0
  -24.3632   -9.4196   21.9186 C   0  0  0  0  0  0
  -23.6288   -8.2243   22.0766 C   0  0  0  0  0  0
  -22.4275   -8.0287   21.3549 C   0  0  0  0  0  0
  -21.9924   -9.0264   20.4651 C   0  0  0  0  0  0
  -22.7266  -10.2131   20.3054 C   0  0  0  0  0  0
  -21.6863   -6.0733   22.5266 C   0  0  0  0  0  0
  -21.4044   -6.5646   23.8199 C   0  0  0  0  0  0
  -21.3640   -5.6795   24.9164 C   0  0  0  0  0  0
  -21.6034   -4.3060   24.7210 C   0  0  0  0  0  0
  -21.8833   -3.8159   23.4336 C   0  0  0  0  0  0
  -21.9198   -4.6963   22.3395 C   0  0  0  0  0  0
  -22.7868  -13.5236   21.1790 C   0  0  0  0  0  0
  -22.1662   -4.2155   21.0962 F   0  0  0  0  0  0
  -21.5600   -3.4539   25.7720 F   0  0  0  0  0  0
  -30.0385  -13.2985   20.4167 N   0  0  0  0  0  0
  -26.3044  -12.9375   20.3353 N   0  0  0  0  0  0
  -25.9360  -11.6528   20.5814 N   0  0  0  0  0  0
  -22.0548  -12.8189   22.0349 N   0  0  0  0  0  0
  -25.4335  -15.1894   20.4109 N   0  0  0  0  0  0
  -31.9333  -14.4932   20.1366 O   0  0  0  0  0  0
  -21.6655   -6.8889   21.4233 O   0  0  0  0  0  0
  -22.3518  -14.5532   20.6646 O   0  0  0  0  0  0
  -24.6116  -31.8675   23.2128 C   0  0  0  0  0  0
  -25.9016  -32.4780   23.8436 C   0  0  1  0  0  0
  -27.2241  -27.4391   20.0858 C   0  0  0  0  0  0
  -25.5887  -33.8584   24.2386 N   0  0  0  0  0  0
  -23.4008  -30.4997   21.5511 C   0  0  2  0  0  0
  -24.8422  -28.9681   20.1129 C   0  0  0  0  0  0
  -22.7393  -29.4724   22.4944 C   0  0  0  0  0  0
  -18.0276  -28.1315   22.8521 C   0  0  0  0  0  0
  -24.1495  -36.7353   23.2665 C   0  0  0  0  0  0
  -25.9346  -30.8351   21.3692 C   0  0  0  0  0  0
  -26.0064  -29.4751   20.7045 C   0  0  0  0  0  0
  -27.1989  -28.7156   20.6902 C   0  0  0  0  0  0
  -26.0426  -26.9545   19.4782 C   0  0  0  0  0  0
  -24.8557  -27.7056   19.5021 C   0  0  0  0  0  0
  -23.6039  -29.8338   20.1660 C   0  0  0  0  0  0
  -25.4098  -36.3120   24.0377 C   0  0  1  0  0  0
  -20.5881  -28.3683   23.1234 C   0  0  2  0  0  0
  -20.6764  -26.9385   22.5391 C   0  0  0  0  0  0
  -19.5726  -26.6337   21.5229 C   0  0  0  0  0  0
  -18.1909  -26.7872   22.1624 C   0  0  0  0  0  0
  -19.1531  -28.8801   23.2882 C   0  0  0  0  0  0
  -18.9465  -30.1404   23.8870 C   0  0  0  0  0  0
  -17.6466  -30.6526   24.0559 C   0  0  0  0  0  0
  -25.9026  -34.9448   23.5181 C   0  0  0  0  0  0
  -16.5357  -29.9032   23.6314 C   0  0  0  0  0  0
  -16.7266  -28.6446   23.0367 C   0  0  0  0  0  0
  -26.4475  -31.6517   25.0736 C   0  0  0  0  0  0
  -25.3812  -31.3570   26.1542 C   0  0  0  0  0  0
  -27.0402  -30.2958   24.6163 C   0  0  0  0  0  0
  -27.6021  -32.4320   25.7440 C   0  0  0  0  0  0
  -27.5576  -37.1819   24.8445 C   0  0  0  0  0  0
  -21.4130  -29.3061   22.3634 N   0  0  0  0  0  0
  -26.4290  -37.3804   23.9388 N   0  0  0  0  0  0
  -24.6663  -31.0841   22.0992 N   0  0  0  0  0  0
  -23.4163  -28.8249   23.2981 O   0  0  0  0  0  0
  -28.3876  -26.6974   20.1162 O   0  0  0  0  0  0
  -26.5580  -34.8878   22.4729 O   0  0  0  0  0  0
  -23.5308  -32.1395   23.7540 O   0  0  0  0  0  0
  -29.4563  -18.5674   20.8956 C   0  0  0  0  0  0
  -29.3596  -19.9688   20.9332 C   0  0  0  0  0  0
  -30.0764  -18.6906   18.5568 C   0  0  0  0  0  0
  -29.8362  -17.9104   19.7131 C   0  0  0  0  0  0
  -30.0200  -20.1121   18.5730 C   0  0  0  0  0  0
  -29.6357  -20.7640   19.7908 C   0  0  0  0  0  0
  -30.1129  -16.4488   19.6963 C   0  0  0  0  0  0
  -30.3706  -20.8823   17.3159 C   0  0  0  0  0  0
  -29.1780  -23.0432   20.8162 C   0  0  0  0  0  0
  -31.1988  -20.1979   16.2257 C   0  0  0  0  0  0
  -30.7376  -24.8225   19.7860 C   0  0  0  0  0  0
  -28.2318  -25.2726   20.0500 C   0  0  0  0  0  0
  -29.4661  -24.5449   20.6134 C   0  0  1  0  0  0
  -30.0179  -15.6220   20.6790 N   0  0  0  0  0  0
  -29.6021  -22.1973   19.8558 N   0  0  0  0  0  0
  -30.0561  -22.0621   17.1213 O   0  0  0  0  0  0
  -28.5557  -22.6974   21.8259 O   0  0  0  0  0  0
  -31.4530  -12.3140   19.1370 H   0  0  0  0  0  0
  -30.2615  -11.2748   19.8685 H   0  0  0  0  0  0
  -29.7190  -11.7131   17.4503 H   0  0  0  0  0  0
  -29.6786  -13.4324   17.7522 H   0  0  0  0  0  0
  -27.8040  -11.3009   18.8324 H   0  0  0  0  0  0
  -27.3656  -12.6172   17.7843 H   0  0  0  0  0  0
  -27.6919  -14.2561   19.5362 H   0  0  0  0  0  0
  -28.6586  -12.0682   21.4322 H   0  0  0  0  0  0
  -28.4956  -13.7660   21.7945 H   0  0  0  0  0  0
  -25.2777   -9.5657   22.4761 H   0  0  0  0  0  0
  -23.9987   -7.4644   22.7488 H   0  0  0  0  0  0
  -21.0859   -8.8794   19.8948 H   0  0  0  0  0  0
  -22.3740  -10.9676   19.6158 H   0  0  0  0  0  0
  -21.2092   -7.6158   23.9713 H   0  0  0  0  0  0
  -21.1424   -6.0519   25.9054 H   0  0  0  0  0  0
  -22.0636   -2.7614   23.2833 H   0  0  0  0  0  0
  -22.4223  -11.9833   22.4658 H   0  0  0  0  0  0
  -21.1181  -13.1202   22.2667 H   0  0  0  0  0  0
  -24.6824  -15.8550   20.5506 H   0  0  0  0  0  0
  -26.3110  -15.6224   20.1517 H   0  0  0  0  0  0
  -26.7107  -32.5500   23.1231 H   0  0  0  0  0  0
  -25.0042  -33.9752   25.0546 H   0  0  0  0  0  0
  -22.6942  -31.3222   21.4195 H   0  0  0  0  0  0
  -23.3759  -35.9698   23.3322 H   0  0  0  0  0  0
  -24.3613  -36.8953   22.2085 H   0  0  0  0  0  0
  -23.7256  -37.6576   23.6659 H   0  0  0  0  0  0
  -26.0758  -31.6088   20.6134 H   0  0  0  0  0  0
  -26.8098  -30.8622   22.0077 H   0  0  0  0  0  0
  -28.0990  -29.0916   21.1618 H   0  0  0  0  0  0
  -26.0171  -25.9952   18.9823 H   0  0  0  0  0  0
  -23.9558  -27.3067   19.0533 H   0  0  0  0  0  0
  -23.6956  -30.6076   19.4030 H   0  0  0  0  0  0
  -22.7236  -29.2523   19.8792 H   0  0  0  0  0  0
  -25.1266  -36.2046   25.0885 H   0  0  0  0  0  0
  -21.0048  -28.3331   24.1330 H   0  0  0  0  0  0
  -20.5682  -26.2337   23.3621 H   0  0  0  0  0  0
  -21.6615  -26.7374   22.1160 H   0  0  0  0  0  0
  -19.6892  -25.6279   21.1185 H   0  0  0  0  0  0
  -19.6596  -27.3181   20.6787 H   0  0  0  0  0  0
  -17.4178  -26.6671   21.4002 H   0  0  0  0  0  0
  -18.0238  -25.9976   22.8957 H   0  0  0  0  0  0
  -19.7960  -30.7202   24.2237 H   0  0  0  0  0  0
  -17.5041  -31.6220   24.5134 H   0  0  0  0  0  0
  -15.5362  -30.2921   23.7654 H   0  0  0  0  0  0
  -15.8689  -28.0753   22.7084 H   0  0  0  0  0  0
  -24.5980  -30.6871   25.7958 H   0  0  0  0  0  0
  -24.9027  -32.2696   26.5078 H   0  0  0  0  0  0
  -25.8255  -30.8708   27.0252 H   0  0  0  0  0  0
  -26.2974  -29.6564   24.1373 H   0  0  0  0  0  0
  -27.4348  -29.7270   25.4622 H   0  0  0  0  0  0
  -27.8707  -30.4294   23.9234 H   0  0  0  0  0  0
  -27.2579  -33.3628   26.1962 H   0  0  0  0  0  0
  -28.3779  -32.6897   25.0207 H   0  0  0  0  0  0
  -28.0739  -31.8550   26.5409 H   0  0  0  0  0  0
  -28.2605  -38.0132   24.7539 H   0  0  0  0  0  0
  -28.1063  -36.2642   24.6236 H   0  0  0  0  0  0
  -27.2270  -37.1443   25.8849 H   0  0  0  0  0  0
  -20.9280  -29.8838   21.6899 H   0  0  0  0  0  0
  -26.0207  -38.2897   24.1372 H   0  0  0  0  0  0
  -29.2778  -17.9981   21.7984 H   0  0  0  0  0  0
  -29.1050  -20.4060   21.8831 H   0  0  0  0  0  0
  -30.3554  -18.1664   17.6560 H   0  0  0  0  0  0
  -30.5059  -16.1117   18.7290 H   0  0  0  0  0  0
  -32.0119  -20.8557   15.9132 H   0  0  0  0  0  0
  -30.5757  -19.9856   15.3568 H   0  0  0  0  0  0
  -31.6580  -19.2702   16.5609 H   0  0  0  0  0  0
  -31.5652  -24.1831   20.0927 H   0  0  0  0  0  0
  -31.0613  -25.8545   19.9319 H   0  0  0  0  0  0
  -30.5668  -24.6726   18.7195 H   0  0  0  0  0  0
  -27.3596  -24.9604   20.6277 H   0  0  0  0  0  0
  -28.0687  -24.9600   19.0164 H   0  0  0  0  0  0
  -29.6487  -24.9380   21.6126 H   0  0  0  0  0  0
  -29.9491  -22.6602   19.0239 H   0  0  0  0  0  0
  1 25  1  0  0  0
  1 30  2  0  0  0
  1 84  1  0  0  0
  2  3  1  0  0  0
  2 25  1  0  0  0
  2 88  1  0  0  0
  2 89  1  0  0  0
  3  4  1  0  0  0
  3 90  1  0  0  0
  3 91  1  0  0  0
  4  5  1  0  0  0
  4 92  1  0  0  0
  4 93  1  0  0  0
  5  6  1  0  0  0
  5 26  1  0  0  0
  5 94  1  0  0  0
  6 25  1  0  0  0
  6 95  1  0  0  0
  6 96  1  0  0  0
  7  8  2  0  0  0
  7 26  1  0  0  0
  7 29  1  0  0  0
  8  9  1  0  0  0
  8 22  1  0  0  0
  9 10  1  0  0  0
  9 27  2  0  0  0
 10 11  2  0  0  0
 10 15  1  0  0  0
 11 12  1  0  0  0
 11 97  1  0  0  0
 12 13  2  0  0  0
 12 98  1  0  0  0
 13 14  1  0  0  0
 13 31  1  0  0  0
 14 15  2  0  0  0
 14 99  1  0  0  0
 15100  1  0  0  0
 16 17  2  0  0  0
 16 21  1  0  0  0
 16 31  1  0  0  0
 17 18  1  0  0  0
 17101  1  0  0  0
 18 19  2  0  0  0
 18102  1  0  0  0
 19 20  1  0  0  0
 19 24  1  0  0  0
 20 21  2  0  0  0
 20103  1  0  0  0
 21 23  1  0  0  0
 22 28  1  0  0  0
 22 32  2  0  0  0
 26 27  1  0  0  0
 28104  1  0  0  0
 28105  1  0  0  0
 29106  1  0  0  0
 29107  1  0  0  0
 33 34  1  0  0  0
 33 66  1  0  0  0
 33 70  2  0  0  0
 34 36  1  0  0  0
 34 59  1  0  0  0
 34108  1  0  0  0
 35 44  2  0  0  0
 35 45  1  0  0  0
 35 68  1  0  0  0
 36 56  1  0  0  0
 36109  1  0  0  0
 37 39  1  0  0  0
 37 47  1  0  0  0
 37 66  1  0  0  0
 37110  1  0  0  0
 38 43  2  0  0  0
 38 46  1  0  0  0
 38 47  1  0  0  0
 39 64  1  0  0  0
 39 67  2  0  0  0
 40 52  1  0  0  0
 40 53  2  0  0  0
 40 58  1  0  0  0
 41111  1  0  0  0
 41112  1  0  0  0
 41113  1  0  0  0
 41 48  1  0  0  0
 42 43  1  0  0  0
 42 66  1  0  0  0
 42114  1  0  0  0
 42115  1  0  0  0
 43 44  1  0  0  0
 44116  1  0  0  0
 45 46  2  0  0  0
 45117  1  0  0  0
 46118  1  0  0  0
 47119  1  0  0  0
 47120  1  0  0  0
 48 56  1  0  0  0
 48 65  1  0  0  0
 48121  1  0  0  0
 49 50  1  0  0  0
 49 53  1  0  0  0
 49 64  1  0  0  0
 49122  1  0  0  0
 50 51  1  0  0  0
 50123  1  0  0  0
 50124  1  0  0  0
 51 52  1  0  0  0
 51125  1  0  0  0
 51126  1  0  0  0
 52127  1  0  0  0
 52128  1  0  0  0
 53 54  1  0  0  0
 54 55  2  0  0  0
 54129  1  0  0  0
 55 57  1  0  0  0
 55130  1  0  0  0
 56 69  2  0  0  0
 57 58  2  0  0  0
 57131  1  0  0  0
 58132  1  0  0  0
 59 60  1  0  0  0
 59 61  1  0  0  0
 59 62  1  0  0  0
 60133  1  0  0  0
 60134  1  0  0  0
 60135  1  0  0  0
 61136  1  0  0  0
 61137  1  0  0  0
 61138  1  0  0  0
 62139  1  0  0  0
 62140  1  0  0  0
 62141  1  0  0  0
 63 65  1  0  0  0
 63142  1  0  0  0
 63143  1  0  0  0
 63144  1  0  0  0
 64145  1  0  0  0
 65146  1  0  0  0
 68 82  1  0  0  0
 71 72  2  0  0  0
 71 74  1  0  0  0
 71147  1  0  0  0
 72 76  1  0  0  0
 72148  1  0  0  0
 73 74  2  0  0  0
 73 75  1  0  0  0
 73149  1  0  0  0
 74 77  1  0  0  0
 75 76  2  0  0  0
 75 78  1  0  0  0
 76 85  1  0  0  0
 77 84  2  0  0  0
 77150  1  0  0  0
 78 80  1  0  0  0
 78 86  2  0  0  0
 79 83  1  0  0  0
 79 85  1  0  0  0
 79 87  2  0  0  0
 80151  1  0  0  0
 80152  1  0  0  0
 80153  1  0  0  0
 81154  1  0  0  0
 81155  1  0  0  0
 81156  1  0  0  0
 81 83  1  0  0  0
 82 83  1  0  0  0
 82157  1  0  0  0
 82158  1  0  0  0
 83159  1  0  0  0
 85160  1  0  0  0
M  ISO  4   1 100  68 101  82 101  84 100
M  END
> <chiral flag>
0

> <version>
0

> <s_m_source_file>
/data/baiqing/PycharmProjects/Reinvent-master-3.2/result/LINK_invent/BTK/process_docking_weight1_custom_product_contain_oxygen_bond_distance_aromatic_linkinvent_7_9_3/rearranged_h_0147.sdf

> <i_m_source_file_index>
38

> <r_mmod_Potential_Energy-OPLS-2005>
17.2806053161621

> <r_mmod_Stretch_Energy-OPLS-2005>
43.2288360595703

> <r_mmod_Bend_Energy-OPLS-2005>
105.361656188965

> <r_mmod_Torsional_Energy-OPLS-2005>
237.253372192383

> <r_mmod_Improper_Torsional_Energy-OPLS-2005>
7.16032600402832

> <r_mmod_Van_der_Waal_Energy-OPLS-2005>
188.284118652344

> <r_mmod_Electrostatic_Energy-OPLS-2005>
-377.230102539062

> <r_mmod_Solvation_Energy-OPLS-2005>
-208.987640380859

> <b_mmod_Minimization_Converged-OPLS-2005>
0

> <r_mmod_RMS_Derivative-OPLS-2005>
5.34238433837891

$$$$
38
                    3D
 Structure written by MMmdl.
148156  0  0  1  0            999 V2000
  -30.5694  -14.7620   20.4513 C   0  0  0  0  0  0
  -30.4346  -12.4693   19.4618 C   0  0  0  0  0  0
  -29.5096  -12.5145   18.2236 C   0  0  0  0  0  0
  -28.0355  -12.3386   18.6357 C   0  0  0  0  0  0
  -27.6389  -13.2263   19.8429 C   0  0  2  0  0  0
  -28.6827  -13.1545   20.9770 C   0  0  0  0  0  0
  -25.2508  -13.8167   20.5608 C   0  0  0  0  0  0
  -24.1814  -13.0446   20.9213 C   0  0  0  0  0  0
  -24.6390  -11.6913   20.8755 C   0  0  0  0  0  0
  -23.9049  -10.4293   21.0393 C   0  0  0  0  0  0
  -24.3601   -9.4212   21.9154 C   0  0  0  0  0  0
  -23.6292   -8.2250   22.0737 C   0  0  0  0  0  0
  -22.4262   -8.0272   21.3557 C   0  0  0  0  0  0
  -21.9881   -9.0241   20.4671 C   0  0  0  0  0  0
  -22.7210  -10.2121   20.3063 C   0  0  0  0  0  0
  -21.6862   -6.0726   22.5285 C   0  0  0  0  0  0
  -21.4014   -6.5614   23.8208 C   0  0  0  0  0  0
  -21.3677   -5.6781   24.9171 C   0  0  0  0  0  0
  -21.6053   -4.3048   24.7225 C   0  0  0  0  0  0
  -21.8822   -3.8139   23.4351 C   0  0  0  0  0  0
  -21.9185   -4.6962   22.3409 C   0  0  0  0  0  0
  -22.7845  -13.5250   21.1872 C   0  0  0  0  0  0
  -22.1654   -4.2145   21.0997 F   0  0  0  0  0  0
  -21.5658   -3.4529   25.7737 F   0  0  0  0  0  0
  -29.9794  -13.5167   20.4008 N   0  0  0  0  0  0
  -26.2920  -12.9367   20.3192 N   0  0  0  0  0  0
  -25.9308  -11.6520   20.5704 N   0  0  0  0  0  0
  -22.0483  -12.8259   22.0461 N   0  0  0  0  0  0
  -25.4134  -15.1874   20.3872 N   0  0  0  0  0  0
  -31.7624  -14.8776   20.1437 O   0  0  0  0  0  0
  -21.6658   -6.8857   21.4242 O   0  0  0  0  0  0
  -22.3528  -14.5545   20.6704 O   0  0  0  0  0  0
  -24.6288  -31.8571   23.2010 C   0  0  0  0  0  0
  -25.9112  -32.4766   23.8354 C   0  0  1  0  0  0
  -27.2053  -27.2470   20.1305 C   0  0  0  0  0  0
  -25.5925  -33.8573   24.2276 N   0  0  0  0  0  0
  -23.4247  -30.4813   21.5452 C   0  0  2  0  0  0
  -24.8669  -28.9280   20.1047 C   0  0  0  0  0  0
  -22.7496  -29.4606   22.4933 C   0  0  0  0  0  0
  -18.0297  -28.1375   22.8495 C   0  0  0  0  0  0
  -24.1499  -36.7300   23.2640 C   0  0  0  0  0  0
  -25.9693  -30.7616   21.3826 C   0  0  0  0  0  0
  -26.0353  -29.3818   20.7276 C   0  0  0  0  0  0
  -27.1984  -28.5491   20.7379 C   0  0  0  0  0  0
  -26.0160  -26.8708   19.4642 C   0  0  0  0  0  0
  -24.8637  -27.6817   19.4614 C   0  0  0  0  0  0
  -23.6404  -29.8195   20.1593 C   0  0  0  0  0  0
  -25.4120  -36.3073   24.0337 C   0  0  1  0  0  0
  -20.5895  -28.3682   23.1278 C   0  0  2  0  0  0
  -20.6778  -26.9399   22.5423 C   0  0  0  0  0  0
  -19.5750  -26.6371   21.5228 C   0  0  0  0  0  0
  -18.1934  -26.7923   22.1642 C   0  0  0  0  0  0
  -19.1543  -28.8846   23.2891 C   0  0  0  0  0  0
  -18.9471  -30.1462   23.8885 C   0  0  0  0  0  0
  -17.6461  -30.6590   24.0550 C   0  0  0  0  0  0
  -25.9058  -34.9443   23.5111 C   0  0  0  0  0  0
  -16.5354  -29.9074   23.6322 C   0  0  0  0  0  0
  -16.7280  -28.6487   23.0350 C   0  0  0  0  0  0
  -26.4501  -31.6576   25.0721 C   0  0  0  0  0  0
  -25.3789  -31.3751   26.1519 C   0  0  0  0  0  0
  -27.0270  -30.2976   24.6168 C   0  0  0  0  0  0
  -27.6151  -32.4261   25.7400 C   0  0  0  0  0  0
  -27.5601  -37.1774   24.8448 C   0  0  0  0  0  0
  -21.4200  -29.3032   22.3650 N   0  0  0  0  0  0
  -26.4291  -37.3783   23.9428 N   0  0  0  0  0  0
  -24.6946  -31.0515   22.0995 N   0  0  0  0  0  0
  -23.4197  -28.8156   23.3043 O   0  0  0  0  0  0
  -28.3137  -26.3703   20.2305 O   0  0  0  0  0  0
  -26.5638  -34.8913   22.4691 O   0  0  0  0  0  0
  -23.5435  -32.1421   23.7284 O   0  0  0  0  0  0
  -28.9540  -18.3939   20.7833 C   0  0  0  0  0  0
  -31.1362  -17.9058   20.1416 C   0  0  0  0  0  0
  -29.9489  -17.3353   20.5307 C   0  0  0  0  0  0
  -29.3791  -19.7256   20.5902 C   0  0  0  0  0  0
  -28.4736  -23.7238   20.6844 C   0  0  0  0  0  0
  -29.1936  -22.3508   20.2413 C   0  0  0  0  0  0
  -28.3341  -24.9635   19.6807 C   0  0  0  0  0  0
  -29.7354  -15.8635   20.6538 N   0  0  0  0  0  0
  -28.7089  -21.0083   20.7679 N   0  0  0  0  0  0
  -28.0184  -23.8095   21.8295 O   0  0  0  0  0  0
  -31.0450  -19.6646   20.0622 S   0  0  0  0  0  0
  -31.4722  -12.6109   19.1571 H   0  0  0  0  0  0
  -30.3942  -11.4865   19.9354 H   0  0  0  0  0  0
  -29.7981  -11.7418   17.5105 H   0  0  0  0  0  0
  -29.6390  -13.4632   17.7038 H   0  0  0  0  0  0
  -27.8873  -11.2902   18.8827 H   0  0  0  0  0  0
  -27.3800  -12.5426   17.7892 H   0  0  0  0  0  0
  -27.6331  -14.2494   19.4706 H   0  0  0  0  0  0
  -28.7243  -12.1538   21.4135 H   0  0  0  0  0  0
  -28.4116  -13.8267   21.7913 H   0  0  0  0  0  0
  -25.2729   -9.5716   22.4726 H   0  0  0  0  0  0
  -24.0034   -7.4638   22.7421 H   0  0  0  0  0  0
  -21.0819   -8.8739   19.8977 H   0  0  0  0  0  0
  -22.3617  -10.9659   19.6199 H   0  0  0  0  0  0
  -21.1983   -7.6110   23.9717 H   0  0  0  0  0  0
  -21.1514   -6.0497   25.9074 H   0  0  0  0  0  0
  -22.0580   -2.7606   23.2846 H   0  0  0  0  0  0
  -22.4071  -11.9951   22.4925 H   0  0  0  0  0  0
  -21.1129  -13.1333   22.2665 H   0  0  0  0  0  0
  -24.6161  -15.8112   20.4398 H   0  0  0  0  0  0
  -26.2033  -15.6051   19.9154 H   0  0  0  0  0  0
  -26.7166  -32.5405   23.1078 H   0  0  0  0  0  0
  -25.0028  -33.9716   25.0378 H   0  0  0  0  0  0
  -22.7216  -31.3052   21.4054 H   0  0  0  0  0  0
  -23.3790  -35.9604   23.3207 H   0  0  0  0  0  0
  -24.3616  -36.9025   22.2083 H   0  0  0  0  0  0
  -23.7193  -37.6447   23.6727 H   0  0  0  0  0  0
  -26.1025  -31.5189   20.6088 H   0  0  0  0  0  0
  -26.8498  -30.8166   22.0107 H   0  0  0  0  0  0
  -28.0833  -28.8828   21.2608 H   0  0  0  0  0  0
  -25.9207  -25.9293   18.9513 H   0  0  0  0  0  0
  -23.9708  -27.3320   18.9595 H   0  0  0  0  0  0
  -23.7652  -30.5998   19.4088 H   0  0  0  0  0  0
  -22.7552  -29.2600   19.8508 H   0  0  0  0  0  0
  -25.1287  -36.1927   25.0825 H   0  0  0  0  0  0
  -21.0005  -28.3270   24.1396 H   0  0  0  0  0  0
  -20.5683  -26.2304   23.3639 H   0  0  0  0  0  0
  -21.6650  -26.7436   22.1205 H   0  0  0  0  0  0
  -19.6911  -25.6276   21.1265 H   0  0  0  0  0  0
  -19.6676  -27.3186   20.6758 H   0  0  0  0  0  0
  -17.4212  -26.6683   21.4042 H   0  0  0  0  0  0
  -18.0323  -26.0060   22.9033 H   0  0  0  0  0  0
  -19.7942  -30.7290   24.2239 H   0  0  0  0  0  0
  -17.5008  -31.6269   24.5156 H   0  0  0  0  0  0
  -15.5345  -30.2971   23.7641 H   0  0  0  0  0  0
  -15.8691  -28.0800   22.7062 H   0  0  0  0  0  0
  -24.5641  -30.7542   25.7777 H   0  0  0  0  0  0
  -24.9416  -32.2965   26.5373 H   0  0  0  0  0  0
  -25.8063  -30.8442   27.0029 H   0  0  0  0  0  0
  -26.2771  -29.6736   24.1292 H   0  0  0  0  0  0
  -27.4037  -29.7236   25.4633 H   0  0  0  0  0  0
  -27.8642  -30.4214   23.9310 H   0  0  0  0  0  0
  -27.2862  -33.3564   26.2040 H   0  0  0  0  0  0
  -28.3881  -32.6811   25.0135 H   0  0  0  0  0  0
  -28.0910  -31.8335   26.5225 H   0  0  0  0  0  0
  -28.2578  -38.0110   24.7581 H   0  0  0  0  0  0
  -28.1142  -36.2659   24.6153 H   0  0  0  0  0  0
  -27.2351  -37.1272   25.8852 H   0  0  0  0  0  0
  -20.9380  -29.8722   21.6823 H   0  0  0  0  0  0
  -26.0174  -38.2850   24.1485 H   0  0  0  0  0  0
  -27.9478  -18.1342   21.0997 H   0  0  0  0  0  0
  -32.0727  -17.4159   19.8887 H   0  0  0  0  0  0
  -30.2325  -22.4577   20.5587 H   0  0  0  0  0  0
  -29.2147  -22.3142   19.1525 H   0  0  0  0  0  0
  -27.4794  -24.7487   19.0487 H   0  0  0  0  0  0
  -29.1834  -24.9135   19.0001 H   0  0  0  0  0  0
  -28.7826  -15.5938   20.8496 H   0  0  0  0  0  0
  -27.8133  -21.0573   21.2576 H   0  0  0  0  0  0
  1 25  1  0  0  0
  1 30  2  0  0  0
  1 78  1  0  0  0
  2  3  1  0  0  0
  2 25  1  0  0  0
  2 82  1  0  0  0
  2 83  1  0  0  0
  3  4  1  0  0  0
  3 84  1  0  0  0
  3 85  1  0  0  0
  4  5  1  0  0  0
  4 86  1  0  0  0
  4 87  1  0  0  0
  5  6  1  0  0  0
  5 26  1  0  0  0
  5 88  1  0  0  0
  6 25  1  0  0  0
  6 89  1  0  0  0
  6 90  1  0  0  0
  7  8  2  0  0  0
  7 26  1  0  0  0
  7 29  1  0  0  0
  8  9  1  0  0  0
  8 22  1  0  0  0
  9 10  1  0  0  0
  9 27  2  0  0  0
 10 11  2  0  0  0
 10 15  1  0  0  0
 11 12  1  0  0  0
 11 91  1  0  0  0
 12 13  2  0  0  0
 12 92  1  0  0  0
 13 14  1  0  0  0
 13 31  1  0  0  0
 14 15  2  0  0  0
 14 93  1  0  0  0
 15 94  1  0  0  0
 16 17  2  0  0  0
 16 21  1  0  0  0
 16 31  1  0  0  0
 17 18  1  0  0  0
 17 95  1  0  0  0
 18 19  2  0  0  0
 18 96  1  0  0  0
 19 20  1  0  0  0
 19 24  1  0  0  0
 20 21  2  0  0  0
 20 97  1  0  0  0
 21 23  1  0  0  0
 22 28  1  0  0  0
 22 32  2  0  0  0
 26 27  1  0  0  0
 28 98  1  0  0  0
 28 99  1  0  0  0
 29100  1  0  0  0
 29101  1  0  0  0
 33 34  1  0  0  0
 33 66  1  0  0  0
 33 70  2  0  0  0
 34 36  1  0  0  0
 34 59  1  0  0  0
 34102  1  0  0  0
 35 44  2  0  0  0
 35 45  1  0  0  0
 35 68  1  0  0  0
 36 56  1  0  0  0
 36103  1  0  0  0
 37 39  1  0  0  0
 37 47  1  0  0  0
 37 66  1  0  0  0
 37104  1  0  0  0
 38 43  2  0  0  0
 38 46  1  0  0  0
 38 47  1  0  0  0
 39 64  1  0  0  0
 39 67  2  0  0  0
 40 52  1  0  0  0
 40 53  2  0  0  0
 40 58  1  0  0  0
 41105  1  0  0  0
 41106  1  0  0  0
 41107  1  0  0  0
 41 48  1  0  0  0
 42 43  1  0  0  0
 42 66  1  0  0  0
 42108  1  0  0  0
 42109  1  0  0  0
 43 44  1  0  0  0
 44110  1  0  0  0
 45 46  2  0  0  0
 45111  1  0  0  0
 46112  1  0  0  0
 47113  1  0  0  0
 47114  1  0  0  0
 48 56  1  0  0  0
 48 65  1  0  0  0
 48115  1  0  0  0
 49 50  1  0  0  0
 49 53  1  0  0  0
 49 64  1  0  0  0
 49116  1  0  0  0
 50 51  1  0  0  0
 50117  1  0  0  0
 50118  1  0  0  0
 51 52  1  0  0  0
 51119  1  0  0  0
 51120  1  0  0  0
 52121  1  0  0  0
 52122  1  0  0  0
 53 54  1  0  0  0
 54 55  2  0  0  0
 54123  1  0  0  0
 55 57  1  0  0  0
 55124  1  0  0  0
 56 69  2  0  0  0
 57 58  2  0  0  0
 57125  1  0  0  0
 58126  1  0  0  0
 59 60  1  0  0  0
 59 61  1  0  0  0
 59 62  1  0  0  0
 60127  1  0  0  0
 60128  1  0  0  0
 60129  1  0  0  0
 61130  1  0  0  0
 61131  1  0  0  0
 61132  1  0  0  0
 62133  1  0  0  0
 62134  1  0  0  0
 62135  1  0  0  0
 63 65  1  0  0  0
 63136  1  0  0  0
 63137  1  0  0  0
 63138  1  0  0  0
 64139  1  0  0  0
 65140  1  0  0  0
 68 77  1  0  0  0
 71 73  1  0  0  0
 71 74  2  0  0  0
 71141  1  0  0  0
 72 73  2  0  0  0
 72 81  1  0  0  0
 72142  1  0  0  0
 73 78  1  0  0  0
 74 79  1  0  0  0
 74 81  1  0  0  0
 75 76  1  0  0  0
 75 77  1  0  0  0
 75 80  2  0  0  0
 76 79  1  0  0  0
 76143  1  0  0  0
 76144  1  0  0  0
 77145  1  0  0  0
 77146  1  0  0  0
 78147  1  0  0  0
 79148  1  0  0  0
M  ISO  4   1 100  68 101  77 101  78 100
M  END
> <chiral flag>
0

> <version>
0

> <s_m_source_file>
/data/baiqing/PycharmProjects/Reinvent-master-3.2/result/LINK_invent/BTK/process_docking_weight1_custom_product_contain_oxygen_bond_distance_aromatic_linkinvent_7_9_3/rearranged_h_0147.sdf

> <i_m_source_file_index>
39

> <r_mmod_Potential_Energy-OPLS-2005>
188.439880371094

> <r_mmod_Stretch_Energy-OPLS-2005>
120.834838867188

> <r_mmod_Bend_Energy-OPLS-2005>
172.892349243164

> <r_mmod_Torsional_Energy-OPLS-2005>
204.595108032227

> <r_mmod_Improper_Torsional_Energy-OPLS-2005>
5.65753364562988

> <r_mmod_Van_der_Waal_Energy-OPLS-2005>
119.772811889648

> <r_mmod_Electrostatic_Energy-OPLS-2005>
-279.350524902344

> <r_mmod_Solvation_Energy-OPLS-2005>
-249.683731079102

> <b_mmod_Minimization_Converged-OPLS-2005>
0

> <r_mmod_RMS_Derivative-OPLS-2005>
6.3789176940918

$$$$
39
                    3D
 Structure written by MMmdl.
154163  0  0  1  0            999 V2000
  -30.5939  -14.7798   20.4365 C   0  0  0  0  0  0
  -30.4230  -12.4663   19.4898 C   0  0  0  0  0  0
  -29.5104  -12.5048   18.2433 C   0  0  0  0  0  0
  -28.0383  -12.3175   18.6574 C   0  0  0  0  0  0
  -27.6365  -13.2314   19.8473 C   0  0  2  0  0  0
  -28.6754  -13.1947   20.9899 C   0  0  0  0  0  0
  -25.2503  -13.8182   20.5675 C   0  0  0  0  0  0
  -24.1793  -13.0430   20.9188 C   0  0  0  0  0  0
  -24.6388  -11.6914   20.8727 C   0  0  0  0  0  0
  -23.9062  -10.4290   21.0402 C   0  0  0  0  0  0
  -24.3620   -9.4217   21.9191 C   0  0  0  0  0  0
  -23.6299   -8.2251   22.0770 C   0  0  0  0  0  0
  -22.4283   -8.0277   21.3559 C   0  0  0  0  0  0
  -21.9910   -9.0243   20.4653 C   0  0  0  0  0  0
  -22.7233  -10.2129   20.3056 C   0  0  0  0  0  0
  -21.6863   -6.0740   22.5285 C   0  0  0  0  0  0
  -21.4020   -6.5645   23.8211 C   0  0  0  0  0  0
  -21.3653   -5.6800   24.9173 C   0  0  0  0  0  0
  -21.6039   -4.3060   24.7224 C   0  0  0  0  0  0
  -21.8819   -3.8150   23.4350 C   0  0  0  0  0  0
  -21.9195   -4.6963   22.3406 C   0  0  0  0  0  0
  -22.7824  -13.5224   21.1852 C   0  0  0  0  0  0
  -22.1665   -4.2154   21.0987 F   0  0  0  0  0  0
  -21.5618   -3.4546   25.7740 F   0  0  0  0  0  0
  -29.9740  -13.5456   20.4073 N   0  0  0  0  0  0
  -26.2910  -12.9386   20.3256 N   0  0  0  0  0  0
  -25.9313  -11.6532   20.5735 N   0  0  0  0  0  0
  -22.0476  -12.8205   22.0403 N   0  0  0  0  0  0
  -25.4198  -15.1903   20.4121 N   0  0  0  0  0  0
  -31.7905  -14.8412   20.1387 O   0  0  0  0  0  0
  -21.6653   -6.8877   21.4247 O   0  0  0  0  0  0
  -22.3528  -14.5544   20.6716 O   0  0  0  0  0  0
  -24.6354  -31.8501   23.1948 C   0  0  0  0  0  0
  -25.9164  -32.4724   23.8310 C   0  0  1  0  0  0
  -27.2268  -27.2228   20.1318 C   0  0  0  0  0  0
  -25.5952  -33.8533   24.2239 N   0  0  0  0  0  0
  -23.4367  -30.4721   21.5350 C   0  0  2  0  0  0
  -24.8885  -28.9161   20.1057 C   0  0  0  0  0  0
  -22.7528  -29.4576   22.4845 C   0  0  0  0  0  0
  -18.0291  -28.1395   22.8486 C   0  0  0  0  0  0
  -24.1491  -36.7259   23.2634 C   0  0  0  0  0  0
  -25.9857  -30.7517   21.3825 C   0  0  0  0  0  0
  -26.0581  -29.3713   20.7234 C   0  0  0  0  0  0
  -27.2272  -28.5357   20.7292 C   0  0  0  0  0  0
  -26.0272  -26.8433   19.4895 C   0  0  0  0  0  0
  -24.8787  -27.6603   19.4805 C   0  0  0  0  0  0
  -23.6610  -29.8060   20.1516 C   0  0  0  0  0  0
  -25.4103  -36.3045   24.0332 C   0  0  1  0  0  0
  -20.5901  -28.3711   23.1248 C   0  0  2  0  0  0
  -20.6769  -26.9416   22.5398 C   0  0  0  0  0  0
  -19.5739  -26.6382   21.5212 C   0  0  0  0  0  0
  -18.1930  -26.7935   22.1630 C   0  0  0  0  0  0
  -19.1548  -28.8868   23.2875 C   0  0  0  0  0  0
  -18.9467  -30.1470   23.8891 C   0  0  0  0  0  0
  -17.6471  -30.6592   24.0569 C   0  0  0  0  0  0
  -25.9060  -34.9423   23.5087 C   0  0  0  0  0  0
  -16.5363  -29.9091   23.6343 C   0  0  0  0  0  0
  -16.7284  -28.6511   23.0358 C   0  0  0  0  0  0
  -26.4517  -31.6565   25.0711 C   0  0  0  0  0  0
  -25.3742  -31.3732   26.1435 C   0  0  0  0  0  0
  -27.0382  -30.2981   24.6237 C   0  0  0  0  0  0
  -27.6060  -32.4317   25.7487 C   0  0  0  0  0  0
  -27.5592  -37.1742   24.8430 C   0  0  0  0  0  0
  -21.4217  -29.3054   22.3615 N   0  0  0  0  0  0
  -26.4253  -37.3774   23.9458 N   0  0  0  0  0  0
  -24.7046  -31.0438   22.0937 N   0  0  0  0  0  0
  -23.4209  -28.8108   23.2954 O   0  0  0  0  0  0
  -28.3006  -26.2908   20.2381 O   0  0  0  0  0  0
  -26.5630  -34.8912   22.4658 O   0  0  0  0  0  0
  -23.5484  -32.1339   23.7202 O   0  0  0  0  0  0
  -31.1289  -18.7801   18.4421 C   0  0  0  0  0  0
  -30.4658  -19.9327   18.8997 C   0  0  0  0  0  0
  -30.9172  -17.5223   19.0304 C   0  0  0  0  0  0
  -29.5632  -19.9015   19.9853 C   0  0  0  0  0  0
  -30.0484  -17.3449   20.1298 C   0  0  0  0  0  0
  -29.3837  -18.5716   20.6032 C   0  0  0  0  0  0
  -28.6255  -23.7109   20.1749 C   0  0  0  0  0  0
  -28.2532  -24.9679   19.6768 C   0  0  0  0  0  0
  -29.1333  -23.3242   21.5524 C   0  0  0  0  0  0
  -28.6212  -22.3346   19.4199 C   0  0  0  0  0  0
  -28.9945  -21.7614   21.6879 C   0  0  0  0  0  0
  -28.9327  -21.1825   20.3428 N   0  0  0  0  0  0
  -29.8345  -15.9411   20.6313 N   0  0  0  0  0  0
  -28.5378  -18.4610   21.6573 F   0  0  0  0  0  0
  -31.4686  -12.5717   19.1979 H   0  0  0  0  0  0
  -30.3511  -11.4935   19.9785 H   0  0  0  0  0  0
  -29.7992  -11.7283   17.5327 H   0  0  0  0  0  0
  -29.6316  -13.4559   17.7220 H   0  0  0  0  0  0
  -27.9074  -11.2703   18.9349 H   0  0  0  0  0  0
  -27.3780  -12.4842   17.8050 H   0  0  0  0  0  0
  -27.6221  -14.2462   19.4493 H   0  0  0  0  0  0
  -28.7133  -12.2082   21.4534 H   0  0  0  0  0  0
  -28.4014  -13.8939   21.7812 H   0  0  0  0  0  0
  -25.2766   -9.5712   22.4774 H   0  0  0  0  0  0
  -24.0008   -7.4661   22.7506 H   0  0  0  0  0  0
  -21.0843   -8.8751   19.8970 H   0  0  0  0  0  0
  -22.3677  -10.9665   19.6167 H   0  0  0  0  0  0
  -21.2021   -7.6160   23.9716 H   0  0  0  0  0  0
  -21.1470   -6.0535   25.9078 H   0  0  0  0  0  0
  -22.0599   -2.7612   23.2847 H   0  0  0  0  0  0
  -22.4096  -11.9847   22.4739 H   0  0  0  0  0  0
  -21.1113  -13.1252   22.2651 H   0  0  0  0  0  0
  -24.6475  -15.8376   20.5206 H   0  0  0  0  0  0
  -26.2659  -15.6363   20.0818 H   0  0  0  0  0  0
  -26.7233  -32.5367   23.1041 H   0  0  0  0  0  0
  -25.0098  -33.9659   25.0388 H   0  0  0  0  0  0
  -22.7367  -31.2961   21.3787 H   0  0  0  0  0  0
  -23.3751  -35.9595   23.3286 H   0  0  0  0  0  0
  -24.3593  -36.8885   22.2051 H   0  0  0  0  0  0
  -23.7242  -37.6465   23.6647 H   0  0  0  0  0  0
  -26.1319  -31.5102   20.6125 H   0  0  0  0  0  0
  -26.8612  -30.7999   22.0187 H   0  0  0  0  0  0
  -28.1155  -28.8722   21.2447 H   0  0  0  0  0  0
  -25.9346  -25.8743   19.0235 H   0  0  0  0  0  0
  -23.9797  -27.2958   19.0055 H   0  0  0  0  0  0
  -23.7948  -30.5809   19.3961 H   0  0  0  0  0  0
  -22.7810  -29.2416   19.8389 H   0  0  0  0  0  0
  -25.1264  -36.1871   25.0818 H   0  0  0  0  0  0
  -21.0009  -28.3291   24.1365 H   0  0  0  0  0  0
  -20.5668  -26.2316   23.3616 H   0  0  0  0  0  0
  -21.6632  -26.7424   22.1185 H   0  0  0  0  0  0
  -19.6905  -25.6301   21.1233 H   0  0  0  0  0  0
  -19.6680  -27.3197   20.6756 H   0  0  0  0  0  0
  -17.4191  -26.6696   21.4043 H   0  0  0  0  0  0
  -18.0334  -26.0080   22.9025 H   0  0  0  0  0  0
  -19.7948  -30.7290   24.2244 H   0  0  0  0  0  0
  -17.5021  -31.6266   24.5175 H   0  0  0  0  0  0
  -15.5366  -30.2989   23.7662 H   0  0  0  0  0  0
  -15.8681  -28.0833   22.7070 H   0  0  0  0  0  0
  -24.5912  -30.7080   25.7770 H   0  0  0  0  0  0
  -24.8933  -32.2902   26.4843 H   0  0  0  0  0  0
  -25.8048  -30.8923   27.0227 H   0  0  0  0  0  0
  -26.2984  -29.6704   24.1244 H   0  0  0  0  0  0
  -27.4040  -29.7264   25.4777 H   0  0  0  0  0  0
  -27.8868  -30.4248   23.9514 H   0  0  0  0  0  0
  -27.2662  -33.3616   26.2056 H   0  0  0  0  0  0
  -28.3869  -32.6885   25.0316 H   0  0  0  0  0  0
  -28.0734  -31.8458   26.5410 H   0  0  0  0  0  0
  -28.2465  -38.0183   24.7669 H   0  0  0  0  0  0
  -28.1233  -36.2719   24.5982 H   0  0  0  0  0  0
  -27.2348  -37.1050   25.8835 H   0  0  0  0  0  0
  -20.9394  -29.8834   21.6880 H   0  0  0  0  0  0
  -26.0112  -38.2818   24.1591 H   0  0  0  0  0  0
  -31.8131  -18.8559   17.6091 H   0  0  0  0  0  0
  -30.6940  -20.8571   18.3935 H   0  0  0  0  0  0
  -31.4372  -16.6862   18.5891 H   0  0  0  0  0  0
  -27.9379  -25.0252   18.6441 H   0  0  0  0  0  0
  -28.6269  -23.8733   22.3460 H   0  0  0  0  0  0
  -30.1893  -23.5930   21.5911 H   0  0  0  0  0  0
  -29.3229  -22.3944   18.5897 H   0  0  0  0  0  0
  -27.6347  -22.1797   18.9782 H   0  0  0  0  0  0
  -28.0559  -21.5205   22.1910 H   0  0  0  0  0  0
  -29.7966  -21.3297   22.2880 H   0  0  0  0  0  0
  -28.9231  -15.7797   21.0329 H   0  0  0  0  0  0
  1 25  1  0  0  0
  1 30  2  0  0  0
  1 83  1  0  0  0
  2  3  1  0  0  0
  2 25  1  0  0  0
  2 85  1  0  0  0
  2 86  1  0  0  0
  3  4  1  0  0  0
  3 87  1  0  0  0
  3 88  1  0  0  0
  4  5  1  0  0  0
  4 89  1  0  0  0
  4 90  1  0  0  0
  5  6  1  0  0  0
  5 26  1  0  0  0
  5 91  1  0  0  0
  6 25  1  0  0  0
  6 92  1  0  0  0
  6 93  1  0  0  0
  7  8  2  0  0  0
  7 26  1  0  0  0
  7 29  1  0  0  0
  8  9  1  0  0  0
  8 22  1  0  0  0
  9 10  1  0  0  0
  9 27  2  0  0  0
 10 11  2  0  0  0
 10 15  1  0  0  0
 11 12  1  0  0  0
 11 94  1  0  0  0
 12 13  2  0  0  0
 12 95  1  0  0  0
 13 14  1  0  0  0
 13 31  1  0  0  0
 14 15  2  0  0  0
 14 96  1  0  0  0
 15 97  1  0  0  0
 16 17  2  0  0  0
 16 21  1  0  0  0
 16 31  1  0  0  0
 17 18  1  0  0  0
 17 98  1  0  0  0
 18 19  2  0  0  0
 18 99  1  0  0  0
 19 20  1  0  0  0
 19 24  1  0  0  0
 20 21  2  0  0  0
 20100  1  0  0  0
 21 23  1  0  0  0
 22 28  1  0  0  0
 22 32  2  0  0  0
 26 27  1  0  0  0
 28101  1  0  0  0
 28102  1  0  0  0
 29103  1  0  0  0
 29104  1  0  0  0
 33 34  1  0  0  0
 33 66  1  0  0  0
 33 70  2  0  0  0
 34 36  1  0  0  0
 34 59  1  0  0  0
 34105  1  0  0  0
 35 44  2  0  0  0
 35 45  1  0  0  0
 35 68  1  0  0  0
 36 56  1  0  0  0
 36106  1  0  0  0
 37 39  1  0  0  0
 37 47  1  0  0  0
 37 66  1  0  0  0
 37107  1  0  0  0
 38 43  2  0  0  0
 38 46  1  0  0  0
 38 47  1  0  0  0
 39 64  1  0  0  0
 39 67  2  0  0  0
 40 52  1  0  0  0
 40 53  2  0  0  0
 40 58  1  0  0  0
 41108  1  0  0  0
 41109  1  0  0  0
 41110  1  0  0  0
 41 48  1  0  0  0
 42 43  1  0  0  0
 42 66  1  0  0  0
 42111  1  0  0  0
 42112  1  0  0  0
 43 44  1  0  0  0
 44113  1  0  0  0
 45 46  2  0  0  0
 45114  1  0  0  0
 46115  1  0  0  0
 47116  1  0  0  0
 47117  1  0  0  0
 48 56  1  0  0  0
 48 65  1  0  0  0
 48118  1  0  0  0
 49 50  1  0  0  0
 49 53  1  0  0  0
 49 64  1  0  0  0
 49119  1  0  0  0
 50 51  1  0  0  0
 50120  1  0  0  0
 50121  1  0  0  0
 51 52  1  0  0  0
 51122  1  0  0  0
 51123  1  0  0  0
 52124  1  0  0  0
 52125  1  0  0  0
 53 54  1  0  0  0
 54 55  2  0  0  0
 54126  1  0  0  0
 55 57  1  0  0  0
 55127  1  0  0  0
 56 69  2  0  0  0
 57 58  2  0  0  0
 57128  1  0  0  0
 58129  1  0  0  0
 59 60  1  0  0  0
 59 61  1  0  0  0
 59 62  1  0  0  0
 60130  1  0  0  0
 60131  1  0  0  0
 60132  1  0  0  0
 61133  1  0  0  0
 61134  1  0  0  0
 61135  1  0  0  0
 62136  1  0  0  0
 62137  1  0  0  0
 62138  1  0  0  0
 63 65  1  0  0  0
 63139  1  0  0  0
 63140  1  0  0  0
 63141  1  0  0  0
 64142  1  0  0  0
 65143  1  0  0  0
 68 78  1  0  0  0
 71 72  2  0  0  0
 71 73  1  0  0  0
 71144  1  0  0  0
 72 74  1  0  0  0
 72145  1  0  0  0
 73 75  2  0  0  0
 73146  1  0  0  0
 74 76  2  0  0  0
 74 82  1  0  0  0
 75 76  1  0  0  0
 75 83  1  0  0  0
 76 84  1  0  0  0
 77 78  2  0  0  0
 77 79  1  0  0  0
 77 80  1  0  0  0
 78147  1  0  0  0
 79 81  1  0  0  0
 79148  1  0  0  0
 79149  1  0  0  0
 80 82  1  0  0  0
 80150  1  0  0  0
 80151  1  0  0  0
 81 82  1  0  0  0
 81152  1  0  0  0
 81153  1  0  0  0
 83154  1  0  0  0
M  ISO  4   1 100  68 101  78 101  83 100
M  END
> <chiral flag>
0

> <version>
0

> <s_m_source_file>
/data/baiqing/PycharmProjects/Reinvent-master-3.2/result/LINK_invent/BTK/process_docking_weight1_custom_product_contain_oxygen_bond_distance_aromatic_linkinvent_7_9_3/rearranged_h_0147.sdf

> <i_m_source_file_index>
40

> <r_mmod_Potential_Energy-OPLS-2005>
325.134826660156

> <r_mmod_Stretch_Energy-OPLS-2005>
142.221145629883

> <r_mmod_Bend_Energy-OPLS-2005>
214.54638671875

> <r_mmod_Torsional_Energy-OPLS-2005>
253.527542114258

> <r_mmod_Improper_Torsional_Energy-OPLS-2005>
6.08441925048828

> <r_mmod_Van_der_Waal_Energy-OPLS-2005>
139.696334838867

> <r_mmod_Electrostatic_Energy-OPLS-2005>
-324.847808837891

> <r_mmod_Solvation_Energy-OPLS-2005>
-215.021575927734

> <b_mmod_Minimization_Converged-OPLS-2005>
0

> <r_mmod_RMS_Derivative-OPLS-2005>
2.62401008605957

$$$$
40
                    3D
 Structure written by MMmdl.
165174  0  0  1  0            999 V2000
  -30.6516  -14.5798   20.4849 C   0  0  0  0  0  0
  -30.4219  -12.3483   19.4538 C   0  0  0  0  0  0
  -29.5009  -12.4949   18.2231 C   0  0  0  0  0  0
  -28.0223  -12.3452   18.6327 C   0  0  0  0  0  0
  -27.6501  -13.2158   19.8628 C   0  0  2  0  0  0
  -28.6915  -13.0635   20.9945 C   0  0  0  0  0  0
  -25.2536  -13.8173   20.5691 C   0  0  0  0  0  0
  -24.1804  -13.0438   20.9189 C   0  0  0  0  0  0
  -24.6369  -11.6906   20.8735 C   0  0  0  0  0  0
  -23.9040  -10.4294   21.0400 C   0  0  0  0  0  0
  -24.3598   -9.4211   21.9179 C   0  0  0  0  0  0
  -23.6281   -8.2245   22.0752 C   0  0  0  0  0  0
  -22.4265   -8.0278   21.3540 C   0  0  0  0  0  0
  -21.9899   -9.0243   20.4640 C   0  0  0  0  0  0
  -22.7217  -10.2128   20.3048 C   0  0  0  0  0  0
  -21.6849   -6.0730   22.5272 C   0  0  0  0  0  0
  -21.4017   -6.5635   23.8201 C   0  0  0  0  0  0
  -21.3666   -5.6792   24.9174 C   0  0  0  0  0  0
  -21.6048   -4.3054   24.7222 C   0  0  0  0  0  0
  -21.8818   -3.8145   23.4339 C   0  0  0  0  0  0
  -21.9187   -4.6959   22.3393 C   0  0  0  0  0  0
  -22.7828  -13.5226   21.1859 C   0  0  0  0  0  0
  -22.1657   -4.2149   21.0968 F   0  0  0  0  0  0
  -21.5633   -3.4536   25.7732 F   0  0  0  0  0  0
  -30.0154  -13.3722   20.4332 N   0  0  0  0  0  0
  -26.2956  -12.9356   20.3310 N   0  0  0  0  0  0
  -25.9292  -11.6510   20.5741 N   0  0  0  0  0  0
  -22.0470  -12.8218   22.0415 N   0  0  0  0  0  0
  -25.4249  -15.1897   20.4122 N   0  0  0  0  0  0
  -31.8175  -14.7116   20.1025 O   0  0  0  0  0  0
  -21.6633   -6.8872   21.4232 O   0  0  0  0  0  0
  -22.3523  -14.5543   20.6710 O   0  0  0  0  0  0
  -24.6192  -31.8633   23.2073 C   0  0  0  0  0  0
  -25.9060  -32.4809   23.8383 C   0  0  1  0  0  0
  -27.2269  -27.3724   20.1085 C   0  0  0  0  0  0
  -25.5885  -33.8605   24.2324 N   0  0  0  0  0  0
  -23.4085  -30.4834   21.5508 C   0  0  2  0  0  0
  -24.8554  -28.9468   20.1082 C   0  0  0  0  0  0
  -22.7436  -29.4624   22.5027 C   0  0  0  0  0  0
  -18.0266  -28.1371   22.8490 C   0  0  0  0  0  0
  -24.1478  -36.7325   23.2651 C   0  0  0  0  0  0
  -25.9415  -30.8097   21.3686 C   0  0  0  0  0  0
  -26.0157  -29.4391   20.7165 C   0  0  0  0  0  0
  -27.1991  -28.6562   20.7181 C   0  0  0  0  0  0
  -26.0549  -26.9278   19.4576 C   0  0  0  0  0  0
  -24.8734  -27.6944   19.4731 C   0  0  0  0  0  0
  -23.6160  -29.8137   20.1653 C   0  0  0  0  0  0
  -25.4093  -36.3121   24.0365 C   0  0  1  0  0  0
  -20.5858  -28.3650   23.1344 C   0  0  2  0  0  0
  -20.6763  -26.9392   22.5428 C   0  0  0  0  0  0
  -19.5750  -26.6377   21.5216 C   0  0  0  0  0  0
  -18.1913  -26.7924   22.1600 C   0  0  0  0  0  0
  -19.1514  -28.8831   23.2900 C   0  0  0  0  0  0
  -18.9441  -30.1434   23.8914 C   0  0  0  0  0  0
  -17.6447  -30.6589   24.0554 C   0  0  0  0  0  0
  -25.9022  -34.9479   23.5155 C   0  0  0  0  0  0
  -16.5334  -29.9084   23.6331 C   0  0  0  0  0  0
  -16.7253  -28.6491   23.0374 C   0  0  0  0  0  0
  -26.4464  -31.6629   25.0746 C   0  0  0  0  0  0
  -25.3715  -31.3742   26.1490 C   0  0  0  0  0  0
  -27.0350  -30.3082   24.6174 C   0  0  0  0  0  0
  -27.6026  -32.4386   25.7488 C   0  0  0  0  0  0
  -27.5588  -37.1805   24.8469 C   0  0  0  0  0  0
  -21.4159  -29.3018   22.3765 N   0  0  0  0  0  0
  -26.4294  -37.3798   23.9426 N   0  0  0  0  0  0
  -24.6755  -31.0674   22.1003 N   0  0  0  0  0  0
  -23.4197  -28.8185   23.3088 O   0  0  0  0  0  0
  -28.3853  -26.6061   20.1855 O   0  0  0  0  0  0
  -26.5585  -34.8933   22.4714 O   0  0  0  0  0  0
  -23.5373  -32.1417   23.7434 O   0  0  0  0  0  0
  -30.9712  -18.8096   18.9948 C   0  0  0  0  0  0
  -30.4076  -19.8210   19.7991 C   0  0  0  0  0  0
  -30.8144  -17.4473   19.3251 C   0  0  0  0  0  0
  -29.4519  -18.0940   21.2289 C   0  0  0  0  0  0
  -29.6411  -19.4876   20.9349 C   0  0  0  0  0  0
  -30.0664  -17.0554   20.4626 C   0  0  0  0  0  0
  -29.1801  -20.5488   21.8866 C   0  0  0  0  0  0
  -26.5467  -23.7993   20.6137 C   0  0  0  0  0  0
  -28.5931  -24.2255   22.1096 C   0  0  0  0  0  0
  -28.5544  -22.8223   22.7376 C   0  0  0  0  0  0
  -28.8183  -22.6610   20.3629 C   0  0  0  0  0  0
  -28.0802  -24.0286   20.6718 C   0  0  1  0  0  0
  -25.6461  -24.5059   21.6233 C   0  0  0  0  0  0
  -28.4710  -25.2269   19.7070 C   0  0  0  0  0  0
  -28.8620  -21.8707   21.6403 N   0  0  0  0  0  0
  -29.8836  -15.6569   20.8195 N   0  0  0  0  0  0
  -29.1112  -20.1656   23.1617 N   0  3  0  0  0  0
  -26.0351  -23.0869   19.7465 O   0  0  0  0  0  0
  -31.4683  -12.4433   19.1592 H   0  0  0  0  0  0
  -30.3255  -11.3534   19.8916 H   0  0  0  0  0  0
  -29.7573  -11.7464   17.4721 H   0  0  0  0  0  0
  -29.6569  -13.4670   17.7530 H   0  0  0  0  0  0
  -27.8531  -11.2925   18.8622 H   0  0  0  0  0  0
  -27.3698  -12.5805   17.7913 H   0  0  0  0  0  0
  -27.6712  -14.2517   19.5242 H   0  0  0  0  0  0
  -28.6820  -12.0451   21.3855 H   0  0  0  0  0  0
  -28.4464  -13.7085   21.8394 H   0  0  0  0  0  0
  -25.2738   -9.5699   22.4756 H   0  0  0  0  0  0
  -23.9990   -7.4641   22.7480 H   0  0  0  0  0  0
  -21.0832   -8.8748   19.8946 H   0  0  0  0  0  0
  -22.3661  -10.9662   19.6161 H   0  0  0  0  0  0
  -21.2014   -7.6140   23.9710 H   0  0  0  0  0  0
  -21.1495   -6.0522   25.9077 H   0  0  0  0  0  0
  -22.0593   -2.7607   23.2832 H   0  0  0  0  0  0
  -22.4069  -11.9862   22.4789 H   0  0  0  0  0  0
  -21.1092  -13.1248   22.2636 H   0  0  0  0  0  0
  -24.6544  -15.8414   20.5137 H   0  0  0  0  0  0
  -26.2707  -15.6276   20.0702 H   0  0  0  0  0  0
  -26.7141  -32.5501   23.1149 H   0  0  0  0  0  0
  -25.0034  -33.9740   25.0473 H   0  0  0  0  0  0
  -22.6989  -31.3010   21.4103 H   0  0  0  0  0  0
  -23.3752  -35.9645   23.3300 H   0  0  0  0  0  0
  -24.3570  -36.8940   22.2065 H   0  0  0  0  0  0
  -23.7220  -37.6530   23.6652 H   0  0  0  0  0  0
  -26.0547  -31.5734   20.5972 H   0  0  0  0  0  0
  -26.8296  -30.8670   21.9861 H   0  0  0  0  0  0
  -28.0893  -29.0253   21.2083 H   0  0  0  0  0  0
  -26.0201  -25.9808   18.9431 H   0  0  0  0  0  0
  -23.9846  -27.3168   18.9871 H   0  0  0  0  0  0
  -23.7126  -30.5847   19.4001 H   0  0  0  0  0  0
  -22.7405  -29.2256   19.8835 H   0  0  0  0  0  0
  -25.1264  -36.1988   25.0864 H   0  0  0  0  0  0
  -20.9910  -28.3211   24.1481 H   0  0  0  0  0  0
  -20.5664  -26.2256   23.3604 H   0  0  0  0  0  0
  -21.6638  -26.7446   22.1223 H   0  0  0  0  0  0
  -19.6915  -25.6282   21.1267 H   0  0  0  0  0  0
  -19.6722  -27.3170   20.6731 H   0  0  0  0  0  0
  -17.4193  -26.6684   21.3987 H   0  0  0  0  0  0
  -18.0275  -26.0054   22.8977 H   0  0  0  0  0  0
  -19.7919  -30.7226   24.2322 H   0  0  0  0  0  0
  -17.5004  -31.6279   24.5134 H   0  0  0  0  0  0
  -15.5340  -30.2993   23.7665 H   0  0  0  0  0  0
  -15.8635  -28.0810   22.7139 H   0  0  0  0  0  0
  -24.5860  -30.7122   25.7820 H   0  0  0  0  0  0
  -24.8923  -32.2897   26.4971 H   0  0  0  0  0  0
  -25.8044  -30.8880   27.0241 H   0  0  0  0  0  0
  -26.2945  -29.6780   24.1231 H   0  0  0  0  0  0
  -27.4140  -29.7381   25.4667 H   0  0  0  0  0  0
  -27.8745  -30.4437   23.9352 H   0  0  0  0  0  0
  -27.2644  -33.3681   26.2080 H   0  0  0  0  0  0
  -28.3794  -32.6970   25.0283 H   0  0  0  0  0  0
  -28.0740  -31.8515   26.5377 H   0  0  0  0  0  0
  -28.2615  -38.0096   24.7528 H   0  0  0  0  0  0
  -28.1088  -36.2634   24.6283 H   0  0  0  0  0  0
  -27.2309  -37.1448   25.8873 H   0  0  0  0  0  0
  -20.9338  -29.8759   21.6997 H   0  0  0  0  0  0
  -26.0208  -38.2898   24.1387 H   0  0  0  0  0  0
  -31.5530  -19.0821   18.1249 H   0  0  0  0  0  0
  -30.6014  -20.8515   19.5470 H   0  0  0  0  0  0
  -31.2756  -16.7151   18.6785 H   0  0  0  0  0  0
  -28.8632  -17.8098   22.0897 H   0  0  0  0  0  0
  -29.6209  -24.5905   22.1015 H   0  0  0  0  0  0
  -28.0179  -24.9509   22.6846 H   0  0  0  0  0  0
  -27.5643  -22.6033   23.1415 H   0  0  0  0  0  0
  -29.2650  -22.7567   23.5636 H   0  0  0  0  0  0
  -29.8395  -22.8641   20.0387 H   0  0  0  0  0  0
  -28.3368  -22.1021   19.5599 H   0  0  0  0  0  0
  -26.0077  -25.5103   21.8403 H   0  0  0  0  0  0
  -25.6092  -23.9380   22.5517 H   0  0  0  0  0  0
  -24.6334  -24.5920   21.2289 H   0  0  0  0  0  0
  -27.9864  -25.1209   18.7357 H   0  0  0  0  0  0
  -29.5288  -25.1084   19.4705 H   0  0  0  0  0  0
  -29.0081  -15.4273   21.2632 H   0  0  0  0  0  0
  -29.4147  -19.2365   23.4066 H   0  0  0  0  0  0
  -28.8043  -20.7777   23.8965 H   0  0  0  0  0  0
  1 25  1  0  0  0
  1 30  2  0  0  0
  1 86  1  0  0  0
  2  3  1  0  0  0
  2 25  1  0  0  0
  2 89  1  0  0  0
  2 90  1  0  0  0
  3  4  1  0  0  0
  3 91  1  0  0  0
  3 92  1  0  0  0
  4  5  1  0  0  0
  4 93  1  0  0  0
  4 94  1  0  0  0
  5  6  1  0  0  0
  5 26  1  0  0  0
  5 95  1  0  0  0
  6 25  1  0  0  0
  6 96  1  0  0  0
  6 97  1  0  0  0
  7  8  2  0  0  0
  7 26  1  0  0  0
  7 29  1  0  0  0
  8  9  1  0  0  0
  8 22  1  0  0  0
  9 10  1  0  0  0
  9 27  2  0  0  0
 10 11  2  0  0  0
 10 15  1  0  0  0
 11 12  1  0  0  0
 11 98  1  0  0  0
 12 13  2  0  0  0
 12 99  1  0  0  0
 13 14  1  0  0  0
 13 31  1  0  0  0
 14 15  2  0  0  0
 14100  1  0  0  0
 15101  1  0  0  0
 16 17  2  0  0  0
 16 21  1  0  0  0
 16 31  1  0  0  0
 17 18  1  0  0  0
 17102  1  0  0  0
 18 19  2  0  0  0
 18103  1  0  0  0
 19 20  1  0  0  0
 19 24  1  0  0  0
 20 21  2  0  0  0
 20104  1  0  0  0
 21 23  1  0  0  0
 22 28  1  0  0  0
 22 32  2  0  0  0
 26 27  1  0  0  0
 28105  1  0  0  0
 28106  1  0  0  0
 29107  1  0  0  0
 29108  1  0  0  0
 33 34  1  0  0  0
 33 66  1  0  0  0
 33 70  2  0  0  0
 34 36  1  0  0  0
 34 59  1  0  0  0
 34109  1  0  0  0
 35 44  2  0  0  0
 35 45  1  0  0  0
 35 68  1  0  0  0
 36 56  1  0  0  0
 36110  1  0  0  0
 37 39  1  0  0  0
 37 47  1  0  0  0
 37 66  1  0  0  0
 37111  1  0  0  0
 38 43  2  0  0  0
 38 46  1  0  0  0
 38 47  1  0  0  0
 39 64  1  0  0  0
 39 67  2  0  0  0
 40 52  1  0  0  0
 40 53  2  0  0  0
 40 58  1  0  0  0
 41112  1  0  0  0
 41113  1  0  0  0
 41114  1  0  0  0
 41 48  1  0  0  0
 42 43  1  0  0  0
 42 66  1  0  0  0
 42115  1  0  0  0
 42116  1  0  0  0
 43 44  1  0  0  0
 44117  1  0  0  0
 45 46  2  0  0  0
 45118  1  0  0  0
 46119  1  0  0  0
 47120  1  0  0  0
 47121  1  0  0  0
 48 56  1  0  0  0
 48 65  1  0  0  0
 48122  1  0  0  0
 49 50  1  0  0  0
 49 53  1  0  0  0
 49 64  1  0  0  0
 49123  1  0  0  0
 50 51  1  0  0  0
 50124  1  0  0  0
 50125  1  0  0  0
 51 52  1  0  0  0
 51126  1  0  0  0
 51127  1  0  0  0
 52128  1  0  0  0
 52129  1  0  0  0
 53 54  1  0  0  0
 54 55  2  0  0  0
 54130  1  0  0  0
 55 57  1  0  0  0
 55131  1  0  0  0
 56 69  2  0  0  0
 57 58  2  0  0  0
 57132  1  0  0  0
 58133  1  0  0  0
 59 60  1  0  0  0
 59 61  1  0  0  0
 59 62  1  0  0  0
 60134  1  0  0  0
 60135  1  0  0  0
 60136  1  0  0  0
 61137  1  0  0  0
 61138  1  0  0  0
 61139  1  0  0  0
 62140  1  0  0  0
 62141  1  0  0  0
 62142  1  0  0  0
 63 65  1  0  0  0
 63143  1  0  0  0
 63144  1  0  0  0
 63145  1  0  0  0
 64146  1  0  0  0
 65147  1  0  0  0
 68 84  1  0  0  0
 71 72  2  0  0  0
 71 73  1  0  0  0
 71148  1  0  0  0
 72 75  1  0  0  0
 72149  1  0  0  0
 73 76  2  0  0  0
 73150  1  0  0  0
 74 75  2  0  0  0
 74 76  1  0  0  0
 74151  1  0  0  0
 75 77  1  0  0  0
 76 86  1  0  0  0
 77 85  1  0  0  0
 77 87  2  0  0  0
 78 83  1  0  0  0
 78 88  2  0  0  0
 78 82  1  0  0  0
 79 80  1  0  0  0
 79 82  1  0  0  0
 79152  1  0  0  0
 79153  1  0  0  0
 80 85  1  0  0  0
 80154  1  0  0  0
 80155  1  0  0  0
 81 82  1  0  0  0
 81 85  1  0  0  0
 81156  1  0  0  0
 81157  1  0  0  0
 82 84  1  0  0  0
 83158  1  0  0  0
 83159  1  0  0  0
 83160  1  0  0  0
 84161  1  0  0  0
 84162  1  0  0  0
 86163  1  0  0  0
 87164  1  0  0  0
 87165  1  0  0  0
M  CHG  1  87   1
M  ISO  4   1 100  68 101  84 101  86 100
M  END
> <chiral flag>
0

> <version>
0

> <s_m_source_file>
/data/baiqing/PycharmProjects/Reinvent-master-3.2/result/LINK_invent/BTK/process_docking_weight1_custom_product_contain_oxygen_bond_distance_aromatic_linkinvent_7_9_3/rearranged_h_0147.sdf

> <i_m_source_file_index>
41

> <r_mmod_Potential_Energy-OPLS-2005>
-100.952438354492

> <r_mmod_Stretch_Energy-OPLS-2005>
65.7818222045898

> <r_mmod_Bend_Energy-OPLS-2005>
175.918579101562

> <r_mmod_Torsional_Energy-OPLS-2005>
263.779693603516

> <r_mmod_Improper_Torsional_Energy-OPLS-2005>
5.00955486297607

> <r_mmod_Van_der_Waal_Energy-OPLS-2005>
158.383529663086

> <r_mmod_Electrostatic_Energy-OPLS-2005>
-385.049377441406

> <r_mmod_Solvation_Energy-OPLS-2005>
-416.249816894531

> <b_mmod_Minimization_Converged-OPLS-2005>
0

> <r_mmod_RMS_Derivative-OPLS-2005>
1.98682630062103

$$$$
41
                    3D
 Structure written by MMmdl.
189198  0  0  1  0            999 V2000
  -30.6437  -14.6216   20.5108 C   0  0  0  0  0  0
  -30.4417  -12.3836   19.4540 C   0  0  0  0  0  0
  -29.5095  -12.4919   18.2271 C   0  0  0  0  0  0
  -28.0370  -12.2988   18.6396 C   0  0  0  0  0  0
  -27.6525  -13.1732   19.8583 C   0  0  2  0  0  0
  -28.6979  -13.0659   20.9931 C   0  0  0  0  0  0
  -25.2574  -13.7973   20.5747 C   0  0  0  0  0  0
  -24.1804  -13.0306   20.9204 C   0  0  0  0  0  0
  -24.6354  -11.6785   20.8730 C   0  0  0  0  0  0
  -23.9015  -10.4220   21.0412 C   0  0  0  0  0  0
  -24.3581   -9.4164   21.9201 C   0  0  0  0  0  0
  -23.6259   -8.2208   22.0768 C   0  0  0  0  0  0
  -22.4246   -8.0257   21.3546 C   0  0  0  0  0  0
  -21.9863   -9.0218   20.4641 C   0  0  0  0  0  0
  -22.7196  -10.2090   20.3056 C   0  0  0  0  0  0
  -21.6839   -6.0719   22.5277 C   0  0  0  0  0  0
  -21.4005   -6.5627   23.8210 C   0  0  0  0  0  0
  -21.3654   -5.6785   24.9172 C   0  0  0  0  0  0
  -21.6043   -4.3049   24.7226 C   0  0  0  0  0  0
  -21.8825   -3.8135   23.4348 C   0  0  0  0  0  0
  -21.9194   -4.6949   22.3406 C   0  0  0  0  0  0
  -22.7850  -13.5174   21.1860 C   0  0  0  0  0  0
  -22.1674   -4.2138   21.0981 F   0  0  0  0  0  0
  -21.5634   -3.4538   25.7736 F   0  0  0  0  0  0
  -30.0215  -13.4012   20.4381 N   0  0  0  0  0  0
  -26.2971  -12.9114   20.3289 N   0  0  0  0  0  0
  -25.9262  -11.6312   20.5731 N   0  0  0  0  0  0
  -22.0456  -12.8217   22.0414 N   0  0  0  0  0  0
  -25.4180  -15.1687   20.4346 N   0  0  0  0  0  0
  -31.7725  -14.8029   20.0468 O   0  0  0  0  0  0
  -21.6622   -6.8854   21.4237 O   0  0  0  0  0  0
  -22.3571  -14.5499   20.6726 O   0  0  0  0  0  0
  -24.6191  -31.8630   23.2043 C   0  0  0  0  0  0
  -25.9059  -32.4795   23.8361 C   0  0  1  0  0  0
  -27.2549  -27.3820   20.1101 C   0  0  0  0  0  0
  -25.5896  -33.8591   24.2295 N   0  0  0  0  0  0
  -23.4112  -30.4825   21.5451 C   0  0  2  0  0  0
  -24.8630  -28.9386   20.1141 C   0  0  0  0  0  0
  -22.7441  -29.4622   22.4960 C   0  0  0  0  0  0
  -18.0283  -28.1379   22.8483 C   0  0  0  0  0  0
  -24.1486  -36.7301   23.2637 C   0  0  0  0  0  0
  -25.9436  -30.8117   21.3664 C   0  0  0  0  0  0
  -26.0221  -29.4406   20.7161 C   0  0  0  0  0  0
  -27.2125  -28.6699   20.7094 C   0  0  0  0  0  0
  -26.0721  -26.9112   19.4892 C   0  0  0  0  0  0
  -24.8867  -27.6761   19.4968 C   0  0  0  0  0  0
  -23.6252  -29.8096   20.1614 C   0  0  0  0  0  0
  -25.4107  -36.3092   24.0334 C   0  0  1  0  0  0
  -20.5874  -28.3668   23.1299 C   0  0  2  0  0  0
  -20.6775  -26.9395   22.5418 C   0  0  0  0  0  0
  -19.5759  -26.6377   21.5208 C   0  0  0  0  0  0
  -18.1933  -26.7926   22.1611 C   0  0  0  0  0  0
  -19.1529  -28.8842   23.2890 C   0  0  0  0  0  0
  -18.9458  -30.1446   23.8904 C   0  0  0  0  0  0
  -17.6458  -30.6582   24.0564 C   0  0  0  0  0  0
  -25.9037  -34.9461   23.5119 C   0  0  0  0  0  0
  -16.5352  -29.9083   23.6320 C   0  0  0  0  0  0
  -16.7270  -28.6501   23.0340 C   0  0  0  0  0  0
  -26.4478  -31.6587   25.0708 C   0  0  0  0  0  0
  -25.3735  -31.3719   26.1457 C   0  0  0  0  0  0
  -27.0297  -30.3015   24.6113 C   0  0  0  0  0  0
  -27.6057  -32.4302   25.7469 C   0  0  0  0  0  0
  -27.5578  -37.1803   24.8459 C   0  0  0  0  0  0
  -21.4159  -29.3024   22.3700 N   0  0  0  0  0  0
  -26.4284  -37.3783   23.9411 N   0  0  0  0  0  0
  -24.6760  -31.0685   22.0967 N   0  0  0  0  0  0
  -23.4187  -28.8173   23.3024 O   0  0  0  0  0  0
  -28.4480  -26.6598   20.1653 O   0  0  0  0  0  0
  -26.5608  -34.8922   22.4686 O   0  0  0  0  0  0
  -23.5367  -32.1402   23.7408 O   0  0  0  0  0  0
  -28.5456  -19.3817   19.4379 C   0  0  0  0  0  0
  -30.3027  -18.1546   20.6288 C   0  0  0  0  0  0
  -28.3231  -17.0005   19.8132 C   0  0  0  0  0  0
  -29.7738  -19.3967   20.1256 C   0  0  0  0  0  0
  -27.8076  -18.2008   19.2936 C   0  0  0  0  0  0
  -29.5746  -16.9252   20.4683 C   0  0  0  0  0  0
  -30.2668  -23.2608   20.1685 C   0  0  0  0  0  0
  -30.4674  -20.7184   20.1449 C   0  0  0  0  0  0
  -28.4496  -23.4803   21.7143 C   0  0  0  0  0  0
  -28.5816  -22.0168   21.2417 C   0  0  0  0  0  0
  -29.3694  -24.3493   20.8275 C   0  0  1  0  0  0
  -30.2793  -25.2492   21.6962 C   0  0  0  0  0  0
  -22.8876  -17.2065   18.4952 C   0  0  0  0  0  0
  -25.2096  -21.9119   18.6088 C   0  0  0  0  0  0
  -21.8344  -20.6287   19.4664 C   0  0  0  0  0  0
  -26.4604  -18.2600   18.5851 C   0  0  0  0  0  0
  -28.5613  -25.2490   19.7987 C   0  0  0  0  0  0
  -23.4397  -18.4780   17.8329 C   0  0  0  0  0  0
  -24.5220  -20.7344   17.8951 C   0  0  0  0  0  0
  -23.1468  -19.9585   19.9082 C   0  0  0  0  0  0
  -25.3647  -18.8846   19.4806 C   0  0  0  0  0  0
  -24.1210  -19.5107   18.7762 C   0  0  0  0  0  0
  -29.8450  -21.9062   20.4892 N   0  0  0  0  0  0
  -29.9216  -15.6400   21.0589 N   0  0  0  0  0  0
  -31.7300  -20.7192   19.7134 N   0  3  0  0  0  0
  -31.2672  -23.5134   19.4893 O   0  0  0  0  0  0
  -31.4823  -12.5068   19.1472 H   0  0  0  0  0  0
  -30.3796  -11.3890   19.8978 H   0  0  0  0  0  0
  -29.7865  -11.7495   17.4770 H   0  0  0  0  0  0
  -29.6345  -13.4652   17.7515 H   0  0  0  0  0  0
  -27.8919  -11.2448   18.8790 H   0  0  0  0  0  0
  -27.3791  -12.5119   17.7963 H   0  0  0  0  0  0
  -27.6566  -14.1763   19.4646 H   0  0  0  0  0  0
  -28.7131  -12.0520   21.3957 H   0  0  0  0  0  0
  -28.4227  -13.7082   21.8300 H   0  0  0  0  0  0
  -25.2728   -9.5657   22.4774 H   0  0  0  0  0  0
  -23.9964   -7.4601   22.7493 H   0  0  0  0  0  0
  -21.0798   -8.8729   19.8945 H   0  0  0  0  0  0
  -22.3658  -10.9631   19.6173 H   0  0  0  0  0  0
  -21.1982   -7.6131   23.9706 H   0  0  0  0  0  0
  -21.1488   -6.0514   25.9072 H   0  0  0  0  0  0
  -22.0610   -2.7596   23.2850 H   0  0  0  0  0  0
  -22.4035  -11.9900   22.4856 H   0  0  0  0  0  0
  -21.1095  -13.1324   22.2599 H   0  0  0  0  0  0
  -24.6320  -15.7963   20.5569 H   0  0  0  0  0  0
  -26.2520  -15.6312   20.1156 H   0  0  0  0  0  0
  -26.7129  -32.5495   23.1118 H   0  0  0  0  0  0
  -25.0041  -33.9747   25.0439 H   0  0  0  0  0  0
  -22.7021  -31.2998   21.3995 H   0  0  0  0  0  0
  -23.3748  -35.9631   23.3298 H   0  0  0  0  0  0
  -24.3580  -36.8922   22.2049 H   0  0  0  0  0  0
  -23.7240  -37.6505   23.6658 H   0  0  0  0  0  0
  -26.0618  -31.5736   20.5946 H   0  0  0  0  0  0
  -26.8288  -30.8681   21.9878 H   0  0  0  0  0  0
  -28.1047  -29.0562   21.1834 H   0  0  0  0  0  0
  -26.0349  -25.9586   18.9852 H   0  0  0  0  0  0
  -23.9975  -27.2849   19.0220 H   0  0  0  0  0  0
  -23.7379  -30.5820   19.4000 H   0  0  0  0  0  0
  -22.7496  -29.2302   19.8633 H   0  0  0  0  0  0
  -25.1285  -36.1951   25.0825 H   0  0  0  0  0  0
  -20.9960  -28.3243   24.1418 H   0  0  0  0  0  0
  -20.5662  -26.2271   23.3610 H   0  0  0  0  0  0
  -21.6653  -26.7431   22.1220 H   0  0  0  0  0  0
  -19.6920  -25.6289   21.1232 H   0  0  0  0  0  0
  -19.6702  -27.3190   20.6740 H   0  0  0  0  0  0
  -17.4205  -26.6670   21.4014 H   0  0  0  0  0  0
  -18.0325  -26.0071   22.9004 H   0  0  0  0  0  0
  -19.7938  -30.7260   24.2274 H   0  0  0  0  0  0
  -17.5017  -31.6259   24.5175 H   0  0  0  0  0  0
  -15.5356  -30.2985   23.7650 H   0  0  0  0  0  0
  -15.8669  -28.0827   22.7044 H   0  0  0  0  0  0
  -24.5913  -30.7054   25.7809 H   0  0  0  0  0  0
  -24.8922  -32.2882   26.4884 H   0  0  0  0  0  0
  -25.8084  -30.8913   27.0230 H   0  0  0  0  0  0
  -26.2841  -29.6785   24.1158 H   0  0  0  0  0  0
  -27.4037  -29.7250   25.4585 H   0  0  0  0  0  0
  -27.8695  -30.4316   23.9282 H   0  0  0  0  0  0
  -27.2693  -33.3608   26.2054 H   0  0  0  0  0  0
  -28.3866  -32.6848   25.0289 H   0  0  0  0  0  0
  -28.0724  -31.8415   26.5380 H   0  0  0  0  0  0
  -28.2601  -38.0095   24.7508 H   0  0  0  0  0  0
  -28.1072  -36.2632   24.6280 H   0  0  0  0  0  0
  -27.2304  -37.1452   25.8865 H   0  0  0  0  0  0
  -20.9328  -29.8732   21.6907 H   0  0  0  0  0  0
  -26.0173  -38.2858   24.1423 H   0  0  0  0  0  0
  -28.1611  -20.2874   18.9916 H   0  0  0  0  0  0
  -31.2502  -18.1497   21.1494 H   0  0  0  0  0  0
  -27.7210  -16.1280   19.7064 H   0  0  0  0  0  0
  -28.7352  -23.5493   22.7645 H   0  0  0  0  0  0
  -27.4103  -23.8070   21.6639 H   0  0  0  0  0  0
  -27.7361  -21.7661   20.6062 H   0  0  0  0  0  0
  -28.5637  -21.3326   22.0921 H   0  0  0  0  0  0
  -30.9442  -24.6640   22.3334 H   0  0  0  0  0  0
  -29.6905  -25.8936   22.3494 H   0  0  0  0  0  0
  -30.9066  -25.8938   21.0788 H   0  0  0  0  0  0
  -22.4448  -16.5484   17.7481 H   0  0  0  0  0  0
  -22.1102  -17.4263   19.2259 H   0  0  0  0  0  0
  -23.6700  -16.6400   18.9942 H   0  0  0  0  0  0
  -25.3879  -22.7303   17.9106 H   0  0  0  0  0  0
  -26.1771  -21.6259   19.0122 H   0  0  0  0  0  0
  -24.6049  -22.3148   19.4207 H   0  0  0  0  0  0
  -21.2255  -20.8799   20.3355 H   0  0  0  0  0  0
  -21.2369  -19.9739   18.8329 H   0  0  0  0  0  0
  -22.0124  -21.5582   18.9267 H   0  0  0  0  0  0
  -26.1589  -17.2620   18.2641 H   0  0  0  0  0  0
  -26.5994  -18.8370   17.6723 H   0  0  0  0  0  0
  -27.5969  -24.7781   19.6251 H   0  0  0  0  0  0
  -29.0605  -25.2318   18.8288 H   0  0  0  0  0  0
  -22.6214  -18.9583   17.2956 H   0  0  0  0  0  0
  -24.1400  -18.1794   17.0521 H   0  0  0  0  0  0
  -25.1635  -20.4116   17.0751 H   0  0  0  0  0  0
  -23.6346  -21.1236   17.3948 H   0  0  0  0  0  0
  -22.8946  -19.1037   20.5361 H   0  0  0  0  0  0
  -23.6606  -20.6397   20.5865 H   0  0  0  0  0  0
  -25.8181  -19.6570   20.1010 H   0  0  0  0  0  0
  -25.0466  -18.1257   20.1963 H   0  0  0  0  0  0
  -29.1486  -15.2379   21.5667 H   0  0  0  0  0  0
  -32.1586  -19.8642   19.3954 H   0  0  0  0  0  0
  -32.2016  -21.6019   19.5662 H   0  0  0  0  0  0
  1 25  1  0  0  0
  1 30  2  0  0  0
  1 94  1  0  0  0
  2  3  1  0  0  0
  2 25  1  0  0  0
  2 97  1  0  0  0
  2 98  1  0  0  0
  3  4  1  0  0  0
  3 99  1  0  0  0
  3100  1  0  0  0
  4  5  1  0  0  0
  4101  1  0  0  0
  4102  1  0  0  0
  5  6  1  0  0  0
  5 26  1  0  0  0
  5103  1  0  0  0
  6 25  1  0  0  0
  6104  1  0  0  0
  6105  1  0  0  0
  7  8  2  0  0  0
  7 26  1  0  0  0
  7 29  1  0  0  0
  8  9  1  0  0  0
  8 22  1  0  0  0
  9 10  1  0  0  0
  9 27  2  0  0  0
 10 11  2  0  0  0
 10 15  1  0  0  0
 11 12  1  0  0  0
 11106  1  0  0  0
 12 13  2  0  0  0
 12107  1  0  0  0
 13 14  1  0  0  0
 13 31  1  0  0  0
 14 15  2  0  0  0
 14108  1  0  0  0
 15109  1  0  0  0
 16 17  2  0  0  0
 16 21  1  0  0  0
 16 31  1  0  0  0
 17 18  1  0  0  0
 17110  1  0  0  0
 18 19  2  0  0  0
 18111  1  0  0  0
 19 20  1  0  0  0
 19 24  1  0  0  0
 20 21  2  0  0  0
 20112  1  0  0  0
 21 23  1  0  0  0
 22 28  1  0  0  0
 22 32  2  0  0  0
 26 27  1  0  0  0
 28113  1  0  0  0
 28114  1  0  0  0
 29115  1  0  0  0
 29116  1  0  0  0
 33 34  1  0  0  0
 33 66  1  0  0  0
 33 70  2  0  0  0
 34 36  1  0  0  0
 34 59  1  0  0  0
 34117  1  0  0  0
 35 44  2  0  0  0
 35 45  1  0  0  0
 35 68  1  0  0  0
 36 56  1  0  0  0
 36118  1  0  0  0
 37 39  1  0  0  0
 37 47  1  0  0  0
 37 66  1  0  0  0
 37119  1  0  0  0
 38 43  2  0  0  0
 38 46  1  0  0  0
 38 47  1  0  0  0
 39 64  1  0  0  0
 39 67  2  0  0  0
 40 52  1  0  0  0
 40 53  2  0  0  0
 40 58  1  0  0  0
 41120  1  0  0  0
 41121  1  0  0  0
 41122  1  0  0  0
 41 48  1  0  0  0
 42 43  1  0  0  0
 42 66  1  0  0  0
 42123  1  0  0  0
 42124  1  0  0  0
 43 44  1  0  0  0
 44125  1  0  0  0
 45 46  2  0  0  0
 45126  1  0  0  0
 46127  1  0  0  0
 47128  1  0  0  0
 47129  1  0  0  0
 48 56  1  0  0  0
 48 65  1  0  0  0
 48130  1  0  0  0
 49 50  1  0  0  0
 49 53  1  0  0  0
 49 64  1  0  0  0
 49131  1  0  0  0
 50 51  1  0  0  0
 50132  1  0  0  0
 50133  1  0  0  0
 51 52  1  0  0  0
 51134  1  0  0  0
 51135  1  0  0  0
 52136  1  0  0  0
 52137  1  0  0  0
 53 54  1  0  0  0
 54 55  2  0  0  0
 54138  1  0  0  0
 55 57  1  0  0  0
 55139  1  0  0  0
 56 69  2  0  0  0
 57 58  2  0  0  0
 57140  1  0  0  0
 58141  1  0  0  0
 59 60  1  0  0  0
 59 61  1  0  0  0
 59 62  1  0  0  0
 60142  1  0  0  0
 60143  1  0  0  0
 60144  1  0  0  0
 61145  1  0  0  0
 61146  1  0  0  0
 61147  1  0  0  0
 62148  1  0  0  0
 62149  1  0  0  0
 62150  1  0  0  0
 63 65  1  0  0  0
 63151  1  0  0  0
 63152  1  0  0  0
 63153  1  0  0  0
 64154  1  0  0  0
 65155  1  0  0  0
 68 87  1  0  0  0
 71 74  2  0  0  0
 71 75  1  0  0  0
 71156  1  0  0  0
 72 74  1  0  0  0
 72 76  2  0  0  0
 72157  1  0  0  0
 73 75  2  0  0  0
 73 76  1  0  0  0
 73158  1  0  0  0
 74 78  1  0  0  0
 75 86  1  0  0  0
 76 94  1  0  0  0
 77 81  1  0  0  0
 77 93  1  0  0  0
 77 96  2  0  0  0
 78 93  1  0  0  0
 78 95  2  0  0  0
 79 80  1  0  0  0
 79 81  1  0  0  0
 79159  1  0  0  0
 79160  1  0  0  0
 80 93  1  0  0  0
 80161  1  0  0  0
 80162  1  0  0  0
 81 82  1  0  0  0
 81 87  1  0  0  0
 82163  1  0  0  0
 82164  1  0  0  0
 82165  1  0  0  0
 83 88  1  0  0  0
 83166  1  0  0  0
 83167  1  0  0  0
 83168  1  0  0  0
 84 89  1  0  0  0
 84169  1  0  0  0
 84170  1  0  0  0
 84171  1  0  0  0
 85 90  1  0  0  0
 85172  1  0  0  0
 85173  1  0  0  0
 85174  1  0  0  0
 86 91  1  0  0  0
 86175  1  0  0  0
 86176  1  0  0  0
 87177  1  0  0  0
 87178  1  0  0  0
 88179  1  0  0  0
 88180  1  0  0  0
 88 92  1  0  0  0
 89 92  1  0  0  0
 89181  1  0  0  0
 89182  1  0  0  0
 90 92  1  0  0  0
 90183  1  0  0  0
 90184  1  0  0  0
 91 92  1  0  0  0
 91185  1  0  0  0
 91186  1  0  0  0
 94187  1  0  0  0
 95188  1  0  0  0
 95189  1  0  0  0
M  CHG  1  95   1
M  ISO  4   1 100  68 101  87 101  94 100
M  END
> <chiral flag>
0

> <version>
0

> <s_m_source_file>
/data/baiqing/PycharmProjects/Reinvent-master-3.2/result/LINK_invent/BTK/process_docking_weight1_custom_product_contain_oxygen_bond_distance_aromatic_linkinvent_7_9_3/rearranged_h_0147.sdf

> <i_m_source_file_index>
42

> <r_mmod_Potential_Energy-OPLS-2005>
-31.4299736022949

> <r_mmod_Stretch_Energy-OPLS-2005>
70.1734008789062

> <r_mmod_Bend_Energy-OPLS-2005>
186.082397460938

> <r_mmod_Torsional_Energy-OPLS-2005>
337.496185302734

> <r_mmod_Improper_Torsional_Energy-OPLS-2005>
7.87514448165894

> <r_mmod_Van_der_Waal_Energy-OPLS-2005>
144.450775146484

> <r_mmod_Electrostatic_Energy-OPLS-2005>
-423.706756591797

> <r_mmod_Solvation_Energy-OPLS-2005>
-388.813323974609

> <b_mmod_Minimization_Converged-OPLS-2005>
0

> <r_mmod_RMS_Derivative-OPLS-2005>
1.72833776473999

$$$$
42
                    3D
 Structure written by MMmdl.
155163  0  0  1  0            999 V2000
  -30.6011  -14.7473   20.4686 C   0  0  0  0  0  0
  -30.4452  -12.4584   19.4634 C   0  0  0  0  0  0
  -29.5155  -12.5077   18.2305 C   0  0  0  0  0  0
  -28.0436  -12.3210   18.6485 C   0  0  0  0  0  0
  -27.6461  -13.2234   19.8478 C   0  0  2  0  0  0
  -28.6934  -13.1569   20.9813 C   0  0  0  0  0  0
  -25.2553  -13.8171   20.5681 C   0  0  0  0  0  0
  -24.1842  -13.0428   20.9203 C   0  0  0  0  0  0
  -24.6419  -11.6899   20.8739 C   0  0  0  0  0  0
  -23.9087  -10.4286   21.0422 C   0  0  0  0  0  0
  -24.3635   -9.4200   21.9197 C   0  0  0  0  0  0
  -23.6299   -8.2245   22.0755 C   0  0  0  0  0  0
  -22.4275   -8.0291   21.3548 C   0  0  0  0  0  0
  -21.9914   -9.0277   20.4648 C   0  0  0  0  0  0
  -22.7260  -10.2147   20.3064 C   0  0  0  0  0  0
  -21.6857   -6.0749   22.5284 C   0  0  0  0  0  0
  -21.4018   -6.5643   23.8220 C   0  0  0  0  0  0
  -21.3652   -5.6792   24.9182 C   0  0  0  0  0  0
  -21.6048   -4.3058   24.7224 C   0  0  0  0  0  0
  -21.8818   -3.8148   23.4342 C   0  0  0  0  0  0
  -21.9189   -4.6977   22.3401 C   0  0  0  0  0  0
  -22.7862  -13.5239   21.1848 C   0  0  0  0  0  0
  -22.1661   -4.2160   21.0983 F   0  0  0  0  0  0
  -21.5618   -3.4530   25.7737 F   0  0  0  0  0  0
  -29.9938  -13.5139   20.3971 N   0  0  0  0  0  0
  -26.2974  -12.9358   20.3263 N   0  0  0  0  0  0
  -25.9344  -11.6513   20.5753 N   0  0  0  0  0  0
  -22.0494  -12.8248   22.0403 N   0  0  0  0  0  0
  -25.4242  -15.1907   20.4095 N   0  0  0  0  0  0
  -31.8011  -14.8635   20.1951 O   0  0  0  0  0  0
  -21.6626   -6.8901   21.4251 O   0  0  0  0  0  0
  -22.3558  -14.5547   20.6685 O   0  0  0  0  0  0
  -24.6301  -31.8565   23.1999 C   0  0  0  0  0  0
  -25.9135  -32.4769   23.8341 C   0  0  1  0  0  0
  -27.2217  -27.2640   20.1492 C   0  0  0  0  0  0
  -25.5929  -33.8566   24.2253 N   0  0  0  0  0  0
  -23.4270  -30.4787   21.5427 C   0  0  2  0  0  0
  -24.8772  -28.9264   20.1146 C   0  0  0  0  0  0
  -22.7505  -29.4604   22.4926 C   0  0  0  0  0  0
  -18.0298  -28.1408   22.8496 C   0  0  0  0  0  0
  -24.1492  -36.7273   23.2637 C   0  0  0  0  0  0
  -25.9720  -30.7744   21.3775 C   0  0  0  0  0  0
  -26.0478  -29.3960   20.7228 C   0  0  0  0  0  0
  -27.2240  -28.5786   20.7259 C   0  0  0  0  0  0
  -26.0268  -26.8608   19.5117 C   0  0  0  0  0  0
  -24.8718  -27.6663   19.4976 C   0  0  0  0  0  0
  -23.6468  -29.8121   20.1593 C   0  0  0  0  0  0
  -25.4116  -36.3057   24.0318 C   0  0  1  0  0  0
  -20.5905  -28.3709   23.1293 C   0  0  2  0  0  0
  -20.6792  -26.9430   22.5420 C   0  0  0  0  0  0
  -19.5754  -26.6397   21.5236 C   0  0  0  0  0  0
  -18.1938  -26.7952   22.1641 C   0  0  0  0  0  0
  -19.1553  -28.8874   23.2889 C   0  0  0  0  0  0
  -18.9460  -30.1479   23.8905 C   0  0  0  0  0  0
  -17.6457  -30.6601   24.0570 C   0  0  0  0  0  0
  -25.9057  -34.9436   23.5083 C   0  0  0  0  0  0
  -16.5352  -29.9097   23.6337 C   0  0  0  0  0  0
  -16.7281  -28.6518   23.0350 C   0  0  0  0  0  0
  -26.4490  -31.6601   25.0731 C   0  0  0  0  0  0
  -25.3696  -31.3771   26.1439 C   0  0  0  0  0  0
  -27.0352  -30.3027   24.6224 C   0  0  0  0  0  0
  -27.6061  -32.4334   25.7484 C   0  0  0  0  0  0
  -27.5575  -37.1779   24.8453 C   0  0  0  0  0  0
  -21.4217  -29.3040   22.3661 N   0  0  0  0  0  0
  -26.4279  -37.3762   23.9412 N   0  0  0  0  0  0
  -24.6953  -31.0541   22.0967 N   0  0  0  0  0  0
  -23.4204  -28.8152   23.3020 O   0  0  0  0  0  0
  -28.3239  -26.3800   20.2035 O   0  0  0  0  0  0
  -26.5627  -34.8907   22.4650 O   0  0  0  0  0  0
  -23.5453  -32.1380   23.7293 O   0  0  0  0  0  0
  -29.2093  -18.3166   20.2285 C   0  0  0  0  0  0
  -30.7764  -19.5848   21.3553 C   0  0  0  0  0  0
  -29.6315  -19.6827   20.5975 C   0  0  0  0  0  0
  -29.9912  -17.2348   20.6795 C   0  0  0  0  0  0
  -28.9947  -21.0140   20.1760 C   0  0  0  0  0  0
  -30.0845  -23.8859   19.1303 C   0  0  0  0  0  0
  -30.2803  -24.5573   21.5156 C   0  0  0  0  0  0
  -29.1497  -22.3527   21.0420 C   0  0  0  0  0  0
  -28.0873  -24.8975   20.3452 C   0  0  0  0  0  0
  -29.3473  -23.8880   20.4820 C   0  0  0  0  0  0
  -29.7651  -15.8521   20.5655 N   0  0  0  0  0  0
  -28.2667  -21.0886   19.1845 O   0  0  0  0  0  0
  -31.3308  -17.9227   21.5761 S   0  0  0  0  0  0
  -31.4855  -12.5966   19.1618 H   0  0  0  0  0  0
  -30.3988  -11.4806   19.9448 H   0  0  0  0  0  0
  -29.7974  -11.7413   17.5074 H   0  0  0  0  0  0
  -29.6338  -13.4647   17.7203 H   0  0  0  0  0  0
  -27.9145  -11.2728   18.9198 H   0  0  0  0  0  0
  -27.3826  -12.5032   17.8008 H   0  0  0  0  0  0
  -27.6376  -14.2419   19.4597 H   0  0  0  0  0  0
  -28.7360  -12.1569   21.4148 H   0  0  0  0  0  0
  -28.4320  -13.8346   21.7967 H   0  0  0  0  0  0
  -25.2801   -9.5644   22.4755 H   0  0  0  0  0  0
  -23.9997   -7.4623   22.7466 H   0  0  0  0  0  0
  -21.0846   -8.8818   19.8954 H   0  0  0  0  0  0
  -22.3752  -10.9693   19.6159 H   0  0  0  0  0  0
  -21.2016   -7.6147   23.9734 H   0  0  0  0  0  0
  -21.1472   -6.0517   25.9094 H   0  0  0  0  0  0
  -22.0598   -2.7604   23.2842 H   0  0  0  0  0  0
  -22.4096  -11.9927   22.4830 H   0  0  0  0  0  0
  -21.1105  -13.1290   22.2583 H   0  0  0  0  0  0
  -24.6502  -15.8375   20.5134 H   0  0  0  0  0  0
  -26.2619  -15.6346   20.0558 H   0  0  0  0  0  0
  -26.7205  -32.5431   23.1091 H   0  0  0  0  0  0
  -25.0063  -33.9705   25.0386 H   0  0  0  0  0  0
  -22.7230  -31.2998   21.3962 H   0  0  0  0  0  0
  -23.3757  -35.9601   23.3278 H   0  0  0  0  0  0
  -24.3589  -36.8919   22.2057 H   0  0  0  0  0  0
  -23.7240  -37.6461   23.6683 H   0  0  0  0  0  0
  -26.1044  -31.5360   20.6078 H   0  0  0  0  0  0
  -26.8512  -30.8296   22.0077 H   0  0  0  0  0  0
  -28.1186  -28.9325   21.2186 H   0  0  0  0  0  0
  -25.9553  -25.9009   19.0243 H   0  0  0  0  0  0
  -23.9743  -27.3003   19.0178 H   0  0  0  0  0  0
  -23.7718  -30.5879   19.4027 H   0  0  0  0  0  0
  -22.7662  -29.2438   19.8539 H   0  0  0  0  0  0
  -25.1301  -36.1888   25.0810 H   0  0  0  0  0  0
  -20.9995  -28.3286   24.1415 H   0  0  0  0  0  0
  -20.5742  -26.2302   23.3614 H   0  0  0  0  0  0
  -21.6654  -26.7479   22.1183 H   0  0  0  0  0  0
  -19.6913  -25.6309   21.1264 H   0  0  0  0  0  0
  -19.6701  -27.3212   20.6774 H   0  0  0  0  0  0
  -17.4214  -26.6716   21.4041 H   0  0  0  0  0  0
  -18.0316  -26.0106   22.9040 H   0  0  0  0  0  0
  -19.7927  -30.7307   24.2276 H   0  0  0  0  0  0
  -17.4996  -31.6285   24.5163 H   0  0  0  0  0  0
  -15.5349  -30.2986   23.7657 H   0  0  0  0  0  0
  -15.8687  -28.0833   22.7051 H   0  0  0  0  0  0
  -24.5862  -30.7142   25.7736 H   0  0  0  0  0  0
  -24.8896  -32.2960   26.4829 H   0  0  0  0  0  0
  -25.7977  -30.8946   27.0236 H   0  0  0  0  0  0
  -26.2960  -29.6768   24.1220 H   0  0  0  0  0  0
  -27.4009  -29.7298   25.4753 H   0  0  0  0  0  0
  -27.8834  -30.4309   23.9497 H   0  0  0  0  0  0
  -27.2702  -33.3641   26.2065 H   0  0  0  0  0  0
  -28.3865  -32.6886   25.0302 H   0  0  0  0  0  0
  -28.0747  -31.8463   26.5390 H   0  0  0  0  0  0
  -28.2567  -38.0098   24.7533 H   0  0  0  0  0  0
  -28.1095  -36.2634   24.6236 H   0  0  0  0  0  0
  -27.2301  -37.1372   25.8854 H   0  0  0  0  0  0
  -20.9402  -29.8722   21.6841 H   0  0  0  0  0  0
  -26.0147  -38.2822   24.1453 H   0  0  0  0  0  0
  -28.3165  -18.1834   19.6318 H   0  0  0  0  0  0
  -31.3601  -20.3909   21.7845 H   0  0  0  0  0  0
  -31.0233  -23.3339   19.1758 H   0  0  0  0  0  0
  -30.3212  -24.9029   18.8159 H   0  0  0  0  0  0
  -29.4724  -23.4461   18.3431 H   0  0  0  0  0  0
  -31.2258  -24.0225   21.6141 H   0  0  0  0  0  0
  -29.8192  -24.5870   22.5041 H   0  0  0  0  0  0
  -30.5234  -25.5840   21.2409 H   0  0  0  0  0  0
  -29.9925  -22.1407   21.6972 H   0  0  0  0  0  0
  -28.2986  -22.3627   21.7218 H   0  0  0  0  0  0
  -27.4528  -24.7651   21.2228 H   0  0  0  0  0  0
  -27.4991  -24.5423   19.5015 H   0  0  0  0  0  0
  -28.7910  -15.5945   20.5561 H   0  0  0  0  0  0
  1 25  1  0  0  0
  1 30  2  0  0  0
  1 81  1  0  0  0
  2  3  1  0  0  0
  2 25  1  0  0  0
  2 84  1  0  0  0
  2 85  1  0  0  0
  3  4  1  0  0  0
  3 86  1  0  0  0
  3 87  1  0  0  0
  4  5  1  0  0  0
  4 88  1  0  0  0
  4 89  1  0  0  0
  5  6  1  0  0  0
  5 26  1  0  0  0
  5 90  1  0  0  0
  6 25  1  0  0  0
  6 91  1  0  0  0
  6 92  1  0  0  0
  7  8  2  0  0  0
  7 26  1  0  0  0
  7 29  1  0  0  0
  8  9  1  0  0  0
  8 22  1  0  0  0
  9 10  1  0  0  0
  9 27  2  0  0  0
 10 11  2  0  0  0
 10 15  1  0  0  0
 11 12  1  0  0  0
 11 93  1  0  0  0
 12 13  2  0  0  0
 12 94  1  0  0  0
 13 14  1  0  0  0
 13 31  1  0  0  0
 14 15  2  0  0  0
 14 95  1  0  0  0
 15 96  1  0  0  0
 16 17  2  0  0  0
 16 21  1  0  0  0
 16 31  1  0  0  0
 17 18  1  0  0  0
 17 97  1  0  0  0
 18 19  2  0  0  0
 18 98  1  0  0  0
 19 20  1  0  0  0
 19 24  1  0  0  0
 20 21  2  0  0  0
 20 99  1  0  0  0
 21 23  1  0  0  0
 22 28  1  0  0  0
 22 32  2  0  0  0
 26 27  1  0  0  0
 28100  1  0  0  0
 28101  1  0  0  0
 29102  1  0  0  0
 29103  1  0  0  0
 33 34  1  0  0  0
 33 66  1  0  0  0
 33 70  2  0  0  0
 34 36  1  0  0  0
 34 59  1  0  0  0
 34104  1  0  0  0
 35 44  2  0  0  0
 35 45  1  0  0  0
 35 68  1  0  0  0
 36 56  1  0  0  0
 36105  1  0  0  0
 37 39  1  0  0  0
 37 47  1  0  0  0
 37 66  1  0  0  0
 37106  1  0  0  0
 38 43  2  0  0  0
 38 46  1  0  0  0
 38 47  1  0  0  0
 39 64  1  0  0  0
 39 67  2  0  0  0
 40 52  1  0  0  0
 40 53  2  0  0  0
 40 58  1  0  0  0
 41107  1  0  0  0
 41108  1  0  0  0
 41109  1  0  0  0
 41 48  1  0  0  0
 42 43  1  0  0  0
 42 66  1  0  0  0
 42110  1  0  0  0
 42111  1  0  0  0
 43 44  1  0  0  0
 44112  1  0  0  0
 45 46  2  0  0  0
 45113  1  0  0  0
 46114  1  0  0  0
 47115  1  0  0  0
 47116  1  0  0  0
 48 56  1  0  0  0
 48 65  1  0  0  0
 48117  1  0  0  0
 49 50  1  0  0  0
 49 53  1  0  0  0
 49 64  1  0  0  0
 49118  1  0  0  0
 50 51  1  0  0  0
 50119  1  0  0  0
 50120  1  0  0  0
 51 52  1  0  0  0
 51121  1  0  0  0
 51122  1  0  0  0
 52123  1  0  0  0
 52124  1  0  0  0
 53 54  1  0  0  0
 54 55  2  0  0  0
 54125  1  0  0  0
 55 57  1  0  0  0
 55126  1  0  0  0
 56 69  2  0  0  0
 57 58  2  0  0  0
 57127  1  0  0  0
 58128  1  0  0  0
 59 60  1  0  0  0
 59 61  1  0  0  0
 59 62  1  0  0  0
 60129  1  0  0  0
 60130  1  0  0  0
 60131  1  0  0  0
 61132  1  0  0  0
 61133  1  0  0  0
 61134  1  0  0  0
 62135  1  0  0  0
 62136  1  0  0  0
 62137  1  0  0  0
 63 65  1  0  0  0
 63138  1  0  0  0
 63139  1  0  0  0
 63140  1  0  0  0
 64141  1  0  0  0
 65142  1  0  0  0
 68 79  1  0  0  0
 71 73  1  0  0  0
 71 74  2  0  0  0
 71143  1  0  0  0
 72 73  2  0  0  0
 72 83  1  0  0  0
 72144  1  0  0  0
 73 75  1  0  0  0
 74 81  1  0  0  0
 74 83  1  0  0  0
 75 78  1  0  0  0
 75 82  2  0  0  0
 76145  1  0  0  0
 76146  1  0  0  0
 76147  1  0  0  0
 76 80  1  0  0  0
 77 80  1  0  0  0
 77148  1  0  0  0
 77149  1  0  0  0
 77150  1  0  0  0
 78 80  1  0  0  0
 78151  1  0  0  0
 78152  1  0  0  0
 79 80  1  0  0  0
 79153  1  0  0  0
 79154  1  0  0  0
 81155  1  0  0  0
M  ISO  4   1 100  68 101  79 101  81 100
M  END
> <chiral flag>
0

> <version>
0

> <s_m_source_file>
/data/baiqing/PycharmProjects/Reinvent-master-3.2/result/LINK_invent/BTK/process_docking_weight1_custom_product_contain_oxygen_bond_distance_aromatic_linkinvent_7_9_3/rearranged_h_0147.sdf

> <i_m_source_file_index>
43

> <r_mmod_Potential_Energy-OPLS-2005>
175.806640625

> <r_mmod_Stretch_Energy-OPLS-2005>
121.771125793457

> <r_mmod_Bend_Energy-OPLS-2005>
181.020324707031

> <r_mmod_Torsional_Energy-OPLS-2005>
245.116256713867

> <r_mmod_Improper_Torsional_Energy-OPLS-2005>
7.65960884094238

> <r_mmod_Van_der_Waal_Energy-OPLS-2005>
116.307907104492

> <r_mmod_Electrostatic_Energy-OPLS-2005>
-360.933715820312

> <r_mmod_Solvation_Energy-OPLS-2005>
-221.200469970703

> <b_mmod_Minimization_Converged-OPLS-2005>
0

> <r_mmod_RMS_Derivative-OPLS-2005>
2.45224332809448

$$$$
43
                    3D
 Structure written by MMmdl.
162171  0  0  1  0            999 V2000
  -30.6366  -14.6414   20.4830 C   0  0  0  0  0  0
  -30.4322  -12.3831   19.4762 C   0  0  0  0  0  0
  -29.5155  -12.4817   18.2371 C   0  0  0  0  0  0
  -28.0337  -12.3475   18.6398 C   0  0  0  0  0  0
  -27.6535  -13.2244   19.8638 C   0  0  2  0  0  0
  -28.6928  -13.1006   21.0007 C   0  0  0  0  0  0
  -25.2561  -13.8190   20.5689 C   0  0  0  0  0  0
  -24.1827  -13.0456   20.9183 C   0  0  0  0  0  0
  -24.6394  -11.6922   20.8727 C   0  0  0  0  0  0
  -23.9058  -10.4305   21.0392 C   0  0  0  0  0  0
  -24.3612   -9.4224   21.9173 C   0  0  0  0  0  0
  -23.6288   -8.2264   22.0755 C   0  0  0  0  0  0
  -22.4265   -8.0297   21.3551 C   0  0  0  0  0  0
  -21.9895   -9.0264   20.4647 C   0  0  0  0  0  0
  -22.7230  -10.2143   20.3045 C   0  0  0  0  0  0
  -21.6870   -6.0741   22.5268 C   0  0  0  0  0  0
  -21.4033   -6.5645   23.8203 C   0  0  0  0  0  0
  -21.3654   -5.6790   24.9168 C   0  0  0  0  0  0
  -21.6033   -4.3055   24.7212 C   0  0  0  0  0  0
  -21.8821   -3.8151   23.4337 C   0  0  0  0  0  0
  -21.9195   -4.6965   22.3396 C   0  0  0  0  0  0
  -22.7844  -13.5244   21.1834 C   0  0  0  0  0  0
  -22.1668   -4.2150   21.0974 F   0  0  0  0  0  0
  -21.5609   -3.4534   25.7729 F   0  0  0  0  0  0
  -30.0114  -13.4226   20.4402 N   0  0  0  0  0  0
  -26.2992  -12.9380   20.3306 N   0  0  0  0  0  0
  -25.9325  -11.6529   20.5744 N   0  0  0  0  0  0
  -22.0502  -12.8246   22.0402 N   0  0  0  0  0  0
  -25.4288  -15.1913   20.4120 N   0  0  0  0  0  0
  -31.7969  -14.7760   20.0849 O   0  0  0  0  0  0
  -21.6651   -6.8885   21.4234 O   0  0  0  0  0  0
  -22.3523  -14.5554   20.6690 O   0  0  0  0  0  0
  -24.6247  -31.8604   23.2051 C   0  0  0  0  0  0
  -25.9098  -32.4791   23.8385 C   0  0  1  0  0  0
  -27.2143  -27.3214   20.1226 C   0  0  0  0  0  0
  -25.5929  -33.8597   24.2313 N   0  0  0  0  0  0
  -23.4193  -30.4831   21.5464 C   0  0  2  0  0  0
  -24.8666  -28.9416   20.1111 C   0  0  0  0  0  0
  -22.7465  -29.4610   22.4928 C   0  0  0  0  0  0
  -18.0285  -28.1379   22.8470 C   0  0  0  0  0  0
  -24.1494  -36.7285   23.2638 C   0  0  0  0  0  0
  -25.9595  -30.7897   21.3787 C   0  0  0  0  0  0
  -26.0345  -29.4177   20.7217 C   0  0  0  0  0  0
  -27.2158  -28.6180   20.7199 C   0  0  0  0  0  0
  -26.0330  -26.9064   19.4698 C   0  0  0  0  0  0
  -24.8675  -27.6918   19.4749 C   0  0  0  0  0  0
  -23.6358  -29.8216   20.1610 C   0  0  0  0  0  0
  -25.4119  -36.3088   24.0334 C   0  0  1  0  0  0
  -20.5882  -28.3674   23.1277 C   0  0  2  0  0  0
  -20.6764  -26.9397   22.5393 C   0  0  0  0  0  0
  -19.5751  -26.6380   21.5180 C   0  0  0  0  0  0
  -18.1933  -26.7920   22.1602 C   0  0  0  0  0  0
  -19.1538  -28.8844   23.2871 C   0  0  0  0  0  0
  -18.9458  -30.1446   23.8892 C   0  0  0  0  0  0
  -17.6459  -30.6581   24.0556 C   0  0  0  0  0  0
  -25.9043  -34.9452   23.5113 C   0  0  0  0  0  0
  -16.5348  -29.9074   23.6336 C   0  0  0  0  0  0
  -16.7270  -28.6494   23.0355 C   0  0  0  0  0  0
  -26.4493  -31.6602   25.0750 C   0  0  0  0  0  0
  -25.3734  -31.3717   26.1476 C   0  0  0  0  0  0
  -27.0334  -30.3042   24.6177 C   0  0  0  0  0  0
  -27.6078  -32.4315   25.7505 C   0  0  0  0  0  0
  -27.5583  -37.1803   24.8466 C   0  0  0  0  0  0
  -21.4177  -29.3039   22.3677 N   0  0  0  0  0  0
  -26.4299  -37.3776   23.9406 N   0  0  0  0  0  0
  -24.6865  -31.0612   22.1009 N   0  0  0  0  0  0
  -23.4189  -28.8138   23.2997 O   0  0  0  0  0  0
  -28.3058  -26.4457   20.1716 O   0  0  0  0  0  0
  -26.5592  -34.8901   22.4666 O   0  0  0  0  0  0
  -23.5411  -32.1414   23.7367 O   0  0  0  0  0  0
  -28.9741  -17.6841   17.7505 C   0  0  0  0  0  0
  -28.8765  -19.0065   18.2079 C   0  0  0  0  0  0
  -29.3543  -16.6528   18.6149 C   0  0  0  0  0  0
  -29.5516  -18.2874   20.4221 C   0  0  0  0  0  0
  -29.1801  -19.3827   19.5432 C   0  0  0  0  0  0
  -29.6433  -16.9108   19.9695 C   0  0  0  0  0  0
  -28.6934  -22.7025   21.5330 C   0  0  0  0  0  0
  -29.1198  -23.2538   19.1360 C   0  0  0  0  0  0
  -29.3870  -21.3176   21.2408 C   0  0  0  0  0  0
  -28.5332  -21.8107   18.9703 C   0  0  0  0  0  0
  -29.0546  -23.8874   20.5615 C   0  0  0  0  0  0
  -30.4403  -24.4416   20.9524 C   0  0  0  0  0  0
  -28.0064  -25.0857   20.6820 C   0  0  0  0  0  0
  -29.0860  -20.7890   19.9001 N   0  0  0  0  0  0
  -29.8835  -15.7415   20.8171 N   0  0  0  0  0  0
  -31.4775  -12.4884   19.1813 H   0  0  0  0  0  0
  -30.3528  -11.3949   19.9318 H   0  0  0  0  0  0
  -29.7753  -11.7039   17.5171 H   0  0  0  0  0  0
  -29.6802  -13.4305   17.7264 H   0  0  0  0  0  0
  -27.8520  -11.2970   18.8717 H   0  0  0  0  0  0
  -27.3901  -12.5884   17.7932 H   0  0  0  0  0  0
  -27.6654  -14.2580   19.5175 H   0  0  0  0  0  0
  -28.6969  -12.0909   21.4122 H   0  0  0  0  0  0
  -28.4385  -13.7611   21.8299 H   0  0  0  0  0  0
  -25.2752   -9.5710   22.4752 H   0  0  0  0  0  0
  -24.0001   -7.4659   22.7474 H   0  0  0  0  0  0
  -21.0826   -8.8775   19.8950 H   0  0  0  0  0  0
  -22.3678  -10.9684   19.6156 H   0  0  0  0  0  0
  -21.2061   -7.6156   23.9705 H   0  0  0  0  0  0
  -21.1461   -6.0529   25.9066 H   0  0  0  0  0  0
  -22.0606   -2.7610   23.2832 H   0  0  0  0  0  0
  -22.4118  -11.9923   22.4824 H   0  0  0  0  0  0
  -21.1114  -13.1269   22.2591 H   0  0  0  0  0  0
  -24.6663  -15.8508   20.5211 H   0  0  0  0  0  0
  -26.2799  -15.6251   20.0786 H   0  0  0  0  0  0
  -26.7151  -32.5457   23.1116 H   0  0  0  0  0  0
  -25.0133  -33.9766   25.0498 H   0  0  0  0  0  0
  -22.7136  -31.3043   21.4044 H   0  0  0  0  0  0
  -23.3760  -35.9613   23.3304 H   0  0  0  0  0  0
  -24.3579  -36.8898   22.2053 H   0  0  0  0  0  0
  -23.7241  -37.6487   23.6645 H   0  0  0  0  0  0
  -26.0910  -31.5527   20.6103 H   0  0  0  0  0  0
  -26.8403  -30.8396   22.0068 H   0  0  0  0  0  0
  -28.1106  -28.9692   21.2145 H   0  0  0  0  0  0
  -25.9938  -25.9600   18.9503 H   0  0  0  0  0  0
  -23.9761  -27.3303   18.9810 H   0  0  0  0  0  0
  -23.7585  -30.6000   19.4068 H   0  0  0  0  0  0
  -22.7557  -29.2533   19.8538 H   0  0  0  0  0  0
  -25.1294  -36.1948   25.0829 H   0  0  0  0  0  0
  -20.9981  -28.3238   24.1397 H   0  0  0  0  0  0
  -20.5630  -26.2283   23.3589 H   0  0  0  0  0  0
  -21.6640  -26.7404   22.1211 H   0  0  0  0  0  0
  -19.6906  -25.6285   21.1227 H   0  0  0  0  0  0
  -19.6708  -27.3174   20.6699 H   0  0  0  0  0  0
  -17.4194  -26.6660   21.4012 H   0  0  0  0  0  0
  -18.0354  -26.0065   22.9011 H   0  0  0  0  0  0
  -19.7935  -30.7260   24.2273 H   0  0  0  0  0  0
  -17.5013  -31.6265   24.5145 H   0  0  0  0  0  0
  -15.5349  -30.2970   23.7669 H   0  0  0  0  0  0
  -15.8671  -28.0802   22.7090 H   0  0  0  0  0  0
  -24.5918  -30.7055   25.7797 H   0  0  0  0  0  0
  -24.8904  -32.2868   26.4918 H   0  0  0  0  0  0
  -25.8074  -30.8891   27.0241 H   0  0  0  0  0  0
  -26.2905  -29.6802   24.1194 H   0  0  0  0  0  0
  -27.4045  -29.7286   25.4665 H   0  0  0  0  0  0
  -27.8765  -30.4357   23.9392 H   0  0  0  0  0  0
  -27.2731  -33.3618   26.2092 H   0  0  0  0  0  0
  -28.3877  -32.6860   25.0320 H   0  0  0  0  0  0
  -28.0740  -31.8424   26.5405 H   0  0  0  0  0  0
  -28.2598  -38.0102   24.7504 H   0  0  0  0  0  0
  -28.1079  -36.2628   24.6301 H   0  0  0  0  0  0
  -27.2289  -37.1460   25.8867 H   0  0  0  0  0  0
  -20.9344  -29.8802   21.6926 H   0  0  0  0  0  0
  -26.0180  -38.2847   24.1421 H   0  0  0  0  0  0
  -28.7339  -17.4601   16.7214 H   0  0  0  0  0  0
  -28.5502  -19.7044   17.4583 H   0  0  0  0  0  0
  -29.3815  -15.6480   18.2220 H   0  0  0  0  0  0
  -29.7634  -18.4930   21.4601 H   0  0  0  0  0  0
  -28.9083  -22.9973   22.5613 H   0  0  0  0  0  0
  -27.6133  -22.5493   21.5149 H   0  0  0  0  0  0
  -28.6222  -23.9164   18.4255 H   0  0  0  0  0  0
  -30.1563  -23.2198   18.7970 H   0  0  0  0  0  0
  -29.0754  -20.5983   21.9983 H   0  0  0  0  0  0
  -30.4688  -21.4193   21.3377 H   0  0  0  0  0  0
  -28.7261  -21.5717   17.9291 H   0  0  0  0  0  0
  -27.4473  -21.8289   19.0869 H   0  0  0  0  0  0
  -31.2110  -23.6708   20.9108 H   0  0  0  0  0  0
  -30.4367  -24.8411   21.9677 H   0  0  0  0  0  0
  -30.7462  -25.2465   20.2810 H   0  0  0  0  0  0
  -27.8041  -25.2335   21.7444 H   0  0  0  0  0  0
  -27.0677  -24.7049   20.2845 H   0  0  0  0  0  0
  -29.1011  -15.5155   21.4137 H   0  0  0  0  0  0
  1 25  1  0  0  0
  1 30  2  0  0  0
  1 85  1  0  0  0
  2  3  1  0  0  0
  2 25  1  0  0  0
  2 86  1  0  0  0
  2 87  1  0  0  0
  3  4  1  0  0  0
  3 88  1  0  0  0
  3 89  1  0  0  0
  4  5  1  0  0  0
  4 90  1  0  0  0
  4 91  1  0  0  0
  5  6  1  0  0  0
  5 26  1  0  0  0
  5 92  1  0  0  0
  6 25  1  0  0  0
  6 93  1  0  0  0
  6 94  1  0  0  0
  7  8  2  0  0  0
  7 26  1  0  0  0
  7 29  1  0  0  0
  8  9  1  0  0  0
  8 22  1  0  0  0
  9 10  1  0  0  0
  9 27  2  0  0  0
 10 11  2  0  0  0
 10 15  1  0  0  0
 11 12  1  0  0  0
 11 95  1  0  0  0
 12 13  2  0  0  0
 12 96  1  0  0  0
 13 14  1  0  0  0
 13 31  1  0  0  0
 14 15  2  0  0  0
 14 97  1  0  0  0
 15 98  1  0  0  0
 16 17  2  0  0  0
 16 21  1  0  0  0
 16 31  1  0  0  0
 17 18  1  0  0  0
 17 99  1  0  0  0
 18 19  2  0  0  0
 18100  1  0  0  0
 19 20  1  0  0  0
 19 24  1  0  0  0
 20 21  2  0  0  0
 20101  1  0  0  0
 21 23  1  0  0  0
 22 28  1  0  0  0
 22 32  2  0  0  0
 26 27  1  0  0  0
 28102  1  0  0  0
 28103  1  0  0  0
 29104  1  0  0  0
 29105  1  0  0  0
 33 34  1  0  0  0
 33 66  1  0  0  0
 33 70  2  0  0  0
 34 36  1  0  0  0
 34 59  1  0  0  0
 34106  1  0  0  0
 35 44  2  0  0  0
 35 45  1  0  0  0
 35 68  1  0  0  0
 36 56  1  0  0  0
 36107  1  0  0  0
 37 39  1  0  0  0
 37 47  1  0  0  0
 37 66  1  0  0  0
 37108  1  0  0  0
 38 43  2  0  0  0
 38 46  1  0  0  0
 38 47  1  0  0  0
 39 64  1  0  0  0
 39 67  2  0  0  0
 40 52  1  0  0  0
 40 53  2  0  0  0
 40 58  1  0  0  0
 41109  1  0  0  0
 41110  1  0  0  0
 41111  1  0  0  0
 41 48  1  0  0  0
 42 43  1  0  0  0
 42 66  1  0  0  0
 42112  1  0  0  0
 42113  1  0  0  0
 43 44  1  0  0  0
 44114  1  0  0  0
 45 46  2  0  0  0
 45115  1  0  0  0
 46116  1  0  0  0
 47117  1  0  0  0
 47118  1  0  0  0
 48 56  1  0  0  0
 48 65  1  0  0  0
 48119  1  0  0  0
 49 50  1  0  0  0
 49 53  1  0  0  0
 49 64  1  0  0  0
 49120  1  0  0  0
 50 51  1  0  0  0
 50121  1  0  0  0
 50122  1  0  0  0
 51 52  1  0  0  0
 51123  1  0  0  0
 51124  1  0  0  0
 52125  1  0  0  0
 52126  1  0  0  0
 53 54  1  0  0  0
 54 55  2  0  0  0
 54127  1  0  0  0
 55 57  1  0  0  0
 55128  1  0  0  0
 56 69  2  0  0  0
 57 58  2  0  0  0
 57129  1  0  0  0
 58130  1  0  0  0
 59 60  1  0  0  0
 59 61  1  0  0  0
 59 62  1  0  0  0
 60131  1  0  0  0
 60132  1  0  0  0
 60133  1  0  0  0
 61134  1  0  0  0
 61135  1  0  0  0
 61136  1  0  0  0
 62137  1  0  0  0
 62138  1  0  0  0
 62139  1  0  0  0
 63 65  1  0  0  0
 63140  1  0  0  0
 63141  1  0  0  0
 63142  1  0  0  0
 64143  1  0  0  0
 65144  1  0  0  0
 68 83  1  0  0  0
 71 72  2  0  0  0
 71 73  1  0  0  0
 71145  1  0  0  0
 72 75  1  0  0  0
 72146  1  0  0  0
 73 76  2  0  0  0
 73147  1  0  0  0
 74 75  2  0  0  0
 74 76  1  0  0  0
 74148  1  0  0  0
 75 84  1  0  0  0
 76 85  1  0  0  0
 77 79  1  0  0  0
 77 81  1  0  0  0
 77149  1  0  0  0
 77150  1  0  0  0
 78 80  1  0  0  0
 78 81  1  0  0  0
 78151  1  0  0  0
 78152  1  0  0  0
 79 84  1  0  0  0
 79153  1  0  0  0
 79154  1  0  0  0
 80 84  1  0  0  0
 80155  1  0  0  0
 80156  1  0  0  0
 81 82  1  0  0  0
 81 83  1  0  0  0
 82157  1  0  0  0
 82158  1  0  0  0
 82159  1  0  0  0
 83160  1  0  0  0
 83161  1  0  0  0
 85162  1  0  0  0
M  ISO  4   1 100  68 101  83 101  85 100
M  END
> <chiral flag>
0

> <version>
0

> <s_m_source_file>
/data/baiqing/PycharmProjects/Reinvent-master-3.2/result/LINK_invent/BTK/process_docking_weight1_custom_product_contain_oxygen_bond_distance_aromatic_linkinvent_7_9_3/rearranged_h_0147.sdf

> <i_m_source_file_index>
44

> <r_mmod_Potential_Energy-OPLS-2005>
199.727691650391

> <r_mmod_Stretch_Energy-OPLS-2005>
87.8248443603516

> <r_mmod_Bend_Energy-OPLS-2005>
157.917907714844

> <r_mmod_Torsional_Energy-OPLS-2005>
313.701263427734

> <r_mmod_Improper_Torsional_Energy-OPLS-2005>
6.93473291397095

> <r_mmod_Van_der_Waal_Energy-OPLS-2005>
160.951019287109

> <r_mmod_Electrostatic_Energy-OPLS-2005>
-354.916137695312

> <r_mmod_Solvation_Energy-OPLS-2005>
-224.349487304688

> <b_mmod_Minimization_Converged-OPLS-2005>
0

> <r_mmod_RMS_Derivative-OPLS-2005>
1.93652784824371

$$$$
44
                    3D
 Structure written by MMmdl.
157166  0  0  1  0            999 V2000
  -30.5993  -14.7356   20.4504 C   0  0  0  0  0  0
  -30.4291  -12.4415   19.4704 C   0  0  0  0  0  0
  -29.5057  -12.4912   18.2333 C   0  0  0  0  0  0
  -28.0316  -12.3156   18.6476 C   0  0  0  0  0  0
  -27.6354  -13.2251   19.8416 C   0  0  2  0  0  0
  -28.6793  -13.1593   20.9775 C   0  0  0  0  0  0
  -25.2484  -13.8198   20.5672 C   0  0  0  0  0  0
  -24.1779  -13.0443   20.9218 C   0  0  0  0  0  0
  -24.6362  -11.6924   20.8762 C   0  0  0  0  0  0
  -23.9038  -10.4304   21.0408 C   0  0  0  0  0  0
  -24.3589   -9.4217   21.9183 C   0  0  0  0  0  0
  -23.6273   -8.2244   22.0748 C   0  0  0  0  0  0
  -22.4263   -8.0266   21.3535 C   0  0  0  0  0  0
  -21.9901   -9.0246   20.4642 C   0  0  0  0  0  0
  -22.7214  -10.2139   20.3050 C   0  0  0  0  0  0
  -21.6855   -6.0719   22.5278 C   0  0  0  0  0  0
  -21.4023   -6.5629   23.8209 C   0  0  0  0  0  0
  -21.3661   -5.6787   24.9176 C   0  0  0  0  0  0
  -21.6036   -4.3046   24.7227 C   0  0  0  0  0  0
  -21.8817   -3.8135   23.4353 C   0  0  0  0  0  0
  -21.9193   -4.6948   22.3407 C   0  0  0  0  0  0
  -22.7795  -13.5217   21.1892 C   0  0  0  0  0  0
  -22.1658   -4.2124   21.0986 F   0  0  0  0  0  0
  -21.5626   -3.4536   25.7743 F   0  0  0  0  0  0
  -29.9836  -13.5062   20.3972 N   0  0  0  0  0  0
  -26.2883  -12.9374   20.3222 N   0  0  0  0  0  0
  -25.9286  -11.6535   20.5758 N   0  0  0  0  0  0
  -22.0431  -12.8200   22.0439 N   0  0  0  0  0  0
  -25.4182  -15.1922   20.4068 N   0  0  0  0  0  0
  -31.7963  -14.8331   20.1604 O   0  0  0  0  0  0
  -21.6628   -6.8859   21.4237 O   0  0  0  0  0  0
  -22.3469  -14.5518   20.6739 O   0  0  0  0  0  0
  -24.6310  -31.8553   23.1994 C   0  0  0  0  0  0
  -25.9133  -32.4755   23.8346 C   0  0  1  0  0  0
  -27.2209  -27.2619   20.1318 C   0  0  0  0  0  0
  -25.5932  -33.8557   24.2263 N   0  0  0  0  0  0
  -23.4278  -30.4776   21.5435 C   0  0  2  0  0  0
  -24.8765  -28.9244   20.1125 C   0  0  0  0  0  0
  -22.7509  -29.4595   22.4929 C   0  0  0  0  0  0
  -18.0291  -28.1393   22.8478 C   0  0  0  0  0  0
  -24.1487  -36.7286   23.2638 C   0  0  0  0  0  0
  -25.9742  -30.7679   21.3801 C   0  0  0  0  0  0
  -26.0480  -29.3892   20.7239 C   0  0  0  0  0  0
  -27.2245  -28.5713   20.7209 C   0  0  0  0  0  0
  -26.0305  -26.8715   19.4794 C   0  0  0  0  0  0
  -24.8729  -27.6732   19.4782 C   0  0  0  0  0  0
  -23.6467  -29.8117   20.1598 C   0  0  0  0  0  0
  -25.4111  -36.3071   24.0326 C   0  0  1  0  0  0
  -20.5895  -28.3697   23.1275 C   0  0  2  0  0  0
  -20.6781  -26.9418   22.5403 C   0  0  0  0  0  0
  -19.5759  -26.6389   21.5209 C   0  0  0  0  0  0
  -18.1940  -26.7932   22.1623 C   0  0  0  0  0  0
  -19.1543  -28.8864   23.2868 C   0  0  0  0  0  0
  -18.9465  -30.1466   23.8884 C   0  0  0  0  0  0
  -17.6466  -30.6591   24.0564 C   0  0  0  0  0  0
  -25.9053  -34.9439   23.5099 C   0  0  0  0  0  0
  -16.5355  -29.9089   23.6336 C   0  0  0  0  0  0
  -16.7279  -28.6511   23.0349 C   0  0  0  0  0  0
  -26.4500  -31.6583   25.0736 C   0  0  0  0  0  0
  -25.3725  -31.3746   26.1464 C   0  0  0  0  0  0
  -27.0344  -30.2997   24.6224 C   0  0  0  0  0  0
  -27.6061  -32.4326   25.7496 C   0  0  0  0  0  0
  -27.5581  -37.1792   24.8463 C   0  0  0  0  0  0
  -21.4216  -29.3041   22.3662 N   0  0  0  0  0  0
  -26.4288  -37.3770   23.9415 N   0  0  0  0  0  0
  -24.6964  -31.0520   22.0970 N   0  0  0  0  0  0
  -23.4211  -28.8139   23.3032 O   0  0  0  0  0  0
  -28.3133  -26.3640   20.1590 O   0  0  0  0  0  0
  -26.5625  -34.8912   22.4669 O   0  0  0  0  0  0
  -23.5460  -32.1376   23.7287 O   0  0  0  0  0  0
  -29.1678  -18.3193   20.3343 C   0  0  0  0  0  0
  -31.0508  -19.5927   20.7065 C   0  0  0  0  0  0
  -29.7196  -19.6864   20.3791 C   0  0  0  0  0  0
  -30.0434  -17.2360   20.5649 C   0  0  0  0  0  0
  -29.6175  -21.7616   18.7844 C   0  0  0  0  0  0
  -29.0970  -23.2240   18.7909 C   0  0  0  0  0  0
  -28.9093  -22.3082   21.0086 C   0  0  0  0  0  0
  -29.0085  -21.0617   20.0123 C   0  0  2  0  0  0
  -29.1146  -23.7212   20.2533 C   0  0  1  0  0  0
  -30.5149  -24.2566   20.6107 C   0  0  0  0  0  0
  -28.0561  -24.9253   20.5311 C   0  0  0  0  0  0
  -29.7834  -15.8534   20.5878 N   0  0  0  0  0  0
  -31.6189  -17.9354   20.8849 S   0  0  0  0  0  0
  -31.4691  -12.5701   19.1666 H   0  0  0  0  0  0
  -30.3782  -11.4660   19.9573 H   0  0  0  0  0  0
  -29.7889  -11.7171   17.5193 H   0  0  0  0  0  0
  -29.6289  -13.4474   17.7226 H   0  0  0  0  0  0
  -27.8933  -11.2704   18.9231 H   0  0  0  0  0  0
  -27.3733  -12.4913   17.7968 H   0  0  0  0  0  0
  -27.6270  -14.2429   19.4532 H   0  0  0  0  0  0
  -28.7069  -12.1632   21.4203 H   0  0  0  0  0  0
  -28.4142  -13.8456   21.7844 H   0  0  0  0  0  0
  -25.2731   -9.5691   22.4754 H   0  0  0  0  0  0
  -23.9974   -7.4641   22.7478 H   0  0  0  0  0  0
  -21.0827   -8.8762   19.8952 H   0  0  0  0  0  0
  -22.3657  -10.9674   19.6156 H   0  0  0  0  0  0
  -21.2010   -7.6139   23.9714 H   0  0  0  0  0  0
  -21.1490   -6.0514   25.9079 H   0  0  0  0  0  0
  -22.0591   -2.7600   23.2866 H   0  0  0  0  0  0
  -22.4038  -11.9858   22.4829 H   0  0  0  0  0  0
  -21.1063  -13.1255   22.2685 H   0  0  0  0  0  0
  -24.6469  -15.8442   20.4997 H   0  0  0  0  0  0
  -26.2513  -15.6243   20.0294 H   0  0  0  0  0  0
  -26.7201  -32.5407   23.1093 H   0  0  0  0  0  0
  -25.0072  -33.9696   25.0404 H   0  0  0  0  0  0
  -22.7232  -31.2989   21.3973 H   0  0  0  0  0  0
  -23.3749  -35.9621   23.3288 H   0  0  0  0  0  0
  -24.3576  -36.8919   22.2055 H   0  0  0  0  0  0
  -23.7240  -37.6483   23.6667 H   0  0  0  0  0  0
  -26.1123  -31.5269   20.6086 H   0  0  0  0  0  0
  -26.8516  -30.8187   22.0132 H   0  0  0  0  0  0
  -28.1219  -28.9233   21.2097 H   0  0  0  0  0  0
  -25.9757  -25.9284   18.9569 H   0  0  0  0  0  0
  -23.9799  -27.3175   18.9818 H   0  0  0  0  0  0
  -23.7720  -30.5884   19.4047 H   0  0  0  0  0  0
  -22.7648  -29.2464   19.8533 H   0  0  0  0  0  0
  -25.1290  -36.1916   25.0818 H   0  0  0  0  0  0
  -20.9975  -28.3272   24.1403 H   0  0  0  0  0  0
  -20.5690  -26.2311   23.3605 H   0  0  0  0  0  0
  -21.6649  -26.7447   22.1199 H   0  0  0  0  0  0
  -19.6923  -25.6299   21.1243 H   0  0  0  0  0  0
  -19.6700  -27.3195   20.6737 H   0  0  0  0  0  0
  -17.4207  -26.6672   21.4028 H   0  0  0  0  0  0
  -18.0345  -26.0078   22.9028 H   0  0  0  0  0  0
  -19.7941  -30.7281   24.2255 H   0  0  0  0  0  0
  -17.5019  -31.6266   24.5174 H   0  0  0  0  0  0
  -15.5353  -30.2988   23.7661 H   0  0  0  0  0  0
  -15.8684  -28.0823   22.7069 H   0  0  0  0  0  0
  -24.5885  -30.7107   25.7799 H   0  0  0  0  0  0
  -24.8938  -32.2925   26.4887 H   0  0  0  0  0  0
  -25.8045  -30.8924   27.0243 H   0  0  0  0  0  0
  -26.2931  -29.6742   24.1237 H   0  0  0  0  0  0
  -27.4008  -29.7262   25.4750 H   0  0  0  0  0  0
  -27.8817  -30.4266   23.9481 H   0  0  0  0  0  0
  -27.2670  -33.3626   26.2069 H   0  0  0  0  0  0
  -28.3864  -32.6885   25.0317 H   0  0  0  0  0  0
  -28.0736  -31.8456   26.5411 H   0  0  0  0  0  0
  -28.2590  -38.0098   24.7515 H   0  0  0  0  0  0
  -28.1082  -36.2626   24.6274 H   0  0  0  0  0  0
  -27.2302  -37.1422   25.8867 H   0  0  0  0  0  0
  -20.9410  -29.8756   21.6848 H   0  0  0  0  0  0
  -26.0161  -38.2839   24.1430 H   0  0  0  0  0  0
  -28.1219  -18.1839   20.0955 H   0  0  0  0  0  0
  -31.7587  -20.4053   20.8170 H   0  0  0  0  0  0
  -30.7043  -21.7724   18.8737 H   0  0  0  0  0  0
  -29.3805  -21.2399   17.8566 H   0  0  0  0  0  0
  -28.0730  -23.2284   18.4166 H   0  0  0  0  0  0
  -29.6730  -23.8668   18.1237 H   0  0  0  0  0  0
  -29.6515  -22.2025   21.8000 H   0  0  0  0  0  0
  -27.9453  -22.2849   21.5198 H   0  0  0  0  0  0
  -27.9773  -20.8246   19.7450 H   0  0  0  0  0  0
  -31.2945  -23.5096   20.4562 H   0  0  0  0  0  0
  -30.5586  -24.5645   21.6561 H   0  0  0  0  0  0
  -30.7717  -25.1255   20.0035 H   0  0  0  0  0  0
  -27.8900  -24.9513   21.6086 H   0  0  0  0  0  0
  -27.1047  -24.5849   20.1271 H   0  0  0  0  0  0
  -28.8078  -15.6113   20.6770 H   0  0  0  0  0  0
  1 25  1  0  0  0
  1 30  2  0  0  0
  1 82  1  0  0  0
  2  3  1  0  0  0
  2 25  1  0  0  0
  2 84  1  0  0  0
  2 85  1  0  0  0
  3  4  1  0  0  0
  3 86  1  0  0  0
  3 87  1  0  0  0
  4  5  1  0  0  0
  4 88  1  0  0  0
  4 89  1  0  0  0
  5  6  1  0  0  0
  5 26  1  0  0  0
  5 90  1  0  0  0
  6 25  1  0  0  0
  6 91  1  0  0  0
  6 92  1  0  0  0
  7  8  2  0  0  0
  7 26  1  0  0  0
  7 29  1  0  0  0
  8  9  1  0  0  0
  8 22  1  0  0  0
  9 10  1  0  0  0
  9 27  2  0  0  0
 10 11  2  0  0  0
 10 15  1  0  0  0
 11 12  1  0  0  0
 11 93  1  0  0  0
 12 13  2  0  0  0
 12 94  1  0  0  0
 13 14  1  0  0  0
 13 31  1  0  0  0
 14 15  2  0  0  0
 14 95  1  0  0  0
 15 96  1  0  0  0
 16 17  2  0  0  0
 16 21  1  0  0  0
 16 31  1  0  0  0
 17 18  1  0  0  0
 17 97  1  0  0  0
 18 19  2  0  0  0
 18 98  1  0  0  0
 19 20  1  0  0  0
 19 24  1  0  0  0
 20 21  2  0  0  0
 20 99  1  0  0  0
 21 23  1  0  0  0
 22 28  1  0  0  0
 22 32  2  0  0  0
 26 27  1  0  0  0
 28100  1  0  0  0
 28101  1  0  0  0
 29102  1  0  0  0
 29103  1  0  0  0
 33 34  1  0  0  0
 33 66  1  0  0  0
 33 70  2  0  0  0
 34 36  1  0  0  0
 34 59  1  0  0  0
 34104  1  0  0  0
 35 44  2  0  0  0
 35 45  1  0  0  0
 35 68  1  0  0  0
 36 56  1  0  0  0
 36105  1  0  0  0
 37 39  1  0  0  0
 37 47  1  0  0  0
 37 66  1  0  0  0
 37106  1  0  0  0
 38 43  2  0  0  0
 38 46  1  0  0  0
 38 47  1  0  0  0
 39 64  1  0  0  0
 39 67  2  0  0  0
 40 52  1  0  0  0
 40 53  2  0  0  0
 40 58  1  0  0  0
 41107  1  0  0  0
 41108  1  0  0  0
 41109  1  0  0  0
 41 48  1  0  0  0
 42 43  1  0  0  0
 42 66  1  0  0  0
 42110  1  0  0  0
 42111  1  0  0  0
 43 44  1  0  0  0
 44112  1  0  0  0
 45 46  2  0  0  0
 45113  1  0  0  0
 46114  1  0  0  0
 47115  1  0  0  0
 47116  1  0  0  0
 48 56  1  0  0  0
 48 65  1  0  0  0
 48117  1  0  0  0
 49 50  1  0  0  0
 49 53  1  0  0  0
 49 64  1  0  0  0
 49118  1  0  0  0
 50 51  1  0  0  0
 50119  1  0  0  0
 50120  1  0  0  0
 51 52  1  0  0  0
 51121  1  0  0  0
 51122  1  0  0  0
 52123  1  0  0  0
 52124  1  0  0  0
 53 54  1  0  0  0
 54 55  2  0  0  0
 54125  1  0  0  0
 55 57  1  0  0  0
 55126  1  0  0  0
 56 69  2  0  0  0
 57 58  2  0  0  0
 57127  1  0  0  0
 58128  1  0  0  0
 59 60  1  0  0  0
 59 61  1  0  0  0
 59 62  1  0  0  0
 60129  1  0  0  0
 60130  1  0  0  0
 60131  1  0  0  0
 61132  1  0  0  0
 61133  1  0  0  0
 61134  1  0  0  0
 62135  1  0  0  0
 62136  1  0  0  0
 62137  1  0  0  0
 63 65  1  0  0  0
 63138  1  0  0  0
 63139  1  0  0  0
 63140  1  0  0  0
 64141  1  0  0  0
 65142  1  0  0  0
 68 81  1  0  0  0
 71 73  1  0  0  0
 71 74  2  0  0  0
 71143  1  0  0  0
 72 73  2  0  0  0
 72 83  1  0  0  0
 72144  1  0  0  0
 73 78  1  0  0  0
 74 82  1  0  0  0
 74 83  1  0  0  0
 75 76  1  0  0  0
 75 78  1  0  0  0
 75145  1  0  0  0
 75146  1  0  0  0
 76 79  1  0  0  0
 76147  1  0  0  0
 76148  1  0  0  0
 77 78  1  0  0  0
 77 79  1  0  0  0
 77149  1  0  0  0
 77150  1  0  0  0
 78151  1  0  0  0
 79 80  1  0  0  0
 79 81  1  0  0  0
 80152  1  0  0  0
 80153  1  0  0  0
 80154  1  0  0  0
 81155  1  0  0  0
 81156  1  0  0  0
 82157  1  0  0  0
M  ISO  4   1 100  68 101  81 101  82 100
M  END
> <chiral flag>
0

> <version>
0

> <s_m_source_file>
/data/baiqing/PycharmProjects/Reinvent-master-3.2/result/LINK_invent/BTK/process_docking_weight1_custom_product_contain_oxygen_bond_distance_aromatic_linkinvent_7_9_3/rearranged_h_0147.sdf

> <i_m_source_file_index>
45

> <r_mmod_Potential_Energy-OPLS-2005>
202.840072631836

> <r_mmod_Stretch_Energy-OPLS-2005>
115.006881713867

> <r_mmod_Bend_Energy-OPLS-2005>
190.265960693359

> <r_mmod_Torsional_Energy-OPLS-2005>
279.884246826172

> <r_mmod_Improper_Torsional_Energy-OPLS-2005>
6.16295433044434

> <r_mmod_Van_der_Waal_Energy-OPLS-2005>
115.700401306152

> <r_mmod_Electrostatic_Energy-OPLS-2005>
-380.52783203125

> <r_mmod_Solvation_Energy-OPLS-2005>
-207.622100830078

> <b_mmod_Minimization_Converged-OPLS-2005>
0

> <r_mmod_RMS_Derivative-OPLS-2005>
2.35866951942444

$$$$
45
                    3D
 Structure written by MMmdl.
160169  0  0  1  0            999 V2000
  -30.6236  -14.5976   20.5155 C   0  0  0  0  0  0
  -30.4323  -12.3641   19.4413 C   0  0  0  0  0  0
  -29.5074  -12.5144   18.2132 C   0  0  0  0  0  0
  -28.0265  -12.3610   18.6193 C   0  0  0  0  0  0
  -27.6554  -13.2124   19.8636 C   0  0  2  0  0  0
  -28.6969  -13.0315   20.9906 C   0  0  0  0  0  0
  -25.2562  -13.8164   20.5659 C   0  0  0  0  0  0
  -24.1828  -13.0431   20.9166 C   0  0  0  0  0  0
  -24.6388  -11.6897   20.8714 C   0  0  0  0  0  0
  -23.9053  -10.4280   21.0403 C   0  0  0  0  0  0
  -24.3609   -9.4199   21.9182 C   0  0  0  0  0  0
  -23.6277   -8.2238   22.0766 C   0  0  0  0  0  0
  -22.4255   -8.0282   21.3558 C   0  0  0  0  0  0
  -21.9881   -9.0252   20.4665 C   0  0  0  0  0  0
  -22.7219  -10.2125   20.3054 C   0  0  0  0  0  0
  -21.6850   -6.0710   22.5268 C   0  0  0  0  0  0
  -21.4021   -6.5622   23.8197 C   0  0  0  0  0  0
  -21.3661   -5.6781   24.9169 C   0  0  0  0  0  0
  -21.6044   -4.3044   24.7226 C   0  0  0  0  0  0
  -21.8827   -3.8123   23.4346 C   0  0  0  0  0  0
  -21.9197   -4.6934   22.3394 C   0  0  0  0  0  0
  -22.7854  -13.5231   21.1849 C   0  0  0  0  0  0
  -22.1671   -4.2119   21.0972 F   0  0  0  0  0  0
  -21.5620   -3.4535   25.7742 F   0  0  0  0  0  0
  -30.0186  -13.3713   20.4381 N   0  0  0  0  0  0
  -26.2986  -12.9333   20.3284 N   0  0  0  0  0  0
  -25.9308  -11.6487   20.5715 N   0  0  0  0  0  0
  -22.0479  -12.8256   22.0415 N   0  0  0  0  0  0
  -25.4280  -15.1888   20.4093 N   0  0  0  0  0  0
  -31.7707  -14.7773   20.0945 O   0  0  0  0  0  0
  -21.6641   -6.8861   21.4234 O   0  0  0  0  0  0
  -22.3541  -14.5535   20.6690 O   0  0  0  0  0  0
  -24.6248  -31.8603   23.2080 C   0  0  0  0  0  0
  -25.9107  -32.4776   23.8377 C   0  0  1  0  0  0
  -27.2086  -27.3275   20.0989 C   0  0  0  0  0  0
  -25.5936  -33.8572   24.2304 N   0  0  0  0  0  0
  -23.4166  -30.4893   21.5508 C   0  0  2  0  0  0
  -24.8582  -28.9551   20.1086 C   0  0  0  0  0  0
  -22.7462  -29.4620   22.4935 C   0  0  0  0  0  0
  -18.0294  -28.1373   22.8494 C   0  0  0  0  0  0
  -24.1490  -36.7293   23.2632 C   0  0  0  0  0  0
  -25.9593  -30.7913   21.3827 C   0  0  0  0  0  0
  -26.0299  -29.4232   20.7176 C   0  0  0  0  0  0
  -27.2082  -28.6193   20.7096 C   0  0  0  0  0  0
  -26.0144  -26.9226   19.4555 C   0  0  0  0  0  0
  -24.8512  -27.7088   19.4711 C   0  0  0  0  0  0
  -23.6293  -29.8366   20.1623 C   0  0  0  0  0  0
  -25.4103  -36.3073   24.0332 C   0  0  1  0  0  0
  -20.5892  -28.3673   23.1289 C   0  0  2  0  0  0
  -20.6785  -26.9394   22.5410 C   0  0  0  0  0  0
  -19.5755  -26.6370   21.5218 C   0  0  0  0  0  0
  -18.1939  -26.7919   22.1633 C   0  0  0  0  0  0
  -19.1546  -28.8841   23.2888 C   0  0  0  0  0  0
  -18.9465  -30.1451   23.8893 C   0  0  0  0  0  0
  -17.6463  -30.6574   24.0569 C   0  0  0  0  0  0
  -25.9047  -34.9441   23.5110 C   0  0  0  0  0  0
  -16.5358  -29.9068   23.6327 C   0  0  0  0  0  0
  -16.7284  -28.6489   23.0345 C   0  0  0  0  0  0
  -26.4497  -31.6572   25.0736 C   0  0  0  0  0  0
  -25.3750  -31.3764   26.1495 C   0  0  0  0  0  0
  -27.0289  -30.2963   24.6205 C   0  0  0  0  0  0
  -27.6065  -32.4293   25.7503 C   0  0  0  0  0  0
  -27.5577  -37.1795   24.8450 C   0  0  0  0  0  0
  -21.4179  -29.3026   22.3677 N   0  0  0  0  0  0
  -26.4281  -37.3765   23.9411 N   0  0  0  0  0  0
  -24.6855  -31.0627   22.1038 N   0  0  0  0  0  0
  -23.4191  -28.8129   23.2987 O   0  0  0  0  0  0
  -28.3109  -26.4590   20.1486 O   0  0  0  0  0  0
  -26.5603  -34.8906   22.4675 O   0  0  0  0  0  0
  -23.5419  -32.1403   23.7423 O   0  0  0  0  0  0
  -28.6277  -19.2289   20.9939 C   0  0  0  0  0  0
  -30.6320  -19.1479   19.6703 C   0  0  0  0  0  0
  -28.7605  -17.8339   21.2570 C   0  0  0  0  0  0
  -30.7670  -17.7530   19.9315 C   0  0  0  0  0  0
  -29.5586  -19.9270   20.1829 C   0  0  0  0  0  0
  -29.8203  -17.0516   20.7201 C   0  0  0  0  0  0
  -30.6881  -22.2455   19.6555 C   0  0  0  0  0  0
  -30.2405  -23.7171   19.5292 C   0  0  0  0  0  0
  -28.4472  -22.4220   20.5288 C   0  0  0  0  0  0
  -29.3903  -21.4336   19.7552 C   0  0  2  0  0  0
  -29.0375  -23.8996   20.4771 C   0  0  1  0  0  0
  -29.5152  -24.2919   21.8882 C   0  0  0  0  0  0
  -28.0218  -25.0160   19.9815 C   0  0  0  0  0  0
  -29.8327  -15.6137   20.9743 N   0  0  0  0  0  0
  -31.4779  -12.4725   19.1473 H   0  0  0  0  0  0
  -30.3434  -11.3604   19.8596 H   0  0  0  0  0  0
  -29.7627  -11.7724   17.4545 H   0  0  0  0  0  0
  -29.6655  -13.4899   17.7497 H   0  0  0  0  0  0
  -27.8471  -11.3064   18.8271 H   0  0  0  0  0  0
  -27.3803  -12.6190   17.7796 H   0  0  0  0  0  0
  -27.6835  -14.2541   19.5454 H   0  0  0  0  0  0
  -28.6950  -12.0005   21.3460 H   0  0  0  0  0  0
  -28.4448  -13.6391   21.8602 H   0  0  0  0  0  0
  -25.2758   -9.5661   22.4756 H   0  0  0  0  0  0
  -23.9977   -7.4627   22.7490 H   0  0  0  0  0  0
  -21.0797   -8.8776   19.8982 H   0  0  0  0  0  0
  -22.3684  -10.9660   19.6158 H   0  0  0  0  0  0
  -21.2027   -7.6132   23.9690 H   0  0  0  0  0  0
  -21.1477   -6.0519   25.9069 H   0  0  0  0  0  0
  -22.0609   -2.7582   23.2868 H   0  0  0  0  0  0
  -22.4059  -11.9908   22.4817 H   0  0  0  0  0  0
  -21.1118  -13.1344   22.2624 H   0  0  0  0  0  0
  -24.6593  -15.8435   20.5059 H   0  0  0  0  0  0
  -26.2767  -15.6256   20.0698 H   0  0  0  0  0  0
  -26.7165  -32.5440   23.1111 H   0  0  0  0  0  0
  -25.0094  -33.9716   25.0462 H   0  0  0  0  0  0
  -22.7102  -31.3111   21.4158 H   0  0  0  0  0  0
  -23.3744  -35.9633   23.3282 H   0  0  0  0  0  0
  -24.3595  -36.8918   22.2045 H   0  0  0  0  0  0
  -23.7253  -37.6499   23.6661 H   0  0  0  0  0  0
  -26.0963  -31.5607   20.6223 H   0  0  0  0  0  0
  -26.8375  -30.8291   22.0154 H   0  0  0  0  0  0
  -28.1032  -28.9661   21.2070 H   0  0  0  0  0  0
  -25.9408  -25.9803   18.9347 H   0  0  0  0  0  0
  -23.9547  -27.3492   18.9849 H   0  0  0  0  0  0
  -23.7520  -30.6195   19.4129 H   0  0  0  0  0  0
  -22.7471  -29.2729   19.8531 H   0  0  0  0  0  0
  -25.1279  -36.1923   25.0825 H   0  0  0  0  0  0
  -21.0000  -28.3252   24.1404 H   0  0  0  0  0  0
  -20.5690  -26.2272   23.3604 H   0  0  0  0  0  0
  -21.6655  -26.7420   22.1198 H   0  0  0  0  0  0
  -19.6907  -25.6285   21.1229 H   0  0  0  0  0  0
  -19.6682  -27.3196   20.6760 H   0  0  0  0  0  0
  -17.4202  -26.6673   21.4041 H   0  0  0  0  0  0
  -18.0331  -26.0053   22.9018 H   0  0  0  0  0  0
  -19.7943  -30.7280   24.2238 H   0  0  0  0  0  0
  -17.5013  -31.6251   24.5172 H   0  0  0  0  0  0
  -15.5357  -30.2963   23.7642 H   0  0  0  0  0  0
  -15.8692  -28.0804   22.7047 H   0  0  0  0  0  0
  -24.5887  -30.7132   25.7877 H   0  0  0  0  0  0
  -24.9007  -32.2964   26.4920 H   0  0  0  0  0  0
  -25.8094  -30.8951   27.0268 H   0  0  0  0  0  0
  -26.2840  -29.6755   24.1211 H   0  0  0  0  0  0
  -27.3917  -29.7182   25.4718 H   0  0  0  0  0  0
  -27.8763  -30.4192   23.9456 H   0  0  0  0  0  0
  -27.2676  -33.3590   26.2093 H   0  0  0  0  0  0
  -28.3884  -32.6852   25.0338 H   0  0  0  0  0  0
  -28.0723  -31.8407   26.5423 H   0  0  0  0  0  0
  -28.2579  -38.0106   24.7514 H   0  0  0  0  0  0
  -28.1092  -36.2643   24.6245 H   0  0  0  0  0  0
  -27.2313  -37.1409   25.8857 H   0  0  0  0  0  0
  -20.9337  -29.8768   21.6920 H   0  0  0  0  0  0
  -26.0160  -38.2832   24.1443 H   0  0  0  0  0  0
  -27.7740  -19.7541   21.4003 H   0  0  0  0  0  0
  -31.3654  -19.6125   19.0269 H   0  0  0  0  0  0
  -28.0077  -17.3548   21.8685 H   0  0  0  0  0  0
  -31.6001  -17.2292   19.4862 H   0  0  0  0  0  0
  -31.2783  -22.1163   20.5633 H   0  0  0  0  0  0
  -31.3040  -21.9347   18.8103 H   0  0  0  0  0  0
  -29.9254  -23.8911   18.4992 H   0  0  0  0  0  0
  -31.0494  -24.4200   19.7335 H   0  0  0  0  0  0
  -28.3394  -22.1000   21.5651 H   0  0  0  0  0  0
  -27.4430  -22.3787   20.1035 H   0  0  0  0  0  0
  -28.9867  -21.3798   18.7427 H   0  0  0  0  0  0
  -30.1996  -23.5525   22.3054 H   0  0  0  0  0  0
  -28.6697  -24.3811   22.5714 H   0  0  0  0  0  0
  -30.0316  -25.2522   21.8845 H   0  0  0  0  0  0
  -27.0931  -24.8035   20.5141 H   0  0  0  0  0  0
  -27.8163  -24.8362   18.9255 H   0  0  0  0  0  0
  -28.9944  -15.2672   21.4147 H   0  0  0  0  0  0
  1 25  1  0  0  0
  1 30  2  0  0  0
  1 84  1  0  0  0
  2  3  1  0  0  0
  2 25  1  0  0  0
  2 85  1  0  0  0
  2 86  1  0  0  0
  3  4  1  0  0  0
  3 87  1  0  0  0
  3 88  1  0  0  0
  4  5  1  0  0  0
  4 89  1  0  0  0
  4 90  1  0  0  0
  5  6  1  0  0  0
  5 26  1  0  0  0
  5 91  1  0  0  0
  6 25  1  0  0  0
  6 92  1  0  0  0
  6 93  1  0  0  0
  7  8  2  0  0  0
  7 26  1  0  0  0
  7 29  1  0  0  0
  8  9  1  0  0  0
  8 22  1  0  0  0
  9 10  1  0  0  0
  9 27  2  0  0  0
 10 11  2  0  0  0
 10 15  1  0  0  0
 11 12  1  0  0  0
 11 94  1  0  0  0
 12 13  2  0  0  0
 12 95  1  0  0  0
 13 14  1  0  0  0
 13 31  1  0  0  0
 14 15  2  0  0  0
 14 96  1  0  0  0
 15 97  1  0  0  0
 16 17  2  0  0  0
 16 21  1  0  0  0
 16 31  1  0  0  0
 17 18  1  0  0  0
 17 98  1  0  0  0
 18 19  2  0  0  0
 18 99  1  0  0  0
 19 20  1  0  0  0
 19 24  1  0  0  0
 20 21  2  0  0  0
 20100  1  0  0  0
 21 23  1  0  0  0
 22 28  1  0  0  0
 22 32  2  0  0  0
 26 27  1  0  0  0
 28101  1  0  0  0
 28102  1  0  0  0
 29103  1  0  0  0
 29104  1  0  0  0
 33 34  1  0  0  0
 33 66  1  0  0  0
 33 70  2  0  0  0
 34 36  1  0  0  0
 34 59  1  0  0  0
 34105  1  0  0  0
 35 44  2  0  0  0
 35 45  1  0  0  0
 35 68  1  0  0  0
 36 56  1  0  0  0
 36106  1  0  0  0
 37 39  1  0  0  0
 37 47  1  0  0  0
 37 66  1  0  0  0
 37107  1  0  0  0
 38 43  2  0  0  0
 38 46  1  0  0  0
 38 47  1  0  0  0
 39 64  1  0  0  0
 39 67  2  0  0  0
 40 52  1  0  0  0
 40 53  2  0  0  0
 40 58  1  0  0  0
 41108  1  0  0  0
 41109  1  0  0  0
 41110  1  0  0  0
 41 48  1  0  0  0
 42 43  1  0  0  0
 42 66  1  0  0  0
 42111  1  0  0  0
 42112  1  0  0  0
 43 44  1  0  0  0
 44113  1  0  0  0
 45 46  2  0  0  0
 45114  1  0  0  0
 46115  1  0  0  0
 47116  1  0  0  0
 47117  1  0  0  0
 48 56  1  0  0  0
 48 65  1  0  0  0
 48118  1  0  0  0
 49 50  1  0  0  0
 49 53  1  0  0  0
 49 64  1  0  0  0
 49119  1  0  0  0
 50 51  1  0  0  0
 50120  1  0  0  0
 50121  1  0  0  0
 51 52  1  0  0  0
 51122  1  0  0  0
 51123  1  0  0  0
 52124  1  0  0  0
 52125  1  0  0  0
 53 54  1  0  0  0
 54 55  2  0  0  0
 54126  1  0  0  0
 55 57  1  0  0  0
 55127  1  0  0  0
 56 69  2  0  0  0
 57 58  2  0  0  0
 57128  1  0  0  0
 58129  1  0  0  0
 59 60  1  0  0  0
 59 61  1  0  0  0
 59 62  1  0  0  0
 60130  1  0  0  0
 60131  1  0  0  0
 60132  1  0  0  0
 61133  1  0  0  0
 61134  1  0  0  0
 61135  1  0  0  0
 62136  1  0  0  0
 62137  1  0  0  0
 62138  1  0  0  0
 63 65  1  0  0  0
 63139  1  0  0  0
 63140  1  0  0  0
 63141  1  0  0  0
 64142  1  0  0  0
 65143  1  0  0  0
 68 83  1  0  0  0
 71 73  2  0  0  0
 71 75  1  0  0  0
 71144  1  0  0  0
 72 74  1  0  0  0
 72 75  2  0  0  0
 72145  1  0  0  0
 73 76  1  0  0  0
 73146  1  0  0  0
 74 76  2  0  0  0
 74147  1  0  0  0
 75 80  1  0  0  0
 76 84  1  0  0  0
 77 78  1  0  0  0
 77 80  1  0  0  0
 77148  1  0  0  0
 77149  1  0  0  0
 78 81  1  0  0  0
 78150  1  0  0  0
 78151  1  0  0  0
 79 80  1  0  0  0
 79 81  1  0  0  0
 79152  1  0  0  0
 79153  1  0  0  0
 80154  1  0  0  0
 81 82  1  0  0  0
 81 83  1  0  0  0
 82155  1  0  0  0
 82156  1  0  0  0
 82157  1  0  0  0
 83158  1  0  0  0
 83159  1  0  0  0
 84160  1  0  0  0
M  ISO  4   1 100  68 101  83 101  84 100
M  END
> <chiral flag>
0

> <version>
0

> <s_m_source_file>
/data/baiqing/PycharmProjects/Reinvent-master-3.2/result/LINK_invent/BTK/process_docking_weight1_custom_product_contain_oxygen_bond_distance_aromatic_linkinvent_7_9_3/rearranged_h_0147.sdf

> <i_m_source_file_index>
46

> <r_mmod_Potential_Energy-OPLS-2005>
129.340118408203

> <r_mmod_Stretch_Energy-OPLS-2005>
72.8011245727539

> <r_mmod_Bend_Energy-OPLS-2005>
161.180236816406

> <r_mmod_Torsional_Energy-OPLS-2005>
271.59619140625

> <r_mmod_Improper_Torsional_Energy-OPLS-2005>
3.94846796989441

> <r_mmod_Van_der_Waal_Energy-OPLS-2005>
148.800109863281

> <r_mmod_Electrostatic_Energy-OPLS-2005>
-374.707885742188

> <r_mmod_Solvation_Energy-OPLS-2005>
-196.572463989258

> <b_mmod_Minimization_Converged-OPLS-2005>
0

> <r_mmod_RMS_Derivative-OPLS-2005>
2.33399987220764

$$$$
46
                    3D
 Structure written by MMmdl.
161170  0  0  1  0            999 V2000
  -30.7548  -14.3963   20.6460 C   0  0  0  0  0  0
  -30.4194  -12.3040   19.3909 C   0  0  0  0  0  0
  -29.4723  -12.5177   18.1957 C   0  0  0  0  0  0
  -28.0006  -12.3643   18.6255 C   0  0  0  0  0  0
  -27.6651  -13.1886   19.8949 C   0  0  2  0  0  0
  -28.7149  -12.9346   21.0002 C   0  0  0  0  0  0
  -25.2644  -13.8128   20.5871 C   0  0  0  0  0  0
  -24.1853  -13.0416   20.9379 C   0  0  0  0  0  0
  -24.6402  -11.6885   20.8941 C   0  0  0  0  0  0
  -23.9061  -10.4247   21.0586 C   0  0  0  0  0  0
  -24.3554   -9.4113   21.9349 C   0  0  0  0  0  0
  -23.6220   -8.2142   22.0773 C   0  0  0  0  0  0
  -22.4236   -8.0221   21.3520 C   0  0  0  0  0  0
  -21.9908   -9.0250   20.4672 C   0  0  0  0  0  0
  -22.7254  -10.2132   20.3197 C   0  0  0  0  0  0
  -21.6798   -6.0714   22.5312 C   0  0  0  0  0  0
  -21.3938   -6.5614   23.8249 C   0  0  0  0  0  0
  -21.3710   -5.6793   24.9257 C   0  0  0  0  0  0
  -21.6072   -4.3049   24.7306 C   0  0  0  0  0  0
  -21.8810   -3.8130   23.4432 C   0  0  0  0  0  0
  -21.9124   -4.6939   22.3465 C   0  0  0  0  0  0
  -22.7873  -13.5271   21.1864 C   0  0  0  0  0  0
  -22.1639   -4.2130   21.1051 F   0  0  0  0  0  0
  -21.5667   -3.4537   25.7813 F   0  0  0  0  0  0
  -30.0452  -13.2544   20.4478 N   0  0  0  0  0  0
  -26.3070  -12.9231   20.3588 N   0  0  0  0  0  0
  -25.9316  -11.6420   20.5933 N   0  0  0  0  0  0
  -22.0403  -12.8310   22.0390 N   0  0  0  0  0  0
  -25.4352  -15.1822   20.4166 N   0  0  0  0  0  0
  -31.8055  -14.6386   20.0391 O   0  0  0  0  0  0
  -21.6575   -6.8830   21.4253 O   0  0  0  0  0  0
  -22.3632  -14.5547   20.6612 O   0  0  0  0  0  0
  -24.6013  -31.8729   23.2210 C   0  0  0  0  0  0
  -25.8977  -32.4810   23.8422 C   0  0  1  0  0  0
  -27.2439  -27.5034   20.0682 C   0  0  0  0  0  0
  -25.5880  -33.8610   24.2365 N   0  0  0  0  0  0
  -23.3860  -30.4933   21.5611 C   0  0  2  0  0  0
  -24.8286  -28.9670   20.1093 C   0  0  0  0  0  0
  -22.7351  -29.4644   22.5109 C   0  0  0  0  0  0
  -18.0252  -28.1305   22.8480 C   0  0  0  0  0  0
  -24.1435  -36.7315   23.2660 C   0  0  0  0  0  0
  -25.9017  -30.8431   21.3680 C   0  0  0  0  0  0
  -25.9772  -29.4815   20.7210 C   0  0  0  0  0  0
  -27.1741  -28.7440   20.7234 C   0  0  0  0  0  0
  -26.0856  -26.9934   19.4343 C   0  0  0  0  0  0
  -24.8748  -27.7189   19.4643 C   0  0  0  0  0  0
  -23.5813  -29.8224   20.1750 C   0  0  0  0  0  0
  -25.4056  -36.3114   24.0373 C   0  0  1  0  0  0
  -20.5841  -28.3529   23.1369 C   0  0  2  0  0  0
  -20.6778  -26.9292   22.5441 C   0  0  0  0  0  0
  -19.5750  -26.6298   21.5176 C   0  0  0  0  0  0
  -18.1927  -26.7827   22.1642 C   0  0  0  0  0  0
  -19.1526  -28.8745   23.2856 C   0  0  0  0  0  0
  -18.9460  -30.1407   23.8819 C   0  0  0  0  0  0
  -17.6505  -30.6606   24.0454 C   0  0  0  0  0  0
  -25.9010  -34.9468   23.5172 C   0  0  0  0  0  0
  -16.5368  -29.9059   23.6323 C   0  0  0  0  0  0
  -16.7242  -28.6437   23.0407 C   0  0  0  0  0  0
  -26.4452  -31.6586   25.0733 C   0  0  0  0  0  0
  -25.3805  -31.3598   26.1566 C   0  0  0  0  0  0
  -27.0256  -30.3040   24.6045 C   0  0  0  0  0  0
  -27.6019  -32.4304   25.7494 C   0  0  0  0  0  0
  -27.5557  -37.1796   24.8509 C   0  0  0  0  0  0
  -21.4103  -29.2936   22.3823 N   0  0  0  0  0  0
  -26.4252  -37.3802   23.9446 N   0  0  0  0  0  0
  -24.6474  -31.0855   22.1063 N   0  0  0  0  0  0
  -23.4177  -28.8322   23.3238 O   0  0  0  0  0  0
  -28.4742  -26.8895   20.0793 O   0  0  0  0  0  0
  -26.5587  -34.8927   22.4742 O   0  0  0  0  0  0
  -23.5242  -32.1542   23.7643 O   0  0  0  0  0  0
  -27.2990  -18.6886   21.1077 C   0  0  0  0  0  0
  -26.7315  -19.9542   20.7861 C   0  0  0  0  0  0
  -28.6579  -18.6522   20.9403 C   0  0  0  0  0  0
  -27.6552  -20.8613   20.3501 C   0  0  0  0  0  0
  -28.2178  -24.4807   20.1839 C   0  0  0  0  0  0
  -30.7605  -16.7925   23.5480 C   0  0  0  0  0  0
  -30.0100  -17.9275   22.8412 C   0  0  0  0  0  0
  -31.3193  -15.7426   22.5714 C   0  0  0  0  0  0
  -29.1895  -16.1491   21.2815 C   0  0  0  0  0  0
  -29.6311  -17.6167   21.3933 C   0  0  1  0  0  0
  -28.4012  -23.1023   19.5636 C   0  0  0  0  0  0
  -28.6697  -25.6875   19.3547 C   0  0  0  0  0  0
  -30.3089  -15.2314   21.6140 N   0  0  0  0  0  0
  -27.3826  -22.1911   20.0690 N   0  0  0  0  0  0
  -27.7029  -24.6050   21.3027 O   0  0  0  0  0  0
  -29.2457  -20.1482   20.2553 S   0  0  0  0  0  0
  -31.4557  -12.4232   19.0643 H   0  0  0  0  0  0
  -30.3326  -11.2825   19.7721 H   0  0  0  0  0  0
  -29.7023  -11.8056   17.3984 H   0  0  0  0  0  0
  -29.6184  -13.5110   17.7665 H   0  0  0  0  0  0
  -27.8183  -11.3060   18.8084 H   0  0  0  0  0  0
  -27.3359  -12.6464   17.8066 H   0  0  0  0  0  0
  -27.6999  -14.2379   19.6087 H   0  0  0  0  0  0
  -28.4823  -13.4841   21.9146 H   0  0  0  0  0  0
  -28.6951  -11.8823   21.2945 H   0  0  0  0  0  0
  -25.2669   -9.5548   22.4984 H   0  0  0  0  0  0
  -23.9925   -7.4502   22.7431 H   0  0  0  0  0  0
  -21.0882   -8.8855   19.8918 H   0  0  0  0  0  0
  -22.3803  -10.9740   19.6346 H   0  0  0  0  0  0
  -21.1865   -7.6110   23.9787 H   0  0  0  0  0  0
  -21.1578   -6.0519   25.9189 H   0  0  0  0  0  0
  -22.0510   -2.7579   23.2969 H   0  0  0  0  0  0
  -22.3860  -12.0003   22.4946 H   0  0  0  0  0  0
  -21.1059  -13.1489   22.2511 H   0  0  0  0  0  0
  -24.6491  -15.8235   20.4622 H   0  0  0  0  0  0
  -26.2671  -15.5988   20.0234 H   0  0  0  0  0  0
  -26.7026  -32.5514   23.1165 H   0  0  0  0  0  0
  -24.9886  -33.9799   25.0421 H   0  0  0  0  0  0
  -22.6610  -31.3005   21.4360 H   0  0  0  0  0  0
  -23.3695  -35.9662   23.3341 H   0  0  0  0  0  0
  -24.3521  -36.8922   22.2079 H   0  0  0  0  0  0
  -23.7207  -37.6525   23.6653 H   0  0  0  0  0  0
  -26.0098  -31.6031   20.5985 H   0  0  0  0  0  0
  -26.7886  -30.8958   21.9860 H   0  0  0  0  0  0
  -28.0575  -29.1414   21.1988 H   0  0  0  0  0  0
  -26.0979  -26.0582   18.8937 H   0  0  0  0  0  0
  -24.0026  -27.3389   18.9518 H   0  0  0  0  0  0
  -23.6656  -30.5940   19.4086 H   0  0  0  0  0  0
  -22.7000  -29.2395   19.8949 H   0  0  0  0  0  0
  -25.1198  -36.1958   25.0859 H   0  0  0  0  0  0
  -20.9842  -28.2990   24.1554 H   0  0  0  0  0  0
  -21.6705  -26.7454   22.1308 H   0  0  0  0  0  0
  -20.5769  -26.2109   23.3603 H   0  0  0  0  0  0
  -19.6884  -25.6192   21.1183 H   0  0  0  0  0  0
  -19.6660  -27.3073   20.6667 H   0  0  0  0  0  0
  -17.4170  -26.6457   21.4087 H   0  0  0  0  0  0
  -18.0397  -26.0018   22.9105 H   0  0  0  0  0  0
  -19.7934  -30.7206   24.2156 H   0  0  0  0  0  0
  -17.5078  -31.6332   24.4948 H   0  0  0  0  0  0
  -15.5393  -30.2996   23.7593 H   0  0  0  0  0  0
  -15.8646  -28.0691   22.7177 H   0  0  0  0  0  0
  -24.5986  -30.6928   25.7963 H   0  0  0  0  0  0
  -24.9017  -32.2694   26.5143 H   0  0  0  0  0  0
  -25.8313  -30.8718   27.0228 H   0  0  0  0  0  0
  -26.2754  -29.6830   24.1151 H   0  0  0  0  0  0
  -27.4114  -29.7241   25.4430 H   0  0  0  0  0  0
  -27.8542  -30.4378   23.9110 H   0  0  0  0  0  0
  -27.2610  -33.3580   26.2085 H   0  0  0  0  0  0
  -28.3802  -32.6900   25.0323 H   0  0  0  0  0  0
  -28.0690  -31.8428   26.5410 H   0  0  0  0  0  0
  -28.2587  -38.0066   24.7462 H   0  0  0  0  0  0
  -28.1007  -36.2591   24.6354 H   0  0  0  0  0  0
  -27.2299  -37.1505   25.8927 H   0  0  0  0  0  0
  -20.9335  -29.8472   21.6851 H   0  0  0  0  0  0
  -26.0135  -38.2877   24.1452 H   0  0  0  0  0  0
  -26.6987  -17.8947   21.5364 H   0  0  0  0  0  0
  -25.6792  -20.1618   20.9133 H   0  0  0  0  0  0
  -30.0812  -16.2955   24.2459 H   0  0  0  0  0  0
  -31.5560  -17.2126   24.1634 H   0  0  0  0  0  0
  -30.5678  -18.8657   22.8562 H   0  0  0  0  0  0
  -29.0925  -18.1067   23.4117 H   0  0  0  0  0  0
  -31.7188  -14.8983   23.1406 H   0  0  0  0  0  0
  -32.1695  -16.1723   22.0363 H   0  0  0  0  0  0
  -28.3406  -15.9384   21.9420 H   0  0  0  0  0  0
  -28.8217  -15.9804   20.2715 H   0  0  0  0  0  0
  -30.5212  -17.7079   20.7691 H   0  0  0  0  0  0
  -29.4135  -22.7649   19.7800 H   0  0  0  0  0  0
  -28.3024  -23.1754   18.4811 H   0  0  0  0  0  0
  -28.1899  -25.7265   18.3751 H   0  0  0  0  0  0
  -29.7423  -25.5962   19.1845 H   0  0  0  0  0  0
  -26.7615  -22.6604   20.7279 H   0  0  0  0  0  0
  1 25  1  0  0  0
  1 30  2  0  0  0
  1 83  1  0  0  0
  2  3  1  0  0  0
  2 25  1  0  0  0
  2 87  1  0  0  0
  2 88  1  0  0  0
  3  4  1  0  0  0
  3 89  1  0  0  0
  3 90  1  0  0  0
  4  5  1  0  0  0
  4 91  1  0  0  0
  4 92  1  0  0  0
  5  6  1  0  0  0
  5 26  1  0  0  0
  5 93  1  0  0  0
  6 25  1  0  0  0
  6 94  1  0  0  0
  6 95  1  0  0  0
  7  8  2  0  0  0
  7 26  1  0  0  0
  7 29  1  0  0  0
  8  9  1  0  0  0
  8 22  1  0  0  0
  9 10  1  0  0  0
  9 27  2  0  0  0
 10 11  2  0  0  0
 10 15  1  0  0  0
 11 12  1  0  0  0
 11 96  1  0  0  0
 12 13  2  0  0  0
 12 97  1  0  0  0
 13 14  1  0  0  0
 13 31  1  0  0  0
 14 15  2  0  0  0
 14 98  1  0  0  0
 15 99  1  0  0  0
 16 17  2  0  0  0
 16 21  1  0  0  0
 16 31  1  0  0  0
 17 18  1  0  0  0
 17100  1  0  0  0
 18 19  2  0  0  0
 18101  1  0  0  0
 19 20  1  0  0  0
 19 24  1  0  0  0
 20 21  2  0  0  0
 20102  1  0  0  0
 21 23  1  0  0  0
 22 28  1  0  0  0
 22 32  2  0  0  0
 26 27  1  0  0  0
 28103  1  0  0  0
 28104  1  0  0  0
 29105  1  0  0  0
 29106  1  0  0  0
 33 34  1  0  0  0
 33 66  1  0  0  0
 33 70  2  0  0  0
 34 36  1  0  0  0
 34 59  1  0  0  0
 34107  1  0  0  0
 35 44  2  0  0  0
 35 45  1  0  0  0
 35 68  1  0  0  0
 36 56  1  0  0  0
 36108  1  0  0  0
 37 39  1  0  0  0
 37 47  1  0  0  0
 37 66  1  0  0  0
 37109  1  0  0  0
 38 43  2  0  0  0
 38 46  1  0  0  0
 38 47  1  0  0  0
 39 64  1  0  0  0
 39 67  2  0  0  0
 40 52  1  0  0  0
 40 53  2  0  0  0
 40 58  1  0  0  0
 41110  1  0  0  0
 41111  1  0  0  0
 41112  1  0  0  0
 41 48  1  0  0  0
 42 43  1  0  0  0
 42 66  1  0  0  0
 42113  1  0  0  0
 42114  1  0  0  0
 43 44  1  0  0  0
 44115  1  0  0  0
 45 46  2  0  0  0
 45116  1  0  0  0
 46117  1  0  0  0
 47118  1  0  0  0
 47119  1  0  0  0
 48 56  1  0  0  0
 48 65  1  0  0  0
 48120  1  0  0  0
 49 50  1  0  0  0
 49 53  1  0  0  0
 49 64  1  0  0  0
 49121  1  0  0  0
 50 51  1  0  0  0
 50122  1  0  0  0
 50123  1  0  0  0
 51 52  1  0  0  0
 51124  1  0  0  0
 51125  1  0  0  0
 52126  1  0  0  0
 52127  1  0  0  0
 53 54  1  0  0  0
 54 55  2  0  0  0
 54128  1  0  0  0
 55 57  1  0  0  0
 55129  1  0  0  0
 56 69  2  0  0  0
 57 58  2  0  0  0
 57130  1  0  0  0
 58131  1  0  0  0
 59 60  1  0  0  0
 59 61  1  0  0  0
 59 62  1  0  0  0
 60132  1  0  0  0
 60133  1  0  0  0
 60134  1  0  0  0
 61135  1  0  0  0
 61136  1  0  0  0
 61137  1  0  0  0
 62138  1  0  0  0
 62139  1  0  0  0
 62140  1  0  0  0
 63 65  1  0  0  0
 63141  1  0  0  0
 63142  1  0  0  0
 63143  1  0  0  0
 64144  1  0  0  0
 65145  1  0  0  0
 68 82  1  0  0  0
 71 72  1  0  0  0
 71 73  2  0  0  0
 71146  1  0  0  0
 72 74  2  0  0  0
 72147  1  0  0  0
 73 86  1  0  0  0
 73 80  1  0  0  0
 74 84  1  0  0  0
 74 86  1  0  0  0
 75 81  1  0  0  0
 75 82  1  0  0  0
 75 85  2  0  0  0
 76 77  1  0  0  0
 76 78  1  0  0  0
 76148  1  0  0  0
 76149  1  0  0  0
 77 80  1  0  0  0
 77150  1  0  0  0
 77151  1  0  0  0
 78 83  1  0  0  0
 78152  1  0  0  0
 78153  1  0  0  0
 79 80  1  0  0  0
 79 83  1  0  0  0
 79154  1  0  0  0
 79155  1  0  0  0
 80156  1  0  0  0
 81 84  1  0  0  0
 81157  1  0  0  0
 81158  1  0  0  0
 82159  1  0  0  0
 82160  1  0  0  0
 84161  1  0  0  0
M  ISO  4   1 100  68 101  82 101  83 100
M  END
> <chiral flag>
0

> <version>
0

> <s_m_source_file>
/data/baiqing/PycharmProjects/Reinvent-master-3.2/result/LINK_invent/BTK/process_docking_weight1_custom_product_contain_oxygen_bond_distance_aromatic_linkinvent_7_9_3/rearranged_h_0147.sdf

> <i_m_source_file_index>
47

> <r_mmod_Potential_Energy-OPLS-2005>
154.633712768555

> <r_mmod_Stretch_Energy-OPLS-2005>
33.9390068054199

> <r_mmod_Bend_Energy-OPLS-2005>
116.830749511719

> <r_mmod_Torsional_Energy-OPLS-2005>
307.853576660156

> <r_mmod_Improper_Torsional_Energy-OPLS-2005>
9.70094966888428

> <r_mmod_Van_der_Waal_Energy-OPLS-2005>
146.311477661133

> <r_mmod_Electrostatic_Energy-OPLS-2005>
-248.489959716797

> <r_mmod_Solvation_Energy-OPLS-2005>
-223.480712890625

> <b_mmod_Minimization_Converged-OPLS-2005>
0

> <r_mmod_RMS_Derivative-OPLS-2005>
10.010627746582

$$$$
47
                    3D
 Structure written by MMmdl.
161170  0  0  1  0            999 V2000
  -30.5997  -14.8156   20.4421 C   0  0  0  0  0  0
  -30.4361  -12.5017   19.4790 C   0  0  0  0  0  0
  -29.5117  -12.4987   18.2410 C   0  0  0  0  0  0
  -28.0417  -12.3122   18.6613 C   0  0  0  0  0  0
  -27.6362  -13.2346   19.8415 C   0  0  2  0  0  0
  -28.6818  -13.2142   20.9774 C   0  0  0  0  0  0
  -25.2503  -13.8203   20.5705 C   0  0  0  0  0  0
  -24.1800  -13.0441   20.9223 C   0  0  0  0  0  0
  -24.6393  -11.6921   20.8754 C   0  0  0  0  0  0
  -23.9071  -10.4296   21.0412 C   0  0  0  0  0  0
  -24.3621   -9.4209   21.9186 C   0  0  0  0  0  0
  -23.6298   -8.2242   22.0754 C   0  0  0  0  0  0
  -22.4278   -8.0283   21.3545 C   0  0  0  0  0  0
  -21.9916   -9.0255   20.4643 C   0  0  0  0  0  0
  -22.7245  -10.2137   20.3056 C   0  0  0  0  0  0
  -21.6855   -6.0737   22.5278 C   0  0  0  0  0  0
  -21.4009   -6.5639   23.8211 C   0  0  0  0  0  0
  -21.3655   -5.6792   24.9174 C   0  0  0  0  0  0
  -21.6044   -4.3054   24.7223 C   0  0  0  0  0  0
  -21.8822   -3.8149   23.4345 C   0  0  0  0  0  0
  -21.9196   -4.6966   22.3401 C   0  0  0  0  0  0
  -22.7825  -13.5226   21.1873 C   0  0  0  0  0  0
  -22.1668   -4.2151   21.0978 F   0  0  0  0  0  0
  -21.5629   -3.4538   25.7736 F   0  0  0  0  0  0
  -29.9720  -13.5845   20.3830 N   0  0  0  0  0  0
  -26.2914  -12.9406   20.3256 N   0  0  0  0  0  0
  -25.9321  -11.6546   20.5747 N   0  0  0  0  0  0
  -22.0465  -12.8213   22.0420 N   0  0  0  0  0  0
  -25.4184  -15.1925   20.4126 N   0  0  0  0  0  0
  -31.8023  -14.8662   20.1636 O   0  0  0  0  0  0
  -21.6642   -6.8881   21.4240 O   0  0  0  0  0  0
  -22.3512  -14.5531   20.6720 O   0  0  0  0  0  0
  -24.6365  -31.8512   23.1961 C   0  0  0  0  0  0
  -25.9176  -32.4735   23.8313 C   0  0  1  0  0  0
  -27.2130  -27.2113   20.1382 C   0  0  0  0  0  0
  -25.5951  -33.8536   24.2231 N   0  0  0  0  0  0
  -23.4354  -30.4742   21.5405 C   0  0  2  0  0  0
  -24.8826  -28.9162   20.1098 C   0  0  0  0  0  0
  -22.7538  -29.4577   22.4894 C   0  0  0  0  0  0
  -18.0296  -28.1395   22.8482 C   0  0  0  0  0  0
  -24.1487  -36.7266   23.2642 C   0  0  0  0  0  0
  -25.9863  -30.7480   21.3853 C   0  0  0  0  0  0
  -26.0579  -29.3680   20.7236 C   0  0  0  0  0  0
  -27.2261  -28.5300   20.7235 C   0  0  0  0  0  0
  -26.0131  -26.8451   19.4868 C   0  0  0  0  0  0
  -24.8688  -27.6653   19.4777 C   0  0  0  0  0  0
  -23.6573  -29.8099   20.1570 C   0  0  0  0  0  0
  -25.4117  -36.3056   24.0321 C   0  0  1  0  0  0
  -20.5902  -28.3710   23.1255 C   0  0  2  0  0  0
  -20.6780  -26.9420   22.5409 C   0  0  0  0  0  0
  -19.5760  -26.6379   21.5214 C   0  0  0  0  0  0
  -18.1937  -26.7936   22.1620 C   0  0  0  0  0  0
  -19.1549  -28.8872   23.2861 C   0  0  0  0  0  0
  -18.9471  -30.1470   23.8881 C   0  0  0  0  0  0
  -17.6470  -30.6592   24.0565 C   0  0  0  0  0  0
  -25.9067  -34.9427   23.5079 C   0  0  0  0  0  0
  -16.5361  -29.9086   23.6340 C   0  0  0  0  0  0
  -16.7281  -28.6506   23.0356 C   0  0  0  0  0  0
  -26.4519  -31.6588   25.0733 C   0  0  0  0  0  0
  -25.3717  -31.3761   26.1439 C   0  0  0  0  0  0
  -27.0392  -30.2996   24.6277 C   0  0  0  0  0  0
  -27.6059  -32.4349   25.7509 C   0  0  0  0  0  0
  -27.5576  -37.1786   24.8465 C   0  0  0  0  0  0
  -21.4239  -29.3046   22.3641 N   0  0  0  0  0  0
  -26.4288  -37.3762   23.9408 N   0  0  0  0  0  0
  -24.7050  -31.0438   22.0961 N   0  0  0  0  0  0
  -23.4217  -28.8106   23.3000 O   0  0  0  0  0  0
  -28.2801  -26.2682   20.2157 O   0  0  0  0  0  0
  -26.5649  -34.8915   22.4655 O   0  0  0  0  0  0
  -23.5505  -32.1350   23.7231 O   0  0  0  0  0  0
  -31.4297  -19.2635   20.6514 C   0  0  0  0  0  0
  -31.4635  -17.8322   20.7224 C   0  0  0  0  0  0
  -30.1352  -19.6840   20.4615 C   0  0  0  0  0  0
  -30.1854  -17.3620   20.5651 C   0  0  0  0  0  0
  -27.5395  -21.6617   19.3310 C   0  0  0  0  0  0
  -30.2555  -23.4558   19.6588 C   0  0  0  0  0  0
  -30.8796  -22.0630   19.9326 C   0  0  0  0  0  0
  -28.5631  -21.9522   20.4457 C   0  0  2  0  0  0
  -28.9856  -23.5444   20.5185 C   0  0  1  0  0  0
  -26.3284  -20.8231   19.7096 C   0  0  0  0  0  0
  -29.3580  -23.8493   21.9846 C   0  0  0  0  0  0
  -27.9876  -24.7773   20.0556 C   0  0  0  0  0  0
  -29.8075  -21.1129   20.2519 N   0  0  0  0  0  0
  -29.8308  -15.9848   20.5814 N   0  0  0  0  0  0
  -27.6735  -22.0417   18.1652 O   0  0  0  0  0  0
  -29.3234  -18.5115   20.4220 O   0  0  0  0  0  0
  -31.4722  -12.6391   19.1641 H   0  0  0  0  0  0
  -30.4057  -11.5390   19.9913 H   0  0  0  0  0  0
  -29.8055  -11.7028   17.5549 H   0  0  0  0  0  0
  -29.6218  -13.4343   17.6908 H   0  0  0  0  0  0
  -27.9179  -11.2688   18.9535 H   0  0  0  0  0  0
  -27.3782  -12.4682   17.8095 H   0  0  0  0  0  0
  -27.6156  -14.2451   19.4325 H   0  0  0  0  0  0
  -28.7380  -12.2274   21.4388 H   0  0  0  0  0  0
  -28.4047  -13.9111   21.7702 H   0  0  0  0  0  0
  -25.2763   -9.5688   22.4765 H   0  0  0  0  0  0
  -24.0006   -7.4634   22.7476 H   0  0  0  0  0  0
  -21.0848   -8.8776   19.8947 H   0  0  0  0  0  0
  -22.3702  -10.9679   19.6169 H   0  0  0  0  0  0
  -21.1995   -7.6146   23.9714 H   0  0  0  0  0  0
  -21.1473   -6.0520   25.9076 H   0  0  0  0  0  0
  -22.0605   -2.7610   23.2844 H   0  0  0  0  0  0
  -22.4093  -11.9882   22.4811 H   0  0  0  0  0  0
  -21.1075  -13.1229   22.2615 H   0  0  0  0  0  0
  -24.6476  -15.8419   20.5251 H   0  0  0  0  0  0
  -26.2553  -15.6331   20.0538 H   0  0  0  0  0  0
  -26.7239  -32.5366   23.1046 H   0  0  0  0  0  0
  -25.0092  -33.9658   25.0372 H   0  0  0  0  0  0
  -22.7340  -31.2981   21.3933 H   0  0  0  0  0  0
  -23.3761  -35.9588   23.3297 H   0  0  0  0  0  0
  -24.3563  -36.8905   22.2058 H   0  0  0  0  0  0
  -23.7230  -37.6450   23.6683 H   0  0  0  0  0  0
  -26.1369  -31.5079   20.6172 H   0  0  0  0  0  0
  -26.8591  -30.7932   22.0254 H   0  0  0  0  0  0
  -28.1226  -28.8685   21.2240 H   0  0  0  0  0  0
  -25.9206  -25.8902   18.9927 H   0  0  0  0  0  0
  -23.9699  -27.3140   18.9895 H   0  0  0  0  0  0
  -23.7899  -30.5871   19.4033 H   0  0  0  0  0  0
  -22.7736  -29.2488   19.8478 H   0  0  0  0  0  0
  -25.1297  -36.1895   25.0814 H   0  0  0  0  0  0
  -20.9993  -28.3304   24.1378 H   0  0  0  0  0  0
  -20.5692  -26.2317   23.3622 H   0  0  0  0  0  0
  -21.6646  -26.7448   22.1199 H   0  0  0  0  0  0
  -19.6924  -25.6287   21.1257 H   0  0  0  0  0  0
  -19.6703  -27.3180   20.6739 H   0  0  0  0  0  0
  -17.4210  -26.6693   21.4021 H   0  0  0  0  0  0
  -18.0330  -26.0073   22.9015 H   0  0  0  0  0  0
  -19.7948  -30.7287   24.2243 H   0  0  0  0  0  0
  -17.5026  -31.6275   24.5172 H   0  0  0  0  0  0
  -15.5360  -30.2985   23.7674 H   0  0  0  0  0  0
  -15.8682  -28.0827   22.7072 H   0  0  0  0  0  0
  -24.5897  -30.7112   25.7757 H   0  0  0  0  0  0
  -24.8902  -32.2941   26.4822 H   0  0  0  0  0  0
  -25.8004  -30.8962   27.0247 H   0  0  0  0  0  0
  -26.3009  -29.6714   24.1282 H   0  0  0  0  0  0
  -27.4032  -29.7295   25.4833 H   0  0  0  0  0  0
  -27.8900  -30.4248   23.9575 H   0  0  0  0  0  0
  -27.2663  -33.3677   26.2025 H   0  0  0  0  0  0
  -28.3898  -32.6870   25.0353 H   0  0  0  0  0  0
  -28.0695  -31.8515   26.5475 H   0  0  0  0  0  0
  -28.2591  -38.0087   24.7514 H   0  0  0  0  0  0
  -28.1079  -36.2616   24.6294 H   0  0  0  0  0  0
  -27.2293  -37.1432   25.8870 H   0  0  0  0  0  0
  -20.9439  -29.8775   21.6844 H   0  0  0  0  0  0
  -26.0167  -38.2835   24.1421 H   0  0  0  0  0  0
  -32.2938  -19.9067   20.7260 H   0  0  0  0  0  0
  -32.3481  -17.2288   20.8689 H   0  0  0  0  0  0
  -29.9844  -23.5245   18.6044 H   0  0  0  0  0  0
  -30.9564  -24.2680   19.8557 H   0  0  0  0  0  0
  -31.5633  -22.1311   20.7803 H   0  0  0  0  0  0
  -31.4612  -21.7272   19.0724 H   0  0  0  0  0  0
  -28.1069  -21.6666   21.3948 H   0  0  0  0  0  0
  -26.6021  -20.0655   20.4438 H   0  0  0  0  0  0
  -25.9242  -20.3206   18.8316 H   0  0  0  0  0  0
  -25.5525  -21.4583   20.1354 H   0  0  0  0  0  0
  -30.0306  -23.1016   22.4060 H   0  0  0  0  0  0
  -28.4685  -23.8736   22.6149 H   0  0  0  0  0  0
  -29.8466  -24.8198   22.0760 H   0  0  0  0  0  0
  -27.0475  -24.5952   20.5778 H   0  0  0  0  0  0
  -27.7658  -24.6283   18.9991 H   0  0  0  0  0  0
  -28.8435  -15.8067   20.6768 H   0  0  0  0  0  0
  1 25  1  0  0  0
  1 30  2  0  0  0
  1 84  1  0  0  0
  2  3  1  0  0  0
  2 25  1  0  0  0
  2 87  1  0  0  0
  2 88  1  0  0  0
  3  4  1  0  0  0
  3 89  1  0  0  0
  3 90  1  0  0  0
  4  5  1  0  0  0
  4 91  1  0  0  0
  4 92  1  0  0  0
  5  6  1  0  0  0
  5 26  1  0  0  0
  5 93  1  0  0  0
  6 25  1  0  0  0
  6 94  1  0  0  0
  6 95  1  0  0  0
  7  8  2  0  0  0
  7 26  1  0  0  0
  7 29  1  0  0  0
  8  9  1  0  0  0
  8 22  1  0  0  0
  9 10  1  0  0  0
  9 27  2  0  0  0
 10 11  2  0  0  0
 10 15  1  0  0  0
 11 12  1  0  0  0
 11 96  1  0  0  0
 12 13  2  0  0  0
 12 97  1  0  0  0
 13 14  1  0  0  0
 13 31  1  0  0  0
 14 15  2  0  0  0
 14 98  1  0  0  0
 15 99  1  0  0  0
 16 17  2  0  0  0
 16 21  1  0  0  0
 16 31  1  0  0  0
 17 18  1  0  0  0
 17100  1  0  0  0
 18 19  2  0  0  0
 18101  1  0  0  0
 19 20  1  0  0  0
 19 24  1  0  0  0
 20 21  2  0  0  0
 20102  1  0  0  0
 21 23  1  0  0  0
 22 28  1  0  0  0
 22 32  2  0  0  0
 26 27  1  0  0  0
 28103  1  0  0  0
 28104  1  0  0  0
 29105  1  0  0  0
 29106  1  0  0  0
 33 34  1  0  0  0
 33 66  1  0  0  0
 33 70  2  0  0  0
 34 36  1  0  0  0
 34 59  1  0  0  0
 34107  1  0  0  0
 35 44  2  0  0  0
 35 45  1  0  0  0
 35 68  1  0  0  0
 36 56  1  0  0  0
 36108  1  0  0  0
 37 39  1  0  0  0
 37 47  1  0  0  0
 37 66  1  0  0  0
 37109  1  0  0  0
 38 43  2  0  0  0
 38 46  1  0  0  0
 38 47  1  0  0  0
 39 64  1  0  0  0
 39 67  2  0  0  0
 40 52  1  0  0  0
 40 53  2  0  0  0
 40 58  1  0  0  0
 41110  1  0  0  0
 41111  1  0  0  0
 41112  1  0  0  0
 41 48  1  0  0  0
 42 43  1  0  0  0
 42 66  1  0  0  0
 42113  1  0  0  0
 42114  1  0  0  0
 43 44  1  0  0  0
 44115  1  0  0  0
 45 46  2  0  0  0
 45116  1  0  0  0
 46117  1  0  0  0
 47118  1  0  0  0
 47119  1  0  0  0
 48 56  1  0  0  0
 48 65  1  0  0  0
 48120  1  0  0  0
 49 50  1  0  0  0
 49 53  1  0  0  0
 49 64  1  0  0  0
 49121  1  0  0  0
 50 51  1  0  0  0
 50122  1  0  0  0
 50123  1  0  0  0
 51 52  1  0  0  0
 51124  1  0  0  0
 51125  1  0  0  0
 52126  1  0  0  0
 52127  1  0  0  0
 53 54  1  0  0  0
 54 55  2  0  0  0
 54128  1  0  0  0
 55 57  1  0  0  0
 55129  1  0  0  0
 56 69  2  0  0  0
 57 58  2  0  0  0
 57130  1  0  0  0
 58131  1  0  0  0
 59 60  1  0  0  0
 59 61  1  0  0  0
 59 62  1  0  0  0
 60132  1  0  0  0
 60133  1  0  0  0
 60134  1  0  0  0
 61135  1  0  0  0
 61136  1  0  0  0
 61137  1  0  0  0
 62138  1  0  0  0
 62139  1  0  0  0
 62140  1  0  0  0
 63 65  1  0  0  0
 63141  1  0  0  0
 63142  1  0  0  0
 63143  1  0  0  0
 64144  1  0  0  0
 65145  1  0  0  0
 68 82  1  0  0  0
 71 72  1  0  0  0
 71 73  2  0  0  0
 71146  1  0  0  0
 72 74  2  0  0  0
 72147  1  0  0  0
 73 83  1  0  0  0
 73 86  1  0  0  0
 74 84  1  0  0  0
 74 86  1  0  0  0
 75 80  1  0  0  0
 75 85  2  0  0  0
 75 78  1  0  0  0
 76 77  1  0  0  0
 76 79  1  0  0  0
 76148  1  0  0  0
 76149  1  0  0  0
 77 83  1  0  0  0
 77150  1  0  0  0
 77151  1  0  0  0
 78 79  1  0  0  0
 78 83  1  0  0  0
 78152  1  0  0  0
 79 81  1  0  0  0
 79 82  1  0  0  0
 80153  1  0  0  0
 80154  1  0  0  0
 80155  1  0  0  0
 81156  1  0  0  0
 81157  1  0  0  0
 81158  1  0  0  0
 82159  1  0  0  0
 82160  1  0  0  0
 84161  1  0  0  0
M  ISO  4   1 100  68 101  82 101  84 100
M  END
> <chiral flag>
0

> <version>
0

> <s_m_source_file>
/data/baiqing/PycharmProjects/Reinvent-master-3.2/result/LINK_invent/BTK/process_docking_weight1_custom_product_contain_oxygen_bond_distance_aromatic_linkinvent_7_9_3/rearranged_h_0147.sdf

> <i_m_source_file_index>
48

> <r_mmod_Potential_Energy-OPLS-2005>
336.500274658203

> <r_mmod_Stretch_Energy-OPLS-2005>
164.054244995117

> <r_mmod_Bend_Energy-OPLS-2005>
257.580169677734

> <r_mmod_Torsional_Energy-OPLS-2005>
278.642456054688

> <r_mmod_Improper_Torsional_Energy-OPLS-2005>
5.68339204788208

> <r_mmod_Van_der_Waal_Energy-OPLS-2005>
118.814262390137

> <r_mmod_Electrostatic_Energy-OPLS-2005>
-385.623687744141

> <r_mmod_Solvation_Energy-OPLS-2005>
-224.399673461914

> <b_mmod_Minimization_Converged-OPLS-2005>
0

> <r_mmod_RMS_Derivative-OPLS-2005>
1.0872300863266

$$$$
48
                    3D
 Structure written by MMmdl.
163172  0  0  1  0            999 V2000
  -30.6685  -14.5397   20.5402 C   0  0  0  0  0  0
  -30.4315  -12.3409   19.4287 C   0  0  0  0  0  0
  -29.4970  -12.4979   18.2098 C   0  0  0  0  0  0
  -28.0190  -12.3541   18.6244 C   0  0  0  0  0  0
  -27.6577  -13.2086   19.8692 C   0  0  2  0  0  0
  -28.7031  -13.0190   20.9919 C   0  0  0  0  0  0
  -25.2578  -13.8160   20.5687 C   0  0  0  0  0  0
  -24.1833  -13.0435   20.9181 C   0  0  0  0  0  0
  -24.6393  -11.6905   20.8736 C   0  0  0  0  0  0
  -23.9062  -10.4289   21.0406 C   0  0  0  0  0  0
  -24.3615   -9.4205   21.9186 C   0  0  0  0  0  0
  -23.6292   -8.2239   22.0754 C   0  0  0  0  0  0
  -22.4272   -8.0281   21.3546 C   0  0  0  0  0  0
  -21.9909   -9.0251   20.4646 C   0  0  0  0  0  0
  -22.7234  -10.2131   20.3057 C   0  0  0  0  0  0
  -21.6853   -6.0739   22.5282 C   0  0  0  0  0  0
  -21.4010   -6.5642   23.8214 C   0  0  0  0  0  0
  -21.3655   -5.6794   24.9176 C   0  0  0  0  0  0
  -21.6045   -4.3058   24.7225 C   0  0  0  0  0  0
  -21.8819   -3.8151   23.4344 C   0  0  0  0  0  0
  -21.9192   -4.6969   22.3402 C   0  0  0  0  0  0
  -22.7853  -13.5233   21.1846 C   0  0  0  0  0  0
  -22.1663   -4.2156   21.0982 F   0  0  0  0  0  0
  -21.5628   -3.4540   25.7736 F   0  0  0  0  0  0
  -30.0263  -13.3404   20.4321 N   0  0  0  0  0  0
  -26.3012  -12.9332   20.3357 N   0  0  0  0  0  0
  -25.9323  -11.6494   20.5774 N   0  0  0  0  0  0
  -22.0496  -12.8221   22.0400 N   0  0  0  0  0  0
  -25.4297  -15.1879   20.4119 N   0  0  0  0  0  0
  -31.8185  -14.7036   20.1245 O   0  0  0  0  0  0
  -21.6639   -6.8878   21.4243 O   0  0  0  0  0  0
  -22.3540  -14.5546   20.6708 O   0  0  0  0  0  0
  -24.6193  -31.8644   23.2054 C   0  0  0  0  0  0
  -25.9067  -32.4807   23.8367 C   0  0  1  0  0  0
  -27.2345  -27.3856   20.1049 C   0  0  0  0  0  0
  -25.5902  -33.8602   24.2297 N   0  0  0  0  0  0
  -23.4102  -30.4884   21.5450 C   0  0  2  0  0  0
  -24.8574  -28.9490   20.1121 C   0  0  0  0  0  0
  -22.7443  -29.4651   22.4941 C   0  0  0  0  0  0
  -18.0291  -28.1378   22.8487 C   0  0  0  0  0  0
  -24.1489  -36.7295   23.2644 C   0  0  0  0  0  0
  -25.9452  -30.8149   21.3679 C   0  0  0  0  0  0
  -26.0216  -29.4470   20.7115 C   0  0  0  0  0  0
  -27.2119  -28.6755   20.6999 C   0  0  0  0  0  0
  -26.0486  -26.9189   19.4908 C   0  0  0  0  0  0
  -24.8699  -27.6869   19.4964 C   0  0  0  0  0  0
  -23.6219  -29.8201   20.1605 C   0  0  0  0  0  0
  -25.4112  -36.3094   24.0338 C   0  0  1  0  0  0
  -20.5883  -28.3671   23.1293 C   0  0  2  0  0  0
  -20.6783  -26.9405   22.5399 C   0  0  0  0  0  0
  -19.5760  -26.6379   21.5205 C   0  0  0  0  0  0
  -18.1938  -26.7921   22.1617 C   0  0  0  0  0  0
  -19.1541  -28.8839   23.2890 C   0  0  0  0  0  0
  -18.9473  -30.1442   23.8905 C   0  0  0  0  0  0
  -17.6477  -30.6579   24.0562 C   0  0  0  0  0  0
  -25.9043  -34.9467   23.5115 C   0  0  0  0  0  0
  -16.5366  -29.9077   23.6330 C   0  0  0  0  0  0
  -16.7282  -28.6495   23.0347 C   0  0  0  0  0  0
  -26.4469  -31.6604   25.0718 C   0  0  0  0  0  0
  -25.3715  -31.3731   26.1454 C   0  0  0  0  0  0
  -27.0319  -30.3048   24.6119 C   0  0  0  0  0  0
  -27.6039  -32.4330   25.7481 C   0  0  0  0  0  0
  -27.5578  -37.1807   24.8470 C   0  0  0  0  0  0
  -21.4164  -29.3034   22.3691 N   0  0  0  0  0  0
  -26.4295  -37.3780   23.9406 N   0  0  0  0  0  0
  -24.6763  -31.0711   22.0971 N   0  0  0  0  0  0
  -23.4202  -28.8194   23.2994 O   0  0  0  0  0  0
  -28.3887  -26.6105   20.1435 O   0  0  0  0  0  0
  -26.5606  -34.8929   22.4679 O   0  0  0  0  0  0
  -23.5373  -32.1401   23.7426 O   0  0  0  0  0  0
  -29.2120  -19.1997   21.6930 C   0  0  0  0  0  0
  -31.3651  -17.6354   20.7729 C   0  0  0  0  0  0
  -30.4695  -19.8189   21.5154 C   0  0  0  0  0  0
  -30.1330  -16.9908   21.0487 C   0  0  0  0  0  0
  -29.0544  -17.8072   21.4717 C   0  0  0  0  0  0
  -31.5319  -19.0231   21.0087 C   0  0  0  0  0  0
  -30.7500  -21.1453   22.1261 C   0  0  0  0  0  0
  -29.7004  -24.7239   22.0889 C   0  0  0  0  0  0
  -30.5445  -23.5761   22.6443 C   0  0  0  0  0  0
  -29.3042  -22.8048   20.7326 C   0  0  0  0  0  0
  -29.4725  -24.3669   20.6176 C   0  0  2  0  0  0
  -30.7230  -24.6997   19.7740 C   0  0  0  0  0  0
  -28.2489  -25.1624   20.0446 C   0  0  0  0  0  0
  -30.2290  -22.3802   21.8229 N   0  0  0  0  0  0
  -29.8957  -15.5670   20.9700 N   0  0  0  0  0  0
  -31.6044  -21.1105   23.1520 N   0  3  0  0  0  0
  -27.8555  -17.2272   21.7219 F   0  0  0  0  0  0
  -32.7568  -19.5701   20.8111 F   0  0  0  0  0  0
  -31.4725  -12.4566   19.1217 H   0  0  0  0  0  0
  -30.3556  -11.3354   19.8457 H   0  0  0  0  0  0
  -29.7428  -11.7548   17.4502 H   0  0  0  0  0  0
  -29.6543  -13.4724   17.7454 H   0  0  0  0  0  0
  -27.8366  -11.2991   18.8348 H   0  0  0  0  0  0
  -27.3667  -12.6122   17.7894 H   0  0  0  0  0  0
  -27.6898  -14.2510   19.5522 H   0  0  0  0  0  0
  -28.6946  -11.9877   21.3480 H   0  0  0  0  0  0
  -28.4612  -13.6299   21.8631 H   0  0  0  0  0  0
  -25.2759   -9.5683   22.4759 H   0  0  0  0  0  0
  -24.0006   -7.4628   22.7466 H   0  0  0  0  0  0
  -21.0845   -8.8762   19.8944 H   0  0  0  0  0  0
  -22.3693  -10.9670   19.6164 H   0  0  0  0  0  0
  -21.1999   -7.6149   23.9719 H   0  0  0  0  0  0
  -21.1478   -6.0523   25.9078 H   0  0  0  0  0  0
  -22.0602   -2.7614   23.2843 H   0  0  0  0  0  0
  -22.4112  -11.9881   22.4784 H   0  0  0  0  0  0
  -21.1111  -13.1237   22.2603 H   0  0  0  0  0  0
  -24.6697  -15.8446   20.5510 H   0  0  0  0  0  0
  -26.2928  -15.6379   20.1360 H   0  0  0  0  0  0
  -26.7154  -32.5489   23.1141 H   0  0  0  0  0  0
  -25.0074  -33.9768   25.0457 H   0  0  0  0  0  0
  -22.7011  -31.3062   21.4016 H   0  0  0  0  0  0
  -23.3752  -35.9629   23.3318 H   0  0  0  0  0  0
  -24.3594  -36.8888   22.2059 H   0  0  0  0  0  0
  -23.7242  -37.6506   23.6648 H   0  0  0  0  0  0
  -26.0688  -31.5817   20.6019 H   0  0  0  0  0  0
  -26.8299  -30.8637   21.9916 H   0  0  0  0  0  0
  -28.1078  -29.0535   21.1730 H   0  0  0  0  0  0
  -26.0116  -25.9548   19.0043 H   0  0  0  0  0  0
  -23.9783  -27.2965   19.0250 H   0  0  0  0  0  0
  -23.7343  -30.5941   19.4004 H   0  0  0  0  0  0
  -22.7450  -29.2423   19.8624 H   0  0  0  0  0  0
  -25.1298  -36.1956   25.0834 H   0  0  0  0  0  0
  -20.9985  -28.3241   24.1407 H   0  0  0  0  0  0
  -20.5687  -26.2282   23.3588 H   0  0  0  0  0  0
  -21.6653  -26.7436   22.1194 H   0  0  0  0  0  0
  -19.6929  -25.6290   21.1235 H   0  0  0  0  0  0
  -19.6706  -27.3191   20.6740 H   0  0  0  0  0  0
  -17.4206  -26.6673   21.4021 H   0  0  0  0  0  0
  -18.0343  -26.0056   22.9007 H   0  0  0  0  0  0
  -19.7958  -30.7250   24.2270 H   0  0  0  0  0  0
  -17.5040  -31.6262   24.5152 H   0  0  0  0  0  0
  -15.5372  -30.2984   23.7649 H   0  0  0  0  0  0
  -15.8681  -28.0821   22.7052 H   0  0  0  0  0  0
  -24.5880  -30.7092   25.7773 H   0  0  0  0  0  0
  -24.8917  -32.2899   26.4890 H   0  0  0  0  0  0
  -25.8045  -30.8895   27.0215 H   0  0  0  0  0  0
  -26.2883  -29.6803   24.1149 H   0  0  0  0  0  0
  -27.4072  -29.7289   25.4583 H   0  0  0  0  0  0
  -27.8716  -30.4381   23.9296 H   0  0  0  0  0  0
  -27.2660  -33.3621   26.2079 H   0  0  0  0  0  0
  -28.3836  -32.6898   25.0301 H   0  0  0  0  0  0
  -28.0715  -31.8438   26.5379 H   0  0  0  0  0  0
  -28.2599  -38.0099   24.7503 H   0  0  0  0  0  0
  -28.1075  -36.2629   24.6315 H   0  0  0  0  0  0
  -27.2298  -37.1468   25.8875 H   0  0  0  0  0  0
  -20.9326  -29.8748   21.6907 H   0  0  0  0  0  0
  -26.0183  -38.2859   24.1398 H   0  0  0  0  0  0
  -28.3873  -19.7632   22.1035 H   0  0  0  0  0  0
  -32.2234  -17.0789   20.4340 H   0  0  0  0  0  0
  -30.1958  -25.6883   22.2062 H   0  0  0  0  0  0
  -28.7560  -24.7763   22.6324 H   0  0  0  0  0  0
  -30.3266  -23.4177   23.7020 H   0  0  0  0  0  0
  -31.6063  -23.8158   22.5555 H   0  0  0  0  0  0
  -29.5360  -22.3047   19.7906 H   0  0  0  0  0  0
  -28.2811  -22.5401   21.0052 H   0  0  0  0  0  0
  -31.6137  -24.1773   20.1238 H   0  0  0  0  0  0
  -30.9412  -25.7681   19.7952 H   0  0  0  0  0  0
  -30.5732  -24.4205   18.7309 H   0  0  0  0  0  0
  -27.3565  -24.8413   20.5855 H   0  0  0  0  0  0
  -28.0960  -24.8889   18.9997 H   0  0  0  0  0  0
  -28.9648  -15.2960   21.2466 H   0  0  0  0  0  0
  -32.0031  -20.2303   23.4404 H   0  0  0  0  0  0
  -31.8726  -21.9372   23.6555 H   0  0  0  0  0  0
  1 25  1  0  0  0
  1 30  2  0  0  0
  1 85  1  0  0  0
  2  3  1  0  0  0
  2 25  1  0  0  0
  2 89  1  0  0  0
  2 90  1  0  0  0
  3  4  1  0  0  0
  3 91  1  0  0  0
  3 92  1  0  0  0
  4  5  1  0  0  0
  4 93  1  0  0  0
  4 94  1  0  0  0
  5  6  1  0  0  0
  5 26  1  0  0  0
  5 95  1  0  0  0
  6 25  1  0  0  0
  6 96  1  0  0  0
  6 97  1  0  0  0
  7  8  2  0  0  0
  7 26  1  0  0  0
  7 29  1  0  0  0
  8  9  1  0  0  0
  8 22  1  0  0  0
  9 10  1  0  0  0
  9 27  2  0  0  0
 10 11  2  0  0  0
 10 15  1  0  0  0
 11 12  1  0  0  0
 11 98  1  0  0  0
 12 13  2  0  0  0
 12 99  1  0  0  0
 13 14  1  0  0  0
 13 31  1  0  0  0
 14 15  2  0  0  0
 14100  1  0  0  0
 15101  1  0  0  0
 16 17  2  0  0  0
 16 21  1  0  0  0
 16 31  1  0  0  0
 17 18  1  0  0  0
 17102  1  0  0  0
 18 19  2  0  0  0
 18103  1  0  0  0
 19 20  1  0  0  0
 19 24  1  0  0  0
 20 21  2  0  0  0
 20104  1  0  0  0
 21 23  1  0  0  0
 22 28  1  0  0  0
 22 32  2  0  0  0
 26 27  1  0  0  0
 28105  1  0  0  0
 28106  1  0  0  0
 29107  1  0  0  0
 29108  1  0  0  0
 33 34  1  0  0  0
 33 66  1  0  0  0
 33 70  2  0  0  0
 34 36  1  0  0  0
 34 59  1  0  0  0
 34109  1  0  0  0
 35 44  2  0  0  0
 35 45  1  0  0  0
 35 68  1  0  0  0
 36 56  1  0  0  0
 36110  1  0  0  0
 37 39  1  0  0  0
 37 47  1  0  0  0
 37 66  1  0  0  0
 37111  1  0  0  0
 38 43  2  0  0  0
 38 46  1  0  0  0
 38 47  1  0  0  0
 39 64  1  0  0  0
 39 67  2  0  0  0
 40 52  1  0  0  0
 40 53  2  0  0  0
 40 58  1  0  0  0
 41112  1  0  0  0
 41113  1  0  0  0
 41114  1  0  0  0
 41 48  1  0  0  0
 42 43  1  0  0  0
 42 66  1  0  0  0
 42115  1  0  0  0
 42116  1  0  0  0
 43 44  1  0  0  0
 44117  1  0  0  0
 45 46  2  0  0  0
 45118  1  0  0  0
 46119  1  0  0  0
 47120  1  0  0  0
 47121  1  0  0  0
 48 56  1  0  0  0
 48 65  1  0  0  0
 48122  1  0  0  0
 49 50  1  0  0  0
 49 53  1  0  0  0
 49 64  1  0  0  0
 49123  1  0  0  0
 50 51  1  0  0  0
 50124  1  0  0  0
 50125  1  0  0  0
 51 52  1  0  0  0
 51126  1  0  0  0
 51127  1  0  0  0
 52128  1  0  0  0
 52129  1  0  0  0
 53 54  1  0  0  0
 54 55  2  0  0  0
 54130  1  0  0  0
 55 57  1  0  0  0
 55131  1  0  0  0
 56 69  2  0  0  0
 57 58  2  0  0  0
 57132  1  0  0  0
 58133  1  0  0  0
 59 60  1  0  0  0
 59 61  1  0  0  0
 59 62  1  0  0  0
 60134  1  0  0  0
 60135  1  0  0  0
 60136  1  0  0  0
 61137  1  0  0  0
 61138  1  0  0  0
 61139  1  0  0  0
 62140  1  0  0  0
 62141  1  0  0  0
 62142  1  0  0  0
 63 65  1  0  0  0
 63143  1  0  0  0
 63144  1  0  0  0
 63145  1  0  0  0
 64146  1  0  0  0
 65147  1  0  0  0
 68 83  1  0  0  0
 71 73  2  0  0  0
 71 75  1  0  0  0
 71148  1  0  0  0
 72 74  1  0  0  0
 72 76  2  0  0  0
 72149  1  0  0  0
 73 76  1  0  0  0
 73 77  1  0  0  0
 74 75  2  0  0  0
 74 85  1  0  0  0
 75 87  1  0  0  0
 76 88  1  0  0  0
 77 84  1  0  0  0
 77 86  2  0  0  0
 78 79  1  0  0  0
 78 81  1  0  0  0
 78150  1  0  0  0
 78151  1  0  0  0
 79 84  1  0  0  0
 79152  1  0  0  0
 79153  1  0  0  0
 80 81  1  0  0  0
 80 84  1  0  0  0
 80154  1  0  0  0
 80155  1  0  0  0
 81 82  1  0  0  0
 81 83  1  0  0  0
 82156  1  0  0  0
 82157  1  0  0  0
 82158  1  0  0  0
 83159  1  0  0  0
 83160  1  0  0  0
 85161  1  0  0  0
 86162  1  0  0  0
 86163  1  0  0  0
M  CHG  1  86   1
M  ISO  4   1 100  68 101  83 101  85 100
M  END
> <chiral flag>
0

> <version>
0

> <s_m_source_file>
/data/baiqing/PycharmProjects/Reinvent-master-3.2/result/LINK_invent/BTK/process_docking_weight1_custom_product_contain_oxygen_bond_distance_aromatic_linkinvent_7_9_3/rearranged_h_0147.sdf

> <i_m_source_file_index>
49

> <r_mmod_Potential_Energy-OPLS-2005>
-126.125793457031

> <r_mmod_Stretch_Energy-OPLS-2005>
52.9183120727539

> <r_mmod_Bend_Energy-OPLS-2005>
157.368087768555

> <r_mmod_Torsional_Energy-OPLS-2005>
301.422058105469

> <r_mmod_Improper_Torsional_Energy-OPLS-2005>
6.26106357574463

> <r_mmod_Van_der_Waal_Energy-OPLS-2005>
155.898895263672

> <r_mmod_Electrostatic_Energy-OPLS-2005>
-424.077606201172

> <r_mmod_Solvation_Energy-OPLS-2005>
-398.998474121094

> <b_mmod_Minimization_Converged-OPLS-2005>
0

> <r_mmod_RMS_Derivative-OPLS-2005>
1.21756613254547

$$$$
49
                    3D
 Structure written by MMmdl.
155164  0  0  1  0            999 V2000
  -30.7226  -14.4979   20.5463 C   0  0  0  0  0  0
  -30.4154  -12.3204   19.4250 C   0  0  0  0  0  0
  -29.4873  -12.4841   18.2053 C   0  0  0  0  0  0
  -28.0139  -12.3109   18.6246 C   0  0  0  0  0  0
  -27.6425  -13.1807   19.8526 C   0  0  2  0  0  0
  -28.6927  -13.0469   20.9824 C   0  0  0  0  0  0
  -25.2542  -13.8068   20.5660 C   0  0  0  0  0  0
  -24.1791  -13.0392   20.9213 C   0  0  0  0  0  0
  -24.6319  -11.6860   20.8771 C   0  0  0  0  0  0
  -23.8993  -10.4272   21.0429 C   0  0  0  0  0  0
  -24.3564   -9.4195   21.9193 C   0  0  0  0  0  0
  -23.6273   -8.2216   22.0750 C   0  0  0  0  0  0
  -22.4252   -8.0254   21.3546 C   0  0  0  0  0  0
  -21.9881   -9.0215   20.4649 C   0  0  0  0  0  0
  -22.7177  -10.2110   20.3065 C   0  0  0  0  0  0
  -21.6840   -6.0712   22.5279 C   0  0  0  0  0  0
  -21.3996   -6.5624   23.8212 C   0  0  0  0  0  0
  -21.3659   -5.6779   24.9179 C   0  0  0  0  0  0
  -21.6043   -4.3043   24.7227 C   0  0  0  0  0  0
  -21.8826   -3.8134   23.4349 C   0  0  0  0  0  0
  -21.9189   -4.6948   22.3405 C   0  0  0  0  0  0
  -22.7824  -13.5224   21.1865 C   0  0  0  0  0  0
  -22.1663   -4.2141   21.0982 F   0  0  0  0  0  0
  -21.5639   -3.4522   25.7737 F   0  0  0  0  0  0
  -30.0213  -13.3340   20.4171 N   0  0  0  0  0  0
  -26.2924  -12.9174   20.3301 N   0  0  0  0  0  0
  -25.9230  -11.6376   20.5782 N   0  0  0  0  0  0
  -22.0443  -12.8252   22.0431 N   0  0  0  0  0  0
  -25.4215  -15.1778   20.3961 N   0  0  0  0  0  0
  -31.8915  -14.6043   20.1631 O   0  0  0  0  0  0
  -21.6631   -6.8848   21.4234 O   0  0  0  0  0  0
  -22.3552  -14.5540   20.6707 O   0  0  0  0  0  0
  -24.6140  -31.8679   23.2098 C   0  0  0  0  0  0
  -25.9036  -32.4820   23.8390 C   0  0  1  0  0  0
  -27.2377  -27.4380   20.1017 C   0  0  0  0  0  0
  -25.5893  -33.8617   24.2328 N   0  0  0  0  0  0
  -23.4012  -30.4909   21.5498 C   0  0  2  0  0  0
  -24.8484  -28.9554   20.1149 C   0  0  0  0  0  0
  -22.7399  -29.4669   22.4996 C   0  0  0  0  0  0
  -18.0268  -28.1392   22.8508 C   0  0  0  0  0  0
  -24.1481  -36.7304   23.2641 C   0  0  0  0  0  0
  -25.9292  -30.8357   21.3605 C   0  0  0  0  0  0
  -26.0075  -29.4694   20.7092 C   0  0  0  0  0  0
  -27.2055  -28.7201   20.6948 C   0  0  0  0  0  0
  -26.0634  -26.9404   19.4929 C   0  0  0  0  0  0
  -24.8713  -27.6899   19.5022 C   0  0  0  0  0  0
  -23.6085  -29.8197   20.1649 C   0  0  0  0  0  0
  -25.4105  -36.3114   24.0343 C   0  0  1  0  0  0
  -20.5855  -28.3676   23.1321 C   0  0  2  0  0  0
  -20.6761  -26.9417   22.5417 C   0  0  0  0  0  0
  -19.5738  -26.6401   21.5218 C   0  0  0  0  0  0
  -18.1916  -26.7935   22.1640 C   0  0  0  0  0  0
  -19.1520  -28.8849   23.2911 C   0  0  0  0  0  0
  -18.9452  -30.1452   23.8922 C   0  0  0  0  0  0
  -17.6457  -30.6599   24.0574 C   0  0  0  0  0  0
  -25.9027  -34.9477   23.5129 C   0  0  0  0  0  0
  -16.5344  -29.9105   23.6336 C   0  0  0  0  0  0
  -16.7256  -28.6522   23.0355 C   0  0  0  0  0  0
  -26.4473  -31.6594   25.0711 C   0  0  0  0  0  0
  -25.3758  -31.3698   26.1474 C   0  0  0  0  0  0
  -27.0292  -30.3037   24.6074 C   0  0  0  0  0  0
  -27.6065  -32.4304   25.7459 C   0  0  0  0  0  0
  -27.5566  -37.1818   24.8484 C   0  0  0  0  0  0
  -21.4131  -29.3037   22.3729 N   0  0  0  0  0  0
  -26.4300  -37.3787   23.9399 N   0  0  0  0  0  0
  -24.6661  -31.0790   22.0985 N   0  0  0  0  0  0
  -23.4180  -28.8213   23.3033 O   0  0  0  0  0  0
  -28.4156  -26.7186   20.1069 O   0  0  0  0  0  0
  -26.5600  -34.8931   22.4695 O   0  0  0  0  0  0
  -23.5338  -32.1420   23.7499 O   0  0  0  0  0  0
  -30.6847  -19.3417   20.9997 C   0  0  0  0  0  0
  -30.3449  -17.9511   20.9997 C   0  0  0  0  0  0
  -29.4330  -17.6373   20.0770 C   0  0  0  0  0  0
  -30.0225  -20.0381   19.9978 C   0  0  0  0  0  0
  -30.1426  -22.4391   20.3624 C   0  0  0  0  0  0
  -30.7346  -16.6967   21.7239 C   0  0  0  0  0  0
  -29.0761  -16.2141   20.0653 C   0  0  0  0  0  0
  -30.3003  -23.7737   19.6167 C   0  0  0  0  0  0
  -28.9624  -24.4698   19.2625 C   0  0  0  0  0  0
  -28.3360  -25.3128   20.3950 C   0  0  0  0  0  0
  -30.0440  -15.5849   20.9969 N   0  0  0  0  0  0
  -30.1523  -21.3314   19.6034 N   0  0  0  0  0  0
  -30.0316  -22.4257   21.5898 O   0  0  0  0  0  0
  -28.9532  -18.9737   19.0906 S   0  0  0  0  0  0
  -31.4585  -12.4141   19.1172 H   0  0  0  0  0  0
  -30.3215  -11.3215   19.8528 H   0  0  0  0  0  0
  -29.7442  -11.7530   17.4386 H   0  0  0  0  0  0
  -29.6319  -13.4658   17.7516 H   0  0  0  0  0  0
  -27.8564  -11.2568   18.8562 H   0  0  0  0  0  0
  -27.3536  -12.5378   17.7860 H   0  0  0  0  0  0
  -27.6353  -14.1938   19.4742 H   0  0  0  0  0  0
  -28.6834  -12.0361   21.3927 H   0  0  0  0  0  0
  -28.4508  -13.7098   21.8153 H   0  0  0  0  0  0
  -25.2693   -9.5688   22.4787 H   0  0  0  0  0  0
  -23.9984   -7.4601   22.7462 H   0  0  0  0  0  0
  -21.0811   -8.8711   19.8955 H   0  0  0  0  0  0
  -22.3611  -10.9651   19.6188 H   0  0  0  0  0  0
  -21.1977   -7.6128   23.9714 H   0  0  0  0  0  0
  -21.1478   -6.0507   25.9085 H   0  0  0  0  0  0
  -22.0611   -2.7599   23.2844 H   0  0  0  0  0  0
  -22.4010  -11.9915   22.4853 H   0  0  0  0  0  0
  -21.1064  -13.1318   22.2614 H   0  0  0  0  0  0
  -24.6417  -15.8204   20.4869 H   0  0  0  0  0  0
  -26.2513  -15.6162   20.0216 H   0  0  0  0  0  0
  -26.7107  -32.5545   23.1157 H   0  0  0  0  0  0
  -25.0057  -33.9772   25.0482 H   0  0  0  0  0  0
  -22.6912  -31.3084   21.4095 H   0  0  0  0  0  0
  -23.3729  -35.9654   23.3372 H   0  0  0  0  0  0
  -24.3563  -36.8837   22.2039 H   0  0  0  0  0  0
  -23.7261  -37.6543   23.6604 H   0  0  0  0  0  0
  -26.0397  -31.6021   20.5911 H   0  0  0  0  0  0
  -26.8188  -30.8908   21.9763 H   0  0  0  0  0  0
  -28.1021  -29.1157   21.1515 H   0  0  0  0  0  0
  -26.0663  -25.9777   19.0005 H   0  0  0  0  0  0
  -23.9826  -27.2904   19.0332 H   0  0  0  0  0  0
  -23.7130  -30.5929   19.4030 H   0  0  0  0  0  0
  -22.7338  -29.2350   19.8734 H   0  0  0  0  0  0
  -25.1287  -36.1981   25.0839 H   0  0  0  0  0  0
  -20.9952  -28.3241   24.1436 H   0  0  0  0  0  0
  -20.5678  -26.2284   23.3600 H   0  0  0  0  0  0
  -21.6629  -26.7469   22.1192 H   0  0  0  0  0  0
  -19.6896  -25.6317   21.1230 H   0  0  0  0  0  0
  -19.6663  -27.3233   20.6764 H   0  0  0  0  0  0
  -17.4174  -26.6676   21.4048 H   0  0  0  0  0  0
  -18.0328  -26.0076   22.9042 H   0  0  0  0  0  0
  -19.7926  -30.7263   24.2298 H   0  0  0  0  0  0
  -17.5015  -31.6281   24.5174 H   0  0  0  0  0  0
  -15.5346  -30.3023   23.7646 H   0  0  0  0  0  0
  -15.8654  -28.0852   22.7063 H   0  0  0  0  0  0
  -24.5889  -30.7097   25.7805 H   0  0  0  0  0  0
  -24.9007  -32.2859   26.4992 H   0  0  0  0  0  0
  -25.8117  -30.8797   27.0189 H   0  0  0  0  0  0
  -26.2812  -29.6792   24.1174 H   0  0  0  0  0  0
  -27.4113  -29.7278   25.4512 H   0  0  0  0  0  0
  -27.8629  -30.4352   23.9174 H   0  0  0  0  0  0
  -27.2704  -33.3606   26.2051 H   0  0  0  0  0  0
  -28.3860  -32.6855   25.0269 H   0  0  0  0  0  0
  -28.0747  -31.8418   26.5357 H   0  0  0  0  0  0
  -28.2649  -38.0048   24.7458 H   0  0  0  0  0  0
  -28.0995  -36.2584   24.6414 H   0  0  0  0  0  0
  -27.2275  -37.1591   25.8887 H   0  0  0  0  0  0
  -20.9296  -29.8754   21.6948 H   0  0  0  0  0  0
  -26.0196  -38.2873   24.1367 H   0  0  0  0  0  0
  -31.4127  -19.7631   21.6785 H   0  0  0  0  0  0
  -30.3864  -16.7174   22.7575 H   0  0  0  0  0  0
  -31.8188  -16.5760   21.7528 H   0  0  0  0  0  0
  -29.1303  -15.8203   19.0476 H   0  0  0  0  0  0
  -28.0648  -16.0963   20.4476 H   0  0  0  0  0  0
  -30.8610  -23.5879   18.6984 H   0  0  0  0  0  0
  -30.9284  -24.4436   20.2047 H   0  0  0  0  0  0
  -28.2432  -23.7148   18.9417 H   0  0  0  0  0  0
  -29.1129  -25.1016   18.3867 H   0  0  0  0  0  0
  -28.8655  -25.1373   21.3312 H   0  0  0  0  0  0
  -27.3187  -24.9700   20.5883 H   0  0  0  0  0  0
  -30.1427  -21.4903   18.6043 H   0  0  0  0  0  0
  1 25  1  0  0  0
  1 30  2  0  0  0
  1 81  1  0  0  0
  2  3  1  0  0  0
  2 25  1  0  0  0
  2 85  1  0  0  0
  2 86  1  0  0  0
  3  4  1  0  0  0
  3 87  1  0  0  0
  3 88  1  0  0  0
  4  5  1  0  0  0
  4 89  1  0  0  0
  4 90  1  0  0  0
  5  6  1  0  0  0
  5 26  1  0  0  0
  5 91  1  0  0  0
  6 25  1  0  0  0
  6 92  1  0  0  0
  6 93  1  0  0  0
  7  8  2  0  0  0
  7 26  1  0  0  0
  7 29  1  0  0  0
  8  9  1  0  0  0
  8 22  1  0  0  0
  9 10  1  0  0  0
  9 27  2  0  0  0
 10 11  2  0  0  0
 10 15  1  0  0  0
 11 12  1  0  0  0
 11 94  1  0  0  0
 12 13  2  0  0  0
 12 95  1  0  0  0
 13 14  1  0  0  0
 13 31  1  0  0  0
 14 15  2  0  0  0
 14 96  1  0  0  0
 15 97  1  0  0  0
 16 17  2  0  0  0
 16 21  1  0  0  0
 16 31  1  0  0  0
 17 18  1  0  0  0
 17 98  1  0  0  0
 18 19  2  0  0  0
 18 99  1  0  0  0
 19 20  1  0  0  0
 19 24  1  0  0  0
 20 21  2  0  0  0
 20100  1  0  0  0
 21 23  1  0  0  0
 22 28  1  0  0  0
 22 32  2  0  0  0
 26 27  1  0  0  0
 28101  1  0  0  0
 28102  1  0  0  0
 29103  1  0  0  0
 29104  1  0  0  0
 33 34  1  0  0  0
 33 66  1  0  0  0
 33 70  2  0  0  0
 34 36  1  0  0  0
 34 59  1  0  0  0
 34105  1  0  0  0
 35 44  2  0  0  0
 35 45  1  0  0  0
 35 68  1  0  0  0
 36 56  1  0  0  0
 36106  1  0  0  0
 37 39  1  0  0  0
 37 47  1  0  0  0
 37 66  1  0  0  0
 37107  1  0  0  0
 38 43  2  0  0  0
 38 46  1  0  0  0
 38 47  1  0  0  0
 39 64  1  0  0  0
 39 67  2  0  0  0
 40 52  1  0  0  0
 40 53  2  0  0  0
 40 58  1  0  0  0
 41108  1  0  0  0
 41109  1  0  0  0
 41110  1  0  0  0
 41 48  1  0  0  0
 42 43  1  0  0  0
 42 66  1  0  0  0
 42111  1  0  0  0
 42112  1  0  0  0
 43 44  1  0  0  0
 44113  1  0  0  0
 45 46  2  0  0  0
 45114  1  0  0  0
 46115  1  0  0  0
 47116  1  0  0  0
 47117  1  0  0  0
 48 56  1  0  0  0
 48 65  1  0  0  0
 48118  1  0  0  0
 49 50  1  0  0  0
 49 53  1  0  0  0
 49 64  1  0  0  0
 49119  1  0  0  0
 50 51  1  0  0  0
 50120  1  0  0  0
 50121  1  0  0  0
 51 52  1  0  0  0
 51122  1  0  0  0
 51123  1  0  0  0
 52124  1  0  0  0
 52125  1  0  0  0
 53 54  1  0  0  0
 54 55  2  0  0  0
 54126  1  0  0  0
 55 57  1  0  0  0
 55127  1  0  0  0
 56 69  2  0  0  0
 57 58  2  0  0  0
 57128  1  0  0  0
 58129  1  0  0  0
 59 60  1  0  0  0
 59 61  1  0  0  0
 59 62  1  0  0  0
 60130  1  0  0  0
 60131  1  0  0  0
 60132  1  0  0  0
 61133  1  0  0  0
 61134  1  0  0  0
 61135  1  0  0  0
 62136  1  0  0  0
 62137  1  0  0  0
 62138  1  0  0  0
 63 65  1  0  0  0
 63139  1  0  0  0
 63140  1  0  0  0
 63141  1  0  0  0
 64142  1  0  0  0
 65143  1  0  0  0
 68 80  1  0  0  0
 71 72  1  0  0  0
 71 74  2  0  0  0
 71144  1  0  0  0
 72 73  2  0  0  0
 72 76  1  0  0  0
 73 77  1  0  0  0
 73 84  1  0  0  0
 74 82  1  0  0  0
 74 84  1  0  0  0
 75 78  1  0  0  0
 75 82  1  0  0  0
 75 83  2  0  0  0
 76 81  1  0  0  0
 76145  1  0  0  0
 76146  1  0  0  0
 77 81  1  0  0  0
 77147  1  0  0  0
 77148  1  0  0  0
 78 79  1  0  0  0
 78149  1  0  0  0
 78150  1  0  0  0
 79 80  1  0  0  0
 79151  1  0  0  0
 79152  1  0  0  0
 80153  1  0  0  0
 80154  1  0  0  0
 82155  1  0  0  0
M  ISO  4   1 100  68 101  80 101  81 100
M  END
> <chiral flag>
0

> <version>
0

> <s_m_source_file>
/data/baiqing/PycharmProjects/Reinvent-master-3.2/result/LINK_invent/BTK/process_docking_weight1_custom_product_contain_oxygen_bond_distance_aromatic_linkinvent_7_9_3/rearranged_h_0147.sdf

> <i_m_source_file_index>
50

> <r_mmod_Potential_Energy-OPLS-2005>
60.321949005127

> <r_mmod_Stretch_Energy-OPLS-2005>
42.8581352233887

> <r_mmod_Bend_Energy-OPLS-2005>
179.204055786133

> <r_mmod_Torsional_Energy-OPLS-2005>
297.132171630859

> <r_mmod_Improper_Torsional_Energy-OPLS-2005>
7.74411153793335

> <r_mmod_Van_der_Waal_Energy-OPLS-2005>
128.886184692383

> <r_mmod_Electrostatic_Energy-OPLS-2005>
-386.411163330078

> <r_mmod_Solvation_Energy-OPLS-2005>
-227.837875366211

> <b_mmod_Minimization_Converged-OPLS-2005>
0

> <r_mmod_RMS_Derivative-OPLS-2005>
1.79063475131989

$$$$
50
                    3D
 Structure written by MMmdl.
148157  0  0  1  0            999 V2000
  -30.5104  -15.0106   20.4199 C   0  0  0  0  0  0
  -30.4441  -12.6294   19.5085 C   0  0  0  0  0  0
  -29.5278  -12.5433   18.2638 C   0  0  0  0  0  0
  -28.0615  -12.3171   18.6803 C   0  0  0  0  0  0
  -27.6267  -13.2527   19.8380 C   0  0  2  0  0  0
  -28.6672  -13.3007   20.9771 C   0  0  0  0  0  0
  -25.2450  -13.8219   20.5718 C   0  0  0  0  0  0
  -24.1772  -13.0442   20.9232 C   0  0  0  0  0  0
  -24.6382  -11.6927   20.8748 C   0  0  0  0  0  0
  -23.9073  -10.4292   21.0408 C   0  0  0  0  0  0
  -24.3624   -9.4209   21.9186 C   0  0  0  0  0  0
  -23.6294   -8.2243   22.0759 C   0  0  0  0  0  0
  -22.4273   -8.0273   21.3550 C   0  0  0  0  0  0
  -21.9906   -9.0249   20.4659 C   0  0  0  0  0  0
  -22.7240  -10.2127   20.3066 C   0  0  0  0  0  0
  -21.6849   -6.0730   22.5274 C   0  0  0  0  0  0
  -21.4017   -6.5636   23.8207 C   0  0  0  0  0  0
  -21.3664   -5.6794   24.9171 C   0  0  0  0  0  0
  -21.6045   -4.3055   24.7220 C   0  0  0  0  0  0
  -21.8820   -3.8143   23.4341 C   0  0  0  0  0  0
  -21.9194   -4.6960   22.3396 C   0  0  0  0  0  0
  -22.7795  -13.5212   21.1883 C   0  0  0  0  0  0
  -22.1666   -4.2150   21.0972 F   0  0  0  0  0  0
  -21.5624   -3.4539   25.7732 F   0  0  0  0  0  0
  -29.9362  -13.7349   20.3764 N   0  0  0  0  0  0
  -26.2868  -12.9456   20.3239 N   0  0  0  0  0  0
  -25.9319  -11.6586   20.5729 N   0  0  0  0  0  0
  -22.0438  -12.8206   22.0436 N   0  0  0  0  0  0
  -25.4112  -15.1950   20.4153 N   0  0  0  0  0  0
  -31.7208  -15.0706   20.1633 O   0  0  0  0  0  0
  -21.6638   -6.8869   21.4234 O   0  0  0  0  0  0
  -22.3488  -14.5518   20.6723 O   0  0  0  0  0  0
  -24.6476  -31.8397   23.1844 C   0  0  0  0  0  0
  -25.9230  -32.4668   23.8249 C   0  0  1  0  0  0
  -27.2107  -27.0822   20.1658 C   0  0  0  0  0  0
  -25.5962  -33.8478   24.2160 N   0  0  0  0  0  0
  -23.4540  -30.4592   21.5309 C   0  0  2  0  0  0
  -24.9036  -28.8780   20.1117 C   0  0  0  0  0  0
  -22.7589  -29.4525   22.4830 C   0  0  0  0  0  0
  -18.0310  -28.1398   22.8465 C   0  0  0  0  0  0
  -24.1498  -36.7248   23.2641 C   0  0  0  0  0  0
  -26.0138  -30.6967   21.3930 C   0  0  0  0  0  0
  -26.0831  -29.3023   20.7365 C   0  0  0  0  0  0
  -27.2375  -28.4226   20.7434 C   0  0  0  0  0  0
  -26.0055  -26.7774   19.4943 C   0  0  0  0  0  0
  -24.8812  -27.6306   19.4735 C   0  0  0  0  0  0
  -23.6842  -29.7879   20.1510 C   0  0  0  0  0  0
  -25.4129  -36.3012   24.0309 C   0  0  1  0  0  0
  -20.5923  -28.3730   23.1210 C   0  0  2  0  0  0
  -20.6793  -26.9427   22.5394 C   0  0  0  0  0  0
  -19.5766  -26.6374   21.5206 C   0  0  0  0  0  0
  -18.1950  -26.7931   22.1622 C   0  0  0  0  0  0
  -19.1567  -28.8881   23.2830 C   0  0  0  0  0  0
  -18.9485  -30.1473   23.8861 C   0  0  0  0  0  0
  -17.6483  -30.6587   24.0557 C   0  0  0  0  0  0
  -25.9080  -34.9394   23.5045 C   0  0  0  0  0  0
  -16.5372  -29.9080   23.6335 C   0  0  0  0  0  0
  -16.7295  -28.6503   23.0349 C   0  0  0  0  0  0
  -26.4534  -31.6557   25.0717 C   0  0  0  0  0  0
  -25.3707  -31.3770   26.1403 C   0  0  0  0  0  0
  -27.0401  -30.2939   24.6348 C   0  0  0  0  0  0
  -27.6048  -32.4340   25.7509 C   0  0  0  0  0  0
  -27.5574  -37.1779   24.8458 C   0  0  0  0  0  0
  -21.4272  -29.3059   22.3582 N   0  0  0  0  0  0
  -26.4283  -37.3733   23.9404 N   0  0  0  0  0  0
  -24.7253  -31.0211   22.0905 N   0  0  0  0  0  0
  -23.4213  -28.8073   23.2999 O   0  0  0  0  0  0
  -28.2487  -26.0627   20.2200 O   0  0  0  0  0  0
  -26.5673  -34.8901   22.4629 O   0  0  0  0  0  0
  -23.5585  -32.1299   23.7039 O   0  0  0  0  0  0
  -30.8256  -19.7476   20.4373 C   0  0  0  0  0  0
  -31.0831  -18.3139   20.4801 C   0  0  0  0  0  0
  -29.4741  -20.0312   20.4043 C   0  0  0  0  0  0
  -29.8930  -17.6285   20.4765 C   0  0  0  0  0  0
  -28.7279  -22.2418   19.0344 C   0  0  0  0  0  0
  -28.5956  -21.4450   20.3062 C   0  0  2  0  0  0
  -28.9038  -23.1264   20.2515 C   0  0  2  0  0  0
  -27.9291  -24.5144   20.3232 C   0  0  0  0  0  0
  -29.6963  -16.1884   20.5401 N   0  0  0  0  0  0
  -28.8944  -18.6906   20.4346 O   0  0  0  0  0  0
  -31.4760  -12.8021   19.1982 H   0  0  0  0  0  0
  -30.4493  -11.6830   20.0529 H   0  0  0  0  0  0
  -29.8583  -11.7431   17.6004 H   0  0  0  0  0  0
  -29.6059  -13.4672   17.6884 H   0  0  0  0  0  0
  -27.9658  -11.2773   18.9956 H   0  0  0  0  0  0
  -27.3998  -12.4364   17.8215 H   0  0  0  0  0  0
  -27.5831  -14.2498   19.3991 H   0  0  0  0  0  0
  -28.7684  -12.3289   21.4620 H   0  0  0  0  0  0
  -28.3549  -14.0031   21.7520 H   0  0  0  0  0  0
  -25.2768   -9.5683   22.4757 H   0  0  0  0  0  0
  -24.0005   -7.4635   22.7473 H   0  0  0  0  0  0
  -21.0832   -8.8777   19.8957 H   0  0  0  0  0  0
  -22.3701  -10.9671   19.6176 H   0  0  0  0  0  0
  -21.2018   -7.6147   23.9710 H   0  0  0  0  0  0
  -21.1488   -6.0524   25.9076 H   0  0  0  0  0  0
  -22.0595   -2.7607   23.2838 H   0  0  0  0  0  0
  -22.4068  -11.9887   22.4851 H   0  0  0  0  0  0
  -21.1063  -13.1249   22.2645 H   0  0  0  0  0  0
  -24.6365  -15.8412   20.5178 H   0  0  0  0  0  0
  -26.2448  -15.6339   20.0476 H   0  0  0  0  0  0
  -26.7295  -32.5264   23.0973 H   0  0  0  0  0  0
  -25.0073  -33.9590   25.0283 H   0  0  0  0  0  0
  -22.7590  -31.2866   21.3738 H   0  0  0  0  0  0
  -23.3762  -35.9574   23.3279 H   0  0  0  0  0  0
  -24.3580  -36.8911   22.2058 H   0  0  0  0  0  0
  -23.7263  -37.6441   23.6701 H   0  0  0  0  0  0
  -26.1778  -31.4470   20.6185 H   0  0  0  0  0  0
  -26.8808  -30.7466   22.0399 H   0  0  0  0  0  0
  -28.1357  -28.7432   21.2529 H   0  0  0  0  0  0
  -25.8913  -25.8380   18.9777 H   0  0  0  0  0  0
  -23.9850  -27.3043   18.9639 H   0  0  0  0  0  0
  -23.8298  -30.5625   19.3974 H   0  0  0  0  0  0
  -22.7970  -29.2364   19.8344 H   0  0  0  0  0  0
  -25.1322  -36.1821   25.0801 H   0  0  0  0  0  0
  -21.0017  -28.3332   24.1331 H   0  0  0  0  0  0
  -20.5678  -26.2350   23.3623 H   0  0  0  0  0  0
  -21.6660  -26.7423   22.1202 H   0  0  0  0  0  0
  -19.6928  -25.6275   21.1262 H   0  0  0  0  0  0
  -19.6697  -27.3160   20.6717 H   0  0  0  0  0  0
  -17.4211  -26.6651   21.4037 H   0  0  0  0  0  0
  -18.0364  -26.0082   22.9032 H   0  0  0  0  0  0
  -19.7960  -30.7294   24.2215 H   0  0  0  0  0  0
  -17.5036  -31.6262   24.5163 H   0  0  0  0  0  0
  -15.5371  -30.2978   23.7671 H   0  0  0  0  0  0
  -15.8694  -28.0812   22.7085 H   0  0  0  0  0  0
  -24.5874  -30.7134   25.7721 H   0  0  0  0  0  0
  -24.8918  -32.2965   26.4778 H   0  0  0  0  0  0
  -25.7978  -30.8966   27.0214 H   0  0  0  0  0  0
  -26.3024  -29.6649   24.1348 H   0  0  0  0  0  0
  -27.3969  -29.7259   25.4952 H   0  0  0  0  0  0
  -27.8959  -30.4145   23.9701 H   0  0  0  0  0  0
  -27.2617  -33.3656   26.2016 H   0  0  0  0  0  0
  -28.3894  -32.6874   25.0369 H   0  0  0  0  0  0
  -28.0669  -31.8516   26.5488 H   0  0  0  0  0  0
  -28.2570  -38.0096   24.7514 H   0  0  0  0  0  0
  -28.1096  -36.2627   24.6272 H   0  0  0  0  0  0
  -27.2291  -37.1404   25.8860 H   0  0  0  0  0  0
  -20.9482  -29.8783   21.6764 H   0  0  0  0  0  0
  -26.0142  -38.2794   24.1421 H   0  0  0  0  0  0
  -31.5882  -20.5139   20.4247 H   0  0  0  0  0  0
  -32.0575  -17.8469   20.5137 H   0  0  0  0  0  0
  -27.8169  -22.3508   18.4481 H   0  0  0  0  0  0
  -29.6185  -22.0782   18.4311 H   0  0  0  0  0  0
  -27.5814  -21.2138   20.6297 H   0  0  0  0  0  0
  -29.9191  -23.3510   20.5712 H   0  0  0  0  0  0
  -27.4269  -24.4381   21.2884 H   0  0  0  0  0  0
  -27.1398  -24.3100   19.6053 H   0  0  0  0  0  0
  -28.7285  -15.9409   20.6731 H   0  0  0  0  0  0
  1 25  1  0  0  0
  1 30  2  0  0  0
  1 79  1  0  0  0
  2  3  1  0  0  0
  2 25  1  0  0  0
  2 81  1  0  0  0
  2 82  1  0  0  0
  3  4  1  0  0  0
  3 83  1  0  0  0
  3 84  1  0  0  0
  4  5  1  0  0  0
  4 85  1  0  0  0
  4 86  1  0  0  0
  5  6  1  0  0  0
  5 26  1  0  0  0
  5 87  1  0  0  0
  6 25  1  0  0  0
  6 88  1  0  0  0
  6 89  1  0  0  0
  7  8  2  0  0  0
  7 26  1  0  0  0
  7 29  1  0  0  0
  8  9  1  0  0  0
  8 22  1  0  0  0
  9 10  1  0  0  0
  9 27  2  0  0  0
 10 11  2  0  0  0
 10 15  1  0  0  0
 11 12  1  0  0  0
 11 90  1  0  0  0
 12 13  2  0  0  0
 12 91  1  0  0  0
 13 14  1  0  0  0
 13 31  1  0  0  0
 14 15  2  0  0  0
 14 92  1  0  0  0
 15 93  1  0  0  0
 16 17  2  0  0  0
 16 21  1  0  0  0
 16 31  1  0  0  0
 17 18  1  0  0  0
 17 94  1  0  0  0
 18 19  2  0  0  0
 18 95  1  0  0  0
 19 20  1  0  0  0
 19 24  1  0  0  0
 20 21  2  0  0  0
 20 96  1  0  0  0
 21 23  1  0  0  0
 22 28  1  0  0  0
 22 32  2  0  0  0
 26 27  1  0  0  0
 28 97  1  0  0  0
 28 98  1  0  0  0
 29 99  1  0  0  0
 29100  1  0  0  0
 33 34  1  0  0  0
 33 66  1  0  0  0
 33 70  2  0  0  0
 34 36  1  0  0  0
 34 59  1  0  0  0
 34101  1  0  0  0
 35 44  2  0  0  0
 35 45  1  0  0  0
 35 68  1  0  0  0
 36 56  1  0  0  0
 36102  1  0  0  0
 37 39  1  0  0  0
 37 47  1  0  0  0
 37 66  1  0  0  0
 37103  1  0  0  0
 38 43  2  0  0  0
 38 46  1  0  0  0
 38 47  1  0  0  0
 39 64  1  0  0  0
 39 67  2  0  0  0
 40 52  1  0  0  0
 40 53  2  0  0  0
 40 58  1  0  0  0
 41104  1  0  0  0
 41105  1  0  0  0
 41106  1  0  0  0
 41 48  1  0  0  0
 42 43  1  0  0  0
 42 66  1  0  0  0
 42107  1  0  0  0
 42108  1  0  0  0
 43 44  1  0  0  0
 44109  1  0  0  0
 45 46  2  0  0  0
 45110  1  0  0  0
 46111  1  0  0  0
 47112  1  0  0  0
 47113  1  0  0  0
 48 56  1  0  0  0
 48 65  1  0  0  0
 48114  1  0  0  0
 49 50  1  0  0  0
 49 53  1  0  0  0
 49 64  1  0  0  0
 49115  1  0  0  0
 50 51  1  0  0  0
 50116  1  0  0  0
 50117  1  0  0  0
 51 52  1  0  0  0
 51118  1  0  0  0
 51119  1  0  0  0
 52120  1  0  0  0
 52121  1  0  0  0
 53 54  1  0  0  0
 54 55  2  0  0  0
 54122  1  0  0  0
 55 57  1  0  0  0
 55123  1  0  0  0
 56 69  2  0  0  0
 57 58  2  0  0  0
 57124  1  0  0  0
 58125  1  0  0  0
 59 60  1  0  0  0
 59 61  1  0  0  0
 59 62  1  0  0  0
 60126  1  0  0  0
 60127  1  0  0  0
 60128  1  0  0  0
 61129  1  0  0  0
 61130  1  0  0  0
 61131  1  0  0  0
 62132  1  0  0  0
 62133  1  0  0  0
 62134  1  0  0  0
 63 65  1  0  0  0
 63135  1  0  0  0
 63136  1  0  0  0
 63137  1  0  0  0
 64138  1  0  0  0
 65139  1  0  0  0
 68 78  1  0  0  0
 71 72  1  0  0  0
 71 73  2  0  0  0
 71140  1  0  0  0
 72 74  2  0  0  0
 72141  1  0  0  0
 73 80  1  0  0  0
 73 76  1  0  0  0
 74 79  1  0  0  0
 74 80  1  0  0  0
 75 76  1  0  0  0
 75 77  1  0  0  0
 75142  1  0  0  0
 75143  1  0  0  0
 76 77  1  0  0  0
 76144  1  0  0  0
 77 78  1  0  0  0
 77145  1  0  0  0
 78146  1  0  0  0
 78147  1  0  0  0
 79148  1  0  0  0
M  ISO  4   1 100  68 101  78 101  79 100
M  END
> <chiral flag>
0

> <version>
0

> <s_m_source_file>
/data/baiqing/PycharmProjects/Reinvent-master-3.2/result/LINK_invent/BTK/process_docking_weight1_custom_product_contain_oxygen_bond_distance_aromatic_linkinvent_7_9_3/rearranged_h_0147.sdf

> <i_m_source_file_index>
51

> <r_mmod_Potential_Energy-OPLS-2005>
615.845275878906

> <r_mmod_Stretch_Energy-OPLS-2005>
312.177032470703

> <r_mmod_Bend_Energy-OPLS-2005>
284.167297363281

> <r_mmod_Torsional_Energy-OPLS-2005>
252.221160888672

> <r_mmod_Improper_Torsional_Energy-OPLS-2005>
4.56276369094849

> <r_mmod_Van_der_Waal_Energy-OPLS-2005>
112.747985839844

> <r_mmod_Electrostatic_Energy-OPLS-2005>
-384.787994384766

> <r_mmod_Solvation_Energy-OPLS-2005>
-205.666152954102

> <b_mmod_Minimization_Converged-OPLS-2005>
0

> <r_mmod_RMS_Derivative-OPLS-2005>
1.64435684680939

$$$$
51
                    3D
 Structure written by MMmdl.
162171  0  0  1  0            999 V2000
  -30.6097  -14.6379   20.5115 C   0  0  0  0  0  0
  -30.4415  -12.3926   19.4503 C   0  0  0  0  0  0
  -29.5084  -12.5120   18.2235 C   0  0  0  0  0  0
  -28.0305  -12.3487   18.6331 C   0  0  0  0  0  0
  -27.6548  -13.2126   19.8663 C   0  0  2  0  0  0
  -28.6993  -13.0521   20.9944 C   0  0  0  0  0  0
  -25.2569  -13.8161   20.5673 C   0  0  0  0  0  0
  -24.1833  -13.0435   20.9189 C   0  0  0  0  0  0
  -24.6396  -11.6904   20.8742 C   0  0  0  0  0  0
  -23.9063  -10.4291   21.0411 C   0  0  0  0  0  0
  -24.3614   -9.4205   21.9184 C   0  0  0  0  0  0
  -23.6288   -8.2243   22.0753 C   0  0  0  0  0  0
  -22.4272   -8.0280   21.3543 C   0  0  0  0  0  0
  -21.9906   -9.0257   20.4648 C   0  0  0  0  0  0
  -22.7234  -10.2138   20.3060 C   0  0  0  0  0  0
  -21.6855   -6.0733   22.5276 C   0  0  0  0  0  0
  -21.4017   -6.5640   23.8208 C   0  0  0  0  0  0
  -21.3657   -5.6793   24.9170 C   0  0  0  0  0  0
  -21.6042   -4.3055   24.7224 C   0  0  0  0  0  0
  -21.8819   -3.8145   23.4346 C   0  0  0  0  0  0
  -21.9192   -4.6961   22.3401 C   0  0  0  0  0  0
  -22.7856  -13.5234   21.1846 C   0  0  0  0  0  0
  -22.1659   -4.2145   21.0979 F   0  0  0  0  0  0
  -21.5627   -3.4539   25.7737 F   0  0  0  0  0  0
  -30.0156  -13.4045   20.4368 N   0  0  0  0  0  0
  -26.2994  -12.9331   20.3323 N   0  0  0  0  0  0
  -25.9323  -11.6494   20.5761 N   0  0  0  0  0  0
  -22.0500  -12.8230   22.0408 N   0  0  0  0  0  0
  -25.4285  -15.1879   20.4052 N   0  0  0  0  0  0
  -31.7663  -14.8195   20.1176 O   0  0  0  0  0  0
  -21.6638   -6.8875   21.4237 O   0  0  0  0  0  0
  -22.3541  -14.5537   20.6689 O   0  0  0  0  0  0
  -24.6247  -31.8601   23.2026 C   0  0  0  0  0  0
  -25.9095  -32.4783   23.8355 C   0  0  1  0  0  0
  -27.2271  -27.3296   20.1271 C   0  0  0  0  0  0
  -25.5913  -33.8584   24.2282 N   0  0  0  0  0  0
  -23.4192  -30.4822   21.5444 C   0  0  2  0  0  0
  -24.8684  -28.9368   20.1121 C   0  0  0  0  0  0
  -22.7472  -29.4620   22.4937 C   0  0  0  0  0  0
  -18.0289  -28.1383   22.8487 C   0  0  0  0  0  0
  -24.1488  -36.7299   23.2640 C   0  0  0  0  0  0
  -25.9583  -30.7953   21.3715 C   0  0  0  0  0  0
  -26.0355  -29.4223   20.7168 C   0  0  0  0  0  0
  -27.2210  -28.6310   20.7123 C   0  0  0  0  0  0
  -26.0435  -26.8941   19.4941 C   0  0  0  0  0  0
  -24.8733  -27.6775   19.4905 C   0  0  0  0  0  0
  -23.6348  -29.8153   20.1600 C   0  0  0  0  0  0
  -25.4113  -36.3088   24.0330 C   0  0  1  0  0  0
  -20.5887  -28.3686   23.1286 C   0  0  2  0  0  0
  -20.6775  -26.9409   22.5413 C   0  0  0  0  0  0
  -19.5753  -26.6386   21.5211 C   0  0  0  0  0  0
  -18.1934  -26.7925   22.1626 C   0  0  0  0  0  0
  -19.1540  -28.8851   23.2883 C   0  0  0  0  0  0
  -18.9463  -30.1452   23.8900 C   0  0  0  0  0  0
  -17.6463  -30.6587   24.0564 C   0  0  0  0  0  0
  -25.9046  -34.9455   23.5107 C   0  0  0  0  0  0
  -16.5354  -29.9087   23.6325 C   0  0  0  0  0  0
  -16.7277  -28.6504   23.0348 C   0  0  0  0  0  0
  -26.4488  -31.6591   25.0718 C   0  0  0  0  0  0
  -25.3728  -31.3729   26.1451 C   0  0  0  0  0  0
  -27.0328  -30.3018   24.6158 C   0  0  0  0  0  0
  -27.6053  -32.4323   25.7481 C   0  0  0  0  0  0
  -27.5578  -37.1809   24.8467 C   0  0  0  0  0  0
  -21.4187  -29.3040   22.3679 N   0  0  0  0  0  0
  -26.4296  -37.3778   23.9403 N   0  0  0  0  0  0
  -24.6861  -31.0622   22.0969 N   0  0  0  0  0  0
  -23.4196  -28.8165   23.3021 O   0  0  0  0  0  0
  -28.3371  -26.4777   20.1520 O   0  0  0  0  0  0
  -26.5616  -34.8919   22.4674 O   0  0  0  0  0  0
  -23.5412  -32.1391   23.7359 O   0  0  0  0  0  0
  -30.8469  -19.3187   20.2425 C   0  0  0  0  0  0
  -28.5394  -19.2632   20.8873 C   0  0  0  0  0  0
  -30.9286  -17.8950   20.3546 C   0  0  0  0  0  0
  -28.6199  -17.8448   21.0113 C   0  0  0  0  0  0
  -29.6529  -20.0556   20.5058 C   0  0  0  0  0  0
  -29.8099  -17.1141   20.7455 C   0  0  0  0  0  0
  -30.3494  -23.7901   20.2534 C   0  0  0  0  0  0
  -30.7741  -22.3060   20.1214 C   0  0  0  0  0  0
  -28.4544  -22.4073   20.6853 C   0  0  2  0  0  0
  -28.8200  -23.8334   20.0671 C   0  0  2  0  0  0
  -28.2047  -22.4634   22.2048 C   0  0  0  0  0  0
  -28.4643  -23.8279   18.5668 C   0  0  0  0  0  0
  -28.1256  -25.1244   20.7170 C   0  0  0  0  0  0
  -29.5888  -21.4943   20.3863 N   0  0  0  0  0  0
  -29.7810  -15.6584   20.9004 N   0  0  0  0  0  0
  -31.4821  -12.5243   19.1491 H   0  0  0  0  0  0
  -30.3801  -11.3935   19.8845 H   0  0  0  0  0  0
  -29.7721  -11.7645   17.4744 H   0  0  0  0  0  0
  -29.6499  -13.4840   17.7475 H   0  0  0  0  0  0
  -27.8652  -11.2940   18.8575 H   0  0  0  0  0  0
  -27.3765  -12.5857   17.7931 H   0  0  0  0  0  0
  -27.6758  -14.2503   19.5331 H   0  0  0  0  0  0
  -28.7119  -12.0240   21.3606 H   0  0  0  0  0  0
  -28.4428  -13.6674   21.8580 H   0  0  0  0  0  0
  -25.2764   -9.5674   22.4754 H   0  0  0  0  0  0
  -23.9994   -7.4632   22.7475 H   0  0  0  0  0  0
  -21.0833   -8.8774   19.8960 H   0  0  0  0  0  0
  -22.3687  -10.9677   19.6171 H   0  0  0  0  0  0
  -21.2017   -7.6150   23.9710 H   0  0  0  0  0  0
  -21.1477   -6.0525   25.9071 H   0  0  0  0  0  0
  -22.0601   -2.7607   23.2848 H   0  0  0  0  0  0
  -22.4119  -11.9904   22.4814 H   0  0  0  0  0  0
  -21.1116  -13.1257   22.2609 H   0  0  0  0  0  0
  -24.6554  -15.8379   20.4950 H   0  0  0  0  0  0
  -26.2633  -15.6182   20.0289 H   0  0  0  0  0  0
  -26.7165  -32.5461   23.1109 H   0  0  0  0  0  0
  -25.0056  -33.9729   25.0424 H   0  0  0  0  0  0
  -22.7125  -31.3020   21.4005 H   0  0  0  0  0  0
  -23.3739  -35.9645   23.3325 H   0  0  0  0  0  0
  -24.3574  -36.8891   22.2050 H   0  0  0  0  0  0
  -23.7256  -37.6516   23.6642 H   0  0  0  0  0  0
  -26.0857  -31.5579   20.6019 H   0  0  0  0  0  0
  -26.8400  -30.8471   21.9986 H   0  0  0  0  0  0
  -28.1182  -28.9987   21.1902 H   0  0  0  0  0  0
  -26.0172  -25.9279   19.0104 H   0  0  0  0  0  0
  -23.9807  -27.3006   19.0104 H   0  0  0  0  0  0
  -23.7538  -30.5914   19.4032 H   0  0  0  0  0  0
  -22.7557  -29.2434   19.8574 H   0  0  0  0  0  0
  -25.1296  -36.1946   25.0824 H   0  0  0  0  0  0
  -20.9982  -28.3260   24.1406 H   0  0  0  0  0  0
  -20.5673  -26.2297   23.3612 H   0  0  0  0  0  0
  -21.6644  -26.7434   22.1210 H   0  0  0  0  0  0
  -19.6915  -25.6297   21.1240 H   0  0  0  0  0  0
  -19.6693  -27.3197   20.6741 H   0  0  0  0  0  0
  -17.4202  -26.6667   21.4031 H   0  0  0  0  0  0
  -18.0341  -26.0069   22.9027 H   0  0  0  0  0  0
  -19.7939  -30.7263   24.2277 H   0  0  0  0  0  0
  -17.5018  -31.6263   24.5172 H   0  0  0  0  0  0
  -15.5355  -30.2991   23.7646 H   0  0  0  0  0  0
  -15.8677  -28.0823   22.7059 H   0  0  0  0  0  0
  -24.5899  -30.7081   25.7784 H   0  0  0  0  0  0
  -24.8924  -32.2898   26.4877 H   0  0  0  0  0  0
  -25.8056  -30.8908   27.0225 H   0  0  0  0  0  0
  -26.2898  -29.6771   24.1186 H   0  0  0  0  0  0
  -27.4042  -29.7268   25.4651 H   0  0  0  0  0  0
  -27.8758  -30.4314   23.9366 H   0  0  0  0  0  0
  -27.2668  -33.3624   26.2058 H   0  0  0  0  0  0
  -28.3859  -32.6881   25.0303 H   0  0  0  0  0  0
  -28.0725  -31.8447   26.5394 H   0  0  0  0  0  0
  -28.2615  -38.0086   24.7483 H   0  0  0  0  0  0
  -28.1054  -36.2615   24.6332 H   0  0  0  0  0  0
  -27.2290  -37.1505   25.8870 H   0  0  0  0  0  0
  -20.9366  -29.8759   21.6885 H   0  0  0  0  0  0
  -26.0179  -38.2858   24.1388 H   0  0  0  0  0  0
  -31.7426  -19.8408   19.9408 H   0  0  0  0  0  0
  -27.5921  -19.7370   21.0980 H   0  0  0  0  0  0
  -31.8724  -17.4154   20.1381 H   0  0  0  0  0  0
  -27.7289  -17.3141   21.3155 H   0  0  0  0  0  0
  -30.8812  -24.4366   19.5540 H   0  0  0  0  0  0
  -30.6025  -24.1392   21.2555 H   0  0  0  0  0  0
  -31.5829  -22.0709   20.8156 H   0  0  0  0  0  0
  -31.1306  -22.1014   19.1107 H   0  0  0  0  0  0
  -27.5515  -22.0243   20.2059 H   0  0  0  0  0  0
  -29.0620  -22.8685   22.7432 H   0  0  0  0  0  0
  -27.9983  -21.4770   22.6185 H   0  0  0  0  0  0
  -27.3406  -23.0842   22.4412 H   0  0  0  0  0  0
  -28.9133  -22.9835   18.0431 H   0  0  0  0  0  0
  -28.8080  -24.7386   18.0757 H   0  0  0  0  0  0
  -27.3858  -23.7645   18.4214 H   0  0  0  0  0  0
  -28.4495  -25.1972   21.7554 H   0  0  0  0  0  0
  -27.0599  -24.9073   20.7887 H   0  0  0  0  0  0
  -28.8975  -15.3023   21.2303 H   0  0  0  0  0  0
  1 25  1  0  0  0
  1 30  2  0  0  0
  1 85  1  0  0  0
  2  3  1  0  0  0
  2 25  1  0  0  0
  2 86  1  0  0  0
  2 87  1  0  0  0
  3  4  1  0  0  0
  3 88  1  0  0  0
  3 89  1  0  0  0
  4  5  1  0  0  0
  4 90  1  0  0  0
  4 91  1  0  0  0
  5  6  1  0  0  0
  5 26  1  0  0  0
  5 92  1  0  0  0
  6 25  1  0  0  0
  6 93  1  0  0  0
  6 94  1  0  0  0
  7  8  2  0  0  0
  7 26  1  0  0  0
  7 29  1  0  0  0
  8  9  1  0  0  0
  8 22  1  0  0  0
  9 10  1  0  0  0
  9 27  2  0  0  0
 10 11  2  0  0  0
 10 15  1  0  0  0
 11 12  1  0  0  0
 11 95  1  0  0  0
 12 13  2  0  0  0
 12 96  1  0  0  0
 13 14  1  0  0  0
 13 31  1  0  0  0
 14 15  2  0  0  0
 14 97  1  0  0  0
 15 98  1  0  0  0
 16 17  2  0  0  0
 16 21  1  0  0  0
 16 31  1  0  0  0
 17 18  1  0  0  0
 17 99  1  0  0  0
 18 19  2  0  0  0
 18100  1  0  0  0
 19 20  1  0  0  0
 19 24  1  0  0  0
 20 21  2  0  0  0
 20101  1  0  0  0
 21 23  1  0  0  0
 22 28  1  0  0  0
 22 32  2  0  0  0
 26 27  1  0  0  0
 28102  1  0  0  0
 28103  1  0  0  0
 29104  1  0  0  0
 29105  1  0  0  0
 33 34  1  0  0  0
 33 66  1  0  0  0
 33 70  2  0  0  0
 34 36  1  0  0  0
 34 59  1  0  0  0
 34106  1  0  0  0
 35 44  2  0  0  0
 35 45  1  0  0  0
 35 68  1  0  0  0
 36 56  1  0  0  0
 36107  1  0  0  0
 37 39  1  0  0  0
 37 47  1  0  0  0
 37 66  1  0  0  0
 37108  1  0  0  0
 38 43  2  0  0  0
 38 46  1  0  0  0
 38 47  1  0  0  0
 39 64  1  0  0  0
 39 67  2  0  0  0
 40 52  1  0  0  0
 40 53  2  0  0  0
 40 58  1  0  0  0
 41109  1  0  0  0
 41110  1  0  0  0
 41111  1  0  0  0
 41 48  1  0  0  0
 42 43  1  0  0  0
 42 66  1  0  0  0
 42112  1  0  0  0
 42113  1  0  0  0
 43 44  1  0  0  0
 44114  1  0  0  0
 45 46  2  0  0  0
 45115  1  0  0  0
 46116  1  0  0  0
 47117  1  0  0  0
 47118  1  0  0  0
 48 56  1  0  0  0
 48 65  1  0  0  0
 48119  1  0  0  0
 49 50  1  0  0  0
 49 53  1  0  0  0
 49 64  1  0  0  0
 49120  1  0  0  0
 50 51  1  0  0  0
 50121  1  0  0  0
 50122  1  0  0  0
 51 52  1  0  0  0
 51123  1  0  0  0
 51124  1  0  0  0
 52125  1  0  0  0
 52126  1  0  0  0
 53 54  1  0  0  0
 54 55  2  0  0  0
 54127  1  0  0  0
 55 57  1  0  0  0
 55128  1  0  0  0
 56 69  2  0  0  0
 57 58  2  0  0  0
 57129  1  0  0  0
 58130  1  0  0  0
 59 60  1  0  0  0
 59 61  1  0  0  0
 59 62  1  0  0  0
 60131  1  0  0  0
 60132  1  0  0  0
 60133  1  0  0  0
 61134  1  0  0  0
 61135  1  0  0  0
 61136  1  0  0  0
 62137  1  0  0  0
 62138  1  0  0  0
 62139  1  0  0  0
 63 65  1  0  0  0
 63140  1  0  0  0
 63141  1  0  0  0
 63142  1  0  0  0
 64143  1  0  0  0
 65144  1  0  0  0
 68 83  1  0  0  0
 71 73  2  0  0  0
 71 75  1  0  0  0
 71145  1  0  0  0
 72 74  1  0  0  0
 72 75  2  0  0  0
 72146  1  0  0  0
 73 76  1  0  0  0
 73147  1  0  0  0
 74 76  2  0  0  0
 74148  1  0  0  0
 75 84  1  0  0  0
 76 85  1  0  0  0
 77 78  1  0  0  0
 77 80  1  0  0  0
 77149  1  0  0  0
 77150  1  0  0  0
 78 84  1  0  0  0
 78151  1  0  0  0
 78152  1  0  0  0
 79 80  1  0  0  0
 79 81  1  0  0  0
 79 84  1  0  0  0
 79153  1  0  0  0
 80 82  1  0  0  0
 80 83  1  0  0  0
 81154  1  0  0  0
 81155  1  0  0  0
 81156  1  0  0  0
 82157  1  0  0  0
 82158  1  0  0  0
 82159  1  0  0  0
 83160  1  0  0  0
 83161  1  0  0  0
 85162  1  0  0  0
M  ISO  4   1 100  68 101  83 101  85 100
M  END
> <chiral flag>
0

> <version>
0

> <s_m_source_file>
/data/baiqing/PycharmProjects/Reinvent-master-3.2/result/LINK_invent/BTK/process_docking_weight1_custom_product_contain_oxygen_bond_distance_aromatic_linkinvent_7_9_3/rearranged_h_0147.sdf

> <i_m_source_file_index>
52

> <r_mmod_Potential_Energy-OPLS-2005>
126.796974182129

> <r_mmod_Stretch_Energy-OPLS-2005>
78.6457595825195

> <r_mmod_Bend_Energy-OPLS-2005>
185.624588012695

> <r_mmod_Torsional_Energy-OPLS-2005>
299.425903320312

> <r_mmod_Improper_Torsional_Energy-OPLS-2005>
4.34363317489624

> <r_mmod_Van_der_Waal_Energy-OPLS-2005>
140.441757202148

> <r_mmod_Electrostatic_Energy-OPLS-2005>
-417.224548339844

> <r_mmod_Solvation_Energy-OPLS-2005>
-210.654327392578

> <b_mmod_Minimization_Converged-OPLS-2005>
0

> <r_mmod_RMS_Derivative-OPLS-2005>
0.708604514598846

$$$$
52
                    3D
 Structure written by MMmdl.
163171  0  0  1  0            999 V2000
  -30.6808  -14.5828   20.4599 C   0  0  0  0  0  0
  -30.4338  -12.3479   19.4513 C   0  0  0  0  0  0
  -29.5104  -12.4791   18.2186 C   0  0  0  0  0  0
  -28.0325  -12.3049   18.6262 C   0  0  0  0  0  0
  -27.6487  -13.1878   19.8399 C   0  0  2  0  0  0
  -28.6958  -13.0913   20.9751 C   0  0  0  0  0  0
  -25.2588  -13.8101   20.5613 C   0  0  0  0  0  0
  -24.1837  -13.0404   20.9150 C   0  0  0  0  0  0
  -24.6369  -11.6864   20.8701 C   0  0  0  0  0  0
  -23.9035  -10.4275   21.0400 C   0  0  0  0  0  0
  -24.3592   -9.4201   21.9176 C   0  0  0  0  0  0
  -23.6283   -8.2231   22.0752 C   0  0  0  0  0  0
  -22.4263   -8.0271   21.3543 C   0  0  0  0  0  0
  -21.9890   -9.0254   20.4648 C   0  0  0  0  0  0
  -22.7212  -10.2132   20.3057 C   0  0  0  0  0  0
  -21.6840   -6.0723   22.5271 C   0  0  0  0  0  0
  -21.4011   -6.5633   23.8212 C   0  0  0  0  0  0
  -21.3650   -5.6771   24.9169 C   0  0  0  0  0  0
  -21.6040   -4.3043   24.7209 C   0  0  0  0  0  0
  -21.8828   -3.8138   23.4336 C   0  0  0  0  0  0
  -21.9191   -4.6952   22.3395 C   0  0  0  0  0  0
  -22.7872  -13.5247   21.1815 C   0  0  0  0  0  0
  -22.1653   -4.2133   21.0970 F   0  0  0  0  0  0
  -21.5636   -3.4524   25.7729 F   0  0  0  0  0  0
  -30.0275  -13.3828   20.4188 N   0  0  0  0  0  0
  -26.2961  -12.9203   20.3185 N   0  0  0  0  0  0
  -25.9282  -11.6397   20.5683 N   0  0  0  0  0  0
  -22.0506  -12.8275   22.0385 N   0  0  0  0  0  0
  -25.4404  -15.1820   20.4069 N   0  0  0  0  0  0
  -31.8872  -14.6622   20.2145 O   0  0  0  0  0  0
  -21.6629   -6.8879   21.4248 O   0  0  0  0  0  0
  -22.3568  -14.5549   20.6647 O   0  0  0  0  0  0
  -24.6185  -31.8680   23.2104 C   0  0  0  0  0  0
  -25.9072  -32.4821   23.8402 C   0  0  1  0  0  0
  -27.2069  -27.3822   20.0946 C   0  0  0  0  0  0
  -25.5929  -33.8618   24.2335 N   0  0  0  0  0  0
  -23.4059  -30.4946   21.5558 C   0  0  2  0  0  0
  -24.8447  -28.9618   20.1123 C   0  0  0  0  0  0
  -22.7444  -29.4658   22.5005 C   0  0  0  0  0  0
  -18.0269  -28.1402   22.8478 C   0  0  0  0  0  0
  -24.1490  -36.7307   23.2632 C   0  0  0  0  0  0
  -25.9405  -30.8178   21.3687 C   0  0  0  0  0  0
  -26.0125  -29.4497   20.7123 C   0  0  0  0  0  0
  -27.1978  -28.6681   20.6999 C   0  0  0  0  0  0
  -26.0181  -26.9304   19.4770 C   0  0  0  0  0  0
  -24.8459  -27.7046   19.4891 C   0  0  0  0  0  0
  -23.6138  -29.8401   20.1656 C   0  0  0  0  0  0
  -25.4107  -36.3100   24.0331 C   0  0  1  0  0  0
  -20.5859  -28.3686   23.1326 C   0  0  2  0  0  0
  -20.6774  -26.9430   22.5422 C   0  0  0  0  0  0
  -19.5759  -26.6405   21.5215 C   0  0  0  0  0  0
  -18.1925  -26.7950   22.1616 C   0  0  0  0  0  0
  -19.1516  -28.8858   23.2895 C   0  0  0  0  0  0
  -18.9444  -30.1462   23.8909 C   0  0  0  0  0  0
  -17.6448  -30.6604   24.0557 C   0  0  0  0  0  0
  -25.9042  -34.9471   23.5121 C   0  0  0  0  0  0
  -16.5340  -29.9110   23.6322 C   0  0  0  0  0  0
  -16.7251  -28.6527   23.0336 C   0  0  0  0  0  0
  -26.4472  -31.6600   25.0742 C   0  0  0  0  0  0
  -25.3719  -31.3731   26.1486 C   0  0  0  0  0  0
  -27.0286  -30.3040   24.6111 C   0  0  0  0  0  0
  -27.6086  -32.4286   25.7484 C   0  0  0  0  0  0
  -27.5579  -37.1790   24.8447 C   0  0  0  0  0  0
  -21.4159  -29.3033   22.3737 N   0  0  0  0  0  0
  -26.4275  -37.3794   23.9410 N   0  0  0  0  0  0
  -24.6741  -31.0740   22.1038 N   0  0  0  0  0  0
  -23.4213  -28.8186   23.3037 O   0  0  0  0  0  0
  -28.3440  -26.5860   20.1203 O   0  0  0  0  0  0
  -26.5598  -34.8922   22.4674 O   0  0  0  0  0  0
  -23.5373  -32.1454   23.7483 O   0  0  0  0  0  0
  -29.7242  -19.6158   20.3074 C   0  0  0  0  0  0
  -29.5121  -18.2581   19.8421 C   0  0  0  0  0  0
  -28.5731  -18.1843   18.8321 C   0  0  0  0  0  0
  -28.9644  -20.5569   19.6218 C   0  0  0  0  0  0
  -30.3020  -17.0514   20.2734 C   0  0  0  0  0  0
  -29.8216  -15.7857   20.4239 C   0  0  0  0  0  0
  -29.1503  -16.6833   16.8661 C   0  0  0  0  0  0
  -29.6497  -24.8905   22.0243 C   0  0  0  0  0  0
  -30.5791  -24.5015   19.7175 C   0  0  0  0  0  0
  -28.1417  -17.0333   17.9681 C   0  0  0  0  0  0
  -29.0665  -22.7721   20.8487 C   0  0  0  0  0  0
  -28.1509  -25.1399   20.0509 C   0  0  0  0  0  0
  -29.3494  -24.3133   20.6293 C   0  0  0  0  0  0
  -28.9057  -21.9685   19.6327 N   0  0  0  0  0  0
  -27.9514  -19.7688   18.4467 S   0  0  0  0  0  0
  -31.4804  -12.4406   19.1526 H   0  0  0  0  0  0
  -30.3414  -11.3580   19.8980 H   0  0  0  0  0  0
  -29.7861  -11.7371   17.4668 H   0  0  0  0  0  0
  -29.6535  -13.4542   17.7481 H   0  0  0  0  0  0
  -27.8780  -11.2530   18.8703 H   0  0  0  0  0  0
  -27.3799  -12.5201   17.7785 H   0  0  0  0  0  0
  -27.6401  -14.1982   19.4484 H   0  0  0  0  0  0
  -28.6921  -12.0934   21.4151 H   0  0  0  0  0  0
  -28.4519  -13.7795   21.7860 H   0  0  0  0  0  0
  -25.2747   -9.5679   22.4727 H   0  0  0  0  0  0
  -23.9994   -7.4619   22.7467 H   0  0  0  0  0  0
  -21.0829   -8.8809   19.8949 H   0  0  0  0  0  0
  -22.3717  -10.9675   19.6166 H   0  0  0  0  0  0
  -21.2026   -7.6140   23.9723 H   0  0  0  0  0  0
  -21.1446   -6.0491   25.9074 H   0  0  0  0  0  0
  -22.0627   -2.7597   23.2829 H   0  0  0  0  0  0
  -22.4064  -11.9936   22.4802 H   0  0  0  0  0  0
  -21.1133  -13.1371   22.2553 H   0  0  0  0  0  0
  -24.6906  -15.8510   20.5417 H   0  0  0  0  0  0
  -26.3115  -15.6170   20.1331 H   0  0  0  0  0  0
  -26.7148  -32.5511   23.1167 H   0  0  0  0  0  0
  -25.0061  -33.9797   25.0466 H   0  0  0  0  0  0
  -22.6926  -31.3109   21.4245 H   0  0  0  0  0  0
  -23.3763  -35.9627   23.3259 H   0  0  0  0  0  0
  -24.3602  -36.8963   22.2057 H   0  0  0  0  0  0
  -23.7222  -37.6494   23.6669 H   0  0  0  0  0  0
  -26.0508  -31.5784   20.5951 H   0  0  0  0  0  0
  -26.8309  -30.8748   21.9832 H   0  0  0  0  0  0
  -28.0951  -29.0340   21.1793 H   0  0  0  0  0  0
  -25.9734  -25.9721   18.9817 H   0  0  0  0  0  0
  -23.9488  -27.3268   19.0171 H   0  0  0  0  0  0
  -23.7340  -30.6257   19.4179 H   0  0  0  0  0  0
  -22.7313  -29.2754   19.8590 H   0  0  0  0  0  0
  -25.1273  -36.1956   25.0822 H   0  0  0  0  0  0
  -20.9919  -28.3239   24.1459 H   0  0  0  0  0  0
  -20.5718  -26.2277   23.3593 H   0  0  0  0  0  0
  -21.6640  -26.7514   22.1180 H   0  0  0  0  0  0
  -19.6926  -25.6315   21.1243 H   0  0  0  0  0  0
  -19.6715  -27.3215   20.6744 H   0  0  0  0  0  0
  -17.4204  -26.6678   21.4007 H   0  0  0  0  0  0
  -18.0332  -26.0105   22.9029 H   0  0  0  0  0  0
  -19.7918  -30.7257   24.2305 H   0  0  0  0  0  0
  -17.5007  -31.6287   24.5155 H   0  0  0  0  0  0
  -15.5341  -30.3013   23.7653 H   0  0  0  0  0  0
  -15.8648  -28.0859   22.7041 H   0  0  0  0  0  0
  -24.5904  -30.7063   25.7813 H   0  0  0  0  0  0
  -24.8890  -32.2899   26.4889 H   0  0  0  0  0  0
  -25.8054  -30.8931   27.0274 H   0  0  0  0  0  0
  -26.2833  -29.6829   24.1135 H   0  0  0  0  0  0
  -27.4025  -29.7242   25.4559 H   0  0  0  0  0  0
  -27.8681  -30.4357   23.9281 H   0  0  0  0  0  0
  -27.2763  -33.3591   26.2096 H   0  0  0  0  0  0
  -28.3876  -32.6831   25.0284 H   0  0  0  0  0  0
  -28.0777  -31.8375   26.5363 H   0  0  0  0  0  0
  -28.2567  -38.0122   24.7543 H   0  0  0  0  0  0
  -28.1107  -36.2648   24.6195 H   0  0  0  0  0  0
  -27.2311  -37.1348   25.8857 H   0  0  0  0  0  0
  -20.9332  -29.8773   21.6966 H   0  0  0  0  0  0
  -26.0162  -38.2860   24.1473 H   0  0  0  0  0  0
  -30.4542  -19.8559   21.0675 H   0  0  0  0  0  0
  -31.3704  -17.2149   20.3614 H   0  0  0  0  0  0
  -28.7558  -15.6671   20.4319 H   0  0  0  0  0  0
  -28.8065  -15.8282   16.2849 H   0  0  0  0  0  0
  -30.1254  -16.4257   17.2817 H   0  0  0  0  0  0
  -29.2911  -17.5172   16.1765 H   0  0  0  0  0  0
  -30.4772  -24.3712   22.5078 H   0  0  0  0  0  0
  -28.7785  -24.7977   22.6743 H   0  0  0  0  0  0
  -29.9111  -25.9482   21.9847 H   0  0  0  0  0  0
  -31.4879  -24.1126   20.1809 H   0  0  0  0  0  0
  -30.7425  -25.5559   19.4930 H   0  0  0  0  0  0
  -30.4523  -23.9904   18.7619 H   0  0  0  0  0  0
  -27.1888  -17.2800   17.4965 H   0  0  0  0  0  0
  -27.9268  -16.1511   18.5567 H   0  0  0  0  0  0
  -28.1697  -22.6501   21.4611 H   0  0  0  0  0  0
  -29.8874  -22.3375   21.4239 H   0  0  0  0  0  0
  -27.2557  -24.8621   20.6098 H   0  0  0  0  0  0
  -27.9779  -24.8476   19.0148 H   0  0  0  0  0  0
  -28.2517  -22.3617   18.9581 H   0  0  0  0  0  0
  1 25  1  0  0  0
  1 30  2  0  0  0
  1 76  1  0  0  0
  2  3  1  0  0  0
  2 25  1  0  0  0
  2 86  1  0  0  0
  2 87  1  0  0  0
  3  4  1  0  0  0
  3 88  1  0  0  0
  3 89  1  0  0  0
  4  5  1  0  0  0
  4 90  1  0  0  0
  4 91  1  0  0  0
  5  6  1  0  0  0
  5 26  1  0  0  0
  5 92  1  0  0  0
  6 25  1  0  0  0
  6 93  1  0  0  0
  6 94  1  0  0  0
  7  8  2  0  0  0
  7 26  1  0  0  0
  7 29  1  0  0  0
  8  9  1  0  0  0
  8 22  1  0  0  0
  9 10  1  0  0  0
  9 27  2  0  0  0
 10 11  2  0  0  0
 10 15  1  0  0  0
 11 12  1  0  0  0
 11 95  1  0  0  0
 12 13  2  0  0  0
 12 96  1  0  0  0
 13 14  1  0  0  0
 13 31  1  0  0  0
 14 15  2  0  0  0
 14 97  1  0  0  0
 15 98  1  0  0  0
 16 17  2  0  0  0
 16 21  1  0  0  0
 16 31  1  0  0  0
 17 18  1  0  0  0
 17 99  1  0  0  0
 18 19  2  0  0  0
 18100  1  0  0  0
 19 20  1  0  0  0
 19 24  1  0  0  0
 20 21  2  0  0  0
 20101  1  0  0  0
 21 23  1  0  0  0
 22 28  1  0  0  0
 22 32  2  0  0  0
 26 27  1  0  0  0
 28102  1  0  0  0
 28103  1  0  0  0
 29104  1  0  0  0
 29105  1  0  0  0
 33 34  1  0  0  0
 33 66  1  0  0  0
 33 70  2  0  0  0
 34 36  1  0  0  0
 34 59  1  0  0  0
 34106  1  0  0  0
 35 44  2  0  0  0
 35 45  1  0  0  0
 35 68  1  0  0  0
 36 56  1  0  0  0
 36107  1  0  0  0
 37 39  1  0  0  0
 37 47  1  0  0  0
 37 66  1  0  0  0
 37108  1  0  0  0
 38 43  2  0  0  0
 38 46  1  0  0  0
 38 47  1  0  0  0
 39 64  1  0  0  0
 39 67  2  0  0  0
 40 52  1  0  0  0
 40 53  2  0  0  0
 40 58  1  0  0  0
 41109  1  0  0  0
 41110  1  0  0  0
 41111  1  0  0  0
 41 48  1  0  0  0
 42 43  1  0  0  0
 42 66  1  0  0  0
 42112  1  0  0  0
 42113  1  0  0  0
 43 44  1  0  0  0
 44114  1  0  0  0
 45 46  2  0  0  0
 45115  1  0  0  0
 46116  1  0  0  0
 47117  1  0  0  0
 47118  1  0  0  0
 48 56  1  0  0  0
 48 65  1  0  0  0
 48119  1  0  0  0
 49 50  1  0  0  0
 49 53  1  0  0  0
 49 64  1  0  0  0
 49120  1  0  0  0
 50 51  1  0  0  0
 50121  1  0  0  0
 50122  1  0  0  0
 51 52  1  0  0  0
 51123  1  0  0  0
 51124  1  0  0  0
 52125  1  0  0  0
 52126  1  0  0  0
 53 54  1  0  0  0
 54 55  2  0  0  0
 54127  1  0  0  0
 55 57  1  0  0  0
 55128  1  0  0  0
 56 69  2  0  0  0
 57 58  2  0  0  0
 57129  1  0  0  0
 58130  1  0  0  0
 59 60  1  0  0  0
 59 61  1  0  0  0
 59 62  1  0  0  0
 60131  1  0  0  0
 60132  1  0  0  0
 60133  1  0  0  0
 61134  1  0  0  0
 61135  1  0  0  0
 61136  1  0  0  0
 62137  1  0  0  0
 62138  1  0  0  0
 62139  1  0  0  0
 63 65  1  0  0  0
 63140  1  0  0  0
 63141  1  0  0  0
 63142  1  0  0  0
 64143  1  0  0  0
 65144  1  0  0  0
 68 82  1  0  0  0
 71 72  1  0  0  0
 71 74  2  0  0  0
 71145  1  0  0  0
 72 73  2  0  0  0
 72 75  1  0  0  0
 73 80  1  0  0  0
 73 85  1  0  0  0
 74 84  1  0  0  0
 74 85  1  0  0  0
 75 76  2  0  0  0
 75146  1  0  0  0
 76147  1  0  0  0
 77 80  1  0  0  0
 77148  1  0  0  0
 77149  1  0  0  0
 77150  1  0  0  0
 78151  1  0  0  0
 78152  1  0  0  0
 78153  1  0  0  0
 78 83  1  0  0  0
 79 83  1  0  0  0
 79154  1  0  0  0
 79155  1  0  0  0
 79156  1  0  0  0
 80157  1  0  0  0
 80158  1  0  0  0
 81 83  1  0  0  0
 81 84  1  0  0  0
 81159  1  0  0  0
 81160  1  0  0  0
 82 83  1  0  0  0
 82161  1  0  0  0
 82162  1  0  0  0
 84163  1  0  0  0
M  ISO  4   1 100  68 101  76 100  82 101
M  END
> <chiral flag>
0

> <version>
0

> <s_m_source_file>
/data/baiqing/PycharmProjects/Reinvent-master-3.2/result/LINK_invent/BTK/process_docking_weight1_custom_product_contain_oxygen_bond_distance_aromatic_linkinvent_7_9_3/rearranged_h_0147.sdf

> <i_m_source_file_index>
53

> <r_mmod_Potential_Energy-OPLS-2005>
45.3249168395996

> <r_mmod_Stretch_Energy-OPLS-2005>
51.2354316711426

> <r_mmod_Bend_Energy-OPLS-2005>
120.44214630127

> <r_mmod_Torsional_Energy-OPLS-2005>
230.923980712891

> <r_mmod_Improper_Torsional_Energy-OPLS-2005>
15.4510898590088

> <r_mmod_Van_der_Waal_Energy-OPLS-2005>
126.443336486816

> <r_mmod_Electrostatic_Energy-OPLS-2005>
-342.296173095703

> <r_mmod_Solvation_Energy-OPLS-2005>
-193.2080078125

> <b_mmod_Minimization_Converged-OPLS-2005>
0

> <r_mmod_RMS_Derivative-OPLS-2005>
3.83840346336365

$$$$
53
                    3D
 Structure written by MMmdl.
149158  0  0  1  0            999 V2000
  -30.6297  -14.7148   20.4991 C   0  0  0  0  0  0
  -30.4327  -12.4469   19.4647 C   0  0  0  0  0  0
  -29.5054  -12.5141   18.2309 C   0  0  0  0  0  0
  -28.0306  -12.3394   18.6444 C   0  0  0  0  0  0
  -27.6460  -13.2235   19.8615 C   0  0  2  0  0  0
  -28.6930  -13.0986   20.9892 C   0  0  0  0  0  0
  -25.2505  -13.8187   20.5648 C   0  0  0  0  0  0
  -24.1804  -13.0440   20.9200 C   0  0  0  0  0  0
  -24.6384  -11.6911   20.8756 C   0  0  0  0  0  0
  -23.9052  -10.4292   21.0410 C   0  0  0  0  0  0
  -24.3607   -9.4204   21.9184 C   0  0  0  0  0  0
  -23.6290   -8.2233   22.0751 C   0  0  0  0  0  0
  -22.4270   -8.0274   21.3540 C   0  0  0  0  0  0
  -21.9906   -9.0246   20.4642 C   0  0  0  0  0  0
  -22.7230  -10.2130   20.3053 C   0  0  0  0  0  0
  -21.6846   -6.0734   22.5278 C   0  0  0  0  0  0
  -21.4009   -6.5639   23.8215 C   0  0  0  0  0  0
  -21.3662   -5.6799   24.9178 C   0  0  0  0  0  0
  -21.6047   -4.3059   24.7230 C   0  0  0  0  0  0
  -21.8822   -3.8150   23.4349 C   0  0  0  0  0  0
  -21.9185   -4.6962   22.3403 C   0  0  0  0  0  0
  -22.7831  -13.5218   21.1851 C   0  0  0  0  0  0
  -22.1655   -4.2147   21.0979 F   0  0  0  0  0  0
  -21.5626   -3.4540   25.7740 F   0  0  0  0  0  0
  -29.9862  -13.4943   20.4161 N   0  0  0  0  0  0
  -26.2946  -12.9379   20.3331 N   0  0  0  0  0  0
  -25.9315  -11.6526   20.5795 N   0  0  0  0  0  0
  -22.0482  -12.8208   22.0414 N   0  0  0  0  0  0
  -25.4175  -15.1899   20.3921 N   0  0  0  0  0  0
  -31.8057  -14.7939   20.1269 O   0  0  0  0  0  0
  -21.6630   -6.8872   21.4241 O   0  0  0  0  0  0
  -22.3510  -14.5517   20.6682 O   0  0  0  0  0  0
  -24.6297  -31.8567   23.1996 C   0  0  0  0  0  0
  -25.9128  -32.4761   23.8343 C   0  0  1  0  0  0
  -27.2150  -27.2815   20.1244 C   0  0  0  0  0  0
  -25.5935  -33.8568   24.2266 N   0  0  0  0  0  0
  -23.4261  -30.4807   21.5426 C   0  0  2  0  0  0
  -24.8722  -28.9319   20.1100 C   0  0  0  0  0  0
  -22.7488  -29.4617   22.4911 C   0  0  0  0  0  0
  -18.0300  -28.1388   22.8468 C   0  0  0  0  0  0
  -24.1491  -36.7291   23.2638 C   0  0  0  0  0  0
  -25.9714  -30.7762   21.3783 C   0  0  0  0  0  0
  -26.0439  -29.4007   20.7192 C   0  0  0  0  0  0
  -27.2217  -28.5879   20.7143 C   0  0  0  0  0  0
  -26.0261  -26.8828   19.4765 C   0  0  0  0  0  0
  -24.8668  -27.6804   19.4771 C   0  0  0  0  0  0
  -23.6431  -29.8173   20.1580 C   0  0  0  0  0  0
  -25.4113  -36.3080   24.0324 C   0  0  1  0  0  0
  -20.5895  -28.3707   23.1278 C   0  0  2  0  0  0
  -20.6792  -26.9422   22.5427 C   0  0  0  0  0  0
  -19.5782  -26.6387   21.5214 C   0  0  0  0  0  0
  -18.1946  -26.7940   22.1592 C   0  0  0  0  0  0
  -19.1542  -28.8864   23.2869 C   0  0  0  0  0  0
  -18.9451  -30.1459   23.8893 C   0  0  0  0  0  0
  -17.6452  -30.6584   24.0557 C   0  0  0  0  0  0
  -25.9053  -34.9448   23.5093 C   0  0  0  0  0  0
  -16.5352  -29.9068   23.6328 C   0  0  0  0  0  0
  -16.7283  -28.6490   23.0343 C   0  0  0  0  0  0
  -26.4498  -31.6591   25.0733 C   0  0  0  0  0  0
  -25.3721  -31.3746   26.1453 C   0  0  0  0  0  0
  -27.0348  -30.3010   24.6221 C   0  0  0  0  0  0
  -27.6048  -32.4330   25.7508 C   0  0  0  0  0  0
  -27.5580  -37.1800   24.8464 C   0  0  0  0  0  0
  -21.4195  -29.3048   22.3656 N   0  0  0  0  0  0
  -26.4292  -37.3771   23.9407 N   0  0  0  0  0  0
  -24.6949  -31.0552   22.0965 N   0  0  0  0  0  0
  -23.4192  -28.8154   23.3007 O   0  0  0  0  0  0
  -28.2979  -26.3807   20.1559 O   0  0  0  0  0  0
  -26.5631  -34.8914   22.4669 O   0  0  0  0  0  0
  -23.5451  -32.1376   23.7306 O   0  0  0  0  0  0
  -30.2654  -18.7233   19.8168 C   0  0  0  0  0  0
  -30.2250  -17.2621   20.1383 C   0  0  0  0  0  0
  -29.1507  -17.5114   21.1809 C   0  0  0  0  0  0
  -29.4909  -19.7621   20.3603 C   0  0  0  0  0  0
  -28.9083  -23.7801   20.0881 C   0  0  0  0  0  0
  -28.9057  -16.1898   21.6930 C   0  0  0  0  0  0
  -28.6585  -22.2807   20.5980 C   0  0  0  0  0  0
  -27.9830  -24.9780   20.5903 C   0  0  0  0  0  0
  -29.9054  -15.8917   20.6944 N   0  0  0  0  0  0
  -29.5289  -21.1760   20.0397 N   0  0  0  0  0  0
  -29.8230  -23.9923   19.2836 O   0  0  0  0  0  0
  -28.4444  -19.0738   21.5396 S   0  0  0  0  0  0
  -31.4719  -12.5745   19.1565 H   0  0  0  0  0  0
  -30.3857  -11.4601   19.9270 H   0  0  0  0  0  0
  -29.7865  -11.7487   17.5066 H   0  0  0  0  0  0
  -29.6331  -13.4745   17.7287 H   0  0  0  0  0  0
  -27.8838  -11.2885   18.8941 H   0  0  0  0  0  0
  -27.3728  -12.5458   17.8000 H   0  0  0  0  0  0
  -27.6583  -14.2551   19.5097 H   0  0  0  0  0  0
  -28.7368  -12.0703   21.3501 H   0  0  0  0  0  0
  -28.4268  -13.6879   21.8627 H   0  0  0  0  0  0
  -25.2748   -9.5676   22.4760 H   0  0  0  0  0  0
  -23.9999   -7.4618   22.7466 H   0  0  0  0  0  0
  -21.0840   -8.8761   19.8946 H   0  0  0  0  0  0
  -22.3684  -10.9664   19.6158 H   0  0  0  0  0  0
  -21.2004   -7.6149   23.9710 H   0  0  0  0  0  0
  -21.1479   -6.0532   25.9078 H   0  0  0  0  0  0
  -22.0594   -2.7607   23.2854 H   0  0  0  0  0  0
  -22.4127  -11.9878   22.4807 H   0  0  0  0  0  0
  -21.1094  -13.1226   22.2627 H   0  0  0  0  0  0
  -24.6427  -15.8405   20.4676 H   0  0  0  0  0  0
  -26.2474  -15.6126   19.9971 H   0  0  0  0  0  0
  -26.7203  -32.5415   23.1096 H   0  0  0  0  0  0
  -25.0076  -33.9715   25.0408 H   0  0  0  0  0  0
  -22.7220  -31.3027   21.3985 H   0  0  0  0  0  0
  -23.3751  -35.9628   23.3302 H   0  0  0  0  0  0
  -24.3586  -36.8911   22.2055 H   0  0  0  0  0  0
  -23.7250  -37.6491   23.6662 H   0  0  0  0  0  0
  -26.1125  -31.5382   20.6104 H   0  0  0  0  0  0
  -26.8487  -30.8214   22.0121 H   0  0  0  0  0  0
  -28.1191  -28.9414   21.2019 H   0  0  0  0  0  0
  -25.9767  -25.9334   18.9639 H   0  0  0  0  0  0
  -23.9737  -27.3215   18.9848 H   0  0  0  0  0  0
  -23.7673  -30.5953   19.4036 H   0  0  0  0  0  0
  -22.7620  -29.2498   19.8528 H   0  0  0  0  0  0
  -25.1299  -36.1926   25.0816 H   0  0  0  0  0  0
  -20.9977  -28.3311   24.1399 H   0  0  0  0  0  0
  -20.5680  -26.2323   23.3639 H   0  0  0  0  0  0
  -21.6691  -26.7453   22.1273 H   0  0  0  0  0  0
  -19.6951  -25.6298   21.1245 H   0  0  0  0  0  0
  -19.6725  -27.3203   20.6745 H   0  0  0  0  0  0
  -17.4236  -26.6690   21.3977 H   0  0  0  0  0  0
  -18.0320  -26.0076   22.8967 H   0  0  0  0  0  0
  -19.7914  -30.7287   24.2272 H   0  0  0  0  0  0
  -17.4988  -31.6271   24.5142 H   0  0  0  0  0  0
  -15.5345  -30.2968   23.7633 H   0  0  0  0  0  0
  -15.8681  -28.0809   22.7060 H   0  0  0  0  0  0
  -24.5871  -30.7127   25.7776 H   0  0  0  0  0  0
  -24.8945  -32.2926   26.4887 H   0  0  0  0  0  0
  -25.8023  -30.8899   27.0227 H   0  0  0  0  0  0
  -26.2943  -29.6752   24.1220 H   0  0  0  0  0  0
  -27.4013  -29.7267   25.4744 H   0  0  0  0  0  0
  -27.8828  -30.4290   23.9485 H   0  0  0  0  0  0
  -27.2644  -33.3614   26.2104 H   0  0  0  0  0  0
  -28.3844  -32.6916   25.0333 H   0  0  0  0  0  0
  -28.0739  -31.8451   26.5408 H   0  0  0  0  0  0
  -28.2592  -38.0101   24.7510 H   0  0  0  0  0  0
  -28.1077  -36.2630   24.6287 H   0  0  0  0  0  0
  -27.2301  -37.1451   25.8867 H   0  0  0  0  0  0
  -20.9374  -29.8759   21.6856 H   0  0  0  0  0  0
  -26.0168  -38.2844   24.1400 H   0  0  0  0  0  0
  -30.9930  -18.9829   19.0608 H   0  0  0  0  0  0
  -27.8963  -15.8383   21.4858 H   0  0  0  0  0  0
  -29.2222  -16.0563   22.7286 H   0  0  0  0  0  0
  -27.6152  -22.0342   20.3946 H   0  0  0  0  0  0
  -28.7607  -22.2888   21.6841 H   0  0  0  0  0  0
  -28.0056  -24.9652   21.6797 H   0  0  0  0  0  0
  -26.9649  -24.7018   20.3252 H   0  0  0  0  0  0
  -30.2010  -21.5204   19.3551 H   0  0  0  0  0  0
  1 25  1  0  0  0
  1 30  2  0  0  0
  1 79  1  0  0  0
  2  3  1  0  0  0
  2 25  1  0  0  0
  2 83  1  0  0  0
  2 84  1  0  0  0
  3  4  1  0  0  0
  3 85  1  0  0  0
  3 86  1  0  0  0
  4  5  1  0  0  0
  4 87  1  0  0  0
  4 88  1  0  0  0
  5  6  1  0  0  0
  5 26  1  0  0  0
  5 89  1  0  0  0
  6 25  1  0  0  0
  6 90  1  0  0  0
  6 91  1  0  0  0
  7  8  2  0  0  0
  7 26  1  0  0  0
  7 29  1  0  0  0
  8  9  1  0  0  0
  8 22  1  0  0  0
  9 10  1  0  0  0
  9 27  2  0  0  0
 10 11  2  0  0  0
 10 15  1  0  0  0
 11 12  1  0  0  0
 11 92  1  0  0  0
 12 13  2  0  0  0
 12 93  1  0  0  0
 13 14  1  0  0  0
 13 31  1  0  0  0
 14 15  2  0  0  0
 14 94  1  0  0  0
 15 95  1  0  0  0
 16 17  2  0  0  0
 16 21  1  0  0  0
 16 31  1  0  0  0
 17 18  1  0  0  0
 17 96  1  0  0  0
 18 19  2  0  0  0
 18 97  1  0  0  0
 19 20  1  0  0  0
 19 24  1  0  0  0
 20 21  2  0  0  0
 20 98  1  0  0  0
 21 23  1  0  0  0
 22 28  1  0  0  0
 22 32  2  0  0  0
 26 27  1  0  0  0
 28 99  1  0  0  0
 28100  1  0  0  0
 29101  1  0  0  0
 29102  1  0  0  0
 33 34  1  0  0  0
 33 66  1  0  0  0
 33 70  2  0  0  0
 34 36  1  0  0  0
 34 59  1  0  0  0
 34103  1  0  0  0
 35 44  2  0  0  0
 35 45  1  0  0  0
 35 68  1  0  0  0
 36 56  1  0  0  0
 36104  1  0  0  0
 37 39  1  0  0  0
 37 47  1  0  0  0
 37 66  1  0  0  0
 37105  1  0  0  0
 38 43  2  0  0  0
 38 46  1  0  0  0
 38 47  1  0  0  0
 39 64  1  0  0  0
 39 67  2  0  0  0
 40 52  1  0  0  0
 40 53  2  0  0  0
 40 58  1  0  0  0
 41106  1  0  0  0
 41107  1  0  0  0
 41108  1  0  0  0
 41 48  1  0  0  0
 42 43  1  0  0  0
 42 66  1  0  0  0
 42109  1  0  0  0
 42110  1  0  0  0
 43 44  1  0  0  0
 44111  1  0  0  0
 45 46  2  0  0  0
 45112  1  0  0  0
 46113  1  0  0  0
 47114  1  0  0  0
 47115  1  0  0  0
 48 56  1  0  0  0
 48 65  1  0  0  0
 48116  1  0  0  0
 49 50  1  0  0  0
 49 53  1  0  0  0
 49 64  1  0  0  0
 49117  1  0  0  0
 50 51  1  0  0  0
 50118  1  0  0  0
 50119  1  0  0  0
 51 52  1  0  0  0
 51120  1  0  0  0
 51121  1  0  0  0
 52122  1  0  0  0
 52123  1  0  0  0
 53 54  1  0  0  0
 54 55  2  0  0  0
 54124  1  0  0  0
 55 57  1  0  0  0
 55125  1  0  0  0
 56 69  2  0  0  0
 57 58  2  0  0  0
 57126  1  0  0  0
 58127  1  0  0  0
 59 60  1  0  0  0
 59 61  1  0  0  0
 59 62  1  0  0  0
 60128  1  0  0  0
 60129  1  0  0  0
 60130  1  0  0  0
 61131  1  0  0  0
 61132  1  0  0  0
 61133  1  0  0  0
 62134  1  0  0  0
 62135  1  0  0  0
 62136  1  0  0  0
 63 65  1  0  0  0
 63137  1  0  0  0
 63138  1  0  0  0
 63139  1  0  0  0
 64140  1  0  0  0
 65141  1  0  0  0
 68 78  1  0  0  0
 71 72  1  0  0  0
 71 74  2  0  0  0
 71142  1  0  0  0
 72 73  2  0  0  0
 72 79  1  0  0  0
 73 76  1  0  0  0
 73 82  1  0  0  0
 74 80  1  0  0  0
 74 82  1  0  0  0
 75 77  1  0  0  0
 75 78  1  0  0  0
 75 81  2  0  0  0
 76 79  1  0  0  0
 76143  1  0  0  0
 76144  1  0  0  0
 77 80  1  0  0  0
 77145  1  0  0  0
 77146  1  0  0  0
 78147  1  0  0  0
 78148  1  0  0  0
 80149  1  0  0  0
M  ISO  4   1 100  68 101  78 101  79 100
M  END
> <chiral flag>
0

> <version>
0

> <s_m_source_file>
/data/baiqing/PycharmProjects/Reinvent-master-3.2/result/LINK_invent/BTK/process_docking_weight1_custom_product_contain_oxygen_bond_distance_aromatic_linkinvent_7_9_3/rearranged_h_0147.sdf

> <i_m_source_file_index>
54

> <r_mmod_Potential_Energy-OPLS-2005>
901.662109375

> <r_mmod_Stretch_Energy-OPLS-2005>
124.907005310059

> <r_mmod_Bend_Energy-OPLS-2005>
812.49658203125

> <r_mmod_Torsional_Energy-OPLS-2005>
261.874664306641

> <r_mmod_Improper_Torsional_Energy-OPLS-2005>
8.62397766113281

> <r_mmod_Van_der_Waal_Energy-OPLS-2005>
118.298408508301

> <r_mmod_Electrostatic_Energy-OPLS-2005>
-261.201904296875

> <r_mmod_Solvation_Energy-OPLS-2005>
-234.142944335938

> <b_mmod_Minimization_Converged-OPLS-2005>
0

> <r_mmod_RMS_Derivative-OPLS-2005>
1.68453872203827

$$$$
54
                    3D
 Structure written by MMmdl.
166175  0  0  1  0            999 V2000
  -30.6829  -14.5310   20.4674 C   0  0  0  0  0  0
  -30.4369  -12.3214   19.4278 C   0  0  0  0  0  0
  -29.5042  -12.4775   18.2089 C   0  0  0  0  0  0
  -28.0249  -12.3423   18.6249 C   0  0  0  0  0  0
  -27.6613  -13.2074   19.8579 C   0  0  2  0  0  0
  -28.7096  -13.0421   20.9838 C   0  0  0  0  0  0
  -25.2636  -13.8174   20.5655 C   0  0  0  0  0  0
  -24.1856  -13.0475   20.9178 C   0  0  0  0  0  0
  -24.6384  -11.6919   20.8710 C   0  0  0  0  0  0
  -23.9022  -10.4292   21.0380 C   0  0  0  0  0  0
  -24.3554   -9.4212   21.9179 C   0  0  0  0  0  0
  -23.6237   -8.2232   22.0755 C   0  0  0  0  0  0
  -22.4232   -8.0246   21.3528 C   0  0  0  0  0  0
  -21.9863   -9.0240   20.4665 C   0  0  0  0  0  0
  -22.7173  -10.2123   20.3071 C   0  0  0  0  0  0
  -21.6832   -6.0701   22.5259 C   0  0  0  0  0  0
  -21.4000   -6.5625   23.8178 C   0  0  0  0  0  0
  -21.3661   -5.6784   24.9146 C   0  0  0  0  0  0
  -21.6045   -4.3042   24.7207 C   0  0  0  0  0  0
  -21.8820   -3.8119   23.4331 C   0  0  0  0  0  0
  -21.9200   -4.6939   22.3380 C   0  0  0  0  0  0
  -22.7879  -13.5305   21.1767 C   0  0  0  0  0  0
  -22.1677   -4.2132   21.0957 F   0  0  0  0  0  0
  -21.5630   -3.4547   25.7733 F   0  0  0  0  0  0
  -30.0350  -13.3362   20.4182 N   0  0  0  0  0  0
  -26.3013  -12.9337   20.3261 N   0  0  0  0  0  0
  -25.9305  -11.6488   20.5695 N   0  0  0  0  0  0
  -22.0410  -12.8398   22.0296 N   0  0  0  0  0  0
  -25.4438  -15.1874   20.3999 N   0  0  0  0  0  0
  -31.8600  -14.6607   20.1169 O   0  0  0  0  0  0
  -21.6595   -6.8854   21.4217 O   0  0  0  0  0  0
  -22.3619  -14.5600   20.6540 O   0  0  0  0  0  0
  -24.6163  -31.8672   23.2079 C   0  0  0  0  0  0
  -25.9041  -32.4815   23.8372 C   0  0  1  0  0  0
  -27.2205  -27.4002   20.1218 C   0  0  0  0  0  0
  -25.5900  -33.8613   24.2317 N   0  0  0  0  0  0
  -23.4026  -30.4925   21.5498 C   0  0  2  0  0  0
  -24.8439  -28.9579   20.1092 C   0  0  0  0  0  0
  -22.7411  -29.4661   22.4991 C   0  0  0  0  0  0
  -18.0269  -28.1397   22.8490 C   0  0  0  0  0  0
  -24.1486  -36.7304   23.2645 C   0  0  0  0  0  0
  -25.9320  -30.8281   21.3602 C   0  0  0  0  0  0
  -26.0032  -29.4566   20.7148 C   0  0  0  0  0  0
  -27.1870  -28.6845   20.7188 C   0  0  0  0  0  0
  -26.0394  -26.9166   19.5123 C   0  0  0  0  0  0
  -24.8600  -27.6898   19.4991 C   0  0  0  0  0  0
  -23.6057  -29.8260   20.1608 C   0  0  0  0  0  0
  -25.4107  -36.3122   24.0352 C   0  0  1  0  0  0
  -20.5859  -28.3680   23.1348 C   0  0  2  0  0  0
  -20.6754  -26.9416   22.5455 C   0  0  0  0  0  0
  -19.5734  -26.6404   21.5239 C   0  0  0  0  0  0
  -18.1904  -26.7939   22.1627 C   0  0  0  0  0  0
  -19.1525  -28.8852   23.2904 C   0  0  0  0  0  0
  -18.9447  -30.1455   23.8901 C   0  0  0  0  0  0
  -17.6455  -30.6589   24.0581 C   0  0  0  0  0  0
  -25.9023  -34.9474   23.5129 C   0  0  0  0  0  0
  -16.5339  -29.9083   23.6360 C   0  0  0  0  0  0
  -16.7263  -28.6518   23.0351 C   0  0  0  0  0  0
  -26.4455  -31.6595   25.0707 C   0  0  0  0  0  0
  -25.3712  -31.3719   26.1473 C   0  0  0  0  0  0
  -27.0271  -30.3039   24.6063 C   0  0  0  0  0  0
  -27.6083  -32.4286   25.7416 C   0  0  0  0  0  0
  -27.5591  -37.1802   24.8461 C   0  0  0  0  0  0
  -21.4155  -29.3039   22.3742 N   0  0  0  0  0  0
  -26.4293  -37.3819   23.9425 N   0  0  0  0  0  0
  -24.6684  -31.0766   22.0969 N   0  0  0  0  0  0
  -23.4188  -28.8215   23.3039 O   0  0  0  0  0  0
  -28.3936  -26.6630   20.1879 O   0  0  0  0  0  0
  -26.5603  -34.8917   22.4695 O   0  0  0  0  0  0
  -23.5353  -32.1447   23.7482 O   0  0  0  0  0  0
  -30.2898  -18.0736   17.8578 C   0  0  0  0  0  0
  -30.1425  -19.3067   18.5136 C   0  0  0  0  0  0
  -30.2332  -16.8704   18.5859 C   0  0  0  0  0  0
  -29.8538  -18.1354   20.6429 C   0  0  0  0  0  0
  -29.9435  -19.3586   19.9099 C   0  0  0  0  0  0
  -30.0157  -16.8772   19.9892 C   0  0  0  0  0  0
  -30.0211  -20.6930   20.5503 C   0  0  0  0  0  0
  -27.4467  -23.0913   19.3542 C   0  0  0  0  0  0
  -28.1383  -21.7080   19.2441 C   0  0  0  0  0  0
  -29.7199  -23.2331   20.0855 C   0  0  1  0  0  0
  -28.3943  -24.0471   20.1406 C   0  0  2  0  0  0
  -30.8536  -23.6877   21.0272 C   0  0  0  0  0  0
  -27.8734  -24.1534   21.5943 C   0  0  0  0  0  0
  -28.5541  -25.4515   19.4262 C   0  0  0  0  0  0
  -29.3377  -21.7919   20.0949 N   0  0  0  0  0  0
  -29.9141  -15.6243   20.6982 N   0  0  0  0  0  0
  -30.8712  -20.8236   21.5642 N   0  3  0  0  0  0
  -31.4782  -12.4345   19.1134 H   0  0  0  0  0  0
  -30.3601  -11.3204   19.8523 H   0  0  0  0  0  0
  -29.7439  -11.7307   17.4496 H   0  0  0  0  0  0
  -29.6725  -13.4474   17.7414 H   0  0  0  0  0  0
  -27.8315  -11.2904   18.8402 H   0  0  0  0  0  0
  -27.3816  -12.6067   17.7844 H   0  0  0  0  0  0
  -27.6913  -14.2413   19.5129 H   0  0  0  0  0  0
  -28.7001  -12.0233   21.3751 H   0  0  0  0  0  0
  -28.4854  -13.6999   21.8242 H   0  0  0  0  0  0
  -25.2676   -9.5761   22.4767 H   0  0  0  0  0  0
  -23.9968   -7.4678   22.7496 H   0  0  0  0  0  0
  -21.0790   -8.8780   19.8989 H   0  0  0  0  0  0
  -22.3611  -10.9680   19.6202 H   0  0  0  0  0  0
  -21.1976   -7.6133   23.9689 H   0  0  0  0  0  0
  -21.1481   -6.0489   25.9060 H   0  0  0  0  0  0
  -22.0604   -2.7585   23.2781 H   0  0  0  0  0  0
  -22.3917  -12.0126   22.4888 H   0  0  0  0  0  0
  -21.1006  -13.1524   22.2314 H   0  0  0  0  0  0
  -24.6749  -15.8440   20.4881 H   0  0  0  0  0  0
  -26.2818  -15.6086   20.0194 H   0  0  0  0  0  0
  -26.7105  -32.5534   23.1133 H   0  0  0  0  0  0
  -25.0071  -33.9733   25.0473 H   0  0  0  0  0  0
  -22.6909  -31.3092   21.4197 H   0  0  0  0  0  0
  -23.3755  -35.9624   23.3300 H   0  0  0  0  0  0
  -24.3618  -36.8914   22.2060 H   0  0  0  0  0  0
  -23.7165  -37.6482   23.6651 H   0  0  0  0  0  0
  -26.0395  -31.5908   20.5867 H   0  0  0  0  0  0
  -26.8223  -30.8874   21.9746 H   0  0  0  0  0  0
  -28.0755  -29.0668   21.2003 H   0  0  0  0  0  0
  -25.9900  -25.9363   19.0631 H   0  0  0  0  0  0
  -23.9726  -27.3014   19.0229 H   0  0  0  0  0  0
  -23.6993  -30.6003   19.3970 H   0  0  0  0  0  0
  -22.7274  -29.2395   19.8832 H   0  0  0  0  0  0
  -25.1260  -36.2019   25.0845 H   0  0  0  0  0  0
  -20.9953  -28.3239   24.1469 H   0  0  0  0  0  0
  -20.5701  -26.2253   23.3626 H   0  0  0  0  0  0
  -21.6615  -26.7496   22.1236 H   0  0  0  0  0  0
  -19.6892  -25.6318   21.1253 H   0  0  0  0  0  0
  -19.6673  -27.3209   20.6757 H   0  0  0  0  0  0
  -17.4204  -26.6746   21.3987 H   0  0  0  0  0  0
  -18.0258  -26.0079   22.9019 H   0  0  0  0  0  0
  -19.7917  -30.7295   24.2243 H   0  0  0  0  0  0
  -17.5006  -31.6265   24.5173 H   0  0  0  0  0  0
  -15.5338  -30.2997   23.7666 H   0  0  0  0  0  0
  -15.8666  -28.0854   22.7046 H   0  0  0  0  0  0
  -24.5858  -30.7093   25.7810 H   0  0  0  0  0  0
  -24.8917  -32.2877   26.4946 H   0  0  0  0  0  0
  -25.8056  -30.8862   27.0222 H   0  0  0  0  0  0
  -26.2801  -29.6786   24.1175 H   0  0  0  0  0  0
  -27.4107  -29.7290   25.4495 H   0  0  0  0  0  0
  -27.8600  -30.4353   23.9159 H   0  0  0  0  0  0
  -27.2791  -33.3625   26.1985 H   0  0  0  0  0  0
  -28.3872  -32.6778   25.0192 H   0  0  0  0  0  0
  -28.0780  -31.8402   26.5309 H   0  0  0  0  0  0
  -28.2633  -38.0093   24.7577 H   0  0  0  0  0  0
  -28.1075  -36.2635   24.6213 H   0  0  0  0  0  0
  -27.2352  -37.1382   25.8881 H   0  0  0  0  0  0
  -20.9306  -29.8699   21.6929 H   0  0  0  0  0  0
  -26.0191  -38.2908   24.1435 H   0  0  0  0  0  0
  -30.4690  -18.0555   16.7912 H   0  0  0  0  0  0
  -30.2386  -20.2189   17.9401 H   0  0  0  0  0  0
  -30.3565  -15.9473   18.0388 H   0  0  0  0  0  0
  -29.7040  -18.1638   21.7136 H   0  0  0  0  0  0
  -26.4838  -22.9836   19.8576 H   0  0  0  0  0  0
  -27.2159  -23.4641   18.3554 H   0  0  0  0  0  0
  -28.4148  -21.5134   18.2060 H   0  0  0  0  0  0
  -27.4697  -20.9087   19.5656 H   0  0  0  0  0  0
  -30.1290  -23.3726   19.0845 H   0  0  0  0  0  0
  -30.6168  -23.5583   22.0821 H   0  0  0  0  0  0
  -31.0860  -24.7403   20.8661 H   0  0  0  0  0  0
  -31.7748  -23.1465   20.8084 H   0  0  0  0  0  0
  -27.7916  -23.1605   22.0453 H   0  0  0  0  0  0
  -26.8821  -24.6094   21.6334 H   0  0  0  0  0  0
  -28.5377  -24.7456   22.2254 H   0  0  0  0  0  0
  -27.9937  -25.5014   18.4946 H   0  0  0  0  0  0
  -29.5793  -25.5240   19.0664 H   0  0  0  0  0  0
  -29.0251  -15.4436   21.1371 H   0  0  0  0  0  0
  -31.4387  -20.0379   21.8424 H   0  0  0  0  0  0
  -30.9622  -21.6914   22.0645 H   0  0  0  0  0  0
  1 25  1  0  0  0
  1 30  2  0  0  0
  1 86  1  0  0  0
  2  3  1  0  0  0
  2 25  1  0  0  0
  2 88  1  0  0  0
  2 89  1  0  0  0
  3  4  1  0  0  0
  3 90  1  0  0  0
  3 91  1  0  0  0
  4  5  1  0  0  0
  4 92  1  0  0  0
  4 93  1  0  0  0
  5  6  1  0  0  0
  5 26  1  0  0  0
  5 94  1  0  0  0
  6 25  1  0  0  0
  6 95  1  0  0  0
  6 96  1  0  0  0
  7  8  2  0  0  0
  7 26  1  0  0  0
  7 29  1  0  0  0
  8  9  1  0  0  0
  8 22  1  0  0  0
  9 10  1  0  0  0
  9 27  2  0  0  0
 10 11  2  0  0  0
 10 15  1  0  0  0
 11 12  1  0  0  0
 11 97  1  0  0  0
 12 13  2  0  0  0
 12 98  1  0  0  0
 13 14  1  0  0  0
 13 31  1  0  0  0
 14 15  2  0  0  0
 14 99  1  0  0  0
 15100  1  0  0  0
 16 17  2  0  0  0
 16 21  1  0  0  0
 16 31  1  0  0  0
 17 18  1  0  0  0
 17101  1  0  0  0
 18 19  2  0  0  0
 18102  1  0  0  0
 19 20  1  0  0  0
 19 24  1  0  0  0
 20 21  2  0  0  0
 20103  1  0  0  0
 21 23  1  0  0  0
 22 28  1  0  0  0
 22 32  2  0  0  0
 26 27  1  0  0  0
 28104  1  0  0  0
 28105  1  0  0  0
 29106  1  0  0  0
 29107  1  0  0  0
 33 34  1  0  0  0
 33 66  1  0  0  0
 33 70  2  0  0  0
 34 36  1  0  0  0
 34 59  1  0  0  0
 34108  1  0  0  0
 35 44  2  0  0  0
 35 45  1  0  0  0
 35 68  1  0  0  0
 36 56  1  0  0  0
 36109  1  0  0  0
 37 39  1  0  0  0
 37 47  1  0  0  0
 37 66  1  0  0  0
 37110  1  0  0  0
 38 43  2  0  0  0
 38 46  1  0  0  0
 38 47  1  0  0  0
 39 64  1  0  0  0
 39 67  2  0  0  0
 40 52  1  0  0  0
 40 53  2  0  0  0
 40 58  1  0  0  0
 41111  1  0  0  0
 41112  1  0  0  0
 41113  1  0  0  0
 41 48  1  0  0  0
 42 43  1  0  0  0
 42 66  1  0  0  0
 42114  1  0  0  0
 42115  1  0  0  0
 43 44  1  0  0  0
 44116  1  0  0  0
 45 46  2  0  0  0
 45117  1  0  0  0
 46118  1  0  0  0
 47119  1  0  0  0
 47120  1  0  0  0
 48 56  1  0  0  0
 48 65  1  0  0  0
 48121  1  0  0  0
 49 50  1  0  0  0
 49 53  1  0  0  0
 49 64  1  0  0  0
 49122  1  0  0  0
 50 51  1  0  0  0
 50123  1  0  0  0
 50124  1  0  0  0
 51 52  1  0  0  0
 51125  1  0  0  0
 51126  1  0  0  0
 52127  1  0  0  0
 52128  1  0  0  0
 53 54  1  0  0  0
 54 55  2  0  0  0
 54129  1  0  0  0
 55 57  1  0  0  0
 55130  1  0  0  0
 56 69  2  0  0  0
 57 58  2  0  0  0
 57131  1  0  0  0
 58132  1  0  0  0
 59 60  1  0  0  0
 59 61  1  0  0  0
 59 62  1  0  0  0
 60133  1  0  0  0
 60134  1  0  0  0
 60135  1  0  0  0
 61136  1  0  0  0
 61137  1  0  0  0
 61138  1  0  0  0
 62139  1  0  0  0
 62140  1  0  0  0
 62141  1  0  0  0
 63 65  1  0  0  0
 63142  1  0  0  0
 63143  1  0  0  0
 63144  1  0  0  0
 64145  1  0  0  0
 65146  1  0  0  0
 68 84  1  0  0  0
 71 72  2  0  0  0
 71 73  1  0  0  0
 71147  1  0  0  0
 72 75  1  0  0  0
 72148  1  0  0  0
 73 76  2  0  0  0
 73149  1  0  0  0
 74 75  2  0  0  0
 74 76  1  0  0  0
 74150  1  0  0  0
 75 77  1  0  0  0
 76 86  1  0  0  0
 77 85  1  0  0  0
 77 87  2  0  0  0
 78 79  1  0  0  0
 78 81  1  0  0  0
 78151  1  0  0  0
 78152  1  0  0  0
 79 85  1  0  0  0
 79153  1  0  0  0
 79154  1  0  0  0
 80 81  1  0  0  0
 80 82  1  0  0  0
 80 85  1  0  0  0
 80155  1  0  0  0
 81 83  1  0  0  0
 81 84  1  0  0  0
 82156  1  0  0  0
 82157  1  0  0  0
 82158  1  0  0  0
 83159  1  0  0  0
 83160  1  0  0  0
 83161  1  0  0  0
 84162  1  0  0  0
 84163  1  0  0  0
 86164  1  0  0  0
 87165  1  0  0  0
 87166  1  0  0  0
M  CHG  1  87   1
M  ISO  4   1 100  68 101  84 101  86 100
M  END
> <chiral flag>
0

> <version>
0

> <s_m_source_file>
/data/baiqing/PycharmProjects/Reinvent-master-3.2/result/LINK_invent/BTK/process_docking_weight1_custom_product_contain_oxygen_bond_distance_aromatic_linkinvent_7_9_3/rearranged_h_0147.sdf

> <i_m_source_file_index>
55

> <r_mmod_Potential_Energy-OPLS-2005>
-14.4464530944824

> <r_mmod_Stretch_Energy-OPLS-2005>
51.0855178833008

> <r_mmod_Bend_Energy-OPLS-2005>
164.772048950195

> <r_mmod_Torsional_Energy-OPLS-2005>
366.466033935547

> <r_mmod_Improper_Torsional_Energy-OPLS-2005>
8.59550762176514

> <r_mmod_Van_der_Waal_Energy-OPLS-2005>
158.925170898438

> <r_mmod_Electrostatic_Energy-OPLS-2005>
-398.101959228516

> <r_mmod_Solvation_Energy-OPLS-2005>
-391.316802978516

> <b_mmod_Minimization_Converged-OPLS-2005>
0

> <r_mmod_RMS_Derivative-OPLS-2005>
5.58084440231323

$$$$
55
                    3D
 Structure written by MMmdl.
156165  0  0  1  0            999 V2000
  -30.5599  -14.8226   20.4534 C   0  0  0  0  0  0
  -30.4397  -12.4953   19.5159 C   0  0  0  0  0  0
  -29.5371  -12.5480   18.2608 C   0  0  0  0  0  0
  -28.0550  -12.3621   18.6458 C   0  0  0  0  0  0
  -27.6452  -13.2411   19.8601 C   0  0  2  0  0  0
  -28.6795  -13.1821   21.0079 C   0  0  0  0  0  0
  -25.2514  -13.8182   20.5681 C   0  0  0  0  0  0
  -24.1786  -13.0426   20.9184 C   0  0  0  0  0  0
  -24.6380  -11.6918   20.8700 C   0  0  0  0  0  0
  -23.9028  -10.4310   21.0393 C   0  0  0  0  0  0
  -24.3579   -9.4215   21.9176 C   0  0  0  0  0  0
  -23.6278   -8.2227   22.0730 C   0  0  0  0  0  0
  -22.4284   -8.0267   21.3511 C   0  0  0  0  0  0
  -21.9884   -9.0235   20.4635 C   0  0  0  0  0  0
  -22.7187  -10.2140   20.3051 C   0  0  0  0  0  0
  -21.6833   -6.0742   22.5284 C   0  0  0  0  0  0
  -21.4004   -6.5635   23.8227 C   0  0  0  0  0  0
  -21.3666   -5.6784   24.9191 C   0  0  0  0  0  0
  -21.6058   -4.3039   24.7223 C   0  0  0  0  0  0
  -21.8820   -3.8139   23.4339 C   0  0  0  0  0  0
  -21.9188   -4.6968   22.3409 C   0  0  0  0  0  0
  -22.7835  -13.5245   21.1878 C   0  0  0  0  0  0
  -22.1669   -4.2149   21.0994 F   0  0  0  0  0  0
  -21.5633   -3.4536   25.7740 F   0  0  0  0  0  0
  -29.9817  -13.5615   20.4461 N   0  0  0  0  0  0
  -26.2949  -12.9401   20.3248 N   0  0  0  0  0  0
  -25.9308  -11.6545   20.5672 N   0  0  0  0  0  0
  -22.0419  -12.8273   22.0432 N   0  0  0  0  0  0
  -25.4168  -15.1906   20.4163 N   0  0  0  0  0  0
  -31.7211  -14.9404   20.0397 O   0  0  0  0  0  0
  -21.6617   -6.8882   21.4255 O   0  0  0  0  0  0
  -22.3566  -14.5587   20.6752 O   0  0  0  0  0  0
  -24.6388  -31.8507   23.1917 C   0  0  0  0  0  0
  -25.9176  -32.4731   23.8266 C   0  0  1  0  0  0
  -27.2366  -27.2216   20.1383 C   0  0  0  0  0  0
  -25.5953  -33.8517   24.2198 N   0  0  0  0  0  0
  -23.4354  -30.4686   21.5380 C   0  0  2  0  0  0
  -24.8845  -28.9084   20.1007 C   0  0  0  0  0  0
  -22.7553  -29.4600   22.4963 C   0  0  0  0  0  0
  -18.0303  -28.1403   22.8484 C   0  0  0  0  0  0
  -24.1483  -36.7294   23.2644 C   0  0  0  0  0  0
  -25.9805  -30.7535   21.3666 C   0  0  0  0  0  0
  -26.0545  -29.3680   20.7198 C   0  0  0  0  0  0
  -27.2279  -28.5378   20.7279 C   0  0  0  0  0  0
  -26.0458  -26.8496   19.4673 C   0  0  0  0  0  0
  -24.8917  -27.6605   19.4583 C   0  0  0  0  0  0
  -23.6471  -29.7863   20.1588 C   0  0  0  0  0  0
  -25.4102  -36.3050   24.0333 C   0  0  1  0  0  0
  -20.5896  -28.3711   23.1283 C   0  0  2  0  0  0
  -20.6794  -26.9422   22.5426 C   0  0  0  0  0  0
  -19.5787  -26.6376   21.5231 C   0  0  0  0  0  0
  -18.1960  -26.7937   22.1628 C   0  0  0  0  0  0
  -19.1553  -28.8885   23.2840 C   0  0  0  0  0  0
  -18.9456  -30.1484   23.8850 C   0  0  0  0  0  0
  -17.6448  -30.6580   24.0573 C   0  0  0  0  0  0
  -25.9069  -34.9437   23.5089 C   0  0  0  0  0  0
  -16.5345  -29.9080   23.6340 C   0  0  0  0  0  0
  -16.7280  -28.6513   23.0344 C   0  0  0  0  0  0
  -26.4499  -31.6580   25.0676 C   0  0  0  0  0  0
  -25.3726  -31.3736   26.1408 C   0  0  0  0  0  0
  -27.0331  -30.3004   24.6151 C   0  0  0  0  0  0
  -27.6060  -32.4318   25.7443 C   0  0  0  0  0  0
  -27.5572  -37.1793   24.8430 C   0  0  0  0  0  0
  -21.4256  -29.3049   22.3677 N   0  0  0  0  0  0
  -26.4254  -37.3767   23.9408 N   0  0  0  0  0  0
  -24.7055  -31.0436   22.0900 N   0  0  0  0  0  0
  -23.4228  -28.8206   23.3122 O   0  0  0  0  0  0
  -28.3305  -26.3051   20.2427 O   0  0  0  0  0  0
  -26.5644  -34.8943   22.4661 O   0  0  0  0  0  0
  -23.5532  -32.1338   23.7232 O   0  0  0  0  0  0
  -29.4432  -19.0537   18.9340 C   0  0  0  0  0  0
  -29.6803  -17.6294   19.0224 C   0  0  0  0  0  0
  -29.3932  -19.5660   20.2069 C   0  0  0  0  0  0
  -29.7605  -17.2756   20.3518 C   0  0  0  0  0  0
  -28.5541  -22.9765   21.8153 C   0  0  0  0  0  0
  -28.9795  -21.4739   21.9243 C   0  0  0  0  0  0
  -29.0834  -22.1743   19.6504 C   0  0  0  0  0  0
  -29.0874  -23.5663   20.4793 C   0  0  2  0  0  0
  -30.5598  -24.0239   20.6475 C   0  0  0  0  0  0
  -28.1743  -24.8254   19.9092 C   0  0  0  0  0  0
  -29.1821  -20.9792   20.5675 N   0  0  0  0  0  0
  -29.8050  -15.9387   20.8335 N   0  0  0  0  0  0
  -29.5404  -18.4698   21.1046 O   0  0  0  0  0  0
  -31.4882  -12.6156   19.2384 H   0  0  0  0  0  0
  -30.3749  -11.5131   19.9902 H   0  0  0  0  0  0
  -29.8495  -11.7899   17.5414 H   0  0  0  0  0  0
  -29.6749  -13.5087   17.7630 H   0  0  0  0  0  0
  -27.9050  -11.3113   18.8839 H   0  0  0  0  0  0
  -27.4118  -12.5784   17.7921 H   0  0  0  0  0  0
  -27.6394  -14.2671   19.4925 H   0  0  0  0  0  0
  -28.7232  -12.1827   21.4430 H   0  0  0  0  0  0
  -28.3874  -13.8503   21.8189 H   0  0  0  0  0  0
  -25.2720   -9.5706   22.4749 H   0  0  0  0  0  0
  -23.9999   -7.4617   22.7465 H   0  0  0  0  0  0
  -21.0764   -8.8710   19.8973 H   0  0  0  0  0  0
  -22.3574  -10.9656   19.6156 H   0  0  0  0  0  0
  -21.1975   -7.6147   23.9739 H   0  0  0  0  0  0
  -21.1515   -6.0510   25.9111 H   0  0  0  0  0  0
  -22.0596   -2.7604   23.2810 H   0  0  0  0  0  0
  -22.3888  -11.9901   22.4874 H   0  0  0  0  0  0
  -21.1075  -13.1386   22.2627 H   0  0  0  0  0  0
  -24.6536  -15.8435   20.5497 H   0  0  0  0  0  0
  -26.2524  -15.6309   20.0499 H   0  0  0  0  0  0
  -26.7274  -32.5342   23.1026 H   0  0  0  0  0  0
  -25.0103  -33.9614   25.0348 H   0  0  0  0  0  0
  -22.7267  -31.2864   21.3873 H   0  0  0  0  0  0
  -23.3743  -35.9629   23.3260 H   0  0  0  0  0  0
  -24.3582  -36.8968   22.2068 H   0  0  0  0  0  0
  -23.7248  -37.6487   23.6705 H   0  0  0  0  0  0
  -26.0934  -31.5001   20.5794 H   0  0  0  0  0  0
  -26.8694  -30.8234   21.9821 H   0  0  0  0  0  0
  -28.1172  -28.8900   21.2318 H   0  0  0  0  0  0
  -25.9726  -25.9018   18.9581 H   0  0  0  0  0  0
  -24.0045  -27.3072   18.9499 H   0  0  0  0  0  0
  -23.7367  -30.5466   19.3819 H   0  0  0  0  0  0
  -22.7685  -29.1949   19.8908 H   0  0  0  0  0  0
  -25.1297  -36.1862   25.0823 H   0  0  0  0  0  0
  -20.9963  -28.3287   24.1421 H   0  0  0  0  0  0
  -20.5728  -26.2327   23.3644 H   0  0  0  0  0  0
  -21.6660  -26.7496   22.1199 H   0  0  0  0  0  0
  -19.6936  -25.6280   21.1292 H   0  0  0  0  0  0
  -19.6717  -27.3174   20.6758 H   0  0  0  0  0  0
  -17.4240  -26.6714   21.3996 H   0  0  0  0  0  0
  -18.0317  -26.0049   22.8999 H   0  0  0  0  0  0
  -19.7914  -30.7341   24.2189 H   0  0  0  0  0  0
  -17.4977  -31.6259   24.5181 H   0  0  0  0  0  0
  -15.5330  -30.2962   23.7690 H   0  0  0  0  0  0
  -15.8688  -28.0843   22.7054 H   0  0  0  0  0  0
  -24.5913  -30.7064   25.7738 H   0  0  0  0  0  0
  -24.8907  -32.2914   26.4798 H   0  0  0  0  0  0
  -25.8072  -30.8945   27.0194 H   0  0  0  0  0  0
  -26.2908  -29.6741   24.1200 H   0  0  0  0  0  0
  -27.4032  -29.7276   25.4651 H   0  0  0  0  0  0
  -27.8768  -30.4255   23.9368 H   0  0  0  0  0  0
  -27.2650  -33.3576   26.2085 H   0  0  0  0  0  0
  -28.3840  -32.6949   25.0260 H   0  0  0  0  0  0
  -28.0771  -31.8399   26.5298 H   0  0  0  0  0  0
  -28.2580  -38.0092   24.7506 H   0  0  0  0  0  0
  -28.1089  -36.2655   24.6202 H   0  0  0  0  0  0
  -27.2342  -37.1389   25.8839 H   0  0  0  0  0  0
  -20.9491  -29.8686   21.6776 H   0  0  0  0  0  0
  -26.0141  -38.2850   24.1374 H   0  0  0  0  0  0
  -29.3028  -19.6233   18.0258 H   0  0  0  0  0  0
  -29.7376  -16.9449   18.1875 H   0  0  0  0  0  0
  -28.8639  -23.5578   22.6870 H   0  0  0  0  0  0
  -27.4649  -23.0149   21.8046 H   0  0  0  0  0  0
  -28.2202  -20.8936   22.4543 H   0  0  0  0  0  0
  -29.9092  -21.3859   22.4863 H   0  0  0  0  0  0
  -29.9049  -22.1522   18.9312 H   0  0  0  0  0  0
  -28.1639  -22.0993   19.0664 H   0  0  0  0  0  0
  -31.1802  -23.2187   21.0481 H   0  0  0  0  0  0
  -30.6609  -24.8735   21.3302 H   0  0  0  0  0  0
  -31.0026  -24.3183   19.6942 H   0  0  0  0  0  0
  -27.1510  -24.5504   20.1635 H   0  0  0  0  0  0
  -28.2212  -24.7724   18.8205 H   0  0  0  0  0  0
  -29.0367  -15.7043   21.4443 H   0  0  0  0  0  0
  1 25  1  0  0  0
  1 30  2  0  0  0
  1 82  1  0  0  0
  2  3  1  0  0  0
  2 25  1  0  0  0
  2 84  1  0  0  0
  2 85  1  0  0  0
  3  4  1  0  0  0
  3 86  1  0  0  0
  3 87  1  0  0  0
  4  5  1  0  0  0
  4 88  1  0  0  0
  4 89  1  0  0  0
  5  6  1  0  0  0
  5 26  1  0  0  0
  5 90  1  0  0  0
  6 25  1  0  0  0
  6 91  1  0  0  0
  6 92  1  0  0  0
  7  8  2  0  0  0
  7 26  1  0  0  0
  7 29  1  0  0  0
  8  9  1  0  0  0
  8 22  1  0  0  0
  9 10  1  0  0  0
  9 27  2  0  0  0
 10 11  2  0  0  0
 10 15  1  0  0  0
 11 12  1  0  0  0
 11 93  1  0  0  0
 12 13  2  0  0  0
 12 94  1  0  0  0
 13 14  1  0  0  0
 13 31  1  0  0  0
 14 15  2  0  0  0
 14 95  1  0  0  0
 15 96  1  0  0  0
 16 17  2  0  0  0
 16 21  1  0  0  0
 16 31  1  0  0  0
 17 18  1  0  0  0
 17 97  1  0  0  0
 18 19  2  0  0  0
 18 98  1  0  0  0
 19 20  1  0  0  0
 19 24  1  0  0  0
 20 21  2  0  0  0
 20 99  1  0  0  0
 21 23  1  0  0  0
 22 28  1  0  0  0
 22 32  2  0  0  0
 26 27  1  0  0  0
 28100  1  0  0  0
 28101  1  0  0  0
 29102  1  0  0  0
 29103  1  0  0  0
 33 34  1  0  0  0
 33 66  1  0  0  0
 33 70  2  0  0  0
 34 36  1  0  0  0
 34 59  1  0  0  0
 34104  1  0  0  0
 35 44  2  0  0  0
 35 45  1  0  0  0
 35 68  1  0  0  0
 36 56  1  0  0  0
 36105  1  0  0  0
 37 39  1  0  0  0
 37 47  1  0  0  0
 37 66  1  0  0  0
 37106  1  0  0  0
 38 43  2  0  0  0
 38 46  1  0  0  0
 38 47  1  0  0  0
 39 64  1  0  0  0
 39 67  2  0  0  0
 40 52  1  0  0  0
 40 53  2  0  0  0
 40 58  1  0  0  0
 41107  1  0  0  0
 41108  1  0  0  0
 41109  1  0  0  0
 41 48  1  0  0  0
 42 43  1  0  0  0
 42 66  1  0  0  0
 42110  1  0  0  0
 42111  1  0  0  0
 43 44  1  0  0  0
 44112  1  0  0  0
 45 46  2  0  0  0
 45113  1  0  0  0
 46114  1  0  0  0
 47115  1  0  0  0
 47116  1  0  0  0
 48 56  1  0  0  0
 48 65  1  0  0  0
 48117  1  0  0  0
 49 50  1  0  0  0
 49 53  1  0  0  0
 49 64  1  0  0  0
 49118  1  0  0  0
 50 51  1  0  0  0
 50119  1  0  0  0
 50120  1  0  0  0
 51 52  1  0  0  0
 51121  1  0  0  0
 51122  1  0  0  0
 52123  1  0  0  0
 52124  1  0  0  0
 53 54  1  0  0  0
 54 55  2  0  0  0
 54125  1  0  0  0
 55 57  1  0  0  0
 55126  1  0  0  0
 56 69  2  0  0  0
 57 58  2  0  0  0
 57127  1  0  0  0
 58128  1  0  0  0
 59 60  1  0  0  0
 59 61  1  0  0  0
 59 62  1  0  0  0
 60129  1  0  0  0
 60130  1  0  0  0
 60131  1  0  0  0
 61132  1  0  0  0
 61133  1  0  0  0
 61134  1  0  0  0
 62135  1  0  0  0
 62136  1  0  0  0
 62137  1  0  0  0
 63 65  1  0  0  0
 63138  1  0  0  0
 63139  1  0  0  0
 63140  1  0  0  0
 64141  1  0  0  0
 65142  1  0  0  0
 68 80  1  0  0  0
 71 72  1  0  0  0
 71 73  2  0  0  0
 71143  1  0  0  0
 72 74  2  0  0  0
 72144  1  0  0  0
 73 81  1  0  0  0
 73 83  1  0  0  0
 74 82  1  0  0  0
 74 83  1  0  0  0
 75 76  1  0  0  0
 75 78  1  0  0  0
 75145  1  0  0  0
 75146  1  0  0  0
 76 81  1  0  0  0
 76147  1  0  0  0
 76148  1  0  0  0
 77 78  1  0  0  0
 77 81  1  0  0  0
 77149  1  0  0  0
 77150  1  0  0  0
 78 79  1  0  0  0
 78 80  1  0  0  0
 79151  1  0  0  0
 79152  1  0  0  0
 79153  1  0  0  0
 80154  1  0  0  0
 80155  1  0  0  0
 82156  1  0  0  0
M  ISO  4   1 100  68 101  80 101  82 100
M  END
> <chiral flag>
0

> <version>
0

> <s_m_source_file>
/data/baiqing/PycharmProjects/Reinvent-master-3.2/result/LINK_invent/BTK/process_docking_weight1_custom_product_contain_oxygen_bond_distance_aromatic_linkinvent_7_9_3/rearranged_h_0147.sdf

> <i_m_source_file_index>
56

> <r_mmod_Potential_Energy-OPLS-2005>
324.654907226562

> <r_mmod_Stretch_Energy-OPLS-2005>
153.810012817383

> <r_mmod_Bend_Energy-OPLS-2005>
233.498870849609

> <r_mmod_Torsional_Energy-OPLS-2005>
310.383880615234

> <r_mmod_Improper_Torsional_Energy-OPLS-2005>
4.33053636550903

> <r_mmod_Van_der_Waal_Energy-OPLS-2005>
111.802444458008

> <r_mmod_Electrostatic_Energy-OPLS-2005>
-376.896240234375

> <r_mmod_Solvation_Energy-OPLS-2005>
-229.830978393555

> <b_mmod_Minimization_Converged-OPLS-2005>
0

> <r_mmod_RMS_Derivative-OPLS-2005>
6.03532361984253

$$$$
56
                    3D
 Structure written by MMmdl.
158167  0  0  1  0            999 V2000
  -30.6897  -14.5712   20.3241 C   0  0  0  0  0  0
  -30.4338  -12.2987   19.4480 C   0  0  0  0  0  0
  -29.4947  -12.3204   18.2228 C   0  0  0  0  0  0
  -28.0182  -12.2615   18.6520 C   0  0  0  0  0  0
  -27.6533  -13.2058   19.8322 C   0  0  2  0  0  0
  -28.7099  -13.1572   20.9569 C   0  0  0  0  0  0
  -25.2647  -13.8173   20.5698 C   0  0  0  0  0  0
  -24.1898  -13.0438   20.9213 C   0  0  0  0  0  0
  -24.6440  -11.6912   20.8801 C   0  0  0  0  0  0
  -23.9105  -10.4288   21.0421 C   0  0  0  0  0  0
  -24.3646   -9.4205   21.9189 C   0  0  0  0  0  0
  -23.6312   -8.2238   22.0764 C   0  0  0  0  0  0
  -22.4286   -8.0289   21.3551 C   0  0  0  0  0  0
  -21.9926   -9.0282   20.4652 C   0  0  0  0  0  0
  -22.7272  -10.2152   20.3070 C   0  0  0  0  0  0
  -21.6840   -6.0765   22.5294 C   0  0  0  0  0  0
  -21.3997   -6.5659   23.8241 C   0  0  0  0  0  0
  -21.3655   -5.6802   24.9185 C   0  0  0  0  0  0
  -21.6034   -4.3066   24.7213 C   0  0  0  0  0  0
  -21.8812   -3.8169   23.4335 C   0  0  0  0  0  0
  -21.9182   -4.6998   22.3400 C   0  0  0  0  0  0
  -22.7927  -13.5266   21.1829 C   0  0  0  0  0  0
  -22.1658   -4.2182   21.0979 F   0  0  0  0  0  0
  -21.5619   -3.4550   25.7729 F   0  0  0  0  0  0
  -30.0223  -13.3879   20.3443 N   0  0  0  0  0  0
  -26.3053  -12.9325   20.3303 N   0  0  0  0  0  0
  -25.9365  -11.6502   20.5848 N   0  0  0  0  0  0
  -22.0554  -12.8278   22.0383 N   0  0  0  0  0  0
  -25.4329  -15.1881   20.4077 N   0  0  0  0  0  0
  -31.9199  -14.6195   20.3650 O   0  0  0  0  0  0
  -21.6614   -6.8908   21.4252 O   0  0  0  0  0  0
  -22.3635  -14.5560   20.6653 O   0  0  0  0  0  0
  -24.6045  -31.8691   23.2099 C   0  0  0  0  0  0
  -25.8951  -32.4791   23.8442 C   0  0  1  0  0  0
  -27.2292  -27.4083   20.1660 C   0  0  0  0  0  0
  -25.5836  -33.8597   24.2343 N   0  0  0  0  0  0
  -23.3948  -30.4868   21.5489 C   0  0  2  0  0  0
  -24.8521  -28.9529   20.1134 C   0  0  0  0  0  0
  -22.7361  -29.4662   22.5030 C   0  0  0  0  0  0
  -18.0239  -28.1340   22.8500 C   0  0  0  0  0  0
  -24.1493  -36.7354   23.2666 C   0  0  0  0  0  0
  -25.9251  -30.8336   21.3647 C   0  0  0  0  0  0
  -26.0078  -29.4675   20.7153 C   0  0  0  0  0  0
  -27.1953  -28.7044   20.7332 C   0  0  0  0  0  0
  -26.0630  -26.9147   19.5374 C   0  0  0  0  0  0
  -24.8807  -27.6821   19.5128 C   0  0  0  0  0  0
  -23.6046  -29.8103   20.1686 C   0  0  0  0  0  0
  -25.4107  -36.3109   24.0352 C   0  0  1  0  0  0
  -20.5823  -28.3629   23.1366 C   0  0  2  0  0  0
  -20.6704  -26.9366   22.5447 C   0  0  0  0  0  0
  -19.5689  -26.6342   21.5228 C   0  0  0  0  0  0
  -18.1871  -26.7891   22.1643 C   0  0  0  0  0  0
  -19.1483  -28.8794   23.2922 C   0  0  0  0  0  0
  -18.9405  -30.1392   23.8942 C   0  0  0  0  0  0
  -17.6416  -30.6569   24.0513 C   0  0  0  0  0  0
  -25.9023  -34.9448   23.5175 C   0  0  0  0  0  0
  -16.5309  -29.9040   23.6320 C   0  0  0  0  0  0
  -16.7226  -28.6448   23.0384 C   0  0  0  0  0  0
  -26.4363  -31.6580   25.0781 C   0  0  0  0  0  0
  -25.3638  -31.3696   26.1552 C   0  0  0  0  0  0
  -27.0174  -30.3019   24.6172 C   0  0  0  0  0  0
  -27.5981  -32.4323   25.7487 C   0  0  0  0  0  0
  -27.5579  -37.1813   24.8447 C   0  0  0  0  0  0
  -21.4092  -29.3019   22.3799 N   0  0  0  0  0  0
  -26.4292  -37.3791   23.9387 N   0  0  0  0  0  0
  -24.6592  -31.0806   22.0977 N   0  0  0  0  0  0
  -23.4146  -28.8235   23.3085 O   0  0  0  0  0  0
  -28.4067  -26.6925   20.2558 O   0  0  0  0  0  0
  -26.5633  -34.8892   22.4766 O   0  0  0  0  0  0
  -23.5239  -32.1506   23.7442 O   0  0  0  0  0  0
  -29.1372  -17.6283   20.7983 C   0  0  0  0  0  0
  -29.9059  -16.8823   19.8371 C   0  0  0  0  0  0
  -30.4482  -17.6404   18.8676 C   0  0  0  0  0  0
  -29.1014  -18.9811   20.4453 C   0  0  0  0  0  0
  -28.1846  -20.4758   22.1670 C   0  0  0  0  0  0
  -31.1206  -16.9078   17.8028 C   0  0  0  0  0  0
  -30.5809  -15.4993   18.1076 C   0  0  0  0  0  0
  -27.6572  -21.9281   22.3169 C   0  0  0  0  0  0
  -28.3216  -22.9462   21.3316 C   0  0  0  0  0  0
  -27.9320  -24.4576   21.4424 C   0  0  0  0  0  0
  -28.4166  -25.2538   20.1889 C   0  0  0  0  0  0
  -30.0845  -15.4945   19.5217 N   0  0  0  0  0  0
  -28.4091  -20.0530   20.9142 N   0  0  0  0  0  0
  -28.3427  -19.7588   23.1563 O   0  0  0  0  0  0
  -30.0643  -19.3087   19.0113 S   0  0  0  0  0  0
  -31.4711  -12.4031   19.1257 H   0  0  0  0  0  0
  -30.3709  -11.3439   19.9687 H   0  0  0  0  0  0
  -29.7177  -11.4601   17.5903 H   0  0  0  0  0  0
  -29.6643  -13.1795   17.5862 H   0  0  0  0  0  0
  -27.8376  -11.2275   18.9483 H   0  0  0  0  0  0
  -27.3675  -12.4473   17.7966 H   0  0  0  0  0  0
  -27.6464  -14.2162   19.4258 H   0  0  0  0  0  0
  -28.6991  -12.2032   21.4852 H   0  0  0  0  0  0
  -28.4974  -13.9304   21.6974 H   0  0  0  0  0  0
  -25.2792   -9.5654   22.4770 H   0  0  0  0  0  0
  -24.0010   -7.4612   22.7495 H   0  0  0  0  0  0
  -21.0849   -8.8831   19.8972 H   0  0  0  0  0  0
  -22.3753  -10.9709   19.6200 H   0  0  0  0  0  0
  -21.1995   -7.6163   23.9758 H   0  0  0  0  0  0
  -21.1478   -6.0517   25.9096 H   0  0  0  0  0  0
  -22.0587   -2.7631   23.2814 H   0  0  0  0  0  0
  -22.4154  -11.9940   22.4785 H   0  0  0  0  0  0
  -21.1184  -13.1364   22.2564 H   0  0  0  0  0  0
  -24.6624  -15.8362   20.5258 H   0  0  0  0  0  0
  -26.2840  -15.6397   20.0940 H   0  0  0  0  0  0
  -26.7044  -32.5506   23.1242 H   0  0  0  0  0  0
  -24.9752  -33.9801   25.0309 H   0  0  0  0  0  0
  -22.6844  -31.3021   21.4037 H   0  0  0  0  0  0
  -23.3704  -35.9743   23.3319 H   0  0  0  0  0  0
  -24.3596  -36.8959   22.2086 H   0  0  0  0  0  0
  -23.7290  -37.6587   23.6662 H   0  0  0  0  0  0
  -26.0453  -31.6018   20.5994 H   0  0  0  0  0  0
  -26.8096  -30.8828   21.9873 H   0  0  0  0  0  0
  -28.0811  -29.0904   21.2185 H   0  0  0  0  0  0
  -26.0540  -25.9373   19.0805 H   0  0  0  0  0  0
  -23.9981  -27.2776   19.0402 H   0  0  0  0  0  0
  -23.6914  -30.5864   19.4076 H   0  0  0  0  0  0
  -22.7346  -29.2144   19.8858 H   0  0  0  0  0  0
  -25.1248  -36.1992   25.0838 H   0  0  0  0  0  0
  -20.9873  -28.3176   24.1515 H   0  0  0  0  0  0
  -20.5577  -26.2221   23.3602 H   0  0  0  0  0  0
  -21.6563  -26.7396   22.1255 H   0  0  0  0  0  0
  -19.6818  -25.6257   21.1236 H   0  0  0  0  0  0
  -19.6599  -27.3176   20.6766 H   0  0  0  0  0  0
  -17.4114  -26.6648   21.4061 H   0  0  0  0  0  0
  -18.0285  -26.0025   22.9039 H   0  0  0  0  0  0
  -19.7883  -30.7163   24.2386 H   0  0  0  0  0  0
  -17.4955  -31.6268   24.5074 H   0  0  0  0  0  0
  -15.5309  -30.2894   23.7625 H   0  0  0  0  0  0
  -15.8641  -28.0704   22.7129 H   0  0  0  0  0  0
  -24.5746  -30.7124   25.7891 H   0  0  0  0  0  0
  -24.8882  -32.2817   26.5149 H   0  0  0  0  0  0
  -25.7973  -30.8744   27.0235 H   0  0  0  0  0  0
  -26.2740  -29.6840   24.1129 H   0  0  0  0  0  0
  -27.3795  -29.7207   25.4643 H   0  0  0  0  0  0
  -27.8614  -30.4322   23.9420 H   0  0  0  0  0  0
  -27.2644  -33.3616   26.2132 H   0  0  0  0  0  0
  -28.3706  -32.6921   25.0235 H   0  0  0  0  0  0
  -28.0736  -31.8400   26.5306 H   0  0  0  0  0  0
  -28.2575  -38.0129   24.7459 H   0  0  0  0  0  0
  -28.1069  -36.2632   24.6248 H   0  0  0  0  0  0
  -27.2293  -37.1463   25.8858 H   0  0  0  0  0  0
  -20.9228  -29.8730   21.7043 H   0  0  0  0  0  0
  -26.0168  -38.2876   24.1337 H   0  0  0  0  0  0
  -28.5898  -17.1729   21.6105 H   0  0  0  0  0  0
  -32.2032  -16.9684   17.9226 H   0  0  0  0  0  0
  -30.8488  -17.2654   16.8093 H   0  0  0  0  0  0
  -31.3265  -14.7408   17.8582 H   0  0  0  0  0  0
  -29.7181  -15.3284   17.4612 H   0  0  0  0  0  0
  -27.8138  -22.2375   23.3521 H   0  0  0  0  0  0
  -26.5746  -21.9129   22.1664 H   0  0  0  0  0  0
  -28.0976  -22.6227   20.3142 H   0  0  0  0  0  0
  -29.4070  -22.8604   21.4272 H   0  0  0  0  0  0
  -28.3656  -24.8825   22.3529 H   0  0  0  0  0  0
  -26.8528  -24.5714   21.5401 H   0  0  0  0  0  0
  -29.4654  -24.9976   20.0389 H   0  0  0  0  0  0
  -27.9195  -24.8919   19.2924 H   0  0  0  0  0  0
  -28.2295  -20.7630   20.2188 H   0  0  0  0  0  0
  1 25  1  0  0  0
  1 30  2  0  0  0
  1 82  1  0  0  0
  2  3  1  0  0  0
  2 25  1  0  0  0
  2 86  1  0  0  0
  2 87  1  0  0  0
  3  4  1  0  0  0
  3 88  1  0  0  0
  3 89  1  0  0  0
  4  5  1  0  0  0
  4 90  1  0  0  0
  4 91  1  0  0  0
  5  6  1  0  0  0
  5 26  1  0  0  0
  5 92  1  0  0  0
  6 25  1  0  0  0
  6 93  1  0  0  0
  6 94  1  0  0  0
  7  8  2  0  0  0
  7 26  1  0  0  0
  7 29  1  0  0  0
  8  9  1  0  0  0
  8 22  1  0  0  0
  9 10  1  0  0  0
  9 27  2  0  0  0
 10 11  2  0  0  0
 10 15  1  0  0  0
 11 12  1  0  0  0
 11 95  1  0  0  0
 12 13  2  0  0  0
 12 96  1  0  0  0
 13 14  1  0  0  0
 13 31  1  0  0  0
 14 15  2  0  0  0
 14 97  1  0  0  0
 15 98  1  0  0  0
 16 17  2  0  0  0
 16 21  1  0  0  0
 16 31  1  0  0  0
 17 18  1  0  0  0
 17 99  1  0  0  0
 18 19  2  0  0  0
 18100  1  0  0  0
 19 20  1  0  0  0
 19 24  1  0  0  0
 20 21  2  0  0  0
 20101  1  0  0  0
 21 23  1  0  0  0
 22 28  1  0  0  0
 22 32  2  0  0  0
 26 27  1  0  0  0
 28102  1  0  0  0
 28103  1  0  0  0
 29104  1  0  0  0
 29105  1  0  0  0
 33 34  1  0  0  0
 33 66  1  0  0  0
 33 70  2  0  0  0
 34 36  1  0  0  0
 34 59  1  0  0  0
 34106  1  0  0  0
 35 44  2  0  0  0
 35 45  1  0  0  0
 35 68  1  0  0  0
 36 56  1  0  0  0
 36107  1  0  0  0
 37 39  1  0  0  0
 37 47  1  0  0  0
 37 66  1  0  0  0
 37108  1  0  0  0
 38 43  2  0  0  0
 38 46  1  0  0  0
 38 47  1  0  0  0
 39 64  1  0  0  0
 39 67  2  0  0  0
 40 52  1  0  0  0
 40 53  2  0  0  0
 40 58  1  0  0  0
 41109  1  0  0  0
 41110  1  0  0  0
 41111  1  0  0  0
 41 48  1  0  0  0
 42 43  1  0  0  0
 42 66  1  0  0  0
 42112  1  0  0  0
 42113  1  0  0  0
 43 44  1  0  0  0
 44114  1  0  0  0
 45 46  2  0  0  0
 45115  1  0  0  0
 46116  1  0  0  0
 47117  1  0  0  0
 47118  1  0  0  0
 48 56  1  0  0  0
 48 65  1  0  0  0
 48119  1  0  0  0
 49 50  1  0  0  0
 49 53  1  0  0  0
 49 64  1  0  0  0
 49120  1  0  0  0
 50 51  1  0  0  0
 50121  1  0  0  0
 50122  1  0  0  0
 51 52  1  0  0  0
 51123  1  0  0  0
 51124  1  0  0  0
 52125  1  0  0  0
 52126  1  0  0  0
 53 54  1  0  0  0
 54 55  2  0  0  0
 54127  1  0  0  0
 55 57  1  0  0  0
 55128  1  0  0  0
 56 69  2  0  0  0
 57 58  2  0  0  0
 57129  1  0  0  0
 58130  1  0  0  0
 59 60  1  0  0  0
 59 61  1  0  0  0
 59 62  1  0  0  0
 60131  1  0  0  0
 60132  1  0  0  0
 60133  1  0  0  0
 61134  1  0  0  0
 61135  1  0  0  0
 61136  1  0  0  0
 62137  1  0  0  0
 62138  1  0  0  0
 62139  1  0  0  0
 63 65  1  0  0  0
 63140  1  0  0  0
 63141  1  0  0  0
 63142  1  0  0  0
 64143  1  0  0  0
 65144  1  0  0  0
 68 81  1  0  0  0
 71 72  1  0  0  0
 71 74  2  0  0  0
 71145  1  0  0  0
 72 73  2  0  0  0
 72 82  1  0  0  0
 73 76  1  0  0  0
 73 85  1  0  0  0
 74 83  1  0  0  0
 74 85  1  0  0  0
 75 78  1  0  0  0
 75 83  1  0  0  0
 75 84  2  0  0  0
 76 77  1  0  0  0
 76146  1  0  0  0
 76147  1  0  0  0
 77 82  1  0  0  0
 77148  1  0  0  0
 77149  1  0  0  0
 78 79  1  0  0  0
 78150  1  0  0  0
 78151  1  0  0  0
 79 80  1  0  0  0
 79152  1  0  0  0
 79153  1  0  0  0
 80 81  1  0  0  0
 80154  1  0  0  0
 80155  1  0  0  0
 81156  1  0  0  0
 81157  1  0  0  0
 83158  1  0  0  0
M  ISO  4   1 100  68 101  81 101  82 100
M  END
> <chiral flag>
0

> <version>
0

> <s_m_source_file>
/data/baiqing/PycharmProjects/Reinvent-master-3.2/result/LINK_invent/BTK/process_docking_weight1_custom_product_contain_oxygen_bond_distance_aromatic_linkinvent_7_9_3/rearranged_h_0147.sdf

> <i_m_source_file_index>
57

> <r_mmod_Potential_Energy-OPLS-2005>
288.274841308594

> <r_mmod_Stretch_Energy-OPLS-2005>
49.3889007568359

> <r_mmod_Bend_Energy-OPLS-2005>
232.992263793945

> <r_mmod_Torsional_Energy-OPLS-2005>
337.650665283203

> <r_mmod_Improper_Torsional_Energy-OPLS-2005>
37.4136199951172

> <r_mmod_Van_der_Waal_Energy-OPLS-2005>
117.731704711914

> <r_mmod_Electrostatic_Energy-OPLS-2005>
-328.539489746094

> <r_mmod_Solvation_Energy-OPLS-2005>
-217.256072998047

> <b_mmod_Minimization_Converged-OPLS-2005>
0

> <r_mmod_RMS_Derivative-OPLS-2005>
5.19938182830811

$$$$
57
                    3D
 Structure written by MMmdl.
163172  0  0  1  0            999 V2000
  -30.6675  -14.5397   20.5403 C   0  0  0  0  0  0
  -30.4306  -12.3395   19.4290 C   0  0  0  0  0  0
  -29.4963  -12.4945   18.2095 C   0  0  0  0  0  0
  -28.0183  -12.3519   18.6237 C   0  0  0  0  0  0
  -27.6575  -13.2072   19.8675 C   0  0  2  0  0  0
  -28.7023  -13.0177   20.9907 C   0  0  0  0  0  0
  -25.2585  -13.8158   20.5680 C   0  0  0  0  0  0
  -24.1841  -13.0438   20.9199 C   0  0  0  0  0  0
  -24.6391  -11.6904   20.8747 C   0  0  0  0  0  0
  -23.9057  -10.4291   21.0413 C   0  0  0  0  0  0
  -24.3613   -9.4204   21.9189 C   0  0  0  0  0  0
  -23.6290   -8.2239   22.0754 C   0  0  0  0  0  0
  -22.4272   -8.0281   21.3545 C   0  0  0  0  0  0
  -21.9908   -9.0251   20.4645 C   0  0  0  0  0  0
  -22.7233  -10.2133   20.3058 C   0  0  0  0  0  0
  -21.6852   -6.0738   22.5281 C   0  0  0  0  0  0
  -21.4010   -6.5641   23.8214 C   0  0  0  0  0  0
  -21.3657   -5.6793   24.9175 C   0  0  0  0  0  0
  -21.6044   -4.3059   24.7226 C   0  0  0  0  0  0
  -21.8820   -3.8151   23.4346 C   0  0  0  0  0  0
  -21.9193   -4.6967   22.3403 C   0  0  0  0  0  0
  -22.7863  -13.5240   21.1857 C   0  0  0  0  0  0
  -22.1663   -4.2154   21.0983 F   0  0  0  0  0  0
  -21.5629   -3.4540   25.7737 F   0  0  0  0  0  0
  -30.0250  -13.3400   20.4313 N   0  0  0  0  0  0
  -26.3008  -12.9321   20.3335 N   0  0  0  0  0  0
  -25.9317  -11.6485   20.5768 N   0  0  0  0  0  0
  -22.0498  -12.8228   22.0405 N   0  0  0  0  0  0
  -25.4312  -15.1874   20.4055 N   0  0  0  0  0  0
  -31.8186  -14.6996   20.1250 O   0  0  0  0  0  0
  -21.6641   -6.8879   21.4241 O   0  0  0  0  0  0
  -22.3555  -14.5554   20.6716 O   0  0  0  0  0  0
  -24.6195  -31.8643   23.2054 C   0  0  0  0  0  0
  -25.9068  -32.4804   23.8370 C   0  0  1  0  0  0
  -27.2340  -27.3844   20.1065 C   0  0  0  0  0  0
  -25.5900  -33.8601   24.2298 N   0  0  0  0  0  0
  -23.4104  -30.4887   21.5450 C   0  0  2  0  0  0
  -24.8575  -28.9488   20.1123 C   0  0  0  0  0  0
  -22.7445  -29.4649   22.4938 C   0  0  0  0  0  0
  -18.0290  -28.1378   22.8487 C   0  0  0  0  0  0
  -24.1484  -36.7296   23.2645 C   0  0  0  0  0  0
  -25.9453  -30.8146   21.3681 C   0  0  0  0  0  0
  -26.0214  -29.4468   20.7118 C   0  0  0  0  0  0
  -27.2116  -28.6744   20.7010 C   0  0  0  0  0  0
  -26.0471  -26.9170   19.4941 C   0  0  0  0  0  0
  -24.8695  -27.6861   19.4976 C   0  0  0  0  0  0
  -23.6225  -29.8212   20.1601 C   0  0  0  0  0  0
  -25.4107  -36.3093   24.0338 C   0  0  1  0  0  0
  -20.5881  -28.3672   23.1293 C   0  0  2  0  0  0
  -20.6780  -26.9407   22.5400 C   0  0  0  0  0  0
  -19.5756  -26.6380   21.5206 C   0  0  0  0  0  0
  -18.1935  -26.7922   22.1619 C   0  0  0  0  0  0
  -19.1542  -28.8841   23.2889 C   0  0  0  0  0  0
  -18.9473  -30.1442   23.8904 C   0  0  0  0  0  0
  -17.6477  -30.6580   24.0563 C   0  0  0  0  0  0
  -25.9040  -34.9465   23.5115 C   0  0  0  0  0  0
  -16.5367  -29.9081   23.6331 C   0  0  0  0  0  0
  -16.7280  -28.6498   23.0349 C   0  0  0  0  0  0
  -26.4469  -31.6607   25.0724 C   0  0  0  0  0  0
  -25.3715  -31.3734   26.1461 C   0  0  0  0  0  0
  -27.0319  -30.3051   24.6123 C   0  0  0  0  0  0
  -27.6037  -32.4333   25.7487 C   0  0  0  0  0  0
  -27.5574  -37.1807   24.8469 C   0  0  0  0  0  0
  -21.4165  -29.3036   22.3694 N   0  0  0  0  0  0
  -26.4291  -37.3781   23.9406 N   0  0  0  0  0  0
  -24.6764  -31.0709   22.0972 N   0  0  0  0  0  0
  -23.4206  -28.8191   23.2988 O   0  0  0  0  0  0
  -28.3877  -26.6085   20.1442 O   0  0  0  0  0  0
  -26.5605  -34.8929   22.4678 O   0  0  0  0  0  0
  -23.5373  -32.1403   23.7425 O   0  0  0  0  0  0
  -31.5803  -18.9869   21.1220 C   0  0  0  0  0  0
  -29.2192  -19.2414   21.5968 C   0  0  0  0  0  0
  -31.4012  -17.6005   20.8914 C   0  0  0  0  0  0
  -29.0428  -17.8480   21.3741 C   0  0  0  0  0  0
  -30.5052  -19.8226   21.5190 C   0  0  0  0  0  0
  -30.1313  -16.9917   21.0546 C   0  0  0  0  0  0
  -30.8115  -21.1608   22.0927 C   0  0  0  0  0  0
  -29.7831  -24.7413   22.0518 C   0  0  0  0  0  0
  -30.6475  -23.5969   22.5838 C   0  0  0  0  0  0
  -29.3198  -22.8065   20.7390 C   0  0  0  0  0  0
  -29.4877  -24.3664   20.5965 C   0  0  2  0  0  0
  -30.7007  -24.6846   19.6947 C   0  0  0  0  0  0
  -28.2434  -25.1595   20.0650 C   0  0  0  0  0  0
  -30.2892  -22.3934   21.7934 N   0  0  0  0  0  0
  -29.8894  -15.5685   20.9657 N   0  0  0  0  0  0
  -31.7245  -21.1225   23.0631 N   0  3  0  0  0  0
  -31.4718  -12.4542   19.1223 H   0  0  0  0  0  0
  -30.3543  -11.3344   19.8473 H   0  0  0  0  0  0
  -29.7416  -11.7485   17.4522 H   0  0  0  0  0  0
  -29.6550  -13.4676   17.7419 H   0  0  0  0  0  0
  -27.8361  -11.2973   18.8352 H   0  0  0  0  0  0
  -27.3658  -12.6089   17.7882 H   0  0  0  0  0  0
  -27.6901  -14.2494   19.5491 H   0  0  0  0  0  0
  -28.6936  -11.9858   21.3454 H   0  0  0  0  0  0
  -28.4592  -13.6273   21.8623 H   0  0  0  0  0  0
  -25.2753   -9.5686   22.4765 H   0  0  0  0  0  0
  -24.0006   -7.4628   22.7465 H   0  0  0  0  0  0
  -21.0847   -8.8763   19.8940 H   0  0  0  0  0  0
  -22.3691  -10.9674   19.6171 H   0  0  0  0  0  0
  -21.1998   -7.6147   23.9720 H   0  0  0  0  0  0
  -21.1478   -6.0522   25.9079 H   0  0  0  0  0  0
  -22.0601   -2.7611   23.2845 H   0  0  0  0  0  0
  -22.4112  -11.9887   22.4792 H   0  0  0  0  0  0
  -21.1110  -13.1247   22.2600 H   0  0  0  0  0  0
  -24.6576  -15.8368   20.4989 H   0  0  0  0  0  0
  -26.2622  -15.6157   20.0187 H   0  0  0  0  0  0
  -26.7155  -32.5488   23.1141 H   0  0  0  0  0  0
  -25.0067  -33.9764   25.0455 H   0  0  0  0  0  0
  -22.7011  -31.3064   21.4019 H   0  0  0  0  0  0
  -23.3748  -35.9631   23.3319 H   0  0  0  0  0  0
  -24.3589  -36.8889   22.2060 H   0  0  0  0  0  0
  -23.7240  -37.6506   23.6650 H   0  0  0  0  0  0
  -26.0677  -31.5808   20.6014 H   0  0  0  0  0  0
  -26.8309  -30.8639   21.9911 H   0  0  0  0  0  0
  -28.1074  -29.0524   21.1749 H   0  0  0  0  0  0
  -26.0093  -25.9519   19.0103 H   0  0  0  0  0  0
  -23.9782  -27.2951   19.0267 H   0  0  0  0  0  0
  -23.7365  -30.5962   19.4008 H   0  0  0  0  0  0
  -22.7451  -29.2451   19.8604 H   0  0  0  0  0  0
  -25.1293  -36.1953   25.0836 H   0  0  0  0  0  0
  -20.9980  -28.3237   24.1409 H   0  0  0  0  0  0
  -20.5677  -26.2286   23.3589 H   0  0  0  0  0  0
  -21.6652  -26.7432   22.1198 H   0  0  0  0  0  0
  -19.6922  -25.6289   21.1239 H   0  0  0  0  0  0
  -19.6699  -27.3190   20.6738 H   0  0  0  0  0  0
  -17.4201  -26.6676   21.4024 H   0  0  0  0  0  0
  -18.0336  -26.0057   22.9009 H   0  0  0  0  0  0
  -19.7960  -30.7251   24.2271 H   0  0  0  0  0  0
  -17.5042  -31.6263   24.5154 H   0  0  0  0  0  0
  -15.5373  -30.2987   23.7650 H   0  0  0  0  0  0
  -15.8680  -28.0824   22.7054 H   0  0  0  0  0  0
  -24.5877  -30.7096   25.7783 H   0  0  0  0  0  0
  -24.8922  -32.2905   26.4901 H   0  0  0  0  0  0
  -25.8047  -30.8898   27.0222 H   0  0  0  0  0  0
  -26.2885  -29.6806   24.1150 H   0  0  0  0  0  0
  -27.4070  -29.7288   25.4587 H   0  0  0  0  0  0
  -27.8718  -30.4385   23.9302 H   0  0  0  0  0  0
  -27.2655  -33.3624   26.2085 H   0  0  0  0  0  0
  -28.3834  -32.6905   25.0308 H   0  0  0  0  0  0
  -28.0713  -31.8445   26.5385 H   0  0  0  0  0  0
  -28.2596  -38.0099   24.7501 H   0  0  0  0  0  0
  -28.1070  -36.2627   24.6314 H   0  0  0  0  0  0
  -27.2296  -37.1469   25.8876 H   0  0  0  0  0  0
  -20.9326  -29.8761   21.6922 H   0  0  0  0  0  0
  -26.0176  -38.2859   24.1406 H   0  0  0  0  0  0
  -32.5807  -19.3948   21.0650 H   0  0  0  0  0  0
  -28.3794  -19.8380   21.9264 H   0  0  0  0  0  0
  -32.2748  -17.0160   20.6449 H   0  0  0  0  0  0
  -28.0538  -17.4312   21.5047 H   0  0  0  0  0  0
  -30.2869  -25.7049   22.1344 H   0  0  0  0  0  0
  -28.8647  -24.8042   22.6369 H   0  0  0  0  0  0
  -30.4764  -23.4515   23.6518 H   0  0  0  0  0  0
  -31.7056  -23.8285   22.4452 H   0  0  0  0  0  0
  -29.5113  -22.2912   19.7959 H   0  0  0  0  0  0
  -28.3094  -22.5473   21.0595 H   0  0  0  0  0  0
  -31.6034  -24.1602   20.0091 H   0  0  0  0  0  0
  -30.9250  -25.7519   19.6956 H   0  0  0  0  0  0
  -30.5029  -24.3970   18.6621 H   0  0  0  0  0  0
  -27.3693  -24.8483   20.6404 H   0  0  0  0  0  0
  -28.0526  -24.8744   19.0296 H   0  0  0  0  0  0
  -28.9581  -15.2795   21.2161 H   0  0  0  0  0  0
  -32.0849  -20.2230   23.3443 H   0  0  0  0  0  0
  -32.0316  -21.9402   23.5581 H   0  0  0  0  0  0
  1 25  1  0  0  0
  1 30  2  0  0  0
  1 85  1  0  0  0
  2  3  1  0  0  0
  2 25  1  0  0  0
  2 87  1  0  0  0
  2 88  1  0  0  0
  3  4  1  0  0  0
  3 89  1  0  0  0
  3 90  1  0  0  0
  4  5  1  0  0  0
  4 91  1  0  0  0
  4 92  1  0  0  0
  5  6  1  0  0  0
  5 26  1  0  0  0
  5 93  1  0  0  0
  6 25  1  0  0  0
  6 94  1  0  0  0
  6 95  1  0  0  0
  7  8  2  0  0  0
  7 26  1  0  0  0
  7 29  1  0  0  0
  8  9  1  0  0  0
  8 22  1  0  0  0
  9 10  1  0  0  0
  9 27  2  0  0  0
 10 11  2  0  0  0
 10 15  1  0  0  0
 11 12  1  0  0  0
 11 96  1  0  0  0
 12 13  2  0  0  0
 12 97  1  0  0  0
 13 14  1  0  0  0
 13 31  1  0  0  0
 14 15  2  0  0  0
 14 98  1  0  0  0
 15 99  1  0  0  0
 16 17  2  0  0  0
 16 21  1  0  0  0
 16 31  1  0  0  0
 17 18  1  0  0  0
 17100  1  0  0  0
 18 19  2  0  0  0
 18101  1  0  0  0
 19 20  1  0  0  0
 19 24  1  0  0  0
 20 21  2  0  0  0
 20102  1  0  0  0
 21 23  1  0  0  0
 22 28  1  0  0  0
 22 32  2  0  0  0
 26 27  1  0  0  0
 28103  1  0  0  0
 28104  1  0  0  0
 29105  1  0  0  0
 29106  1  0  0  0
 33 34  1  0  0  0
 33 66  1  0  0  0
 33 70  2  0  0  0
 34 36  1  0  0  0
 34 59  1  0  0  0
 34107  1  0  0  0
 35 44  2  0  0  0
 35 45  1  0  0  0
 35 68  1  0  0  0
 36 56  1  0  0  0
 36108  1  0  0  0
 37 39  1  0  0  0
 37 47  1  0  0  0
 37 66  1  0  0  0
 37109  1  0  0  0
 38 43  2  0  0  0
 38 46  1  0  0  0
 38 47  1  0  0  0
 39 64  1  0  0  0
 39 67  2  0  0  0
 40 52  1  0  0  0
 40 53  2  0  0  0
 40 58  1  0  0  0
 41110  1  0  0  0
 41111  1  0  0  0
 41112  1  0  0  0
 41 48  1  0  0  0
 42 43  1  0  0  0
 42 66  1  0  0  0
 42113  1  0  0  0
 42114  1  0  0  0
 43 44  1  0  0  0
 44115  1  0  0  0
 45 46  2  0  0  0
 45116  1  0  0  0
 46117  1  0  0  0
 47118  1  0  0  0
 47119  1  0  0  0
 48 56  1  0  0  0
 48 65  1  0  0  0
 48120  1  0  0  0
 49 50  1  0  0  0
 49 53  1  0  0  0
 49 64  1  0  0  0
 49121  1  0  0  0
 50 51  1  0  0  0
 50122  1  0  0  0
 50123  1  0  0  0
 51 52  1  0  0  0
 51124  1  0  0  0
 51125  1  0  0  0
 52126  1  0  0  0
 52127  1  0  0  0
 53 54  1  0  0  0
 54 55  2  0  0  0
 54128  1  0  0  0
 55 57  1  0  0  0
 55129  1  0  0  0
 56 69  2  0  0  0
 57 58  2  0  0  0
 57130  1  0  0  0
 58131  1  0  0  0
 59 60  1  0  0  0
 59 61  1  0  0  0
 59 62  1  0  0  0
 60132  1  0  0  0
 60133  1  0  0  0
 60134  1  0  0  0
 61135  1  0  0  0
 61136  1  0  0  0
 61137  1  0  0  0
 62138  1  0  0  0
 62139  1  0  0  0
 62140  1  0  0  0
 63 65  1  0  0  0
 63141  1  0  0  0
 63142  1  0  0  0
 63143  1  0  0  0
 64144  1  0  0  0
 65145  1  0  0  0
 68 83  1  0  0  0
 71 73  2  0  0  0
 71 75  1  0  0  0
 71146  1  0  0  0
 72 74  1  0  0  0
 72 75  2  0  0  0
 72147  1  0  0  0
 73 76  1  0  0  0
 73148  1  0  0  0
 74 76  2  0  0  0
 74149  1  0  0  0
 75 77  1  0  0  0
 76 85  1  0  0  0
 77 84  1  0  0  0
 77 86  2  0  0  0
 78 79  1  0  0  0
 78 81  1  0  0  0
 78150  1  0  0  0
 78151  1  0  0  0
 79 84  1  0  0  0
 79152  1  0  0  0
 79153  1  0  0  0
 80 81  1  0  0  0
 80 84  1  0  0  0
 80154  1  0  0  0
 80155  1  0  0  0
 81 82  1  0  0  0
 81 83  1  0  0  0
 82156  1  0  0  0
 82157  1  0  0  0
 82158  1  0  0  0
 83159  1  0  0  0
 83160  1  0  0  0
 85161  1  0  0  0
 86162  1  0  0  0
 86163  1  0  0  0
M  CHG  1  86   1
M  ISO  4   1 100  68 101  83 101  85 100
M  END
> <chiral flag>
0

> <version>
0

> <s_m_source_file>
/data/baiqing/PycharmProjects/Reinvent-master-3.2/result/LINK_invent/BTK/process_docking_weight1_custom_product_contain_oxygen_bond_distance_aromatic_linkinvent_7_9_3/rearranged_h_0147.sdf

> <i_m_source_file_index>
58

> <r_mmod_Potential_Energy-OPLS-2005>
-76.9268417358398

> <r_mmod_Stretch_Energy-OPLS-2005>
53.4903755187988

> <r_mmod_Bend_Energy-OPLS-2005>
157.88166809082

> <r_mmod_Torsional_Energy-OPLS-2005>
296.420471191406

> <r_mmod_Improper_Torsional_Energy-OPLS-2005>
6.21990060806274

> <r_mmod_Van_der_Waal_Energy-OPLS-2005>
157.022399902344

> <r_mmod_Electrostatic_Energy-OPLS-2005>
-375.256866455078

> <r_mmod_Solvation_Energy-OPLS-2005>
-395.941772460938

> <b_mmod_Minimization_Converged-OPLS-2005>
0

> <r_mmod_RMS_Derivative-OPLS-2005>
1.42274677753448

$$$$
58
                    3D
 Structure written by MMmdl.
173182  0  0  1  0            999 V2000
  -30.6122  -14.6452   20.5081 C   0  0  0  0  0  0
  -30.4457  -12.3982   19.4491 C   0  0  0  0  0  0
  -29.5102  -12.5157   18.2242 C   0  0  0  0  0  0
  -28.0328  -12.3503   18.6363 C   0  0  0  0  0  0
  -27.6576  -13.2151   19.8688 C   0  0  2  0  0  0
  -28.7037  -13.0543   20.9956 C   0  0  0  0  0  0
  -25.2583  -13.8174   20.5711 C   0  0  0  0  0  0
  -24.1838  -13.0442   20.9195 C   0  0  0  0  0  0
  -24.6403  -11.6913   20.8743 C   0  0  0  0  0  0
  -23.9065  -10.4298   21.0409 C   0  0  0  0  0  0
  -24.3615   -9.4212   21.9186 C   0  0  0  0  0  0
  -23.6295   -8.2244   22.0753 C   0  0  0  0  0  0
  -22.4276   -8.0285   21.3545 C   0  0  0  0  0  0
  -21.9913   -9.0257   20.4646 C   0  0  0  0  0  0
  -22.7239  -10.2138   20.3055 C   0  0  0  0  0  0
  -21.6850   -6.0741   22.5281 C   0  0  0  0  0  0
  -21.4008   -6.5643   23.8215 C   0  0  0  0  0  0
  -21.3657   -5.6792   24.9178 C   0  0  0  0  0  0
  -21.6047   -4.3057   24.7224 C   0  0  0  0  0  0
  -21.8821   -3.8149   23.4342 C   0  0  0  0  0  0
  -21.9194   -4.6967   22.3403 C   0  0  0  0  0  0
  -22.7861  -13.5237   21.1855 C   0  0  0  0  0  0
  -22.1664   -4.2155   21.0979 F   0  0  0  0  0  0
  -21.5629   -3.4534   25.7734 F   0  0  0  0  0  0
  -30.0213  -13.4088   20.4385 N   0  0  0  0  0  0
  -26.3012  -12.9349   20.3348 N   0  0  0  0  0  0
  -25.9331  -11.6503   20.5759 N   0  0  0  0  0  0
  -22.0489  -12.8237   22.0407 N   0  0  0  0  0  0
  -25.4315  -15.1898   20.4164 N   0  0  0  0  0  0
  -31.7554  -14.8394   20.0833 O   0  0  0  0  0  0
  -21.6639   -6.8883   21.4242 O   0  0  0  0  0  0
  -22.3554  -14.5547   20.6706 O   0  0  0  0  0  0
  -24.6278  -31.8590   23.2013 C   0  0  0  0  0  0
  -25.9116  -32.4777   23.8350 C   0  0  1  0  0  0
  -27.2301  -27.3083   20.1001 C   0  0  0  0  0  0
  -25.5925  -33.8579   24.2274 N   0  0  0  0  0  0
  -23.4214  -30.4838   21.5451 C   0  0  2  0  0  0
  -24.8655  -28.9366   20.1118 C   0  0  0  0  0  0
  -22.7474  -29.4632   22.4935 C   0  0  0  0  0  0
  -18.0280  -28.1395   22.8489 C   0  0  0  0  0  0
  -24.1482  -36.7281   23.2648 C   0  0  0  0  0  0
  -25.9646  -30.7847   21.3740 C   0  0  0  0  0  0
  -26.0359  -29.4115   20.7143 C   0  0  0  0  0  0
  -27.2157  -28.6079   20.7011 C   0  0  0  0  0  0
  -26.0240  -26.8840   19.4899 C   0  0  0  0  0  0
  -24.8620  -27.6773   19.4958 C   0  0  0  0  0  0
  -23.6349  -29.8188   20.1608 C   0  0  0  0  0  0
  -25.4109  -36.3084   24.0337 C   0  0  1  0  0  0
  -20.5881  -28.3699   23.1281 C   0  0  2  0  0  0
  -20.6767  -26.9420   22.5419 C   0  0  0  0  0  0
  -19.5747  -26.6388   21.5219 C   0  0  0  0  0  0
  -18.1919  -26.7946   22.1615 C   0  0  0  0  0  0
  -19.1533  -28.8863   23.2882 C   0  0  0  0  0  0
  -18.9461  -30.1460   23.8902 C   0  0  0  0  0  0
  -17.6466  -30.6599   24.0569 C   0  0  0  0  0  0
  -25.9056  -34.9456   23.5108 C   0  0  0  0  0  0
  -16.5352  -29.9106   23.6338 C   0  0  0  0  0  0
  -16.7266  -28.6519   23.0360 C   0  0  0  0  0  0
  -26.4487  -31.6600   25.0731 C   0  0  0  0  0  0
  -25.3714  -31.3748   26.1457 C   0  0  0  0  0  0
  -27.0329  -30.3023   24.6196 C   0  0  0  0  0  0
  -27.6055  -32.4331   25.7490 C   0  0  0  0  0  0
  -27.5573  -37.1792   24.8464 C   0  0  0  0  0  0
  -21.4187  -29.3049   22.3674 N   0  0  0  0  0  0
  -26.4278  -37.3786   23.9420 N   0  0  0  0  0  0
  -24.6905  -31.0593   22.0969 N   0  0  0  0  0  0
  -23.4190  -28.8176   23.3021 O   0  0  0  0  0  0
  -28.3817  -26.4968   20.1474 O   0  0  0  0  0  0
  -26.5628  -34.8928   22.4678 O   0  0  0  0  0  0
  -23.5441  -32.1400   23.7335 O   0  0  0  0  0  0
  -30.4464  -19.3382   19.9434 C   0  0  0  0  0  0
  -30.5909  -17.9122   19.9882 C   0  0  0  0  0  0
  -28.8756  -17.8210   21.6616 C   0  0  0  0  0  0
  -28.7323  -19.2421   21.6360 C   0  0  0  0  0  0
  -29.5184  -20.0536   20.7577 C   0  0  0  0  0  0
  -29.8011  -17.1125   20.8574 C   0  0  0  0  0  0
  -27.8010  -19.8247   22.6397 C   0  0  0  0  0  0
  -30.2621  -23.7691   20.9469 C   0  0  0  0  0  0
  -30.6024  -22.2699   21.1788 C   0  0  0  0  0  0
  -28.7747  -23.8557   20.5198 C   0  0  1  0  0  0
  -28.6240  -22.3837   19.8848 C   0  0  0  0  0  0
  -27.9013  -24.0066   21.7850 C   0  0  0  0  0  0
  -29.1976  -22.3365   18.4486 C   0  0  0  0  0  0
  -27.1605  -21.9005   19.8161 C   0  0  0  0  0  0
  -25.3691  -20.1371   23.4177 C   0  0  0  0  0  0
  -26.3641  -19.2884   22.6087 C   0  0  0  0  0  0
  -28.4492  -25.1203   19.5818 C   0  0  0  0  0  0
  -29.4397  -21.4973   20.7568 N   0  0  0  0  0  0
  -29.8060  -15.6518   20.9687 N   0  0  0  0  0  0
  -28.1336  -20.6649   23.4819 O   0  0  0  0  0  0
  -31.4848  -12.5346   19.1455 H   0  0  0  0  0  0
  -30.3901  -11.3983   19.8822 H   0  0  0  0  0  0
  -29.7751  -11.7688   17.4748 H   0  0  0  0  0  0
  -29.6490  -13.4866   17.7471 H   0  0  0  0  0  0
  -27.8701  -11.2962   18.8628 H   0  0  0  0  0  0
  -27.3770  -12.5841   17.7968 H   0  0  0  0  0  0
  -27.6789  -14.2534   19.5370 H   0  0  0  0  0  0
  -28.7174  -12.0258   21.3585 H   0  0  0  0  0  0
  -28.4440  -13.6645   21.8613 H   0  0  0  0  0  0
  -25.2760   -9.5691   22.4758 H   0  0  0  0  0  0
  -24.0010   -7.4632   22.7468 H   0  0  0  0  0  0
  -21.0844   -8.8775   19.8950 H   0  0  0  0  0  0
  -22.3701  -10.9676   19.6160 H   0  0  0  0  0  0
  -21.1992   -7.6151   23.9721 H   0  0  0  0  0  0
  -21.1477   -6.0521   25.9083 H   0  0  0  0  0  0
  -22.0599   -2.7611   23.2837 H   0  0  0  0  0  0
  -22.4086  -11.9891   22.4793 H   0  0  0  0  0  0
  -21.1109  -13.1280   22.2596 H   0  0  0  0  0  0
  -24.6634  -15.8432   20.5242 H   0  0  0  0  0  0
  -26.2813  -15.6288   20.0855 H   0  0  0  0  0  0
  -26.7187  -32.5426   23.1103 H   0  0  0  0  0  0
  -25.0059  -33.9727   25.0410 H   0  0  0  0  0  0
  -22.7169  -31.3058   21.4021 H   0  0  0  0  0  0
  -23.3761  -35.9596   23.3311 H   0  0  0  0  0  0
  -24.3581  -36.8898   22.2062 H   0  0  0  0  0  0
  -23.7207  -37.6471   23.6669 H   0  0  0  0  0  0
  -26.0994  -31.5480   20.6066 H   0  0  0  0  0  0
  -26.8448  -30.8308   22.0037 H   0  0  0  0  0  0
  -28.1150  -28.9734   21.1769 H   0  0  0  0  0  0
  -25.9147  -25.9275   19.0086 H   0  0  0  0  0  0
  -23.9617  -27.3031   19.0276 H   0  0  0  0  0  0
  -23.7543  -30.5958   19.4049 H   0  0  0  0  0  0
  -22.7536  -29.2501   19.8585 H   0  0  0  0  0  0
  -25.1291  -36.1936   25.0830 H   0  0  0  0  0  0
  -20.9971  -28.3280   24.1403 H   0  0  0  0  0  0
  -20.5660  -26.2315   23.3624 H   0  0  0  0  0  0
  -21.6635  -26.7447   22.1213 H   0  0  0  0  0  0
  -19.6911  -25.6298   21.1248 H   0  0  0  0  0  0
  -19.6697  -27.3203   20.6754 H   0  0  0  0  0  0
  -17.4199  -26.6713   21.4003 H   0  0  0  0  0  0
  -18.0302  -26.0083   22.8999 H   0  0  0  0  0  0
  -19.7943  -30.7267   24.2269 H   0  0  0  0  0  0
  -17.5032  -31.6282   24.5174 H   0  0  0  0  0  0
  -15.5359  -30.3016   23.7670 H   0  0  0  0  0  0
  -15.8659  -28.0848   22.7076 H   0  0  0  0  0  0
  -24.5896  -30.7084   25.7796 H   0  0  0  0  0  0
  -24.8890  -32.2909   26.4871 H   0  0  0  0  0  0
  -25.8039  -30.8942   27.0240 H   0  0  0  0  0  0
  -26.2903  -29.6769   24.1225 H   0  0  0  0  0  0
  -27.4025  -29.7291   25.4709 H   0  0  0  0  0  0
  -27.8779  -30.4317   23.9430 H   0  0  0  0  0  0
  -27.2688  -33.3654   26.2040 H   0  0  0  0  0  0
  -28.3874  -32.6847   25.0313 H   0  0  0  0  0  0
  -28.0710  -31.8459   26.5415 H   0  0  0  0  0  0
  -28.2595  -38.0085   24.7517 H   0  0  0  0  0  0
  -28.1051  -36.2616   24.6272 H   0  0  0  0  0  0
  -27.2296  -37.1423   25.8867 H   0  0  0  0  0  0
  -20.9365  -29.8767   21.6880 H   0  0  0  0  0  0
  -26.0157  -38.2855   24.1441 H   0  0  0  0  0  0
  -31.0792  -19.8928   19.2655 H   0  0  0  0  0  0
  -31.3131  -17.4420   19.3363 H   0  0  0  0  0  0
  -28.2695  -17.2528   22.3528 H   0  0  0  0  0  0
  -30.9028  -24.1546   20.1530 H   0  0  0  0  0  0
  -30.4786  -24.3717   21.8295 H   0  0  0  0  0  0
  -30.7996  -22.0819   22.2348 H   0  0  0  0  0  0
  -31.4926  -21.9784   20.6190 H   0  0  0  0  0  0
  -28.0452  -23.1797   22.4801 H   0  0  0  0  0  0
  -26.8413  -24.0542   21.5349 H   0  0  0  0  0  0
  -28.1419  -24.9247   22.3206 H   0  0  0  0  0  0
  -28.6348  -22.9791   17.7714 H   0  0  0  0  0  0
  -29.1516  -21.3290   18.0331 H   0  0  0  0  0  0
  -30.2396  -22.6525   18.4002 H   0  0  0  0  0  0
  -26.5497  -22.5807   19.2217 H   0  0  0  0  0  0
  -26.6977  -21.8275   20.7988 H   0  0  0  0  0  0
  -27.0853  -20.9150   19.3552 H   0  0  0  0  0  0
  -24.3627  -19.7261   23.3420 H   0  0  0  0  0  0
  -25.3380  -21.1641   23.0528 H   0  0  0  0  0  0
  -25.6354  -20.1632   24.4750 H   0  0  0  0  0  0
  -26.3638  -18.2678   22.9908 H   0  0  0  0  0  0
  -26.0411  -19.2346   21.5689 H   0  0  0  0  0  0
  -27.5753  -24.8567   18.9996 H   0  0  0  0  0  0
  -29.2307  -25.1732   18.8236 H   0  0  0  0  0  0
  -28.9764  -15.2766   21.4019 H   0  0  0  0  0  0
  1 25  1  0  0  0
  1 30  2  0  0  0
  1 89  1  0  0  0
  2  3  1  0  0  0
  2 25  1  0  0  0
  2 91  1  0  0  0
  2 92  1  0  0  0
  3  4  1  0  0  0
  3 93  1  0  0  0
  3 94  1  0  0  0
  4  5  1  0  0  0
  4 95  1  0  0  0
  4 96  1  0  0  0
  5  6  1  0  0  0
  5 26  1  0  0  0
  5 97  1  0  0  0
  6 25  1  0  0  0
  6 98  1  0  0  0
  6 99  1  0  0  0
  7  8  2  0  0  0
  7 26  1  0  0  0
  7 29  1  0  0  0
  8  9  1  0  0  0
  8 22  1  0  0  0
  9 10  1  0  0  0
  9 27  2  0  0  0
 10 11  2  0  0  0
 10 15  1  0  0  0
 11 12  1  0  0  0
 11100  1  0  0  0
 12 13  2  0  0  0
 12101  1  0  0  0
 13 14  1  0  0  0
 13 31  1  0  0  0
 14 15  2  0  0  0
 14102  1  0  0  0
 15103  1  0  0  0
 16 17  2  0  0  0
 16 21  1  0  0  0
 16 31  1  0  0  0
 17 18  1  0  0  0
 17104  1  0  0  0
 18 19  2  0  0  0
 18105  1  0  0  0
 19 20  1  0  0  0
 19 24  1  0  0  0
 20 21  2  0  0  0
 20106  1  0  0  0
 21 23  1  0  0  0
 22 28  1  0  0  0
 22 32  2  0  0  0
 26 27  1  0  0  0
 28107  1  0  0  0
 28108  1  0  0  0
 29109  1  0  0  0
 29110  1  0  0  0
 33 34  1  0  0  0
 33 66  1  0  0  0
 33 70  2  0  0  0
 34 36  1  0  0  0
 34 59  1  0  0  0
 34111  1  0  0  0
 35 44  2  0  0  0
 35 45  1  0  0  0
 35 68  1  0  0  0
 36 56  1  0  0  0
 36112  1  0  0  0
 37 39  1  0  0  0
 37 47  1  0  0  0
 37 66  1  0  0  0
 37113  1  0  0  0
 38 43  2  0  0  0
 38 46  1  0  0  0
 38 47  1  0  0  0
 39 64  1  0  0  0
 39 67  2  0  0  0
 40 52  1  0  0  0
 40 53  2  0  0  0
 40 58  1  0  0  0
 41114  1  0  0  0
 41115  1  0  0  0
 41116  1  0  0  0
 41 48  1  0  0  0
 42 43  1  0  0  0
 42 66  1  0  0  0
 42117  1  0  0  0
 42118  1  0  0  0
 43 44  1  0  0  0
 44119  1  0  0  0
 45 46  2  0  0  0
 45120  1  0  0  0
 46121  1  0  0  0
 47122  1  0  0  0
 47123  1  0  0  0
 48 56  1  0  0  0
 48 65  1  0  0  0
 48124  1  0  0  0
 49 50  1  0  0  0
 49 53  1  0  0  0
 49 64  1  0  0  0
 49125  1  0  0  0
 50 51  1  0  0  0
 50126  1  0  0  0
 50127  1  0  0  0
 51 52  1  0  0  0
 51128  1  0  0  0
 51129  1  0  0  0
 52130  1  0  0  0
 52131  1  0  0  0
 53 54  1  0  0  0
 54 55  2  0  0  0
 54132  1  0  0  0
 55 57  1  0  0  0
 55133  1  0  0  0
 56 69  2  0  0  0
 57 58  2  0  0  0
 57134  1  0  0  0
 58135  1  0  0  0
 59 60  1  0  0  0
 59 61  1  0  0  0
 59 62  1  0  0  0
 60136  1  0  0  0
 60137  1  0  0  0
 60138  1  0  0  0
 61139  1  0  0  0
 61140  1  0  0  0
 61141  1  0  0  0
 62142  1  0  0  0
 62143  1  0  0  0
 62144  1  0  0  0
 63 65  1  0  0  0
 63145  1  0  0  0
 63146  1  0  0  0
 63147  1  0  0  0
 64148  1  0  0  0
 65149  1  0  0  0
 68 87  1  0  0  0
 71 72  2  0  0  0
 71 75  1  0  0  0
 71150  1  0  0  0
 72 76  1  0  0  0
 72151  1  0  0  0
 73 74  1  0  0  0
 73 76  2  0  0  0
 73152  1  0  0  0
 74 75  2  0  0  0
 74 77  1  0  0  0
 75 88  1  0  0  0
 76 89  1  0  0  0
 77 86  1  0  0  0
 77 90  2  0  0  0
 78 79  1  0  0  0
 78 80  1  0  0  0
 78153  1  0  0  0
 78154  1  0  0  0
 79 88  1  0  0  0
 79155  1  0  0  0
 79156  1  0  0  0
 80 81  1  0  0  0
 80 82  1  0  0  0
 80 87  1  0  0  0
 81 83  1  0  0  0
 81 84  1  0  0  0
 81 88  1  0  0  0
 82157  1  0  0  0
 82158  1  0  0  0
 82159  1  0  0  0
 83160  1  0  0  0
 83161  1  0  0  0
 83162  1  0  0  0
 84163  1  0  0  0
 84164  1  0  0  0
 84165  1  0  0  0
 85 86  1  0  0  0
 85166  1  0  0  0
 85167  1  0  0  0
 85168  1  0  0  0
 86169  1  0  0  0
 86170  1  0  0  0
 87171  1  0  0  0
 87172  1  0  0  0
 89173  1  0  0  0
M  ISO  4   1 100  68 101  87 101  89 100
M  END
> <chiral flag>
0

> <version>
0

> <s_m_source_file>
/data/baiqing/PycharmProjects/Reinvent-master-3.2/result/LINK_invent/BTK/process_docking_weight1_custom_product_contain_oxygen_bond_distance_aromatic_linkinvent_7_9_3/rearranged_h_0147.sdf

> <i_m_source_file_index>
59

> <r_mmod_Potential_Energy-OPLS-2005>
232.805221557617

> <r_mmod_Stretch_Energy-OPLS-2005>
90.0345458984375

> <r_mmod_Bend_Energy-OPLS-2005>
209.615051269531

> <r_mmod_Torsional_Energy-OPLS-2005>
363.43017578125

> <r_mmod_Improper_Torsional_Energy-OPLS-2005>
5.62001943588257

> <r_mmod_Van_der_Waal_Energy-OPLS-2005>
137.037872314453

> <r_mmod_Electrostatic_Energy-OPLS-2005>
-404.153381347656

> <r_mmod_Solvation_Energy-OPLS-2005>
-217.434112548828

> <b_mmod_Minimization_Converged-OPLS-2005>
0

> <r_mmod_RMS_Derivative-OPLS-2005>
0.977041006088257

$$$$
59
                    3D
 Structure written by MMmdl.
165174  0  0  1  0            999 V2000
  -30.5194  -14.7816   20.5276 C   0  0  0  0  0  0
  -30.4567  -12.4891   19.4671 C   0  0  0  0  0  0
  -29.5204  -12.5486   18.2351 C   0  0  0  0  0  0
  -28.0414  -12.3633   18.6361 C   0  0  0  0  0  0
  -27.6514  -13.2222   19.8684 C   0  0  2  0  0  0
  -28.6963  -13.0761   20.9959 C   0  0  0  0  0  0
  -25.2556  -13.8140   20.5686 C   0  0  0  0  0  0
  -24.1845  -13.0415   20.9216 C   0  0  0  0  0  0
  -24.6427  -11.6895   20.8764 C   0  0  0  0  0  0
  -23.9090  -10.4297   21.0423 C   0  0  0  0  0  0
  -24.3645   -9.4207   21.9184 C   0  0  0  0  0  0
  -23.6310   -8.2245   22.0743 C   0  0  0  0  0  0
  -22.4285   -8.0292   21.3531 C   0  0  0  0  0  0
  -21.9949   -9.0279   20.4642 C   0  0  0  0  0  0
  -22.7271  -10.2156   20.3062 C   0  0  0  0  0  0
  -21.6844   -6.0765   22.5285 C   0  0  0  0  0  0
  -21.4018   -6.5660   23.8220 C   0  0  0  0  0  0
  -21.3656   -5.6806   24.9175 C   0  0  0  0  0  0
  -21.6033   -4.3075   24.7218 C   0  0  0  0  0  0
  -21.8820   -3.8166   23.4339 C   0  0  0  0  0  0
  -21.9196   -4.6990   22.3404 C   0  0  0  0  0  0
  -22.7877  -13.5217   21.1871 C   0  0  0  0  0  0
  -22.1663   -4.2171   21.0983 F   0  0  0  0  0  0
  -21.5610   -3.4561   25.7734 F   0  0  0  0  0  0
  -29.9958  -13.5021   20.4475 N   0  0  0  0  0  0
  -26.2984  -12.9327   20.3315 N   0  0  0  0  0  0
  -25.9355  -11.6479   20.5785 N   0  0  0  0  0  0
  -22.0519  -12.8218   22.0426 N   0  0  0  0  0  0
  -25.4226  -15.1857   20.4083 N   0  0  0  0  0  0
  -31.6518  -15.0177   20.0945 O   0  0  0  0  0  0
  -21.6613   -6.8910   21.4250 O   0  0  0  0  0  0
  -22.3591  -14.5530   20.6717 O   0  0  0  0  0  0
  -24.6321  -31.8518   23.1959 C   0  0  0  0  0  0
  -25.9141  -32.4737   23.8313 C   0  0  1  0  0  0
  -27.2060  -27.2333   20.1639 C   0  0  0  0  0  0
  -25.5920  -33.8545   24.2235 N   0  0  0  0  0  0
  -23.4293  -30.4718   21.5410 C   0  0  2  0  0  0
  -24.8747  -28.9081   20.1181 C   0  0  0  0  0  0
  -22.7504  -29.4579   22.4922 C   0  0  0  0  0  0
  -18.0286  -28.1385   22.8483 C   0  0  0  0  0  0
  -24.1480  -36.7277   23.2638 C   0  0  0  0  0  0
  -25.9750  -30.7581   21.3769 C   0  0  0  0  0  0
  -26.0466  -29.3758   20.7274 C   0  0  0  0  0  0
  -27.2191  -28.5518   20.7353 C   0  0  0  0  0  0
  -26.0165  -26.8314   19.5254 C   0  0  0  0  0  0
  -24.8652  -27.6453   19.5038 C   0  0  0  0  0  0
  -23.6483  -29.8011   20.1586 C   0  0  0  0  0  0
  -25.4106  -36.3058   24.0322 C   0  0  1  0  0  0
  -20.5894  -28.3691   23.1274 C   0  0  2  0  0  0
  -20.6777  -26.9407   22.5412 C   0  0  0  0  0  0
  -19.5757  -26.6384   21.5209 C   0  0  0  0  0  0
  -18.1932  -26.7921   22.1626 C   0  0  0  0  0  0
  -19.1538  -28.8857   23.2868 C   0  0  0  0  0  0
  -18.9462  -30.1456   23.8883 C   0  0  0  0  0  0
  -17.6468  -30.6594   24.0561 C   0  0  0  0  0  0
  -25.9053  -34.9428   23.5084 C   0  0  0  0  0  0
  -16.5353  -29.9086   23.6344 C   0  0  0  0  0  0
  -16.7280  -28.6501   23.0363 C   0  0  0  0  0  0
  -26.4498  -31.6577   25.0712 C   0  0  0  0  0  0
  -25.3728  -31.3747   26.1445 C   0  0  0  0  0  0
  -27.0352  -30.2992   24.6210 C   0  0  0  0  0  0
  -27.6036  -32.4331   25.7487 C   0  0  0  0  0  0
  -27.5568  -37.1794   24.8460 C   0  0  0  0  0  0
  -21.4209  -29.3026   22.3662 N   0  0  0  0  0  0
  -26.4274  -37.3762   23.9407 N   0  0  0  0  0  0
  -24.6983  -31.0470   22.0945 N   0  0  0  0  0  0
  -23.4190  -28.8128   23.3046 O   0  0  0  0  0  0
  -28.2842  -26.3224   20.1819 O   0  0  0  0  0  0
  -26.5643  -34.8911   22.4666 O   0  0  0  0  0  0
  -23.5476  -32.1343   23.7262 O   0  0  0  0  0  0
  -29.6915  -18.3883   20.6390 C   0  0  0  0  0  0
  -28.7574  -19.5308   20.9370 C   0  0  0  0  0  0
  -27.6439  -19.0117   21.5678 C   0  0  0  0  0  0
  -29.2945  -17.0944   21.0832 C   0  0  0  0  0  0
  -27.6748  -22.7927   19.3531 C   0  0  0  0  0  0
  -28.1833  -21.3236   19.2574 C   0  0  0  0  0  0
  -28.6647  -23.5379   20.2696 C   0  0  1  0  0  0
  -28.9258  -22.2747   21.2818 C   0  0  0  0  0  0
  -26.3387  -19.6477   21.9288 C   0  0  0  0  0  0
  -29.9273  -23.8824   19.4517 C   0  0  0  0  0  0
  -27.8785  -22.3360   22.4183 C   0  0  0  0  0  0
  -30.2926  -22.3795   21.9831 C   0  0  0  0  0  0
  -28.1052  -24.9756   20.8482 C   0  0  0  0  0  0
  -28.8583  -20.9602   20.5058 N   0  0  0  0  0  0
  -29.6603  -15.7227   21.0825 N   0  0  0  0  0  0
  -27.7909  -17.3117   21.9287 S   0  0  0  0  0  0
  -31.4896  -12.6650   19.1662 H   0  0  0  0  0  0
  -30.4404  -11.4925   19.9133 H   0  0  0  0  0  0
  -29.8053  -11.7909   17.5041 H   0  0  0  0  0  0
  -29.6397  -13.5114   17.7353 H   0  0  0  0  0  0
  -27.8869  -11.3074   18.8549 H   0  0  0  0  0  0
  -27.3898  -12.5935   17.7920 H   0  0  0  0  0  0
  -27.6635  -14.2609   19.5372 H   0  0  0  0  0  0
  -28.7497  -12.0399   21.3346 H   0  0  0  0  0  0
  -28.4082  -13.6495   21.8775 H   0  0  0  0  0  0
  -25.2792   -9.5664   22.4753 H   0  0  0  0  0  0
  -24.0004   -7.4647   22.7478 H   0  0  0  0  0  0
  -21.0858   -8.8812   19.8977 H   0  0  0  0  0  0
  -22.3718  -10.9705   19.6187 H   0  0  0  0  0  0
  -21.2008   -7.6171   23.9743 H   0  0  0  0  0  0
  -21.1462   -6.0524   25.9077 H   0  0  0  0  0  0
  -22.0592   -2.7630   23.2823 H   0  0  0  0  0  0
  -22.4131  -11.9861   22.4770 H   0  0  0  0  0  0
  -21.1142  -13.1255   22.2624 H   0  0  0  0  0  0
  -24.6640  -15.8392   20.5550 H   0  0  0  0  0  0
  -26.2631  -15.6306   20.0598 H   0  0  0  0  0  0
  -26.7202  -32.5376   23.1052 H   0  0  0  0  0  0
  -25.0022  -33.9671   25.0348 H   0  0  0  0  0  0
  -22.7263  -31.2936   21.3925 H   0  0  0  0  0  0
  -23.3733  -35.9621   23.3306 H   0  0  0  0  0  0
  -24.3546  -36.8898   22.2047 H   0  0  0  0  0  0
  -23.7251  -37.6485   23.6665 H   0  0  0  0  0  0
  -26.1120  -31.5114   20.6004 H   0  0  0  0  0  0
  -26.8541  -30.8123   22.0075 H   0  0  0  0  0  0
  -28.1167  -28.8997   21.2271 H   0  0  0  0  0  0
  -25.9693  -25.8574   19.0587 H   0  0  0  0  0  0
  -23.9680  -27.2781   19.0242 H   0  0  0  0  0  0
  -23.7766  -30.5756   19.4014 H   0  0  0  0  0  0
  -22.7651  -29.2373   19.8533 H   0  0  0  0  0  0
  -25.1297  -36.1888   25.0815 H   0  0  0  0  0  0
  -20.9972  -28.3259   24.1403 H   0  0  0  0  0  0
  -20.5659  -26.2298   23.3610 H   0  0  0  0  0  0
  -21.6639  -26.7407   22.1217 H   0  0  0  0  0  0
  -19.6914  -25.6290   21.1239 H   0  0  0  0  0  0
  -19.6710  -27.3190   20.6731 H   0  0  0  0  0  0
  -17.4202  -26.6659   21.4034 H   0  0  0  0  0  0
  -18.0340  -26.0066   22.9028 H   0  0  0  0  0  0
  -19.7940  -30.7262   24.2255 H   0  0  0  0  0  0
  -17.5022  -31.6271   24.5168 H   0  0  0  0  0  0
  -15.5348  -30.2984   23.7678 H   0  0  0  0  0  0
  -15.8676  -28.0811   22.7098 H   0  0  0  0  0  0
  -24.5872  -30.7127   25.7782 H   0  0  0  0  0  0
  -24.8964  -32.2938   26.4875 H   0  0  0  0  0  0
  -25.8049  -30.8912   27.0219 H   0  0  0  0  0  0
  -26.2954  -29.6738   24.1198 H   0  0  0  0  0  0
  -27.3992  -29.7250   25.4741 H   0  0  0  0  0  0
  -27.8844  -30.4264   23.9487 H   0  0  0  0  0  0
  -27.2623  -33.3634   26.2040 H   0  0  0  0  0  0
  -28.3859  -32.6893   25.0330 H   0  0  0  0  0  0
  -28.0689  -31.8476   26.5426 H   0  0  0  0  0  0
  -28.2593  -38.0084   24.7481 H   0  0  0  0  0  0
  -28.1057  -36.2611   24.6314 H   0  0  0  0  0  0
  -27.2283  -37.1469   25.8864 H   0  0  0  0  0  0
  -20.9403  -29.8712   21.6823 H   0  0  0  0  0  0
  -26.0145  -38.2831   24.1416 H   0  0  0  0  0  0
  -30.6032  -18.5606   20.0863 H   0  0  0  0  0  0
  -26.6822  -22.7885   19.8064 H   0  0  0  0  0  0
  -27.5657  -23.2598   18.3729 H   0  0  0  0  0  0
  -28.9135  -21.2433   18.4516 H   0  0  0  0  0  0
  -27.3706  -20.6366   19.0207 H   0  0  0  0  0  0
  -26.0820  -20.4523   21.2433 H   0  0  0  0  0  0
  -26.3474  -20.0315   22.9478 H   0  0  0  0  0  0
  -25.5286  -18.9194   21.8813 H   0  0  0  0  0  0
  -30.4269  -22.9937   19.0651 H   0  0  0  0  0  0
  -30.6444  -24.4435   20.0521 H   0  0  0  0  0  0
  -29.6723  -24.5091   18.5964 H   0  0  0  0  0  0
  -27.9815  -23.2439   23.0122 H   0  0  0  0  0  0
  -28.0066  -21.5173   23.1262 H   0  0  0  0  0  0
  -26.8501  -22.3395   22.0582 H   0  0  0  0  0  0
  -30.3892  -23.3350   22.5007 H   0  0  0  0  0  0
  -31.1199  -22.3056   21.2792 H   0  0  0  0  0  0
  -30.4209  -21.5934   22.7290 H   0  0  0  0  0  0
  -28.6363  -25.1251   21.7885 H   0  0  0  0  0  0
  -27.0653  -24.8539   21.1549 H   0  0  0  0  0  0
  -28.9219  -15.1874   21.5118 H   0  0  0  0  0  0
  1 25  1  0  0  0
  1 30  2  0  0  0
  1 85  1  0  0  0
  2  3  1  0  0  0
  2 25  1  0  0  0
  2 87  1  0  0  0
  2 88  1  0  0  0
  3  4  1  0  0  0
  3 89  1  0  0  0
  3 90  1  0  0  0
  4  5  1  0  0  0
  4 91  1  0  0  0
  4 92  1  0  0  0
  5  6  1  0  0  0
  5 26  1  0  0  0
  5 93  1  0  0  0
  6 25  1  0  0  0
  6 94  1  0  0  0
  6 95  1  0  0  0
  7  8  2  0  0  0
  7 26  1  0  0  0
  7 29  1  0  0  0
  8  9  1  0  0  0
  8 22  1  0  0  0
  9 10  1  0  0  0
  9 27  2  0  0  0
 10 11  2  0  0  0
 10 15  1  0  0  0
 11 12  1  0  0  0
 11 96  1  0  0  0
 12 13  2  0  0  0
 12 97  1  0  0  0
 13 14  1  0  0  0
 13 31  1  0  0  0
 14 15  2  0  0  0
 14 98  1  0  0  0
 15 99  1  0  0  0
 16 17  2  0  0  0
 16 21  1  0  0  0
 16 31  1  0  0  0
 17 18  1  0  0  0
 17100  1  0  0  0
 18 19  2  0  0  0
 18101  1  0  0  0
 19 20  1  0  0  0
 19 24  1  0  0  0
 20 21  2  0  0  0
 20102  1  0  0  0
 21 23  1  0  0  0
 22 28  1  0  0  0
 22 32  2  0  0  0
 26 27  1  0  0  0
 28103  1  0  0  0
 28104  1  0  0  0
 29105  1  0  0  0
 29106  1  0  0  0
 33 34  1  0  0  0
 33 66  1  0  0  0
 33 70  2  0  0  0
 34 36  1  0  0  0
 34 59  1  0  0  0
 34107  1  0  0  0
 35 44  2  0  0  0
 35 45  1  0  0  0
 35 68  1  0  0  0
 36 56  1  0  0  0
 36108  1  0  0  0
 37 39  1  0  0  0
 37 47  1  0  0  0
 37 66  1  0  0  0
 37109  1  0  0  0
 38 43  2  0  0  0
 38 46  1  0  0  0
 38 47  1  0  0  0
 39 64  1  0  0  0
 39 67  2  0  0  0
 40 52  1  0  0  0
 40 53  2  0  0  0
 40 58  1  0  0  0
 41110  1  0  0  0
 41111  1  0  0  0
 41112  1  0  0  0
 41 48  1  0  0  0
 42 43  1  0  0  0
 42 66  1  0  0  0
 42113  1  0  0  0
 42114  1  0  0  0
 43 44  1  0  0  0
 44115  1  0  0  0
 45 46  2  0  0  0
 45116  1  0  0  0
 46117  1  0  0  0
 47118  1  0  0  0
 47119  1  0  0  0
 48 56  1  0  0  0
 48 65  1  0  0  0
 48120  1  0  0  0
 49 50  1  0  0  0
 49 53  1  0  0  0
 49 64  1  0  0  0
 49121  1  0  0  0
 50 51  1  0  0  0
 50122  1  0  0  0
 50123  1  0  0  0
 51 52  1  0  0  0
 51124  1  0  0  0
 51125  1  0  0  0
 52126  1  0  0  0
 52127  1  0  0  0
 53 54  1  0  0  0
 54 55  2  0  0  0
 54128  1  0  0  0
 55 57  1  0  0  0
 55129  1  0  0  0
 56 69  2  0  0  0
 57 58  2  0  0  0
 57130  1  0  0  0
 58131  1  0  0  0
 59 60  1  0  0  0
 59 61  1  0  0  0
 59 62  1  0  0  0
 60132  1  0  0  0
 60133  1  0  0  0
 60134  1  0  0  0
 61135  1  0  0  0
 61136  1  0  0  0
 61137  1  0  0  0
 62138  1  0  0  0
 62139  1  0  0  0
 62140  1  0  0  0
 63 65  1  0  0  0
 63141  1  0  0  0
 63142  1  0  0  0
 63143  1  0  0  0
 64144  1  0  0  0
 65145  1  0  0  0
 68 83  1  0  0  0
 71 72  1  0  0  0
 71 74  2  0  0  0
 71146  1  0  0  0
 72 73  2  0  0  0
 72 84  1  0  0  0
 73 79  1  0  0  0
 73 86  1  0  0  0
 74 85  1  0  0  0
 74 86  1  0  0  0
 75 76  1  0  0  0
 75 77  1  0  0  0
 75147  1  0  0  0
 75148  1  0  0  0
 76 84  1  0  0  0
 76149  1  0  0  0
 76150  1  0  0  0
 77 78  1  0  0  0
 77 80  1  0  0  0
 77 83  1  0  0  0
 78 81  1  0  0  0
 78 82  1  0  0  0
 78 84  1  0  0  0
 79151  1  0  0  0
 79152  1  0  0  0
 79153  1  0  0  0
 80154  1  0  0  0
 80155  1  0  0  0
 80156  1  0  0  0
 81157  1  0  0  0
 81158  1  0  0  0
 81159  1  0  0  0
 82160  1  0  0  0
 82161  1  0  0  0
 82162  1  0  0  0
 83163  1  0  0  0
 83164  1  0  0  0
 85165  1  0  0  0
M  ISO  4   1 100  68 101  83 101  85 100
M  END
> <chiral flag>
0

> <version>
0

> <s_m_source_file>
/data/baiqing/PycharmProjects/Reinvent-master-3.2/result/LINK_invent/BTK/process_docking_weight1_custom_product_contain_oxygen_bond_distance_aromatic_linkinvent_7_9_3/rearranged_h_0147.sdf

> <i_m_source_file_index>
60

> <r_mmod_Potential_Energy-OPLS-2005>
411.779968261719

> <r_mmod_Stretch_Energy-OPLS-2005>
151.374572753906

> <r_mmod_Bend_Energy-OPLS-2005>
298.650146484375

> <r_mmod_Torsional_Energy-OPLS-2005>
364.089782714844

> <r_mmod_Improper_Torsional_Energy-OPLS-2005>
6.23636722564697

> <r_mmod_Van_der_Waal_Energy-OPLS-2005>
110.115180969238

> <r_mmod_Electrostatic_Energy-OPLS-2005>
-421.545104980469

> <r_mmod_Solvation_Energy-OPLS-2005>
-202.098052978516

> <b_mmod_Minimization_Converged-OPLS-2005>
0

> <r_mmod_RMS_Derivative-OPLS-2005>
3.45896792411804

$$$$
60
                    3D
 Structure written by MMmdl.
153162  0  0  1  0            999 V2000
  -30.7140  -14.5744   20.5463 C   0  0  0  0  0  0
  -30.4359  -12.3735   19.4413 C   0  0  0  0  0  0
  -29.5083  -12.5394   18.2198 C   0  0  0  0  0  0
  -28.0217  -12.4248   18.6146 C   0  0  0  0  0  0
  -27.6608  -13.2481   19.8787 C   0  0  2  0  0  0
  -28.7120  -13.0670   20.9956 C   0  0  0  0  0  0
  -25.2478  -13.8222   20.5730 C   0  0  0  0  0  0
  -24.1806  -13.0429   20.9198 C   0  0  0  0  0  0
  -24.6431  -11.6920   20.8697 C   0  0  0  0  0  0
  -23.9100  -10.4296   21.0359 C   0  0  0  0  0  0
  -24.3650   -9.4206   21.9138 C   0  0  0  0  0  0
  -23.6330   -8.2232   22.0717 C   0  0  0  0  0  0
  -22.4302   -8.0270   21.3530 C   0  0  0  0  0  0
  -21.9944   -9.0233   20.4635 C   0  0  0  0  0  0
  -22.7266  -10.2118   20.3036 C   0  0  0  0  0  0
  -21.6847   -6.0753   22.5277 C   0  0  0  0  0  0
  -21.4017   -6.5646   23.8212 C   0  0  0  0  0  0
  -21.3680   -5.6796   24.9178 C   0  0  0  0  0  0
  -21.6057   -4.3062   24.7225 C   0  0  0  0  0  0
  -21.8824   -3.8144   23.4335 C   0  0  0  0  0  0
  -21.9193   -4.6980   22.3401 C   0  0  0  0  0  0
  -22.7800  -13.5133   21.1882 C   0  0  0  0  0  0
  -22.1665   -4.2163   21.0978 F   0  0  0  0  0  0
  -21.5651   -3.4541   25.7739 F   0  0  0  0  0  0
  -30.0384  -13.3832   20.4433 N   0  0  0  0  0  0
  -26.3040  -12.9524   20.3429 N   0  0  0  0  0  0
  -25.9399  -11.6615   20.5750 N   0  0  0  0  0  0
  -22.0442  -12.8125   22.0459 N   0  0  0  0  0  0
  -25.4009  -15.1970   20.4141 N   0  0  0  0  0  0
  -31.8621  -14.6725   20.1059 O   0  0  0  0  0  0
  -21.6636   -6.8887   21.4233 O   0  0  0  0  0  0
  -22.3463  -14.5432   20.6730 O   0  0  0  0  0  0
  -24.6228  -31.8603   23.2094 C   0  0  0  0  0  0
  -25.9093  -32.4769   23.8406 C   0  0  1  0  0  0
  -27.2402  -27.3872   20.0875 C   0  0  0  0  0  0
  -25.5912  -33.8579   24.2320 N   0  0  0  0  0  0
  -23.4134  -30.4862   21.5512 C   0  0  2  0  0  0
  -24.8611  -28.9528   20.1135 C   0  0  0  0  0  0
  -22.7439  -29.4604   22.4974 C   0  0  0  0  0  0
  -18.0269  -28.1339   22.8495 C   0  0  0  0  0  0
  -24.1480  -36.7299   23.2636 C   0  0  0  0  0  0
  -25.9541  -30.8086   21.3762 C   0  0  0  0  0  0
  -26.0282  -29.4461   20.7102 C   0  0  0  0  0  0
  -27.2216  -28.6762   20.6848 C   0  0  0  0  0  0
  -26.0498  -26.9322   19.4718 C   0  0  0  0  0  0
  -24.8726  -27.6991   19.4843 C   0  0  0  0  0  0
  -23.6237  -29.8200   20.1654 C   0  0  0  0  0  0
  -25.4091  -36.3091   24.0340 C   0  0  1  0  0  0
  -20.5869  -28.3626   23.1285 C   0  0  2  0  0  0
  -20.6736  -26.9341   22.5404 C   0  0  0  0  0  0
  -19.5725  -26.6354   21.5185 C   0  0  0  0  0  0
  -18.1900  -26.7891   22.1598 C   0  0  0  0  0  0
  -19.1520  -28.8807   23.2896 C   0  0  0  0  0  0
  -18.9449  -30.1419   23.8904 C   0  0  0  0  0  0
  -17.6451  -30.6562   24.0540 C   0  0  0  0  0  0
  -25.9051  -34.9453   23.5127 C   0  0  0  0  0  0
  -16.5345  -29.9052   23.6335 C   0  0  0  0  0  0
  -16.7255  -28.6459   23.0379 C   0  0  0  0  0  0
  -26.4510  -31.6588   25.0765 C   0  0  0  0  0  0
  -25.3797  -31.3660   26.1519 C   0  0  0  0  0  0
  -27.0361  -30.3026   24.6213 C   0  0  0  0  0  0
  -27.6067  -32.4319   25.7528 C   0  0  0  0  0  0
  -27.5614  -37.1728   24.8409 C   0  0  0  0  0  0
  -21.4158  -29.3005   22.3705 N   0  0  0  0  0  0
  -26.4237  -37.3819   23.9489 N   0  0  0  0  0  0
  -24.6804  -31.0671   22.1013 N   0  0  0  0  0  0
  -23.4187  -28.8131   23.3022 O   0  0  0  0  0  0
  -28.3994  -26.6153   20.0836 O   0  0  0  0  0  0
  -26.5635  -34.8909   22.4704 O   0  0  0  0  0  0
  -23.5396  -32.1350   23.7476 O   0  0  0  0  0  0
  -29.6190  -19.6027   19.8739 C   0  0  0  0  0  0
  -29.9163  -18.2611   20.3101 C   0  0  0  0  0  0
  -30.7107  -18.2220   21.3896 C   0  0  0  0  0  0
  -30.1993  -20.5909   20.6656 C   0  0  0  0  0  0
  -29.3040  -22.7727   19.8869 C   0  0  0  0  0  0
  -29.5458  -16.8545   19.9022 C   0  0  0  0  0  0
  -30.9977  -16.8500   21.9083 C   0  0  0  0  0  0
  -30.0556  -15.9094   21.0617 C   0  0  1  0  0  0
  -29.5249  -24.3181   19.9351 C   0  0  0  0  0  0
  -28.2547  -25.1713   20.2542 C   0  0  0  0  0  0
  -30.1435  -21.9668   20.5866 N   0  0  0  0  0  0
  -28.3886  -22.3234   19.1925 O   0  0  0  0  0  0
  -31.1557  -19.8185   21.9413 S   0  0  0  0  0  0
  -31.4720  -12.4851   19.1209 H   0  0  0  0  0  0
  -30.3648  -11.3661   19.8544 H   0  0  0  0  0  0
  -29.7529  -11.8020   17.4508 H   0  0  0  0  0  0
  -29.6878  -13.5167   17.7725 H   0  0  0  0  0  0
  -27.7913  -11.3743   18.7748 H   0  0  0  0  0  0
  -27.4008  -12.7560   17.7804 H   0  0  0  0  0  0
  -27.6815  -14.2976   19.5813 H   0  0  0  0  0  0
  -28.7011  -12.0382   21.3546 H   0  0  0  0  0  0
  -28.4728  -13.6784   21.8634 H   0  0  0  0  0  0
  -25.2794   -9.5690   22.4683 H   0  0  0  0  0  0
  -24.0068   -7.4615   22.7415 H   0  0  0  0  0  0
  -21.0883   -8.8748   19.8916 H   0  0  0  0  0  0
  -22.3710  -10.9659   19.6153 H   0  0  0  0  0  0
  -21.1988   -7.6144   23.9754 H   0  0  0  0  0  0
  -21.1525   -6.0501   25.9103 H   0  0  0  0  0  0
  -22.0589   -2.7607   23.2820 H   0  0  0  0  0  0
  -22.4089  -11.9840   22.4958 H   0  0  0  0  0  0
  -21.1042  -13.1102   22.2620 H   0  0  0  0  0  0
  -24.6075  -15.8266   20.4831 H   0  0  0  0  0  0
  -26.2466  -15.6602   20.1133 H   0  0  0  0  0  0
  -26.7170  -32.5463   23.1166 H   0  0  0  0  0  0
  -25.0009  -33.9732   25.0429 H   0  0  0  0  0  0
  -22.7050  -31.3040   21.4100 H   0  0  0  0  0  0
  -23.3802  -35.9549   23.3092 H   0  0  0  0  0  0
  -24.3644  -36.9139   22.2097 H   0  0  0  0  0  0
  -23.7101  -37.6372   23.6801 H   0  0  0  0  0  0
  -26.0995  -31.5837   20.6235 H   0  0  0  0  0  0
  -26.8279  -30.8388   22.0170 H   0  0  0  0  0  0
  -28.1276  -29.0588   21.1335 H   0  0  0  0  0  0
  -26.0003  -25.9936   18.9407 H   0  0  0  0  0  0
  -23.9858  -27.3189   18.9963 H   0  0  0  0  0  0
  -23.7291  -30.5940   19.4048 H   0  0  0  0  0  0
  -22.7489  -29.2351   19.8737 H   0  0  0  0  0  0
  -25.1243  -36.1901   25.0816 H   0  0  0  0  0  0
  -20.9976  -28.3167   24.1409 H   0  0  0  0  0  0
  -20.5565  -26.2221   23.3583 H   0  0  0  0  0  0
  -21.6597  -26.7320   22.1231 H   0  0  0  0  0  0
  -19.6854  -25.6268   21.1196 H   0  0  0  0  0  0
  -19.6670  -27.3174   20.6718 H   0  0  0  0  0  0
  -17.4163  -26.6648   21.4012 H   0  0  0  0  0  0
  -18.0308  -26.0021   22.8986 H   0  0  0  0  0  0
  -19.7933  -30.7221   24.2268 H   0  0  0  0  0  0
  -17.5011  -31.6260   24.5092 H   0  0  0  0  0  0
  -15.5336  -30.2948   23.7661 H   0  0  0  0  0  0
  -15.8651  -28.0765   22.7120 H   0  0  0  0  0  0
  -24.5953  -30.7022   25.7855 H   0  0  0  0  0  0
  -24.9022  -32.2800   26.5080 H   0  0  0  0  0  0
  -25.8191  -30.8752   27.0223 H   0  0  0  0  0  0
  -26.2924  -29.6734   24.1306 H   0  0  0  0  0  0
  -27.4128  -29.7319   25.4721 H   0  0  0  0  0  0
  -27.8780  -30.4308   23.9394 H   0  0  0  0  0  0
  -27.2675  -33.3604   26.2140 H   0  0  0  0  0  0
  -28.3870  -32.6892   25.0353 H   0  0  0  0  0  0
  -28.0753  -31.8426   26.5426 H   0  0  0  0  0  0
  -28.2387  -38.0269   24.7862 H   0  0  0  0  0  0
  -28.1355  -36.2847   24.5718 H   0  0  0  0  0  0
  -27.2428  -37.0736   25.8805 H   0  0  0  0  0  0
  -20.9297  -29.8762   21.6977 H   0  0  0  0  0  0
  -26.0095  -38.2823   24.1743 H   0  0  0  0  0  0
  -28.9911  -19.7925   19.0150 H   0  0  0  0  0  0
  -30.0190  -16.5903   18.9556 H   0  0  0  0  0  0
  -28.4685  -16.7553   19.7697 H   0  0  0  0  0  0
  -30.7717  -16.7955   22.9739 H   0  0  0  0  0  0
  -32.0559  -16.6131   21.7887 H   0  0  0  0  0  0
  -29.2001  -15.6938   21.6961 H   0  0  0  0  0  0
  -29.8754  -24.6051   18.9459 H   0  0  0  0  0  0
  -30.3373  -24.5722   20.6177 H   0  0  0  0  0  0
  -27.9612  -24.9910   21.2888 H   0  0  0  0  0  0
  -27.4488  -24.7665   19.6507 H   0  0  0  0  0  0
  -30.8107  -22.4606   21.1637 H   0  0  0  0  0  0
  1 25  1  0  0  0
  1 30  2  0  0  0
  1 78  1  0  0  0
  2  3  1  0  0  0
  2 25  1  0  0  0
  2 84  1  0  0  0
  2 85  1  0  0  0
  3  4  1  0  0  0
  3 86  1  0  0  0
  3 87  1  0  0  0
  4  5  1  0  0  0
  4 88  1  0  0  0
  4 89  1  0  0  0
  5  6  1  0  0  0
  5 26  1  0  0  0
  5 90  1  0  0  0
  6 25  1  0  0  0
  6 91  1  0  0  0
  6 92  1  0  0  0
  7  8  2  0  0  0
  7 26  1  0  0  0
  7 29  1  0  0  0
  8  9  1  0  0  0
  8 22  1  0  0  0
  9 10  1  0  0  0
  9 27  2  0  0  0
 10 11  2  0  0  0
 10 15  1  0  0  0
 11 12  1  0  0  0
 11 93  1  0  0  0
 12 13  2  0  0  0
 12 94  1  0  0  0
 13 14  1  0  0  0
 13 31  1  0  0  0
 14 15  2  0  0  0
 14 95  1  0  0  0
 15 96  1  0  0  0
 16 17  2  0  0  0
 16 21  1  0  0  0
 16 31  1  0  0  0
 17 18  1  0  0  0
 17 97  1  0  0  0
 18 19  2  0  0  0
 18 98  1  0  0  0
 19 20  1  0  0  0
 19 24  1  0  0  0
 20 21  2  0  0  0
 20 99  1  0  0  0
 21 23  1  0  0  0
 22 28  1  0  0  0
 22 32  2  0  0  0
 26 27  1  0  0  0
 28100  1  0  0  0
 28101  1  0  0  0
 29102  1  0  0  0
 29103  1  0  0  0
 33 34  1  0  0  0
 33 66  1  0  0  0
 33 70  2  0  0  0
 34 36  1  0  0  0
 34 59  1  0  0  0
 34104  1  0  0  0
 35 44  2  0  0  0
 35 45  1  0  0  0
 35 68  1  0  0  0
 36 56  1  0  0  0
 36105  1  0  0  0
 37 39  1  0  0  0
 37 47  1  0  0  0
 37 66  1  0  0  0
 37106  1  0  0  0
 38 43  2  0  0  0
 38 46  1  0  0  0
 38 47  1  0  0  0
 39 64  1  0  0  0
 39 67  2  0  0  0
 40 52  1  0  0  0
 40 53  2  0  0  0
 40 58  1  0  0  0
 41107  1  0  0  0
 41108  1  0  0  0
 41109  1  0  0  0
 41 48  1  0  0  0
 42 43  1  0  0  0
 42 66  1  0  0  0
 42110  1  0  0  0
 42111  1  0  0  0
 43 44  1  0  0  0
 44112  1  0  0  0
 45 46  2  0  0  0
 45113  1  0  0  0
 46114  1  0  0  0
 47115  1  0  0  0
 47116  1  0  0  0
 48 56  1  0  0  0
 48 65  1  0  0  0
 48117  1  0  0  0
 49 50  1  0  0  0
 49 53  1  0  0  0
 49 64  1  0  0  0
 49118  1  0  0  0
 50 51  1  0  0  0
 50119  1  0  0  0
 50120  1  0  0  0
 51 52  1  0  0  0
 51121  1  0  0  0
 51122  1  0  0  0
 52123  1  0  0  0
 52124  1  0  0  0
 53 54  1  0  0  0
 54 55  2  0  0  0
 54125  1  0  0  0
 55 57  1  0  0  0
 55126  1  0  0  0
 56 69  2  0  0  0
 57 58  2  0  0  0
 57127  1  0  0  0
 58128  1  0  0  0
 59 60  1  0  0  0
 59 61  1  0  0  0
 59 62  1  0  0  0
 60129  1  0  0  0
 60130  1  0  0  0
 60131  1  0  0  0
 61132  1  0  0  0
 61133  1  0  0  0
 61134  1  0  0  0
 62135  1  0  0  0
 62136  1  0  0  0
 62137  1  0  0  0
 63 65  1  0  0  0
 63138  1  0  0  0
 63139  1  0  0  0
 63140  1  0  0  0
 64141  1  0  0  0
 65142  1  0  0  0
 68 80  1  0  0  0
 71 72  1  0  0  0
 71 74  2  0  0  0
 71143  1  0  0  0
 72 73  2  0  0  0
 72 76  1  0  0  0
 73 77  1  0  0  0
 73 83  1  0  0  0
 74 81  1  0  0  0
 74 83  1  0  0  0
 75 79  1  0  0  0
 75 81  1  0  0  0
 75 82  2  0  0  0
 76 78  1  0  0  0
 76144  1  0  0  0
 76145  1  0  0  0
 77 78  1  0  0  0
 77146  1  0  0  0
 77147  1  0  0  0
 78148  1  0  0  0
 79 80  1  0  0  0
 79149  1  0  0  0
 79150  1  0  0  0
 80151  1  0  0  0
 80152  1  0  0  0
 81153  1  0  0  0
M  ISO  4   1 100  68 101  78 100  80 101
M  END
> <chiral flag>
0

> <version>
0

> <s_m_source_file>
/data/baiqing/PycharmProjects/Reinvent-master-3.2/result/LINK_invent/BTK/process_docking_weight1_custom_product_contain_oxygen_bond_distance_aromatic_linkinvent_7_9_3/rearranged_h_0147.sdf

> <i_m_source_file_index>
61

> <r_mmod_Potential_Energy-OPLS-2005>
11.3425149917603

> <r_mmod_Stretch_Energy-OPLS-2005>
59.3669700622559

> <r_mmod_Bend_Energy-OPLS-2005>
184.884262084961

> <r_mmod_Torsional_Energy-OPLS-2005>
201.141265869141

> <r_mmod_Improper_Torsional_Energy-OPLS-2005>
3.38833594322205

> <r_mmod_Van_der_Waal_Energy-OPLS-2005>
124.220062255859

> <r_mmod_Electrostatic_Energy-OPLS-2005>
-370.069305419922

> <r_mmod_Solvation_Energy-OPLS-2005>
-217.815780639648

> <b_mmod_Minimization_Converged-OPLS-2005>
0

> <r_mmod_RMS_Derivative-OPLS-2005>
5.14809465408325

$$$$
61
                    3D
 Structure written by MMmdl.
159168  0  0  1  0            999 V2000
  -30.6613  -14.6439   20.4913 C   0  0  0  0  0  0
  -30.4300  -12.3996   19.4511 C   0  0  0  0  0  0
  -29.5022  -12.5076   18.2219 C   0  0  0  0  0  0
  -28.0265  -12.3488   18.6376 C   0  0  0  0  0  0
  -27.6501  -13.2268   19.8610 C   0  0  2  0  0  0
  -28.6995  -13.1123   20.9899 C   0  0  0  0  0  0
  -25.2547  -13.8202   20.5742 C   0  0  0  0  0  0
  -24.1824  -13.0450   20.9223 C   0  0  0  0  0  0
  -24.6402  -11.6923   20.8756 C   0  0  0  0  0  0
  -23.9074  -10.4292   21.0416 C   0  0  0  0  0  0
  -24.3622   -9.4206   21.9189 C   0  0  0  0  0  0
  -23.6296   -8.2243   22.0753 C   0  0  0  0  0  0
  -22.4277   -8.0284   21.3541 C   0  0  0  0  0  0
  -21.9917   -9.0263   20.4646 C   0  0  0  0  0  0
  -22.7249  -10.2140   20.3062 C   0  0  0  0  0  0
  -21.6851   -6.0740   22.5282 C   0  0  0  0  0  0
  -21.4011   -6.5644   23.8218 C   0  0  0  0  0  0
  -21.3659   -5.6796   24.9180 C   0  0  0  0  0  0
  -21.6044   -4.3060   24.7229 C   0  0  0  0  0  0
  -21.8816   -3.8149   23.4351 C   0  0  0  0  0  0
  -21.9189   -4.6965   22.3407 C   0  0  0  0  0  0
  -22.7838  -13.5233   21.1878 C   0  0  0  0  0  0
  -22.1657   -4.2153   21.0983 F   0  0  0  0  0  0
  -21.5631   -3.4541   25.7742 F   0  0  0  0  0  0
  -30.0109  -13.4398   20.4136 N   0  0  0  0  0  0
  -26.2983  -12.9404   20.3344 N   0  0  0  0  0  0
  -25.9338  -11.6545   20.5777 N   0  0  0  0  0  0
  -22.0464  -12.8215   22.0419 N   0  0  0  0  0  0
  -25.4249  -15.1930   20.4203 N   0  0  0  0  0  0
  -31.8413  -14.7324   20.1428 O   0  0  0  0  0  0
  -21.6636   -6.8884   21.4244 O   0  0  0  0  0  0
  -22.3517  -14.5542   20.6732 O   0  0  0  0  0  0
  -24.6207  -31.8623   23.2043 C   0  0  0  0  0  0
  -25.9062  -32.4802   23.8365 C   0  0  1  0  0  0
  -27.2283  -27.3408   20.1271 C   0  0  0  0  0  0
  -25.5894  -33.8598   24.2291 N   0  0  0  0  0  0
  -23.4161  -30.4834   21.5463 C   0  0  2  0  0  0
  -24.8669  -28.9394   20.1141 C   0  0  0  0  0  0
  -22.7464  -29.4608   22.4942 C   0  0  0  0  0  0
  -18.0285  -28.1367   22.8474 C   0  0  0  0  0  0
  -24.1486  -36.7300   23.2638 C   0  0  0  0  0  0
  -25.9538  -30.7995   21.3725 C   0  0  0  0  0  0
  -26.0324  -29.4273   20.7188 C   0  0  0  0  0  0
  -27.2193  -28.6389   20.7172 C   0  0  0  0  0  0
  -26.0464  -26.8991   19.4956 C   0  0  0  0  0  0
  -24.8749  -27.6794   19.4931 C   0  0  0  0  0  0
  -23.6332  -29.8181   20.1610 C   0  0  0  0  0  0
  -25.4104  -36.3094   24.0336 C   0  0  1  0  0  0
  -20.5880  -28.3657   23.1289 C   0  0  2  0  0  0
  -20.6779  -26.9379   22.5407 C   0  0  0  0  0  0
  -19.5758  -26.6368   21.5199 C   0  0  0  0  0  0
  -18.1932  -26.7907   22.1610 C   0  0  0  0  0  0
  -19.1536  -28.8828   23.2879 C   0  0  0  0  0  0
  -18.9476  -30.1436   23.8892 C   0  0  0  0  0  0
  -17.6479  -30.6578   24.0552 C   0  0  0  0  0  0
  -25.9038  -34.9466   23.5114 C   0  0  0  0  0  0
  -16.5366  -29.9090   23.6309 C   0  0  0  0  0  0
  -16.7274  -28.6500   23.0332 C   0  0  0  0  0  0
  -26.4461  -31.6606   25.0717 C   0  0  0  0  0  0
  -25.3704  -31.3751   26.1453 C   0  0  0  0  0  0
  -27.0303  -30.3046   24.6125 C   0  0  0  0  0  0
  -27.6029  -32.4336   25.7492 C   0  0  0  0  0  0
  -27.5582  -37.1802   24.8464 C   0  0  0  0  0  0
  -21.4179  -29.3033   22.3707 N   0  0  0  0  0  0
  -26.4288  -37.3784   23.9416 N   0  0  0  0  0  0
  -24.6821  -31.0640   22.0989 N   0  0  0  0  0  0
  -23.4204  -28.8124   23.2985 O   0  0  0  0  0  0
  -28.3475  -26.5047   20.1381 O   0  0  0  0  0  0
  -26.5611  -34.8924   22.4680 O   0  0  0  0  0  0
  -23.5383  -32.1428   23.7369 O   0  0  0  0  0  0
  -29.3487  -18.2224   20.6742 C   0  0  0  0  0  0
  -31.3413  -19.4031   20.5306 C   0  0  0  0  0  0
  -29.9809  -19.5357   20.5642 C   0  0  0  0  0  0
  -30.2109  -17.1165   20.6854 C   0  0  0  0  0  0
  -29.5275  -23.0722   21.6707 C   0  0  0  0  0  0
  -28.6678  -23.0048   19.3287 C   0  0  0  0  0  0
  -28.9786  -21.5987   21.6813 C   0  0  0  0  0  0
  -29.4230  -21.6299   19.2565 C   0  0  0  0  0  0
  -29.1977  -23.9859   20.4229 C   0  0  0  0  0  0
  -30.5129  -24.6381   19.9372 C   0  0  0  0  0  0
  -28.1732  -25.1748   20.7530 C   0  0  0  0  0  0
  -29.2973  -20.8099   20.4765 N   0  0  0  0  0  0
  -29.8962  -15.7579   20.7544 N   0  0  0  0  0  0
  -31.8555  -17.7333   20.6097 S   0  0  0  0  0  0
  -31.4706  -12.5110   19.1408 H   0  0  0  0  0  0
  -30.3591  -11.4114   19.9065 H   0  0  0  0  0  0
  -29.7648  -11.7510   17.4814 H   0  0  0  0  0  0
  -29.6463  -13.4740   17.7343 H   0  0  0  0  0  0
  -27.8630  -11.2973   18.8747 H   0  0  0  0  0  0
  -27.3718  -12.5772   17.7959 H   0  0  0  0  0  0
  -27.6588  -14.2583   19.5083 H   0  0  0  0  0  0
  -28.7137  -12.1039   21.4044 H   0  0  0  0  0  0
  -28.4546  -13.7760   21.8206 H   0  0  0  0  0  0
  -25.2764   -9.5686   22.4772 H   0  0  0  0  0  0
  -24.0007   -7.4629   22.7475 H   0  0  0  0  0  0
  -21.0848   -8.8787   19.8953 H   0  0  0  0  0  0
  -22.3706  -10.9687   19.6180 H   0  0  0  0  0  0
  -21.1999   -7.6150   23.9725 H   0  0  0  0  0  0
  -21.1486   -6.0524   25.9083 H   0  0  0  0  0  0
  -22.0593   -2.7614   23.2853 H   0  0  0  0  0  0
  -22.4058  -11.9867   22.4809 H   0  0  0  0  0  0
  -21.1087  -13.1251   22.2627 H   0  0  0  0  0  0
  -24.6641  -15.8507   20.5529 H   0  0  0  0  0  0
  -26.2752  -15.6356   20.0972 H   0  0  0  0  0  0
  -26.7127  -32.5501   23.1121 H   0  0  0  0  0  0
  -25.0040  -33.9763   25.0435 H   0  0  0  0  0  0
  -22.7070  -31.3024   21.4036 H   0  0  0  0  0  0
  -23.3751  -35.9637   23.3314 H   0  0  0  0  0  0
  -24.3579  -36.8916   22.2053 H   0  0  0  0  0  0
  -23.7247  -37.6503   23.6657 H   0  0  0  0  0  0
  -26.0737  -31.5602   20.5995 H   0  0  0  0  0  0
  -26.8378  -30.8578   21.9951 H   0  0  0  0  0  0
  -28.1153  -29.0073   21.1969 H   0  0  0  0  0  0
  -26.0261  -25.9358   19.0045 H   0  0  0  0  0  0
  -23.9838  -27.3021   19.0116 H   0  0  0  0  0  0
  -23.7573  -30.5986   19.4091 H   0  0  0  0  0  0
  -22.7543  -29.2500   19.8506 H   0  0  0  0  0  0
  -25.1280  -36.1954   25.0837 H   0  0  0  0  0  0
  -20.9974  -28.3224   24.1413 H   0  0  0  0  0  0
  -20.5660  -26.2264   23.3607 H   0  0  0  0  0  0
  -21.6652  -26.7414   22.1206 H   0  0  0  0  0  0
  -19.6919  -25.6280   21.1239 H   0  0  0  0  0  0
  -19.6706  -27.3175   20.6721 H   0  0  0  0  0  0
  -17.4199  -26.6644   21.4013 H   0  0  0  0  0  0
  -18.0345  -26.0042   22.9003 H   0  0  0  0  0  0
  -19.7957  -30.7231   24.2285 H   0  0  0  0  0  0
  -17.5040  -31.6264   24.5152 H   0  0  0  0  0  0
  -15.5365  -30.2997   23.7636 H   0  0  0  0  0  0
  -15.8664  -28.0834   22.7034 H   0  0  0  0  0  0
  -24.5870  -30.7097   25.7796 H   0  0  0  0  0  0
  -24.8889  -32.2926   26.4853 H   0  0  0  0  0  0
  -25.8017  -30.8953   27.0244 H   0  0  0  0  0  0
  -26.2863  -29.6823   24.1131 H   0  0  0  0  0  0
  -27.4030  -29.7254   25.4582 H   0  0  0  0  0  0
  -27.8713  -30.4376   23.9310 H   0  0  0  0  0  0
  -27.2649  -33.3650   26.2048 H   0  0  0  0  0  0
  -28.3850  -32.6894   25.0328 H   0  0  0  0  0  0
  -28.0679  -31.8476   26.5432 H   0  0  0  0  0  0
  -28.2587  -38.0105   24.7512 H   0  0  0  0  0  0
  -28.1091  -36.2636   24.6293 H   0  0  0  0  0  0
  -27.2303  -37.1460   25.8867 H   0  0  0  0  0  0
  -20.9336  -29.8813   21.6986 H   0  0  0  0  0  0
  -26.0172  -38.2863   24.1422 H   0  0  0  0  0  0
  -28.2721  -18.1390   20.7175 H   0  0  0  0  0  0
  -32.0858  -20.1846   20.4581 H   0  0  0  0  0  0
  -30.6104  -23.0021   21.7869 H   0  0  0  0  0  0
  -29.1976  -23.5587   22.5883 H   0  0  0  0  0  0
  -27.6106  -22.8028   19.5077 H   0  0  0  0  0  0
  -28.7014  -23.4930   18.3535 H   0  0  0  0  0  0
  -27.8951  -21.6163   21.8067 H   0  0  0  0  0  0
  -29.3707  -21.0814   22.5598 H   0  0  0  0  0  0
  -30.4788  -21.7930   19.0371 H   0  0  0  0  0  0
  -29.0294  -21.0531   18.4182 H   0  0  0  0  0  0
  -31.2716  -23.8950   19.6886 H   0  0  0  0  0  0
  -30.9380  -25.2966   20.6967 H   0  0  0  0  0  0
  -30.3497  -25.2400   19.0422 H   0  0  0  0  0  0
  -28.2261  -25.3802   21.8222 H   0  0  0  0  0  0
  -27.1596  -24.8019   20.6093 H   0  0  0  0  0  0
  -28.9299  -15.5453   20.9464 H   0  0  0  0  0  0
  1 25  1  0  0  0
  1 30  2  0  0  0
  1 83  1  0  0  0
  2  3  1  0  0  0
  2 25  1  0  0  0
  2 85  1  0  0  0
  2 86  1  0  0  0
  3  4  1  0  0  0
  3 87  1  0  0  0
  3 88  1  0  0  0
  4  5  1  0  0  0
  4 89  1  0  0  0
  4 90  1  0  0  0
  5  6  1  0  0  0
  5 26  1  0  0  0
  5 91  1  0  0  0
  6 25  1  0  0  0
  6 92  1  0  0  0
  6 93  1  0  0  0
  7  8  2  0  0  0
  7 26  1  0  0  0
  7 29  1  0  0  0
  8  9  1  0  0  0
  8 22  1  0  0  0
  9 10  1  0  0  0
  9 27  2  0  0  0
 10 11  2  0  0  0
 10 15  1  0  0  0
 11 12  1  0  0  0
 11 94  1  0  0  0
 12 13  2  0  0  0
 12 95  1  0  0  0
 13 14  1  0  0  0
 13 31  1  0  0  0
 14 15  2  0  0  0
 14 96  1  0  0  0
 15 97  1  0  0  0
 16 17  2  0  0  0
 16 21  1  0  0  0
 16 31  1  0  0  0
 17 18  1  0  0  0
 17 98  1  0  0  0
 18 19  2  0  0  0
 18 99  1  0  0  0
 19 20  1  0  0  0
 19 24  1  0  0  0
 20 21  2  0  0  0
 20100  1  0  0  0
 21 23  1  0  0  0
 22 28  1  0  0  0
 22 32  2  0  0  0
 26 27  1  0  0  0
 28101  1  0  0  0
 28102  1  0  0  0
 29103  1  0  0  0
 29104  1  0  0  0
 33 34  1  0  0  0
 33 66  1  0  0  0
 33 70  2  0  0  0
 34 36  1  0  0  0
 34 59  1  0  0  0
 34105  1  0  0  0
 35 44  2  0  0  0
 35 45  1  0  0  0
 35 68  1  0  0  0
 36 56  1  0  0  0
 36106  1  0  0  0
 37 39  1  0  0  0
 37 47  1  0  0  0
 37 66  1  0  0  0
 37107  1  0  0  0
 38 43  2  0  0  0
 38 46  1  0  0  0
 38 47  1  0  0  0
 39 64  1  0  0  0
 39 67  2  0  0  0
 40 52  1  0  0  0
 40 53  2  0  0  0
 40 58  1  0  0  0
 41108  1  0  0  0
 41109  1  0  0  0
 41110  1  0  0  0
 41 48  1  0  0  0
 42 43  1  0  0  0
 42 66  1  0  0  0
 42111  1  0  0  0
 42112  1  0  0  0
 43 44  1  0  0  0
 44113  1  0  0  0
 45 46  2  0  0  0
 45114  1  0  0  0
 46115  1  0  0  0
 47116  1  0  0  0
 47117  1  0  0  0
 48 56  1  0  0  0
 48 65  1  0  0  0
 48118  1  0  0  0
 49 50  1  0  0  0
 49 53  1  0  0  0
 49 64  1  0  0  0
 49119  1  0  0  0
 50 51  1  0  0  0
 50120  1  0  0  0
 50121  1  0  0  0
 51 52  1  0  0  0
 51122  1  0  0  0
 51123  1  0  0  0
 52124  1  0  0  0
 52125  1  0  0  0
 53 54  1  0  0  0
 54 55  2  0  0  0
 54126  1  0  0  0
 55 57  1  0  0  0
 55127  1  0  0  0
 56 69  2  0  0  0
 57 58  2  0  0  0
 57128  1  0  0  0
 58129  1  0  0  0
 59 60  1  0  0  0
 59 61  1  0  0  0
 59 62  1  0  0  0
 60130  1  0  0  0
 60131  1  0  0  0
 60132  1  0  0  0
 61133  1  0  0  0
 61134  1  0  0  0
 61135  1  0  0  0
 62136  1  0  0  0
 62137  1  0  0  0
 62138  1  0  0  0
 63 65  1  0  0  0
 63139  1  0  0  0
 63140  1  0  0  0
 63141  1  0  0  0
 64142  1  0  0  0
 65143  1  0  0  0
 68 81  1  0  0  0
 71 73  1  0  0  0
 71 74  2  0  0  0
 71144  1  0  0  0
 72 73  2  0  0  0
 72 84  1  0  0  0
 72145  1  0  0  0
 73 82  1  0  0  0
 74 83  1  0  0  0
 74 84  1  0  0  0
 75 77  1  0  0  0
 75 79  1  0  0  0
 75146  1  0  0  0
 75147  1  0  0  0
 76 78  1  0  0  0
 76 79  1  0  0  0
 76148  1  0  0  0
 76149  1  0  0  0
 77 82  1  0  0  0
 77150  1  0  0  0
 77151  1  0  0  0
 78 82  1  0  0  0
 78152  1  0  0  0
 78153  1  0  0  0
 79 80  1  0  0  0
 79 81  1  0  0  0
 80154  1  0  0  0
 80155  1  0  0  0
 80156  1  0  0  0
 81157  1  0  0  0
 81158  1  0  0  0
 83159  1  0  0  0
M  ISO  4   1 100  68 101  81 101  83 100
M  END
> <chiral flag>
0

> <version>
0

> <s_m_source_file>
/data/baiqing/PycharmProjects/Reinvent-master-3.2/result/LINK_invent/BTK/process_docking_weight1_custom_product_contain_oxygen_bond_distance_aromatic_linkinvent_7_9_3/rearranged_h_0147.sdf

> <i_m_source_file_index>
62

> <r_mmod_Potential_Energy-OPLS-2005>
110.060073852539

> <r_mmod_Stretch_Energy-OPLS-2005>
76.0609893798828

> <r_mmod_Bend_Energy-OPLS-2005>
135.870208740234

> <r_mmod_Torsional_Energy-OPLS-2005>
321.877899169922

> <r_mmod_Improper_Torsional_Energy-OPLS-2005>
6.50603008270264

> <r_mmod_Van_der_Waal_Energy-OPLS-2005>
136.442245483398

> <r_mmod_Electrostatic_Energy-OPLS-2005>
-390.735565185547

> <r_mmod_Solvation_Energy-OPLS-2005>
-221.310089111328

> <b_mmod_Minimization_Converged-OPLS-2005>
0

> <r_mmod_RMS_Derivative-OPLS-2005>
1.99398815631866

$$$$
62
                    3D
 Structure written by MMmdl.
166175  0  0  1  0            999 V2000
  -30.7181  -14.5120   20.5514 C   0  0  0  0  0  0
  -30.4108  -12.3295   19.4289 C   0  0  0  0  0  0
  -29.4978  -12.4979   18.2017 C   0  0  0  0  0  0
  -28.0186  -12.3643   18.6154 C   0  0  0  0  0  0
  -27.6543  -13.2173   19.8640 C   0  0  2  0  0  0
  -28.6996  -13.0356   20.9878 C   0  0  0  0  0  0
  -25.2524  -13.8162   20.5633 C   0  0  0  0  0  0
  -24.1831  -13.0427   20.9182 C   0  0  0  0  0  0
  -24.6393  -11.6871   20.8683 C   0  0  0  0  0  0
  -23.9083  -10.4247   21.0320 C   0  0  0  0  0  0
  -24.3626   -9.4165   21.9106 C   0  0  0  0  0  0
  -23.6296   -8.2215   22.0731 C   0  0  0  0  0  0
  -22.4260   -8.0247   21.3562 C   0  0  0  0  0  0
  -21.9900   -9.0184   20.4632 C   0  0  0  0  0  0
  -22.7237  -10.2064   20.2989 C   0  0  0  0  0  0
  -21.6840   -6.0703   22.5276 C   0  0  0  0  0  0
  -21.3998   -6.5596   23.8211 C   0  0  0  0  0  0
  -21.3688   -5.6761   24.9178 C   0  0  0  0  0  0
  -21.6091   -4.3020   24.7238 C   0  0  0  0  0  0
  -21.8822   -3.8120   23.4339 C   0  0  0  0  0  0
  -21.9191   -4.6936   22.3404 C   0  0  0  0  0  0
  -22.7839  -13.5179   21.1886 C   0  0  0  0  0  0
  -22.1645   -4.2109   21.0978 F   0  0  0  0  0  0
  -21.5672   -3.4509   25.7753 F   0  0  0  0  0  0
  -30.0270  -13.3410   20.4278 N   0  0  0  0  0  0
  -26.2974  -12.9374   20.3279 N   0  0  0  0  0  0
  -25.9323  -11.6514   20.5730 N   0  0  0  0  0  0
  -22.0521  -12.8161   22.0442 N   0  0  0  0  0  0
  -25.4235  -15.1900   20.4047 N   0  0  0  0  0  0
  -31.8606  -14.6447   20.1072 O   0  0  0  0  0  0
  -21.6654   -6.8814   21.4231 O   0  0  0  0  0  0
  -22.3546  -14.5509   20.6742 O   0  0  0  0  0  0
  -24.6155  -31.8663   23.2144 C   0  0  0  0  0  0
  -25.9047  -32.4825   23.8458 C   0  0  1  0  0  0
  -27.2598  -27.4030   20.1300 C   0  0  0  0  0  0
  -25.5968  -33.8660   24.2369 N   0  0  0  0  0  0
  -23.4094  -30.4784   21.5553 C   0  0  2  0  0  0
  -24.8672  -28.9576   20.1060 C   0  0  0  0  0  0
  -22.7455  -29.4573   22.5055 C   0  0  0  0  0  0
  -18.0263  -28.1354   22.8433 C   0  0  0  0  0  0
  -24.1441  -36.7278   23.2616 C   0  0  0  0  0  0
  -25.9356  -30.8192   21.3772 C   0  0  0  0  0  0
  -26.0216  -29.4545   20.7212 C   0  0  0  0  0  0
  -27.2186  -28.6895   20.7289 C   0  0  0  0  0  0
  -26.0938  -26.9756   19.4349 C   0  0  0  0  0  0
  -24.9026  -27.7245   19.4421 C   0  0  0  0  0  0
  -23.6222  -29.8152   20.1650 C   0  0  0  0  0  0
  -25.4111  -36.3143   24.0276 C   0  0  1  0  0  0
  -20.5838  -28.3636   23.1328 C   0  0  2  0  0  0
  -20.6814  -26.9392   22.5415 C   0  0  0  0  0  0
  -19.5833  -26.6365   21.5187 C   0  0  0  0  0  0
  -18.1972  -26.7926   22.1525 C   0  0  0  0  0  0
  -19.1505  -28.8835   23.2843 C   0  0  0  0  0  0
  -18.9423  -30.1444   23.8833 C   0  0  0  0  0  0
  -17.6429  -30.6560   24.0551 C   0  0  0  0  0  0
  -25.9040  -34.9483   23.5108 C   0  0  0  0  0  0
  -16.5318  -29.9032   23.6346 C   0  0  0  0  0  0
  -16.7255  -28.6454   23.0350 C   0  0  0  0  0  0
  -26.4503  -31.6651   25.0801 C   0  0  0  0  0  0
  -25.3761  -31.3721   26.1510 C   0  0  0  0  0  0
  -27.0315  -30.3084   24.6220 C   0  0  0  0  0  0
  -27.6099  -32.4393   25.7558 C   0  0  0  0  0  0
  -27.5552  -37.1804   24.8474 C   0  0  0  0  0  0
  -21.4173  -29.2993   22.3802 N   0  0  0  0  0  0
  -26.4289  -37.3830   23.9384 N   0  0  0  0  0  0
  -24.6686  -31.0685   22.1078 N   0  0  0  0  0  0
  -23.4216  -28.8154   23.3149 O   0  0  0  0  0  0
  -28.4049  -26.5991   20.2532 O   0  0  0  0  0  0
  -26.5509  -34.8928   22.4609 O   0  0  0  0  0  0
  -23.5328  -32.1447   23.7490 O   0  0  0  0  0  0
  -29.6986  -19.1930   20.0331 C   0  0  0  0  0  0
  -31.9353  -18.8905   20.9159 C   0  0  0  0  0  0
  -29.4088  -17.8287   20.2868 C   0  0  0  0  0  0
  -31.6478  -17.5192   21.1618 C   0  0  0  0  0  0
  -30.9597  -19.7500   20.3517 C   0  0  0  0  0  0
  -30.3800  -16.9612   20.8362 C   0  0  0  0  0  0
  -31.2241  -21.1850   20.0436 C   0  0  0  0  0  0
  -29.9264  -23.2197   22.9409 C   0  0  0  0  0  0
  -28.8321  -24.0306   22.1933 C   0  0  0  0  0  0
  -30.3238  -21.9232   22.2118 C   0  0  0  0  0  0
  -30.4192  -23.5834   20.2844 C   0  0  0  0  0  0
  -28.9313  -23.9396   20.6401 C   0  0  1  0  0  0
  -28.0401  -22.7634   20.1160 C   0  0  0  0  0  0
  -28.2523  -25.1866   19.9321 C   0  0  0  0  0  0
  -30.7701  -22.2099   20.8220 N   0  0  0  0  0  0
  -30.0412  -15.5735   21.0436 N   0  0  0  0  0  0
  -31.8734  -21.4903   18.9233 N   0  3  0  0  0  0
  -31.4528  -12.4132   19.1258 H   0  0  0  0  0  0
  -30.3053  -11.3280   19.8436 H   0  0  0  0  0  0
  -29.7394  -11.7469   17.4475 H   0  0  0  0  0  0
  -29.6772  -13.4682   17.7368 H   0  0  0  0  0  0
  -27.8353  -11.3095   18.8249 H   0  0  0  0  0  0
  -27.3685  -12.6190   17.7776 H   0  0  0  0  0  0
  -27.6847  -14.2621   19.5564 H   0  0  0  0  0  0
  -28.6834  -12.0060   21.3515 H   0  0  0  0  0  0
  -28.4610  -13.6603   21.8506 H   0  0  0  0  0  0
  -25.2740   -9.5679   22.4702 H   0  0  0  0  0  0
  -24.0013   -7.4620   22.7441 H   0  0  0  0  0  0
  -21.0832   -8.8666   19.8929 H   0  0  0  0  0  0
  -22.3633  -10.9584   19.6113 H   0  0  0  0  0  0
  -21.1950   -7.6083   23.9702 H   0  0  0  0  0  0
  -21.1545   -6.0479   25.9093 H   0  0  0  0  0  0
  -22.0597   -2.7574   23.2855 H   0  0  0  0  0  0
  -22.4155  -11.9787   22.4751 H   0  0  0  0  0  0
  -21.1135  -13.1178   22.2679 H   0  0  0  0  0  0
  -24.6506  -15.8361   20.5256 H   0  0  0  0  0  0
  -26.2690  -15.6340   20.0732 H   0  0  0  0  0  0
  -26.7117  -32.5492   23.1231 H   0  0  0  0  0  0
  -25.0596  -33.9940   25.0830 H   0  0  0  0  0  0
  -22.6973  -31.2932   21.4184 H   0  0  0  0  0  0
  -23.3761  -35.9552   23.3334 H   0  0  0  0  0  0
  -24.3592  -36.8846   22.2034 H   0  0  0  0  0  0
  -23.7084  -37.6434   23.6632 H   0  0  0  0  0  0
  -26.0630  -31.5932   20.6185 H   0  0  0  0  0  0
  -26.8147  -30.8634   22.0037 H   0  0  0  0  0  0
  -28.0978  -29.0867   21.2176 H   0  0  0  0  0  0
  -26.0695  -26.0589   18.8643 H   0  0  0  0  0  0
  -24.0316  -27.3661   18.9063 H   0  0  0  0  0  0
  -23.7106  -30.5907   19.4024 H   0  0  0  0  0  0
  -22.7572  -29.2126   19.8779 H   0  0  0  0  0  0
  -25.1311  -36.2035   25.0759 H   0  0  0  0  0  0
  -20.9806  -28.3139   24.1496 H   0  0  0  0  0  0
  -20.5759  -26.2238   23.3578 H   0  0  0  0  0  0
  -21.6722  -26.7530   22.1232 H   0  0  0  0  0  0
  -19.7048  -25.6264   21.1263 H   0  0  0  0  0  0
  -19.6830  -27.3137   20.6688 H   0  0  0  0  0  0
  -17.4329  -26.6658   21.3836 H   0  0  0  0  0  0
  -18.0323  -26.0040   22.8866 H   0  0  0  0  0  0
  -19.7908  -30.7280   24.2179 H   0  0  0  0  0  0
  -17.4971  -31.6252   24.5144 H   0  0  0  0  0  0
  -15.5316  -30.2904   23.7727 H   0  0  0  0  0  0
  -15.8654  -28.0745   22.7110 H   0  0  0  0  0  0
  -24.6171  -30.6772   25.7872 H   0  0  0  0  0  0
  -24.8682  -32.2803   26.4746 H   0  0  0  0  0  0
  -25.8152  -30.9156   27.0393 H   0  0  0  0  0  0
  -26.2791  -29.6831   24.1367 H   0  0  0  0  0  0
  -27.4127  -29.7366   25.4697 H   0  0  0  0  0  0
  -27.8675  -30.4399   23.9352 H   0  0  0  0  0  0
  -27.2814  -33.3815   26.1967 H   0  0  0  0  0  0
  -28.4001  -32.6717   25.0408 H   0  0  0  0  0  0
  -28.0654  -31.8611   26.5600 H   0  0  0  0  0  0
  -28.2633  -38.0056   24.7601 H   0  0  0  0  0  0
  -28.0977  -36.2602   24.6278 H   0  0  0  0  0  0
  -27.2283  -37.1451   25.8882 H   0  0  0  0  0  0
  -20.9390  -29.8667   21.6934 H   0  0  0  0  0  0
  -26.0156  -38.2859   24.1542 H   0  0  0  0  0  0
  -28.9401  -19.8079   19.5708 H   0  0  0  0  0  0
  -32.9093  -19.2905   21.1658 H   0  0  0  0  0  0
  -28.4318  -17.4436   20.0314 H   0  0  0  0  0  0
  -32.4093  -16.8867   21.6007 H   0  0  0  0  0  0
  -29.6219  -23.0064   23.9676 H   0  0  0  0  0  0
  -30.8232  -23.8340   23.0370 H   0  0  0  0  0  0
  -28.9303  -25.0749   22.4920 H   0  0  0  0  0  0
  -27.8396  -23.7325   22.5420 H   0  0  0  0  0  0
  -29.4972  -21.2096   22.2198 H   0  0  0  0  0  0
  -31.1545  -21.4632   22.7507 H   0  0  0  0  0  0
  -31.0943  -24.3163   20.7287 H   0  0  0  0  0  0
  -30.5682  -23.6518   19.2063 H   0  0  0  0  0  0
  -28.5772  -21.8597   19.8756 H   0  0  0  0  0  0
  -27.5593  -23.0055   19.1670 H   0  0  0  0  0  0
  -27.2547  -22.4924   20.8228 H   0  0  0  0  0  0
  -27.2085  -24.9561   20.1409 H   0  0  0  0  0  0
  -28.3964  -25.1012   18.8549 H   0  0  0  0  0  0
  -29.0902  -15.3689   21.3158 H   0  0  0  0  0  0
  -32.0510  -20.7690   18.2402 H   0  0  0  0  0  0
  -32.3335  -22.3826   18.8193 H   0  0  0  0  0  0
  1 25  1  0  0  0
  1 30  2  0  0  0
  1 86  1  0  0  0
  2  3  1  0  0  0
  2 25  1  0  0  0
  2 88  1  0  0  0
  2 89  1  0  0  0
  3  4  1  0  0  0
  3 90  1  0  0  0
  3 91  1  0  0  0
  4  5  1  0  0  0
  4 92  1  0  0  0
  4 93  1  0  0  0
  5  6  1  0  0  0
  5 26  1  0  0  0
  5 94  1  0  0  0
  6 25  1  0  0  0
  6 95  1  0  0  0
  6 96  1  0  0  0
  7  8  2  0  0  0
  7 26  1  0  0  0
  7 29  1  0  0  0
  8  9  1  0  0  0
  8 22  1  0  0  0
  9 10  1  0  0  0
  9 27  2  0  0  0
 10 11  2  0  0  0
 10 15  1  0  0  0
 11 12  1  0  0  0
 11 97  1  0  0  0
 12 13  2  0  0  0
 12 98  1  0  0  0
 13 14  1  0  0  0
 13 31  1  0  0  0
 14 15  2  0  0  0
 14 99  1  0  0  0
 15100  1  0  0  0
 16 17  2  0  0  0
 16 21  1  0  0  0
 16 31  1  0  0  0
 17 18  1  0  0  0
 17101  1  0  0  0
 18 19  2  0  0  0
 18102  1  0  0  0
 19 20  1  0  0  0
 19 24  1  0  0  0
 20 21  2  0  0  0
 20103  1  0  0  0
 21 23  1  0  0  0
 22 28  1  0  0  0
 22 32  2  0  0  0
 26 27  1  0  0  0
 28104  1  0  0  0
 28105  1  0  0  0
 29106  1  0  0  0
 29107  1  0  0  0
 33 34  1  0  0  0
 33 66  1  0  0  0
 33 70  2  0  0  0
 34 36  1  0  0  0
 34 59  1  0  0  0
 34108  1  0  0  0
 35 44  2  0  0  0
 35 45  1  0  0  0
 35 68  1  0  0  0
 36 56  1  0  0  0
 36109  1  0  0  0
 37 39  1  0  0  0
 37 47  1  0  0  0
 37 66  1  0  0  0
 37110  1  0  0  0
 38 43  2  0  0  0
 38 46  1  0  0  0
 38 47  1  0  0  0
 39 64  1  0  0  0
 39 67  2  0  0  0
 40 52  1  0  0  0
 40 53  2  0  0  0
 40 58  1  0  0  0
 41111  1  0  0  0
 41112  1  0  0  0
 41113  1  0  0  0
 41 48  1  0  0  0
 42 43  1  0  0  0
 42 66  1  0  0  0
 42114  1  0  0  0
 42115  1  0  0  0
 43 44  1  0  0  0
 44116  1  0  0  0
 45 46  2  0  0  0
 45117  1  0  0  0
 46118  1  0  0  0
 47119  1  0  0  0
 47120  1  0  0  0
 48 56  1  0  0  0
 48 65  1  0  0  0
 48121  1  0  0  0
 49 50  1  0  0  0
 49 53  1  0  0  0
 49 64  1  0  0  0
 49122  1  0  0  0
 50 51  1  0  0  0
 50123  1  0  0  0
 50124  1  0  0  0
 51 52  1  0  0  0
 51125  1  0  0  0
 51126  1  0  0  0
 52127  1  0  0  0
 52128  1  0  0  0
 53 54  1  0  0  0
 54 55  2  0  0  0
 54129  1  0  0  0
 55 57  1  0  0  0
 55130  1  0  0  0
 56 69  2  0  0  0
 57 58  2  0  0  0
 57131  1  0  0  0
 58132  1  0  0  0
 59 60  1  0  0  0
 59 61  1  0  0  0
 59 62  1  0  0  0
 60133  1  0  0  0
 60134  1  0  0  0
 60135  1  0  0  0
 61136  1  0  0  0
 61137  1  0  0  0
 61138  1  0  0  0
 62139  1  0  0  0
 62140  1  0  0  0
 62141  1  0  0  0
 63 65  1  0  0  0
 63142  1  0  0  0
 63143  1  0  0  0
 63144  1  0  0  0
 64145  1  0  0  0
 65146  1  0  0  0
 68 84  1  0  0  0
 71 73  2  0  0  0
 71 75  1  0  0  0
 71147  1  0  0  0
 72 74  1  0  0  0
 72 75  2  0  0  0
 72148  1  0  0  0
 73 76  1  0  0  0
 73149  1  0  0  0
 74 76  2  0  0  0
 74150  1  0  0  0
 75 77  1  0  0  0
 76 86  1  0  0  0
 77 85  1  0  0  0
 77 87  2  0  0  0
 78 79  1  0  0  0
 78 80  1  0  0  0
 78151  1  0  0  0
 78152  1  0  0  0
 79 82  1  0  0  0
 79153  1  0  0  0
 79154  1  0  0  0
 80 85  1  0  0  0
 80155  1  0  0  0
 80156  1  0  0  0
 81 82  1  0  0  0
 81 85  1  0  0  0
 81157  1  0  0  0
 81158  1  0  0  0
 82 83  1  0  0  0
 82 84  1  0  0  0
 83159  1  0  0  0
 83160  1  0  0  0
 83161  1  0  0  0
 84162  1  0  0  0
 84163  1  0  0  0
 86164  1  0  0  0
 87165  1  0  0  0
 87166  1  0  0  0
M  CHG  1  87   1
M  ISO  4   1 100  68 101  84 101  86 100
M  END
> <chiral flag>
0

> <version>
0

> <s_m_source_file>
/data/baiqing/PycharmProjects/Reinvent-master-3.2/result/LINK_invent/BTK/process_docking_weight1_custom_product_contain_oxygen_bond_distance_aromatic_linkinvent_7_9_3/rearranged_h_0147.sdf

> <i_m_source_file_index>
63

> <r_mmod_Potential_Energy-OPLS-2005>
0.180227667093277

> <r_mmod_Stretch_Energy-OPLS-2005>
62.4673538208008

> <r_mmod_Bend_Energy-OPLS-2005>
149.641616821289

> <r_mmod_Torsional_Energy-OPLS-2005>
338.925262451172

> <r_mmod_Improper_Torsional_Energy-OPLS-2005>
5.330002784729

> <r_mmod_Van_der_Waal_Energy-OPLS-2005>
193.519714355469

> <r_mmod_Electrostatic_Energy-OPLS-2005>
-382.062622070312

> <r_mmod_Solvation_Energy-OPLS-2005>
-393.592834472656

> <b_mmod_Minimization_Converged-OPLS-2005>
0

> <r_mmod_RMS_Derivative-OPLS-2005>
7.2965350151062

$$$$
63
                    3D
 Structure written by MMmdl.
164173  0  0  1  0            999 V2000
  -30.6229  -14.6349   20.5295 C   0  0  0  0  0  0
  -30.4449  -12.3920   19.4602 C   0  0  0  0  0  0
  -29.5156  -12.5093   18.2302 C   0  0  0  0  0  0
  -28.0356  -12.3517   18.6361 C   0  0  0  0  0  0
  -27.6581  -13.2160   19.8692 C   0  0  2  0  0  0
  -28.7002  -13.0585   21.0006 C   0  0  0  0  0  0
  -25.2571  -13.8162   20.5691 C   0  0  0  0  0  0
  -24.1835  -13.0430   20.9206 C   0  0  0  0  0  0
  -24.6396  -11.6893   20.8726 C   0  0  0  0  0  0
  -23.9064  -10.4283   21.0389 C   0  0  0  0  0  0
  -24.3600   -9.4197   21.9170 C   0  0  0  0  0  0
  -23.6281   -8.2234   22.0739 C   0  0  0  0  0  0
  -22.4266   -8.0264   21.3530 C   0  0  0  0  0  0
  -21.9910   -9.0245   20.4639 C   0  0  0  0  0  0
  -22.7232  -10.2127   20.3041 C   0  0  0  0  0  0
  -21.6855   -6.0728   22.5284 C   0  0  0  0  0  0
  -21.4012   -6.5618   23.8220 C   0  0  0  0  0  0
  -21.3662   -5.6768   24.9180 C   0  0  0  0  0  0
  -21.6038   -4.3032   24.7220 C   0  0  0  0  0  0
  -21.8815   -3.8130   23.4341 C   0  0  0  0  0  0
  -21.9198   -4.6958   22.3402 C   0  0  0  0  0  0
  -22.7863  -13.5231   21.1860 C   0  0  0  0  0  0
  -22.1660   -4.2146   21.0979 F   0  0  0  0  0  0
  -21.5638   -3.4505   25.7731 F   0  0  0  0  0  0
  -30.0188  -13.4065   20.4457 N   0  0  0  0  0  0
  -26.3014  -12.9350   20.3336 N   0  0  0  0  0  0
  -25.9326  -11.6500   20.5746 N   0  0  0  0  0  0
  -22.0472  -12.8228   22.0400 N   0  0  0  0  0  0
  -25.4260  -15.1881   20.4080 N   0  0  0  0  0  0
  -31.7663  -14.8197   20.1041 O   0  0  0  0  0  0
  -21.6622   -6.8865   21.4245 O   0  0  0  0  0  0
  -22.3552  -14.5538   20.6708 O   0  0  0  0  0  0
  -24.6277  -31.8614   23.2020 C   0  0  0  0  0  0
  -25.9137  -32.4772   23.8339 C   0  0  1  0  0  0
  -27.2146  -27.3141   20.1271 C   0  0  0  0  0  0
  -25.5962  -33.8563   24.2296 N   0  0  0  0  0  0
  -23.4186  -30.4887   21.5443 C   0  0  2  0  0  0
  -24.8650  -28.9476   20.1092 C   0  0  0  0  0  0
  -22.7471  -29.4647   22.4915 C   0  0  0  0  0  0
  -18.0279  -28.1382   22.8474 C   0  0  0  0  0  0
  -24.1495  -36.7288   23.2624 C   0  0  0  0  0  0
  -25.9612  -30.7955   21.3688 C   0  0  0  0  0  0
  -26.0351  -29.4215   20.7152 C   0  0  0  0  0  0
  -27.2150  -28.6174   20.7130 C   0  0  0  0  0  0
  -26.0214  -26.9034   19.4836 C   0  0  0  0  0  0
  -24.8606  -27.6945   19.4818 C   0  0  0  0  0  0
  -23.6330  -29.8266   20.1594 C   0  0  0  0  0  0
  -25.4110  -36.3071   24.0330 C   0  0  1  0  0  0
  -20.5877  -28.3691   23.1268 C   0  0  2  0  0  0
  -20.6770  -26.9417   22.5388 C   0  0  0  0  0  0
  -19.5759  -26.6386   21.5178 C   0  0  0  0  0  0
  -18.1932  -26.7926   22.1594 C   0  0  0  0  0  0
  -19.1528  -28.8845   23.2868 C   0  0  0  0  0  0
  -18.9460  -30.1444   23.8891 C   0  0  0  0  0  0
  -17.6464  -30.6583   24.0540 C   0  0  0  0  0  0
  -25.9056  -34.9444   23.5110 C   0  0  0  0  0  0
  -16.5353  -29.9083   23.6314 C   0  0  0  0  0  0
  -16.7263  -28.6493   23.0339 C   0  0  0  0  0  0
  -26.4518  -31.6544   25.0686 C   0  0  0  0  0  0
  -25.3772  -31.3668   26.1427 C   0  0  0  0  0  0
  -27.0316  -30.2955   24.6105 C   0  0  0  0  0  0
  -27.6097  -32.4236   25.7473 C   0  0  0  0  0  0
  -27.5588  -37.1796   24.8459 C   0  0  0  0  0  0
  -21.4184  -29.3053   22.3666 N   0  0  0  0  0  0
  -26.4277  -37.3778   23.9424 N   0  0  0  0  0  0
  -24.6883  -31.0654   22.0958 N   0  0  0  0  0  0
  -23.4207  -28.8184   23.2982 O   0  0  0  0  0  0
  -28.3139  -26.4383   20.1989 O   0  0  0  0  0  0
  -26.5597  -34.8918   22.4659 O   0  0  0  0  0  0
  -23.5440  -32.1386   23.7379 O   0  0  0  0  0  0
  -30.9425  -17.8482   20.2216 C   0  0  0  0  0  0
  -30.8555  -19.2676   20.1227 C   0  0  0  0  0  0
  -28.8440  -17.9190   21.3472 C   0  0  0  0  0  0
  -29.9037  -17.1169   20.8469 C   0  0  0  0  0  0
  -29.7431  -19.9895   20.6366 C   0  0  0  0  0  0
  -29.9147  -23.5406   19.3294 C   0  0  0  0  0  0
  -30.4298  -22.0915   19.4756 C   0  0  0  0  0  0
  -29.0962  -23.8599   20.5954 C   0  0  1  0  0  0
  -28.5580  -22.3735   20.9292 C   0  0  0  0  0  0
  -30.0537  -24.3810   21.6931 C   0  0  0  0  0  0
  -27.2843  -22.0574   20.1056 C   0  0  0  0  0  0
  -28.1988  -22.2159   22.4278 C   0  0  0  0  0  0
  -27.9908  -24.9921   20.3317 C   0  0  0  0  0  0
  -28.7635  -19.2810   21.2500 N   0  0  0  0  0  0
  -29.6464  -21.4313   20.5193 N   0  0  0  0  0  0
  -29.8333  -15.6577   20.9825 N   0  0  0  0  0  0
  -31.4866  -12.5250   19.1590 H   0  0  0  0  0  0
  -30.3829  -11.3936   19.8962 H   0  0  0  0  0  0
  -29.7832  -11.7595   17.4841 H   0  0  0  0  0  0
  -29.6634  -13.4803   17.7537 H   0  0  0  0  0  0
  -27.8624  -11.2983   18.8549 H   0  0  0  0  0  0
  -27.3903  -12.5982   17.7926 H   0  0  0  0  0  0
  -27.6830  -14.2547   19.5392 H   0  0  0  0  0  0
  -28.7127  -12.0334   21.3725 H   0  0  0  0  0  0
  -28.4393  -13.6781   21.8605 H   0  0  0  0  0  0
  -25.2737   -9.5667   22.4761 H   0  0  0  0  0  0
  -23.9977   -7.4611   22.7438 H   0  0  0  0  0  0
  -21.0853   -8.8765   19.8936 H   0  0  0  0  0  0
  -22.3682  -10.9664   19.6145 H   0  0  0  0  0  0
  -21.1993   -7.6122   23.9727 H   0  0  0  0  0  0
  -21.1494   -6.0486   25.9089 H   0  0  0  0  0  0
  -22.0597   -2.7601   23.2827 H   0  0  0  0  0  0
  -22.4045  -11.9865   22.4767 H   0  0  0  0  0  0
  -21.1093  -13.1279   22.2598 H   0  0  0  0  0  0
  -24.6477  -15.8318   20.5048 H   0  0  0  0  0  0
  -26.2577  -15.6273   20.0359 H   0  0  0  0  0  0
  -26.7210  -32.5455   23.1089 H   0  0  0  0  0  0
  -25.0171  -33.9696   25.0481 H   0  0  0  0  0  0
  -22.7114  -31.3094   21.4029 H   0  0  0  0  0  0
  -23.3753  -35.9626   23.3275 H   0  0  0  0  0  0
  -24.3595  -36.8901   22.2042 H   0  0  0  0  0  0
  -23.7260  -37.6495   23.6635 H   0  0  0  0  0  0
  -26.0801  -31.5545   20.5945 H   0  0  0  0  0  0
  -26.8475  -30.8542   21.9885 H   0  0  0  0  0  0
  -28.1088  -28.9749   21.2045 H   0  0  0  0  0  0
  -25.9428  -25.9559   18.9762 H   0  0  0  0  0  0
  -23.9666  -27.3292   18.9952 H   0  0  0  0  0  0
  -23.7504  -30.6018   19.4015 H   0  0  0  0  0  0
  -22.7538  -29.2547   19.8577 H   0  0  0  0  0  0
  -25.1278  -36.1912   25.0818 H   0  0  0  0  0  0
  -20.9963  -28.3269   24.1390 H   0  0  0  0  0  0
  -20.5632  -26.2316   23.3586 H   0  0  0  0  0  0
  -21.6653  -26.7435   22.1223 H   0  0  0  0  0  0
  -19.6943  -25.6293   21.1216 H   0  0  0  0  0  0
  -19.6720  -27.3181   20.6697 H   0  0  0  0  0  0
  -17.4210  -26.6639   21.3987 H   0  0  0  0  0  0
  -18.0371  -26.0067   22.9000 H   0  0  0  0  0  0
  -19.7934  -30.7235   24.2292 H   0  0  0  0  0  0
  -17.5024  -31.6264   24.5140 H   0  0  0  0  0  0
  -15.5355  -30.2979   23.7656 H   0  0  0  0  0  0
  -15.8658  -28.0809   22.7067 H   0  0  0  0  0  0
  -24.6011  -30.6929   25.7792 H   0  0  0  0  0  0
  -24.8886  -32.2811   26.4800 H   0  0  0  0  0  0
  -25.8132  -30.8927   27.0233 H   0  0  0  0  0  0
  -26.2850  -29.6740   24.1149 H   0  0  0  0  0  0
  -27.4028  -29.7172   25.4580 H   0  0  0  0  0  0
  -27.8732  -30.4212   23.9288 H   0  0  0  0  0  0
  -27.2745  -33.3561   26.2032 H   0  0  0  0  0  0
  -28.3946  -32.6733   25.0318 H   0  0  0  0  0  0
  -28.0733  -31.8351   26.5406 H   0  0  0  0  0  0
  -28.2561  -38.0134   24.7521 H   0  0  0  0  0  0
  -28.1107  -36.2648   24.6224 H   0  0  0  0  0  0
  -27.2311  -37.1406   25.8863 H   0  0  0  0  0  0
  -20.9359  -29.8794   21.6894 H   0  0  0  0  0  0
  -26.0145  -38.2845   24.1421 H   0  0  0  0  0  0
  -31.8034  -17.3451   19.8067 H   0  0  0  0  0  0
  -31.6728  -19.7865   19.6440 H   0  0  0  0  0  0
  -28.0070  -17.4485   21.8439 H   0  0  0  0  0  0
  -29.2744  -23.5945   18.4485 H   0  0  0  0  0  0
  -30.7276  -24.2475   19.1570 H   0  0  0  0  0  0
  -31.4806  -22.0945   19.7684 H   0  0  0  0  0  0
  -30.3507  -21.5609   18.5246 H   0  0  0  0  0  0
  -30.8218  -23.6498   21.9463 H   0  0  0  0  0  0
  -29.5181  -24.6284   22.6096 H   0  0  0  0  0  0
  -30.5656  -25.2896   21.3732 H   0  0  0  0  0  0
  -26.4542  -22.7113   20.3735 H   0  0  0  0  0  0
  -26.9336  -21.0410   20.2836 H   0  0  0  0  0  0
  -27.4478  -22.1537   19.0324 H   0  0  0  0  0  0
  -27.4929  -22.9819   22.7503 H   0  0  0  0  0  0
  -29.0736  -22.2810   23.0750 H   0  0  0  0  0  0
  -27.7254  -21.2571   22.6395 H   0  0  0  0  0  0
  -27.2570  -24.9156   21.1364 H   0  0  0  0  0  0
  -27.4790  -24.6786   19.4249 H   0  0  0  0  0  0
  -28.9673  -15.3200   21.3779 H   0  0  0  0  0  0
  1 25  1  0  0  0
  1 30  2  0  0  0
  1 86  1  0  0  0
  2  3  1  0  0  0
  2 25  1  0  0  0
  2 87  1  0  0  0
  2 88  1  0  0  0
  3  4  1  0  0  0
  3 89  1  0  0  0
  3 90  1  0  0  0
  4  5  1  0  0  0
  4 91  1  0  0  0
  4 92  1  0  0  0
  5  6  1  0  0  0
  5 26  1  0  0  0
  5 93  1  0  0  0
  6 25  1  0  0  0
  6 94  1  0  0  0
  6 95  1  0  0  0
  7  8  2  0  0  0
  7 26  1  0  0  0
  7 29  1  0  0  0
  8  9  1  0  0  0
  8 22  1  0  0  0
  9 10  1  0  0  0
  9 27  2  0  0  0
 10 11  2  0  0  0
 10 15  1  0  0  0
 11 12  1  0  0  0
 11 96  1  0  0  0
 12 13  2  0  0  0
 12 97  1  0  0  0
 13 14  1  0  0  0
 13 31  1  0  0  0
 14 15  2  0  0  0
 14 98  1  0  0  0
 15 99  1  0  0  0
 16 17  2  0  0  0
 16 21  1  0  0  0
 16 31  1  0  0  0
 17 18  1  0  0  0
 17100  1  0  0  0
 18 19  2  0  0  0
 18101  1  0  0  0
 19 20  1  0  0  0
 19 24  1  0  0  0
 20 21  2  0  0  0
 20102  1  0  0  0
 21 23  1  0  0  0
 22 28  1  0  0  0
 22 32  2  0  0  0
 26 27  1  0  0  0
 28103  1  0  0  0
 28104  1  0  0  0
 29105  1  0  0  0
 29106  1  0  0  0
 33 34  1  0  0  0
 33 66  1  0  0  0
 33 70  2  0  0  0
 34 36  1  0  0  0
 34 59  1  0  0  0
 34107  1  0  0  0
 35 44  2  0  0  0
 35 45  1  0  0  0
 35 68  1  0  0  0
 36 56  1  0  0  0
 36108  1  0  0  0
 37 39  1  0  0  0
 37 47  1  0  0  0
 37 66  1  0  0  0
 37109  1  0  0  0
 38 43  2  0  0  0
 38 46  1  0  0  0
 38 47  1  0  0  0
 39 64  1  0  0  0
 39 67  2  0  0  0
 40 52  1  0  0  0
 40 53  2  0  0  0
 40 58  1  0  0  0
 41110  1  0  0  0
 41111  1  0  0  0
 41112  1  0  0  0
 41 48  1  0  0  0
 42 43  1  0  0  0
 42 66  1  0  0  0
 42113  1  0  0  0
 42114  1  0  0  0
 43 44  1  0  0  0
 44115  1  0  0  0
 45 46  2  0  0  0
 45116  1  0  0  0
 46117  1  0  0  0
 47118  1  0  0  0
 47119  1  0  0  0
 48 56  1  0  0  0
 48 65  1  0  0  0
 48120  1  0  0  0
 49 50  1  0  0  0
 49 53  1  0  0  0
 49 64  1  0  0  0
 49121  1  0  0  0
 50 51  1  0  0  0
 50122  1  0  0  0
 50123  1  0  0  0
 51 52  1  0  0  0
 51124  1  0  0  0
 51125  1  0  0  0
 52126  1  0  0  0
 52127  1  0  0  0
 53 54  1  0  0  0
 54 55  2  0  0  0
 54128  1  0  0  0
 55 57  1  0  0  0
 55129  1  0  0  0
 56 69  2  0  0  0
 57 58  2  0  0  0
 57130  1  0  0  0
 58131  1  0  0  0
 59 60  1  0  0  0
 59 61  1  0  0  0
 59 62  1  0  0  0
 60132  1  0  0  0
 60133  1  0  0  0
 60134  1  0  0  0
 61135  1  0  0  0
 61136  1  0  0  0
 61137  1  0  0  0
 62138  1  0  0  0
 62139  1  0  0  0
 62140  1  0  0  0
 63 65  1  0  0  0
 63141  1  0  0  0
 63142  1  0  0  0
 63143  1  0  0  0
 64144  1  0  0  0
 65145  1  0  0  0
 68 83  1  0  0  0
 71 72  2  0  0  0
 71 74  1  0  0  0
 71146  1  0  0  0
 72 75  1  0  0  0
 72147  1  0  0  0
 73 74  2  0  0  0
 73 84  1  0  0  0
 73148  1  0  0  0
 74 86  1  0  0  0
 75 84  2  0  0  0
 75 85  1  0  0  0
 76 77  1  0  0  0
 76 78  1  0  0  0
 76149  1  0  0  0
 76150  1  0  0  0
 77 85  1  0  0  0
 77151  1  0  0  0
 77152  1  0  0  0
 78 79  1  0  0  0
 78 80  1  0  0  0
 78 83  1  0  0  0
 79 81  1  0  0  0
 79 82  1  0  0  0
 79 85  1  0  0  0
 80153  1  0  0  0
 80154  1  0  0  0
 80155  1  0  0  0
 81156  1  0  0  0
 81157  1  0  0  0
 81158  1  0  0  0
 82159  1  0  0  0
 82160  1  0  0  0
 82161  1  0  0  0
 83162  1  0  0  0
 83163  1  0  0  0
 86164  1  0  0  0
M  ISO  4   1 100  68 101  83 101  86 100
M  END
> <chiral flag>
0

> <version>
0

> <s_m_source_file>
/data/baiqing/PycharmProjects/Reinvent-master-3.2/result/LINK_invent/BTK/process_docking_weight1_custom_product_contain_oxygen_bond_distance_aromatic_linkinvent_7_9_3/rearranged_h_0147.sdf

> <i_m_source_file_index>
64

> <r_mmod_Potential_Energy-OPLS-2005>
-23.843433380127

> <r_mmod_Stretch_Energy-OPLS-2005>
87.9457855224609

> <r_mmod_Bend_Energy-OPLS-2005>
191.049285888672

> <r_mmod_Torsional_Energy-OPLS-2005>
298.040618896484

> <r_mmod_Improper_Torsional_Energy-OPLS-2005>
5.08319473266602

> <r_mmod_Van_der_Waal_Energy-OPLS-2005>
157.111618041992

> <r_mmod_Electrostatic_Energy-OPLS-2005>
-598.631652832031

> <r_mmod_Solvation_Energy-OPLS-2005>
-215.186157226562

> <b_mmod_Minimization_Converged-OPLS-2005>
0

> <r_mmod_RMS_Derivative-OPLS-2005>
2.38474535942078

$$$$
64
                    3D
 Structure written by MMmdl.
159168  0  0  1  0            999 V2000
  -30.6964  -14.5994   20.4967 C   0  0  0  0  0  0
  -30.4123  -12.3732   19.4485 C   0  0  0  0  0  0
  -29.4938  -12.4969   18.2161 C   0  0  0  0  0  0
  -28.0176  -12.3450   18.6309 C   0  0  0  0  0  0
  -27.6448  -13.2219   19.8572 C   0  0  2  0  0  0
  -28.6935  -13.0954   20.9856 C   0  0  0  0  0  0
  -25.2504  -13.8180   20.5671 C   0  0  0  0  0  0
  -24.1800  -13.0434   20.9215 C   0  0  0  0  0  0
  -24.6386  -11.6912   20.8764 C   0  0  0  0  0  0
  -23.9067  -10.4291   21.0415 C   0  0  0  0  0  0
  -24.3619   -9.4205   21.9190 C   0  0  0  0  0  0
  -23.6298   -8.2237   22.0754 C   0  0  0  0  0  0
  -22.4279   -8.0276   21.3543 C   0  0  0  0  0  0
  -21.9916   -9.0250   20.4644 C   0  0  0  0  0  0
  -22.7242  -10.2133   20.3059 C   0  0  0  0  0  0
  -21.6850   -6.0738   22.5279 C   0  0  0  0  0  0
  -21.4008   -6.5643   23.8213 C   0  0  0  0  0  0
  -21.3658   -5.6796   24.9174 C   0  0  0  0  0  0
  -21.6043   -4.3057   24.7223 C   0  0  0  0  0  0
  -21.8821   -3.8149   23.4345 C   0  0  0  0  0  0
  -21.9194   -4.6967   22.3399 C   0  0  0  0  0  0
  -22.7821  -13.5220   21.1867 C   0  0  0  0  0  0
  -22.1663   -4.2154   21.0977 F   0  0  0  0  0  0
  -21.5631   -3.4540   25.7736 F   0  0  0  0  0  0
  -29.9980  -13.4245   20.4003 N   0  0  0  0  0  0
  -26.2945  -12.9381   20.3314 N   0  0  0  0  0  0
  -25.9314  -11.6530   20.5779 N   0  0  0  0  0  0
  -22.0464  -12.8211   22.0421 N   0  0  0  0  0  0
  -25.4146  -15.1896   20.4017 N   0  0  0  0  0  0
  -31.8920  -14.6211   20.1869 O   0  0  0  0  0  0
  -21.6639   -6.8876   21.4240 O   0  0  0  0  0  0
  -22.3505  -14.5525   20.6712 O   0  0  0  0  0  0
  -24.6212  -31.8627   23.2047 C   0  0  0  0  0  0
  -25.9075  -32.4795   23.8362 C   0  0  1  0  0  0
  -27.2224  -27.3647   20.1197 C   0  0  0  0  0  0
  -25.5907  -33.8596   24.2294 N   0  0  0  0  0  0
  -23.4117  -30.4857   21.5470 C   0  0  2  0  0  0
  -24.8563  -28.9409   20.1157 C   0  0  0  0  0  0
  -22.7442  -29.4635   22.4968 C   0  0  0  0  0  0
  -18.0275  -28.1382   22.8490 C   0  0  0  0  0  0
  -24.1484  -36.7300   23.2639 C   0  0  0  0  0  0
  -25.9462  -30.8105   21.3641 C   0  0  0  0  0  0
  -26.0221  -29.4392   20.7115 C   0  0  0  0  0  0
  -27.2117  -28.6634   20.6988 C   0  0  0  0  0  0
  -26.0373  -26.8963   19.5156 C   0  0  0  0  0  0
  -24.8627  -27.6731   19.5096 C   0  0  0  0  0  0
  -23.6226  -29.8165   20.1627 C   0  0  0  0  0  0
  -25.4109  -36.3095   24.0334 C   0  0  1  0  0  0
  -20.5871  -28.3673   23.1307 C   0  0  2  0  0  0
  -20.6768  -26.9405   22.5417 C   0  0  0  0  0  0
  -19.5747  -26.6386   21.5213 C   0  0  0  0  0  0
  -18.1924  -26.7927   22.1620 C   0  0  0  0  0  0
  -19.1527  -28.8845   23.2895 C   0  0  0  0  0  0
  -18.9453  -30.1450   23.8909 C   0  0  0  0  0  0
  -17.6454  -30.6586   24.0568 C   0  0  0  0  0  0
  -25.9042  -34.9463   23.5115 C   0  0  0  0  0  0
  -16.5345  -29.9087   23.6328 C   0  0  0  0  0  0
  -16.7263  -28.6505   23.0348 C   0  0  0  0  0  0
  -26.4479  -31.6595   25.0715 C   0  0  0  0  0  0
  -25.3727  -31.3707   26.1451 C   0  0  0  0  0  0
  -27.0315  -30.3034   24.6119 C   0  0  0  0  0  0
  -27.6052  -32.4315   25.7484 C   0  0  0  0  0  0
  -27.5576  -37.1804   24.8463 C   0  0  0  0  0  0
  -21.4163  -29.3035   22.3710 N   0  0  0  0  0  0
  -26.4287  -37.3788   23.9412 N   0  0  0  0  0  0
  -24.6786  -31.0683   22.0967 N   0  0  0  0  0  0
  -23.4191  -28.8178   23.3029 O   0  0  0  0  0  0
  -28.3682  -26.5793   20.1124 O   0  0  0  0  0  0
  -26.5612  -34.8927   22.4681 O   0  0  0  0  0  0
  -23.5389  -32.1396   23.7413 O   0  0  0  0  0  0
  -29.7733  -19.5934   19.8735 C   0  0  0  0  0  0
  -29.8072  -18.1801   20.1622 C   0  0  0  0  0  0
  -28.9121  -17.7892   21.0760 C   0  0  0  0  0  0
  -28.7916  -20.2693   20.5867 C   0  0  0  0  0  0
  -30.5806  -16.9734   19.7160 C   0  0  0  0  0  0
  -28.9581  -16.3172   21.3667 C   0  0  0  0  0  0
  -30.0380  -24.6715   18.8551 C   0  0  0  0  0  0
  -27.7533  -23.7273   18.5312 C   0  0  0  0  0  0
  -29.3551  -22.7325   20.2753 C   0  0  0  0  0  0
  -28.2772  -25.1880   20.5711 C   0  0  0  0  0  0
  -28.8203  -24.0694   19.5883 C   0  0  0  0  0  0
  -30.0062  -15.7918   20.4447 N   0  0  0  0  0  0
  -28.3996  -21.6377   20.5628 N   0  0  0  0  0  0
  -27.9234  -19.1234   21.6309 S   0  0  0  0  0  0
  -31.4575  -12.4573   19.1462 H   0  0  0  0  0  0
  -30.3169  -11.3860   19.9032 H   0  0  0  0  0  0
  -29.7539  -11.7429   17.4719 H   0  0  0  0  0  0
  -29.6444  -13.4657   17.7369 H   0  0  0  0  0  0
  -27.8508  -11.2930   18.8655 H   0  0  0  0  0  0
  -27.3632  -12.5742   17.7893 H   0  0  0  0  0  0
  -27.6560  -14.2524   19.5029 H   0  0  0  0  0  0
  -28.7056  -12.0801   21.3840 H   0  0  0  0  0  0
  -28.4550  -13.7380   21.8319 H   0  0  0  0  0  0
  -25.2758   -9.5688   22.4775 H   0  0  0  0  0  0
  -24.0008   -7.4628   22.7472 H   0  0  0  0  0  0
  -21.0851   -8.8767   19.8947 H   0  0  0  0  0  0
  -22.3696  -10.9677   19.6173 H   0  0  0  0  0  0
  -21.1992   -7.6151   23.9716 H   0  0  0  0  0  0
  -21.1478   -6.0524   25.9078 H   0  0  0  0  0  0
  -22.0601   -2.7614   23.2837 H   0  0  0  0  0  0
  -22.4080  -11.9870   22.4800 H   0  0  0  0  0  0
  -21.1077  -13.1229   22.2620 H   0  0  0  0  0  0
  -24.6394  -15.8358   20.5015 H   0  0  0  0  0  0
  -26.2504  -15.6289   20.0383 H   0  0  0  0  0  0
  -26.7146  -32.5485   23.1120 H   0  0  0  0  0  0
  -25.0057  -33.9748   25.0438 H   0  0  0  0  0  0
  -22.7032  -31.3047   21.4052 H   0  0  0  0  0  0
  -23.3750  -35.9628   23.3302 H   0  0  0  0  0  0
  -24.3578  -36.8917   22.2054 H   0  0  0  0  0  0
  -23.7230  -37.6501   23.6658 H   0  0  0  0  0  0
  -26.0647  -31.5735   20.5937 H   0  0  0  0  0  0
  -26.8322  -30.8645   21.9854 H   0  0  0  0  0  0
  -28.1139  -29.0454   21.1561 H   0  0  0  0  0  0
  -26.0128  -25.9235   19.0482 H   0  0  0  0  0  0
  -23.9675  -27.2850   19.0434 H   0  0  0  0  0  0
  -23.7375  -30.5906   19.4030 H   0  0  0  0  0  0
  -22.7441  -29.2412   19.8653 H   0  0  0  0  0  0
  -25.1288  -36.1950   25.0826 H   0  0  0  0  0  0
  -20.9963  -28.3238   24.1428 H   0  0  0  0  0  0
  -20.5667  -26.2280   23.3607 H   0  0  0  0  0  0
  -21.6637  -26.7442   22.1211 H   0  0  0  0  0  0
  -19.6910  -25.6300   21.1235 H   0  0  0  0  0  0
  -19.6693  -27.3205   20.6753 H   0  0  0  0  0  0
  -17.4199  -26.6681   21.4018 H   0  0  0  0  0  0
  -18.0320  -26.0064   22.9010 H   0  0  0  0  0  0
  -19.7930  -30.7260   24.2284 H   0  0  0  0  0  0
  -17.5011  -31.6269   24.5166 H   0  0  0  0  0  0
  -15.5346  -30.2995   23.7650 H   0  0  0  0  0  0
  -15.8662  -28.0831   22.7055 H   0  0  0  0  0  0
  -24.5921  -30.7034   25.7778 H   0  0  0  0  0  0
  -24.8892  -32.2858   26.4880 H   0  0  0  0  0  0
  -25.8066  -30.8891   27.0221 H   0  0  0  0  0  0
  -26.2867  -29.6795   24.1163 H   0  0  0  0  0  0
  -27.4064  -29.7277   25.4590 H   0  0  0  0  0  0
  -27.8711  -30.4350   23.9291 H   0  0  0  0  0  0
  -27.2680  -33.3618   26.2068 H   0  0  0  0  0  0
  -28.3862  -32.6865   25.0307 H   0  0  0  0  0  0
  -28.0719  -31.8429   26.5391 H   0  0  0  0  0  0
  -28.2595  -38.0101   24.7516 H   0  0  0  0  0  0
  -28.1069  -36.2633   24.6276 H   0  0  0  0  0  0
  -27.2297  -37.1439   25.8867 H   0  0  0  0  0  0
  -20.9330  -29.8755   21.6928 H   0  0  0  0  0  0
  -26.0169  -38.2861   24.1423 H   0  0  0  0  0  0
  -30.4416  -20.0427   19.1530 H   0  0  0  0  0  0
  -31.6403  -17.1054   19.9414 H   0  0  0  0  0  0
  -30.4896  -16.8220   18.6397 H   0  0  0  0  0  0
  -27.9885  -15.8661   21.1718 H   0  0  0  0  0  0
  -29.2269  -16.1296   22.4072 H   0  0  0  0  0  0
  -30.4657  -23.9698   18.1381 H   0  0  0  0  0  0
  -30.8262  -24.9470   19.5565 H   0  0  0  0  0  0
  -29.7728  -25.5675   18.2930 H   0  0  0  0  0  0
  -28.1015  -22.9453   17.8558 H   0  0  0  0  0  0
  -27.5014  -24.5953   17.9219 H   0  0  0  0  0  0
  -26.8325  -23.3728   18.9955 H   0  0  0  0  0  0
  -29.8737  -22.9874   21.2012 H   0  0  0  0  0  0
  -30.1260  -22.3053   19.6328 H   0  0  0  0  0  0
  -28.8792  -25.1538   21.4796 H   0  0  0  0  0  0
  -27.2693  -24.9361   20.9048 H   0  0  0  0  0  0
  -27.6120  -21.8982   21.1516 H   0  0  0  0  0  0
  1 25  1  0  0  0
  1 30  2  0  0  0
  1 82  1  0  0  0
  2  3  1  0  0  0
  2 25  1  0  0  0
  2 85  1  0  0  0
  2 86  1  0  0  0
  3  4  1  0  0  0
  3 87  1  0  0  0
  3 88  1  0  0  0
  4  5  1  0  0  0
  4 89  1  0  0  0
  4 90  1  0  0  0
  5  6  1  0  0  0
  5 26  1  0  0  0
  5 91  1  0  0  0
  6 25  1  0  0  0
  6 92  1  0  0  0
  6 93  1  0  0  0
  7  8  2  0  0  0
  7 26  1  0  0  0
  7 29  1  0  0  0
  8  9  1  0  0  0
  8 22  1  0  0  0
  9 10  1  0  0  0
  9 27  2  0  0  0
 10 11  2  0  0  0
 10 15  1  0  0  0
 11 12  1  0  0  0
 11 94  1  0  0  0
 12 13  2  0  0  0
 12 95  1  0  0  0
 13 14  1  0  0  0
 13 31  1  0  0  0
 14 15  2  0  0  0
 14 96  1  0  0  0
 15 97  1  0  0  0
 16 17  2  0  0  0
 16 21  1  0  0  0
 16 31  1  0  0  0
 17 18  1  0  0  0
 17 98  1  0  0  0
 18 19  2  0  0  0
 18 99  1  0  0  0
 19 20  1  0  0  0
 19 24  1  0  0  0
 20 21  2  0  0  0
 20100  1  0  0  0
 21 23  1  0  0  0
 22 28  1  0  0  0
 22 32  2  0  0  0
 26 27  1  0  0  0
 28101  1  0  0  0
 28102  1  0  0  0
 29103  1  0  0  0
 29104  1  0  0  0
 33 34  1  0  0  0
 33 66  1  0  0  0
 33 70  2  0  0  0
 34 36  1  0  0  0
 34 59  1  0  0  0
 34105  1  0  0  0
 35 44  2  0  0  0
 35 45  1  0  0  0
 35 68  1  0  0  0
 36 56  1  0  0  0
 36106  1  0  0  0
 37 39  1  0  0  0
 37 47  1  0  0  0
 37 66  1  0  0  0
 37107  1  0  0  0
 38 43  2  0  0  0
 38 46  1  0  0  0
 38 47  1  0  0  0
 39 64  1  0  0  0
 39 67  2  0  0  0
 40 52  1  0  0  0
 40 53  2  0  0  0
 40 58  1  0  0  0
 41108  1  0  0  0
 41109  1  0  0  0
 41110  1  0  0  0
 41 48  1  0  0  0
 42 43  1  0  0  0
 42 66  1  0  0  0
 42111  1  0  0  0
 42112  1  0  0  0
 43 44  1  0  0  0
 44113  1  0  0  0
 45 46  2  0  0  0
 45114  1  0  0  0
 46115  1  0  0  0
 47116  1  0  0  0
 47117  1  0  0  0
 48 56  1  0  0  0
 48 65  1  0  0  0
 48118  1  0  0  0
 49 50  1  0  0  0
 49 53  1  0  0  0
 49 64  1  0  0  0
 49119  1  0  0  0
 50 51  1  0  0  0
 50120  1  0  0  0
 50121  1  0  0  0
 51 52  1  0  0  0
 51122  1  0  0  0
 51123  1  0  0  0
 52124  1  0  0  0
 52125  1  0  0  0
 53 54  1  0  0  0
 54 55  2  0  0  0
 54126  1  0  0  0
 55 57  1  0  0  0
 55127  1  0  0  0
 56 69  2  0  0  0
 57 58  2  0  0  0
 57128  1  0  0  0
 58129  1  0  0  0
 59 60  1  0  0  0
 59 61  1  0  0  0
 59 62  1  0  0  0
 60130  1  0  0  0
 60131  1  0  0  0
 60132  1  0  0  0
 61133  1  0  0  0
 61134  1  0  0  0
 61135  1  0  0  0
 62136  1  0  0  0
 62137  1  0  0  0
 62138  1  0  0  0
 63 65  1  0  0  0
 63139  1  0  0  0
 63140  1  0  0  0
 63141  1  0  0  0
 64142  1  0  0  0
 65143  1  0  0  0
 68 80  1  0  0  0
 71 72  1  0  0  0
 71 74  2  0  0  0
 71144  1  0  0  0
 72 73  2  0  0  0
 72 75  1  0  0  0
 73 76  1  0  0  0
 73 84  1  0  0  0
 74 83  1  0  0  0
 74 84  1  0  0  0
 75 82  1  0  0  0
 75145  1  0  0  0
 75146  1  0  0  0
 76 82  1  0  0  0
 76147  1  0  0  0
 76148  1  0  0  0
 77149  1  0  0  0
 77150  1  0  0  0
 77151  1  0  0  0
 77 81  1  0  0  0
 78 81  1  0  0  0
 78152  1  0  0  0
 78153  1  0  0  0
 78154  1  0  0  0
 79 81  1  0  0  0
 79 83  1  0  0  0
 79155  1  0  0  0
 79156  1  0  0  0
 80 81  1  0  0  0
 80157  1  0  0  0
 80158  1  0  0  0
 83159  1  0  0  0
M  ISO  4   1 100  68 101  80 101  82 100
M  END
> <chiral flag>
0

> <version>
0

> <s_m_source_file>
/data/baiqing/PycharmProjects/Reinvent-master-3.2/result/LINK_invent/BTK/process_docking_weight1_custom_product_contain_oxygen_bond_distance_aromatic_linkinvent_7_9_3/rearranged_h_0147.sdf

> <i_m_source_file_index>
65

> <r_mmod_Potential_Energy-OPLS-2005>
200.646408081055

> <r_mmod_Stretch_Energy-OPLS-2005>
66.3344345092773

> <r_mmod_Bend_Energy-OPLS-2005>
209.121826171875

> <r_mmod_Torsional_Energy-OPLS-2005>
290.815490722656

> <r_mmod_Improper_Torsional_Energy-OPLS-2005>
18.8345966339111

> <r_mmod_Van_der_Waal_Energy-OPLS-2005>
119.968200683594

> <r_mmod_Electrostatic_Energy-OPLS-2005>
-339.712036132812

> <r_mmod_Solvation_Energy-OPLS-2005>
-201.412017822266

> <b_mmod_Minimization_Converged-OPLS-2005>
0

> <r_mmod_RMS_Derivative-OPLS-2005>
0.701120913028717

$$$$
65
                    3D
 Structure written by MMmdl.
162171  0  0  1  0            999 V2000
  -30.5868  -14.7126   20.4673 C   0  0  0  0  0  0
  -30.4412  -12.4326   19.4605 C   0  0  0  0  0  0
  -29.5134  -12.5054   18.2268 C   0  0  0  0  0  0
  -28.0393  -12.3286   18.6398 C   0  0  0  0  0  0
  -27.6469  -13.2183   19.8502 C   0  0  2  0  0  0
  -28.6913  -13.1155   20.9833 C   0  0  0  0  0  0
  -25.2559  -13.8174   20.5660 C   0  0  0  0  0  0
  -24.1826  -13.0447   20.9178 C   0  0  0  0  0  0
  -24.6380  -11.6901   20.8724 C   0  0  0  0  0  0
  -23.9045  -10.4277   21.0397 C   0  0  0  0  0  0
  -24.3605   -9.4193   21.9192 C   0  0  0  0  0  0
  -23.6262   -8.2237   22.0744 C   0  0  0  0  0  0
  -22.4254   -8.0272   21.3533 C   0  0  0  0  0  0
  -21.9868   -9.0254   20.4652 C   0  0  0  0  0  0
  -22.7211  -10.2122   20.3042 C   0  0  0  0  0  0
  -21.6850   -6.0714   22.5277 C   0  0  0  0  0  0
  -21.4036   -6.5628   23.8211 C   0  0  0  0  0  0
  -21.3634   -5.6789   24.9176 C   0  0  0  0  0  0
  -21.6021   -4.3049   24.7243 C   0  0  0  0  0  0
  -21.8830   -3.8115   23.4373 C   0  0  0  0  0  0
  -21.9199   -4.6930   22.3420 C   0  0  0  0  0  0
  -22.7866  -13.5249   21.1836 C   0  0  0  0  0  0
  -22.1670   -4.2103   21.1004 F   0  0  0  0  0  0
  -21.5575   -3.4557   25.7758 F   0  0  0  0  0  0
  -29.9985  -13.4723   20.4131 N   0  0  0  0  0  0
  -26.2950  -12.9345   20.3236 N   0  0  0  0  0  0
  -25.9308  -11.6501   20.5730 N   0  0  0  0  0  0
  -22.0481  -12.8270   22.0397 N   0  0  0  0  0  0
  -25.4303  -15.1903   20.4098 N   0  0  0  0  0  0
  -31.7691  -14.8614   20.1408 O   0  0  0  0  0  0
  -21.6622   -6.8861   21.4240 O   0  0  0  0  0  0
  -22.3581  -14.5559   20.6670 O   0  0  0  0  0  0
  -24.6299  -31.8578   23.2024 C   0  0  0  0  0  0
  -25.9132  -32.4772   23.8363 C   0  0  1  0  0  0
  -27.2103  -27.2821   20.1246 C   0  0  0  0  0  0
  -25.5958  -33.8565   24.2303 N   0  0  0  0  0  0
  -23.4274  -30.4825   21.5456 C   0  0  2  0  0  0
  -24.8709  -28.9340   20.1141 C   0  0  0  0  0  0
  -22.7508  -29.4616   22.4912 C   0  0  0  0  0  0
  -18.0317  -28.1372   22.8482 C   0  0  0  0  0  0
  -24.1476  -36.7254   23.2637 C   0  0  0  0  0  0
  -25.9725  -30.7767   21.3809 C   0  0  0  0  0  0
  -26.0454  -29.4018   20.7194 C   0  0  0  0  0  0
  -27.2234  -28.5892   20.7133 C   0  0  0  0  0  0
  -26.0178  -26.8790   19.4959 C   0  0  0  0  0  0
  -24.8605  -27.6755   19.4940 C   0  0  0  0  0  0
  -23.6443  -29.8243   20.1611 C   0  0  0  0  0  0
  -25.4107  -36.3074   24.0343 C   0  0  1  0  0  0
  -20.5923  -28.3689   23.1258 C   0  0  2  0  0  0
  -20.6790  -26.9398   22.5415 C   0  0  0  0  0  0
  -19.5777  -26.6369   21.5206 C   0  0  0  0  0  0
  -18.1955  -26.7926   22.1600 C   0  0  0  0  0  0
  -19.1568  -28.8847   23.2871 C   0  0  0  0  0  0
  -18.9488  -30.1442   23.8909 C   0  0  0  0  0  0
  -17.6478  -30.6571   24.0570 C   0  0  0  0  0  0
  -25.9069  -34.9450   23.5131 C   0  0  0  0  0  0
  -16.5370  -29.9073   23.6322 C   0  0  0  0  0  0
  -16.7302  -28.6481   23.0356 C   0  0  0  0  0  0
  -26.4485  -31.6573   25.0731 C   0  0  0  0  0  0
  -25.3707  -31.3752   26.1457 C   0  0  0  0  0  0
  -27.0296  -30.2991   24.6202 C   0  0  0  0  0  0
  -27.6099  -32.4261   25.7463 C   0  0  0  0  0  0
  -27.5598  -37.1747   24.8441 C   0  0  0  0  0  0
  -21.4224  -29.3026   22.3639 N   0  0  0  0  0  0
  -26.4264  -37.3788   23.9441 N   0  0  0  0  0  0
  -24.6963  -31.0557   22.0997 N   0  0  0  0  0  0
  -23.4200  -28.8171   23.3029 O   0  0  0  0  0  0
  -28.2826  -26.3673   20.1354 O   0  0  0  0  0  0
  -26.5645  -34.8921   22.4705 O   0  0  0  0  0  0
  -23.5454  -32.1400   23.7327 O   0  0  0  0  0  0
  -30.6720  -19.4114   20.2425 C   0  0  0  0  0  0
  -30.9419  -17.9825   20.3010 C   0  0  0  0  0  0
  -29.3580  -19.7917   20.4367 C   0  0  0  0  0  0
  -29.8535  -17.1675   20.5609 C   0  0  0  0  0  0
  -27.0585  -22.7170   21.1440 C   0  0  0  0  0  0
  -27.3325  -21.2182   20.9149 C   0  0  0  0  0  0
  -28.0300  -23.5367   20.2507 C   0  0  1  0  0  0
  -29.2821  -22.4918   20.3274 C   0  0  0  0  0  0
  -27.4194  -23.5660   18.8292 C   0  0  0  0  0  0
  -30.1429  -22.7743   21.5794 C   0  0  0  0  0  0
  -30.1944  -22.6078   19.0830 C   0  0  0  0  0  0
  -28.0736  -25.0679   20.8567 C   0  0  0  0  0  0
  -28.7043  -21.0980   20.4385 N   0  0  0  0  0  0
  -29.7373  -15.7779   20.7035 N   0  0  0  0  0  0
  -28.4548  -18.2699   20.7123 S   0  0  0  0  0  0
  -31.4822  -12.5664   19.1622 H   0  0  0  0  0  0
  -30.3830  -11.4478   19.9283 H   0  0  0  0  0  0
  -29.7888  -11.7418   17.4966 H   0  0  0  0  0  0
  -29.6379  -13.4686   17.7300 H   0  0  0  0  0  0
  -27.8944  -11.2766   18.8912 H   0  0  0  0  0  0
  -27.3849  -12.5297   17.7919 H   0  0  0  0  0  0
  -27.6460  -14.2449   19.4834 H   0  0  0  0  0  0
  -28.7197  -12.1062   21.3929 H   0  0  0  0  0  0
  -28.4322  -13.7702   21.8164 H   0  0  0  0  0  0
  -25.2763   -9.5654   22.4773 H   0  0  0  0  0  0
  -23.9940   -7.4638   22.7484 H   0  0  0  0  0  0
  -21.0768   -8.8804   19.9007 H   0  0  0  0  0  0
  -22.3677  -10.9667   19.6145 H   0  0  0  0  0  0
  -21.2075   -7.6147   23.9728 H   0  0  0  0  0  0
  -21.1413   -6.0511   25.9076 H   0  0  0  0  0  0
  -22.0619   -2.7572   23.2923 H   0  0  0  0  0  0
  -22.4069  -11.9956   22.4827 H   0  0  0  0  0  0
  -21.1105  -13.1339   22.2564 H   0  0  0  0  0  0
  -24.6672  -15.8472   20.5286 H   0  0  0  0  0  0
  -26.2671  -15.6218   20.0381 H   0  0  0  0  0  0
  -26.7210  -32.5418   23.1116 H   0  0  0  0  0  0
  -25.0054  -33.9686   25.0418 H   0  0  0  0  0  0
  -22.7249  -31.3070   21.4066 H   0  0  0  0  0  0
  -23.3782  -35.9536   23.3225 H   0  0  0  0  0  0
  -24.3585  -36.8938   22.2067 H   0  0  0  0  0  0
  -23.7157  -37.6404   23.6690 H   0  0  0  0  0  0
  -26.1133  -31.5413   20.6158 H   0  0  0  0  0  0
  -26.8499  -30.8196   22.0163 H   0  0  0  0  0  0
  -28.1232  -28.9424   21.1985 H   0  0  0  0  0  0
  -25.9680  -25.9215   19.0082 H   0  0  0  0  0  0
  -23.9611  -27.3057   19.0197 H   0  0  0  0  0  0
  -23.7748  -30.6089   19.4150 H   0  0  0  0  0  0
  -22.7580  -29.2701   19.8458 H   0  0  0  0  0  0
  -25.1254  -36.1934   25.0830 H   0  0  0  0  0  0
  -21.0016  -28.3275   24.1368 H   0  0  0  0  0  0
  -20.5640  -26.2305   23.3619 H   0  0  0  0  0  0
  -21.6663  -26.7370   22.1245 H   0  0  0  0  0  0
  -19.6927  -25.6284   21.1217 H   0  0  0  0  0  0
  -19.6733  -27.3189   20.6752 H   0  0  0  0  0  0
  -17.4228  -26.6722   21.3986 H   0  0  0  0  0  0
  -18.0319  -26.0045   22.8965 H   0  0  0  0  0  0
  -19.7958  -30.7263   24.2276 H   0  0  0  0  0  0
  -17.5025  -31.6237   24.5204 H   0  0  0  0  0  0
  -15.5370  -30.2977   23.7617 H   0  0  0  0  0  0
  -15.8706  -28.0789   22.7071 H   0  0  0  0  0  0
  -24.5931  -30.7023   25.7808 H   0  0  0  0  0  0
  -24.8828  -32.2917   26.4787 H   0  0  0  0  0  0
  -25.8018  -30.9018   27.0290 H   0  0  0  0  0  0
  -26.2851  -29.6759   24.1229 H   0  0  0  0  0  0
  -27.3974  -29.7241   25.4711 H   0  0  0  0  0  0
  -27.8741  -30.4262   23.9432 H   0  0  0  0  0  0
  -27.2792  -33.3576   26.2070 H   0  0  0  0  0  0
  -28.3880  -32.6773   25.0238 H   0  0  0  0  0  0
  -28.0790  -31.8339   26.5331 H   0  0  0  0  0  0
  -28.2550  -38.0110   24.7603 H   0  0  0  0  0  0
  -28.1144  -36.2653   24.6081 H   0  0  0  0  0  0
  -27.2337  -37.1188   25.8841 H   0  0  0  0  0  0
  -20.9422  -29.8721   21.6818 H   0  0  0  0  0  0
  -26.0142  -38.2827   24.1564 H   0  0  0  0  0  0
  -31.4833  -20.1019   20.0607 H   0  0  0  0  0  0
  -31.9454  -17.6139   20.1514 H   0  0  0  0  0  0
  -27.2476  -22.9419   22.1958 H   0  0  0  0  0  0
  -26.0079  -22.9602   20.9751 H   0  0  0  0  0  0
  -26.6587  -20.8203   20.1533 H   0  0  0  0  0  0
  -27.1667  -20.6515   21.8330 H   0  0  0  0  0  0
  -27.4377  -22.5827   18.3561 H   0  0  0  0  0  0
  -27.9573  -24.2543   18.1756 H   0  0  0  0  0  0
  -26.3714  -23.8649   18.8478 H   0  0  0  0  0  0
  -30.6324  -23.7468   21.5124 H   0  0  0  0  0  0
  -30.9387  -22.0387   21.6995 H   0  0  0  0  0  0
  -29.5539  -22.7671   22.4958 H   0  0  0  0  0  0
  -30.4028  -23.6494   18.8411 H   0  0  0  0  0  0
  -29.7417  -22.1584   18.1979 H   0  0  0  0  0  0
  -31.1636  -22.1279   19.2214 H   0  0  0  0  0  0
  -28.7686  -25.0883   21.6943 H   0  0  0  0  0  0
  -27.1115  -25.1927   21.3585 H   0  0  0  0  0  0
  -28.8053  -15.4661   20.9375 H   0  0  0  0  0  0
  1 25  1  0  0  0
  1 30  2  0  0  0
  1 84  1  0  0  0
  2  3  1  0  0  0
  2 25  1  0  0  0
  2 86  1  0  0  0
  2 87  1  0  0  0
  3  4  1  0  0  0
  3 88  1  0  0  0
  3 89  1  0  0  0
  4  5  1  0  0  0
  4 90  1  0  0  0
  4 91  1  0  0  0
  5  6  1  0  0  0
  5 26  1  0  0  0
  5 92  1  0  0  0
  6 25  1  0  0  0
  6 93  1  0  0  0
  6 94  1  0  0  0
  7  8  2  0  0  0
  7 26  1  0  0  0
  7 29  1  0  0  0
  8  9  1  0  0  0
  8 22  1  0  0  0
  9 10  1  0  0  0
  9 27  2  0  0  0
 10 11  2  0  0  0
 10 15  1  0  0  0
 11 12  1  0  0  0
 11 95  1  0  0  0
 12 13  2  0  0  0
 12 96  1  0  0  0
 13 14  1  0  0  0
 13 31  1  0  0  0
 14 15  2  0  0  0
 14 97  1  0  0  0
 15 98  1  0  0  0
 16 17  2  0  0  0
 16 21  1  0  0  0
 16 31  1  0  0  0
 17 18  1  0  0  0
 17 99  1  0  0  0
 18 19  2  0  0  0
 18100  1  0  0  0
 19 20  1  0  0  0
 19 24  1  0  0  0
 20 21  2  0  0  0
 20101  1  0  0  0
 21 23  1  0  0  0
 22 28  1  0  0  0
 22 32  2  0  0  0
 26 27  1  0  0  0
 28102  1  0  0  0
 28103  1  0  0  0
 29104  1  0  0  0
 29105  1  0  0  0
 33 34  1  0  0  0
 33 66  1  0  0  0
 33 70  2  0  0  0
 34 36  1  0  0  0
 34 59  1  0  0  0
 34106  1  0  0  0
 35 44  2  0  0  0
 35 45  1  0  0  0
 35 68  1  0  0  0
 36 56  1  0  0  0
 36107  1  0  0  0
 37 39  1  0  0  0
 37 47  1  0  0  0
 37 66  1  0  0  0
 37108  1  0  0  0
 38 43  2  0  0  0
 38 46  1  0  0  0
 38 47  1  0  0  0
 39 64  1  0  0  0
 39 67  2  0  0  0
 40 52  1  0  0  0
 40 53  2  0  0  0
 40 58  1  0  0  0
 41109  1  0  0  0
 41110  1  0  0  0
 41111  1  0  0  0
 41 48  1  0  0  0
 42 43  1  0  0  0
 42 66  1  0  0  0
 42112  1  0  0  0
 42113  1  0  0  0
 43 44  1  0  0  0
 44114  1  0  0  0
 45 46  2  0  0  0
 45115  1  0  0  0
 46116  1  0  0  0
 47117  1  0  0  0
 47118  1  0  0  0
 48 56  1  0  0  0
 48 65  1  0  0  0
 48119  1  0  0  0
 49 50  1  0  0  0
 49 53  1  0  0  0
 49 64  1  0  0  0
 49120  1  0  0  0
 50 51  1  0  0  0
 50121  1  0  0  0
 50122  1  0  0  0
 51 52  1  0  0  0
 51123  1  0  0  0
 51124  1  0  0  0
 52125  1  0  0  0
 52126  1  0  0  0
 53 54  1  0  0  0
 54 55  2  0  0  0
 54127  1  0  0  0
 55 57  1  0  0  0
 55128  1  0  0  0
 56 69  2  0  0  0
 57 58  2  0  0  0
 57129  1  0  0  0
 58130  1  0  0  0
 59 60  1  0  0  0
 59 61  1  0  0  0
 59 62  1  0  0  0
 60131  1  0  0  0
 60132  1  0  0  0
 60133  1  0  0  0
 61134  1  0  0  0
 61135  1  0  0  0
 61136  1  0  0  0
 62137  1  0  0  0
 62138  1  0  0  0
 62139  1  0  0  0
 63 65  1  0  0  0
 63140  1  0  0  0
 63141  1  0  0  0
 63142  1  0  0  0
 64143  1  0  0  0
 65144  1  0  0  0
 68 82  1  0  0  0
 71 72  1  0  0  0
 71 73  2  0  0  0
 71145  1  0  0  0
 72 74  2  0  0  0
 72146  1  0  0  0
 73 83  1  0  0  0
 73 85  1  0  0  0
 74 84  1  0  0  0
 74 85  1  0  0  0
 75 76  1  0  0  0
 75 77  1  0  0  0
 75147  1  0  0  0
 75148  1  0  0  0
 76 83  1  0  0  0
 76149  1  0  0  0
 76150  1  0  0  0
 77 78  1  0  0  0
 77 79  1  0  0  0
 77 82  1  0  0  0
 78 80  1  0  0  0
 78 81  1  0  0  0
 78 83  1  0  0  0
 79151  1  0  0  0
 79152  1  0  0  0
 79153  1  0  0  0
 80154  1  0  0  0
 80155  1  0  0  0
 80156  1  0  0  0
 81157  1  0  0  0
 81158  1  0  0  0
 81159  1  0  0  0
 82160  1  0  0  0
 82161  1  0  0  0
 84162  1  0  0  0
M  ISO  4   1 100  68 101  82 101  84 100
M  END
> <chiral flag>
0

> <version>
0

> <s_m_source_file>
/data/baiqing/PycharmProjects/Reinvent-master-3.2/result/LINK_invent/BTK/process_docking_weight1_custom_product_contain_oxygen_bond_distance_aromatic_linkinvent_7_9_3/rearranged_h_0147.sdf

> <i_m_source_file_index>
66

> <r_mmod_Potential_Energy-OPLS-2005>
263.961578369141

> <r_mmod_Stretch_Energy-OPLS-2005>
114.738677978516

> <r_mmod_Bend_Energy-OPLS-2005>
226.071685791016

> <r_mmod_Torsional_Energy-OPLS-2005>
331.166870117188

> <r_mmod_Improper_Torsional_Energy-OPLS-2005>
5.35007238388062

> <r_mmod_Van_der_Waal_Energy-OPLS-2005>
121.075584411621

> <r_mmod_Electrostatic_Energy-OPLS-2005>
-403.862884521484

> <r_mmod_Solvation_Energy-OPLS-2005>
-205.881530761719

> <b_mmod_Minimization_Converged-OPLS-2005>
0

> <r_mmod_RMS_Derivative-OPLS-2005>
3.82981991767883

$$$$
66
                    3D
 Structure written by MMmdl.
164173  0  0  1  0            999 V2000
  -30.6434  -14.4198   20.5756 C   0  0  0  0  0  0
  -30.4098  -12.2648   19.4167 C   0  0  0  0  0  0
  -29.4806  -12.5074   18.2060 C   0  0  0  0  0  0
  -27.9999  -12.3656   18.6114 C   0  0  0  0  0  0
  -27.6583  -13.1738   19.8914 C   0  0  2  0  0  0
  -28.6904  -12.8785   20.9992 C   0  0  0  0  0  0
  -25.2606  -13.8058   20.5675 C   0  0  0  0  0  0
  -24.1856  -13.0400   20.9162 C   0  0  0  0  0  0
  -24.6356  -11.6832   20.8753 C   0  0  0  0  0  0
  -23.9017  -10.4249   21.0445 C   0  0  0  0  0  0
  -24.3603   -9.4165   21.9210 C   0  0  0  0  0  0
  -23.6299   -8.2190   22.0748 C   0  0  0  0  0  0
  -22.4277   -8.0230   21.3526 C   0  0  0  0  0  0
  -21.9899   -9.0198   20.4622 C   0  0  0  0  0  0
  -22.7205  -10.2095   20.3054 C   0  0  0  0  0  0
  -21.6854   -6.0711   22.5256 C   0  0  0  0  0  0
  -21.4031   -6.5641   23.8179 C   0  0  0  0  0  0
  -21.3693   -5.6799   24.9148 C   0  0  0  0  0  0
  -21.6067   -4.3051   24.7228 C   0  0  0  0  0  0
  -21.8848   -3.8132   23.4357 C   0  0  0  0  0  0
  -21.9208   -4.6942   22.3406 C   0  0  0  0  0  0
  -22.7884  -13.5183   21.1841 C   0  0  0  0  0  0
  -22.1677   -4.2141   21.0983 F   0  0  0  0  0  0
  -21.5630   -3.4539   25.7741 F   0  0  0  0  0  0
  -30.0161  -13.2191   20.4608 N   0  0  0  0  0  0
  -26.2986  -12.9158   20.3420 N   0  0  0  0  0  0
  -25.9260  -11.6355   20.5817 N   0  0  0  0  0  0
  -22.0644  -12.8117   22.0427 N   0  0  0  0  0  0
  -25.4430  -15.1775   20.4100 N   0  0  0  0  0  0
  -31.7920  -14.6117   20.1505 O   0  0  0  0  0  0
  -21.6644   -6.8828   21.4199 O   0  0  0  0  0  0
  -22.3562  -14.5554   20.6777 O   0  0  0  0  0  0
  -24.6114  -31.8714   23.2137 C   0  0  0  0  0  0
  -25.9060  -32.4861   23.8398 C   0  0  1  0  0  0
  -27.2547  -27.4793   20.0404 C   0  0  0  0  0  0
  -25.5967  -33.8637   24.2373 N   0  0  0  0  0  0
  -23.4006  -30.4887   21.5588 C   0  0  2  0  0  0
  -24.8457  -28.9565   20.1262 C   0  0  0  0  0  0
  -22.7416  -29.4636   22.5084 C   0  0  0  0  0  0
  -18.0263  -28.1341   22.8517 C   0  0  0  0  0  0
  -24.1498  -36.7256   23.2647 C   0  0  0  0  0  0
  -25.9291  -30.8335   21.3790 C   0  0  0  0  0  0
  -26.0056  -29.4703   20.7222 C   0  0  0  0  0  0
  -27.2069  -28.7267   20.6983 C   0  0  0  0  0  0
  -26.0670  -26.9585   19.4754 C   0  0  0  0  0  0
  -24.8688  -27.6924   19.5136 C   0  0  0  0  0  0
  -23.6066  -29.8208   20.1754 C   0  0  0  0  0  0
  -25.4142  -36.3127   24.0359 C   0  0  1  0  0  0
  -20.5847  -28.3612   23.1365 C   0  0  2  0  0  0
  -20.6762  -26.9361   22.5433 C   0  0  0  0  0  0
  -19.5737  -26.6358   21.5241 C   0  0  0  0  0  0
  -18.1898  -26.7907   22.1628 C   0  0  0  0  0  0
  -19.1515  -28.8814   23.2925 C   0  0  0  0  0  0
  -18.9453  -30.1443   23.8892 C   0  0  0  0  0  0
  -17.6443  -30.6583   24.0542 C   0  0  0  0  0  0
  -25.9070  -34.9490   23.5166 C   0  0  0  0  0  0
  -16.5343  -29.9048   23.6327 C   0  0  0  0  0  0
  -16.7241  -28.6462   23.0361 C   0  0  0  0  0  0
  -26.4489  -31.6616   25.0715 C   0  0  0  0  0  0
  -25.3753  -31.3713   26.1471 C   0  0  0  0  0  0
  -27.0320  -30.3065   24.6087 C   0  0  0  0  0  0
  -27.6057  -32.4337   25.7469 C   0  0  0  0  0  0
  -27.5618  -37.1781   24.8479 C   0  0  0  0  0  0
  -21.4145  -29.2991   22.3803 N   0  0  0  0  0  0
  -26.4322  -37.3819   23.9435 N   0  0  0  0  0  0
  -24.6621  -31.0820   22.1062 N   0  0  0  0  0  0
  -23.4189  -28.8218   23.3148 O   0  0  0  0  0  0
  -28.4568  -26.8068   19.9348 O   0  0  0  0  0  0
  -26.5558  -34.8933   22.4684 O   0  0  0  0  0  0
  -23.5299  -32.1445   23.7552 O   0  0  0  0  0  0
  -29.6479  -20.2194   19.9156 C   0  0  0  0  0  0
  -31.5948  -19.3182   21.0696 C   0  0  0  0  0  0
  -31.5916  -21.6416   20.3389 C   0  0  0  0  0  0
  -30.2744  -19.1509   20.6001 C   0  0  0  0  0  0
  -30.2948  -21.4744   19.7920 C   0  0  0  0  0  0
  -32.2428  -20.5600   20.9588 C   0  0  0  0  0  0
  -29.6085  -23.8374   19.3895 C   0  0  0  0  0  0
  -29.7126  -17.2746   22.2870 C   0  0  0  0  0  0
  -29.2954  -15.8190   22.1116 C   0  0  0  0  0  0
  -29.8809  -16.6814   19.9641 C   0  0  0  0  0  0
  -29.5159  -17.8532   20.8814 C   0  0  2  0  0  0
  -30.1265  -26.7637   18.1259 C   0  0  0  0  0  0
  -28.6035  -24.6961   18.6007 C   0  0  0  0  0  0
  -28.7685  -26.2435   18.6434 C   0  0  1  0  0  0
  -29.8016  -15.4593   20.7829 N   0  0  0  0  0  0
  -29.6161  -22.5203   19.0992 N   0  0  0  0  0  0
  -30.3297  -24.3414   20.2507 O   0  0  0  0  0  0
  -33.4922  -20.7119   21.4602 F   0  0  0  0  0  0
  -31.4581  -12.3687   19.1328 H   0  0  0  0  0  0
  -30.2934  -11.2430   19.7845 H   0  0  0  0  0  0
  -29.7088  -11.8119   17.3984 H   0  0  0  0  0  0
  -29.6512  -13.5073   17.8002 H   0  0  0  0  0  0
  -27.7969  -11.3028   18.7675 H   0  0  0  0  0  0
  -27.3498  -12.6709   17.7950 H   0  0  0  0  0  0
  -27.7125  -14.2285   19.6327 H   0  0  0  0  0  0
  -28.6592  -11.8163   21.2445 H   0  0  0  0  0  0
  -28.4425  -13.3825   21.9324 H   0  0  0  0  0  0
  -25.2782   -9.5649   22.4739 H   0  0  0  0  0  0
  -24.0061   -7.4568   22.7439 H   0  0  0  0  0  0
  -21.0838   -8.8687   19.8901 H   0  0  0  0  0  0
  -22.3674  -10.9633   19.6136 H   0  0  0  0  0  0
  -21.2035   -7.6151   23.9668 H   0  0  0  0  0  0
  -21.1487   -6.0536   25.9046 H   0  0  0  0  0  0
  -22.0622   -2.7593   23.2836 H   0  0  0  0  0  0
  -22.4362  -11.9727   22.4623 H   0  0  0  0  0  0
  -21.1279  -13.1041   22.2794 H   0  0  0  0  0  0
  -24.6913  -15.8444   20.5470 H   0  0  0  0  0  0
  -26.3060  -15.6099   20.1078 H   0  0  0  0  0  0
  -26.7123  -32.5569   23.1125 H   0  0  0  0  0  0
  -25.0267  -33.9791   25.0624 H   0  0  0  0  0  0
  -22.6920  -31.3062   21.4208 H   0  0  0  0  0  0
  -23.3825  -35.9519   23.3294 H   0  0  0  0  0  0
  -24.3601  -36.8865   22.2072 H   0  0  0  0  0  0
  -23.7154  -37.6418   23.6635 H   0  0  0  0  0  0
  -26.0567  -31.6137   20.6293 H   0  0  0  0  0  0
  -26.8113  -30.8669   22.0042 H   0  0  0  0  0  0
  -28.1083  -29.1211   21.1498 H   0  0  0  0  0  0
  -26.0612  -26.0010   18.9802 H   0  0  0  0  0  0
  -23.9802  -27.2790   19.0565 H   0  0  0  0  0  0
  -23.7067  -30.5963   19.4141 H   0  0  0  0  0  0
  -22.7313  -29.2366   19.8840 H   0  0  0  0  0  0
  -25.1297  -36.2003   25.0843 H   0  0  0  0  0  0
  -20.9915  -28.3136   24.1489 H   0  0  0  0  0  0
  -20.5759  -26.2178   23.3579 H   0  0  0  0  0  0
  -21.6616  -26.7432   22.1190 H   0  0  0  0  0  0
  -19.6920  -25.6285   21.1225 H   0  0  0  0  0  0
  -19.6718  -27.3210   20.6812 H   0  0  0  0  0  0
  -17.4206  -26.6718   21.3983 H   0  0  0  0  0  0
  -18.0253  -26.0026   22.8995 H   0  0  0  0  0  0
  -19.7936  -30.7276   24.2245 H   0  0  0  0  0  0
  -17.4990  -31.6263   24.5124 H   0  0  0  0  0  0
  -15.5344  -30.2938   23.7670 H   0  0  0  0  0  0
  -15.8649  -28.0789   22.7041 H   0  0  0  0  0  0
  -24.5886  -30.7154   25.7770 H   0  0  0  0  0  0
  -24.9022  -32.2885   26.4986 H   0  0  0  0  0  0
  -25.8120  -30.8787   27.0173 H   0  0  0  0  0  0
  -26.2864  -29.6835   24.1169 H   0  0  0  0  0  0
  -27.4119  -29.7307   25.4535 H   0  0  0  0  0  0
  -27.8686  -30.4390   23.9219 H   0  0  0  0  0  0
  -27.2663  -33.3574   26.2149 H   0  0  0  0  0  0
  -28.3804  -32.7027   25.0282 H   0  0  0  0  0  0
  -28.0806  -31.8430   26.5304 H   0  0  0  0  0  0
  -28.2597  -38.0118   24.7588 H   0  0  0  0  0  0
  -28.1137  -36.2640   24.6221 H   0  0  0  0  0  0
  -27.2300  -37.1320   25.8867 H   0  0  0  0  0  0
  -20.9347  -29.8605   21.6922 H   0  0  0  0  0  0
  -26.0212  -38.2887   24.1482 H   0  0  0  0  0  0
  -28.6522  -20.0785   19.5137 H   0  0  0  0  0  0
  -32.1232  -18.5063   21.5443 H   0  0  0  0  0  0
  -32.1016  -22.5905   20.2848 H   0  0  0  0  0  0
  -30.7609  -17.2715   22.5859 H   0  0  0  0  0  0
  -29.1604  -17.7992   23.0655 H   0  0  0  0  0  0
  -28.2047  -15.7507   22.1011 H   0  0  0  0  0  0
  -29.6692  -15.1880   22.9199 H   0  0  0  0  0  0
  -30.8719  -16.8125   19.5305 H   0  0  0  0  0  0
  -29.1774  -16.6161   19.1327 H   0  0  0  0  0  0
  -28.4508  -18.0591   20.7507 H   0  0  0  0  0  0
  -30.3987  -26.2811   17.1834 H   0  0  0  0  0  0
  -30.9395  -26.5895   18.8279 H   0  0  0  0  0  0
  -30.0865  -27.8358   17.9295 H   0  0  0  0  0  0
  -27.6158  -24.4240   18.9676 H   0  0  0  0  0  0
  -28.6175  -24.3818   17.5546 H   0  0  0  0  0  0
  -28.0645  -26.6334   17.9038 H   0  0  0  0  0  0
  -28.9726  -22.2279   18.3758 H   0  0  0  0  0  0
  1 25  1  0  0  0
  1 30  2  0  0  0
  1 85  1  0  0  0
  2  3  1  0  0  0
  2 25  1  0  0  0
  2 89  1  0  0  0
  2 90  1  0  0  0
  3  4  1  0  0  0
  3 91  1  0  0  0
  3 92  1  0  0  0
  4  5  1  0  0  0
  4 93  1  0  0  0
  4 94  1  0  0  0
  5  6  1  0  0  0
  5 26  1  0  0  0
  5 95  1  0  0  0
  6 25  1  0  0  0
  6 96  1  0  0  0
  6 97  1  0  0  0
  7  8  2  0  0  0
  7 26  1  0  0  0
  7 29  1  0  0  0
  8  9  1  0  0  0
  8 22  1  0  0  0
  9 10  1  0  0  0
  9 27  2  0  0  0
 10 11  2  0  0  0
 10 15  1  0  0  0
 11 12  1  0  0  0
 11 98  1  0  0  0
 12 13  2  0  0  0
 12 99  1  0  0  0
 13 14  1  0  0  0
 13 31  1  0  0  0
 14 15  2  0  0  0
 14100  1  0  0  0
 15101  1  0  0  0
 16 17  2  0  0  0
 16 21  1  0  0  0
 16 31  1  0  0  0
 17 18  1  0  0  0
 17102  1  0  0  0
 18 19  2  0  0  0
 18103  1  0  0  0
 19 20  1  0  0  0
 19 24  1  0  0  0
 20 21  2  0  0  0
 20104  1  0  0  0
 21 23  1  0  0  0
 22 28  1  0  0  0
 22 32  2  0  0  0
 26 27  1  0  0  0
 28105  1  0  0  0
 28106  1  0  0  0
 29107  1  0  0  0
 29108  1  0  0  0
 33 34  1  0  0  0
 33 66  1  0  0  0
 33 70  2  0  0  0
 34 36  1  0  0  0
 34 59  1  0  0  0
 34109  1  0  0  0
 35 44  2  0  0  0
 35 45  1  0  0  0
 35 68  1  0  0  0
 36 56  1  0  0  0
 36110  1  0  0  0
 37 39  1  0  0  0
 37 47  1  0  0  0
 37 66  1  0  0  0
 37111  1  0  0  0
 38 43  2  0  0  0
 38 46  1  0  0  0
 38 47  1  0  0  0
 39 64  1  0  0  0
 39 67  2  0  0  0
 40 52  1  0  0  0
 40 53  2  0  0  0
 40 58  1  0  0  0
 41112  1  0  0  0
 41113  1  0  0  0
 41114  1  0  0  0
 41 48  1  0  0  0
 42 43  1  0  0  0
 42 66  1  0  0  0
 42115  1  0  0  0
 42116  1  0  0  0
 43 44  1  0  0  0
 44117  1  0  0  0
 45 46  2  0  0  0
 45118  1  0  0  0
 46119  1  0  0  0
 47120  1  0  0  0
 47121  1  0  0  0
 48 56  1  0  0  0
 48 65  1  0  0  0
 48122  1  0  0  0
 49 50  1  0  0  0
 49 53  1  0  0  0
 49 64  1  0  0  0
 49123  1  0  0  0
 50 51  1  0  0  0
 50124  1  0  0  0
 50125  1  0  0  0
 51 52  1  0  0  0
 51126  1  0  0  0
 51127  1  0  0  0
 52128  1  0  0  0
 52129  1  0  0  0
 53 54  1  0  0  0
 54 55  2  0  0  0
 54130  1  0  0  0
 55 57  1  0  0  0
 55131  1  0  0  0
 56 69  2  0  0  0
 57 58  2  0  0  0
 57132  1  0  0  0
 58133  1  0  0  0
 59 60  1  0  0  0
 59 61  1  0  0  0
 59 62  1  0  0  0
 60134  1  0  0  0
 60135  1  0  0  0
 60136  1  0  0  0
 61137  1  0  0  0
 61138  1  0  0  0
 61139  1  0  0  0
 62140  1  0  0  0
 62141  1  0  0  0
 62142  1  0  0  0
 63 65  1  0  0  0
 63143  1  0  0  0
 63144  1  0  0  0
 63145  1  0  0  0
 64146  1  0  0  0
 65147  1  0  0  0
 68 84  1  0  0  0
 71 74  2  0  0  0
 71 75  1  0  0  0
 71148  1  0  0  0
 72 74  1  0  0  0
 72 76  2  0  0  0
 72149  1  0  0  0
 73 75  2  0  0  0
 73 76  1  0  0  0
 73150  1  0  0  0
 74 81  1  0  0  0
 75 86  1  0  0  0
 76 88  1  0  0  0
 77 83  1  0  0  0
 77 86  1  0  0  0
 77 87  2  0  0  0
 78 79  1  0  0  0
 78 81  1  0  0  0
 78151  1  0  0  0
 78152  1  0  0  0
 79 85  1  0  0  0
 79153  1  0  0  0
 79154  1  0  0  0
 80 81  1  0  0  0
 80 85  1  0  0  0
 80155  1  0  0  0
 80156  1  0  0  0
 81157  1  0  0  0
 82158  1  0  0  0
 82159  1  0  0  0
 82160  1  0  0  0
 82 84  1  0  0  0
 83 84  1  0  0  0
 83161  1  0  0  0
 83162  1  0  0  0
 84163  1  0  0  0
 86164  1  0  0  0
M  ISO  4   1 100  68 101  84 101  85 100
M  END
> <chiral flag>
0

> <version>
0

> <s_m_source_file>
/data/baiqing/PycharmProjects/Reinvent-master-3.2/result/LINK_invent/BTK/process_docking_weight1_custom_product_contain_oxygen_bond_distance_aromatic_linkinvent_7_9_3/rearranged_h_0147.sdf

> <i_m_source_file_index>
67

> <r_mmod_Potential_Energy-OPLS-2005>
167.560485839844

> <r_mmod_Stretch_Energy-OPLS-2005>
37.550651550293

> <r_mmod_Bend_Energy-OPLS-2005>
127.595962524414

> <r_mmod_Torsional_Energy-OPLS-2005>
336.186645507812

> <r_mmod_Improper_Torsional_Energy-OPLS-2005>
14.9116296768188

> <r_mmod_Van_der_Waal_Energy-OPLS-2005>
160.379302978516

> <r_mmod_Electrostatic_Energy-OPLS-2005>
-297.498077392578

> <r_mmod_Solvation_Energy-OPLS-2005>
-225.083709716797

> <b_mmod_Minimization_Converged-OPLS-2005>
0

> <r_mmod_RMS_Derivative-OPLS-2005>
6.54537439346313

$$$$
67
                    3D
 Structure written by MMmdl.
157166  0  0  1  0            999 V2000
  -30.6666  -14.5971   20.4842 C   0  0  0  0  0  0
  -30.4256  -12.3606   19.4589 C   0  0  0  0  0  0
  -29.5063  -12.4889   18.2262 C   0  0  0  0  0  0
  -28.0270  -12.3451   18.6341 C   0  0  0  0  0  0
  -27.6530  -13.2186   19.8615 C   0  0  2  0  0  0
  -28.6959  -13.0877   20.9944 C   0  0  0  0  0  0
  -25.2571  -13.8181   20.5688 C   0  0  0  0  0  0
  -24.1835  -13.0449   20.9193 C   0  0  0  0  0  0
  -24.6391  -11.6918   20.8724 C   0  0  0  0  0  0
  -23.9057  -10.4299   21.0400 C   0  0  0  0  0  0
  -24.3613   -9.4221   21.9181 C   0  0  0  0  0  0
  -23.6294   -8.2252   22.0760 C   0  0  0  0  0  0
  -22.4275   -8.0281   21.3544 C   0  0  0  0  0  0
  -21.9899   -9.0258   20.4650 C   0  0  0  0  0  0
  -22.7222  -10.2139   20.3057 C   0  0  0  0  0  0
  -21.6861   -6.0735   22.5272 C   0  0  0  0  0  0
  -21.4014   -6.5640   23.8205 C   0  0  0  0  0  0
  -21.3662   -5.6794   24.9168 C   0  0  0  0  0  0
  -21.6044   -4.3055   24.7218 C   0  0  0  0  0  0
  -21.8820   -3.8148   23.4335 C   0  0  0  0  0  0
  -21.9203   -4.6963   22.3391 C   0  0  0  0  0  0
  -22.7855  -13.5252   21.1857 C   0  0  0  0  0  0
  -22.1670   -4.2153   21.0968 F   0  0  0  0  0  0
  -21.5639   -3.4536   25.7731 F   0  0  0  0  0  0
  -30.0143  -13.3968   20.4250 N   0  0  0  0  0  0
  -26.2990  -12.9360   20.3306 N   0  0  0  0  0  0
  -25.9328  -11.6513   20.5748 N   0  0  0  0  0  0
  -22.0487  -12.8247   22.0401 N   0  0  0  0  0  0
  -25.4314  -15.1896   20.4093 N   0  0  0  0  0  0
  -31.8443  -14.6917   20.1272 O   0  0  0  0  0  0
  -21.6638   -6.8876   21.4234 O   0  0  0  0  0  0
  -22.3544  -14.5568   20.6713 O   0  0  0  0  0  0
  -24.6227  -31.8631   23.2038 C   0  0  0  0  0  0
  -25.9092  -32.4793   23.8362 C   0  0  1  0  0  0
  -27.2239  -27.3662   20.1123 C   0  0  0  0  0  0
  -25.5926  -33.8590   24.2296 N   0  0  0  0  0  0
  -23.4146  -30.4870   21.5464 C   0  0  2  0  0  0
  -24.8616  -28.9459   20.1106 C   0  0  0  0  0  0
  -22.7457  -29.4645   22.4950 C   0  0  0  0  0  0
  -18.0289  -28.1382   22.8484 C   0  0  0  0  0  0
  -24.1491  -36.7299   23.2638 C   0  0  0  0  0  0
  -25.9505  -30.8089   21.3667 C   0  0  0  0  0  0
  -26.0274  -29.4395   20.7107 C   0  0  0  0  0  0
  -27.2174  -28.6608   20.7014 C   0  0  0  0  0  0
  -26.0428  -26.9085   19.4928 C   0  0  0  0  0  0
  -24.8680  -27.6836   19.4933 C   0  0  0  0  0  0
  -23.6271  -29.8215   20.1609 C   0  0  0  0  0  0
  -25.4112  -36.3091   24.0333 C   0  0  1  0  0  0
  -20.5885  -28.3683   23.1291 C   0  0  2  0  0  0
  -20.6780  -26.9412   22.5416 C   0  0  0  0  0  0
  -19.5758  -26.6382   21.5213 C   0  0  0  0  0  0
  -18.1933  -26.7924   22.1625 C   0  0  0  0  0  0
  -19.1537  -28.8848   23.2887 C   0  0  0  0  0  0
  -18.9461  -30.1453   23.8902 C   0  0  0  0  0  0
  -17.6462  -30.6585   24.0568 C   0  0  0  0  0  0
  -25.9047  -34.9462   23.5113 C   0  0  0  0  0  0
  -16.5357  -29.9085   23.6328 C   0  0  0  0  0  0
  -16.7277  -28.6505   23.0345 C   0  0  0  0  0  0
  -26.4494  -31.6585   25.0716 C   0  0  0  0  0  0
  -25.3744  -31.3707   26.1455 C   0  0  0  0  0  0
  -27.0323  -30.3015   24.6127 C   0  0  0  0  0  0
  -27.6060  -32.4313   25.7488 C   0  0  0  0  0  0
  -27.5579  -37.1805   24.8463 C   0  0  0  0  0  0
  -21.4175  -29.3040   22.3689 N   0  0  0  0  0  0
  -26.4289  -37.3783   23.9411 N   0  0  0  0  0  0
  -24.6814  -31.0684   22.0965 N   0  0  0  0  0  0
  -23.4197  -28.8194   23.3021 O   0  0  0  0  0  0
  -28.3307  -26.5239   20.1288 O   0  0  0  0  0  0
  -26.5613  -34.8925   22.4676 O   0  0  0  0  0  0
  -23.5408  -32.1408   23.7402 O   0  0  0  0  0  0
  -29.2660  -18.1971   20.8235 C   0  0  0  0  0  0
  -31.2870  -17.5808   19.8306 C   0  0  0  0  0  0
  -30.1721  -17.1133   20.4834 C   0  0  0  0  0  0
  -29.6967  -19.4634   20.4264 C   0  0  0  0  0  0
  -28.6828  -21.6211   19.3163 C   0  0  0  0  0  0
  -28.0324  -23.0235   19.5727 C   0  0  0  0  0  0
  -29.2706  -23.1016   21.7458 C   0  0  0  0  0  0
  -29.0500  -20.8557   20.6218 C   0  0  2  0  0  0
  -28.8816  -23.9510   20.4915 C   0  0  2  0  0  0
  -28.1566  -25.3000   20.9143 C   0  0  0  0  0  0
  -29.9122  -15.7039   20.7735 N   0  0  0  0  0  0
  -29.8864  -21.7719   21.4401 N   0  3  0  0  0  0
  -31.2418  -19.3168   19.6163 S   0  0  0  0  0  0
  -31.4715  -12.4562   19.1607 H   0  0  0  0  0  0
  -30.3343  -11.3708   19.9094 H   0  0  0  0  0  0
  -29.7638  -11.7302   17.4862 H   0  0  0  0  0  0
  -29.6652  -13.4545   17.7430 H   0  0  0  0  0  0
  -27.8491  -11.2929   18.8602 H   0  0  0  0  0  0
  -27.3794  -12.5864   17.7908 H   0  0  0  0  0  0
  -27.6720  -14.2522   19.5160 H   0  0  0  0  0  0
  -28.6944  -12.0786   21.4068 H   0  0  0  0  0  0
  -28.4491  -13.7512   21.8257 H   0  0  0  0  0  0
  -25.2748   -9.5720   22.4759 H   0  0  0  0  0  0
  -24.0019   -7.4655   22.7487 H   0  0  0  0  0  0
  -21.0835   -8.8764   19.8957 H   0  0  0  0  0  0
  -22.3671  -10.9682   19.6172 H   0  0  0  0  0  0
  -21.1996   -7.6145   23.9707 H   0  0  0  0  0  0
  -21.1489   -6.0520   25.9074 H   0  0  0  0  0  0
  -22.0604   -2.7612   23.2833 H   0  0  0  0  0  0
  -22.4075  -11.9881   22.4746 H   0  0  0  0  0  0
  -21.1123  -13.1303   22.2642 H   0  0  0  0  0  0
  -24.6678  -15.8465   20.5250 H   0  0  0  0  0  0
  -26.2687  -15.6191   20.0384 H   0  0  0  0  0  0
  -26.7170  -32.5484   23.1127 H   0  0  0  0  0  0
  -25.0091  -33.9743   25.0455 H   0  0  0  0  0  0
  -22.7063  -31.3060   21.4052 H   0  0  0  0  0  0
  -23.3754  -35.9628   23.3297 H   0  0  0  0  0  0
  -24.3588  -36.8918   22.2051 H   0  0  0  0  0  0
  -23.7237  -37.6501   23.6655 H   0  0  0  0  0  0
  -26.0741  -31.5742   20.5989 H   0  0  0  0  0  0
  -26.8331  -30.8591   21.9920 H   0  0  0  0  0  0
  -28.1155  -29.0346   21.1728 H   0  0  0  0  0  0
  -26.0276  -25.9354   19.0213 H   0  0  0  0  0  0
  -23.9733  -27.2989   19.0225 H   0  0  0  0  0  0
  -23.7430  -30.5979   19.4035 H   0  0  0  0  0  0
  -22.7476  -29.2490   19.8612 H   0  0  0  0  0  0
  -25.1291  -36.1948   25.0824 H   0  0  0  0  0  0
  -20.9983  -28.3256   24.1409 H   0  0  0  0  0  0
  -20.5684  -26.2294   23.3611 H   0  0  0  0  0  0
  -21.6650  -26.7449   22.1210 H   0  0  0  0  0  0
  -19.6920  -25.6293   21.1241 H   0  0  0  0  0  0
  -19.6694  -27.3195   20.6745 H   0  0  0  0  0  0
  -17.4209  -26.6677   21.4023 H   0  0  0  0  0  0
  -18.0335  -26.0066   22.9020 H   0  0  0  0  0  0
  -19.7940  -30.7265   24.2269 H   0  0  0  0  0  0
  -17.5023  -31.6261   24.5172 H   0  0  0  0  0  0
  -15.5358  -30.2993   23.7643 H   0  0  0  0  0  0
  -15.8680  -28.0831   22.7046 H   0  0  0  0  0  0
  -24.5919  -30.7054   25.7790 H   0  0  0  0  0  0
  -24.8941  -32.2869   26.4898 H   0  0  0  0  0  0
  -25.8092  -30.8879   27.0217 H   0  0  0  0  0  0
  -26.2875  -29.6776   24.1170 H   0  0  0  0  0  0
  -27.4063  -29.7253   25.4601 H   0  0  0  0  0  0
  -27.8729  -30.4313   23.9302 H   0  0  0  0  0  0
  -27.2668  -33.3606   26.2076 H   0  0  0  0  0  0
  -28.3865  -32.6883   25.0315 H   0  0  0  0  0  0
  -28.0731  -31.8430   26.5397 H   0  0  0  0  0  0
  -28.2597  -38.0104   24.7524 H   0  0  0  0  0  0
  -28.1079  -36.2638   24.6277 H   0  0  0  0  0  0
  -27.2305  -37.1441   25.8869 H   0  0  0  0  0  0
  -20.9345  -29.8768   21.6910 H   0  0  0  0  0  0
  -26.0175  -38.2861   24.1413 H   0  0  0  0  0  0
  -28.3358  -18.0162   21.3442 H   0  0  0  0  0  0
  -32.1389  -17.0309   19.4456 H   0  0  0  0  0  0
  -29.5759  -21.7501   18.7037 H   0  0  0  0  0  0
  -28.0029  -21.0109   18.7199 H   0  0  0  0  0  0
  -27.0508  -22.8721   20.0264 H   0  0  0  0  0  0
  -27.8454  -23.5227   18.6212 H   0  0  0  0  0  0
  -28.3900  -22.9356   22.3676 H   0  0  0  0  0  0
  -29.9738  -23.6646   22.3620 H   0  0  0  0  0  0
  -28.1227  -20.7028   21.1766 H   0  0  0  0  0  0
  -29.8026  -24.2158   19.9709 H   0  0  0  0  0  0
  -28.5241  -25.5765   21.9036 H   0  0  0  0  0  0
  -27.1010  -25.0788   21.0804 H   0  0  0  0  0  0
  -28.9890  -15.4933   21.1207 H   0  0  0  0  0  0
  -30.0951  -21.3122   22.3112 H   0  0  0  0  0  0
  -30.7631  -21.9213   20.9692 H   0  0  0  0  0  0
  1 25  1  0  0  0
  1 30  2  0  0  0
  1 81  1  0  0  0
  2  3  1  0  0  0
  2 25  1  0  0  0
  2 84  1  0  0  0
  2 85  1  0  0  0
  3  4  1  0  0  0
  3 86  1  0  0  0
  3 87  1  0  0  0
  4  5  1  0  0  0
  4 88  1  0  0  0
  4 89  1  0  0  0
  5  6  1  0  0  0
  5 26  1  0  0  0
  5 90  1  0  0  0
  6 25  1  0  0  0
  6 91  1  0  0  0
  6 92  1  0  0  0
  7  8  2  0  0  0
  7 26  1  0  0  0
  7 29  1  0  0  0
  8  9  1  0  0  0
  8 22  1  0  0  0
  9 10  1  0  0  0
  9 27  2  0  0  0
 10 11  2  0  0  0
 10 15  1  0  0  0
 11 12  1  0  0  0
 11 93  1  0  0  0
 12 13  2  0  0  0
 12 94  1  0  0  0
 13 14  1  0  0  0
 13 31  1  0  0  0
 14 15  2  0  0  0
 14 95  1  0  0  0
 15 96  1  0  0  0
 16 17  2  0  0  0
 16 21  1  0  0  0
 16 31  1  0  0  0
 17 18  1  0  0  0
 17 97  1  0  0  0
 18 19  2  0  0  0
 18 98  1  0  0  0
 19 20  1  0  0  0
 19 24  1  0  0  0
 20 21  2  0  0  0
 20 99  1  0  0  0
 21 23  1  0  0  0
 22 28  1  0  0  0
 22 32  2  0  0  0
 26 27  1  0  0  0
 28100  1  0  0  0
 28101  1  0  0  0
 29102  1  0  0  0
 29103  1  0  0  0
 33 34  1  0  0  0
 33 66  1  0  0  0
 33 70  2  0  0  0
 34 36  1  0  0  0
 34 59  1  0  0  0
 34104  1  0  0  0
 35 44  2  0  0  0
 35 45  1  0  0  0
 35 68  1  0  0  0
 36 56  1  0  0  0
 36105  1  0  0  0
 37 39  1  0  0  0
 37 47  1  0  0  0
 37 66  1  0  0  0
 37106  1  0  0  0
 38 43  2  0  0  0
 38 46  1  0  0  0
 38 47  1  0  0  0
 39 64  1  0  0  0
 39 67  2  0  0  0
 40 52  1  0  0  0
 40 53  2  0  0  0
 40 58  1  0  0  0
 41107  1  0  0  0
 41108  1  0  0  0
 41109  1  0  0  0
 41 48  1  0  0  0
 42 43  1  0  0  0
 42 66  1  0  0  0
 42110  1  0  0  0
 42111  1  0  0  0
 43 44  1  0  0  0
 44112  1  0  0  0
 45 46  2  0  0  0
 45113  1  0  0  0
 46114  1  0  0  0
 47115  1  0  0  0
 47116  1  0  0  0
 48 56  1  0  0  0
 48 65  1  0  0  0
 48117  1  0  0  0
 49 50  1  0  0  0
 49 53  1  0  0  0
 49 64  1  0  0  0
 49118  1  0  0  0
 50 51  1  0  0  0
 50119  1  0  0  0
 50120  1  0  0  0
 51 52  1  0  0  0
 51121  1  0  0  0
 51122  1  0  0  0
 52123  1  0  0  0
 52124  1  0  0  0
 53 54  1  0  0  0
 54 55  2  0  0  0
 54125  1  0  0  0
 55 57  1  0  0  0
 55126  1  0  0  0
 56 69  2  0  0  0
 57 58  2  0  0  0
 57127  1  0  0  0
 58128  1  0  0  0
 59 60  1  0  0  0
 59 61  1  0  0  0
 59 62  1  0  0  0
 60129  1  0  0  0
 60130  1  0  0  0
 60131  1  0  0  0
 61132  1  0  0  0
 61133  1  0  0  0
 61134  1  0  0  0
 62135  1  0  0  0
 62136  1  0  0  0
 62137  1  0  0  0
 63 65  1  0  0  0
 63138  1  0  0  0
 63139  1  0  0  0
 63140  1  0  0  0
 64141  1  0  0  0
 65142  1  0  0  0
 68 80  1  0  0  0
 71 73  1  0  0  0
 71 74  2  0  0  0
 71143  1  0  0  0
 72 73  2  0  0  0
 72 83  1  0  0  0
 72144  1  0  0  0
 73 81  1  0  0  0
 74 83  1  0  0  0
 74 78  1  0  0  0
 75 76  1  0  0  0
 75 78  1  0  0  0
 75145  1  0  0  0
 75146  1  0  0  0
 76 79  1  0  0  0
 76147  1  0  0  0
 76148  1  0  0  0
 77 79  1  0  0  0
 77 82  1  0  0  0
 77149  1  0  0  0
 77150  1  0  0  0
 78 82  1  0  0  0
 78151  1  0  0  0
 79 80  1  0  0  0
 79152  1  0  0  0
 80153  1  0  0  0
 80154  1  0  0  0
 81155  1  0  0  0
 82156  1  0  0  0
 82157  1  0  0  0
M  CHG  1  82   1
M  ISO  4   1 100  68 101  80 101  81 100
M  END
> <chiral flag>
0

> <version>
0

> <s_m_source_file>
/data/baiqing/PycharmProjects/Reinvent-master-3.2/result/LINK_invent/BTK/process_docking_weight1_custom_product_contain_oxygen_bond_distance_aromatic_linkinvent_7_9_3/rearranged_h_0147.sdf

> <i_m_source_file_index>
68

> <r_mmod_Potential_Energy-OPLS-2005>
-149.449035644531

> <r_mmod_Stretch_Energy-OPLS-2005>
62.1557769775391

> <r_mmod_Bend_Energy-OPLS-2005>
122.505157470703

> <r_mmod_Torsional_Energy-OPLS-2005>
254.577438354492

> <r_mmod_Improper_Torsional_Energy-OPLS-2005>
4.37448835372925

> <r_mmod_Van_der_Waal_Energy-OPLS-2005>
127.347633361816

> <r_mmod_Electrostatic_Energy-OPLS-2005>
-294.49462890625

> <r_mmod_Solvation_Energy-OPLS-2005>
-462.276000976562

> <b_mmod_Minimization_Converged-OPLS-2005>
0

> <r_mmod_RMS_Derivative-OPLS-2005>
1.67659902572632

$$$$
68
                    3D
 Structure written by MMmdl.
154162  0  0  1  0            999 V2000
  -30.6775  -14.5257   20.5100 C   0  0  0  0  0  0
  -30.4280  -12.3198   19.4491 C   0  0  0  0  0  0
  -29.5128  -12.4981   18.2197 C   0  0  0  0  0  0
  -28.0295  -12.3621   18.6241 C   0  0  0  0  0  0
  -27.6603  -13.2140   19.8696 C   0  0  2  0  0  0
  -28.7002  -13.0336   21.0002 C   0  0  0  0  0  0
  -25.2584  -13.8164   20.5684 C   0  0  0  0  0  0
  -24.1835  -13.0420   20.9154 C   0  0  0  0  0  0
  -24.6391  -11.6891   20.8691 C   0  0  0  0  0  0
  -23.9033  -10.4287   21.0378 C   0  0  0  0  0  0
  -24.3578   -9.4213   21.9176 C   0  0  0  0  0  0
  -23.6268   -8.2237   22.0752 C   0  0  0  0  0  0
  -22.4262   -8.0268   21.3536 C   0  0  0  0  0  0
  -21.9876   -9.0235   20.4645 C   0  0  0  0  0  0
  -22.7195  -10.2121   20.3047 C   0  0  0  0  0  0
  -21.6849   -6.0715   22.5283 C   0  0  0  0  0  0
  -21.4007   -6.5626   23.8210 C   0  0  0  0  0  0
  -21.3663   -5.6783   24.9177 C   0  0  0  0  0  0
  -21.6056   -4.3041   24.7230 C   0  0  0  0  0  0
  -21.8821   -3.8124   23.4350 C   0  0  0  0  0  0
  -21.9187   -4.6939   22.3406 C   0  0  0  0  0  0
  -22.7872  -13.5231   21.1832 C   0  0  0  0  0  0
  -22.1664   -4.2117   21.0981 F   0  0  0  0  0  0
  -21.5635   -3.4532   25.7742 F   0  0  0  0  0  0
  -30.0279  -13.3310   20.4419 N   0  0  0  0  0  0
  -26.3023  -12.9348   20.3321 N   0  0  0  0  0  0
  -25.9326  -11.6495   20.5695 N   0  0  0  0  0  0
  -22.0500  -12.8242   22.0404 N   0  0  0  0  0  0
  -25.4237  -15.1901   20.4179 N   0  0  0  0  0  0
  -31.8483  -14.6473   20.1346 O   0  0  0  0  0  0
  -21.6638   -6.8859   21.4243 O   0  0  0  0  0  0
  -22.3578  -14.5563   20.6711 O   0  0  0  0  0  0
  -24.6194  -31.8657   23.2091 C   0  0  0  0  0  0
  -25.9069  -32.4816   23.8397 C   0  0  1  0  0  0
  -27.2238  -27.3848   20.0984 C   0  0  0  0  0  0
  -25.5916  -33.8616   24.2317 N   0  0  0  0  0  0
  -23.4085  -30.4922   21.5504 C   0  0  2  0  0  0
  -24.8518  -28.9593   20.1106 C   0  0  0  0  0  0
  -22.7444  -29.4637   22.4968 C   0  0  0  0  0  0
  -18.0282  -28.1394   22.8499 C   0  0  0  0  0  0
  -24.1492  -36.7315   23.2638 C   0  0  0  0  0  0
  -25.9428  -30.8173   21.3708 C   0  0  0  0  0  0
  -26.0148  -29.4490   20.7153 C   0  0  0  0  0  0
  -27.1994  -28.6689   20.7077 C   0  0  0  0  0  0
  -26.0313  -26.9244   19.4878 C   0  0  0  0  0  0
  -24.8591  -27.7008   19.4912 C   0  0  0  0  0  0
  -23.6186  -29.8325   20.1620 C   0  0  0  0  0  0
  -25.4112  -36.3104   24.0329 C   0  0  1  0  0  0
  -20.5878  -28.3665   23.1328 C   0  0  2  0  0  0
  -20.6771  -26.9403   22.5424 C   0  0  0  0  0  0
  -19.5745  -26.6390   21.5228 C   0  0  0  0  0  0
  -18.1924  -26.7940   22.1637 C   0  0  0  0  0  0
  -19.1534  -28.8845   23.2908 C   0  0  0  0  0  0
  -18.9446  -30.1452   23.8918 C   0  0  0  0  0  0
  -17.6437  -30.6583   24.0570 C   0  0  0  0  0  0
  -25.9047  -34.9473   23.5119 C   0  0  0  0  0  0
  -16.5337  -29.9083   23.6326 C   0  0  0  0  0  0
  -16.7264  -28.6510   23.0343 C   0  0  0  0  0  0
  -26.4470  -31.6621   25.0754 C   0  0  0  0  0  0
  -25.3722  -31.3756   26.1501 C   0  0  0  0  0  0
  -27.0273  -30.3053   24.6149 C   0  0  0  0  0  0
  -27.6053  -32.4333   25.7508 C   0  0  0  0  0  0
  -27.5580  -37.1812   24.8455 C   0  0  0  0  0  0
  -21.4160  -29.3026   22.3726 N   0  0  0  0  0  0
  -26.4290  -37.3789   23.9403 N   0  0  0  0  0  0
  -24.6754  -31.0726   22.1021 N   0  0  0  0  0  0
  -23.4216  -28.8171   23.2999 O   0  0  0  0  0  0
  -28.4006  -26.6427   20.1287 O   0  0  0  0  0  0
  -26.5592  -34.8915   22.4672 O   0  0  0  0  0  0
  -23.5373  -32.1419   23.7471 O   0  0  0  0  0  0
  -30.9895  -17.4150   19.5771 C   0  0  0  0  0  0
  -30.7148  -18.8079   19.4454 C   0  0  0  0  0  0
  -30.0942  -16.9186   20.4921 C   0  0  0  0  0  0
  -29.6903  -19.0824   20.3117 C   0  0  0  0  0  0
  -28.7563  -24.2205   20.7035 C   0  0  0  0  0  0
  -30.5428  -21.9359   19.3342 C   0  0  0  0  0  0
  -28.3831  -22.7377   20.4111 C   0  0  0  0  0  0
  -28.4538  -25.2809   19.6138 C   0  0  0  0  0  0
  -29.5324  -21.6709   20.4668 C   0  0  1  0  0  0
  -29.9183  -15.5999   20.8474 N   0  0  0  0  0  0
  -28.9714  -20.2921   20.4768 N   0  0  0  0  0  0
  -29.2769  -24.5379   21.7776 O   0  0  0  0  0  0
  -29.2733  -17.9314   20.9463 O   0  0  0  0  0  0
  -31.4777  -12.4039   19.1605 H   0  0  0  0  0  0
  -30.3196  -11.3198   19.8689 H   0  0  0  0  0  0
  -29.7670  -11.7614   17.4551 H   0  0  0  0  0  0
  -29.6864  -13.4755   17.7679 H   0  0  0  0  0  0
  -27.8429  -11.3081   18.8296 H   0  0  0  0  0  0
  -27.3873  -12.6273   17.7847 H   0  0  0  0  0  0
  -27.6889  -14.2571   19.5527 H   0  0  0  0  0  0
  -28.6837  -12.0107   21.3802 H   0  0  0  0  0  0
  -28.4631  -13.6697   21.8541 H   0  0  0  0  0  0
  -25.2718   -9.5701   22.4753 H   0  0  0  0  0  0
  -23.9973   -7.4648   22.7498 H   0  0  0  0  0  0
  -21.0780   -8.8729   19.8995 H   0  0  0  0  0  0
  -22.3623  -10.9632   19.6143 H   0  0  0  0  0  0
  -21.2002   -7.6132   23.9696 H   0  0  0  0  0  0
  -21.1501   -6.0518   25.9079 H   0  0  0  0  0  0
  -22.0603   -2.7583   23.2854 H   0  0  0  0  0  0
  -22.4045  -11.9850   22.4756 H   0  0  0  0  0  0
  -21.1154  -13.1341   22.2653 H   0  0  0  0  0  0
  -24.6437  -15.8300   20.5296 H   0  0  0  0  0  0
  -26.2730  -15.6510   20.1153 H   0  0  0  0  0  0
  -26.7147  -32.5507   23.1163 H   0  0  0  0  0  0
  -25.0090  -33.9780   25.0481 H   0  0  0  0  0  0
  -22.6986  -31.3105   21.4149 H   0  0  0  0  0  0
  -23.3748  -35.9655   23.3299 H   0  0  0  0  0  0
  -24.3592  -36.8932   22.2053 H   0  0  0  0  0  0
  -23.7246  -37.6517   23.6659 H   0  0  0  0  0  0
  -26.0606  -31.5823   20.6022 H   0  0  0  0  0  0
  -26.8296  -30.8695   21.9907 H   0  0  0  0  0  0
  -28.0949  -29.0432   21.1854 H   0  0  0  0  0  0
  -25.9496  -25.9700   18.9953 H   0  0  0  0  0  0
  -23.9668  -27.3230   19.0119 H   0  0  0  0  0  0
  -23.7311  -30.6110   19.4061 H   0  0  0  0  0  0
  -22.7412  -29.2566   19.8622 H   0  0  0  0  0  0
  -25.1294  -36.1959   25.0821 H   0  0  0  0  0  0
  -20.9973  -28.3219   24.1446 H   0  0  0  0  0  0
  -20.5692  -26.2264   23.3605 H   0  0  0  0  0  0
  -21.6636  -26.7449   22.1197 H   0  0  0  0  0  0
  -19.6891  -25.6299   21.1246 H   0  0  0  0  0  0
  -19.6691  -27.3213   20.6770 H   0  0  0  0  0  0
  -17.4199  -26.6707   21.4030 H   0  0  0  0  0  0
  -18.0303  -26.0082   22.9031 H   0  0  0  0  0  0
  -19.7920  -30.7276   24.2305 H   0  0  0  0  0  0
  -17.4988  -31.6267   24.5164 H   0  0  0  0  0  0
  -15.5339  -30.2982   23.7636 H   0  0  0  0  0  0
  -15.8679  -28.0830   22.7040 H   0  0  0  0  0  0
  -24.5882  -30.7124   25.7833 H   0  0  0  0  0  0
  -24.8941  -32.2928   26.4947 H   0  0  0  0  0  0
  -25.8065  -30.8915   27.0258 H   0  0  0  0  0  0
  -26.2815  -29.6859   24.1164 H   0  0  0  0  0  0
  -27.3965  -29.7260   25.4616 H   0  0  0  0  0  0
  -27.8692  -30.4345   23.9352 H   0  0  0  0  0  0
  -27.2691  -33.3633   26.2099 H   0  0  0  0  0  0
  -28.3862  -32.6890   25.0337 H   0  0  0  0  0  0
  -28.0728  -31.8453   26.5412 H   0  0  0  0  0  0
  -28.2592  -38.0114   24.7501 H   0  0  0  0  0  0
  -28.1077  -36.2642   24.6278 H   0  0  0  0  0  0
  -27.2302  -37.1457   25.8858 H   0  0  0  0  0  0
  -20.9331  -29.8769   21.6963 H   0  0  0  0  0  0
  -26.0176  -38.2861   24.1409 H   0  0  0  0  0  0
  -31.7300  -16.8601   19.0182 H   0  0  0  0  0  0
  -31.2019  -19.4750   18.7548 H   0  0  0  0  0  0
  -30.8198  -22.9884   19.2834 H   0  0  0  0  0  0
  -30.1468  -21.6551   18.3571 H   0  0  0  0  0  0
  -31.4824  -21.4139   19.5035 H   0  0  0  0  0  0
  -27.8985  -22.6965   19.4352 H   0  0  0  0  0  0
  -27.6140  -22.4728   21.1375 H   0  0  0  0  0  0
  -27.5804  -24.9588   19.0585 H   0  0  0  0  0  0
  -29.2733  -25.2387   18.8965 H   0  0  0  0  0  0
  -30.0626  -21.8077   21.4110 H   0  0  0  0  0  0
  -29.0191  -15.3729   21.2438 H   0  0  0  0  0  0
  -28.1621  -20.1895   21.0848 H   0  0  0  0  0  0
  1 25  1  0  0  0
  1 30  2  0  0  0
  1 80  1  0  0  0
  2  3  1  0  0  0
  2 25  1  0  0  0
  2 84  1  0  0  0
  2 85  1  0  0  0
  3  4  1  0  0  0
  3 86  1  0  0  0
  3 87  1  0  0  0
  4  5  1  0  0  0
  4 88  1  0  0  0
  4 89  1  0  0  0
  5  6  1  0  0  0
  5 26  1  0  0  0
  5 90  1  0  0  0
  6 25  1  0  0  0
  6 91  1  0  0  0
  6 92  1  0  0  0
  7  8  2  0  0  0
  7 26  1  0  0  0
  7 29  1  0  0  0
  8  9  1  0  0  0
  8 22  1  0  0  0
  9 10  1  0  0  0
  9 27  2  0  0  0
 10 11  2  0  0  0
 10 15  1  0  0  0
 11 12  1  0  0  0
 11 93  1  0  0  0
 12 13  2  0  0  0
 12 94  1  0  0  0
 13 14  1  0  0  0
 13 31  1  0  0  0
 14 15  2  0  0  0
 14 95  1  0  0  0
 15 96  1  0  0  0
 16 17  2  0  0  0
 16 21  1  0  0  0
 16 31  1  0  0  0
 17 18  1  0  0  0
 17 97  1  0  0  0
 18 19  2  0  0  0
 18 98  1  0  0  0
 19 20  1  0  0  0
 19 24  1  0  0  0
 20 21  2  0  0  0
 20 99  1  0  0  0
 21 23  1  0  0  0
 22 28  1  0  0  0
 22 32  2  0  0  0
 26 27  1  0  0  0
 28100  1  0  0  0
 28101  1  0  0  0
 29102  1  0  0  0
 29103  1  0  0  0
 33 34  1  0  0  0
 33 66  1  0  0  0
 33 70  2  0  0  0
 34 36  1  0  0  0
 34 59  1  0  0  0
 34104  1  0  0  0
 35 44  2  0  0  0
 35 45  1  0  0  0
 35 68  1  0  0  0
 36 56  1  0  0  0
 36105  1  0  0  0
 37 39  1  0  0  0
 37 47  1  0  0  0
 37 66  1  0  0  0
 37106  1  0  0  0
 38 43  2  0  0  0
 38 46  1  0  0  0
 38 47  1  0  0  0
 39 64  1  0  0  0
 39 67  2  0  0  0
 40 52  1  0  0  0
 40 53  2  0  0  0
 40 58  1  0  0  0
 41107  1  0  0  0
 41108  1  0  0  0
 41109  1  0  0  0
 41 48  1  0  0  0
 42 43  1  0  0  0
 42 66  1  0  0  0
 42110  1  0  0  0
 42111  1  0  0  0
 43 44  1  0  0  0
 44112  1  0  0  0
 45 46  2  0  0  0
 45113  1  0  0  0
 46114  1  0  0  0
 47115  1  0  0  0
 47116  1  0  0  0
 48 56  1  0  0  0
 48 65  1  0  0  0
 48117  1  0  0  0
 49 50  1  0  0  0
 49 53  1  0  0  0
 49 64  1  0  0  0
 49118  1  0  0  0
 50 51  1  0  0  0
 50119  1  0  0  0
 50120  1  0  0  0
 51 52  1  0  0  0
 51121  1  0  0  0
 51122  1  0  0  0
 52123  1  0  0  0
 52124  1  0  0  0
 53 54  1  0  0  0
 54 55  2  0  0  0
 54125  1  0  0  0
 55 57  1  0  0  0
 55126  1  0  0  0
 56 69  2  0  0  0
 57 58  2  0  0  0
 57127  1  0  0  0
 58128  1  0  0  0
 59 60  1  0  0  0
 59 61  1  0  0  0
 59 62  1  0  0  0
 60129  1  0  0  0
 60130  1  0  0  0
 60131  1  0  0  0
 61132  1  0  0  0
 61133  1  0  0  0
 61134  1  0  0  0
 62135  1  0  0  0
 62136  1  0  0  0
 62137  1  0  0  0
 63 65  1  0  0  0
 63138  1  0  0  0
 63139  1  0  0  0
 63140  1  0  0  0
 64141  1  0  0  0
 65142  1  0  0  0
 68 78  1  0  0  0
 71 72  1  0  0  0
 71 73  2  0  0  0
 71143  1  0  0  0
 72 74  2  0  0  0
 72144  1  0  0  0
 73 80  1  0  0  0
 73 83  1  0  0  0
 74 81  1  0  0  0
 74 83  1  0  0  0
 75 77  1  0  0  0
 75 78  1  0  0  0
 75 82  2  0  0  0
 76145  1  0  0  0
 76146  1  0  0  0
 76147  1  0  0  0
 76 79  1  0  0  0
 77 79  1  0  0  0
 77148  1  0  0  0
 77149  1  0  0  0
 78150  1  0  0  0
 78151  1  0  0  0
 79 81  1  0  0  0
 79152  1  0  0  0
 80153  1  0  0  0
 81154  1  0  0  0
M  ISO  4   1 100  68 101  78 101  80 100
M  END
> <chiral flag>
0

> <version>
0

> <s_m_source_file>
/data/baiqing/PycharmProjects/Reinvent-master-3.2/result/LINK_invent/BTK/process_docking_weight1_custom_product_contain_oxygen_bond_distance_aromatic_linkinvent_7_9_3/rearranged_h_0147.sdf

> <i_m_source_file_index>
69

> <r_mmod_Potential_Energy-OPLS-2005>
-12.9615745544434

> <r_mmod_Stretch_Energy-OPLS-2005>
48.5158805847168

> <r_mmod_Bend_Energy-OPLS-2005>
138.951812744141

> <r_mmod_Torsional_Energy-OPLS-2005>
213.604705810547

> <r_mmod_Improper_Torsional_Energy-OPLS-2005>
7.44317388534546

> <r_mmod_Van_der_Waal_Energy-OPLS-2005>
141.054748535156

> <r_mmod_Electrostatic_Energy-OPLS-2005>
-348.446899414062

> <r_mmod_Solvation_Energy-OPLS-2005>
-236.950592041016

> <b_mmod_Minimization_Converged-OPLS-2005>
0

> <r_mmod_RMS_Derivative-OPLS-2005>
2.47838544845581

$$$$
69
                    3D
 Structure written by MMmdl.
166175  0  0  1  0            999 V2000
  -30.6661  -14.5953   20.4995 C   0  0  0  0  0  0
  -30.4224  -12.3629   19.4515 C   0  0  0  0  0  0
  -29.5027  -12.4983   18.2203 C   0  0  0  0  0  0
  -28.0253  -12.3458   18.6311 C   0  0  0  0  0  0
  -27.6515  -13.2185   19.8598 C   0  0  2  0  0  0
  -28.6947  -13.0829   20.9918 C   0  0  0  0  0  0
  -25.2546  -13.8172   20.5679 C   0  0  0  0  0  0
  -24.1818  -13.0433   20.9188 C   0  0  0  0  0  0
  -24.6382  -11.6907   20.8726 C   0  0  0  0  0  0
  -23.9055  -10.4292   21.0397 C   0  0  0  0  0  0
  -24.3610   -9.4208   21.9177 C   0  0  0  0  0  0
  -23.6291   -8.2235   22.0746 C   0  0  0  0  0  0
  -22.4269   -8.0273   21.3539 C   0  0  0  0  0  0
  -21.9895   -9.0250   20.4645 C   0  0  0  0  0  0
  -22.7219  -10.2134   20.3050 C   0  0  0  0  0  0
  -21.6850   -6.0720   22.5277 C   0  0  0  0  0  0
  -21.4013   -6.5631   23.8214 C   0  0  0  0  0  0
  -21.3660   -5.6784   24.9176 C   0  0  0  0  0  0
  -21.6047   -4.3046   24.7227 C   0  0  0  0  0  0
  -21.8826   -3.8135   23.4347 C   0  0  0  0  0  0
  -21.9193   -4.6945   22.3400 C   0  0  0  0  0  0
  -22.7843  -13.5231   21.1857 C   0  0  0  0  0  0
  -22.1666   -4.2136   21.0977 F   0  0  0  0  0  0
  -21.5632   -3.4533   25.7738 F   0  0  0  0  0  0
  -30.0122  -13.3963   20.4219 N   0  0  0  0  0  0
  -26.2976  -12.9358   20.3298 N   0  0  0  0  0  0
  -25.9312  -11.6507   20.5731 N   0  0  0  0  0  0
  -22.0488  -12.8225   22.0414 N   0  0  0  0  0  0
  -25.4253  -15.1896   20.4095 N   0  0  0  0  0  0
  -31.8396  -14.6989   20.1343 O   0  0  0  0  0  0
  -21.6635   -6.8865   21.4238 O   0  0  0  0  0  0
  -22.3536  -14.5547   20.6711 O   0  0  0  0  0  0
  -24.6227  -31.8626   23.2059 C   0  0  0  0  0  0
  -25.9088  -32.4799   23.8372 C   0  0  1  0  0  0
  -27.2207  -27.3495   20.1046 C   0  0  0  0  0  0
  -25.5912  -33.8596   24.2295 N   0  0  0  0  0  0
  -23.4140  -30.4884   21.5480 C   0  0  2  0  0  0
  -24.8576  -28.9484   20.1115 C   0  0  0  0  0  0
  -22.7459  -29.4637   22.4953 C   0  0  0  0  0  0
  -18.0284  -28.1380   22.8486 C   0  0  0  0  0  0
  -24.1490  -36.7314   23.2636 C   0  0  0  0  0  0
  -25.9527  -30.8033   21.3709 C   0  0  0  0  0  0
  -26.0252  -29.4327   20.7136 C   0  0  0  0  0  0
  -27.2089  -28.6438   20.7019 C   0  0  0  0  0  0
  -26.0265  -26.9084   19.4853 C   0  0  0  0  0  0
  -24.8582  -27.6907   19.4911 C   0  0  0  0  0  0
  -23.6257  -29.8260   20.1618 C   0  0  0  0  0  0
  -25.4114  -36.3099   24.0329 C   0  0  1  0  0  0
  -20.5880  -28.3678   23.1299 C   0  0  2  0  0  0
  -20.6771  -26.9406   22.5415 C   0  0  0  0  0  0
  -19.5752  -26.6386   21.5211 C   0  0  0  0  0  0
  -18.1931  -26.7926   22.1618 C   0  0  0  0  0  0
  -19.1534  -28.8848   23.2889 C   0  0  0  0  0  0
  -18.9454  -30.1449   23.8908 C   0  0  0  0  0  0
  -17.6454  -30.6583   24.0564 C   0  0  0  0  0  0
  -25.9044  -34.9465   23.5113 C   0  0  0  0  0  0
  -16.5348  -29.9084   23.6322 C   0  0  0  0  0  0
  -16.7271  -28.6501   23.0346 C   0  0  0  0  0  0
  -26.4476  -31.6602   25.0730 C   0  0  0  0  0  0
  -25.3723  -31.3751   26.1475 C   0  0  0  0  0  0
  -27.0291  -30.3023   24.6162 C   0  0  0  0  0  0
  -27.6047  -32.4325   25.7492 C   0  0  0  0  0  0
  -27.5583  -37.1820   24.8461 C   0  0  0  0  0  0
  -21.4177  -29.3039   22.3700 N   0  0  0  0  0  0
  -26.4299  -37.3785   23.9398 N   0  0  0  0  0  0
  -24.6823  -31.0673   22.0990 N   0  0  0  0  0  0
  -23.4205  -28.8171   23.3009 O   0  0  0  0  0  0
  -28.3585  -26.5381   20.1496 O   0  0  0  0  0  0
  -26.5609  -34.8923   22.4677 O   0  0  0  0  0  0
  -23.5400  -32.1401   23.7414 O   0  0  0  0  0  0
  -31.5020  -17.6071   20.7264 C   0  0  0  0  0  0
  -31.5430  -19.0394   20.6444 C   0  0  0  0  0  0
  -30.2990  -19.6410   20.5830 C   0  0  0  0  0  0
  -30.2496  -17.0385   20.7281 C   0  0  0  0  0  0
  -29.4746  -21.6739   19.1107 C   0  0  0  0  0  0
  -29.2272  -21.9120   21.5186 C   0  0  0  0  0  0
  -29.7956  -23.1850   18.9021 C   0  0  0  0  0  0
  -29.4878  -23.4593   21.4754 C   0  0  0  0  0  0
  -30.0434  -21.1654   20.4442 C   0  0  1  0  0  0
  -29.5050  -24.2069   20.0781 C   0  0  2  0  0  0
  -33.2487  -20.2208   19.2058 C   0  0  0  0  0  0
  -32.8606  -19.7654   20.6177 C   0  0  0  0  0  0
  -28.2235  -25.1092   19.8173 C   0  0  0  0  0  0
  -29.9059  -15.6964   20.7911 N   0  0  0  0  0  0
  -30.6296  -25.1752   20.0959 N   0  3  0  0  0  0
  -29.0674  -18.3663   20.6496 S   0  0  0  0  0  0
  -31.4682  -12.4570   19.1540 H   0  0  0  0  0  0
  -30.3272  -11.3698   19.8932 H   0  0  0  0  0  0
  -29.7619  -11.7471   17.4730 H   0  0  0  0  0  0
  -29.6562  -13.4695   17.7469 H   0  0  0  0  0  0
  -27.8566  -11.2936   18.8617 H   0  0  0  0  0  0
  -27.3728  -12.5800   17.7894 H   0  0  0  0  0  0
  -27.6698  -14.2532   19.5170 H   0  0  0  0  0  0
  -28.6935  -12.0706   21.3988 H   0  0  0  0  0  0
  -28.4498  -13.7410   21.8265 H   0  0  0  0  0  0
  -25.2759   -9.5682   22.4748 H   0  0  0  0  0  0
  -24.0008   -7.4617   22.7461 H   0  0  0  0  0  0
  -21.0821   -8.8755   19.8961 H   0  0  0  0  0  0
  -22.3665  -10.9663   19.6158 H   0  0  0  0  0  0
  -21.2000   -7.6137   23.9709 H   0  0  0  0  0  0
  -21.1485   -6.0516   25.9085 H   0  0  0  0  0  0
  -22.0602   -2.7593   23.2846 H   0  0  0  0  0  0
  -22.4096  -11.9884   22.4797 H   0  0  0  0  0  0
  -21.1101  -13.1253   22.2618 H   0  0  0  0  0  0
  -24.6561  -15.8406   20.5255 H   0  0  0  0  0  0
  -26.2675  -15.6322   20.0641 H   0  0  0  0  0  0
  -26.7157  -32.5477   23.1124 H   0  0  0  0  0  0
  -25.0056  -33.9747   25.0436 H   0  0  0  0  0  0
  -22.7051  -31.3075   21.4091 H   0  0  0  0  0  0
  -23.3740  -35.9663   23.3319 H   0  0  0  0  0  0
  -24.3580  -36.8910   22.2047 H   0  0  0  0  0  0
  -23.7266  -37.6534   23.6640 H   0  0  0  0  0  0
  -26.0781  -31.5673   20.6023 H   0  0  0  0  0  0
  -26.8358  -30.8525   21.9965 H   0  0  0  0  0  0
  -28.1069  -29.0126   21.1769 H   0  0  0  0  0  0
  -25.9574  -25.9500   18.9933 H   0  0  0  0  0  0
  -23.9606  -27.3158   19.0175 H   0  0  0  0  0  0
  -23.7447  -30.6034   19.4063 H   0  0  0  0  0  0
  -22.7457  -29.2552   19.8597 H   0  0  0  0  0  0
  -25.1296  -36.1959   25.0823 H   0  0  0  0  0  0
  -20.9970  -28.3249   24.1421 H   0  0  0  0  0  0
  -20.5671  -26.2289   23.3611 H   0  0  0  0  0  0
  -21.6643  -26.7440   22.1213 H   0  0  0  0  0  0
  -19.6914  -25.6300   21.1240 H   0  0  0  0  0  0
  -19.6694  -27.3199   20.6746 H   0  0  0  0  0  0
  -17.4202  -26.6675   21.4019 H   0  0  0  0  0  0
  -18.0328  -26.0068   22.9015 H   0  0  0  0  0  0
  -19.7931  -30.7257   24.2293 H   0  0  0  0  0  0
  -17.5010  -31.6265   24.5162 H   0  0  0  0  0  0
  -15.5349  -30.2987   23.7644 H   0  0  0  0  0  0
  -15.8671  -28.0826   22.7052 H   0  0  0  0  0  0
  -24.5875  -30.7118   25.7822 H   0  0  0  0  0  0
  -24.8939  -32.2926   26.4912 H   0  0  0  0  0  0
  -25.8055  -30.8924   27.0244 H   0  0  0  0  0  0
  -26.2845  -29.6808   24.1172 H   0  0  0  0  0  0
  -27.3970  -29.7247   25.4653 H   0  0  0  0  0  0
  -27.8729  -30.4306   23.9378 H   0  0  0  0  0  0
  -27.2665  -33.3624   26.2076 H   0  0  0  0  0  0
  -28.3848  -32.6890   25.0313 H   0  0  0  0  0  0
  -28.0721  -31.8446   26.5402 H   0  0  0  0  0  0
  -28.2616  -38.0099   24.7471 H   0  0  0  0  0  0
  -28.1056  -36.2629   24.6321 H   0  0  0  0  0  0
  -27.2300  -37.1521   25.8863 H   0  0  0  0  0  0
  -20.9349  -29.8772   21.6926 H   0  0  0  0  0  0
  -26.0186  -38.2869   24.1366 H   0  0  0  0  0  0
  -32.4242  -17.0453   20.7761 H   0  0  0  0  0  0
  -29.9205  -21.1121   18.2890 H   0  0  0  0  0  0
  -28.4011  -21.4891   19.0544 H   0  0  0  0  0  0
  -28.1636  -21.6951   21.4076 H   0  0  0  0  0  0
  -29.5052  -21.5413   22.5063 H   0  0  0  0  0  0
  -29.3197  -23.5144   17.9772 H   0  0  0  0  0  0
  -30.8615  -23.2139   18.6666 H   0  0  0  0  0  0
  -30.4587  -23.5925   21.9553 H   0  0  0  0  0  0
  -28.7908  -23.9565   22.1520 H   0  0  0  0  0  0
  -31.0302  -21.6179   20.5116 H   0  0  0  0  0  0
  -34.2138  -20.7276   19.2138 H   0  0  0  0  0  0
  -32.5174  -20.9124   18.7875 H   0  0  0  0  0  0
  -33.3267  -19.3707   18.5280 H   0  0  0  0  0  0
  -33.6519  -19.1184   20.9999 H   0  0  0  0  0  0
  -32.8486  -20.6177   21.2971 H   0  0  0  0  0  0
  -27.3698  -24.6719   20.3376 H   0  0  0  0  0  0
  -27.9813  -25.0669   18.7550 H   0  0  0  0  0  0
  -28.9363  -15.4975   20.9829 H   0  0  0  0  0  0
  -31.5070  -24.7410   20.3274 H   0  0  0  0  0  0
  -30.4404  -25.8998   20.7694 H   0  0  0  0  0  0
  -30.7249  -25.6281   19.2021 H   0  0  0  0  0  0
  1 25  1  0  0  0
  1 30  2  0  0  0
  1 84  1  0  0  0
  2  3  1  0  0  0
  2 25  1  0  0  0
  2 87  1  0  0  0
  2 88  1  0  0  0
  3  4  1  0  0  0
  3 89  1  0  0  0
  3 90  1  0  0  0
  4  5  1  0  0  0
  4 91  1  0  0  0
  4 92  1  0  0  0
  5  6  1  0  0  0
  5 26  1  0  0  0
  5 93  1  0  0  0
  6 25  1  0  0  0
  6 94  1  0  0  0
  6 95  1  0  0  0
  7  8  2  0  0  0
  7 26  1  0  0  0
  7 29  1  0  0  0
  8  9  1  0  0  0
  8 22  1  0  0  0
  9 10  1  0  0  0
  9 27  2  0  0  0
 10 11  2  0  0  0
 10 15  1  0  0  0
 11 12  1  0  0  0
 11 96  1  0  0  0
 12 13  2  0  0  0
 12 97  1  0  0  0
 13 14  1  0  0  0
 13 31  1  0  0  0
 14 15  2  0  0  0
 14 98  1  0  0  0
 15 99  1  0  0  0
 16 17  2  0  0  0
 16 21  1  0  0  0
 16 31  1  0  0  0
 17 18  1  0  0  0
 17100  1  0  0  0
 18 19  2  0  0  0
 18101  1  0  0  0
 19 20  1  0  0  0
 19 24  1  0  0  0
 20 21  2  0  0  0
 20102  1  0  0  0
 21 23  1  0  0  0
 22 28  1  0  0  0
 22 32  2  0  0  0
 26 27  1  0  0  0
 28103  1  0  0  0
 28104  1  0  0  0
 29105  1  0  0  0
 29106  1  0  0  0
 33 34  1  0  0  0
 33 66  1  0  0  0
 33 70  2  0  0  0
 34 36  1  0  0  0
 34 59  1  0  0  0
 34107  1  0  0  0
 35 44  2  0  0  0
 35 45  1  0  0  0
 35 68  1  0  0  0
 36 56  1  0  0  0
 36108  1  0  0  0
 37 39  1  0  0  0
 37 47  1  0  0  0
 37 66  1  0  0  0
 37109  1  0  0  0
 38 43  2  0  0  0
 38 46  1  0  0  0
 38 47  1  0  0  0
 39 64  1  0  0  0
 39 67  2  0  0  0
 40 52  1  0  0  0
 40 53  2  0  0  0
 40 58  1  0  0  0
 41110  1  0  0  0
 41111  1  0  0  0
 41112  1  0  0  0
 41 48  1  0  0  0
 42 43  1  0  0  0
 42 66  1  0  0  0
 42113  1  0  0  0
 42114  1  0  0  0
 43 44  1  0  0  0
 44115  1  0  0  0
 45 46  2  0  0  0
 45116  1  0  0  0
 46117  1  0  0  0
 47118  1  0  0  0
 47119  1  0  0  0
 48 56  1  0  0  0
 48 65  1  0  0  0
 48120  1  0  0  0
 49 50  1  0  0  0
 49 53  1  0  0  0
 49 64  1  0  0  0
 49121  1  0  0  0
 50 51  1  0  0  0
 50122  1  0  0  0
 50123  1  0  0  0
 51 52  1  0  0  0
 51124  1  0  0  0
 51125  1  0  0  0
 52126  1  0  0  0
 52127  1  0  0  0
 53 54  1  0  0  0
 54 55  2  0  0  0
 54128  1  0  0  0
 55 57  1  0  0  0
 55129  1  0  0  0
 56 69  2  0  0  0
 57 58  2  0  0  0
 57130  1  0  0  0
 58131  1  0  0  0
 59 60  1  0  0  0
 59 61  1  0  0  0
 59 62  1  0  0  0
 60132  1  0  0  0
 60133  1  0  0  0
 60134  1  0  0  0
 61135  1  0  0  0
 61136  1  0  0  0
 61137  1  0  0  0
 62138  1  0  0  0
 62139  1  0  0  0
 62140  1  0  0  0
 63 65  1  0  0  0
 63141  1  0  0  0
 63142  1  0  0  0
 63143  1  0  0  0
 64144  1  0  0  0
 65145  1  0  0  0
 68 83  1  0  0  0
 71 72  1  0  0  0
 71 74  2  0  0  0
 71146  1  0  0  0
 72 73  2  0  0  0
 72 82  1  0  0  0
 73 86  1  0  0  0
 73 79  1  0  0  0
 74 84  1  0  0  0
 74 86  1  0  0  0
 75 77  1  0  0  0
 75 79  1  0  0  0
 75147  1  0  0  0
 75148  1  0  0  0
 76 78  1  0  0  0
 76 79  1  0  0  0
 76149  1  0  0  0
 76150  1  0  0  0
 77 80  1  0  0  0
 77151  1  0  0  0
 77152  1  0  0  0
 78 80  1  0  0  0
 78153  1  0  0  0
 78154  1  0  0  0
 79155  1  0  0  0
 80 83  1  0  0  0
 80 85  1  0  0  0
 81 82  1  0  0  0
 81156  1  0  0  0
 81157  1  0  0  0
 81158  1  0  0  0
 82159  1  0  0  0
 82160  1  0  0  0
 83161  1  0  0  0
 83162  1  0  0  0
 84163  1  0  0  0
 85164  1  0  0  0
 85165  1  0  0  0
 85166  1  0  0  0
M  CHG  1  85   1
M  ISO  4   1 100  68 101  83 101  84 100
M  END
> <chiral flag>
0

> <version>
0

> <s_m_source_file>
/data/baiqing/PycharmProjects/Reinvent-master-3.2/result/LINK_invent/BTK/process_docking_weight1_custom_product_contain_oxygen_bond_distance_aromatic_linkinvent_7_9_3/rearranged_h_0147.sdf

> <i_m_source_file_index>
70

> <r_mmod_Potential_Energy-OPLS-2005>
-109.626777648926

> <r_mmod_Stretch_Energy-OPLS-2005>
68.4623413085938

> <r_mmod_Bend_Energy-OPLS-2005>
151.963119506836

> <r_mmod_Torsional_Energy-OPLS-2005>
252.668914794922

> <r_mmod_Improper_Torsional_Energy-OPLS-2005>
4.79782772064209

> <r_mmod_Van_der_Waal_Energy-OPLS-2005>
138.499252319336

> <r_mmod_Electrostatic_Energy-OPLS-2005>
-313.205963134766

> <r_mmod_Solvation_Energy-OPLS-2005>
-449.467834472656

> <b_mmod_Minimization_Converged-OPLS-2005>
0

> <r_mmod_RMS_Derivative-OPLS-2005>
1.30919444561005

$$$$
70
                    3D
 Structure written by MMmdl.
160169  0  0  1  0            999 V2000
  -30.6666  -14.5116   20.6040 C   0  0  0  0  0  0
  -30.4418  -12.3353   19.4281 C   0  0  0  0  0  0
  -29.5095  -12.5068   18.2091 C   0  0  0  0  0  0
  -28.0291  -12.3627   18.6141 C   0  0  0  0  0  0
  -27.6668  -13.1969   19.8713 C   0  0  2  0  0  0
  -28.7066  -12.9639   20.9911 C   0  0  0  0  0  0
  -25.2610  -13.8115   20.5596 C   0  0  0  0  0  0
  -24.1860  -13.0416   20.9158 C   0  0  0  0  0  0
  -24.6402  -11.6879   20.8728 C   0  0  0  0  0  0
  -23.9041  -10.4284   21.0431 C   0  0  0  0  0  0
  -24.3598   -9.4199   21.9214 C   0  0  0  0  0  0
  -23.6256   -8.2249   22.0792 C   0  0  0  0  0  0
  -22.4249   -8.0296   21.3570 C   0  0  0  0  0  0
  -21.9866   -9.0272   20.4676 C   0  0  0  0  0  0
  -22.7214  -10.2137   20.3074 C   0  0  0  0  0  0
  -21.6864   -6.0714   22.5273 C   0  0  0  0  0  0
  -21.4021   -6.5629   23.8203 C   0  0  0  0  0  0
  -21.3651   -5.6784   24.9159 C   0  0  0  0  0  0
  -21.6044   -4.3041   24.7221 C   0  0  0  0  0  0
  -21.8841   -3.8129   23.4344 C   0  0  0  0  0  0
  -21.9203   -4.6931   22.3391 C   0  0  0  0  0  0
  -22.7887  -13.5235   21.1808 C   0  0  0  0  0  0
  -22.1693   -4.2119   21.0972 F   0  0  0  0  0  0
  -21.5591   -3.4544   25.7732 F   0  0  0  0  0  0
  -30.0391  -13.3064   20.4580 N   0  0  0  0  0  0
  -26.3043  -12.9262   20.3269 N   0  0  0  0  0  0
  -25.9310  -11.6434   20.5698 N   0  0  0  0  0  0
  -22.0495  -12.8289   22.0373 N   0  0  0  0  0  0
  -25.4307  -15.1818   20.3906 N   0  0  0  0  0  0
  -31.7650  -14.7604   20.0950 O   0  0  0  0  0  0
  -21.6640   -6.8865   21.4240 O   0  0  0  0  0  0
  -22.3598  -14.5549   20.6636 O   0  0  0  0  0  0
  -24.6153  -31.8661   23.2071 C   0  0  0  0  0  0
  -25.9058  -32.4797   23.8367 C   0  0  1  0  0  0
  -27.2332  -27.4147   20.1089 C   0  0  0  0  0  0
  -25.5934  -33.8599   24.2335 N   0  0  0  0  0  0
  -23.4035  -30.4888   21.5469 C   0  0  2  0  0  0
  -24.8530  -28.9503   20.1126 C   0  0  0  0  0  0
  -22.7415  -29.4640   22.4956 C   0  0  0  0  0  0
  -18.0295  -28.1347   22.8491 C   0  0  0  0  0  0
  -24.1493  -36.7286   23.2629 C   0  0  0  0  0  0
  -25.9341  -30.8247   21.3649 C   0  0  0  0  0  0
  -26.0141  -29.4572   20.7137 C   0  0  0  0  0  0
  -27.2084  -28.6964   20.7120 C   0  0  0  0  0  0
  -26.0622  -26.9278   19.4961 C   0  0  0  0  0  0
  -24.8723  -27.6848   19.5016 C   0  0  0  0  0  0
  -23.6138  -29.8189   20.1620 C   0  0  0  0  0  0
  -25.4097  -36.3082   24.0351 C   0  0  1  0  0  0
  -20.5885  -28.3638   23.1291 C   0  0  2  0  0  0
  -20.6779  -26.9364   22.5410 C   0  0  0  0  0  0
  -19.5755  -26.6356   21.5202 C   0  0  0  0  0  0
  -18.1936  -26.7889   22.1610 C   0  0  0  0  0  0
  -19.1549  -28.8807   23.2883 C   0  0  0  0  0  0
  -18.9479  -30.1423   23.8865 C   0  0  0  0  0  0
  -17.6484  -30.6550   24.0552 C   0  0  0  0  0  0
  -25.9050  -34.9461   23.5136 C   0  0  0  0  0  0
  -16.5381  -29.9050   23.6318 C   0  0  0  0  0  0
  -16.7283  -28.6474   23.0328 C   0  0  0  0  0  0
  -26.4500  -31.6551   25.0670 C   0  0  0  0  0  0
  -25.3812  -31.3686   26.1457 C   0  0  0  0  0  0
  -27.0264  -30.2961   24.6029 C   0  0  0  0  0  0
  -27.6087  -32.4238   25.7434 C   0  0  0  0  0  0
  -27.5605  -37.1752   24.8438 C   0  0  0  0  0  0
  -21.4148  -29.3005   22.3684 N   0  0  0  0  0  0
  -26.4261  -37.3790   23.9460 N   0  0  0  0  0  0
  -24.6683  -31.0758   22.0972 N   0  0  0  0  0  0
  -23.4180  -28.8195   23.3008 O   0  0  0  0  0  0
  -28.3567  -26.6111   20.1239 O   0  0  0  0  0  0
  -26.5584  -34.8920   22.4681 O   0  0  0  0  0  0
  -23.5351  -32.1428   23.7471 O   0  0  0  0  0  0
  -28.3181  -18.7495   20.8208 C   0  0  0  0  0  0
  -30.6604  -19.1703   21.2624 C   0  0  0  0  0  0
  -28.5563  -17.3597   20.8749 C   0  0  0  0  0  0
  -30.9048  -17.7659   21.3004 C   0  0  0  0  0  0
  -29.3550  -19.6852   21.0399 C   0  0  0  0  0  0
  -29.8468  -16.8417   21.1190 C   0  0  0  0  0  0
  -28.9479  -21.9324   19.7423 C   0  0  0  0  0  0
  -29.8160  -22.0512   22.0875 C   0  0  0  0  0  0
  -28.3273  -23.3561   19.8790 C   0  0  0  0  0  0
  -29.2203  -23.4757   22.2424 C   0  0  0  0  0  0
  -28.9911  -21.1946   21.1013 C   0  0  2  0  0  0
  -29.0555  -24.2597   20.9085 C   0  0  2  0  0  0
  -28.3305  -25.6239   21.1782 C   0  0  0  0  0  0
  -29.9627  -15.4228   21.3112 N   0  0  0  0  0  0
  -31.4818  -12.4645   19.1271 H   0  0  0  0  0  0
  -30.3692  -11.3209   19.8259 H   0  0  0  0  0  0
  -29.7637  -11.7728   17.4423 H   0  0  0  0  0  0
  -29.6734  -13.4879   17.7589 H   0  0  0  0  0  0
  -27.8394  -11.3050   18.8040 H   0  0  0  0  0  0
  -27.3849  -12.6385   17.7790 H   0  0  0  0  0  0
  -27.7119  -14.2457   19.5798 H   0  0  0  0  0  0
  -28.6963  -11.9154   21.2971 H   0  0  0  0  0  0
  -28.4418  -13.5221   21.8886 H   0  0  0  0  0  0
  -25.2780   -9.5634   22.4749 H   0  0  0  0  0  0
  -23.9956   -7.4635   22.7520 H   0  0  0  0  0  0
  -21.0785   -8.8810   19.8992 H   0  0  0  0  0  0
  -22.3737  -10.9666   19.6139 H   0  0  0  0  0  0
  -21.2059   -7.6145   23.9704 H   0  0  0  0  0  0
  -21.1432   -6.0511   25.9060 H   0  0  0  0  0  0
  -22.0629   -2.7574   23.2875 H   0  0  0  0  0  0
  -22.4036  -11.9936   22.4799 H   0  0  0  0  0  0
  -21.1142  -13.1429   22.2542 H   0  0  0  0  0  0
  -24.6524  -15.8299   20.4574 H   0  0  0  0  0  0
  -26.2392  -15.5860   19.9375 H   0  0  0  0  0  0
  -26.7094  -32.5491   23.1101 H   0  0  0  0  0  0
  -25.0128  -33.9748   25.0503 H   0  0  0  0  0  0
  -22.6915  -31.3045   21.4078 H   0  0  0  0  0  0
  -23.3778  -35.9585   23.3198 H   0  0  0  0  0  0
  -24.3647  -36.8982   22.2069 H   0  0  0  0  0  0
  -23.7200  -37.6447   23.6689 H   0  0  0  0  0  0
  -26.0532  -31.5891   20.5955 H   0  0  0  0  0  0
  -26.8185  -30.8743   21.9875 H   0  0  0  0  0  0
  -28.0994  -29.0756   21.1916 H   0  0  0  0  0  0
  -26.0659  -25.9529   19.0285 H   0  0  0  0  0  0
  -23.9795  -27.2853   19.0413 H   0  0  0  0  0  0
  -23.7188  -30.5939   19.4022 H   0  0  0  0  0  0
  -22.7355  -29.2439   19.8667 H   0  0  0  0  0  0
  -25.1249  -36.1925   25.0830 H   0  0  0  0  0  0
  -20.9999  -28.3225   24.1405 H   0  0  0  0  0  0
  -20.5658  -26.2253   23.3605 H   0  0  0  0  0  0
  -21.6652  -26.7364   22.1232 H   0  0  0  0  0  0
  -19.6920  -25.6281   21.1181 H   0  0  0  0  0  0
  -19.6687  -27.3189   20.6750 H   0  0  0  0  0  0
  -17.4215  -26.6666   21.4004 H   0  0  0  0  0  0
  -18.0309  -26.0010   22.8976 H   0  0  0  0  0  0
  -19.7966  -30.7262   24.2186 H   0  0  0  0  0  0
  -17.5035  -31.6221   24.5166 H   0  0  0  0  0  0
  -15.5372  -30.2942   23.7629 H   0  0  0  0  0  0
  -15.8700  -28.0784   22.7015 H   0  0  0  0  0  0
  -24.5983  -30.7003   25.7862 H   0  0  0  0  0  0
  -24.9029  -32.2860   26.4896 H   0  0  0  0  0  0
  -25.8238  -30.8899   27.0201 H   0  0  0  0  0  0
  -26.2753  -29.6743   24.1138 H   0  0  0  0  0  0
  -27.4066  -29.7178   25.4457 H   0  0  0  0  0  0
  -27.8603  -30.4226   23.9120 H   0  0  0  0  0  0
  -27.2713  -33.3517   26.2058 H   0  0  0  0  0  0
  -28.3899  -32.6814   25.0272 H   0  0  0  0  0  0
  -28.0733  -31.8312   26.5321 H   0  0  0  0  0  0
  -28.2510  -38.0163   24.7650 H   0  0  0  0  0  0
  -28.1220  -36.2719   24.6015 H   0  0  0  0  0  0
  -27.2374  -37.1083   25.8842 H   0  0  0  0  0  0
  -20.9291  -29.8748   21.6932 H   0  0  0  0  0  0
  -26.0143  -38.2833   24.1567 H   0  0  0  0  0  0
  -27.3079  -19.0967   20.6530 H   0  0  0  0  0  0
  -31.4833  -19.8459   21.4475 H   0  0  0  0  0  0
  -27.7216  -16.6873   20.7510 H   0  0  0  0  0  0
  -31.9019  -17.4104   21.5189 H   0  0  0  0  0  0
  -29.9517  -21.9977   19.3189 H   0  0  0  0  0  0
  -28.3554  -21.3572   19.0293 H   0  0  0  0  0  0
  -29.8334  -21.5703   23.0661 H   0  0  0  0  0  0
  -30.8537  -22.1238   21.7576 H   0  0  0  0  0  0
  -27.2807  -23.2523   20.1710 H   0  0  0  0  0  0
  -28.3185  -23.8496   18.9063 H   0  0  0  0  0  0
  -29.8485  -24.0505   22.9240 H   0  0  0  0  0  0
  -28.2476  -23.3983   22.7324 H   0  0  0  0  0  0
  -27.9684  -21.2061   21.4860 H   0  0  0  0  0  0
  -30.0526  -24.4759   20.5254 H   0  0  0  0  0  0
  -28.8034  -26.1043   22.0351 H   0  0  0  0  0  0
  -27.3064  -25.4133   21.4950 H   0  0  0  0  0  0
  -29.1427  -15.0026   21.7194 H   0  0  0  0  0  0
  1 25  1  0  0  0
  1 30  2  0  0  0
  1 84  1  0  0  0
  2  3  1  0  0  0
  2 25  1  0  0  0
  2 85  1  0  0  0
  2 86  1  0  0  0
  3  4  1  0  0  0
  3 87  1  0  0  0
  3 88  1  0  0  0
  4  5  1  0  0  0
  4 89  1  0  0  0
  4 90  1  0  0  0
  5  6  1  0  0  0
  5 26  1  0  0  0
  5 91  1  0  0  0
  6 25  1  0  0  0
  6 92  1  0  0  0
  6 93  1  0  0  0
  7  8  2  0  0  0
  7 26  1  0  0  0
  7 29  1  0  0  0
  8  9  1  0  0  0
  8 22  1  0  0  0
  9 10  1  0  0  0
  9 27  2  0  0  0
 10 11  2  0  0  0
 10 15  1  0  0  0
 11 12  1  0  0  0
 11 94  1  0  0  0
 12 13  2  0  0  0
 12 95  1  0  0  0
 13 14  1  0  0  0
 13 31  1  0  0  0
 14 15  2  0  0  0
 14 96  1  0  0  0
 15 97  1  0  0  0
 16 17  2  0  0  0
 16 21  1  0  0  0
 16 31  1  0  0  0
 17 18  1  0  0  0
 17 98  1  0  0  0
 18 19  2  0  0  0
 18 99  1  0  0  0
 19 20  1  0  0  0
 19 24  1  0  0  0
 20 21  2  0  0  0
 20100  1  0  0  0
 21 23  1  0  0  0
 22 28  1  0  0  0
 22 32  2  0  0  0
 26 27  1  0  0  0
 28101  1  0  0  0
 28102  1  0  0  0
 29103  1  0  0  0
 29104  1  0  0  0
 33 34  1  0  0  0
 33 66  1  0  0  0
 33 70  2  0  0  0
 34 36  1  0  0  0
 34 59  1  0  0  0
 34105  1  0  0  0
 35 44  2  0  0  0
 35 45  1  0  0  0
 35 68  1  0  0  0
 36 56  1  0  0  0
 36106  1  0  0  0
 37 39  1  0  0  0
 37 47  1  0  0  0
 37 66  1  0  0  0
 37107  1  0  0  0
 38 43  2  0  0  0
 38 46  1  0  0  0
 38 47  1  0  0  0
 39 64  1  0  0  0
 39 67  2  0  0  0
 40 52  1  0  0  0
 40 53  2  0  0  0
 40 58  1  0  0  0
 41108  1  0  0  0
 41109  1  0  0  0
 41110  1  0  0  0
 41 48  1  0  0  0
 42 43  1  0  0  0
 42 66  1  0  0  0
 42111  1  0  0  0
 42112  1  0  0  0
 43 44  1  0  0  0
 44113  1  0  0  0
 45 46  2  0  0  0
 45114  1  0  0  0
 46115  1  0  0  0
 47116  1  0  0  0
 47117  1  0  0  0
 48 56  1  0  0  0
 48 65  1  0  0  0
 48118  1  0  0  0
 49 50  1  0  0  0
 49 53  1  0  0  0
 49 64  1  0  0  0
 49119  1  0  0  0
 50 51  1  0  0  0
 50120  1  0  0  0
 50121  1  0  0  0
 51 52  1  0  0  0
 51122  1  0  0  0
 51123  1  0  0  0
 52124  1  0  0  0
 52125  1  0  0  0
 53 54  1  0  0  0
 54 55  2  0  0  0
 54126  1  0  0  0
 55 57  1  0  0  0
 55127  1  0  0  0
 56 69  2  0  0  0
 57 58  2  0  0  0
 57128  1  0  0  0
 58129  1  0  0  0
 59 60  1  0  0  0
 59 61  1  0  0  0
 59 62  1  0  0  0
 60130  1  0  0  0
 60131  1  0  0  0
 60132  1  0  0  0
 61133  1  0  0  0
 61134  1  0  0  0
 61135  1  0  0  0
 62136  1  0  0  0
 62137  1  0  0  0
 62138  1  0  0  0
 63 65  1  0  0  0
 63139  1  0  0  0
 63140  1  0  0  0
 63141  1  0  0  0
 64142  1  0  0  0
 65143  1  0  0  0
 68 83  1  0  0  0
 71 73  2  0  0  0
 71 75  1  0  0  0
 71144  1  0  0  0
 72 74  1  0  0  0
 72 75  2  0  0  0
 72145  1  0  0  0
 73 76  1  0  0  0
 73146  1  0  0  0
 74 76  2  0  0  0
 74147  1  0  0  0
 75 81  1  0  0  0
 76 84  1  0  0  0
 77 79  1  0  0  0
 77 81  1  0  0  0
 77148  1  0  0  0
 77149  1  0  0  0
 78 80  1  0  0  0
 78 81  1  0  0  0
 78150  1  0  0  0
 78151  1  0  0  0
 79 82  1  0  0  0
 79152  1  0  0  0
 79153  1  0  0  0
 80 82  1  0  0  0
 80154  1  0  0  0
 80155  1  0  0  0
 81156  1  0  0  0
 82 83  1  0  0  0
 82157  1  0  0  0
 83158  1  0  0  0
 83159  1  0  0  0
 84160  1  0  0  0
M  ISO  4   1 100  68 101  83 101  84 100
M  END
> <chiral flag>
0

> <version>
0

> <s_m_source_file>
/data/baiqing/PycharmProjects/Reinvent-master-3.2/result/LINK_invent/BTK/process_docking_weight1_custom_product_contain_oxygen_bond_distance_aromatic_linkinvent_7_9_3/rearranged_h_0147.sdf

> <i_m_source_file_index>
71

> <r_mmod_Potential_Energy-OPLS-2005>
36.6111068725586

> <r_mmod_Stretch_Energy-OPLS-2005>
46.5158157348633

> <r_mmod_Bend_Energy-OPLS-2005>
110.18180847168

> <r_mmod_Torsional_Energy-OPLS-2005>
276.470397949219

> <r_mmod_Improper_Torsional_Energy-OPLS-2005>
5.72597408294678

> <r_mmod_Van_der_Waal_Energy-OPLS-2005>
141.252487182617

> <r_mmod_Electrostatic_Energy-OPLS-2005>
-364.433441162109

> <r_mmod_Solvation_Energy-OPLS-2005>
-197.130477905273

> <b_mmod_Minimization_Converged-OPLS-2005>
0

> <r_mmod_RMS_Derivative-OPLS-2005>
3.66025114059448

$$$$
71
                    3D
 Structure written by MMmdl.
151160  0  0  1  0            999 V2000
  -30.5614  -14.8220   20.3556 C   0  0  0  0  0  0
  -30.4470  -12.4750   19.4875 C   0  0  0  0  0  0
  -29.5219  -12.4426   18.2485 C   0  0  0  0  0  0
  -28.0406  -12.3010   18.6590 C   0  0  0  0  0  0
  -27.6348  -13.2188   19.8448 C   0  0  2  0  0  0
  -28.6884  -13.2105   20.9732 C   0  0  0  0  0  0
  -25.2527  -13.8148   20.5749 C   0  0  0  0  0  0
  -24.1798  -13.0419   20.9216 C   0  0  0  0  0  0
  -24.6368  -11.6887   20.8775 C   0  0  0  0  0  0
  -23.9041  -10.4282   21.0424 C   0  0  0  0  0  0
  -24.3606   -9.4195   21.9193 C   0  0  0  0  0  0
  -23.6287   -8.2232   22.0752 C   0  0  0  0  0  0
  -22.4271   -8.0272   21.3546 C   0  0  0  0  0  0
  -21.9904   -9.0243   20.4651 C   0  0  0  0  0  0
  -22.7223  -10.2126   20.3063 C   0  0  0  0  0  0
  -21.6846   -6.0734   22.5283 C   0  0  0  0  0  0
  -21.4012   -6.5639   23.8217 C   0  0  0  0  0  0
  -21.3656   -5.6791   24.9177 C   0  0  0  0  0  0
  -21.6043   -4.3056   24.7225 C   0  0  0  0  0  0
  -21.8820   -3.8147   23.4347 C   0  0  0  0  0  0
  -21.9193   -4.6964   22.3405 C   0  0  0  0  0  0
  -22.7824  -13.5216   21.1869 C   0  0  0  0  0  0
  -22.1665   -4.2153   21.0983 F   0  0  0  0  0  0
  -21.5622   -3.4535   25.7732 F   0  0  0  0  0  0
  -29.9774  -13.5688   20.3680 N   0  0  0  0  0  0
  -26.2922  -12.9311   20.3320 N   0  0  0  0  0  0
  -25.9297  -11.6472   20.5800 N   0  0  0  0  0  0
  -22.0459  -12.8221   22.0425 N   0  0  0  0  0  0
  -25.4263  -15.1881   20.4214 N   0  0  0  0  0  0
  -31.7861  -14.9121   20.2173 O   0  0  0  0  0  0
  -21.6631   -6.8877   21.4247 O   0  0  0  0  0  0
  -22.3523  -14.5520   20.6691 O   0  0  0  0  0  0
  -24.6334  -31.8535   23.1975 C   0  0  0  0  0  0
  -25.9156  -32.4738   23.8326 C   0  0  1  0  0  0
  -27.2223  -27.2340   20.1297 C   0  0  0  0  0  0
  -25.5943  -33.8542   24.2250 N   0  0  0  0  0  0
  -23.4307  -30.4767   21.5416 C   0  0  2  0  0  0
  -24.8783  -28.9214   20.1103 C   0  0  0  0  0  0
  -22.7511  -29.4591   22.4905 C   0  0  0  0  0  0
  -18.0299  -28.1375   22.8483 C   0  0  0  0  0  0
  -24.1485  -36.7275   23.2639 C   0  0  0  0  0  0
  -25.9794  -30.7581   21.3809 C   0  0  0  0  0  0
  -26.0513  -29.3786   20.7215 C   0  0  0  0  0  0
  -27.2222  -28.5480   20.7217 C   0  0  0  0  0  0
  -26.0155  -26.8500   19.4977 C   0  0  0  0  0  0
  -24.8667  -27.6648   19.4907 C   0  0  0  0  0  0
  -23.6497  -29.8109   20.1581 C   0  0  0  0  0  0
  -25.4111  -36.3060   24.0326 C   0  0  1  0  0  0
  -20.5901  -28.3688   23.1258 C   0  0  2  0  0  0
  -20.6779  -26.9399   22.5399 C   0  0  0  0  0  0
  -19.5754  -26.6367   21.5207 C   0  0  0  0  0  0
  -18.1939  -26.7914   22.1626 C   0  0  0  0  0  0
  -19.1554  -28.8849   23.2864 C   0  0  0  0  0  0
  -18.9471  -30.1451   23.8878 C   0  0  0  0  0  0
  -17.6469  -30.6578   24.0547 C   0  0  0  0  0  0
  -25.9057  -34.9430   23.5089 C   0  0  0  0  0  0
  -16.5360  -29.9070   23.6328 C   0  0  0  0  0  0
  -16.7283  -28.6485   23.0354 C   0  0  0  0  0  0
  -26.4515  -31.6566   25.0724 C   0  0  0  0  0  0
  -25.3729  -31.3750   26.1447 C   0  0  0  0  0  0
  -27.0358  -30.2968   24.6233 C   0  0  0  0  0  0
  -27.6045  -32.4324   25.7513 C   0  0  0  0  0  0
  -27.5574  -37.1796   24.8466 C   0  0  0  0  0  0
  -21.4216  -29.3042   22.3648 N   0  0  0  0  0  0
  -26.4284  -37.3757   23.9407 N   0  0  0  0  0  0
  -24.7008  -31.0481   22.0962 N   0  0  0  0  0  0
  -23.4204  -28.8136   23.3013 O   0  0  0  0  0  0
  -28.3163  -26.3258   20.2113 O   0  0  0  0  0  0
  -26.5623  -34.8915   22.4656 O   0  0  0  0  0  0
  -23.5478  -32.1367   23.7262 O   0  0  0  0  0  0
  -29.3212  -18.5011   17.7073 C   0  0  0  0  0  0
  -29.2644  -19.7397   18.3935 C   0  0  0  0  0  0
  -29.6058  -18.6601   20.6140 C   0  0  0  0  0  0
  -29.5314  -17.3801   18.5043 C   0  0  0  0  0  0
  -29.7106  -17.3810   19.9220 C   0  0  0  0  0  0
  -29.3563  -19.8907   19.8219 C   0  0  0  0  0  0
  -28.2206  -24.9437   19.8259 C   0  0  0  0  0  0
  -28.7840  -23.8002   20.3972 C   0  0  0  0  0  0
  -28.5779  -22.4124   19.8081 C   0  0  0  0  0  0
  -29.5630  -15.8918   18.4260 C   0  0  0  0  0  0
  -29.7258  -15.8687   19.9322 N   0  0  0  0  0  0
  -29.2216  -21.2936   20.3587 N   0  0  0  0  0  0
  -27.8037  -22.2608   18.8609 O   0  0  0  0  0  0
  -29.5374  -23.9188   21.4987 O   0  0  0  0  0  0
  -31.4849  -12.6186   19.1818 H   0  0  0  0  0  0
  -30.4179  -11.5216   20.0171 H   0  0  0  0  0  0
  -29.8016  -11.6107   17.6008 H   0  0  0  0  0  0
  -29.6640  -13.3356   17.6447 H   0  0  0  0  0  0
  -27.8889  -11.2586   18.9411 H   0  0  0  0  0  0
  -27.3912  -12.4775   17.8004 H   0  0  0  0  0  0
  -27.5918  -14.2258   19.4440 H   0  0  0  0  0  0
  -28.7414  -12.2328   21.4531 H   0  0  0  0  0  0
  -28.4209  -13.9278   21.7513 H   0  0  0  0  0  0
  -25.2759   -9.5661   22.4758 H   0  0  0  0  0  0
  -23.9992   -7.4618   22.7463 H   0  0  0  0  0  0
  -21.0827   -8.8762   19.8961 H   0  0  0  0  0  0
  -22.3689  -10.9659   19.6167 H   0  0  0  0  0  0
  -21.2010   -7.6149   23.9720 H   0  0  0  0  0  0
  -21.1474   -6.0524   25.9079 H   0  0  0  0  0  0
  -22.0604   -2.7607   23.2842 H   0  0  0  0  0  0
  -22.4060  -11.9893   22.4840 H   0  0  0  0  0  0
  -21.1074  -13.1249   22.2610 H   0  0  0  0  0  0
  -24.6677  -15.8476   20.5536 H   0  0  0  0  0  0
  -26.2952  -15.6319   20.1505 H   0  0  0  0  0  0
  -26.7216  -32.5390   23.1060 H   0  0  0  0  0  0
  -25.0086  -33.9677   25.0395 H   0  0  0  0  0  0
  -22.7270  -31.2985   21.3953 H   0  0  0  0  0  0
  -23.3747  -35.9607   23.3304 H   0  0  0  0  0  0
  -24.3568  -36.8895   22.2051 H   0  0  0  0  0  0
  -23.7250  -37.6479   23.6664 H   0  0  0  0  0  0
  -26.1212  -31.5174   20.6104 H   0  0  0  0  0  0
  -26.8555  -30.8076   22.0153 H   0  0  0  0  0  0
  -28.1180  -28.8937   21.2186 H   0  0  0  0  0  0
  -25.9036  -25.8853   19.0301 H   0  0  0  0  0  0
  -23.9662  -27.2991   19.0179 H   0  0  0  0  0  0
  -23.7751  -30.5871   19.4033 H   0  0  0  0  0  0
  -22.7662  -29.2465   19.8553 H   0  0  0  0  0  0
  -25.1293  -36.1897   25.0814 H   0  0  0  0  0  0
  -20.9993  -28.3265   24.1376 H   0  0  0  0  0  0
  -20.5660  -26.2301   23.3612 H   0  0  0  0  0  0
  -21.6651  -26.7404   22.1203 H   0  0  0  0  0  0
  -19.6911  -25.6278   21.1241 H   0  0  0  0  0  0
  -19.6685  -27.3168   20.6729 H   0  0  0  0  0  0
  -17.4197  -26.6647   21.4038 H   0  0  0  0  0  0
  -18.0343  -26.0062   22.9028 H   0  0  0  0  0  0
  -19.7949  -30.7273   24.2230 H   0  0  0  0  0  0
  -17.5023  -31.6258   24.5149 H   0  0  0  0  0  0
  -15.5360  -30.2958   23.7666 H   0  0  0  0  0  0
  -15.8685  -28.0794   22.7076 H   0  0  0  0  0  0
  -24.5886  -30.7113   25.7797 H   0  0  0  0  0  0
  -24.8953  -32.2940   26.4852 H   0  0  0  0  0  0
  -25.8037  -30.8946   27.0240 H   0  0  0  0  0  0
  -26.2956  -29.6725   24.1211 H   0  0  0  0  0  0
  -27.3974  -29.7225   25.4775 H   0  0  0  0  0  0
  -27.8863  -30.4228   23.9527 H   0  0  0  0  0  0
  -27.2614  -33.3615   26.2084 H   0  0  0  0  0  0
  -28.3864  -32.6904   25.0357 H   0  0  0  0  0  0
  -28.0703  -31.8463   26.5449 H   0  0  0  0  0  0
  -28.2588  -38.0093   24.7487 H   0  0  0  0  0  0
  -28.1076  -36.2622   24.6316 H   0  0  0  0  0  0
  -27.2294  -37.1464   25.8872 H   0  0  0  0  0  0
  -20.9397  -29.8772   21.6862 H   0  0  0  0  0  0
  -26.0164  -38.2831   24.1394 H   0  0  0  0  0  0
  -29.1860  -18.4314   16.6369 H   0  0  0  0  0  0
  -29.1248  -20.6044   17.7624 H   0  0  0  0  0  0
  -29.6539  -18.7009   21.6925 H   0  0  0  0  0  0
  -27.6396  -24.8333   18.9222 H   0  0  0  0  0  0
  -30.4225  -15.5474   17.8475 H   0  0  0  0  0  0
  -28.6280  -15.4925   18.0368 H   0  0  0  0  0  0
  -29.6985  -21.4872   21.2296 H   0  0  0  0  0  0
  -29.5594  -24.8420   21.7200 H   0  0  0  0  0  0
  1 25  1  0  0  0
  1 30  2  0  0  0
  1 81  1  0  0  0
  2  3  1  0  0  0
  2 25  1  0  0  0
  2 85  1  0  0  0
  2 86  1  0  0  0
  3  4  1  0  0  0
  3 87  1  0  0  0
  3 88  1  0  0  0
  4  5  1  0  0  0
  4 89  1  0  0  0
  4 90  1  0  0  0
  5  6  1  0  0  0
  5 26  1  0  0  0
  5 91  1  0  0  0
  6 25  1  0  0  0
  6 92  1  0  0  0
  6 93  1  0  0  0
  7  8  2  0  0  0
  7 26  1  0  0  0
  7 29  1  0  0  0
  8  9  1  0  0  0
  8 22  1  0  0  0
  9 10  1  0  0  0
  9 27  2  0  0  0
 10 11  2  0  0  0
 10 15  1  0  0  0
 11 12  1  0  0  0
 11 94  1  0  0  0
 12 13  2  0  0  0
 12 95  1  0  0  0
 13 14  1  0  0  0
 13 31  1  0  0  0
 14 15  2  0  0  0
 14 96  1  0  0  0
 15 97  1  0  0  0
 16 17  2  0  0  0
 16 21  1  0  0  0
 16 31  1  0  0  0
 17 18  1  0  0  0
 17 98  1  0  0  0
 18 19  2  0  0  0
 18 99  1  0  0  0
 19 20  1  0  0  0
 19 24  1  0  0  0
 20 21  2  0  0  0
 20100  1  0  0  0
 21 23  1  0  0  0
 22 28  1  0  0  0
 22 32  2  0  0  0
 26 27  1  0  0  0
 28101  1  0  0  0
 28102  1  0  0  0
 29103  1  0  0  0
 29104  1  0  0  0
 33 34  1  0  0  0
 33 66  1  0  0  0
 33 70  2  0  0  0
 34 36  1  0  0  0
 34 59  1  0  0  0
 34105  1  0  0  0
 35 44  2  0  0  0
 35 45  1  0  0  0
 35 68  1  0  0  0
 36 56  1  0  0  0
 36106  1  0  0  0
 37 39  1  0  0  0
 37 47  1  0  0  0
 37 66  1  0  0  0
 37107  1  0  0  0
 38 43  2  0  0  0
 38 46  1  0  0  0
 38 47  1  0  0  0
 39 64  1  0  0  0
 39 67  2  0  0  0
 40 52  1  0  0  0
 40 53  2  0  0  0
 40 58  1  0  0  0
 41108  1  0  0  0
 41109  1  0  0  0
 41110  1  0  0  0
 41 48  1  0  0  0
 42 43  1  0  0  0
 42 66  1  0  0  0
 42111  1  0  0  0
 42112  1  0  0  0
 43 44  1  0  0  0
 44113  1  0  0  0
 45 46  2  0  0  0
 45114  1  0  0  0
 46115  1  0  0  0
 47116  1  0  0  0
 47117  1  0  0  0
 48 56  1  0  0  0
 48 65  1  0  0  0
 48118  1  0  0  0
 49 50  1  0  0  0
 49 53  1  0  0  0
 49 64  1  0  0  0
 49119  1  0  0  0
 50 51  1  0  0  0
 50120  1  0  0  0
 50121  1  0  0  0
 51 52  1  0  0  0
 51122  1  0  0  0
 51123  1  0  0  0
 52124  1  0  0  0
 52125  1  0  0  0
 53 54  1  0  0  0
 54 55  2  0  0  0
 54126  1  0  0  0
 55 57  1  0  0  0
 55127  1  0  0  0
 56 69  2  0  0  0
 57 58  2  0  0  0
 57128  1  0  0  0
 58129  1  0  0  0
 59 60  1  0  0  0
 59 61  1  0  0  0
 59 62  1  0  0  0
 60130  1  0  0  0
 60131  1  0  0  0
 60132  1  0  0  0
 61133  1  0  0  0
 61134  1  0  0  0
 61135  1  0  0  0
 62136  1  0  0  0
 62137  1  0  0  0
 62138  1  0  0  0
 63 65  1  0  0  0
 63139  1  0  0  0
 63140  1  0  0  0
 63141  1  0  0  0
 64142  1  0  0  0
 65143  1  0  0  0
 68 77  1  0  0  0
 71 72  2  0  0  0
 71 74  1  0  0  0
 71144  1  0  0  0
 72 76  1  0  0  0
 72145  1  0  0  0
 73 75  1  0  0  0
 73 76  2  0  0  0
 73146  1  0  0  0
 74 75  2  0  0  0
 74 80  1  0  0  0
 75 81  1  0  0  0
 76 82  1  0  0  0
 77 78  2  0  0  0
 77147  1  0  0  0
 78 79  1  0  0  0
 78 84  1  0  0  0
 79 82  1  0  0  0
 79 83  2  0  0  0
 80 81  1  0  0  0
 80148  1  0  0  0
 80149  1  0  0  0
 82150  1  0  0  0
 84151  1  0  0  0
M  ISO  4   1 100  68 101  77 101  81 100
M  END
> <chiral flag>
0

> <version>
0

> <s_m_source_file>
/data/baiqing/PycharmProjects/Reinvent-master-3.2/result/LINK_invent/BTK/process_docking_weight1_custom_product_contain_oxygen_bond_distance_aromatic_linkinvent_7_9_3/rearranged_h_0147.sdf

> <i_m_source_file_index>
72

> <r_mmod_Potential_Energy-OPLS-2005>
768.414794921875

> <r_mmod_Stretch_Energy-OPLS-2005>
168.304000854492

> <r_mmod_Bend_Energy-OPLS-2005>
594.062622070312

> <r_mmod_Torsional_Energy-OPLS-2005>
297.004333496094

> <r_mmod_Improper_Torsional_Energy-OPLS-2005>
29.0173454284668

> <r_mmod_Van_der_Waal_Energy-OPLS-2005>
145.922943115234

> <r_mmod_Electrostatic_Energy-OPLS-2005>
-373.565582275391

> <r_mmod_Solvation_Energy-OPLS-2005>
-213.138977050781

> <b_mmod_Minimization_Converged-OPLS-2005>
0

> <r_mmod_RMS_Derivative-OPLS-2005>
1.75376915931702

$$$$
72
                    3D
 Structure written by MMmdl.
161169  0  0  1  0            999 V2000
  -30.6840  -14.4480   20.5980 C   0  0  0  0  0  0
  -30.4309  -12.2980   19.4147 C   0  0  0  0  0  0
  -29.4965  -12.5168   18.2056 C   0  0  0  0  0  0
  -28.0175  -12.3724   18.6171 C   0  0  0  0  0  0
  -27.6681  -13.1985   19.8832 C   0  0  2  0  0  0
  -28.7059  -12.9391   20.9987 C   0  0  0  0  0  0
  -25.2625  -13.8148   20.5679 C   0  0  0  0  0  0
  -24.1857  -13.0435   20.9148 C   0  0  0  0  0  0
  -24.6396  -11.6896   20.8712 C   0  0  0  0  0  0
  -23.9054  -10.4290   21.0397 C   0  0  0  0  0  0
  -24.3609   -9.4208   21.9177 C   0  0  0  0  0  0
  -23.6283   -8.2243   22.0752 C   0  0  0  0  0  0
  -22.4269   -8.0282   21.3542 C   0  0  0  0  0  0
  -21.9898   -9.0257   20.4648 C   0  0  0  0  0  0
  -22.7223  -10.2136   20.3050 C   0  0  0  0  0  0
  -21.6858   -6.0731   22.5278 C   0  0  0  0  0  0
  -21.4019   -6.5635   23.8209 C   0  0  0  0  0  0
  -21.3658   -5.6790   24.9172 C   0  0  0  0  0  0
  -21.6042   -4.3051   24.7225 C   0  0  0  0  0  0
  -21.8823   -3.8140   23.4345 C   0  0  0  0  0  0
  -21.9194   -4.6956   22.3401 C   0  0  0  0  0  0
  -22.7884  -13.5243   21.1822 C   0  0  0  0  0  0
  -22.1665   -4.2139   21.0980 F   0  0  0  0  0  0
  -21.5622   -3.4538   25.7738 F   0  0  0  0  0  0
  -30.0453  -13.2545   20.4639 N   0  0  0  0  0  0
  -26.3057  -12.9298   20.3392 N   0  0  0  0  0  0
  -25.9324  -11.6465   20.5756 N   0  0  0  0  0  0
  -22.0527  -12.8244   22.0389 N   0  0  0  0  0  0
  -25.4374  -15.1865   20.4117 N   0  0  0  0  0  0
  -31.7737  -14.6960   20.0691 O   0  0  0  0  0  0
  -21.6640   -6.8875   21.4239 O   0  0  0  0  0  0
  -22.3565  -14.5548   20.6671 O   0  0  0  0  0  0
  -24.6128  -31.8682   23.2102 C   0  0  0  0  0  0
  -25.9025  -32.4824   23.8398 C   0  0  1  0  0  0
  -27.2411  -27.4479   20.1001 C   0  0  0  0  0  0
  -25.5880  -33.8622   24.2330 N   0  0  0  0  0  0
  -23.4014  -30.4902   21.5493 C   0  0  2  0  0  0
  -24.8505  -28.9523   20.1190 C   0  0  0  0  0  0
  -22.7404  -29.4658   22.4993 C   0  0  0  0  0  0
  -18.0271  -28.1383   22.8498 C   0  0  0  0  0  0
  -24.1480  -36.7315   23.2640 C   0  0  0  0  0  0
  -25.9279  -30.8387   21.3598 C   0  0  0  0  0  0
  -26.0090  -29.4718   20.7114 C   0  0  0  0  0  0
  -27.2100  -28.7280   20.6957 C   0  0  0  0  0  0
  -26.0682  -26.9341   19.5099 C   0  0  0  0  0  0
  -24.8738  -27.6810   19.5165 C   0  0  0  0  0  0
  -23.6114  -29.8181   20.1653 C   0  0  0  0  0  0
  -25.4099  -36.3113   24.0341 C   0  0  1  0  0  0
  -20.5860  -28.3662   23.1327 C   0  0  2  0  0  0
  -20.6756  -26.9399   22.5424 C   0  0  0  0  0  0
  -19.5738  -26.6392   21.5216 C   0  0  0  0  0  0
  -18.1917  -26.7928   22.1631 C   0  0  0  0  0  0
  -19.1520  -28.8841   23.2911 C   0  0  0  0  0  0
  -18.9451  -30.1444   23.8927 C   0  0  0  0  0  0
  -17.6452  -30.6584   24.0579 C   0  0  0  0  0  0
  -25.9028  -34.9478   23.5138 C   0  0  0  0  0  0
  -16.5343  -29.9094   23.6325 C   0  0  0  0  0  0
  -16.7261  -28.6513   23.0342 C   0  0  0  0  0  0
  -26.4460  -31.6596   25.0718 C   0  0  0  0  0  0
  -25.3736  -31.3699   26.1475 C   0  0  0  0  0  0
  -27.0270  -30.3037   24.6075 C   0  0  0  0  0  0
  -27.6049  -32.4301   25.7463 C   0  0  0  0  0  0
  -27.5576  -37.1809   24.8465 C   0  0  0  0  0  0
  -21.4135  -29.3022   22.3727 N   0  0  0  0  0  0
  -26.4286  -37.3798   23.9415 N   0  0  0  0  0  0
  -24.6655  -31.0800   22.0988 N   0  0  0  0  0  0
  -23.4184  -28.8212   23.3036 O   0  0  0  0  0  0
  -28.4097  -26.7250   20.0615 O   0  0  0  0  0  0
  -26.5604  -34.8930   22.4707 O   0  0  0  0  0  0
  -23.5326  -32.1419   23.7510 O   0  0  0  0  0  0
  -30.4632  -17.5196   20.1422 C   0  0  0  0  0  0
  -28.6876  -18.9060   20.6929 C   0  0  0  0  0  0
  -29.8341  -18.7979   19.9485 C   0  0  0  0  0  0
  -29.7763  -16.6631   20.9771 C   0  0  0  0  0  0
  -28.9112  -24.3242   19.9797 C   0  0  0  0  0  0
  -31.4796  -21.5832   21.2111 C   0  0  0  0  0  0
  -30.1713  -23.5888   20.4770 C   0  0  0  0  0  0
  -28.3986  -25.5075   20.8203 C   0  0  0  0  0  0
  -29.8884  -21.3213   19.2020 C   0  0  0  0  0  0
  -30.3598  -19.8450   18.9849 C   0  0  2  0  0  0
  -30.1536  -22.0286   20.5645 C   0  0  1  0  0  0
  -30.0036  -15.3632   21.3101 N   0  0  0  0  0  0
  -30.0015  -19.4114   17.6273 N   0  3  0  0  0  0
  -28.3501  -24.0023   18.9281 O   0  0  0  0  0  0
  -28.3720  -17.4703   21.6250 S   0  0  0  0  0  0
  -31.4737  -12.4108   19.1125 H   0  0  0  0  0  0
  -30.3396  -11.2774   19.7897 H   0  0  0  0  0  0
  -29.7336  -11.8072   17.4123 H   0  0  0  0  0  0
  -29.6641  -13.5107   17.7872 H   0  0  0  0  0  0
  -27.8272  -11.3143   18.8022 H   0  0  0  0  0  0
  -27.3665  -12.6561   17.7896 H   0  0  0  0  0  0
  -27.7246  -14.2521   19.6081 H   0  0  0  0  0  0
  -28.6765  -11.8908   21.3008 H   0  0  0  0  0  0
  -28.4552  -13.4987   21.9007 H   0  0  0  0  0  0
  -25.2760   -9.5681   22.4743 H   0  0  0  0  0  0
  -23.9992   -7.4638   22.7475 H   0  0  0  0  0  0
  -21.0823   -8.8780   19.8962 H   0  0  0  0  0  0
  -22.3685  -10.9674   19.6155 H   0  0  0  0  0  0
  -21.2019   -7.6146   23.9711 H   0  0  0  0  0  0
  -21.1474   -6.0521   25.9074 H   0  0  0  0  0  0
  -22.0601   -2.7600   23.2856 H   0  0  0  0  0  0
  -22.4145  -11.9901   22.4768 H   0  0  0  0  0  0
  -21.1156  -13.1282   22.2614 H   0  0  0  0  0  0
  -24.6765  -15.8462   20.5297 H   0  0  0  0  0  0
  -26.3035  -15.6264   20.1262 H   0  0  0  0  0  0
  -26.7103  -32.5549   23.1174 H   0  0  0  0  0  0
  -24.9996  -33.9785   25.0450 H   0  0  0  0  0  0
  -22.6889  -31.3057   21.4085 H   0  0  0  0  0  0
  -23.3738  -35.9653   23.3316 H   0  0  0  0  0  0
  -24.3572  -36.8912   22.2051 H   0  0  0  0  0  0
  -23.7237  -37.6527   23.6644 H   0  0  0  0  0  0
  -26.0347  -31.6037   20.5896 H   0  0  0  0  0  0
  -26.8173  -30.8978   21.9751 H   0  0  0  0  0  0
  -28.1080  -29.1295   21.1452 H   0  0  0  0  0  0
  -26.0837  -25.9619   19.0371 H   0  0  0  0  0  0
  -23.9835  -27.2742   19.0571 H   0  0  0  0  0  0
  -23.7201  -30.5918   19.4041 H   0  0  0  0  0  0
  -22.7356  -29.2369   19.8700 H   0  0  0  0  0  0
  -25.1272  -36.1979   25.0834 H   0  0  0  0  0  0
  -20.9955  -28.3231   24.1446 H   0  0  0  0  0  0
  -20.5646  -26.2274   23.3613 H   0  0  0  0  0  0
  -21.6632  -26.7433   22.1228 H   0  0  0  0  0  0
  -19.6898  -25.6310   21.1224 H   0  0  0  0  0  0
  -19.6677  -27.3223   20.6765 H   0  0  0  0  0  0
  -17.4184  -26.6677   21.4040 H   0  0  0  0  0  0
  -18.0325  -26.0068   22.9026 H   0  0  0  0  0  0
  -19.7925  -30.7254   24.2311 H   0  0  0  0  0  0
  -17.5005  -31.6258   24.5192 H   0  0  0  0  0  0
  -15.5345  -30.3007   23.7631 H   0  0  0  0  0  0
  -15.8661  -28.0845   22.7034 H   0  0  0  0  0  0
  -24.5903  -30.7051   25.7817 H   0  0  0  0  0  0
  -24.8935  -32.2851   26.4947 H   0  0  0  0  0  0
  -25.8095  -30.8852   27.0219 H   0  0  0  0  0  0
  -26.2796  -29.6814   24.1139 H   0  0  0  0  0  0
  -27.4049  -29.7264   25.4524 H   0  0  0  0  0  0
  -27.8632  -30.4355   23.9205 H   0  0  0  0  0  0
  -27.2686  -33.3590   26.2081 H   0  0  0  0  0  0
  -28.3830  -32.6872   25.0262 H   0  0  0  0  0  0
  -28.0747  -31.8394   26.5338 H   0  0  0  0  0  0
  -28.2607  -38.0096   24.7505 H   0  0  0  0  0  0
  -28.1054  -36.2628   24.6285 H   0  0  0  0  0  0
  -27.2300  -37.1458   25.8872 H   0  0  0  0  0  0
  -20.9296  -29.8735   21.6941 H   0  0  0  0  0  0
  -26.0172  -38.2871   24.1437 H   0  0  0  0  0  0
  -31.3760  -17.2615   19.6234 H   0  0  0  0  0  0
  -27.9980  -19.7389   20.7541 H   0  0  0  0  0  0
  -31.6565  -22.1108   22.1492 H   0  0  0  0  0  0
  -32.3305  -21.7848   20.5585 H   0  0  0  0  0  0
  -31.4827  -20.5200   21.4511 H   0  0  0  0  0  0
  -30.4100  -23.9886   21.4625 H   0  0  0  0  0  0
  -30.9926  -23.9011   19.8319 H   0  0  0  0  0  0
  -29.0312  -25.6398   21.6982 H   0  0  0  0  0  0
  -27.3990  -25.2684   21.1857 H   0  0  0  0  0  0
  -28.8193  -21.3812   18.9959 H   0  0  0  0  0  0
  -30.3640  -21.9231   18.4264 H   0  0  0  0  0  0
  -31.4505  -19.8390   19.0281 H   0  0  0  0  0  0
  -29.3553  -21.7427   21.2510 H   0  0  0  0  0  0
  -29.2734  -14.9523   21.8724 H   0  0  0  0  0  0
  -29.0037  -19.3595   17.5309 H   0  0  0  0  0  0
  -30.3846  -18.5028   17.4434 H   0  0  0  0  0  0
  -30.3636  -20.0502   16.9434 H   0  0  0  0  0  0
  1 25  1  0  0  0
  1 30  2  0  0  0
  1 82  1  0  0  0
  2  3  1  0  0  0
  2 25  1  0  0  0
  2 86  1  0  0  0
  2 87  1  0  0  0
  3  4  1  0  0  0
  3 88  1  0  0  0
  3 89  1  0  0  0
  4  5  1  0  0  0
  4 90  1  0  0  0
  4 91  1  0  0  0
  5  6  1  0  0  0
  5 26  1  0  0  0
  5 92  1  0  0  0
  6 25  1  0  0  0
  6 93  1  0  0  0
  6 94  1  0  0  0
  7  8  2  0  0  0
  7 26  1  0  0  0
  7 29  1  0  0  0
  8  9  1  0  0  0
  8 22  1  0  0  0
  9 10  1  0  0  0
  9 27  2  0  0  0
 10 11  2  0  0  0
 10 15  1  0  0  0
 11 12  1  0  0  0
 11 95  1  0  0  0
 12 13  2  0  0  0
 12 96  1  0  0  0
 13 14  1  0  0  0
 13 31  1  0  0  0
 14 15  2  0  0  0
 14 97  1  0  0  0
 15 98  1  0  0  0
 16 17  2  0  0  0
 16 21  1  0  0  0
 16 31  1  0  0  0
 17 18  1  0  0  0
 17 99  1  0  0  0
 18 19  2  0  0  0
 18100  1  0  0  0
 19 20  1  0  0  0
 19 24  1  0  0  0
 20 21  2  0  0  0
 20101  1  0  0  0
 21 23  1  0  0  0
 22 28  1  0  0  0
 22 32  2  0  0  0
 26 27  1  0  0  0
 28102  1  0  0  0
 28103  1  0  0  0
 29104  1  0  0  0
 29105  1  0  0  0
 33 34  1  0  0  0
 33 66  1  0  0  0
 33 70  2  0  0  0
 34 36  1  0  0  0
 34 59  1  0  0  0
 34106  1  0  0  0
 35 44  2  0  0  0
 35 45  1  0  0  0
 35 68  1  0  0  0
 36 56  1  0  0  0
 36107  1  0  0  0
 37 39  1  0  0  0
 37 47  1  0  0  0
 37 66  1  0  0  0
 37108  1  0  0  0
 38 43  2  0  0  0
 38 46  1  0  0  0
 38 47  1  0  0  0
 39 64  1  0  0  0
 39 67  2  0  0  0
 40 52  1  0  0  0
 40 53  2  0  0  0
 40 58  1  0  0  0
 41109  1  0  0  0
 41110  1  0  0  0
 41111  1  0  0  0
 41 48  1  0  0  0
 42 43  1  0  0  0
 42 66  1  0  0  0
 42112  1  0  0  0
 42113  1  0  0  0
 43 44  1  0  0  0
 44114  1  0  0  0
 45 46  2  0  0  0
 45115  1  0  0  0
 46116  1  0  0  0
 47117  1  0  0  0
 47118  1  0  0  0
 48 56  1  0  0  0
 48 65  1  0  0  0
 48119  1  0  0  0
 49 50  1  0  0  0
 49 53  1  0  0  0
 49 64  1  0  0  0
 49120  1  0  0  0
 50 51  1  0  0  0
 50121  1  0  0  0
 50122  1  0  0  0
 51 52  1  0  0  0
 51123  1  0  0  0
 51124  1  0  0  0
 52125  1  0  0  0
 52126  1  0  0  0
 53 54  1  0  0  0
 54 55  2  0  0  0
 54127  1  0  0  0
 55 57  1  0  0  0
 55128  1  0  0  0
 56 69  2  0  0  0
 57 58  2  0  0  0
 57129  1  0  0  0
 58130  1  0  0  0
 59 60  1  0  0  0
 59 61  1  0  0  0
 59 62  1  0  0  0
 60131  1  0  0  0
 60132  1  0  0  0
 60133  1  0  0  0
 61134  1  0  0  0
 61135  1  0  0  0
 61136  1  0  0  0
 62137  1  0  0  0
 62138  1  0  0  0
 62139  1  0  0  0
 63 65  1  0  0  0
 63140  1  0  0  0
 63141  1  0  0  0
 63142  1  0  0  0
 64143  1  0  0  0
 65144  1  0  0  0
 68 78  1  0  0  0
 71 73  1  0  0  0
 71 74  2  0  0  0
 71145  1  0  0  0
 72 73  2  0  0  0
 72 85  1  0  0  0
 72146  1  0  0  0
 73 80  1  0  0  0
 74 82  1  0  0  0
 74 85  1  0  0  0
 75 77  1  0  0  0
 75 78  1  0  0  0
 75 84  2  0  0  0
 76147  1  0  0  0
 76148  1  0  0  0
 76149  1  0  0  0
 76 81  1  0  0  0
 77 81  1  0  0  0
 77150  1  0  0  0
 77151  1  0  0  0
 78152  1  0  0  0
 78153  1  0  0  0
 79 80  1  0  0  0
 79 81  1  0  0  0
 79154  1  0  0  0
 79155  1  0  0  0
 80 83  1  0  0  0
 80156  1  0  0  0
 81157  1  0  0  0
 82158  1  0  0  0
 83159  1  0  0  0
 83160  1  0  0  0
 83161  1  0  0  0
M  CHG  1  83   1
M  ISO  4   1 100  68 101  78 101  82 100
M  END
> <chiral flag>
0

> <version>
0

> <s_m_source_file>
/data/baiqing/PycharmProjects/Reinvent-master-3.2/result/LINK_invent/BTK/process_docking_weight1_custom_product_contain_oxygen_bond_distance_aromatic_linkinvent_7_9_3/rearranged_h_0147.sdf

> <i_m_source_file_index>
73

> <r_mmod_Potential_Energy-OPLS-2005>
-315.966705322266

> <r_mmod_Stretch_Energy-OPLS-2005>
37.1164665222168

> <r_mmod_Bend_Energy-OPLS-2005>
113.581619262695

> <r_mmod_Torsional_Energy-OPLS-2005>
246.792404174805

> <r_mmod_Improper_Torsional_Energy-OPLS-2005>
4.62187767028809

> <r_mmod_Van_der_Waal_Energy-OPLS-2005>
120.627395629883

> <r_mmod_Electrostatic_Energy-OPLS-2005>
-352.338653564453

> <r_mmod_Solvation_Energy-OPLS-2005>
-495.728942871094

> <b_mmod_Minimization_Converged-OPLS-2005>
0

> <r_mmod_RMS_Derivative-OPLS-2005>
0.998682737350464

$$$$
73
                    3D
 Structure written by MMmdl.
157165  0  0  1  0            999 V2000
  -30.6337  -14.5228   20.5939 C   0  0  0  0  0  0
  -30.4547  -12.3398   19.4223 C   0  0  0  0  0  0
  -29.5092  -12.5188   18.2125 C   0  0  0  0  0  0
  -28.0293  -12.3628   18.6210 C   0  0  0  0  0  0
  -27.6710  -13.1944   19.8803 C   0  0  2  0  0  0
  -28.7114  -12.9427   20.9954 C   0  0  0  0  0  0
  -25.2658  -13.8154   20.5666 C   0  0  0  0  0  0
  -24.1885  -13.0445   20.9181 C   0  0  0  0  0  0
  -24.6421  -11.6913   20.8753 C   0  0  0  0  0  0
  -23.9090  -10.4305   21.0438 C   0  0  0  0  0  0
  -24.3636   -9.4211   21.9205 C   0  0  0  0  0  0
  -23.6306   -8.2246   22.0763 C   0  0  0  0  0  0
  -22.4287   -8.0296   21.3556 C   0  0  0  0  0  0
  -21.9941   -9.0280   20.4658 C   0  0  0  0  0  0
  -22.7280  -10.2157   20.3078 C   0  0  0  0  0  0
  -21.6837   -6.0767   22.5289 C   0  0  0  0  0  0
  -21.4005   -6.5665   23.8228 C   0  0  0  0  0  0
  -21.3658   -5.6808   24.9181 C   0  0  0  0  0  0
  -21.6043   -4.3073   24.7220 C   0  0  0  0  0  0
  -21.8818   -3.8176   23.4333 C   0  0  0  0  0  0
  -21.9190   -4.6997   22.3397 C   0  0  0  0  0  0
  -22.7910  -13.5263   21.1849 C   0  0  0  0  0  0
  -22.1656   -4.2187   21.0969 F   0  0  0  0  0  0
  -21.5624   -3.4552   25.7725 F   0  0  0  0  0  0
  -30.0435  -13.2983   20.4624 N   0  0  0  0  0  0
  -26.3070  -12.9273   20.3359 N   0  0  0  0  0  0
  -25.9338  -11.6450   20.5780 N   0  0  0  0  0  0
  -22.0530  -12.8246   22.0385 N   0  0  0  0  0  0
  -25.4473  -15.1856   20.4054 N   0  0  0  0  0  0
  -31.7191  -14.8066   20.0706 O   0  0  0  0  0  0
  -21.6635   -6.8902   21.4253 O   0  0  0  0  0  0
  -22.3605  -14.5568   20.6696 O   0  0  0  0  0  0
  -24.6192  -31.8621   23.2031 C   0  0  0  0  0  0
  -25.9085  -32.4772   23.8332 C   0  0  1  0  0  0
  -27.2418  -27.3831   20.1077 C   0  0  0  0  0  0
  -25.5922  -33.8574   24.2254 N   0  0  0  0  0  0
  -23.4080  -30.4824   21.5467 C   0  0  2  0  0  0
  -24.8549  -28.9326   20.1226 C   0  0  0  0  0  0
  -22.7404  -29.4655   22.4992 C   0  0  0  0  0  0
  -18.0264  -28.1405   22.8500 C   0  0  0  0  0  0
  -24.1491  -36.7270   23.2627 C   0  0  0  0  0  0
  -25.9411  -30.8100   21.3618 C   0  0  0  0  0  0
  -26.0191  -29.4407   20.7116 C   0  0  0  0  0  0
  -27.2156  -28.6778   20.6933 C   0  0  0  0  0  0
  -26.0569  -26.9027   19.5079 C   0  0  0  0  0  0
  -24.8707  -27.6628   19.5185 C   0  0  0  0  0  0
  -23.6178  -29.8029   20.1679 C   0  0  0  0  0  0
  -25.4120  -36.3060   24.0315 C   0  0  1  0  0  0
  -20.5859  -28.3680   23.1312 C   0  0  2  0  0  0
  -20.6755  -26.9417   22.5424 C   0  0  0  0  0  0
  -19.5732  -26.6418   21.5216 C   0  0  0  0  0  0
  -18.1910  -26.7953   22.1633 C   0  0  0  0  0  0
  -19.1519  -28.8863   23.2903 C   0  0  0  0  0  0
  -18.9458  -30.1477   23.8903 C   0  0  0  0  0  0
  -17.6462  -30.6617   24.0584 C   0  0  0  0  0  0
  -25.9069  -34.9441   23.5092 C   0  0  0  0  0  0
  -16.5351  -29.9120   23.6349 C   0  0  0  0  0  0
  -16.7252  -28.6539   23.0361 C   0  0  0  0  0  0
  -26.4501  -31.6546   25.0665 C   0  0  0  0  0  0
  -25.3782  -31.3669   26.1422 C   0  0  0  0  0  0
  -27.0289  -30.2959   24.6064 C   0  0  0  0  0  0
  -27.6058  -32.4270   25.7460 C   0  0  0  0  0  0
  -27.5570  -37.1783   24.8467 C   0  0  0  0  0  0
  -21.4140  -29.3038   22.3716 N   0  0  0  0  0  0
  -26.4269  -37.3771   23.9423 N   0  0  0  0  0  0
  -24.6746  -31.0678   22.0946 N   0  0  0  0  0  0
  -23.4150  -28.8227   23.3066 O   0  0  0  0  0  0
  -28.4033  -26.6210   20.0866 O   0  0  0  0  0  0
  -26.5650  -34.8908   22.4656 O   0  0  0  0  0  0
  -23.5379  -32.1408   23.7411 O   0  0  0  0  0  0
  -30.2757  -17.8481   20.5390 C   0  0  0  0  0  0
  -28.2752  -17.1546   21.5450 C   0  0  0  0  0  0
  -29.5145  -16.7592   21.1092 C   0  0  0  0  0  0
  -29.5901  -19.0603   20.5644 C   0  0  0  0  0  0
  -29.3289  -22.8185   20.5983 C   0  0  0  0  0  0
  -28.8968  -24.1018   18.3971 C   0  0  0  0  0  0
  -30.7476  -24.7879   19.9631 C   0  0  0  0  0  0
  -29.1222  -21.4700   19.8251 C   0  0  0  0  0  0
  -28.3321  -25.2485   20.5791 C   0  0  0  0  0  0
  -29.3090  -24.2252   19.8794 C   0  0  0  0  0  0
  -29.9084  -15.3923   21.3342 N   0  0  0  0  0  0
  -30.0347  -20.3519   20.1948 N   0  0  0  0  0  0
  -29.5594  -22.7659   21.8115 O   0  0  0  0  0  0
  -27.9871  -18.8422   21.2337 S   0  0  0  0  0  0
  -31.4912  -12.4878   19.1133 H   0  0  0  0  0  0
  -30.4012  -11.3186   19.8042 H   0  0  0  0  0  0
  -29.7584  -11.7978   17.4329 H   0  0  0  0  0  0
  -29.6617  -13.5071   17.7748 H   0  0  0  0  0  0
  -27.8502  -11.3040   18.8131 H   0  0  0  0  0  0
  -27.3759  -12.6365   17.7913 H   0  0  0  0  0  0
  -27.7282  -14.2467   19.5995 H   0  0  0  0  0  0
  -28.7057  -11.8898   21.2841 H   0  0  0  0  0  0
  -28.4464  -13.4833   21.9045 H   0  0  0  0  0  0
  -25.2784   -9.5662   22.4790 H   0  0  0  0  0  0
  -24.0019   -7.4625   22.7460 H   0  0  0  0  0  0
  -21.0880   -8.8809   19.8945 H   0  0  0  0  0  0
  -22.3762  -10.9701   19.6188 H   0  0  0  0  0  0
  -21.1998   -7.6176   23.9742 H   0  0  0  0  0  0
  -21.1475   -6.0534   25.9084 H   0  0  0  0  0  0
  -22.0600   -2.7645   23.2816 H   0  0  0  0  0  0
  -22.4111  -11.9871   22.4731 H   0  0  0  0  0  0
  -21.1163  -13.1305   22.2604 H   0  0  0  0  0  0
  -24.6912  -15.8523   20.5106 H   0  0  0  0  0  0
  -26.2948  -15.6060   20.0432 H   0  0  0  0  0  0
  -26.7146  -32.5455   23.1079 H   0  0  0  0  0  0
  -25.0037  -33.9721   25.0377 H   0  0  0  0  0  0
  -22.6991  -31.3002   21.4000 H   0  0  0  0  0  0
  -23.3728  -35.9622   23.3324 H   0  0  0  0  0  0
  -24.3552  -36.8855   22.2025 H   0  0  0  0  0  0
  -23.7286  -37.6498   23.6636 H   0  0  0  0  0  0
  -26.0635  -31.5677   20.5859 H   0  0  0  0  0  0
  -26.8256  -30.8624   21.9849 H   0  0  0  0  0  0
  -28.1162  -29.0721   21.1437 H   0  0  0  0  0  0
  -26.0473  -25.9348   19.0260 H   0  0  0  0  0  0
  -23.9762  -27.2590   19.0623 H   0  0  0  0  0  0
  -23.7254  -30.5695   19.4004 H   0  0  0  0  0  0
  -22.7414  -29.2220   19.8762 H   0  0  0  0  0  0
  -25.1307  -36.1886   25.0802 H   0  0  0  0  0  0
  -20.9949  -28.3251   24.1434 H   0  0  0  0  0  0
  -20.5651  -26.2292   23.3608 H   0  0  0  0  0  0
  -21.6622  -26.7471   22.1216 H   0  0  0  0  0  0
  -19.6901  -25.6340   21.1216 H   0  0  0  0  0  0
  -19.6673  -27.3257   20.6766 H   0  0  0  0  0  0
  -17.4186  -26.6699   21.4039 H   0  0  0  0  0  0
  -18.0317  -26.0102   22.9026 H   0  0  0  0  0  0
  -19.7944  -30.7291   24.2253 H   0  0  0  0  0  0
  -17.5038  -31.6289   24.5199 H   0  0  0  0  0  0
  -15.5364  -30.3040   23.7693 H   0  0  0  0  0  0
  -15.8641  -28.0884   22.7073 H   0  0  0  0  0  0
  -24.5969  -30.6988   25.7807 H   0  0  0  0  0  0
  -24.8957  -32.2815   26.4864 H   0  0  0  0  0  0
  -25.8161  -30.8879   27.0184 H   0  0  0  0  0  0
  -26.2822  -29.6764   24.1081 H   0  0  0  0  0  0
  -27.3975  -29.7156   25.4532 H   0  0  0  0  0  0
  -27.8709  -30.4203   23.9251 H   0  0  0  0  0  0
  -27.2633  -33.3524   26.2095 H   0  0  0  0  0  0
  -28.3857  -32.6901   25.0311 H   0  0  0  0  0  0
  -28.0733  -31.8360   26.5336 H   0  0  0  0  0  0
  -28.2610  -38.0062   24.7505 H   0  0  0  0  0  0
  -28.1045  -36.2598   24.6313 H   0  0  0  0  0  0
  -27.2268  -37.1449   25.8861 H   0  0  0  0  0  0
  -20.9318  -29.8695   21.6877 H   0  0  0  0  0  0
  -26.0136  -38.2824   24.1467 H   0  0  0  0  0  0
  -31.2836  -17.7156   20.1663 H   0  0  0  0  0  0
  -27.4971  -16.5791   22.0338 H   0  0  0  0  0  0
  -29.5873  -23.4768   17.8324 H   0  0  0  0  0  0
  -28.8942  -25.0755   17.9071 H   0  0  0  0  0  0
  -27.8955  -23.6826   18.2977 H   0  0  0  0  0  0
  -31.4799  -24.0876   19.5586 H   0  0  0  0  0  0
  -31.0360  -24.9911   20.9962 H   0  0  0  0  0  0
  -30.8532  -25.7225   19.4113 H   0  0  0  0  0  0
  -28.0764  -21.1859   19.9447 H   0  0  0  0  0  0
  -29.2496  -21.6256   18.7561 H   0  0  0  0  0  0
  -27.3195  -24.8504   20.5362 H   0  0  0  0  0  0
  -28.5675  -25.3040   21.6431 H   0  0  0  0  0  0
  -29.2221  -14.8742   21.8601 H   0  0  0  0  0  0
  -31.0231  -20.5229   20.0239 H   0  0  0  0  0  0
  1 25  1  0  0  0
  1 30  2  0  0  0
  1 81  1  0  0  0
  2  3  1  0  0  0
  2 25  1  0  0  0
  2 85  1  0  0  0
  2 86  1  0  0  0
  3  4  1  0  0  0
  3 87  1  0  0  0
  3 88  1  0  0  0
  4  5  1  0  0  0
  4 89  1  0  0  0
  4 90  1  0  0  0
  5  6  1  0  0  0
  5 26  1  0  0  0
  5 91  1  0  0  0
  6 25  1  0  0  0
  6 92  1  0  0  0
  6 93  1  0  0  0
  7  8  2  0  0  0
  7 26  1  0  0  0
  7 29  1  0  0  0
  8  9  1  0  0  0
  8 22  1  0  0  0
  9 10  1  0  0  0
  9 27  2  0  0  0
 10 11  2  0  0  0
 10 15  1  0  0  0
 11 12  1  0  0  0
 11 94  1  0  0  0
 12 13  2  0  0  0
 12 95  1  0  0  0
 13 14  1  0  0  0
 13 31  1  0  0  0
 14 15  2  0  0  0
 14 96  1  0  0  0
 15 97  1  0  0  0
 16 17  2  0  0  0
 16 21  1  0  0  0
 16 31  1  0  0  0
 17 18  1  0  0  0
 17 98  1  0  0  0
 18 19  2  0  0  0
 18 99  1  0  0  0
 19 20  1  0  0  0
 19 24  1  0  0  0
 20 21  2  0  0  0
 20100  1  0  0  0
 21 23  1  0  0  0
 22 28  1  0  0  0
 22 32  2  0  0  0
 26 27  1  0  0  0
 28101  1  0  0  0
 28102  1  0  0  0
 29103  1  0  0  0
 29104  1  0  0  0
 33 34  1  0  0  0
 33 66  1  0  0  0
 33 70  2  0  0  0
 34 36  1  0  0  0
 34 59  1  0  0  0
 34105  1  0  0  0
 35 44  2  0  0  0
 35 45  1  0  0  0
 35 68  1  0  0  0
 36 56  1  0  0  0
 36106  1  0  0  0
 37 39  1  0  0  0
 37 47  1  0  0  0
 37 66  1  0  0  0
 37107  1  0  0  0
 38 43  2  0  0  0
 38 46  1  0  0  0
 38 47  1  0  0  0
 39 64  1  0  0  0
 39 67  2  0  0  0
 40 52  1  0  0  0
 40 53  2  0  0  0
 40 58  1  0  0  0
 41108  1  0  0  0
 41109  1  0  0  0
 41110  1  0  0  0
 41 48  1  0  0  0
 42 43  1  0  0  0
 42 66  1  0  0  0
 42111  1  0  0  0
 42112  1  0  0  0
 43 44  1  0  0  0
 44113  1  0  0  0
 45 46  2  0  0  0
 45114  1  0  0  0
 46115  1  0  0  0
 47116  1  0  0  0
 47117  1  0  0  0
 48 56  1  0  0  0
 48 65  1  0  0  0
 48118  1  0  0  0
 49 50  1  0  0  0
 49 53  1  0  0  0
 49 64  1  0  0  0
 49119  1  0  0  0
 50 51  1  0  0  0
 50120  1  0  0  0
 50121  1  0  0  0
 51 52  1  0  0  0
 51122  1  0  0  0
 51123  1  0  0  0
 52124  1  0  0  0
 52125  1  0  0  0
 53 54  1  0  0  0
 54 55  2  0  0  0
 54126  1  0  0  0
 55 57  1  0  0  0
 55127  1  0  0  0
 56 69  2  0  0  0
 57 58  2  0  0  0
 57128  1  0  0  0
 58129  1  0  0  0
 59 60  1  0  0  0
 59 61  1  0  0  0
 59 62  1  0  0  0
 60130  1  0  0  0
 60131  1  0  0  0
 60132  1  0  0  0
 61133  1  0  0  0
 61134  1  0  0  0
 61135  1  0  0  0
 62136  1  0  0  0
 62137  1  0  0  0
 62138  1  0  0  0
 63 65  1  0  0  0
 63139  1  0  0  0
 63140  1  0  0  0
 63141  1  0  0  0
 64142  1  0  0  0
 65143  1  0  0  0
 68 79  1  0  0  0
 71 73  1  0  0  0
 71 74  2  0  0  0
 71144  1  0  0  0
 72 73  2  0  0  0
 72 84  1  0  0  0
 72145  1  0  0  0
 73 81  1  0  0  0
 74 82  1  0  0  0
 74 84  1  0  0  0
 75 78  1  0  0  0
 75 80  1  0  0  0
 75 83  2  0  0  0
 76146  1  0  0  0
 76147  1  0  0  0
 76148  1  0  0  0
 76 80  1  0  0  0
 77 80  1  0  0  0
 77149  1  0  0  0
 77150  1  0  0  0
 77151  1  0  0  0
 78 82  1  0  0  0
 78152  1  0  0  0
 78153  1  0  0  0
 79 80  1  0  0  0
 79154  1  0  0  0
 79155  1  0  0  0
 81156  1  0  0  0
 82157  1  0  0  0
M  ISO  4   1 100  68 101  79 101  81 100
M  END
> <chiral flag>
0

> <version>
0

> <s_m_source_file>
/data/baiqing/PycharmProjects/Reinvent-master-3.2/result/LINK_invent/BTK/process_docking_weight1_custom_product_contain_oxygen_bond_distance_aromatic_linkinvent_7_9_3/rearranged_h_0147.sdf

> <i_m_source_file_index>
74

> <r_mmod_Potential_Energy-OPLS-2005>
64.0291213989258

> <r_mmod_Stretch_Energy-OPLS-2005>
56.0877456665039

> <r_mmod_Bend_Energy-OPLS-2005>
134.572463989258

> <r_mmod_Torsional_Energy-OPLS-2005>
254.227127075195

> <r_mmod_Improper_Torsional_Energy-OPLS-2005>
5.28102350234985

> <r_mmod_Van_der_Waal_Energy-OPLS-2005>
124.94287109375

> <r_mmod_Electrostatic_Energy-OPLS-2005>
-293.475860595703

> <r_mmod_Solvation_Energy-OPLS-2005>
-238.763778686523

> <b_mmod_Minimization_Converged-OPLS-2005>
0

> <r_mmod_RMS_Derivative-OPLS-2005>
3.16361403465271

$$$$
74
                    3D
 Structure written by MMmdl.
161169  0  0  1  0            999 V2000
  -30.6785  -14.6159   20.5899 C   0  0  0  0  0  0
  -30.4400  -12.3978   19.4535 C   0  0  0  0  0  0
  -29.5107  -12.5261   18.2260 C   0  0  0  0  0  0
  -28.0357  -12.3505   18.6370 C   0  0  0  0  0  0
  -27.6561  -13.2204   19.8629 C   0  0  2  0  0  0
  -28.6997  -13.0718   20.9930 C   0  0  0  0  0  0
  -25.2576  -13.8175   20.5684 C   0  0  0  0  0  0
  -24.1823  -13.0434   20.9144 C   0  0  0  0  0  0
  -24.6403  -11.6910   20.8703 C   0  0  0  0  0  0
  -23.9061  -10.4286   21.0374 C   0  0  0  0  0  0
  -24.3609   -9.4213   21.9168 C   0  0  0  0  0  0
  -23.6260   -8.2261   22.0770 C   0  0  0  0  0  0
  -22.4241   -8.0301   21.3564 C   0  0  0  0  0  0
  -21.9869   -9.0265   20.4665 C   0  0  0  0  0  0
  -22.7213  -10.2129   20.3042 C   0  0  0  0  0  0
  -21.6841   -6.0732   22.5273 C   0  0  0  0  0  0
  -21.4043   -6.5639   23.8220 C   0  0  0  0  0  0
  -21.3669   -5.6785   24.9170 C   0  0  0  0  0  0
  -21.6024   -4.3044   24.7209 C   0  0  0  0  0  0
  -21.8822   -3.8138   23.4335 C   0  0  0  0  0  0
  -21.9206   -4.6963   22.3398 C   0  0  0  0  0  0
  -22.7857  -13.5259   21.1797 C   0  0  0  0  0  0
  -22.1657   -4.2157   21.0969 F   0  0  0  0  0  0
  -21.5625   -3.4527   25.7720 F   0  0  0  0  0  0
  -30.0200  -13.4188   20.4394 N   0  0  0  0  0  0
  -26.3000  -12.9364   20.3265 N   0  0  0  0  0  0
  -25.9345  -11.6528   20.5735 N   0  0  0  0  0  0
  -22.0471  -12.8288   22.0369 N   0  0  0  0  0  0
  -25.4288  -15.1886   20.4255 N   0  0  0  0  0  0
  -31.7980  -14.7529   20.0860 O   0  0  0  0  0  0
  -21.6625   -6.8874   21.4239 O   0  0  0  0  0  0
  -22.3579  -14.5563   20.6635 O   0  0  0  0  0  0
  -24.6205  -31.8669   23.2067 C   0  0  0  0  0  0
  -25.9080  -32.4824   23.8379 C   0  0  1  0  0  0
  -27.2360  -27.3728   20.1134 C   0  0  0  0  0  0
  -25.5911  -33.8608   24.2319 N   0  0  0  0  0  0
  -23.4143  -30.4878   21.5490 C   0  0  2  0  0  0
  -24.8666  -28.9403   20.1257 C   0  0  0  0  0  0
  -22.7454  -29.4663   22.4972 C   0  0  0  0  0  0
  -18.0297  -28.1381   22.8454 C   0  0  0  0  0  0
  -24.1485  -36.7308   23.2629 C   0  0  0  0  0  0
  -25.9498  -30.8046   21.3785 C   0  0  0  0  0  0
  -26.0295  -29.4284   20.7405 C   0  0  0  0  0  0
  -27.2198  -28.6484   20.7433 C   0  0  0  0  0  0
  -26.0628  -26.9258   19.4777 C   0  0  0  0  0  0
  -24.8783  -27.6852   19.4956 C   0  0  0  0  0  0
  -23.6315  -29.8180   20.1662 C   0  0  0  0  0  0
  -25.4112  -36.3122   24.0329 C   0  0  1  0  0  0
  -20.5872  -28.3740   23.1331 C   0  0  2  0  0  0
  -20.6785  -26.9444   22.5550 C   0  0  0  0  0  0
  -19.5861  -26.6388   21.5254 C   0  0  0  0  0  0
  -18.2010  -26.7924   22.1630 C   0  0  0  0  0  0
  -19.1526  -28.8880   23.2850 C   0  0  0  0  0  0
  -18.9432  -30.1485   23.8832 C   0  0  0  0  0  0
  -17.6424  -30.6614   24.0456 C   0  0  0  0  0  0
  -25.9047  -34.9476   23.5133 C   0  0  0  0  0  0
  -16.5319  -29.9083   23.6273 C   0  0  0  0  0  0
  -16.7280  -28.6464   23.0355 C   0  0  0  0  0  0
  -26.4481  -31.6602   25.0717 C   0  0  0  0  0  0
  -25.3712  -31.3728   26.1446 C   0  0  0  0  0  0
  -27.0298  -30.3030   24.6110 C   0  0  0  0  0  0
  -27.6075  -32.4307   25.7464 C   0  0  0  0  0  0
  -27.5580  -37.1819   24.8459 C   0  0  0  0  0  0
  -21.4174  -29.3068   22.3698 N   0  0  0  0  0  0
  -26.4301  -37.3802   23.9403 N   0  0  0  0  0  0
  -24.6798  -31.0704   22.1013 N   0  0  0  0  0  0
  -23.4183  -28.8213   23.3060 O   0  0  0  0  0  0
  -28.3594  -26.5769   19.9584 O   0  0  0  0  0  0
  -26.5601  -34.8928   22.4687 O   0  0  0  0  0  0
  -23.5393  -32.1478   23.7422 O   0  0  0  0  0  0
  -29.4196  -18.2978   20.5361 C   0  0  0  0  0  0
  -30.3895  -17.2604   20.8704 C   0  0  0  0  0  0
  -29.9281  -19.5756   20.3217 C   0  0  0  0  0  0
  -31.6601  -17.8023   20.8426 C   0  0  0  0  0  0
  -29.2975  -21.8225   20.7040 C   0  0  0  0  0  0
  -28.8448  -23.2783   20.3419 C   0  0  0  0  0  0
  -26.9852  -24.3589   21.7316 C   0  0  0  0  0  0
  -29.2396  -24.0618   22.7615 C   0  0  0  0  0  0
  -28.9268  -25.8673   21.0818 C   0  0  0  0  0  0
  -30.0309  -15.8300   21.3933 C   0  0  2  0  0  0
  -28.5016  -24.3755   21.4363 C   0  0  0  0  0  0
  -29.3094  -20.7723   19.9433 N   0  0  0  0  0  0
  -32.8694  -17.1951   21.1486 N   0  0  0  0  0  0
  -30.4696  -15.7869   22.7946 N   0  3  0  0  0  0
  -28.6879  -23.5810   19.1532 O   0  0  0  0  0  0
  -31.6699  -19.5068   20.4414 S   0  0  0  0  0  0
  -31.4850  -12.4977   19.1543 H   0  0  0  0  0  0
  -30.3652  -11.4021   19.8906 H   0  0  0  0  0  0
  -29.7787  -11.7880   17.4691 H   0  0  0  0  0  0
  -29.6461  -13.5036   17.7591 H   0  0  0  0  0  0
  -27.8827  -11.2953   18.8670 H   0  0  0  0  0  0
  -27.3756  -12.5770   17.7991 H   0  0  0  0  0  0
  -27.6760  -14.2565   19.5247 H   0  0  0  0  0  0
  -28.7173  -12.0456   21.3618 H   0  0  0  0  0  0
  -28.4303  -13.6767   21.8591 H   0  0  0  0  0  0
  -25.2757   -9.5672   22.4741 H   0  0  0  0  0  0
  -23.9968   -7.4660   22.7506 H   0  0  0  0  0  0
  -21.0786   -8.8765   19.8980 H   0  0  0  0  0  0
  -22.3656  -10.9658   19.6148 H   0  0  0  0  0  0
  -21.2053   -7.6151   23.9717 H   0  0  0  0  0  0
  -21.1468   -6.0514   25.9071 H   0  0  0  0  0  0
  -22.0584   -2.7593   23.2822 H   0  0  0  0  0  0
  -22.4056  -11.9960   22.4794 H   0  0  0  0  0  0
  -21.1123  -13.1408   22.2573 H   0  0  0  0  0  0
  -24.6584  -15.8371   20.5561 H   0  0  0  0  0  0
  -26.2745  -15.6348   20.0961 H   0  0  0  0  0  0
  -26.7129  -32.5538   23.1121 H   0  0  0  0  0  0
  -25.0091  -33.9735   25.0486 H   0  0  0  0  0  0
  -22.7052  -31.3071   21.4035 H   0  0  0  0  0  0
  -23.3758  -35.9622   23.3317 H   0  0  0  0  0  0
  -24.3589  -36.8906   22.2041 H   0  0  0  0  0  0
  -23.7222  -37.6510   23.6638 H   0  0  0  0  0  0
  -26.0683  -31.5578   20.5995 H   0  0  0  0  0  0
  -26.8351  -30.8649   22.0006 H   0  0  0  0  0  0
  -28.1214  -29.0266   21.2051 H   0  0  0  0  0  0
  -26.0711  -25.9775   18.9586 H   0  0  0  0  0  0
  -23.9882  -27.3041   19.0119 H   0  0  0  0  0  0
  -23.7519  -30.5930   19.4074 H   0  0  0  0  0  0
  -22.7542  -29.2453   19.8620 H   0  0  0  0  0  0
  -25.1291  -36.1996   25.0819 H   0  0  0  0  0  0
  -20.9918  -28.3392   24.1469 H   0  0  0  0  0  0
  -20.5540  -26.2416   23.3812 H   0  0  0  0  0  0
  -21.6721  -26.7410   22.1526 H   0  0  0  0  0  0
  -19.7059  -25.6263   21.1357 H   0  0  0  0  0  0
  -19.6911  -27.3183   20.6790 H   0  0  0  0  0  0
  -17.4322  -26.6578   21.4023 H   0  0  0  0  0  0
  -18.0441  -26.0103   22.9076 H   0  0  0  0  0  0
  -19.7861  -30.7326   24.2199 H   0  0  0  0  0  0
  -17.4970  -31.6330   24.4967 H   0  0  0  0  0  0
  -15.5313  -30.2985   23.7589 H   0  0  0  0  0  0
  -15.8679  -28.0769   22.7107 H   0  0  0  0  0  0
  -24.5860  -30.7130   25.7754 H   0  0  0  0  0  0
  -24.8920  -32.2888   26.4909 H   0  0  0  0  0  0
  -25.8007  -30.8857   27.0210 H   0  0  0  0  0  0
  -26.2845  -29.6809   24.1152 H   0  0  0  0  0  0
  -27.4046  -29.7268   25.4584 H   0  0  0  0  0  0
  -27.8707  -30.4342   23.9291 H   0  0  0  0  0  0
  -27.2723  -33.3598   26.2079 H   0  0  0  0  0  0
  -28.3843  -32.6880   25.0250 H   0  0  0  0  0  0
  -28.0785  -31.8402   26.5328 H   0  0  0  0  0  0
  -28.2627  -38.0101   24.7523 H   0  0  0  0  0  0
  -28.1057  -36.2639   24.6287 H   0  0  0  0  0  0
  -27.2297  -37.1476   25.8864 H   0  0  0  0  0  0
  -20.9397  -29.8728   21.6826 H   0  0  0  0  0  0
  -26.0208  -38.2882   24.1418 H   0  0  0  0  0  0
  -28.3626  -18.0806   20.5050 H   0  0  0  0  0  0
  -29.6502  -21.6934   21.7288 H   0  0  0  0  0  0
  -26.6514  -23.3990   22.1243 H   0  0  0  0  0  0
  -26.3985  -24.5616   20.8370 H   0  0  0  0  0  0
  -26.7247  -25.1206   22.4709 H   0  0  0  0  0  0
  -28.8982  -23.1335   23.2209 H   0  0  0  0  0  0
  -29.0800  -24.8407   23.5074 H   0  0  0  0  0  0
  -30.3167  -23.9926   22.6054 H   0  0  0  0  0  0
  -30.0067  -25.8767   20.9163 H   0  0  0  0  0  0
  -28.7873  -26.4967   21.9615 H   0  0  0  0  0  0
  -28.9465  -15.7281   21.3715 H   0  0  0  0  0  0
  -33.6896  -17.7426   20.8957 H   0  0  0  0  0  0
  -32.9643  -16.2689   20.7266 H   0  0  0  0  0  0
  -31.4492  -16.0248   22.8128 H   0  0  0  0  0  0
  -30.3354  -14.8770   23.1944 H   0  0  0  0  0  0
  -29.9681  -16.4678   23.3325 H   0  0  0  0  0  0
  1 25  1  0  0  0
  1 30  2  0  0  0
  1 80  1  0  0  0
  2  3  1  0  0  0
  2 25  1  0  0  0
  2 87  1  0  0  0
  2 88  1  0  0  0
  3  4  1  0  0  0
  3 89  1  0  0  0
  3 90  1  0  0  0
  4  5  1  0  0  0
  4 91  1  0  0  0
  4 92  1  0  0  0
  5  6  1  0  0  0
  5 26  1  0  0  0
  5 93  1  0  0  0
  6 25  1  0  0  0
  6 94  1  0  0  0
  6 95  1  0  0  0
  7  8  2  0  0  0
  7 26  1  0  0  0
  7 29  1  0  0  0
  8  9  1  0  0  0
  8 22  1  0  0  0
  9 10  1  0  0  0
  9 27  2  0  0  0
 10 11  2  0  0  0
 10 15  1  0  0  0
 11 12  1  0  0  0
 11 96  1  0  0  0
 12 13  2  0  0  0
 12 97  1  0  0  0
 13 14  1  0  0  0
 13 31  1  0  0  0
 14 15  2  0  0  0
 14 98  1  0  0  0
 15 99  1  0  0  0
 16 17  2  0  0  0
 16 21  1  0  0  0
 16 31  1  0  0  0
 17 18  1  0  0  0
 17100  1  0  0  0
 18 19  2  0  0  0
 18101  1  0  0  0
 19 20  1  0  0  0
 19 24  1  0  0  0
 20 21  2  0  0  0
 20102  1  0  0  0
 21 23  1  0  0  0
 22 28  1  0  0  0
 22 32  2  0  0  0
 26 27  1  0  0  0
 28103  1  0  0  0
 28104  1  0  0  0
 29105  1  0  0  0
 29106  1  0  0  0
 33 34  1  0  0  0
 33 66  1  0  0  0
 33 70  2  0  0  0
 34 36  1  0  0  0
 34 59  1  0  0  0
 34107  1  0  0  0
 35 44  2  0  0  0
 35 45  1  0  0  0
 35 68  1  0  0  0
 36 56  1  0  0  0
 36108  1  0  0  0
 37 39  1  0  0  0
 37 47  1  0  0  0
 37 66  1  0  0  0
 37109  1  0  0  0
 38 43  2  0  0  0
 38 46  1  0  0  0
 38 47  1  0  0  0
 39 64  1  0  0  0
 39 67  2  0  0  0
 40 52  1  0  0  0
 40 53  2  0  0  0
 40 58  1  0  0  0
 41110  1  0  0  0
 41111  1  0  0  0
 41112  1  0  0  0
 41 48  1  0  0  0
 42 43  1  0  0  0
 42 66  1  0  0  0
 42113  1  0  0  0
 42114  1  0  0  0
 43 44  1  0  0  0
 44115  1  0  0  0
 45 46  2  0  0  0
 45116  1  0  0  0
 46117  1  0  0  0
 47118  1  0  0  0
 47119  1  0  0  0
 48 56  1  0  0  0
 48 65  1  0  0  0
 48120  1  0  0  0
 49 50  1  0  0  0
 49 53  1  0  0  0
 49 64  1  0  0  0
 49121  1  0  0  0
 50 51  1  0  0  0
 50122  1  0  0  0
 50123  1  0  0  0
 51 52  1  0  0  0
 51124  1  0  0  0
 51125  1  0  0  0
 52126  1  0  0  0
 52127  1  0  0  0
 53 54  1  0  0  0
 54 55  2  0  0  0
 54128  1  0  0  0
 55 57  1  0  0  0
 55129  1  0  0  0
 56 69  2  0  0  0
 57 58  2  0  0  0
 57130  1  0  0  0
 58131  1  0  0  0
 59 60  1  0  0  0
 59 61  1  0  0  0
 59 62  1  0  0  0
 60132  1  0  0  0
 60133  1  0  0  0
 60134  1  0  0  0
 61135  1  0  0  0
 61136  1  0  0  0
 61137  1  0  0  0
 62138  1  0  0  0
 62139  1  0  0  0
 62140  1  0  0  0
 63 65  1  0  0  0
 63141  1  0  0  0
 63142  1  0  0  0
 63143  1  0  0  0
 64144  1  0  0  0
 65145  1  0  0  0
 68 79  1  0  0  0
 71 72  1  0  0  0
 71 73  2  0  0  0
 71146  1  0  0  0
 72 74  2  0  0  0
 72 80  1  0  0  0
 73 82  1  0  0  0
 73 86  1  0  0  0
 74 83  1  0  0  0
 74 86  1  0  0  0
 75 76  1  0  0  0
 75 82  2  0  0  0
 75147  1  0  0  0
 76 81  1  0  0  0
 76 85  2  0  0  0
 77148  1  0  0  0
 77149  1  0  0  0
 77150  1  0  0  0
 77 81  1  0  0  0
 78 81  1  0  0  0
 78151  1  0  0  0
 78152  1  0  0  0
 78153  1  0  0  0
 79 81  1  0  0  0
 79154  1  0  0  0
 79155  1  0  0  0
 80 84  1  0  0  0
 80156  1  0  0  0
 83157  1  0  0  0
 83158  1  0  0  0
 84159  1  0  0  0
 84160  1  0  0  0
 84161  1  0  0  0
M  CHG  1  84   1
M  ISO  4   1 100  68 101  79 101  80 100
M  END
> <chiral flag>
0

> <version>
0

> <s_m_source_file>
/data/baiqing/PycharmProjects/Reinvent-master-3.2/result/LINK_invent/BTK/process_docking_weight1_custom_product_contain_oxygen_bond_distance_aromatic_linkinvent_7_9_3/rearranged_h_0147.sdf

> <i_m_source_file_index>
75

> <r_mmod_Potential_Energy-OPLS-2005>
-163.13459777832

> <r_mmod_Stretch_Energy-OPLS-2005>
74.4496612548828

> <r_mmod_Bend_Energy-OPLS-2005>
159.546463012695

> <r_mmod_Torsional_Energy-OPLS-2005>
231.953384399414

> <r_mmod_Improper_Torsional_Energy-OPLS-2005>
9.448805809021

> <r_mmod_Van_der_Waal_Energy-OPLS-2005>
123.70450592041

> <r_mmod_Electrostatic_Energy-OPLS-2005>
-280.169311523438

> <r_mmod_Solvation_Energy-OPLS-2005>
-514.104431152344

> <b_mmod_Minimization_Converged-OPLS-2005>
0

> <r_mmod_RMS_Derivative-OPLS-2005>
4.23331212997437

$$$$
76
                    3D
 Structure written by MMmdl.
173182  0  0  1  0            999 V2000
  -30.6325  -14.6080   20.4467 C   0  0  0  0  0  0
  -30.4347  -12.3727   19.4280 C   0  0  0  0  0  0
  -29.5021  -12.5022   18.2068 C   0  0  0  0  0  0
  -28.0210  -12.3631   18.6148 C   0  0  0  0  0  0
  -27.6533  -13.2156   19.8593 C   0  0  2  0  0  0
  -28.7008  -13.0644   20.9821 C   0  0  0  0  0  0
  -25.2547  -13.8167   20.5642 C   0  0  0  0  0  0
  -24.1835  -13.0422   20.9195 C   0  0  0  0  0  0
  -24.6395  -11.6896   20.8701 C   0  0  0  0  0  0
  -23.9035  -10.4283   21.0372 C   0  0  0  0  0  0
  -24.3593   -9.4198   21.9151 C   0  0  0  0  0  0
  -23.6289   -8.2211   22.0719 C   0  0  0  0  0  0
  -22.4263   -8.0265   21.3528 C   0  0  0  0  0  0
  -21.9891   -9.0216   20.4619 C   0  0  0  0  0  0
  -22.7198  -10.2119   20.3020 C   0  0  0  0  0  0
  -21.6841   -6.0720   22.5279 C   0  0  0  0  0  0
  -21.4003   -6.5631   23.8215 C   0  0  0  0  0  0
  -21.3662   -5.6784   24.9180 C   0  0  0  0  0  0
  -21.6063   -4.3040   24.7221 C   0  0  0  0  0  0
  -21.8835   -3.8127   23.4335 C   0  0  0  0  0  0
  -21.9174   -4.6944   22.3380 C   0  0  0  0  0  0
  -22.7843  -13.5203   21.1873 C   0  0  0  0  0  0
  -22.1654   -4.2124   21.0966 F   0  0  0  0  0  0
  -21.5609   -3.4545   25.7749 F   0  0  0  0  0  0
  -30.0145  -13.3902   20.4112 N   0  0  0  0  0  0
  -26.2994  -12.9346   20.3299 N   0  0  0  0  0  0
  -25.9331  -11.6509   20.5730 N   0  0  0  0  0  0
  -22.0445  -12.8213   22.0420 N   0  0  0  0  0  0
  -25.4272  -15.1887   20.4039 N   0  0  0  0  0  0
  -31.8141  -14.7362   20.1220 O   0  0  0  0  0  0
  -21.6614   -6.8878   21.4261 O   0  0  0  0  0  0
  -22.3531  -14.5508   20.6713 O   0  0  0  0  0  0
  -24.6208  -31.8653   23.2058 C   0  0  0  0  0  0
  -25.9064  -32.4813   23.8409 C   0  0  1  0  0  0
  -27.2281  -27.3945   20.1048 C   0  0  0  0  0  0
  -25.5881  -33.8600   24.2326 N   0  0  0  0  0  0
  -23.4137  -30.4884   21.5469 C   0  0  2  0  0  0
  -24.8591  -28.9465   20.1212 C   0  0  0  0  0  0
  -22.7463  -29.4654   22.4973 C   0  0  0  0  0  0
  -18.0284  -28.1397   22.8488 C   0  0  0  0  0  0
  -24.1471  -36.7332   23.2647 C   0  0  0  0  0  0
  -25.9471  -30.8172   21.3638 C   0  0  0  0  0  0
  -26.0237  -29.4472   20.7186 C   0  0  0  0  0  0
  -27.2179  -28.6806   20.7037 C   0  0  0  0  0  0
  -26.0453  -26.9171   19.5060 C   0  0  0  0  0  0
  -24.8669  -27.6828   19.5101 C   0  0  0  0  0  0
  -23.6254  -29.8175   20.1653 C   0  0  0  0  0  0
  -25.4089  -36.3103   24.0348 C   0  0  1  0  0  0
  -20.5882  -28.3690   23.1302 C   0  0  2  0  0  0
  -20.6770  -26.9417   22.5424 C   0  0  0  0  0  0
  -19.5742  -26.6386   21.5222 C   0  0  0  0  0  0
  -18.1931  -26.7937   22.1631 C   0  0  0  0  0  0
  -19.1534  -28.8861   23.2887 C   0  0  0  0  0  0
  -18.9449  -30.1457   23.8906 C   0  0  0  0  0  0
  -17.6450  -30.6594   24.0569 C   0  0  0  0  0  0
  -25.9017  -34.9472   23.5141 C   0  0  0  0  0  0
  -16.5343  -29.9096   23.6329 C   0  0  0  0  0  0
  -16.7267  -28.6521   23.0336 C   0  0  0  0  0  0
  -26.4443  -31.6605   25.0758 C   0  0  0  0  0  0
  -25.3719  -31.3716   26.1530 C   0  0  0  0  0  0
  -27.0274  -30.3054   24.6130 C   0  0  0  0  0  0
  -27.6016  -32.4327   25.7518 C   0  0  0  0  0  0
  -27.5568  -37.1832   24.8465 C   0  0  0  0  0  0
  -21.4187  -29.3044   22.3701 N   0  0  0  0  0  0
  -26.4281  -37.3786   23.9398 N   0  0  0  0  0  0
  -24.6805  -31.0744   22.0966 N   0  0  0  0  0  0
  -23.4216  -28.8197   23.3025 O   0  0  0  0  0  0
  -28.3630  -26.6084   20.0439 O   0  0  0  0  0  0
  -26.5595  -34.8925   22.4705 O   0  0  0  0  0  0
  -23.5395  -32.1390   23.7429 O   0  0  0  0  0  0
  -29.0853  -18.0563   20.4970 C   0  0  0  0  0  0
  -29.3234  -19.2877   19.7647 C   0  0  0  0  0  0
  -30.3597  -19.1230   18.8688 C   0  0  0  0  0  0
  -29.9240  -16.9850   20.2087 C   0  0  0  0  0  0
  -29.6693  -23.4444   21.9508 C   0  0  0  0  0  0
  -29.7216  -21.9547   21.5336 C   0  0  0  0  0  0
  -29.1410  -24.2224   20.7216 C   0  0  1  0  0  0
  -28.2018  -23.1177   20.1132 C   0  0  0  0  0  0
  -27.8367  -23.4327   18.6465 C   0  0  0  0  0  0
  -26.8779  -22.9710   20.9210 C   0  0  0  0  0  0
  -31.9294  -21.0327   18.1647 C   0  0  0  0  0  0
  -31.2558  -25.2769   19.9911 C   0  0  0  0  0  0
  -28.4179  -20.5375   19.8564 C   0  0  0  0  0  0
  -30.8233  -20.0424   17.7720 C   0  0  0  0  0  0
  -28.5227  -25.6360   21.1042 C   0  0  0  0  0  0
  -29.8231  -15.6873   20.6798 N   0  0  0  0  0  0
  -29.0417  -21.8651   20.2201 N   0  3  2  0  0  0
  -30.1941  -24.3556   19.7488 O   0  0  0  0  0  0
  -31.1019  -17.5380   19.0307 S   0  0  0  0  0  0
  -31.4686  -12.5076   19.1083 H   0  0  0  0  0  0
  -30.3855  -11.3701   19.8552 H   0  0  0  0  0  0
  -29.7591  -11.7499   17.4585 H   0  0  0  0  0  0
  -29.6645  -13.4684   17.7253 H   0  0  0  0  0  0
  -27.8240  -11.3090   18.8114 H   0  0  0  0  0  0
  -27.3757  -12.6402   17.7792 H   0  0  0  0  0  0
  -27.6757  -14.2555   19.5338 H   0  0  0  0  0  0
  -28.7029  -12.0460   21.3712 H   0  0  0  0  0  0
  -28.4602  -13.7121   21.8245 H   0  0  0  0  0  0
  -25.2736   -9.5676   22.4744 H   0  0  0  0  0  0
  -24.0002   -7.4591   22.7449 H   0  0  0  0  0  0
  -21.0796   -8.8722   19.8940 H   0  0  0  0  0  0
  -22.3633  -10.9642   19.6118 H   0  0  0  0  0  0
  -21.2032   -7.6140   23.9729 H   0  0  0  0  0  0
  -21.1469   -6.0490   25.9095 H   0  0  0  0  0  0
  -22.0620   -2.7594   23.2812 H   0  0  0  0  0  0
  -22.4031  -11.9890   22.4877 H   0  0  0  0  0  0
  -21.1057  -13.1275   22.2594 H   0  0  0  0  0  0
  -24.6605  -15.8421   20.5177 H   0  0  0  0  0  0
  -26.2741  -15.6304   20.0634 H   0  0  0  0  0  0
  -26.7136  -32.5512   23.1183 H   0  0  0  0  0  0
  -25.0023  -33.9743   25.0469 H   0  0  0  0  0  0
  -22.7055  -31.3059   21.4013 H   0  0  0  0  0  0
  -23.3702  -35.9703   23.3351 H   0  0  0  0  0  0
  -24.3567  -36.8903   22.2056 H   0  0  0  0  0  0
  -23.7264  -37.6570   23.6626 H   0  0  0  0  0  0
  -26.0639  -31.5710   20.5848 H   0  0  0  0  0  0
  -26.8376  -30.8788   21.9793 H   0  0  0  0  0  0
  -28.1267  -29.0677   21.1412 H   0  0  0  0  0  0
  -26.0220  -25.9521   19.0262 H   0  0  0  0  0  0
  -23.9735  -27.2930   19.0419 H   0  0  0  0  0  0
  -23.7412  -30.5864   19.4002 H   0  0  0  0  0  0
  -22.7508  -29.2361   19.8708 H   0  0  0  0  0  0
  -25.1260  -36.1992   25.0844 H   0  0  0  0  0  0
  -20.9971  -28.3254   24.1423 H   0  0  0  0  0  0
  -20.5667  -26.2300   23.3619 H   0  0  0  0  0  0
  -21.6634  -26.7447   22.1216 H   0  0  0  0  0  0
  -19.6906  -25.6297   21.1251 H   0  0  0  0  0  0
  -19.6698  -27.3195   20.6747 H   0  0  0  0  0  0
  -17.4203  -26.6696   21.4012 H   0  0  0  0  0  0
  -18.0306  -26.0081   22.9026 H   0  0  0  0  0  0
  -19.7929  -30.7258   24.2284 H   0  0  0  0  0  0
  -17.5011  -31.6273   24.5181 H   0  0  0  0  0  0
  -15.5339  -30.2993   23.7653 H   0  0  0  0  0  0
  -15.8675  -28.0844   22.7026 H   0  0  0  0  0  0
  -24.5859  -30.7075   25.7900 H   0  0  0  0  0  0
  -24.8933  -32.2867   26.5032 H   0  0  0  0  0  0
  -25.8092  -30.8867   27.0277 H   0  0  0  0  0  0
  -26.2821  -29.6849   24.1126 H   0  0  0  0  0  0
  -27.3990  -29.7242   25.4585 H   0  0  0  0  0  0
  -27.8679  -30.4391   23.9318 H   0  0  0  0  0  0
  -27.2626  -33.3624   26.2111 H   0  0  0  0  0  0
  -28.3813  -32.6910   25.0335 H   0  0  0  0  0  0
  -28.0702  -31.8454   26.5431 H   0  0  0  0  0  0
  -28.2604  -38.0100   24.7443 H   0  0  0  0  0  0
  -28.1026  -36.2630   24.6344 H   0  0  0  0  0  0
  -27.2299  -37.1575   25.8872 H   0  0  0  0  0  0
  -20.9377  -29.8763   21.6911 H   0  0  0  0  0  0
  -26.0181  -38.2878   24.1335 H   0  0  0  0  0  0
  -28.2486  -17.9868   21.1784 H   0  0  0  0  0  0
  -30.6097  -23.8191   22.3536 H   0  0  0  0  0  0
  -28.9499  -23.5421   22.7650 H   0  0  0  0  0  0
  -29.2009  -21.3468   22.2731 H   0  0  0  0  0  0
  -30.7450  -21.5812   21.4618 H   0  0  0  0  0  0
  -27.4282  -24.4364   18.5605 H   0  0  0  0  0  0
  -27.0784  -22.7510   18.2621 H   0  0  0  0  0  0
  -28.6936  -23.3912   17.9779 H   0  0  0  0  0  0
  -26.2672  -23.8732   20.8712 H   0  0  0  0  0  0
  -27.0319  -22.7599   21.9806 H   0  0  0  0  0  0
  -26.2495  -22.1687   20.5374 H   0  0  0  0  0  0
  -32.2658  -21.5864   17.2862 H   0  0  0  0  0  0
  -32.7998  -20.5264   18.5843 H   0  0  0  0  0  0
  -31.5841  -21.7669   18.8906 H   0  0  0  0  0  0
  -31.9039  -25.2899   19.1128 H   0  0  0  0  0  0
  -31.8725  -24.9867   20.8411 H   0  0  0  0  0  0
  -30.9107  -26.2994   20.1380 H   0  0  0  0  0  0
  -27.5987  -20.3340   20.5459 H   0  0  0  0  0  0
  -27.9373  -20.6700   18.8876 H   0  0  0  0  0  0
  -29.9737  -20.5922   17.3639 H   0  0  0  0  0  0
  -31.1874  -19.4347   16.9406 H   0  0  0  0  0  0
  -29.2041  -26.1146   21.8084 H   0  0  0  0  0  0
  -27.5975  -25.5038   21.6665 H   0  0  0  0  0  0
  -28.9278  -15.4469   21.0765 H   0  0  0  0  0  0
  -29.7832  -22.0183   19.5487 H   0  0  0  0  0  0
  1 25  1  0  0  0
  1 30  2  0  0  0
  1 86  1  0  0  0
  2  3  1  0  0  0
  2 25  1  0  0  0
  2 90  1  0  0  0
  2 91  1  0  0  0
  3  4  1  0  0  0
  3 92  1  0  0  0
  3 93  1  0  0  0
  4  5  1  0  0  0
  4 94  1  0  0  0
  4 95  1  0  0  0
  5  6  1  0  0  0
  5 26  1  0  0  0
  5 96  1  0  0  0
  6 25  1  0  0  0
  6 97  1  0  0  0
  6 98  1  0  0  0
  7  8  2  0  0  0
  7 26  1  0  0  0
  7 29  1  0  0  0
  8  9  1  0  0  0
  8 22  1  0  0  0
  9 10  1  0  0  0
  9 27  2  0  0  0
 10 11  2  0  0  0
 10 15  1  0  0  0
 11 12  1  0  0  0
 11 99  1  0  0  0
 12 13  2  0  0  0
 12100  1  0  0  0
 13 14  1  0  0  0
 13 31  1  0  0  0
 14 15  2  0  0  0
 14101  1  0  0  0
 15102  1  0  0  0
 16 17  2  0  0  0
 16 21  1  0  0  0
 16 31  1  0  0  0
 17 18  1  0  0  0
 17103  1  0  0  0
 18 19  2  0  0  0
 18104  1  0  0  0
 19 20  1  0  0  0
 19 24  1  0  0  0
 20 21  2  0  0  0
 20105  1  0  0  0
 21 23  1  0  0  0
 22 28  1  0  0  0
 22 32  2  0  0  0
 26 27  1  0  0  0
 28106  1  0  0  0
 28107  1  0  0  0
 29108  1  0  0  0
 29109  1  0  0  0
 33 34  1  0  0  0
 33 66  1  0  0  0
 33 70  2  0  0  0
 34 36  1  0  0  0
 34 59  1  0  0  0
 34110  1  0  0  0
 35 44  2  0  0  0
 35 45  1  0  0  0
 35 68  1  0  0  0
 36 56  1  0  0  0
 36111  1  0  0  0
 37 39  1  0  0  0
 37 47  1  0  0  0
 37 66  1  0  0  0
 37112  1  0  0  0
 38 43  2  0  0  0
 38 46  1  0  0  0
 38 47  1  0  0  0
 39 64  1  0  0  0
 39 67  2  0  0  0
 40 52  1  0  0  0
 40 53  2  0  0  0
 40 58  1  0  0  0
 41113  1  0  0  0
 41114  1  0  0  0
 41115  1  0  0  0
 41 48  1  0  0  0
 42 43  1  0  0  0
 42 66  1  0  0  0
 42116  1  0  0  0
 42117  1  0  0  0
 43 44  1  0  0  0
 44118  1  0  0  0
 45 46  2  0  0  0
 45119  1  0  0  0
 46120  1  0  0  0
 47121  1  0  0  0
 47122  1  0  0  0
 48 56  1  0  0  0
 48 65  1  0  0  0
 48123  1  0  0  0
 49 50  1  0  0  0
 49 53  1  0  0  0
 49 64  1  0  0  0
 49124  1  0  0  0
 50 51  1  0  0  0
 50125  1  0  0  0
 50126  1  0  0  0
 51 52  1  0  0  0
 51127  1  0  0  0
 51128  1  0  0  0
 52129  1  0  0  0
 52130  1  0  0  0
 53 54  1  0  0  0
 54 55  2  0  0  0
 54131  1  0  0  0
 55 57  1  0  0  0
 55132  1  0  0  0
 56 69  2  0  0  0
 57 58  2  0  0  0
 57133  1  0  0  0
 58134  1  0  0  0
 59 60  1  0  0  0
 59 61  1  0  0  0
 59 62  1  0  0  0
 60135  1  0  0  0
 60136  1  0  0  0
 60137  1  0  0  0
 61138  1  0  0  0
 61139  1  0  0  0
 61140  1  0  0  0
 62141  1  0  0  0
 62142  1  0  0  0
 62143  1  0  0  0
 63 65  1  0  0  0
 63144  1  0  0  0
 63145  1  0  0  0
 63146  1  0  0  0
 64147  1  0  0  0
 65148  1  0  0  0
 68 85  1  0  0  0
 71 72  1  0  0  0
 71 74  2  0  0  0
 71149  1  0  0  0
 72 73  2  0  0  0
 72 83  1  0  0  0
 73 84  1  0  0  0
 73 89  1  0  0  0
 74 86  1  0  0  0
 74 89  1  0  0  0
 75 76  1  0  0  0
 75 77  1  0  0  0
 75150  1  0  0  0
 75151  1  0  0  0
 76 87  1  0  0  0
 76152  1  0  0  0
 76153  1  0  0  0
 77 78  1  0  0  0
 77 85  1  0  0  0
 77 88  1  0  0  0
 78 79  1  0  0  0
 78 80  1  0  0  0
 78 87  1  0  0  0
 79154  1  0  0  0
 79155  1  0  0  0
 79156  1  0  0  0
 80157  1  0  0  0
 80158  1  0  0  0
 80159  1  0  0  0
 81 84  1  0  0  0
 81160  1  0  0  0
 81161  1  0  0  0
 81162  1  0  0  0
 82 88  1  0  0  0
 82163  1  0  0  0
 82164  1  0  0  0
 82165  1  0  0  0
 83166  1  0  0  0
 83167  1  0  0  0
 83 87  1  0  0  0
 84168  1  0  0  0
 84169  1  0  0  0
 85170  1  0  0  0
 85171  1  0  0  0
 86172  1  0  0  0
 87173  1  0  0  0
M  CHG  1  87   1
M  ISO  4   1 100  68 101  85 101  86 100
M  END
> <chiral flag>
0

> <version>
0

> <s_m_source_file>
/data/baiqing/PycharmProjects/Reinvent-master-3.2/result/LINK_invent/BTK/process_docking_weight1_custom_product_contain_oxygen_bond_distance_aromatic_linkinvent_7_9_3/rearranged_h_0147.sdf

> <i_m_source_file_index>
76

> <r_mmod_Potential_Energy-OPLS-2005>
10.5772161483765

> <r_mmod_Stretch_Energy-OPLS-2005>
60.2100868225098

> <r_mmod_Bend_Energy-OPLS-2005>
174.987426757812

> <r_mmod_Torsional_Energy-OPLS-2005>
314.034759521484

> <r_mmod_Improper_Torsional_Energy-OPLS-2005>
5.90452766418457

> <r_mmod_Van_der_Waal_Energy-OPLS-2005>
114.90389251709

> <r_mmod_Electrostatic_Energy-OPLS-2005>
-279.077026367188

> <r_mmod_Solvation_Energy-OPLS-2005>
-412.256927490234

> <b_mmod_Minimization_Converged-OPLS-2005>
0

> <r_mmod_RMS_Derivative-OPLS-2005>
5.32295989990234

$$$$
77
                    3D
 Structure written by MMmdl.
152161  0  0  1  0            999 V2000
  -30.6665  -14.5661   20.4829 C   0  0  0  0  0  0
  -30.4236  -12.3408   19.4425 C   0  0  0  0  0  0
  -29.4982  -12.4856   18.2161 C   0  0  0  0  0  0
  -28.0202  -12.3428   18.6305 C   0  0  0  0  0  0
  -27.6514  -13.2139   19.8620 C   0  0  2  0  0  0
  -28.6980  -13.0722   20.9904 C   0  0  0  0  0  0
  -25.2561  -13.8169   20.5705 C   0  0  0  0  0  0
  -24.1814  -13.0436   20.9181 C   0  0  0  0  0  0
  -24.6383  -11.6907   20.8744 C   0  0  0  0  0  0
  -23.9056  -10.4291   21.0412 C   0  0  0  0  0  0
  -24.3608   -9.4209   21.9189 C   0  0  0  0  0  0
  -23.6284   -8.2243   22.0758 C   0  0  0  0  0  0
  -22.4266   -8.0281   21.3547 C   0  0  0  0  0  0
  -21.9898   -9.0257   20.4651 C   0  0  0  0  0  0
  -22.7229  -10.2135   20.3064 C   0  0  0  0  0  0
  -21.6846   -6.0735   22.5282 C   0  0  0  0  0  0
  -21.4013   -6.5639   23.8217 C   0  0  0  0  0  0
  -21.3656   -5.6792   24.9179 C   0  0  0  0  0  0
  -21.6037   -4.3055   24.7228 C   0  0  0  0  0  0
  -21.8817   -3.8147   23.4351 C   0  0  0  0  0  0
  -21.9187   -4.6964   22.3407 C   0  0  0  0  0  0
  -22.7838  -13.5232   21.1843 C   0  0  0  0  0  0
  -22.1650   -4.2151   21.0985 F   0  0  0  0  0  0
  -21.5633   -3.4538   25.7740 F   0  0  0  0  0  0
  -30.0155  -13.3694   20.4138 N   0  0  0  0  0  0
  -26.2985  -12.9346   20.3347 N   0  0  0  0  0  0
  -25.9313  -11.6503   20.5779 N   0  0  0  0  0  0
  -22.0481  -12.8231   22.0403 N   0  0  0  0  0  0
  -25.4301  -15.1890   20.4168 N   0  0  0  0  0  0
  -31.8565  -14.6748   20.1686 O   0  0  0  0  0  0
  -21.6632   -6.8879   21.4244 O   0  0  0  0  0  0
  -22.3523  -14.5539   20.6696 O   0  0  0  0  0  0
  -24.6191  -31.8638   23.2060 C   0  0  0  0  0  0
  -25.9067  -32.4800   23.8373 C   0  0  1  0  0  0
  -27.2293  -27.3865   20.1142 C   0  0  0  0  0  0
  -25.5909  -33.8600   24.2307 N   0  0  0  0  0  0
  -23.4101  -30.4857   21.5469 C   0  0  2  0  0  0
  -24.8578  -28.9446   20.1145 C   0  0  0  0  0  0
  -22.7434  -29.4638   22.4967 C   0  0  0  0  0  0
  -18.0278  -28.1377   22.8490 C   0  0  0  0  0  0
  -24.1490  -36.7306   23.2638 C   0  0  0  0  0  0
  -25.9428  -30.8171   21.3644 C   0  0  0  0  0  0
  -26.0212  -29.4479   20.7109 C   0  0  0  0  0  0
  -27.2139  -28.6795   20.6993 C   0  0  0  0  0  0
  -26.0498  -26.9086   19.5070 C   0  0  0  0  0  0
  -24.8696  -27.6775   19.5055 C   0  0  0  0  0  0
  -23.6217  -29.8166   20.1627 C   0  0  0  0  0  0
  -25.4111  -36.3099   24.0336 C   0  0  1  0  0  0
  -20.5869  -28.3671   23.1307 C   0  0  2  0  0  0
  -20.6767  -26.9401   22.5415 C   0  0  0  0  0  0
  -19.5746  -26.6384   21.5211 C   0  0  0  0  0  0
  -18.1926  -26.7924   22.1622 C   0  0  0  0  0  0
  -19.1525  -28.8841   23.2898 C   0  0  0  0  0  0
  -18.9453  -30.1446   23.8911 C   0  0  0  0  0  0
  -17.6455  -30.6585   24.0562 C   0  0  0  0  0  0
  -25.9040  -34.9464   23.5120 C   0  0  0  0  0  0
  -16.5346  -29.9086   23.6324 C   0  0  0  0  0  0
  -16.7265  -28.6499   23.0349 C   0  0  0  0  0  0
  -26.4481  -31.6589   25.0716 C   0  0  0  0  0  0
  -25.3741  -31.3698   26.1459 C   0  0  0  0  0  0
  -27.0316  -30.3028   24.6114 C   0  0  0  0  0  0
  -27.6056  -32.4308   25.7481 C   0  0  0  0  0  0
  -27.5581  -37.1808   24.8466 C   0  0  0  0  0  0
  -21.4155  -29.3033   22.3709 N   0  0  0  0  0  0
  -26.4296  -37.3784   23.9407 N   0  0  0  0  0  0
  -24.6758  -31.0705   22.0976 N   0  0  0  0  0  0
  -23.4186  -28.8180   23.3026 O   0  0  0  0  0  0
  -28.3690  -26.5979   20.1174 O   0  0  0  0  0  0
  -26.5602  -34.8919   22.4683 O   0  0  0  0  0  0
  -23.5374  -32.1405   23.7430 O   0  0  0  0  0  0
  -29.4145  -19.2425   19.1620 C   0  0  0  0  0  0
  -29.5785  -17.9385   19.7380 C   0  0  0  0  0  0
  -29.4981  -17.9269   21.0707 C   0  0  0  0  0  0
  -29.1975  -20.2476   20.0957 C   0  0  0  0  0  0
  -28.7476  -22.6650   20.5508 C   0  0  0  0  0  0
  -29.8281  -16.5414   19.2535 C   0  0  0  0  0  0
  -29.6812  -16.5605   21.6534 C   0  0  0  0  0  0
  -28.6689  -24.0566   19.8400 C   0  0  0  0  0  0
  -28.2485  -25.2796   20.7298 C   0  0  0  0  0  0
  -29.8618  -15.6703   20.4705 N   0  0  0  0  0  0
  -29.0287  -21.5798   19.7812 N   0  0  0  0  0  0
  -28.5540  -22.5886   21.7662 O   0  0  0  0  0  0
  -29.2005  -19.5248   21.7253 S   0  0  0  0  0  0
  -31.4686  -12.4391   19.1411 H   0  0  0  0  0  0
  -30.3289  -11.3474   19.8836 H   0  0  0  0  0  0
  -29.7483  -11.7352   17.4648 H   0  0  0  0  0  0
  -29.6557  -13.4562   17.7434 H   0  0  0  0  0  0
  -27.8431  -11.2905   18.8560 H   0  0  0  0  0  0
  -27.3681  -12.5858   17.7911 H   0  0  0  0  0  0
  -27.6672  -14.2483   19.5201 H   0  0  0  0  0  0
  -28.6902  -12.0628   21.4041 H   0  0  0  0  0  0
  -28.4669  -13.7447   21.8183 H   0  0  0  0  0  0
  -25.2760   -9.5678   22.4754 H   0  0  0  0  0  0
  -23.9999   -7.4632   22.7470 H   0  0  0  0  0  0
  -21.0834   -8.8777   19.8948 H   0  0  0  0  0  0
  -22.3699  -10.9676   19.6171 H   0  0  0  0  0  0
  -21.2009   -7.6147   23.9720 H   0  0  0  0  0  0
  -21.1478   -6.0529   25.9081 H   0  0  0  0  0  0
  -22.0599   -2.7608   23.2861 H   0  0  0  0  0  0
  -22.4092  -11.9895   22.4794 H   0  0  0  0  0  0
  -21.1104  -13.1271   22.2619 H   0  0  0  0  0  0
  -24.6703  -15.8487   20.5445 H   0  0  0  0  0  0
  -26.2998  -15.6326   20.1496 H   0  0  0  0  0  0
  -26.7135  -32.5498   23.1131 H   0  0  0  0  0  0
  -25.0071  -33.9754   25.0462 H   0  0  0  0  0  0
  -22.7009  -31.3038   21.4048 H   0  0  0  0  0  0
  -23.3747  -35.9645   23.3310 H   0  0  0  0  0  0
  -24.3580  -36.8912   22.2051 H   0  0  0  0  0  0
  -23.7250  -37.6516   23.6647 H   0  0  0  0  0  0
  -26.0604  -31.5820   20.5957 H   0  0  0  0  0  0
  -26.8281  -30.8703   21.9866 H   0  0  0  0  0  0
  -28.1128  -29.0630   21.1614 H   0  0  0  0  0  0
  -26.0411  -25.9348   19.0377 H   0  0  0  0  0  0
  -23.9756  -27.2858   19.0399 H   0  0  0  0  0  0
  -23.7343  -30.5909   19.4030 H   0  0  0  0  0  0
  -22.7446  -29.2394   19.8642 H   0  0  0  0  0  0
  -25.1291  -36.1961   25.0829 H   0  0  0  0  0  0
  -20.9963  -28.3236   24.1427 H   0  0  0  0  0  0
  -20.5672  -26.2272   23.3603 H   0  0  0  0  0  0
  -21.6637  -26.7441   22.1203 H   0  0  0  0  0  0
  -19.6908  -25.6297   21.1234 H   0  0  0  0  0  0
  -19.6690  -27.3199   20.6746 H   0  0  0  0  0  0
  -17.4195  -26.6670   21.4026 H   0  0  0  0  0  0
  -18.0330  -26.0063   22.9017 H   0  0  0  0  0  0
  -19.7927  -30.7257   24.2287 H   0  0  0  0  0  0
  -17.5008  -31.6266   24.5162 H   0  0  0  0  0  0
  -15.5346  -30.2994   23.7641 H   0  0  0  0  0  0
  -15.8661  -28.0824   22.7062 H   0  0  0  0  0  0
  -24.5921  -30.7039   25.7789 H   0  0  0  0  0  0
  -24.8927  -32.2853   26.4904 H   0  0  0  0  0  0
  -25.8093  -30.8866   27.0217 H   0  0  0  0  0  0
  -26.2866  -29.6782   24.1171 H   0  0  0  0  0  0
  -27.4082  -29.7271   25.4579 H   0  0  0  0  0  0
  -27.8703  -30.4337   23.9271 H   0  0  0  0  0  0
  -27.2683  -33.3604   26.2075 H   0  0  0  0  0  0
  -28.3861  -32.6871   25.0304 H   0  0  0  0  0  0
  -28.0731  -31.8420   26.5384 H   0  0  0  0  0  0
  -28.2604  -38.0100   24.7505 H   0  0  0  0  0  0
  -28.1074  -36.2631   24.6304 H   0  0  0  0  0  0
  -27.2296  -37.1471   25.8868 H   0  0  0  0  0  0
  -20.9321  -29.8757   21.6928 H   0  0  0  0  0  0
  -26.0185  -38.2864   24.1401 H   0  0  0  0  0  0
  -29.4639  -19.3961   18.0927 H   0  0  0  0  0  0
  -30.7620  -16.4913   18.6910 H   0  0  0  0  0  0
  -29.0329  -16.2076   18.5862 H   0  0  0  0  0  0
  -30.5522  -16.5309   22.3105 H   0  0  0  0  0  0
  -28.8044  -16.2577   22.2269 H   0  0  0  0  0  0
  -27.9779  -23.9761   19.0010 H   0  0  0  0  0  0
  -29.6499  -24.2581   19.4098 H   0  0  0  0  0  0
  -28.8886  -25.3018   21.6125 H   0  0  0  0  0  0
  -27.2421  -25.1104   21.1172 H   0  0  0  0  0  0
  -29.1382  -21.7977   18.7996 H   0  0  0  0  0  0
  1 25  1  0  0  0
  1 30  2  0  0  0
  1 80  1  0  0  0
  2  3  1  0  0  0
  2 25  1  0  0  0
  2 84  1  0  0  0
  2 85  1  0  0  0
  3  4  1  0  0  0
  3 86  1  0  0  0
  3 87  1  0  0  0
  4  5  1  0  0  0
  4 88  1  0  0  0
  4 89  1  0  0  0
  5  6  1  0  0  0
  5 26  1  0  0  0
  5 90  1  0  0  0
  6 25  1  0  0  0
  6 91  1  0  0  0
  6 92  1  0  0  0
  7  8  2  0  0  0
  7 26  1  0  0  0
  7 29  1  0  0  0
  8  9  1  0  0  0
  8 22  1  0  0  0
  9 10  1  0  0  0
  9 27  2  0  0  0
 10 11  2  0  0  0
 10 15  1  0  0  0
 11 12  1  0  0  0
 11 93  1  0  0  0
 12 13  2  0  0  0
 12 94  1  0  0  0
 13 14  1  0  0  0
 13 31  1  0  0  0
 14 15  2  0  0  0
 14 95  1  0  0  0
 15 96  1  0  0  0
 16 17  2  0  0  0
 16 21  1  0  0  0
 16 31  1  0  0  0
 17 18  1  0  0  0
 17 97  1  0  0  0
 18 19  2  0  0  0
 18 98  1  0  0  0
 19 20  1  0  0  0
 19 24  1  0  0  0
 20 21  2  0  0  0
 20 99  1  0  0  0
 21 23  1  0  0  0
 22 28  1  0  0  0
 22 32  2  0  0  0
 26 27  1  0  0  0
 28100  1  0  0  0
 28101  1  0  0  0
 29102  1  0  0  0
 29103  1  0  0  0
 33 34  1  0  0  0
 33 66  1  0  0  0
 33 70  2  0  0  0
 34 36  1  0  0  0
 34 59  1  0  0  0
 34104  1  0  0  0
 35 44  2  0  0  0
 35 45  1  0  0  0
 35 68  1  0  0  0
 36 56  1  0  0  0
 36105  1  0  0  0
 37 39  1  0  0  0
 37 47  1  0  0  0
 37 66  1  0  0  0
 37106  1  0  0  0
 38 43  2  0  0  0
 38 46  1  0  0  0
 38 47  1  0  0  0
 39 64  1  0  0  0
 39 67  2  0  0  0
 40 52  1  0  0  0
 40 53  2  0  0  0
 40 58  1  0  0  0
 41107  1  0  0  0
 41108  1  0  0  0
 41109  1  0  0  0
 41 48  1  0  0  0
 42 43  1  0  0  0
 42 66  1  0  0  0
 42110  1  0  0  0
 42111  1  0  0  0
 43 44  1  0  0  0
 44112  1  0  0  0
 45 46  2  0  0  0
 45113  1  0  0  0
 46114  1  0  0  0
 47115  1  0  0  0
 47116  1  0  0  0
 48 56  1  0  0  0
 48 65  1  0  0  0
 48117  1  0  0  0
 49 50  1  0  0  0
 49 53  1  0  0  0
 49 64  1  0  0  0
 49118  1  0  0  0
 50 51  1  0  0  0
 50119  1  0  0  0
 50120  1  0  0  0
 51 52  1  0  0  0
 51121  1  0  0  0
 51122  1  0  0  0
 52123  1  0  0  0
 52124  1  0  0  0
 53 54  1  0  0  0
 54 55  2  0  0  0
 54125  1  0  0  0
 55 57  1  0  0  0
 55126  1  0  0  0
 56 69  2  0  0  0
 57 58  2  0  0  0
 57127  1  0  0  0
 58128  1  0  0  0
 59 60  1  0  0  0
 59 61  1  0  0  0
 59 62  1  0  0  0
 60129  1  0  0  0
 60130  1  0  0  0
 60131  1  0  0  0
 61132  1  0  0  0
 61133  1  0  0  0
 61134  1  0  0  0
 62135  1  0  0  0
 62136  1  0  0  0
 62137  1  0  0  0
 63 65  1  0  0  0
 63138  1  0  0  0
 63139  1  0  0  0
 63140  1  0  0  0
 64141  1  0  0  0
 65142  1  0  0  0
 68 79  1  0  0  0
 71 72  1  0  0  0
 71 74  2  0  0  0
 71143  1  0  0  0
 72 73  2  0  0  0
 72 76  1  0  0  0
 73 77  1  0  0  0
 73 83  1  0  0  0
 74 81  1  0  0  0
 74 83  1  0  0  0
 75 78  1  0  0  0
 75 81  1  0  0  0
 75 82  2  0  0  0
 76 80  1  0  0  0
 76144  1  0  0  0
 76145  1  0  0  0
 77 80  1  0  0  0
 77146  1  0  0  0
 77147  1  0  0  0
 78 79  1  0  0  0
 78148  1  0  0  0
 78149  1  0  0  0
 79150  1  0  0  0
 79151  1  0  0  0
 81152  1  0  0  0
M  ISO  4   1 100  68 101  79 101  80 100
M  END
> <chiral flag>
0

> <version>
0

> <s_m_source_file>
/data/baiqing/PycharmProjects/Reinvent-master-3.2/result/LINK_invent/BTK/process_docking_weight1_custom_product_contain_oxygen_bond_distance_aromatic_linkinvent_7_9_3/rearranged_h_0147.sdf

> <i_m_source_file_index>
77

> <r_mmod_Potential_Energy-OPLS-2005>
100.187446594238

> <r_mmod_Stretch_Energy-OPLS-2005>
55.5295791625977

> <r_mmod_Bend_Energy-OPLS-2005>
185.400650024414

> <r_mmod_Torsional_Energy-OPLS-2005>
284.017272949219

> <r_mmod_Improper_Torsional_Energy-OPLS-2005>
16.1771183013916

> <r_mmod_Van_der_Waal_Energy-OPLS-2005>
115.923164367676

> <r_mmod_Electrostatic_Energy-OPLS-2005>
-358.373016357422

> <r_mmod_Solvation_Energy-OPLS-2005>
-227.538513183594

> <b_mmod_Minimization_Converged-OPLS-2005>
0

> <r_mmod_RMS_Derivative-OPLS-2005>
0.815696179866791

$$$$
78
                    3D
 Structure written by MMmdl.
163171  0  0  1  0            999 V2000
  -30.7693  -14.3762   20.6475 C   0  0  0  0  0  0
  -30.4098  -12.2813   19.4011 C   0  0  0  0  0  0
  -29.4830  -12.5172   18.1949 C   0  0  0  0  0  0
  -28.0067  -12.3806   18.6104 C   0  0  0  0  0  0
  -27.6644  -13.2064   19.8796 C   0  0  2  0  0  0
  -28.7043  -12.9632   20.9965 C   0  0  0  0  0  0
  -25.2590  -13.8171   20.5681 C   0  0  0  0  0  0
  -24.1835  -13.0445   20.9162 C   0  0  0  0  0  0
  -24.6389  -11.6910   20.8733 C   0  0  0  0  0  0
  -23.9054  -10.4300   21.0400 C   0  0  0  0  0  0
  -24.3612   -9.4213   21.9183 C   0  0  0  0  0  0
  -23.6290   -8.2244   22.0752 C   0  0  0  0  0  0
  -22.4271   -8.0284   21.3544 C   0  0  0  0  0  0
  -21.9907   -9.0251   20.4643 C   0  0  0  0  0  0
  -22.7227  -10.2133   20.3053 C   0  0  0  0  0  0
  -21.6850   -6.0735   22.5276 C   0  0  0  0  0  0
  -21.4017   -6.5643   23.8208 C   0  0  0  0  0  0
  -21.3653   -5.6790   24.9175 C   0  0  0  0  0  0
  -21.6052   -4.3054   24.7224 C   0  0  0  0  0  0
  -21.8813   -3.8147   23.4339 C   0  0  0  0  0  0
  -21.9196   -4.6966   22.3399 C   0  0  0  0  0  0
  -22.7857  -13.5242   21.1832 C   0  0  0  0  0  0
  -22.1658   -4.2151   21.0973 F   0  0  0  0  0  0
  -21.5629   -3.4535   25.7731 F   0  0  0  0  0  0
  -30.0433  -13.2452   20.4503 N   0  0  0  0  0  0
  -26.3037  -12.9343   20.3395 N   0  0  0  0  0  0
  -25.9325  -11.6497   20.5775 N   0  0  0  0  0  0
  -22.0495  -12.8242   22.0398 N   0  0  0  0  0  0
  -25.4314  -15.1889   20.4081 N   0  0  0  0  0  0
  -31.8265  -14.6030   20.0503 O   0  0  0  0  0  0
  -21.6640   -6.8880   21.4236 O   0  0  0  0  0  0
  -22.3542  -14.5549   20.6686 O   0  0  0  0  0  0
  -24.6134  -31.8680   23.2109 C   0  0  0  0  0  0
  -25.9040  -32.4818   23.8394 C   0  0  1  0  0  0
  -27.2313  -27.4458   20.0955 C   0  0  0  0  0  0
  -25.5914  -33.8620   24.2329 N   0  0  0  0  0  0
  -23.3985  -30.4923   21.5520 C   0  0  2  0  0  0
  -24.8421  -28.9610   20.1136 C   0  0  0  0  0  0
  -22.7399  -29.4661   22.5014 C   0  0  0  0  0  0
  -18.0257  -28.1383   22.8505 C   0  0  0  0  0  0
  -24.1489  -36.7316   23.2640 C   0  0  0  0  0  0
  -25.9255  -30.8369   21.3624 C   0  0  0  0  0  0
  -26.0006  -29.4723   20.7110 C   0  0  0  0  0  0
  -27.1967  -28.7217   20.6993 C   0  0  0  0  0  0
  -26.0554  -26.9484   19.4848 C   0  0  0  0  0  0
  -24.8651  -27.6977   19.4993 C   0  0  0  0  0  0
  -23.6016  -29.8236   20.1661 C   0  0  0  0  0  0
  -25.4106  -36.3112   24.0342 C   0  0  1  0  0  0
  -20.5858  -28.3651   23.1339 C   0  0  2  0  0  0
  -20.6767  -26.9394   22.5430 C   0  0  0  0  0  0
  -19.5743  -26.6382   21.5237 C   0  0  0  0  0  0
  -18.1910  -26.7937   22.1625 C   0  0  0  0  0  0
  -19.1510  -28.8832   23.2923 C   0  0  0  0  0  0
  -18.9445  -30.1449   23.8914 C   0  0  0  0  0  0
  -17.6449  -30.6603   24.0556 C   0  0  0  0  0  0
  -25.9024  -34.9477   23.5116 C   0  0  0  0  0  0
  -16.5337  -29.9105   23.6329 C   0  0  0  0  0  0
  -16.7248  -28.6517   23.0359 C   0  0  0  0  0  0
  -26.4468  -31.6595   25.0728 C   0  0  0  0  0  0
  -25.3735  -31.3712   26.1484 C   0  0  0  0  0  0
  -27.0300  -30.3042   24.6086 C   0  0  0  0  0  0
  -27.6044  -32.4319   25.7493 C   0  0  0  0  0  0
  -27.5582  -37.1813   24.8465 C   0  0  0  0  0  0
  -21.4125  -29.3035   22.3761 N   0  0  0  0  0  0
  -26.4294  -37.3797   23.9399 N   0  0  0  0  0  0
  -24.6635  -31.0805   22.0995 N   0  0  0  0  0  0
  -23.4183  -28.8197   23.3037 O   0  0  0  0  0  0
  -28.4142  -26.7421   20.1089 O   0  0  0  0  0  0
  -26.5581  -34.8927   22.4679 O   0  0  0  0  0  0
  -23.5335  -32.1425   23.7508 O   0  0  0  0  0  0
  -32.1749  -16.5658   22.3197 C   0  0  0  0  0  0
  -32.0485  -18.9917   22.4173 C   0  0  0  0  0  0
  -30.1081  -17.7072   21.6977 C   0  0  0  0  0  0
  -32.7880  -17.8050   22.6032 C   0  0  0  0  0  0
  -30.8460  -16.5118   21.8437 C   0  0  0  0  0  0
  -30.7063  -18.9577   21.9706 C   0  0  0  0  0  0
  -34.1883  -17.8886   23.0748 C   0  0  0  0  0  0
  -29.3614  -24.6838   21.0033 C   0  0  0  0  0  0
  -27.8531  -22.1351   22.6487 C   0  0  0  0  0  0
  -29.5159  -23.1572   20.9831 C   0  0  0  0  0  0
  -28.3338  -25.3113   20.0520 C   0  0  0  0  0  0
  -30.2807  -21.2989   22.5901 C   0  0  0  0  0  0
  -29.3249  -22.4878   22.3681 C   0  0  2  0  0  0
  -34.9157  -16.9017   23.3927 N   0  0  0  0  0  0
  -30.2514  -15.2647   21.5110 N   0  0  0  0  0  0
  -29.9568  -20.1309   21.7746 N   0  0  0  0  0  0
  -30.0534  -25.3770   21.7579 O   0  0  0  0  0  0
  -31.4548  -12.3636   19.0975 H   0  0  0  0  0  0
  -30.2947  -11.2640   19.7777 H   0  0  0  0  0  0
  -29.7147  -11.8105   17.3972 H   0  0  0  0  0  0
  -29.6586  -13.5122   17.7824 H   0  0  0  0  0  0
  -27.8080  -11.3229   18.7913 H   0  0  0  0  0  0
  -27.3560  -12.6733   17.7853 H   0  0  0  0  0  0
  -27.7181  -14.2593   19.6006 H   0  0  0  0  0  0
  -28.6660  -11.9251   21.3293 H   0  0  0  0  0  0
  -28.4623  -13.5548   21.8800 H   0  0  0  0  0  0
  -25.2759   -9.5692   22.4749 H   0  0  0  0  0  0
  -24.0004   -7.4636   22.7477 H   0  0  0  0  0  0
  -21.0837   -8.8758   19.8950 H   0  0  0  0  0  0
  -22.3685  -10.9663   19.6154 H   0  0  0  0  0  0
  -21.2004   -7.6147   23.9715 H   0  0  0  0  0  0
  -21.1484   -6.0519   25.9074 H   0  0  0  0  0  0
  -22.0602   -2.7607   23.2833 H   0  0  0  0  0  0
  -22.4095  -11.9897   22.4781 H   0  0  0  0  0  0
  -21.1113  -13.1271   22.2594 H   0  0  0  0  0  0
  -24.6686  -15.8485   20.5153 H   0  0  0  0  0  0
  -26.2921  -15.6253   20.0986 H   0  0  0  0  0  0
  -26.7099  -32.5513   23.1147 H   0  0  0  0  0  0
  -25.0111  -33.9777   25.0505 H   0  0  0  0  0  0
  -22.6865  -31.3080   21.4129 H   0  0  0  0  0  0
  -23.3756  -35.9644   23.3314 H   0  0  0  0  0  0
  -24.3587  -36.8928   22.2056 H   0  0  0  0  0  0
  -23.7248  -37.6532   23.6629 H   0  0  0  0  0  0
  -26.0385  -31.6016   20.5928 H   0  0  0  0  0  0
  -26.8139  -30.8879   21.9797 H   0  0  0  0  0  0
  -28.0914  -29.1116   21.1637 H   0  0  0  0  0  0
  -26.0430  -25.9913   18.9840 H   0  0  0  0  0  0
  -23.9746  -27.2996   19.0312 H   0  0  0  0  0  0
  -23.6992  -30.5954   19.4017 H   0  0  0  0  0  0
  -22.7266  -29.2391   19.8759 H   0  0  0  0  0  0
  -25.1287  -36.1978   25.0839 H   0  0  0  0  0  0
  -20.9913  -28.3198   24.1473 H   0  0  0  0  0  0
  -20.5710  -26.2245   23.3606 H   0  0  0  0  0  0
  -21.6625  -26.7470   22.1181 H   0  0  0  0  0  0
  -19.6900  -25.6300   21.1254 H   0  0  0  0  0  0
  -19.6698  -27.3201   20.6780 H   0  0  0  0  0  0
  -17.4190  -26.6707   21.4016 H   0  0  0  0  0  0
  -18.0279  -26.0084   22.9014 H   0  0  0  0  0  0
  -19.7924  -30.7264   24.2291 H   0  0  0  0  0  0
  -17.5011  -31.6293   24.5150 H   0  0  0  0  0  0
  -15.5341  -30.3015   23.7679 H   0  0  0  0  0  0
  -15.8635  -28.0847   22.7077 H   0  0  0  0  0  0
  -24.5890  -30.7070   25.7826 H   0  0  0  0  0  0
  -24.8942  -32.2883   26.4924 H   0  0  0  0  0  0
  -25.8103  -30.8884   27.0237 H   0  0  0  0  0  0
  -26.2833  -29.6823   24.1126 H   0  0  0  0  0  0
  -27.4091  -29.7260   25.4525 H   0  0  0  0  0  0
  -27.8656  -30.4398   23.9215 H   0  0  0  0  0  0
  -27.2645  -33.3605   26.2087 H   0  0  0  0  0  0
  -28.3840  -32.6912   25.0316 H   0  0  0  0  0  0
  -28.0711  -31.8437   26.5406 H   0  0  0  0  0  0
  -28.2599  -38.0110   24.7508 H   0  0  0  0  0  0
  -28.1090  -36.2655   24.6285 H   0  0  0  0  0  0
  -27.2301  -37.1438   25.8870 H   0  0  0  0  0  0
  -20.9273  -29.8769   21.7007 H   0  0  0  0  0  0
  -26.0203  -38.2881   24.1399 H   0  0  0  0  0  0
  -32.7322  -15.6485   22.4451 H   0  0  0  0  0  0
  -32.5396  -19.9320   22.6198 H   0  0  0  0  0  0
  -29.0874  -17.6631   21.3437 H   0  0  0  0  0  0
  -34.6080  -18.8970   23.1444 H   0  0  0  0  0  0
  -27.2200  -23.0210   22.6026 H   0  0  0  0  0  0
  -27.7347  -21.7049   23.6439 H   0  0  0  0  0  0
  -27.4633  -21.4172   21.9266 H   0  0  0  0  0  0
  -30.5222  -22.9556   20.6146 H   0  0  0  0  0  0
  -28.8326  -22.7262   20.2510 H   0  0  0  0  0  0
  -27.3543  -24.9440   20.3591 H   0  0  0  0  0  0
  -28.5183  -24.9707   19.0324 H   0  0  0  0  0  0
  -30.2649  -21.0100   23.6433 H   0  0  0  0  0  0
  -31.2958  -21.6372   22.3768 H   0  0  0  0  0  0
  -29.6143  -23.2140   23.1301 H   0  0  0  0  0  0
  -34.4193  -16.0235   23.2934 H   0  0  0  0  0  0
  -29.3241  -15.0712   21.8602 H   0  0  0  0  0  0
  -28.9730  -20.0080   21.5539 H   0  0  0  0  0  0
  1 25  1  0  0  0
  1 30  2  0  0  0
  1 85  1  0  0  0
  2  3  1  0  0  0
  2 25  1  0  0  0
  2 88  1  0  0  0
  2 89  1  0  0  0
  3  4  1  0  0  0
  3 90  1  0  0  0
  3 91  1  0  0  0
  4  5  1  0  0  0
  4 92  1  0  0  0
  4 93  1  0  0  0
  5  6  1  0  0  0
  5 26  1  0  0  0
  5 94  1  0  0  0
  6 25  1  0  0  0
  6 95  1  0  0  0
  6 96  1  0  0  0
  7  8  2  0  0  0
  7 26  1  0  0  0
  7 29  1  0  0  0
  8  9  1  0  0  0
  8 22  1  0  0  0
  9 10  1  0  0  0
  9 27  2  0  0  0
 10 11  2  0  0  0
 10 15  1  0  0  0
 11 12  1  0  0  0
 11 97  1  0  0  0
 12 13  2  0  0  0
 12 98  1  0  0  0
 13 14  1  0  0  0
 13 31  1  0  0  0
 14 15  2  0  0  0
 14 99  1  0  0  0
 15100  1  0  0  0
 16 17  2  0  0  0
 16 21  1  0  0  0
 16 31  1  0  0  0
 17 18  1  0  0  0
 17101  1  0  0  0
 18 19  2  0  0  0
 18102  1  0  0  0
 19 20  1  0  0  0
 19 24  1  0  0  0
 20 21  2  0  0  0
 20103  1  0  0  0
 21 23  1  0  0  0
 22 28  1  0  0  0
 22 32  2  0  0  0
 26 27  1  0  0  0
 28104  1  0  0  0
 28105  1  0  0  0
 29106  1  0  0  0
 29107  1  0  0  0
 33 34  1  0  0  0
 33 66  1  0  0  0
 33 70  2  0  0  0
 34 36  1  0  0  0
 34 59  1  0  0  0
 34108  1  0  0  0
 35 44  2  0  0  0
 35 45  1  0  0  0
 35 68  1  0  0  0
 36 56  1  0  0  0
 36109  1  0  0  0
 37 39  1  0  0  0
 37 47  1  0  0  0
 37 66  1  0  0  0
 37110  1  0  0  0
 38 43  2  0  0  0
 38 46  1  0  0  0
 38 47  1  0  0  0
 39 64  1  0  0  0
 39 67  2  0  0  0
 40 52  1  0  0  0
 40 53  2  0  0  0
 40 58  1  0  0  0
 41111  1  0  0  0
 41112  1  0  0  0
 41113  1  0  0  0
 41 48  1  0  0  0
 42 43  1  0  0  0
 42 66  1  0  0  0
 42114  1  0  0  0
 42115  1  0  0  0
 43 44  1  0  0  0
 44116  1  0  0  0
 45 46  2  0  0  0
 45117  1  0  0  0
 46118  1  0  0  0
 47119  1  0  0  0
 47120  1  0  0  0
 48 56  1  0  0  0
 48 65  1  0  0  0
 48121  1  0  0  0
 49 50  1  0  0  0
 49 53  1  0  0  0
 49 64  1  0  0  0
 49122  1  0  0  0
 50 51  1  0  0  0
 50123  1  0  0  0
 50124  1  0  0  0
 51 52  1  0  0  0
 51125  1  0  0  0
 51126  1  0  0  0
 52127  1  0  0  0
 52128  1  0  0  0
 53 54  1  0  0  0
 54 55  2  0  0  0
 54129  1  0  0  0
 55 57  1  0  0  0
 55130  1  0  0  0
 56 69  2  0  0  0
 57 58  2  0  0  0
 57131  1  0  0  0
 58132  1  0  0  0
 59 60  1  0  0  0
 59 61  1  0  0  0
 59 62  1  0  0  0
 60133  1  0  0  0
 60134  1  0  0  0
 60135  1  0  0  0
 61136  1  0  0  0
 61137  1  0  0  0
 61138  1  0  0  0
 62139  1  0  0  0
 62140  1  0  0  0
 62141  1  0  0  0
 63 65  1  0  0  0
 63142  1  0  0  0
 63143  1  0  0  0
 63144  1  0  0  0
 64145  1  0  0  0
 65146  1  0  0  0
 68 81  1  0  0  0
 71 74  2  0  0  0
 71 75  1  0  0  0
 71147  1  0  0  0
 72 74  1  0  0  0
 72 76  2  0  0  0
 72148  1  0  0  0
 73 75  2  0  0  0
 73 76  1  0  0  0
 73149  1  0  0  0
 74 77  1  0  0  0
 75 85  1  0  0  0
 76 86  1  0  0  0
 77 84  2  0  0  0
 77150  1  0  0  0
 78 80  1  0  0  0
 78 81  1  0  0  0
 78 87  2  0  0  0
 79151  1  0  0  0
 79152  1  0  0  0
 79153  1  0  0  0
 79 83  1  0  0  0
 80 83  1  0  0  0
 80154  1  0  0  0
 80155  1  0  0  0
 81156  1  0  0  0
 81157  1  0  0  0
 82 83  1  0  0  0
 82 86  1  0  0  0
 82158  1  0  0  0
 82159  1  0  0  0
 83160  1  0  0  0
 84161  1  0  0  0
 85162  1  0  0  0
 86163  1  0  0  0
M  ISO  4   1 100  68 101  81 101  85 100
M  END
> <chiral flag>
0

> <version>
0

> <s_m_source_file>
/data/baiqing/PycharmProjects/Reinvent-master-3.2/result/LINK_invent/BTK/process_docking_weight1_custom_product_contain_oxygen_bond_distance_aromatic_linkinvent_7_9_3/rearranged_h_0147.sdf

> <i_m_source_file_index>
78

> <r_mmod_Potential_Energy-OPLS-2005>
-75.8619003295898

> <r_mmod_Stretch_Energy-OPLS-2005>
34.6695022583008

> <r_mmod_Bend_Energy-OPLS-2005>
96.1132965087891

> <r_mmod_Torsional_Energy-OPLS-2005>
235.787460327148

> <r_mmod_Improper_Torsional_Energy-OPLS-2005>
4.7204122543335

> <r_mmod_Van_der_Waal_Energy-OPLS-2005>
164.68229675293

> <r_mmod_Electrostatic_Energy-OPLS-2005>
-365.457336425781

> <r_mmod_Solvation_Energy-OPLS-2005>
-254.980911254883

> <b_mmod_Minimization_Converged-OPLS-2005>
0

> <r_mmod_RMS_Derivative-OPLS-2005>
2.04610681533813

$$$$
79
                    3D
 Structure written by MMmdl.
161170  0  0  1  0            999 V2000
  -30.7354  -14.4696   20.5578 C   0  0  0  0  0  0
  -30.4110  -12.3049   19.4258 C   0  0  0  0  0  0
  -29.4901  -12.4952   18.2048 C   0  0  0  0  0  0
  -28.0135  -12.3567   18.6205 C   0  0  0  0  0  0
  -27.6576  -13.2128   19.8671 C   0  0  2  0  0  0
  -28.7016  -13.0287   20.9922 C   0  0  0  0  0  0
  -25.2583  -13.8188   20.5681 C   0  0  0  0  0  0
  -24.1844  -13.0459   20.9185 C   0  0  0  0  0  0
  -24.6405  -11.6926   20.8745 C   0  0  0  0  0  0
  -23.9073  -10.4304   21.0403 C   0  0  0  0  0  0
  -24.3623   -9.4219   21.9179 C   0  0  0  0  0  0
  -23.6301   -8.2248   22.0757 C   0  0  0  0  0  0
  -22.4281   -8.0290   21.3550 C   0  0  0  0  0  0
  -21.9915   -9.0260   20.4647 C   0  0  0  0  0  0
  -22.7246  -10.2135   20.3050 C   0  0  0  0  0  0
  -21.6853   -6.0742   22.5285 C   0  0  0  0  0  0
  -21.4011   -6.5649   23.8215 C   0  0  0  0  0  0
  -21.3657   -5.6799   24.9179 C   0  0  0  0  0  0
  -21.6039   -4.3060   24.7226 C   0  0  0  0  0  0
  -21.8822   -3.8153   23.4345 C   0  0  0  0  0  0
  -21.9197   -4.6969   22.3406 C   0  0  0  0  0  0
  -22.7867  -13.5242   21.1842 C   0  0  0  0  0  0
  -22.1663   -4.2157   21.0981 F   0  0  0  0  0  0
  -21.5626   -3.4534   25.7731 F   0  0  0  0  0  0
  -30.0293  -13.3128   20.4278 N   0  0  0  0  0  0
  -26.3014  -12.9364   20.3343 N   0  0  0  0  0  0
  -25.9333  -11.6524   20.5779 N   0  0  0  0  0  0
  -22.0492  -12.8233   22.0385 N   0  0  0  0  0  0
  -25.4328  -15.1902   20.4067 N   0  0  0  0  0  0
  -31.8688  -14.6010   20.0919 O   0  0  0  0  0  0
  -21.6648   -6.8886   21.4243 O   0  0  0  0  0  0
  -22.3552  -14.5553   20.6706 O   0  0  0  0  0  0
  -24.6143  -31.8675   23.2089 C   0  0  0  0  0  0
  -25.9037  -32.4820   23.8388 C   0  0  1  0  0  0
  -27.2295  -27.4311   20.1044 C   0  0  0  0  0  0
  -25.5907  -33.8621   24.2322 N   0  0  0  0  0  0
  -23.4029  -30.4911   21.5485 C   0  0  2  0  0  0
  -24.8500  -28.9564   20.1137 C   0  0  0  0  0  0
  -22.7411  -29.4663   22.4979 C   0  0  0  0  0  0
  -18.0273  -28.1377   22.8492 C   0  0  0  0  0  0
  -24.1486  -36.7302   23.2638 C   0  0  0  0  0  0
  -25.9315  -30.8354   21.3597 C   0  0  0  0  0  0
  -26.0109  -29.4694   20.7069 C   0  0  0  0  0  0
  -27.2085  -28.7162   20.6941 C   0  0  0  0  0  0
  -26.0551  -26.9332   19.5023 C   0  0  0  0  0  0
  -24.8676  -27.6884   19.5062 C   0  0  0  0  0  0
  -23.6106  -29.8217   20.1643 C   0  0  0  0  0  0
  -25.4104  -36.3110   24.0343 C   0  0  1  0  0  0
  -20.5865  -28.3660   23.1323 C   0  0  2  0  0  0
  -20.6763  -26.9397   22.5423 C   0  0  0  0  0  0
  -19.5745  -26.6386   21.5215 C   0  0  0  0  0  0
  -18.1917  -26.7934   22.1609 C   0  0  0  0  0  0
  -19.1522  -28.8833   23.2905 C   0  0  0  0  0  0
  -18.9449  -30.1442   23.8910 C   0  0  0  0  0  0
  -17.6453  -30.6582   24.0562 C   0  0  0  0  0  0
  -25.9036  -34.9479   23.5125 C   0  0  0  0  0  0
  -16.5343  -29.9078   23.6335 C   0  0  0  0  0  0
  -16.7263  -28.6500   23.0353 C   0  0  0  0  0  0
  -26.4470  -31.6600   25.0716 C   0  0  0  0  0  0
  -25.3745  -31.3729   26.1478 C   0  0  0  0  0  0
  -27.0265  -30.3029   24.6089 C   0  0  0  0  0  0
  -27.6077  -32.4294   25.7459 C   0  0  0  0  0  0
  -27.5587  -37.1796   24.8450 C   0  0  0  0  0  0
  -21.4137  -29.3024   22.3723 N   0  0  0  0  0  0
  -26.4280  -37.3803   23.9424 N   0  0  0  0  0  0
  -24.6678  -31.0789   22.0975 N   0  0  0  0  0  0
  -23.4192  -28.8207   23.3016 O   0  0  0  0  0  0
  -28.3709  -26.6607   20.1170 O   0  0  0  0  0  0
  -26.5592  -34.8934   22.4683 O   0  0  0  0  0  0
  -23.5337  -32.1423   23.7490 O   0  0  0  0  0  0
  -28.3341  -19.7827   21.4738 C   0  0  0  0  0  0
  -28.7654  -18.4630   21.8484 C   0  0  0  0  0  0
  -29.8913  -18.0615   21.1614 C   0  0  0  0  0  0
  -29.1269  -20.3883   20.5318 C   0  0  0  0  0  0
  -28.6650  -24.1818   20.0622 C   0  0  0  0  0  0
  -27.6983  -17.2942   24.9848 C   0  0  0  0  0  0
  -28.8959  -17.0518   24.0657 C   0  0  0  0  0  0
  -27.2151  -18.3307   23.9698 C   0  0  0  0  0  0
  -28.0779  -17.6375   22.9012 C   0  0  0  0  0  0
  -30.7469  -16.8271   21.3421 C   0  0  0  0  0  0
  -28.5198  -22.8042   20.7572 C   0  0  0  0  0  0
  -28.2357  -25.4311   20.8638 C   0  0  0  0  0  0
  -29.0461  -21.6731   19.9752 N   0  0  0  0  0  0
  -30.1021  -15.5193   21.1159 N   0  0  0  0  0  0
  -29.1207  -24.2672   18.9148 O   0  0  0  0  0  0
  -30.3910  -19.2990   20.0230 S   0  0  0  0  0  0
  -31.4582  -12.3785   19.1259 H   0  0  0  0  0  0
  -30.2951  -11.3020   19.8409 H   0  0  0  0  0  0
  -29.7316  -11.7624   17.4339 H   0  0  0  0  0  0
  -29.6586  -13.4767   17.7590 H   0  0  0  0  0  0
  -27.8285  -11.3022   18.8292 H   0  0  0  0  0  0
  -27.3600  -12.6151   17.7862 H   0  0  0  0  0  0
  -27.6925  -14.2550   19.5507 H   0  0  0  0  0  0
  -28.6768  -12.0072   21.3725 H   0  0  0  0  0  0
  -28.4689  -13.6674   21.8450 H   0  0  0  0  0  0
  -25.2771   -9.5698   22.4754 H   0  0  0  0  0  0
  -24.0018   -7.4639   22.7474 H   0  0  0  0  0  0
  -21.0848   -8.8772   19.8952 H   0  0  0  0  0  0
  -22.3711  -10.9669   19.6150 H   0  0  0  0  0  0
  -21.1996   -7.6160   23.9724 H   0  0  0  0  0  0
  -21.1469   -6.0526   25.9082 H   0  0  0  0  0  0
  -22.0597   -2.7617   23.2841 H   0  0  0  0  0  0
  -22.4090  -11.9877   22.4755 H   0  0  0  0  0  0
  -21.1107  -13.1258   22.2569 H   0  0  0  0  0  0
  -24.6669  -15.8472   20.5030 H   0  0  0  0  0  0
  -26.2833  -15.6193   20.0642 H   0  0  0  0  0  0
  -26.7118  -32.5534   23.1166 H   0  0  0  0  0  0
  -25.0068  -33.9775   25.0474 H   0  0  0  0  0  0
  -22.6923  -31.3087   21.4094 H   0  0  0  0  0  0
  -23.3761  -35.9619   23.3286 H   0  0  0  0  0  0
  -24.3590  -36.8920   22.2056 H   0  0  0  0  0  0
  -23.7221  -37.6500   23.6646 H   0  0  0  0  0  0
  -26.0433  -31.6032   20.5925 H   0  0  0  0  0  0
  -26.8195  -30.8888   21.9780 H   0  0  0  0  0  0
  -28.1054  -29.1070   21.1549 H   0  0  0  0  0  0
  -26.0584  -25.9595   19.0327 H   0  0  0  0  0  0
  -23.9752  -27.2889   19.0448 H   0  0  0  0  0  0
  -23.7150  -30.5943   19.4017 H   0  0  0  0  0  0
  -22.7357  -29.2375   19.8718 H   0  0  0  0  0  0
  -25.1280  -36.1962   25.0836 H   0  0  0  0  0  0
  -20.9966  -28.3217   24.1440 H   0  0  0  0  0  0
  -20.5655  -26.2266   23.3605 H   0  0  0  0  0  0
  -21.6631  -26.7429   22.1219 H   0  0  0  0  0  0
  -19.6897  -25.6300   21.1236 H   0  0  0  0  0  0
  -19.6703  -27.3208   20.6758 H   0  0  0  0  0  0
  -17.4202  -26.6719   21.3988 H   0  0  0  0  0  0
  -18.0284  -26.0058   22.8978 H   0  0  0  0  0  0
  -19.7923  -30.7259   24.2282 H   0  0  0  0  0  0
  -17.5005  -31.6269   24.5145 H   0  0  0  0  0  0
  -15.5345  -30.2980   23.7657 H   0  0  0  0  0  0
  -15.8664  -28.0828   22.7050 H   0  0  0  0  0  0
  -24.5895  -30.7101   25.7817 H   0  0  0  0  0  0
  -24.8961  -32.2894   26.4944 H   0  0  0  0  0  0
  -25.8097  -30.8879   27.0227 H   0  0  0  0  0  0
  -26.2781  -29.6810   24.1161 H   0  0  0  0  0  0
  -27.4035  -29.7258   25.4543 H   0  0  0  0  0  0
  -27.8633  -30.4320   23.9220 H   0  0  0  0  0  0
  -27.2745  -33.3618   26.2030 H   0  0  0  0  0  0
  -28.3892  -32.6809   25.0273 H   0  0  0  0  0  0
  -28.0740  -31.8407   26.5369 H   0  0  0  0  0  0
  -28.2586  -38.0117   24.7539 H   0  0  0  0  0  0
  -28.1107  -36.2653   24.6210 H   0  0  0  0  0  0
  -27.2327  -37.1356   25.8858 H   0  0  0  0  0  0
  -20.9284  -29.8748   21.6956 H   0  0  0  0  0  0
  -26.0169  -38.2875   24.1454 H   0  0  0  0  0  0
  -27.4686  -20.2451   21.9269 H   0  0  0  0  0  0
  -27.9497  -17.6995   25.9656 H   0  0  0  0  0  0
  -27.0369  -16.4284   25.0570 H   0  0  0  0  0  0
  -29.1741  -16.0039   23.9481 H   0  0  0  0  0  0
  -29.7575  -17.6675   24.3315 H   0  0  0  0  0  0
  -27.5595  -19.3373   24.2167 H   0  0  0  0  0  0
  -26.1430  -18.3133   23.7700 H   0  0  0  0  0  0
  -27.4953  -16.8429   22.4291 H   0  0  0  0  0  0
  -31.1501  -16.8194   22.3554 H   0  0  0  0  0  0
  -31.6237  -16.9376   20.7018 H   0  0  0  0  0  0
  -27.4642  -22.6392   20.9773 H   0  0  0  0  0  0
  -29.0384  -22.8526   21.7159 H   0  0  0  0  0  0
  -28.8642  -25.5000   21.7516 H   0  0  0  0  0  0
  -27.2155  -25.2828   21.2205 H   0  0  0  0  0  0
  -29.7145  -21.9553   19.2594 H   0  0  0  0  0  0
  -29.1596  -15.3835   21.4452 H   0  0  0  0  0  0
  1 25  1  0  0  0
  1 30  2  0  0  0
  1 84  1  0  0  0
  2  3  1  0  0  0
  2 25  1  0  0  0
  2 87  1  0  0  0
  2 88  1  0  0  0
  3  4  1  0  0  0
  3 89  1  0  0  0
  3 90  1  0  0  0
  4  5  1  0  0  0
  4 91  1  0  0  0
  4 92  1  0  0  0
  5  6  1  0  0  0
  5 26  1  0  0  0
  5 93  1  0  0  0
  6 25  1  0  0  0
  6 94  1  0  0  0
  6 95  1  0  0  0
  7  8  2  0  0  0
  7 26  1  0  0  0
  7 29  1  0  0  0
  8  9  1  0  0  0
  8 22  1  0  0  0
  9 10  1  0  0  0
  9 27  2  0  0  0
 10 11  2  0  0  0
 10 15  1  0  0  0
 11 12  1  0  0  0
 11 96  1  0  0  0
 12 13  2  0  0  0
 12 97  1  0  0  0
 13 14  1  0  0  0
 13 31  1  0  0  0
 14 15  2  0  0  0
 14 98  1  0  0  0
 15 99  1  0  0  0
 16 17  2  0  0  0
 16 21  1  0  0  0
 16 31  1  0  0  0
 17 18  1  0  0  0
 17100  1  0  0  0
 18 19  2  0  0  0
 18101  1  0  0  0
 19 20  1  0  0  0
 19 24  1  0  0  0
 20 21  2  0  0  0
 20102  1  0  0  0
 21 23  1  0  0  0
 22 28  1  0  0  0
 22 32  2  0  0  0
 26 27  1  0  0  0
 28103  1  0  0  0
 28104  1  0  0  0
 29105  1  0  0  0
 29106  1  0  0  0
 33 34  1  0  0  0
 33 66  1  0  0  0
 33 70  2  0  0  0
 34 36  1  0  0  0
 34 59  1  0  0  0
 34107  1  0  0  0
 35 44  2  0  0  0
 35 45  1  0  0  0
 35 68  1  0  0  0
 36 56  1  0  0  0
 36108  1  0  0  0
 37 39  1  0  0  0
 37 47  1  0  0  0
 37 66  1  0  0  0
 37109  1  0  0  0
 38 43  2  0  0  0
 38 46  1  0  0  0
 38 47  1  0  0  0
 39 64  1  0  0  0
 39 67  2  0  0  0
 40 52  1  0  0  0
 40 53  2  0  0  0
 40 58  1  0  0  0
 41110  1  0  0  0
 41111  1  0  0  0
 41112  1  0  0  0
 41 48  1  0  0  0
 42 43  1  0  0  0
 42 66  1  0  0  0
 42113  1  0  0  0
 42114  1  0  0  0
 43 44  1  0  0  0
 44115  1  0  0  0
 45 46  2  0  0  0
 45116  1  0  0  0
 46117  1  0  0  0
 47118  1  0  0  0
 47119  1  0  0  0
 48 56  1  0  0  0
 48 65  1  0  0  0
 48120  1  0  0  0
 49 50  1  0  0  0
 49 53  1  0  0  0
 49 64  1  0  0  0
 49121  1  0  0  0
 50 51  1  0  0  0
 50122  1  0  0  0
 50123  1  0  0  0
 51 52  1  0  0  0
 51124  1  0  0  0
 51125  1  0  0  0
 52126  1  0  0  0
 52127  1  0  0  0
 53 54  1  0  0  0
 54 55  2  0  0  0
 54128  1  0  0  0
 55 57  1  0  0  0
 55129  1  0  0  0
 56 69  2  0  0  0
 57 58  2  0  0  0
 57130  1  0  0  0
 58131  1  0  0  0
 59 60  1  0  0  0
 59 61  1  0  0  0
 59 62  1  0  0  0
 60132  1  0  0  0
 60133  1  0  0  0
 60134  1  0  0  0
 61135  1  0  0  0
 61136  1  0  0  0
 61137  1  0  0  0
 62138  1  0  0  0
 62139  1  0  0  0
 62140  1  0  0  0
 63 65  1  0  0  0
 63141  1  0  0  0
 63142  1  0  0  0
 63143  1  0  0  0
 64144  1  0  0  0
 65145  1  0  0  0
 68 82  1  0  0  0
 71 72  1  0  0  0
 71 74  2  0  0  0
 71146  1  0  0  0
 72 73  2  0  0  0
 72 79  1  0  0  0
 73 80  1  0  0  0
 73 86  1  0  0  0
 74 83  1  0  0  0
 74 86  1  0  0  0
 75 81  1  0  0  0
 75 82  1  0  0  0
 75 85  2  0  0  0
 76 77  1  0  0  0
 76 78  1  0  0  0
 76147  1  0  0  0
 76148  1  0  0  0
 77 79  1  0  0  0
 77149  1  0  0  0
 77150  1  0  0  0
 78 79  1  0  0  0
 78151  1  0  0  0
 78152  1  0  0  0
 79153  1  0  0  0
 80 84  1  0  0  0
 80154  1  0  0  0
 80155  1  0  0  0
 81 83  1  0  0  0
 81156  1  0  0  0
 81157  1  0  0  0
 82158  1  0  0  0
 82159  1  0  0  0
 83160  1  0  0  0
 84161  1  0  0  0
M  ISO  4   1 100  68 101  82 101  84 100
M  END
> <chiral flag>
0

> <version>
0

> <s_m_source_file>
/data/baiqing/PycharmProjects/Reinvent-master-3.2/result/LINK_invent/BTK/process_docking_weight1_custom_product_contain_oxygen_bond_distance_aromatic_linkinvent_7_9_3/rearranged_h_0147.sdf

> <i_m_source_file_index>
79

> <r_mmod_Potential_Energy-OPLS-2005>
-52.9115753173828

> <r_mmod_Stretch_Energy-OPLS-2005>
37.5217247009277

> <r_mmod_Bend_Energy-OPLS-2005>
112.349044799805

> <r_mmod_Torsional_Energy-OPLS-2005>
240.196380615234

> <r_mmod_Improper_Torsional_Energy-OPLS-2005>
5.0295524597168

> <r_mmod_Van_der_Waal_Energy-OPLS-2005>
121.083633422852

> <r_mmod_Electrostatic_Energy-OPLS-2005>
-347.52294921875

> <r_mmod_Solvation_Energy-OPLS-2005>
-236.836929321289

> <b_mmod_Minimization_Converged-OPLS-2005>
0

> <r_mmod_RMS_Derivative-OPLS-2005>
1.34560692310333

$$$$
80
                    3D
 Structure written by MMmdl.
158167  0  0  1  0            999 V2000
  -30.7103  -14.4362   20.6203 C   0  0  0  0  0  0
  -30.4285  -12.2975   19.4172 C   0  0  0  0  0  0
  -29.4944  -12.5093   18.2066 C   0  0  0  0  0  0
  -28.0153  -12.3668   18.6164 C   0  0  0  0  0  0
  -27.6664  -13.1994   19.8781 C   0  0  2  0  0  0
  -28.7046  -12.9512   20.9968 C   0  0  0  0  0  0
  -25.2577  -13.8132   20.5576 C   0  0  0  0  0  0
  -24.1850  -13.0432   20.9180 C   0  0  0  0  0  0
  -24.6399  -11.6901   20.8757 C   0  0  0  0  0  0
  -23.9071  -10.4288   21.0415 C   0  0  0  0  0  0
  -24.3632   -9.4195   21.9173 C   0  0  0  0  0  0
  -23.6305   -8.2236   22.0754 C   0  0  0  0  0  0
  -22.4283   -8.0281   21.3550 C   0  0  0  0  0  0
  -21.9917   -9.0258   20.4653 C   0  0  0  0  0  0
  -22.7243  -10.2138   20.3069 C   0  0  0  0  0  0
  -21.6857   -6.0736   22.5275 C   0  0  0  0  0  0
  -21.4009   -6.5639   23.8204 C   0  0  0  0  0  0
  -21.3653   -5.6794   24.9169 C   0  0  0  0  0  0
  -21.6049   -4.3059   24.7220 C   0  0  0  0  0  0
  -21.8824   -3.8152   23.4342 C   0  0  0  0  0  0
  -21.9203   -4.6967   22.3397 C   0  0  0  0  0  0
  -22.7873  -13.5239   21.1833 C   0  0  0  0  0  0
  -22.1665   -4.2144   21.0975 F   0  0  0  0  0  0
  -21.5638   -3.4543   25.7737 F   0  0  0  0  0  0
  -30.0483  -13.2575   20.4649 N   0  0  0  0  0  0
  -26.3040  -12.9305   20.3355 N   0  0  0  0  0  0
  -25.9323  -11.6482   20.5795 N   0  0  0  0  0  0
  -22.0531  -12.8253   22.0418 N   0  0  0  0  0  0
  -25.4204  -15.1821   20.3767 N   0  0  0  0  0  0
  -31.7837  -14.6905   20.0628 O   0  0  0  0  0  0
  -21.6652   -6.8876   21.4236 O   0  0  0  0  0  0
  -22.3559  -14.5540   20.6666 O   0  0  0  0  0  0
  -24.6145  -31.8661   23.2104 C   0  0  0  0  0  0
  -25.9038  -32.4810   23.8390 C   0  0  1  0  0  0
  -27.2374  -27.4257   20.0798 C   0  0  0  0  0  0
  -25.5897  -33.8613   24.2315 N   0  0  0  0  0  0
  -23.4025  -30.4917   21.5521 C   0  0  2  0  0  0
  -24.8452  -28.9546   20.1161 C   0  0  0  0  0  0
  -22.7414  -29.4653   22.4993 C   0  0  0  0  0  0
  -18.0273  -28.1361   22.8486 C   0  0  0  0  0  0
  -24.1485  -36.7314   23.2636 C   0  0  0  0  0  0
  -25.9327  -30.8265   21.3666 C   0  0  0  0  0  0
  -26.0066  -29.4616   20.7102 C   0  0  0  0  0  0
  -27.1995  -28.7026   20.6904 C   0  0  0  0  0  0
  -26.0437  -26.9234   19.5074 C   0  0  0  0  0  0
  -24.8586  -27.6838   19.5184 C   0  0  0  0  0  0
  -23.6093  -29.8253   20.1657 C   0  0  0  0  0  0
  -25.4104  -36.3104   24.0332 C   0  0  1  0  0  0
  -20.5864  -28.3657   23.1298 C   0  0  2  0  0  0
  -20.6754  -26.9382   22.5424 C   0  0  0  0  0  0
  -19.5746  -26.6373   21.5206 C   0  0  0  0  0  0
  -18.1922  -26.7911   22.1612 C   0  0  0  0  0  0
  -19.1522  -28.8827   23.2892 C   0  0  0  0  0  0
  -18.9454  -30.1427   23.8910 C   0  0  0  0  0  0
  -17.6454  -30.6565   24.0566 C   0  0  0  0  0  0
  -25.9033  -34.9469   23.5119 C   0  0  0  0  0  0
  -16.5346  -29.9067   23.6318 C   0  0  0  0  0  0
  -16.7261  -28.6482   23.0346 C   0  0  0  0  0  0
  -26.4468  -31.6600   25.0725 C   0  0  0  0  0  0
  -25.3743  -31.3771   26.1506 C   0  0  0  0  0  0
  -27.0267  -30.3019   24.6137 C   0  0  0  0  0  0
  -27.6076  -32.4316   25.7434 C   0  0  0  0  0  0
  -27.5590  -37.1780   24.8450 C   0  0  0  0  0  0
  -21.4145  -29.3022   22.3705 N   0  0  0  0  0  0
  -26.4288  -37.3792   23.9421 N   0  0  0  0  0  0
  -24.6683  -31.0763   22.1011 N   0  0  0  0  0  0
  -23.4179  -28.8195   23.3041 O   0  0  0  0  0  0
  -28.4369  -26.7337   20.0924 O   0  0  0  0  0  0
  -26.5603  -34.8918   22.4687 O   0  0  0  0  0  0
  -23.5331  -32.1417   23.7494 O   0  0  0  0  0  0
  -30.4481  -18.9644   20.4370 C   0  0  0  0  0  0
  -30.8090  -17.6431   20.7974 C   0  0  0  0  0  0
  -28.4587  -17.0534   20.9415 C   0  0  0  0  0  0
  -29.0853  -19.3395   20.2950 C   0  0  0  0  0  0
  -29.8095  -16.6740   21.0449 C   0  0  0  0  0  0
  -28.0981  -18.3465   20.5151 C   0  0  0  0  0  0
  -28.9479  -23.0263   19.5666 C   0  0  0  0  0  0
  -28.9222  -24.2755   20.0979 C   0  0  0  0  0  0
  -29.2929  -21.8059   20.3102 C   0  0  0  0  0  0
  -27.2853  -20.7943   19.3525 C   0  0  0  0  0  0
  -26.5735  -19.4483   19.1652 C   0  0  0  0  0  0
  -28.6406  -25.5516   19.2934 C   0  0  0  0  0  0
  -28.6530  -20.6665   19.9052 N   0  0  0  0  0  0
  -30.0906  -15.3285   21.4117 N   0  0  0  0  0  0
  -30.1113  -21.8160   21.2371 O   0  0  0  0  0  0
  -26.7729  -18.6094   20.2912 O   0  0  0  0  0  0
  -29.1552  -24.5589   21.3929 O   0  0  0  0  0  0
  -31.4708  -12.4094   19.1154 H   0  0  0  0  0  0
  -30.3401  -11.2773   19.7946 H   0  0  0  0  0  0
  -29.7332  -11.7926   17.4194 H   0  0  0  0  0  0
  -29.6652  -13.4988   17.7793 H   0  0  0  0  0  0
  -27.8251  -11.3099   18.8065 H   0  0  0  0  0  0
  -27.3642  -12.6462   17.7878 H   0  0  0  0  0  0
  -27.7214  -14.2496   19.5936 H   0  0  0  0  0  0
  -28.6715  -11.9077   21.3130 H   0  0  0  0  0  0
  -28.4492  -13.5209   21.8902 H   0  0  0  0  0  0
  -25.2781   -9.5668   22.4739 H   0  0  0  0  0  0
  -24.0022   -7.4627   22.7468 H   0  0  0  0  0  0
  -21.0856   -8.8786   19.8951 H   0  0  0  0  0  0
  -22.3701  -10.9695   19.6204 H   0  0  0  0  0  0
  -21.1983   -7.6146   23.9705 H   0  0  0  0  0  0
  -21.1462   -6.0519   25.9068 H   0  0  0  0  0  0
  -22.0607   -2.7618   23.2838 H   0  0  0  0  0  0
  -22.4182  -11.9951   22.4851 H   0  0  0  0  0  0
  -21.1137  -13.1253   22.2610 H   0  0  0  0  0  0
  -24.6386  -15.8216   20.4584 H   0  0  0  0  0  0
  -26.2336  -15.6076   19.9508 H   0  0  0  0  0  0
  -26.7112  -32.5497   23.1154 H   0  0  0  0  0  0
  -25.0062  -33.9788   25.0467 H   0  0  0  0  0  0
  -22.6906  -31.3084   21.4156 H   0  0  0  0  0  0
  -23.3744  -35.9649   23.3289 H   0  0  0  0  0  0
  -24.3577  -36.8938   22.2054 H   0  0  0  0  0  0
  -23.7237  -37.6520   23.6645 H   0  0  0  0  0  0
  -26.0536  -31.5947   20.6014 H   0  0  0  0  0  0
  -26.8178  -30.8720   21.9894 H   0  0  0  0  0  0
  -28.0988  -29.0977   21.1427 H   0  0  0  0  0  0
  -25.9841  -25.9425   19.0631 H   0  0  0  0  0  0
  -23.9590  -27.2796   19.0744 H   0  0  0  0  0  0
  -23.7188  -30.6025   19.4078 H   0  0  0  0  0  0
  -22.7314  -29.2477   19.8703 H   0  0  0  0  0  0
  -25.1282  -36.1967   25.0824 H   0  0  0  0  0  0
  -20.9973  -28.3240   24.1415 H   0  0  0  0  0  0
  -20.5613  -26.2287   23.3636 H   0  0  0  0  0  0
  -21.6629  -26.7385   22.1242 H   0  0  0  0  0  0
  -19.6907  -25.6287   21.1225 H   0  0  0  0  0  0
  -19.6698  -27.3194   20.6744 H   0  0  0  0  0  0
  -17.4203  -26.6673   21.4000 H   0  0  0  0  0  0
  -18.0317  -26.0034   22.8988 H   0  0  0  0  0  0
  -19.7933  -30.7233   24.2300 H   0  0  0  0  0  0
  -17.5007  -31.6245   24.5175 H   0  0  0  0  0  0
  -15.5343  -30.2974   23.7626 H   0  0  0  0  0  0
  -15.8667  -28.0792   22.7059 H   0  0  0  0  0  0
  -24.5899  -30.7114   25.7896 H   0  0  0  0  0  0
  -24.8946  -32.2952   26.4909 H   0  0  0  0  0  0
  -25.8100  -30.8996   27.0293 H   0  0  0  0  0  0
  -26.2800  -29.6783   24.1214 H   0  0  0  0  0  0
  -27.4033  -29.7271   25.4607 H   0  0  0  0  0  0
  -27.8644  -30.4294   23.9282 H   0  0  0  0  0  0
  -27.2725  -33.3615   26.2038 H   0  0  0  0  0  0
  -28.3831  -32.6882   25.0204 H   0  0  0  0  0  0
  -28.0807  -31.8429   26.5303 H   0  0  0  0  0  0
  -28.2605  -38.0081   24.7512 H   0  0  0  0  0  0
  -28.1092  -36.2618   24.6238 H   0  0  0  0  0  0
  -27.2325  -37.1397   25.8858 H   0  0  0  0  0  0
  -20.9316  -29.8756   21.6926 H   0  0  0  0  0  0
  -26.0181  -38.2864   24.1468 H   0  0  0  0  0  0
  -31.2378  -19.6810   20.2574 H   0  0  0  0  0  0
  -31.8553  -17.3845   20.8846 H   0  0  0  0  0  0
  -27.6820  -16.3303   21.1372 H   0  0  0  0  0  0
  -28.7355  -22.9333   18.5112 H   0  0  0  0  0  0
  -26.6868  -21.4046   20.0315 H   0  0  0  0  0  0
  -27.2898  -21.2984   18.3858 H   0  0  0  0  0  0
  -26.9431  -18.9444   18.2699 H   0  0  0  0  0  0
  -25.5050  -19.6036   19.0140 H   0  0  0  0  0  0
  -27.8759  -25.3609   18.5445 H   0  0  0  0  0  0
  -29.5393  -25.7449   18.7084 H   0  0  0  0  0  0
  -29.3474  -14.8876   21.9325 H   0  0  0  0  0  0
  -29.3878  -23.7477   21.8313 H   0  0  0  0  0  0
  1 25  1  0  0  0
  1 30  2  0  0  0
  1 84  1  0  0  0
  2  3  1  0  0  0
  2 25  1  0  0  0
  2 88  1  0  0  0
  2 89  1  0  0  0
  3  4  1  0  0  0
  3 90  1  0  0  0
  3 91  1  0  0  0
  4  5  1  0  0  0
  4 92  1  0  0  0
  4 93  1  0  0  0
  5  6  1  0  0  0
  5 26  1  0  0  0
  5 94  1  0  0  0
  6 25  1  0  0  0
  6 95  1  0  0  0
  6 96  1  0  0  0
  7  8  2  0  0  0
  7 26  1  0  0  0
  7 29  1  0  0  0
  8  9  1  0  0  0
  8 22  1  0  0  0
  9 10  1  0  0  0
  9 27  2  0  0  0
 10 11  2  0  0  0
 10 15  1  0  0  0
 11 12  1  0  0  0
 11 97  1  0  0  0
 12 13  2  0  0  0
 12 98  1  0  0  0
 13 14  1  0  0  0
 13 31  1  0  0  0
 14 15  2  0  0  0
 14 99  1  0  0  0
 15100  1  0  0  0
 16 17  2  0  0  0
 16 21  1  0  0  0
 16 31  1  0  0  0
 17 18  1  0  0  0
 17101  1  0  0  0
 18 19  2  0  0  0
 18102  1  0  0  0
 19 20  1  0  0  0
 19 24  1  0  0  0
 20 21  2  0  0  0
 20103  1  0  0  0
 21 23  1  0  0  0
 22 28  1  0  0  0
 22 32  2  0  0  0
 26 27  1  0  0  0
 28104  1  0  0  0
 28105  1  0  0  0
 29106  1  0  0  0
 29107  1  0  0  0
 33 34  1  0  0  0
 33 66  1  0  0  0
 33 70  2  0  0  0
 34 36  1  0  0  0
 34 59  1  0  0  0
 34108  1  0  0  0
 35 44  2  0  0  0
 35 45  1  0  0  0
 35 68  1  0  0  0
 36 56  1  0  0  0
 36109  1  0  0  0
 37 39  1  0  0  0
 37 47  1  0  0  0
 37 66  1  0  0  0
 37110  1  0  0  0
 38 43  2  0  0  0
 38 46  1  0  0  0
 38 47  1  0  0  0
 39 64  1  0  0  0
 39 67  2  0  0  0
 40 52  1  0  0  0
 40 53  2  0  0  0
 40 58  1  0  0  0
 41111  1  0  0  0
 41112  1  0  0  0
 41113  1  0  0  0
 41 48  1  0  0  0
 42 43  1  0  0  0
 42 66  1  0  0  0
 42114  1  0  0  0
 42115  1  0  0  0
 43 44  1  0  0  0
 44116  1  0  0  0
 45 46  2  0  0  0
 45117  1  0  0  0
 46118  1  0  0  0
 47119  1  0  0  0
 47120  1  0  0  0
 48 56  1  0  0  0
 48 65  1  0  0  0
 48121  1  0  0  0
 49 50  1  0  0  0
 49 53  1  0  0  0
 49 64  1  0  0  0
 49122  1  0  0  0
 50 51  1  0  0  0
 50123  1  0  0  0
 50124  1  0  0  0
 51 52  1  0  0  0
 51125  1  0  0  0
 51126  1  0  0  0
 52127  1  0  0  0
 52128  1  0  0  0
 53 54  1  0  0  0
 54 55  2  0  0  0
 54129  1  0  0  0
 55 57  1  0  0  0
 55130  1  0  0  0
 56 69  2  0  0  0
 57 58  2  0  0  0
 57131  1  0  0  0
 58132  1  0  0  0
 59 60  1  0  0  0
 59 61  1  0  0  0
 59 62  1  0  0  0
 60133  1  0  0  0
 60134  1  0  0  0
 60135  1  0  0  0
 61136  1  0  0  0
 61137  1  0  0  0
 61138  1  0  0  0
 62139  1  0  0  0
 62140  1  0  0  0
 62141  1  0  0  0
 63 65  1  0  0  0
 63142  1  0  0  0
 63143  1  0  0  0
 63144  1  0  0  0
 64145  1  0  0  0
 65146  1  0  0  0
 68 82  1  0  0  0
 71 72  2  0  0  0
 71 74  1  0  0  0
 71147  1  0  0  0
 72 75  1  0  0  0
 72148  1  0  0  0
 73 75  2  0  0  0
 73 76  1  0  0  0
 73149  1  0  0  0
 74 76  2  0  0  0
 74 83  1  0  0  0
 75 84  1  0  0  0
 76 86  1  0  0  0
 77 78  2  0  0  0
 77 79  1  0  0  0
 77150  1  0  0  0
 78 82  1  0  0  0
 78 87  1  0  0  0
 79 83  1  0  0  0
 79 85  2  0  0  0
 80 81  1  0  0  0
 80 83  1  0  0  0
 80151  1  0  0  0
 80152  1  0  0  0
 81 86  1  0  0  0
 81153  1  0  0  0
 81154  1  0  0  0
 82155  1  0  0  0
 82156  1  0  0  0
 84157  1  0  0  0
 87158  1  0  0  0
M  ISO  4   1 100  68 101  82 101  84 100
M  END
> <chiral flag>
0

> <version>
0

> <s_m_source_file>
/data/baiqing/PycharmProjects/Reinvent-master-3.2/result/LINK_invent/BTK/process_docking_weight1_custom_product_contain_oxygen_bond_distance_aromatic_linkinvent_7_9_3/rearranged_h_0147.sdf

> <i_m_source_file_index>
80

> <r_mmod_Potential_Energy-OPLS-2005>
49.4955444335938

> <r_mmod_Stretch_Energy-OPLS-2005>
45.0110778808594

> <r_mmod_Bend_Energy-OPLS-2005>
116.388168334961

> <r_mmod_Torsional_Energy-OPLS-2005>
283.260284423828

> <r_mmod_Improper_Torsional_Energy-OPLS-2005>
6.88350915908813

> <r_mmod_Van_der_Waal_Energy-OPLS-2005>
178.459609985352

> <r_mmod_Electrostatic_Energy-OPLS-2005>
-355.461029052734

> <r_mmod_Solvation_Energy-OPLS-2005>
-235.802398681641

> <b_mmod_Minimization_Converged-OPLS-2005>
0

> <r_mmod_RMS_Derivative-OPLS-2005>
2.03393125534058

$$$$
81
                    3D
 Structure written by MMmdl.
161170  0  0  1  0            999 V2000
  -30.5807  -14.6963   20.4892 C   0  0  0  0  0  0
  -30.4385  -12.4254   19.4556 C   0  0  0  0  0  0
  -29.5107  -12.5149   18.2245 C   0  0  0  0  0  0
  -28.0342  -12.3493   18.6327 C   0  0  0  0  0  0
  -27.6504  -13.2158   19.8581 C   0  0  2  0  0  0
  -28.6904  -13.0892   20.9920 C   0  0  0  0  0  0
  -25.2511  -13.8145   20.5540 C   0  0  0  0  0  0
  -24.1826  -13.0446   20.9210 C   0  0  0  0  0  0
  -24.6380  -11.6906   20.8756 C   0  0  0  0  0  0
  -23.9032  -10.4307   21.0377 C   0  0  0  0  0  0
  -24.3537   -9.4254   21.9185 C   0  0  0  0  0  0
  -23.6232   -8.2294   22.0748 C   0  0  0  0  0  0
  -22.4203   -8.0290   21.3538 C   0  0  0  0  0  0
  -21.9816   -9.0256   20.4633 C   0  0  0  0  0  0
  -22.7163  -10.2149   20.3047 C   0  0  0  0  0  0
  -21.6883   -6.0685   22.5238 C   0  0  0  0  0  0
  -21.4026   -6.5561   23.8182 C   0  0  0  0  0  0
  -21.3695   -5.6737   24.9140 C   0  0  0  0  0  0
  -21.6029   -4.3004   24.7220 C   0  0  0  0  0  0
  -21.8830   -3.8098   23.4349 C   0  0  0  0  0  0
  -21.9202   -4.6897   22.3388 C   0  0  0  0  0  0
  -22.7869  -13.5322   21.1854 C   0  0  0  0  0  0
  -22.1694   -4.2073   21.0981 F   0  0  0  0  0  0
  -21.5628   -3.4514   25.7783 F   0  0  0  0  0  0
  -30.0017  -13.4476   20.4286 N   0  0  0  0  0  0
  -26.2960  -12.9311   20.3217 N   0  0  0  0  0  0
  -25.9287  -11.6479   20.5688 N   0  0  0  0  0  0
  -22.0391  -12.8384   22.0330 N   0  0  0  0  0  0
  -25.4099  -15.1825   20.3659 N   0  0  0  0  0  0
  -31.7387  -14.8760   20.0863 O   0  0  0  0  0  0
  -21.6602   -6.8832   21.4209 O   0  0  0  0  0  0
  -22.3647  -14.5663   20.6682 O   0  0  0  0  0  0
  -24.6328  -31.8641   23.2056 C   0  0  0  0  0  0
  -25.9150  -32.4807   23.8396 C   0  0  1  0  0  0
  -27.2088  -27.3073   20.1263 C   0  0  0  0  0  0
  -25.5913  -33.8595   24.2340 N   0  0  0  0  0  0
  -23.4195  -30.4895   21.5541 C   0  0  2  0  0  0
  -24.8594  -28.9294   20.1272 C   0  0  0  0  0  0
  -22.7479  -29.4658   22.5014 C   0  0  0  0  0  0
  -18.0256  -28.1537   22.8537 C   0  0  0  0  0  0
  -24.1392  -36.7271   23.2592 C   0  0  0  0  0  0
  -25.9585  -30.7988   21.3582 C   0  0  0  0  0  0
  -26.0341  -29.4143   20.7217 C   0  0  0  0  0  0
  -27.2195  -28.6149   20.7107 C   0  0  0  0  0  0
  -26.0170  -26.8712   19.5218 C   0  0  0  0  0  0
  -24.8515  -27.6621   19.5193 C   0  0  0  0  0  0
  -23.6316  -29.8227   20.1705 C   0  0  0  0  0  0
  -25.4012  -36.3078   24.0311 C   0  0  1  0  0  0
  -20.5879  -28.3797   23.1338 C   0  0  2  0  0  0
  -20.6726  -26.9502   22.5464 C   0  0  0  0  0  0
  -19.5678  -26.6482   21.5282 C   0  0  0  0  0  0
  -18.1878  -26.8079   22.1672 C   0  0  0  0  0  0
  -19.1531  -28.8983   23.2917 C   0  0  0  0  0  0
  -18.9450  -30.1584   23.8943 C   0  0  0  0  0  0
  -17.6450  -30.6695   24.0649 C   0  0  0  0  0  0
  -25.9027  -34.9465   23.5161 C   0  0  0  0  0  0
  -16.5332  -29.9226   23.6323 C   0  0  0  0  0  0
  -16.7255  -28.6634   23.0345 C   0  0  0  0  0  0
  -26.4487  -31.6587   25.0778 C   0  0  0  0  0  0
  -25.3710  -31.3758   26.1520 C   0  0  0  0  0  0
  -27.0215  -30.2981   24.6159 C   0  0  0  0  0  0
  -27.6124  -32.4219   25.7534 C   0  0  0  0  0  0
  -27.5611  -37.1651   24.8343 C   0  0  0  0  0  0
  -21.4200  -29.3113   22.3732 N   0  0  0  0  0  0
  -26.4133  -37.3867   23.9573 N   0  0  0  0  0  0
  -24.6914  -31.0660   22.1000 N   0  0  0  0  0  0
  -23.4197  -28.8110   23.3049 O   0  0  0  0  0  0
  -28.3260  -26.4756   20.0337 O   0  0  0  0  0  0
  -26.5648  -34.8956   22.4737 O   0  0  0  0  0  0
  -23.5495  -32.1425   23.7378 O   0  0  0  0  0  0
  -28.5283  -17.6060   19.8437 C   0  0  0  0  0  0
  -28.2692  -18.9927   19.6517 C   0  0  0  0  0  0
  -30.4983  -18.2104   21.0326 C   0  0  0  0  0  0
  -29.6680  -17.1544   20.5500 C   0  0  0  0  0  0
  -29.1172  -19.9855   20.2066 C   0  0  0  0  0  0
  -27.9570  -23.4097   18.9881 C   0  0  0  0  0  0
  -28.0227  -21.8583   18.8922 C   0  0  0  0  0  0
  -29.2009  -22.5972   20.8454 C   0  0  2  0  0  0
  -28.1070  -23.7391   20.5000 C   0  0  2  0  0  0
  -30.6933  -22.9836   20.5661 C   0  0  0  0  0  0
  -26.7564  -23.4043   21.2392 C   0  0  0  0  0  0
  -28.4443  -25.2870   20.9039 C   0  0  0  0  0  0
  -30.2217  -19.5577   20.8913 N   0  0  0  0  0  0
  -28.8311  -21.3964   20.0293 N   0  0  0  0  0  0
  -29.7710  -15.7206   20.9034 N   0  0  0  0  0  0
  -31.4749  -12.5553   19.1459 H   0  0  0  0  0  0
  -30.3925  -11.4285   19.8945 H   0  0  0  0  0  0
  -29.7725  -11.7456   17.4977 H   0  0  0  0  0  0
  -29.6581  -13.4751   17.7268 H   0  0  0  0  0  0
  -27.8716  -11.2958   18.8598 H   0  0  0  0  0  0
  -27.3858  -12.5917   17.7897 H   0  0  0  0  0  0
  -27.6704  -14.2492   19.5175 H   0  0  0  0  0  0
  -28.7082  -12.0742   21.3926 H   0  0  0  0  0  0
  -28.4154  -13.7258   21.8329 H   0  0  0  0  0  0
  -25.2646   -9.5764   22.4806 H   0  0  0  0  0  0
  -23.9932   -7.4670   22.7506 H   0  0  0  0  0  0
  -21.0728   -8.8753   19.8951 H   0  0  0  0  0  0
  -22.3565  -10.9652   19.6192 H   0  0  0  0  0  0
  -21.1988   -7.6052   23.9652 H   0  0  0  0  0  0
  -21.1499   -6.0462   25.9043 H   0  0  0  0  0  0
  -22.0561   -2.7540   23.2886 H   0  0  0  0  0  0
  -22.3807  -12.0019   22.4800 H   0  0  0  0  0  0
  -21.0974  -13.1489   22.2329 H   0  0  0  0  0  0
  -24.5743  -15.7524   20.3433 H   0  0  0  0  0  0
  -26.1245  -15.5236   19.7369 H   0  0  0  0  0  0
  -26.7268  -32.5507   23.1200 H   0  0  0  0  0  0
  -24.9909  -33.9716   25.0368 H   0  0  0  0  0  0
  -22.7088  -31.3088   21.4153 H   0  0  0  0  0  0
  -23.3802  -35.9433   23.2955 H   0  0  0  0  0  0
  -24.3577  -36.9226   22.2083 H   0  0  0  0  0  0
  -23.6916  -37.6263   23.6829 H   0  0  0  0  0  0
  -26.0532  -31.5285   20.5515 H   0  0  0  0  0  0
  -26.8553  -30.8897   21.9585 H   0  0  0  0  0  0
  -28.1324  -28.9911   21.1505 H   0  0  0  0  0  0
  -25.9947  -25.9023   19.0424 H   0  0  0  0  0  0
  -23.9531  -27.2854   19.0517 H   0  0  0  0  0  0
  -23.7594  -30.5983   19.4142 H   0  0  0  0  0  0
  -22.7466  -29.2616   19.8687 H   0  0  0  0  0  0
  -25.1080  -36.1888   25.0769 H   0  0  0  0  0  0
  -20.9962  -28.3413   24.1462 H   0  0  0  0  0  0
  -20.5663  -26.2399   23.3664 H   0  0  0  0  0  0
  -21.6594  -26.7548   22.1253 H   0  0  0  0  0  0
  -19.6765  -25.6392   21.1294 H   0  0  0  0  0  0
  -19.6592  -27.3282   20.6789 H   0  0  0  0  0  0
  -17.4139  -26.6971   21.4068 H   0  0  0  0  0  0
  -18.0122  -26.0220   22.9017 H   0  0  0  0  0  0
  -19.7942  -30.7441   24.2296 H   0  0  0  0  0  0
  -17.5000  -31.6347   24.5308 H   0  0  0  0  0  0
  -15.5344  -30.3162   23.7612 H   0  0  0  0  0  0
  -15.8631  -28.0953   22.7051 H   0  0  0  0  0  0
  -24.5930  -30.7019   25.7934 H   0  0  0  0  0  0
  -24.8843  -32.2916   26.4886 H   0  0  0  0  0  0
  -25.8045  -30.9070   27.0362 H   0  0  0  0  0  0
  -26.2725  -29.6875   24.1130 H   0  0  0  0  0  0
  -27.3818  -29.7123   25.4641 H   0  0  0  0  0  0
  -27.8645  -30.4240   23.9354 H   0  0  0  0  0  0
  -27.2853  -33.3589   26.2059 H   0  0  0  0  0  0
  -28.3979  -32.6644   25.0351 H   0  0  0  0  0  0
  -28.0711  -31.8328   26.5495 H   0  0  0  0  0  0
  -28.2226  -38.0317   24.8098 H   0  0  0  0  0  0
  -28.1463  -36.3000   24.5211 H   0  0  0  0  0  0
  -27.2517  -37.0182   25.8700 H   0  0  0  0  0  0
  -20.9375  -29.8946   21.7032 H   0  0  0  0  0  0
  -25.9982  -38.2798   24.2047 H   0  0  0  0  0  0
  -27.8175  -16.8879   19.4604 H   0  0  0  0  0  0
  -27.3696  -19.2601   19.1120 H   0  0  0  0  0  0
  -31.3746  -17.9749   21.6203 H   0  0  0  0  0  0
  -27.0448  -23.7903   18.5208 H   0  0  0  0  0  0
  -28.7996  -23.8286   18.4293 H   0  0  0  0  0  0
  -28.4574  -21.5447   17.9389 H   0  0  0  0  0  0
  -27.0097  -21.4403   18.9409 H   0  0  0  0  0  0
  -29.1300  -22.3586   21.9124 H   0  0  0  0  0  0
  -30.9164  -23.1436   19.5056 H   0  0  0  0  0  0
  -31.3760  -22.2186   20.9403 H   0  0  0  0  0  0
  -31.0240  -23.8781   21.0942 H   0  0  0  0  0  0
  -26.4106  -22.3781   21.0934 H   0  0  0  0  0  0
  -25.9367  -24.0492   20.9206 H   0  0  0  0  0  0
  -26.8358  -23.5304   22.3217 H   0  0  0  0  0  0
  -29.4801  -25.3327   21.2217 H   0  0  0  0  0  0
  -27.9255  -25.5345   21.8301 H   0  0  0  0  0  0
  -28.8969  -15.3403   21.2390 H   0  0  0  0  0  0
  1 25  1  0  0  0
  1 30  2  0  0  0
  1 85  1  0  0  0
  2  3  1  0  0  0
  2 25  1  0  0  0
  2 86  1  0  0  0
  2 87  1  0  0  0
  3  4  1  0  0  0
  3 88  1  0  0  0
  3 89  1  0  0  0
  4  5  1  0  0  0
  4 90  1  0  0  0
  4 91  1  0  0  0
  5  6  1  0  0  0
  5 26  1  0  0  0
  5 92  1  0  0  0
  6 25  1  0  0  0
  6 93  1  0  0  0
  6 94  1  0  0  0
  7  8  2  0  0  0
  7 26  1  0  0  0
  7 29  1  0  0  0
  8  9  1  0  0  0
  8 22  1  0  0  0
  9 10  1  0  0  0
  9 27  2  0  0  0
 10 11  2  0  0  0
 10 15  1  0  0  0
 11 12  1  0  0  0
 11 95  1  0  0  0
 12 13  2  0  0  0
 12 96  1  0  0  0
 13 14  1  0  0  0
 13 31  1  0  0  0
 14 15  2  0  0  0
 14 97  1  0  0  0
 15 98  1  0  0  0
 16 17  2  0  0  0
 16 21  1  0  0  0
 16 31  1  0  0  0
 17 18  1  0  0  0
 17 99  1  0  0  0
 18 19  2  0  0  0
 18100  1  0  0  0
 19 20  1  0  0  0
 19 24  1  0  0  0
 20 21  2  0  0  0
 20101  1  0  0  0
 21 23  1  0  0  0
 22 28  1  0  0  0
 22 32  2  0  0  0
 26 27  1  0  0  0
 28102  1  0  0  0
 28103  1  0  0  0
 29104  1  0  0  0
 29105  1  0  0  0
 33 34  1  0  0  0
 33 66  1  0  0  0
 33 70  2  0  0  0
 34 36  1  0  0  0
 34 59  1  0  0  0
 34106  1  0  0  0
 35 44  2  0  0  0
 35 45  1  0  0  0
 35 68  1  0  0  0
 36 56  1  0  0  0
 36107  1  0  0  0
 37 39  1  0  0  0
 37 47  1  0  0  0
 37 66  1  0  0  0
 37108  1  0  0  0
 38 43  2  0  0  0
 38 46  1  0  0  0
 38 47  1  0  0  0
 39 64  1  0  0  0
 39 67  2  0  0  0
 40 52  1  0  0  0
 40 53  2  0  0  0
 40 58  1  0  0  0
 41109  1  0  0  0
 41110  1  0  0  0
 41111  1  0  0  0
 41 48  1  0  0  0
 42 43  1  0  0  0
 42 66  1  0  0  0
 42112  1  0  0  0
 42113  1  0  0  0
 43 44  1  0  0  0
 44114  1  0  0  0
 45 46  2  0  0  0
 45115  1  0  0  0
 46116  1  0  0  0
 47117  1  0  0  0
 47118  1  0  0  0
 48 56  1  0  0  0
 48 65  1  0  0  0
 48119  1  0  0  0
 49 50  1  0  0  0
 49 53  1  0  0  0
 49 64  1  0  0  0
 49120  1  0  0  0
 50 51  1  0  0  0
 50121  1  0  0  0
 50122  1  0  0  0
 51 52  1  0  0  0
 51123  1  0  0  0
 51124  1  0  0  0
 52125  1  0  0  0
 52126  1  0  0  0
 53 54  1  0  0  0
 54 55  2  0  0  0
 54127  1  0  0  0
 55 57  1  0  0  0
 55128  1  0  0  0
 56 69  2  0  0  0
 57 58  2  0  0  0
 57129  1  0  0  0
 58130  1  0  0  0
 59 60  1  0  0  0
 59 61  1  0  0  0
 59 62  1  0  0  0
 60131  1  0  0  0
 60132  1  0  0  0
 60133  1  0  0  0
 61134  1  0  0  0
 61135  1  0  0  0
 61136  1  0  0  0
 62137  1  0  0  0
 62138  1  0  0  0
 62139  1  0  0  0
 63 65  1  0  0  0
 63140  1  0  0  0
 63141  1  0  0  0
 63142  1  0  0  0
 64143  1  0  0  0
 65144  1  0  0  0
 68 82  1  0  0  0
 71 72  2  0  0  0
 71 74  1  0  0  0
 71145  1  0  0  0
 72 75  1  0  0  0
 72146  1  0  0  0
 73 74  2  0  0  0
 73 83  1  0  0  0
 73147  1  0  0  0
 74 85  1  0  0  0
 75 83  2  0  0  0
 75 84  1  0  0  0
 76 77  1  0  0  0
 76 79  1  0  0  0
 76148  1  0  0  0
 76149  1  0  0  0
 77 84  1  0  0  0
 77150  1  0  0  0
 77151  1  0  0  0
 78 79  1  0  0  0
 78 80  1  0  0  0
 78 84  1  0  0  0
 78152  1  0  0  0
 79 81  1  0  0  0
 79 82  1  0  0  0
 80153  1  0  0  0
 80154  1  0  0  0
 80155  1  0  0  0
 81156  1  0  0  0
 81157  1  0  0  0
 81158  1  0  0  0
 82159  1  0  0  0
 82160  1  0  0  0
 85161  1  0  0  0
M  ISO  4   1 100  68 101  82 101  85 100
M  END
> <chiral flag>
0

> <version>
0

> <s_m_source_file>
/data/baiqing/PycharmProjects/Reinvent-master-3.2/result/LINK_invent/BTK/process_docking_weight1_custom_product_contain_oxygen_bond_distance_aromatic_linkinvent_7_9_3/rearranged_h_0147.sdf

> <i_m_source_file_index>
81

> <r_mmod_Potential_Energy-OPLS-2005>
66.5835952758789

> <r_mmod_Stretch_Energy-OPLS-2005>
104.323051452637

> <r_mmod_Bend_Energy-OPLS-2005>
230.513473510742

> <r_mmod_Torsional_Energy-OPLS-2005>
348.76806640625

> <r_mmod_Improper_Torsional_Energy-OPLS-2005>
9.29642868041992

> <r_mmod_Van_der_Waal_Energy-OPLS-2005>
130.125991821289

> <r_mmod_Electrostatic_Energy-OPLS-2005>
-589.088989257812

> <r_mmod_Solvation_Energy-OPLS-2005>
-226.889373779297

> <b_mmod_Minimization_Converged-OPLS-2005>
0

> <r_mmod_RMS_Derivative-OPLS-2005>
10.7446622848511

$$$$
82
                    3D
 Structure written by MMmdl.
162171  0  0  1  0            999 V2000
  -30.6200  -14.7351   20.4300 C   0  0  0  0  0  0
  -30.4291  -12.4373   19.4889 C   0  0  0  0  0  0
  -29.5167  -12.5038   18.2437 C   0  0  0  0  0  0
  -28.0412  -12.3340   18.6515 C   0  0  0  0  0  0
  -27.6454  -13.2340   19.8524 C   0  0  2  0  0  0
  -28.6864  -13.1716   20.9933 C   0  0  0  0  0  0
  -25.2527  -13.8201   20.5690 C   0  0  0  0  0  0
  -24.1813  -13.0443   20.9180 C   0  0  0  0  0  0
  -24.6404  -11.6923   20.8731 C   0  0  0  0  0  0
  -23.9082  -10.4294   21.0395 C   0  0  0  0  0  0
  -24.3633   -9.4213   21.9171 C   0  0  0  0  0  0
  -23.6297   -8.2254   22.0753 C   0  0  0  0  0  0
  -22.4278   -8.0297   21.3549 C   0  0  0  0  0  0
  -21.9908   -9.0269   20.4651 C   0  0  0  0  0  0
  -22.7248  -10.2139   20.3047 C   0  0  0  0  0  0
  -21.6854   -6.0741   22.5272 C   0  0  0  0  0  0
  -21.4023   -6.5635   23.8213 C   0  0  0  0  0  0
  -21.3656   -5.6790   24.9173 C   0  0  0  0  0  0
  -21.6038   -4.3052   24.7217 C   0  0  0  0  0  0
  -21.8821   -3.8145   23.4335 C   0  0  0  0  0  0
  -21.9194   -4.6963   22.3398 C   0  0  0  0  0  0
  -22.7831  -13.5227   21.1843 C   0  0  0  0  0  0
  -22.1664   -4.2158   21.0972 F   0  0  0  0  0  0
  -21.5623   -3.4530   25.7723 F   0  0  0  0  0  0
  -29.9947  -13.5076   20.4177 N   0  0  0  0  0  0
  -26.2965  -12.9418   20.3276 N   0  0  0  0  0  0
  -25.9342  -11.6559   20.5731 N   0  0  0  0  0  0
  -22.0481  -12.8225   22.0409 N   0  0  0  0  0  0
  -25.4216  -15.1929   20.4137 N   0  0  0  0  0  0
  -31.8031  -14.8173   20.0880 O   0  0  0  0  0  0
  -21.6646   -6.8888   21.4245 O   0  0  0  0  0  0
  -22.3520  -14.5537   20.6703 O   0  0  0  0  0  0
  -24.6335  -31.8540   23.1986 C   0  0  0  0  0  0
  -25.9158  -32.4743   23.8330 C   0  0  1  0  0  0
  -27.2159  -27.2523   20.1141 C   0  0  0  0  0  0
  -25.5942  -33.8543   24.2253 N   0  0  0  0  0  0
  -23.4298  -30.4788   21.5428 C   0  0  2  0  0  0
  -24.8752  -28.9296   20.1084 C   0  0  0  0  0  0
  -22.7516  -29.4593   22.4904 C   0  0  0  0  0  0
  -18.0298  -28.1395   22.8473 C   0  0  0  0  0  0
  -24.1488  -36.7284   23.2639 C   0  0  0  0  0  0
  -25.9784  -30.7624   21.3828 C   0  0  0  0  0  0
  -26.0496  -29.3860   20.7201 C   0  0  0  0  0  0
  -27.2212  -28.5588   20.7156 C   0  0  0  0  0  0
  -26.0170  -26.8775   19.4621 C   0  0  0  0  0  0
  -24.8647  -27.6833   19.4696 C   0  0  0  0  0  0
  -23.6477  -29.8172   20.1579 C   0  0  0  0  0  0
  -25.4114  -36.3059   24.0321 C   0  0  1  0  0  0
  -20.5903  -28.3699   23.1256 C   0  0  2  0  0  0
  -20.6781  -26.9410   22.5404 C   0  0  0  0  0  0
  -19.5754  -26.6379   21.5207 C   0  0  0  0  0  0
  -18.1936  -26.7932   22.1622 C   0  0  0  0  0  0
  -19.1551  -28.8864   23.2857 C   0  0  0  0  0  0
  -18.9473  -30.1465   23.8872 C   0  0  0  0  0  0
  -17.6471  -30.6584   24.0564 C   0  0  0  0  0  0
  -25.9053  -34.9430   23.5089 C   0  0  0  0  0  0
  -16.5362  -29.9079   23.6335 C   0  0  0  0  0  0
  -16.7284  -28.6506   23.0338 C   0  0  0  0  0  0
  -26.4512  -31.6571   25.0727 C   0  0  0  0  0  0
  -25.3727  -31.3764   26.1448 C   0  0  0  0  0  0
  -27.0363  -30.2969   24.6261 C   0  0  0  0  0  0
  -27.6055  -32.4325   25.7508 C   0  0  0  0  0  0
  -27.5570  -37.1807   24.8466 C   0  0  0  0  0  0
  -21.4223  -29.3040   22.3645 N   0  0  0  0  0  0
  -26.4293  -37.3749   23.9390 N   0  0  0  0  0  0
  -24.6994  -31.0499   22.0970 N   0  0  0  0  0  0
  -23.4213  -28.8124   23.2994 O   0  0  0  0  0  0
  -28.2994  -26.3364   20.1823 O   0  0  0  0  0  0
  -26.5619  -34.8905   22.4654 O   0  0  0  0  0  0
  -23.5483  -32.1365   23.7283 O   0  0  0  0  0  0
  -29.9128  -19.5998   18.3747 C   0  0  0  0  0  0
  -30.3274  -17.1922   18.6072 C   0  0  0  0  0  0
  -29.5512  -18.5029   20.5105 C   0  0  0  0  0  0
  -30.3087  -18.3625   17.8249 C   0  0  0  0  0  0
  -29.5355  -19.7407   19.7309 C   0  0  0  0  0  0
  -29.9424  -17.2009   19.9673 C   0  0  0  0  0  0
  -28.7710  -23.0098   21.6051 C   0  0  0  0  0  0
  -29.2760  -21.5304   21.5740 C   0  0  0  0  0  0
  -28.8660  -22.2941   19.3627 C   0  0  0  0  0  0
  -29.0365  -23.6375   20.2127 C   0  0  2  0  0  0
  -30.7036  -18.2793   16.3612 C   0  0  0  0  0  0
  -30.4969  -24.1102   20.0979 C   0  0  0  0  0  0
  -28.0718  -24.8895   19.8127 C   0  0  0  0  0  0
  -29.1701  -21.0779   20.1932 N   0  0  0  0  0  0
  -29.8723  -15.8839   20.6623 N   0  0  0  0  0  0
  -31.4749  -12.5361   19.1945 H   0  0  0  0  0  0
  -30.3502  -11.4623   19.9712 H   0  0  0  0  0  0
  -29.7971  -11.7306   17.5276 H   0  0  0  0  0  0
  -29.6546  -13.4595   17.7352 H   0  0  0  0  0  0
  -27.8949  -11.2852   18.9130 H   0  0  0  0  0  0
  -27.3903  -12.5298   17.7984 H   0  0  0  0  0  0
  -27.6403  -14.2549   19.4716 H   0  0  0  0  0  0
  -28.7097  -12.1779   21.4432 H   0  0  0  0  0  0
  -28.4229  -13.8641   21.7946 H   0  0  0  0  0  0
  -25.2775   -9.5677   22.4750 H   0  0  0  0  0  0
  -23.9999   -7.4637   22.7470 H   0  0  0  0  0  0
  -21.0838   -8.8786   19.8952 H   0  0  0  0  0  0
  -22.3707  -10.9676   19.6159 H   0  0  0  0  0  0
  -21.2027   -7.6145   23.9712 H   0  0  0  0  0  0
  -21.1473   -6.0522   25.9072 H   0  0  0  0  0  0
  -22.0603   -2.7610   23.2836 H   0  0  0  0  0  0
  -22.4089  -11.9894   22.4816 H   0  0  0  0  0  0
  -21.1093  -13.1258   22.2595 H   0  0  0  0  0  0
  -24.6563  -15.8468   20.5326 H   0  0  0  0  0  0
  -26.2736  -15.6351   20.0924 H   0  0  0  0  0  0
  -26.7222  -32.5393   23.1070 H   0  0  0  0  0  0
  -25.0078  -33.9667   25.0393 H   0  0  0  0  0  0
  -22.7267  -31.3015   21.3989 H   0  0  0  0  0  0
  -23.3726  -35.9643   23.3339 H   0  0  0  0  0  0
  -24.3568  -36.8868   22.2046 H   0  0  0  0  0  0
  -23.7281  -37.6513   23.6641 H   0  0  0  0  0  0
  -26.1251  -31.5251   20.6169 H   0  0  0  0  0  0
  -26.8538  -30.8066   22.0192 H   0  0  0  0  0  0
  -28.1169  -28.9004   21.2157 H   0  0  0  0  0  0
  -25.9274  -25.9351   18.9441 H   0  0  0  0  0  0
  -23.9676  -27.3314   18.9791 H   0  0  0  0  0  0
  -23.7723  -30.5948   19.4033 H   0  0  0  0  0  0
  -22.7655  -29.2522   19.8510 H   0  0  0  0  0  0
  -25.1301  -36.1909   25.0813 H   0  0  0  0  0  0
  -20.9994  -28.3279   24.1376 H   0  0  0  0  0  0
  -20.5671  -26.2300   23.3610 H   0  0  0  0  0  0
  -21.6651  -26.7418   22.1203 H   0  0  0  0  0  0
  -19.6907  -25.6287   21.1236 H   0  0  0  0  0  0
  -19.6685  -27.3184   20.6731 H   0  0  0  0  0  0
  -17.4197  -26.6669   21.4037 H   0  0  0  0  0  0
  -18.0336  -26.0086   22.9030 H   0  0  0  0  0  0
  -19.7951  -30.7296   24.2219 H   0  0  0  0  0  0
  -17.5021  -31.6257   24.5178 H   0  0  0  0  0  0
  -15.5359  -30.2969   23.7672 H   0  0  0  0  0  0
  -15.8689  -28.0826   22.7045 H   0  0  0  0  0  0
  -24.5879  -30.7128   25.7794 H   0  0  0  0  0  0
  -24.8951  -32.2959   26.4839 H   0  0  0  0  0  0
  -25.8030  -30.8962   27.0245 H   0  0  0  0  0  0
  -26.2964  -29.6702   24.1264 H   0  0  0  0  0  0
  -27.3989  -29.7247   25.4813 H   0  0  0  0  0  0
  -27.8864  -30.4209   23.9549 H   0  0  0  0  0  0
  -27.2642  -33.3626   26.2063 H   0  0  0  0  0  0
  -28.3875  -32.6886   25.0347 H   0  0  0  0  0  0
  -28.0704  -31.8469   26.5449 H   0  0  0  0  0  0
  -28.2616  -38.0070   24.7446 H   0  0  0  0  0  0
  -28.1039  -36.2601   24.6377 H   0  0  0  0  0  0
  -27.2283  -37.1557   25.8869 H   0  0  0  0  0  0
  -20.9410  -29.8776   21.6865 H   0  0  0  0  0  0
  -26.0179  -38.2832   24.1350 H   0  0  0  0  0  0
  -29.9180  -20.4542   17.7159 H   0  0  0  0  0  0
  -30.6131  -16.2653   18.1277 H   0  0  0  0  0  0
  -29.2407  -18.5496   21.5443 H   0  0  0  0  0  0
  -29.2212  -23.5823   22.4167 H   0  0  0  0  0  0
  -27.6964  -22.9991   21.7922 H   0  0  0  0  0  0
  -28.6970  -20.8995   22.2500 H   0  0  0  0  0  0
  -30.3208  -21.4759   21.8840 H   0  0  0  0  0  0
  -29.4785  -22.3500   18.4635 H   0  0  0  0  0  0
  -27.8316  -22.2100   19.0258 H   0  0  0  0  0  0
  -30.9491  -19.2618   15.9585 H   0  0  0  0  0  0
  -29.8865  -17.8671   15.7688 H   0  0  0  0  0  0
  -31.5754  -17.6385   16.2284 H   0  0  0  0  0  0
  -31.1996  -23.3120   20.3392 H   0  0  0  0  0  0
  -30.6952  -24.9432   20.7729 H   0  0  0  0  0  0
  -30.7178  -24.4480   19.0851 H   0  0  0  0  0  0
  -27.0828  -24.5979   20.1651 H   0  0  0  0  0  0
  -28.0060  -24.8856   18.7237 H   0  0  0  0  0  0
  -29.0233  -15.7256   21.1840 H   0  0  0  0  0  0
  1 25  1  0  0  0
  1 30  2  0  0  0
  1 85  1  0  0  0
  2  3  1  0  0  0
  2 25  1  0  0  0
  2 86  1  0  0  0
  2 87  1  0  0  0
  3  4  1  0  0  0
  3 88  1  0  0  0
  3 89  1  0  0  0
  4  5  1  0  0  0
  4 90  1  0  0  0
  4 91  1  0  0  0
  5  6  1  0  0  0
  5 26  1  0  0  0
  5 92  1  0  0  0
  6 25  1  0  0  0
  6 93  1  0  0  0
  6 94  1  0  0  0
  7  8  2  0  0  0
  7 26  1  0  0  0
  7 29  1  0  0  0
  8  9  1  0  0  0
  8 22  1  0  0  0
  9 10  1  0  0  0
  9 27  2  0  0  0
 10 11  2  0  0  0
 10 15  1  0  0  0
 11 12  1  0  0  0
 11 95  1  0  0  0
 12 13  2  0  0  0
 12 96  1  0  0  0
 13 14  1  0  0  0
 13 31  1  0  0  0
 14 15  2  0  0  0
 14 97  1  0  0  0
 15 98  1  0  0  0
 16 17  2  0  0  0
 16 21  1  0  0  0
 16 31  1  0  0  0
 17 18  1  0  0  0
 17 99  1  0  0  0
 18 19  2  0  0  0
 18100  1  0  0  0
 19 20  1  0  0  0
 19 24  1  0  0  0
 20 21  2  0  0  0
 20101  1  0  0  0
 21 23  1  0  0  0
 22 28  1  0  0  0
 22 32  2  0  0  0
 26 27  1  0  0  0
 28102  1  0  0  0
 28103  1  0  0  0
 29104  1  0  0  0
 29105  1  0  0  0
 33 34  1  0  0  0
 33 66  1  0  0  0
 33 70  2  0  0  0
 34 36  1  0  0  0
 34 59  1  0  0  0
 34106  1  0  0  0
 35 44  2  0  0  0
 35 45  1  0  0  0
 35 68  1  0  0  0
 36 56  1  0  0  0
 36107  1  0  0  0
 37 39  1  0  0  0
 37 47  1  0  0  0
 37 66  1  0  0  0
 37108  1  0  0  0
 38 43  2  0  0  0
 38 46  1  0  0  0
 38 47  1  0  0  0
 39 64  1  0  0  0
 39 67  2  0  0  0
 40 52  1  0  0  0
 40 53  2  0  0  0
 40 58  1  0  0  0
 41109  1  0  0  0
 41110  1  0  0  0
 41111  1  0  0  0
 41 48  1  0  0  0
 42 43  1  0  0  0
 42 66  1  0  0  0
 42112  1  0  0  0
 42113  1  0  0  0
 43 44  1  0  0  0
 44114  1  0  0  0
 45 46  2  0  0  0
 45115  1  0  0  0
 46116  1  0  0  0
 47117  1  0  0  0
 47118  1  0  0  0
 48 56  1  0  0  0
 48 65  1  0  0  0
 48119  1  0  0  0
 49 50  1  0  0  0
 49 53  1  0  0  0
 49 64  1  0  0  0
 49120  1  0  0  0
 50 51  1  0  0  0
 50121  1  0  0  0
 50122  1  0  0  0
 51 52  1  0  0  0
 51123  1  0  0  0
 51124  1  0  0  0
 52125  1  0  0  0
 52126  1  0  0  0
 53 54  1  0  0  0
 54 55  2  0  0  0
 54127  1  0  0  0
 55 57  1  0  0  0
 55128  1  0  0  0
 56 69  2  0  0  0
 57 58  2  0  0  0
 57129  1  0  0  0
 58130  1  0  0  0
 59 60  1  0  0  0
 59 61  1  0  0  0
 59 62  1  0  0  0
 60131  1  0  0  0
 60132  1  0  0  0
 60133  1  0  0  0
 61134  1  0  0  0
 61135  1  0  0  0
 61136  1  0  0  0
 62137  1  0  0  0
 62138  1  0  0  0
 62139  1  0  0  0
 63 65  1  0  0  0
 63140  1  0  0  0
 63141  1  0  0  0
 63142  1  0  0  0
 64143  1  0  0  0
 65144  1  0  0  0
 68 83  1  0  0  0
 71 74  2  0  0  0
 71 75  1  0  0  0
 71145  1  0  0  0
 72 74  1  0  0  0
 72 76  2  0  0  0
 72146  1  0  0  0
 73 75  2  0  0  0
 73 76  1  0  0  0
 73147  1  0  0  0
 74 81  1  0  0  0
 75 84  1  0  0  0
 76 85  1  0  0  0
 77 78  1  0  0  0
 77 80  1  0  0  0
 77148  1  0  0  0
 77149  1  0  0  0
 78 84  1  0  0  0
 78150  1  0  0  0
 78151  1  0  0  0
 79 80  1  0  0  0
 79 84  1  0  0  0
 79152  1  0  0  0
 79153  1  0  0  0
 80 82  1  0  0  0
 80 83  1  0  0  0
 81154  1  0  0  0
 81155  1  0  0  0
 81156  1  0  0  0
 82157  1  0  0  0
 82158  1  0  0  0
 82159  1  0  0  0
 83160  1  0  0  0
 83161  1  0  0  0
 85162  1  0  0  0
M  ISO  4   1 100  68 101  83 101  85 100
M  END
> <chiral flag>
0

> <version>
0

> <s_m_source_file>
/data/baiqing/PycharmProjects/Reinvent-master-3.2/result/LINK_invent/BTK/process_docking_weight1_custom_product_contain_oxygen_bond_distance_aromatic_linkinvent_7_9_3/rearranged_h_0147.sdf

> <i_m_source_file_index>
82

> <r_mmod_Potential_Energy-OPLS-2005>
308.644195556641

> <r_mmod_Stretch_Energy-OPLS-2005>
126.249580383301

> <r_mmod_Bend_Energy-OPLS-2005>
210.426086425781

> <r_mmod_Torsional_Energy-OPLS-2005>
298.5224609375

> <r_mmod_Improper_Torsional_Energy-OPLS-2005>
5.18266201019287

> <r_mmod_Van_der_Waal_Energy-OPLS-2005>
141.551559448242

> <r_mmod_Electrostatic_Energy-OPLS-2005>
-338.059967041016

> <r_mmod_Solvation_Energy-OPLS-2005>
-222.885116577148

> <b_mmod_Minimization_Converged-OPLS-2005>
0

> <r_mmod_RMS_Derivative-OPLS-2005>
1.68237864971161

$$$$
83
                    3D
 Structure written by MMmdl.
160169  0  0  1  0            999 V2000
  -30.5791  -14.8170   20.4072 C   0  0  0  0  0  0
  -30.4399  -12.4797   19.5062 C   0  0  0  0  0  0
  -29.5252  -12.4447   18.2603 C   0  0  0  0  0  0
  -28.0414  -12.3187   18.6584 C   0  0  0  0  0  0
  -27.6395  -13.2378   19.8440 C   0  0  2  0  0  0
  -28.6803  -13.2085   20.9838 C   0  0  0  0  0  0
  -25.2501  -13.8224   20.5685 C   0  0  0  0  0  0
  -24.1801  -13.0458   20.9204 C   0  0  0  0  0  0
  -24.6399  -11.6934   20.8748 C   0  0  0  0  0  0
  -23.9079  -10.4303   21.0399 C   0  0  0  0  0  0
  -24.3627   -9.4214   21.9175 C   0  0  0  0  0  0
  -23.6301   -8.2248   22.0744 C   0  0  0  0  0  0
  -22.4281   -8.0285   21.3537 C   0  0  0  0  0  0
  -21.9921   -9.0257   20.4635 C   0  0  0  0  0  0
  -22.7251  -10.2137   20.3045 C   0  0  0  0  0  0
  -21.6859   -6.0739   22.5274 C   0  0  0  0  0  0
  -21.4016   -6.5639   23.8207 C   0  0  0  0  0  0
  -21.3661   -5.6790   24.9168 C   0  0  0  0  0  0
  -21.6043   -4.3053   24.7217 C   0  0  0  0  0  0
  -21.8822   -3.8146   23.4339 C   0  0  0  0  0  0
  -21.9190   -4.6964   22.3394 C   0  0  0  0  0  0
  -22.7819  -13.5225   21.1868 C   0  0  0  0  0  0
  -22.1660   -4.2149   21.0971 F   0  0  0  0  0  0
  -21.5629   -3.4536   25.7732 F   0  0  0  0  0  0
  -29.9752  -13.5728   20.3985 N   0  0  0  0  0  0
  -26.2927  -12.9437   20.3253 N   0  0  0  0  0  0
  -25.9330  -11.6577   20.5757 N   0  0  0  0  0  0
  -22.0478  -12.8197   22.0421 N   0  0  0  0  0  0
  -25.4198  -15.1948   20.4097 N   0  0  0  0  0  0
  -31.7765  -14.8950   20.1133 O   0  0  0  0  0  0
  -21.6644   -6.8884   21.4237 O   0  0  0  0  0  0
  -22.3491  -14.5526   20.6718 O   0  0  0  0  0  0
  -24.6340  -31.8519   23.1943 C   0  0  0  0  0  0
  -25.9152  -32.4729   23.8306 C   0  0  1  0  0  0
  -27.2247  -27.2316   20.1245 C   0  0  0  0  0  0
  -25.5934  -33.8535   24.2228 N   0  0  0  0  0  0
  -23.4323  -30.4724   21.5380 C   0  0  2  0  0  0
  -24.8803  -28.9140   20.1056 C   0  0  0  0  0  0
  -22.7514  -29.4587   22.4895 C   0  0  0  0  0  0
  -18.0293  -28.1390   22.8483 C   0  0  0  0  0  0
  -24.1487  -36.7271   23.2640 C   0  0  0  0  0  0
  -25.9800  -30.7542   21.3784 C   0  0  0  0  0  0
  -26.0525  -29.3748   20.7172 C   0  0  0  0  0  0
  -27.2235  -28.5453   20.7162 C   0  0  0  0  0  0
  -26.0213  -26.8395   19.4961 C   0  0  0  0  0  0
  -24.8718  -27.6562   19.4830 C   0  0  0  0  0  0
  -23.6513  -29.8034   20.1550 C   0  0  0  0  0  0
  -25.4116  -36.3057   24.0322 C   0  0  1  0  0  0
  -20.5898  -28.3706   23.1263 C   0  0  2  0  0  0
  -20.6781  -26.9418   22.5409 C   0  0  0  0  0  0
  -19.5757  -26.6385   21.5216 C   0  0  0  0  0  0
  -18.1937  -26.7932   22.1624 C   0  0  0  0  0  0
  -19.1546  -28.8864   23.2869 C   0  0  0  0  0  0
  -18.9467  -30.1462   23.8892 C   0  0  0  0  0  0
  -17.6466  -30.6590   24.0561 C   0  0  0  0  0  0
  -25.9064  -34.9427   23.5084 C   0  0  0  0  0  0
  -16.5356  -29.9086   23.6333 C   0  0  0  0  0  0
  -16.7278  -28.6503   23.0354 C   0  0  0  0  0  0
  -26.4506  -31.6566   25.0711 C   0  0  0  0  0  0
  -25.3709  -31.3722   26.1414 C   0  0  0  0  0  0
  -27.0357  -30.2973   24.6226 C   0  0  0  0  0  0
  -27.6045  -32.4311   25.7496 C   0  0  0  0  0  0
  -27.5579  -37.1789   24.8462 C   0  0  0  0  0  0
  -21.4218  -29.3048   22.3646 N   0  0  0  0  0  0
  -26.4286  -37.3763   23.9414 N   0  0  0  0  0  0
  -24.7012  -31.0454   22.0928 N   0  0  0  0  0  0
  -23.4201  -28.8139   23.3017 O   0  0  0  0  0  0
  -28.3062  -26.3122   20.2426 O   0  0  0  0  0  0
  -26.5650  -34.8914   22.4662 O   0  0  0  0  0  0
  -23.5483  -32.1361   23.7221 O   0  0  0  0  0  0
  -29.9321  -18.5456   17.7290 C   0  0  0  0  0  0
  -29.6604  -19.7763   18.3405 C   0  0  0  0  0  0
  -29.5088  -18.6274   20.4693 C   0  0  0  0  0  0
  -29.9716  -17.3360   18.4474 C   0  0  0  0  0  0
  -29.4098  -19.8963   19.7224 C   0  0  0  0  0  0
  -29.8102  -17.3106   19.8650 C   0  0  0  0  0  0
  -28.6229  -23.7688   20.0883 C   0  0  0  0  0  0
  -28.3941  -25.0500   19.5621 C   0  0  0  0  0  0
  -28.7469  -23.3093   21.5347 C   0  0  0  0  0  0
  -28.8455  -22.4459   19.2843 C   0  0  0  0  0  0
  -29.0100  -21.7489   21.5551 C   0  0  0  0  0  0
  -30.0830  -16.0802   17.6032 C   0  0  0  0  0  0
  -28.3875  -25.2466   18.0542 C   0  0  0  0  0  0
  -29.0793  -21.2570   20.1766 N   0  0  0  0  0  0
  -29.7977  -15.9729   20.5712 N   0  0  0  0  0  0
  -31.4795  -12.6096   19.1998 H   0  0  0  0  0  0
  -30.4059  -11.5249   20.0328 H   0  0  0  0  0  0
  -29.8034  -11.6036   17.6245 H   0  0  0  0  0  0
  -29.6839  -13.3283   17.6490 H   0  0  0  0  0  0
  -27.8733  -11.2766   18.9313 H   0  0  0  0  0  0
  -27.4014  -12.5100   17.7958 H   0  0  0  0  0  0
  -27.6240  -14.2519   19.4447 H   0  0  0  0  0  0
  -28.7273  -12.2211   21.4452 H   0  0  0  0  0  0
  -28.4048  -13.9059   21.7762 H   0  0  0  0  0  0
  -25.2771   -9.5692   22.4756 H   0  0  0  0  0  0
  -24.0009   -7.4639   22.7462 H   0  0  0  0  0  0
  -21.0854   -8.8773   19.8938 H   0  0  0  0  0  0
  -22.3705  -10.9673   19.6154 H   0  0  0  0  0  0
  -21.2016   -7.6149   23.9715 H   0  0  0  0  0  0
  -21.1479   -6.0515   25.9071 H   0  0  0  0  0  0
  -22.0600   -2.7606   23.2834 H   0  0  0  0  0  0
  -22.4114  -11.9866   22.4808 H   0  0  0  0  0  0
  -21.1086  -13.1191   22.2625 H   0  0  0  0  0  0
  -24.6565  -15.8521   20.5293 H   0  0  0  0  0  0
  -26.2647  -15.6317   20.0646 H   0  0  0  0  0  0
  -26.7212  -32.5366   23.1039 H   0  0  0  0  0  0
  -25.0037  -33.9665   25.0345 H   0  0  0  0  0  0
  -22.7301  -31.2954   21.3892 H   0  0  0  0  0  0
  -23.3759  -35.9591   23.3281 H   0  0  0  0  0  0
  -24.3573  -36.8922   22.2057 H   0  0  0  0  0  0
  -23.7228  -37.6458   23.6685 H   0  0  0  0  0  0
  -26.1244  -31.5147   20.6101 H   0  0  0  0  0  0
  -26.8554  -30.8017   22.0148 H   0  0  0  0  0  0
  -28.1171  -28.8885   21.2184 H   0  0  0  0  0  0
  -25.9377  -25.8635   19.0425 H   0  0  0  0  0  0
  -23.9713  -27.2937   19.0067 H   0  0  0  0  0  0
  -23.7742  -30.5783   19.3973 H   0  0  0  0  0  0
  -22.7694  -29.2361   19.8516 H   0  0  0  0  0  0
  -25.1301  -36.1890   25.0813 H   0  0  0  0  0  0
  -20.9989  -28.3287   24.1385 H   0  0  0  0  0  0
  -20.5671  -26.2322   23.3620 H   0  0  0  0  0  0
  -21.6647  -26.7436   22.1207 H   0  0  0  0  0  0
  -19.6918  -25.6293   21.1254 H   0  0  0  0  0  0
  -19.6697  -27.3185   20.6736 H   0  0  0  0  0  0
  -17.4208  -26.6673   21.4028 H   0  0  0  0  0  0
  -18.0341  -26.0075   22.9023 H   0  0  0  0  0  0
  -19.7943  -30.7278   24.2260 H   0  0  0  0  0  0
  -17.5020  -31.6270   24.5161 H   0  0  0  0  0  0
  -15.5356  -30.2984   23.7664 H   0  0  0  0  0  0
  -15.8679  -28.0817   22.7077 H   0  0  0  0  0  0
  -24.5892  -30.7069   25.7729 H   0  0  0  0  0  0
  -24.8892  -32.2891   26.4817 H   0  0  0  0  0  0
  -25.8005  -30.8905   27.0205 H   0  0  0  0  0  0
  -26.2948  -29.6710   24.1239 H   0  0  0  0  0  0
  -27.4009  -29.7249   25.4765 H   0  0  0  0  0  0
  -27.8844  -30.4232   23.9496 H   0  0  0  0  0  0
  -27.2640  -33.3615   26.2055 H   0  0  0  0  0  0
  -28.3872  -32.6863   25.0337 H   0  0  0  0  0  0
  -28.0695  -31.8445   26.5432 H   0  0  0  0  0  0
  -28.2578  -38.0105   24.7530 H   0  0  0  0  0  0
  -28.1096  -36.2636   24.6260 H   0  0  0  0  0  0
  -27.2303  -37.1397   25.8867 H   0  0  0  0  0  0
  -20.9409  -29.8754   21.6832 H   0  0  0  0  0  0
  -26.0158  -38.2832   24.1425 H   0  0  0  0  0  0
  -30.0683  -18.5377   16.6565 H   0  0  0  0  0  0
  -29.6264  -20.6337   17.6861 H   0  0  0  0  0  0
  -29.3260  -18.6594   21.5335 H   0  0  0  0  0  0
  -27.8327  -23.5576   22.0754 H   0  0  0  0  0  0
  -29.5652  -23.8463   22.0151 H   0  0  0  0  0  0
  -29.7075  -22.5966   18.6329 H   0  0  0  0  0  0
  -27.9788  -22.2677   18.6462 H   0  0  0  0  0  0
  -28.2115  -21.2328   22.0902 H   0  0  0  0  0  0
  -29.9433  -21.5253   22.0745 H   0  0  0  0  0  0
  -30.0075  -16.2978   16.5371 H   0  0  0  0  0  0
  -29.2534  -15.4191   17.8449 H   0  0  0  0  0  0
  -31.0329  -15.5705   17.7546 H   0  0  0  0  0  0
  -29.2861  -24.8148   17.6125 H   0  0  0  0  0  0
  -28.3660  -26.3015   17.7805 H   0  0  0  0  0  0
  -27.5211  -24.7568   17.6086 H   0  0  0  0  0  0
  -28.9469  -15.7974   21.0842 H   0  0  0  0  0  0
  1 25  1  0  0  0
  1 30  2  0  0  0
  1 85  1  0  0  0
  2  3  1  0  0  0
  2 25  1  0  0  0
  2 86  1  0  0  0
  2 87  1  0  0  0
  3  4  1  0  0  0
  3 88  1  0  0  0
  3 89  1  0  0  0
  4  5  1  0  0  0
  4 90  1  0  0  0
  4 91  1  0  0  0
  5  6  1  0  0  0
  5 26  1  0  0  0
  5 92  1  0  0  0
  6 25  1  0  0  0
  6 93  1  0  0  0
  6 94  1  0  0  0
  7  8  2  0  0  0
  7 26  1  0  0  0
  7 29  1  0  0  0
  8  9  1  0  0  0
  8 22  1  0  0  0
  9 10  1  0  0  0
  9 27  2  0  0  0
 10 11  2  0  0  0
 10 15  1  0  0  0
 11 12  1  0  0  0
 11 95  1  0  0  0
 12 13  2  0  0  0
 12 96  1  0  0  0
 13 14  1  0  0  0
 13 31  1  0  0  0
 14 15  2  0  0  0
 14 97  1  0  0  0
 15 98  1  0  0  0
 16 17  2  0  0  0
 16 21  1  0  0  0
 16 31  1  0  0  0
 17 18  1  0  0  0
 17 99  1  0  0  0
 18 19  2  0  0  0
 18100  1  0  0  0
 19 20  1  0  0  0
 19 24  1  0  0  0
 20 21  2  0  0  0
 20101  1  0  0  0
 21 23  1  0  0  0
 22 28  1  0  0  0
 22 32  2  0  0  0
 26 27  1  0  0  0
 28102  1  0  0  0
 28103  1  0  0  0
 29104  1  0  0  0
 29105  1  0  0  0
 33 34  1  0  0  0
 33 66  1  0  0  0
 33 70  2  0  0  0
 34 36  1  0  0  0
 34 59  1  0  0  0
 34106  1  0  0  0
 35 44  2  0  0  0
 35 45  1  0  0  0
 35 68  1  0  0  0
 36 56  1  0  0  0
 36107  1  0  0  0
 37 39  1  0  0  0
 37 47  1  0  0  0
 37 66  1  0  0  0
 37108  1  0  0  0
 38 43  2  0  0  0
 38 46  1  0  0  0
 38 47  1  0  0  0
 39 64  1  0  0  0
 39 67  2  0  0  0
 40 52  1  0  0  0
 40 53  2  0  0  0
 40 58  1  0  0  0
 41109  1  0  0  0
 41110  1  0  0  0
 41111  1  0  0  0
 41 48  1  0  0  0
 42 43  1  0  0  0
 42 66  1  0  0  0
 42112  1  0  0  0
 42113  1  0  0  0
 43 44  1  0  0  0
 44114  1  0  0  0
 45 46  2  0  0  0
 45115  1  0  0  0
 46116  1  0  0  0
 47117  1  0  0  0
 47118  1  0  0  0
 48 56  1  0  0  0
 48 65  1  0  0  0
 48119  1  0  0  0
 49 50  1  0  0  0
 49 53  1  0  0  0
 49 64  1  0  0  0
 49120  1  0  0  0
 50 51  1  0  0  0
 50121  1  0  0  0
 50122  1  0  0  0
 51 52  1  0  0  0
 51123  1  0  0  0
 51124  1  0  0  0
 52125  1  0  0  0
 52126  1  0  0  0
 53 54  1  0  0  0
 54 55  2  0  0  0
 54127  1  0  0  0
 55 57  1  0  0  0
 55128  1  0  0  0
 56 69  2  0  0  0
 57 58  2  0  0  0
 57129  1  0  0  0
 58130  1  0  0  0
 59 60  1  0  0  0
 59 61  1  0  0  0
 59 62  1  0  0  0
 60131  1  0  0  0
 60132  1  0  0  0
 60133  1  0  0  0
 61134  1  0  0  0
 61135  1  0  0  0
 61136  1  0  0  0
 62137  1  0  0  0
 62138  1  0  0  0
 62139  1  0  0  0
 63 65  1  0  0  0
 63140  1  0  0  0
 63141  1  0  0  0
 63142  1  0  0  0
 64143  1  0  0  0
 65144  1  0  0  0
 68 78  1  0  0  0
 71 72  2  0  0  0
 71 74  1  0  0  0
 71145  1  0  0  0
 72 75  1  0  0  0
 72146  1  0  0  0
 73 75  2  0  0  0
 73 76  1  0  0  0
 73147  1  0  0  0
 74 76  2  0  0  0
 74 82  1  0  0  0
 75 84  1  0  0  0
 76 85  1  0  0  0
 77 78  2  0  0  0
 77 79  1  0  0  0
 77 80  1  0  0  0
 78 83  1  0  0  0
 79 81  1  0  0  0
 79148  1  0  0  0
 79149  1  0  0  0
 80 84  1  0  0  0
 80150  1  0  0  0
 80151  1  0  0  0
 81 84  1  0  0  0
 81152  1  0  0  0
 81153  1  0  0  0
 82154  1  0  0  0
 82155  1  0  0  0
 82156  1  0  0  0
 83157  1  0  0  0
 83158  1  0  0  0
 83159  1  0  0  0
 85160  1  0  0  0
M  ISO  4   1 100  68 101  78 101  85 100
M  END
> <chiral flag>
0

> <version>
0

> <s_m_source_file>
/data/baiqing/PycharmProjects/Reinvent-master-3.2/result/LINK_invent/BTK/process_docking_weight1_custom_product_contain_oxygen_bond_distance_aromatic_linkinvent_7_9_3/rearranged_h_0147.sdf

> <i_m_source_file_index>
83

> <r_mmod_Potential_Energy-OPLS-2005>
323.723022460938

> <r_mmod_Stretch_Energy-OPLS-2005>
147.322616577148

> <r_mmod_Bend_Energy-OPLS-2005>
223.923278808594

> <r_mmod_Torsional_Energy-OPLS-2005>
269.609893798828

> <r_mmod_Improper_Torsional_Energy-OPLS-2005>
5.89680480957031

> <r_mmod_Van_der_Waal_Energy-OPLS-2005>
141.260543823242

> <r_mmod_Electrostatic_Energy-OPLS-2005>
-357.622772216797

> <r_mmod_Solvation_Energy-OPLS-2005>
-224.120941162109

> <b_mmod_Minimization_Converged-OPLS-2005>
0

> <r_mmod_RMS_Derivative-OPLS-2005>
0.935478389263153

$$$$
84
                    3D
 Structure written by MMmdl.
163171  0  0  1  0            999 V2000
  -29.4606  -17.3731   20.5848 C   0  0  0  0  0  0
  -30.1418  -14.4948   19.6390 C   0  0  0  0  0  0
  -29.6070  -13.3828   18.5794 C   0  0  0  0  0  0
  -28.3402  -12.6334   18.9976 C   0  0  0  0  0  0
  -27.5551  -13.6058   19.8815 C   0  0  2  0  0  0
  -28.3699  -14.5274   20.9171 C   0  0  0  0  0  0
  -25.1781  -13.8799   20.6043 C   0  0  0  0  0  0
  -24.1527  -13.0490   20.9331 C   0  0  0  0  0  0
  -24.6722  -11.7179   20.8663 C   0  0  0  0  0  0
  -23.9491  -10.4368   21.0220 C   0  0  0  0  0  0
  -24.3898   -9.4276   21.9074 C   0  0  0  0  0  0
  -23.6472   -8.2351   22.0727 C   0  0  0  0  0  0
  -22.4433   -8.0381   21.3540 C   0  0  0  0  0  0
  -22.0142   -9.0365   20.4611 C   0  0  0  0  0  0
  -22.7585  -10.2187   20.2944 C   0  0  0  0  0  0
  -21.6922   -6.0812   22.5287 C   0  0  0  0  0  0
  -21.4070   -6.5689   23.8227 C   0  0  0  0  0  0
  -21.3680   -5.6822   24.9174 C   0  0  0  0  0  0
  -21.6043   -4.3084   24.7209 C   0  0  0  0  0  0
  -21.8806   -3.8192   23.4322 C   0  0  0  0  0  0
  -21.9210   -4.7026   22.3391 C   0  0  0  0  0  0
  -22.7434  -13.4905   21.1925 C   0  0  0  0  0  0
  -22.1664   -4.2209   21.0966 F   0  0  0  0  0  0
  -21.5617   -3.4554   25.7712 F   0  0  0  0  0  0
  -29.1937  -15.7154   20.2820 N   0  0  0  0  0  0
  -26.2749  -13.0829   20.3742 N   0  0  0  0  0  0
  -25.9816  -11.7556   20.5644 N   0  0  0  0  0  0
  -22.0262  -12.7795   22.0529 N   0  0  0  0  0  0
  -25.2529  -15.2612   20.4462 N   0  0  0  0  0  0
  -30.7196  -17.0519   20.6030 O   0  0  0  0  0  0
  -21.6737   -6.8997   21.4269 O   0  0  0  0  0  0
  -22.2932  -14.5144   20.6776 O   0  0  0  0  0  0
  -25.0046  -31.7812   23.2129 C   0  0  0  0  0  0
  -26.1405  -32.5086   23.8995 C   0  0  1  0  0  0
  -25.7582  -25.5512   19.9980 C   0  0  0  0  0  0
  -25.7107  -33.8677   24.2526 N   0  0  0  0  0  0
  -24.2504  -30.0853   21.7715 C   0  0  2  0  0  0
  -25.4131  -29.1810   19.5040 C   0  0  0  0  0  0
  -24.0033  -28.5872   22.7385 C   0  0  0  0  0  0
  -18.1360  -27.9202   22.6740 C   0  0  0  0  0  0
  -24.1571  -36.7406   23.2500 C   0  0  0  0  0  0
  -26.6331  -30.3870   21.5530 C   0  0  0  0  0  0
  -26.6768  -29.0310   20.6193 C   0  0  0  0  0  0
  -27.3191  -27.3722   21.0545 C   0  0  0  0  0  0
  -24.7160  -26.2694   18.8459 C   0  0  0  0  0  0
  -24.6428  -27.9579   18.5657 C   0  0  0  0  0  0
  -24.4126  -30.2234   20.1128 C   0  0  0  0  0  0
  -25.4123  -36.3112   24.0333 C   0  0  1  0  0  0
  -20.8044  -27.3653   22.8770 C   0  0  2  0  0  0
  -20.4635  -26.1179   22.2178 C   0  0  0  0  0  0
  -19.4113  -26.4071   21.2024 C   0  0  0  0  0  0
  -18.1085  -26.5908   21.9720 C   0  0  0  0  0  0
  -19.4069  -28.4220   23.1070 C   0  0  0  0  0  0
  -19.1340  -29.6162   23.9299 C   0  0  0  0  0  0
  -17.9090  -30.3285   24.0692 C   0  0  0  0  0  0
  -25.9328  -34.9544   23.5071 C   0  0  0  0  0  0
  -16.7484  -29.7794   23.5270 C   0  0  0  0  0  0
  -16.8740  -28.5513   22.8669 C   0  0  0  0  0  0
  -26.5976  -31.7205   25.1782 C   0  0  0  0  0  0
  -25.4972  -31.4776   26.2581 C   0  0  0  0  0  0
  -27.2607  -30.3752   24.8189 C   0  0  0  0  0  0
  -27.7410  -32.5053   25.8439 C   0  0  0  0  0  0
  -27.5627  -37.1997   24.8436 C   0  0  0  0  0  0
  -22.5597  -27.4354   22.5735 N   0  0  0  0  0  0
  -26.4199  -37.3884   23.9571 N   0  0  0  0  0  0
  -25.3234  -30.8358   22.2423 N   0  0  0  0  0  0
  -24.8940  -28.4795   23.5001 O   0  0  0  0  0  0
  -24.5335  -25.2431   21.2908 O   0  0  0  0  0  0
  -26.5428  -34.8984   22.4364 O   0  0  0  0  0  0
  -23.8518  -32.0875   23.6081 O   0  0  0  0  0  0
  -27.9300  -26.0335   19.0066 C   0  0  0  0  0  0
  -28.1404  -24.7075   19.9226 C   0  0  0  0  0  0
  -26.8076  -27.2208   18.9753 C   0  0  0  0  0  0
  -26.5109  -25.4873   22.0738 C   0  0  0  0  0  0
  -27.4942  -23.9379   21.1797 C   0  0  0  0  0  0
  -25.1559  -27.3073   20.9517 C   0  0  0  0  0  0
  -21.9845  -29.3365   23.9066 C   0  0  0  0  0  0
  -23.8934  -28.1273   25.9103 C   0  0  0  0  0  0
  -22.0305  -26.6435   25.6841 C   0  0  0  0  0  0
  -28.1849  -21.4942   21.2478 C   0  0  0  0  0  0
  -21.9628  -29.3044   21.5686 C   0  0  0  0  0  0
  -24.1095  -25.8921   23.3094 C   0  0  0  0  0  0
  -22.9659  -27.5116   24.7726 C   0  0  0  0  0  0
  -23.3346  -28.0001   20.5464 N   0  0  0  0  0  0
  -28.6502  -19.1891   20.7132 N   0  0  0  0  0  0
  -21.9372  -30.3500   24.5922 O   0  0  0  0  0  0
  -30.9093  -15.0368   19.0797 H   0  0  0  0  0  0
  -30.7334  -14.0365   20.4352 H   0  0  0  0  0  0
  -30.4169  -12.6907   18.3333 H   0  0  0  0  0  0
  -29.3971  -13.9410   17.6669 H   0  0  0  0  0  0
  -28.6074  -11.7409   19.5590 H   0  0  0  0  0  0
  -27.7655  -12.3341   18.1213 H   0  0  0  0  0  0
  -27.2417  -14.3444   19.1408 H   0  0  0  0  0  0
  -28.9479  -13.9420   21.6349 H   0  0  0  0  0  0
  -27.6503  -15.0498   21.5436 H   0  0  0  0  0  0
  -25.3045   -9.5719   22.4647 H   0  0  0  0  0  0
  -24.0155   -7.4760   22.7480 H   0  0  0  0  0  0
  -21.1066   -8.8932   19.8917 H   0  0  0  0  0  0
  -22.4069  -10.9696   19.6009 H   0  0  0  0  0  0
  -21.2090   -7.6199   23.9750 H   0  0  0  0  0  0
  -21.1511   -6.0545   25.9081 H   0  0  0  0  0  0
  -22.0555   -2.7651   23.2808 H   0  0  0  0  0  0
  -22.4087  -11.9579   22.4982 H   0  0  0  0  0  0
  -21.0782  -13.0539   22.2696 H   0  0  0  0  0  0
  -24.4159  -15.8307   20.5225 H   0  0  0  0  0  0
  -26.0664  -15.7862   20.1592 H   0  0  0  0  0  0
  -26.9786  -32.5940   23.2136 H   0  0  0  0  0  0
  -25.2063  -33.9795   25.1156 H   0  0  0  0  0  0
  -23.4827  -30.8407   21.8613 H   0  0  0  0  0  0
  -23.3769  -35.9771   23.2732 H   0  0  0  0  0  0
  -24.3792  -36.9517   22.2036 H   0  0  0  0  0  0
  -23.7276  -37.6486   23.6669 H   0  0  0  0  0  0
  -27.0136  -31.2324   20.9655 H   0  0  0  0  0  0
  -27.3996  -30.2003   22.2788 H   0  0  0  0  0  0
  -28.0347  -27.2747   21.8636 H   0  0  0  0  0  0
  -23.9897  -25.6259   18.3575 H   0  0  0  0  0  0
  -23.8524  -28.2743   17.9027 H   0  0  0  0  0  0
  -24.7748  -31.2249   19.8464 H   0  0  0  0  0  0
  -23.4636  -30.2140   19.5833 H   0  0  0  0  0  0
  -25.1129  -36.1904   25.0790 H   0  0  0  0  0  0
  -20.6087  -27.0407   23.8655 H   0  0  0  0  0  0
  -20.0524  -25.3941   22.9275 H   0  0  0  0  0  0
  -21.3153  -25.5807   21.8049 H   0  0  0  0  0  0
  -19.3372  -25.5769   20.4936 H   0  0  0  0  0  0
  -19.6637  -27.2981   20.6209 H   0  0  0  0  0  0
  -17.2551  -26.5196   21.2981 H   0  0  0  0  0  0
  -17.9478  -25.7716   22.6826 H   0  0  0  0  0  0
  -19.7872  -29.9966   24.6789 H   0  0  0  0  0  0
  -17.8469  -31.2125   24.6900 H   0  0  0  0  0  0
  -15.7755  -30.2430   23.6416 H   0  0  0  0  0  0
  -15.9768  -28.0752   22.5019 H   0  0  0  0  0  0
  -25.4748  -30.4431   26.6128 H   0  0  0  0  0  0
  -24.4934  -31.6940   25.9199 H   0  0  0  0  0  0
  -25.6447  -32.1427   27.1209 H   0  0  0  0  0  0
  -26.5980  -29.6501   24.3903 H   0  0  0  0  0  0
  -27.6645  -29.9002   25.7149 H   0  0  0  0  0  0
  -28.1167  -30.5284   24.1613 H   0  0  0  0  0  0
  -27.4286  -33.4857   26.1994 H   0  0  0  0  0  0
  -28.5760  -32.6716   25.1569 H   0  0  0  0  0  0
  -28.1200  -31.9710   26.7204 H   0  0  0  0  0  0
  -28.2196  -38.0702   24.7747 H   0  0  0  0  0  0
  -28.1434  -36.3190   24.5607 H   0  0  0  0  0  0
  -27.2451  -37.1036   25.8843 H   0  0  0  0  0  0
  -22.6749  -27.3665   21.5360 H   0  0  0  0  0  0
  -25.9901  -38.2842   24.1598 H   0  0  0  0  0  0
  -28.6448  -26.1383   18.2035 H   0  0  0  0  0  0
  -28.9287  -24.1118   19.4733 H   0  0  0  0  0  0
  -26.8670  -27.8251   18.0666 H   0  0  0  0  0  0
  -26.2914  -25.0188   23.0034 H   0  0  0  0  0  0
  -24.1549  -29.1275   25.5704 H   0  0  0  0  0  0
  -24.8137  -27.5538   26.0108 H   0  0  0  0  0  0
  -23.4766  -28.2518   26.9239 H   0  0  0  0  0  0
  -22.5971  -25.9311   26.2726 H   0  0  0  0  0  0
  -21.4678  -25.8850   25.1487 H   0  0  0  0  0  0
  -21.3412  -27.2336   26.3033 H   0  0  0  0  0  0
  -27.2177  -21.2100   21.6571 H   0  0  0  0  0  0
  -28.9023  -21.5781   22.0600 H   0  0  0  0  0  0
  -20.9860  -28.9435   21.2644 H   0  0  0  0  0  0
  -21.8614  -30.2857   21.1133 H   0  0  0  0  0  0
  -23.6829  -24.9766   23.7152 H   0  0  0  0  0  0
  -24.9844  -25.9472   23.9363 H   0  0  0  0  0  0
  -23.4208  -28.3033   19.5837 H   0  0  0  0  0  0
  -27.8091  -18.9790   20.1781 H   0  0  0  0  0  0
  1 25  1  0  0  0
  1 30  2  0  0  0
  1 85  1  0  0  0
  2  3  1  0  0  0
  2 25  1  0  0  0
  2 87  1  0  0  0
  2 88  1  0  0  0
  3  4  1  0  0  0
  3 89  1  0  0  0
  3 90  1  0  0  0
  4  5  1  0  0  0
  4 91  1  0  0  0
  4 92  1  0  0  0
  5  6  1  0  0  0
  5 26  1  0  0  0
  5 93  1  0  0  0
  6 25  1  0  0  0
  6 94  1  0  0  0
  6 95  1  0  0  0
  7  8  2  0  0  0
  7 26  1  0  0  0
  7 29  1  0  0  0
  8  9  1  0  0  0
  8 22  1  0  0  0
  9 10  1  0  0  0
  9 27  2  0  0  0
 10 11  2  0  0  0
 10 15  1  0  0  0
 11 12  1  0  0  0
 11 96  1  0  0  0
 12 13  2  0  0  0
 12 97  1  0  0  0
 13 14  1  0  0  0
 13 31  1  0  0  0
 14 15  2  0  0  0
 14 98  1  0  0  0
 15 99  1  0  0  0
 16 17  2  0  0  0
 16 21  1  0  0  0
 16 31  1  0  0  0
 17 18  1  0  0  0
 17100  1  0  0  0
 18 19  2  0  0  0
 18101  1  0  0  0
 19 20  1  0  0  0
 19 24  1  0  0  0
 20 21  2  0  0  0
 20102  1  0  0  0
 21 23  1  0  0  0
 22 28  1  0  0  0
 22 32  2  0  0  0
 26 27  1  0  0  0
 28103  1  0  0  0
 28104  1  0  0  0
 29105  1  0  0  0
 29106  1  0  0  0
 33 34  1  0  0  0
 33 66  1  0  0  0
 33 70  2  0  0  0
 34 36  1  0  0  0
 34 59  1  0  0  0
 34107  1  0  0  0
 35 44  2  0  0  0
 35 45  1  0  0  0
 35 68  1  0  0  0
 36 56  1  0  0  0
 36108  1  0  0  0
 37 39  1  0  0  0
 37 47  1  0  0  0
 37 66  1  0  0  0
 37109  1  0  0  0
 38 43  2  0  0  0
 38 46  1  0  0  0
 38 47  1  0  0  0
 39 64  1  0  0  0
 39 67  2  0  0  0
 40 52  1  0  0  0
 40 53  2  0  0  0
 40 58  1  0  0  0
 41110  1  0  0  0
 41111  1  0  0  0
 41112  1  0  0  0
 41 48  1  0  0  0
 42 43  1  0  0  0
 42 66  1  0  0  0
 42113  1  0  0  0
 42114  1  0  0  0
 43 44  1  0  0  0
 44115  1  0  0  0
 45 46  2  0  0  0
 45116  1  0  0  0
 46117  1  0  0  0
 47118  1  0  0  0
 47119  1  0  0  0
 48 56  1  0  0  0
 48 65  1  0  0  0
 48120  1  0  0  0
 49 50  1  0  0  0
 49 53  1  0  0  0
 49 64  1  0  0  0
 49121  1  0  0  0
 50 51  1  0  0  0
 50122  1  0  0  0
 50123  1  0  0  0
 51 52  1  0  0  0
 51124  1  0  0  0
 51125  1  0  0  0
 52126  1  0  0  0
 52127  1  0  0  0
 53 54  1  0  0  0
 54 55  2  0  0  0
 54128  1  0  0  0
 55 57  1  0  0  0
 55129  1  0  0  0
 56 69  2  0  0  0
 57 58  2  0  0  0
 57130  1  0  0  0
 58131  1  0  0  0
 59 60  1  0  0  0
 59 61  1  0  0  0
 59 62  1  0  0  0
 60132  1  0  0  0
 60133  1  0  0  0
 60134  1  0  0  0
 61135  1  0  0  0
 61136  1  0  0  0
 61137  1  0  0  0
 62138  1  0  0  0
 62139  1  0  0  0
 62140  1  0  0  0
 63 65  1  0  0  0
 63141  1  0  0  0
 63142  1  0  0  0
 63143  1  0  0  0
 64144  1  0  0  0
 65145  1  0  0  0
 68 82  1  0  0  0
 71 72  2  0  0  0
 71 73  1  0  0  0
 71146  1  0  0  0
 72 75  1  0  0  0
 72147  1  0  0  0
 73 76  2  0  0  0
 73148  1  0  0  0
 74 75  2  0  0  0
 74 76  1  0  0  0
 74149  1  0  0  0
 75 80  1  0  0  0
 76 84  1  0  0  0
 77 81  1  0  0  0
 77 83  1  0  0  0
 77 86  2  0  0  0
 78150  1  0  0  0
 78151  1  0  0  0
 78152  1  0  0  0
 78 83  1  0  0  0
 79 83  1  0  0  0
 79153  1  0  0  0
 79154  1  0  0  0
 79155  1  0  0  0
 80 85  1  0  0  0
 80156  1  0  0  0
 80157  1  0  0  0
 81 84  1  0  0  0
 81158  1  0  0  0
 81159  1  0  0  0
 82 83  1  0  0  0
 82160  1  0  0  0
 82161  1  0  0  0
 84162  1  0  0  0
 85163  1  0  0  0
M  ISO  4   1 100  68 101  82 101  85 100
M  END
> <chiral flag>
0

> <version>
0

> <s_m_source_file>
/data/baiqing/PycharmProjects/Reinvent-master-3.2/result/LINK_invent/BTK/process_docking_weight1_custom_product_contain_oxygen_bond_distance_aromatic_linkinvent_7_9_3/rearranged_h_0147.sdf

> <i_m_source_file_index>
84

> <r_mmod_Potential_Energy-OPLS-2005>
38144.8671875

> <r_mmod_Stretch_Energy-OPLS-2005>
20616.09375

> <r_mmod_Bend_Energy-OPLS-2005>
2131.8134765625

> <r_mmod_Torsional_Energy-OPLS-2005>
710.037719726562

> <r_mmod_Improper_Torsional_Energy-OPLS-2005>
102.227325439453

> <r_mmod_Van_der_Waal_Energy-OPLS-2005>
6898.70849609375

> <r_mmod_Electrostatic_Energy-OPLS-2005>
-413.469696044922

> <r_mmod_Solvation_Energy-OPLS-2005>
-224.226852416992

> <b_mmod_Minimization_Converged-OPLS-2005>
0

> <r_mmod_RMS_Derivative-OPLS-2005>
37.9164237976074

$$$$
85
                    3D
 Structure written by MMmdl.
159168  0  0  1  0            999 V2000
  -30.6888  -14.4458   20.5936 C   0  0  0  0  0  0
  -30.4292  -12.2968   19.4156 C   0  0  0  0  0  0
  -29.4966  -12.5126   18.2049 C   0  0  0  0  0  0
  -28.0159  -12.3732   18.6150 C   0  0  0  0  0  0
  -27.6653  -13.2003   19.8806 C   0  0  2  0  0  0
  -28.7036  -12.9475   20.9971 C   0  0  0  0  0  0
  -25.2604  -13.8147   20.5682 C   0  0  0  0  0  0
  -24.1844  -13.0431   20.9171 C   0  0  0  0  0  0
  -24.6389  -11.6896   20.8729 C   0  0  0  0  0  0
  -23.9047  -10.4293   21.0403 C   0  0  0  0  0  0
  -24.3605   -9.4217   21.9184 C   0  0  0  0  0  0
  -23.6287   -8.2247   22.0754 C   0  0  0  0  0  0
  -22.4270   -8.0282   21.3541 C   0  0  0  0  0  0
  -21.9900   -9.0253   20.4644 C   0  0  0  0  0  0
  -22.7220  -10.2136   20.3056 C   0  0  0  0  0  0
  -21.6849   -6.0738   22.5281 C   0  0  0  0  0  0
  -21.4011   -6.5640   23.8216 C   0  0  0  0  0  0
  -21.3661   -5.6793   24.9178 C   0  0  0  0  0  0
  -21.6043   -4.3057   24.7227 C   0  0  0  0  0  0
  -21.8818   -3.8152   23.4346 C   0  0  0  0  0  0
  -21.9192   -4.6968   22.3404 C   0  0  0  0  0  0
  -22.7873  -13.5240   21.1839 C   0  0  0  0  0  0
  -22.1659   -4.2155   21.0981 F   0  0  0  0  0  0
  -21.5633   -3.4540   25.7736 F   0  0  0  0  0  0
  -30.0407  -13.2585   20.4573 N   0  0  0  0  0  0
  -26.3037  -12.9306   20.3376 N   0  0  0  0  0  0
  -25.9313  -11.6472   20.5759 N   0  0  0  0  0  0
  -22.0505  -12.8240   22.0398 N   0  0  0  0  0  0
  -25.4328  -15.1865   20.4103 N   0  0  0  0  0  0
  -31.8015  -14.6687   20.1037 O   0  0  0  0  0  0
  -21.6633   -6.8878   21.4243 O   0  0  0  0  0  0
  -22.3565  -14.5552   20.6692 O   0  0  0  0  0  0
  -24.6120  -31.8697   23.2108 C   0  0  0  0  0  0
  -25.9023  -32.4826   23.8398 C   0  0  1  0  0  0
  -27.2383  -27.4449   20.0814 C   0  0  0  0  0  0
  -25.5890  -33.8628   24.2324 N   0  0  0  0  0  0
  -23.3990  -30.4923   21.5525 C   0  0  2  0  0  0
  -24.8436  -28.9580   20.1173 C   0  0  0  0  0  0
  -22.7391  -29.4664   22.5014 C   0  0  0  0  0  0
  -18.0264  -28.1381   22.8490 C   0  0  0  0  0  0
  -24.1486  -36.7323   23.2641 C   0  0  0  0  0  0
  -25.9267  -30.8345   21.3644 C   0  0  0  0  0  0
  -26.0021  -29.4685   20.7140 C   0  0  0  0  0  0
  -27.1969  -28.7160   20.6990 C   0  0  0  0  0  0
  -26.0535  -26.9416   19.4917 C   0  0  0  0  0  0
  -24.8630  -27.6919   19.5093 C   0  0  0  0  0  0
  -23.6058  -29.8240   20.1672 C   0  0  0  0  0  0
  -25.4107  -36.3117   24.0337 C   0  0  1  0  0  0
  -20.5844  -28.3663   23.1331 C   0  0  2  0  0  0
  -20.6754  -26.9402   22.5428 C   0  0  0  0  0  0
  -19.5737  -26.6388   21.5220 C   0  0  0  0  0  0
  -18.1915  -26.7926   22.1623 C   0  0  0  0  0  0
  -19.1509  -28.8840   23.2913 C   0  0  0  0  0  0
  -18.9440  -30.1448   23.8921 C   0  0  0  0  0  0
  -17.6445  -30.6587   24.0571 C   0  0  0  0  0  0
  -25.9034  -34.9483   23.5128 C   0  0  0  0  0  0
  -16.5338  -29.9090   23.6322 C   0  0  0  0  0  0
  -16.7256  -28.6508   23.0341 C   0  0  0  0  0  0
  -26.4456  -31.6595   25.0719 C   0  0  0  0  0  0
  -25.3722  -31.3700   26.1471 C   0  0  0  0  0  0
  -27.0284  -30.3031   24.6096 C   0  0  0  0  0  0
  -27.6041  -32.4305   25.7480 C   0  0  0  0  0  0
  -27.5581  -37.1811   24.8459 C   0  0  0  0  0  0
  -21.4123  -29.3037   22.3747 N   0  0  0  0  0  0
  -26.4290  -37.3799   23.9412 N   0  0  0  0  0  0
  -24.6640  -31.0799   22.1012 N   0  0  0  0  0  0
  -23.4175  -28.8212   23.3051 O   0  0  0  0  0  0
  -28.4403  -26.7636   20.0805 O   0  0  0  0  0  0
  -26.5603  -34.8927   22.4693 O   0  0  0  0  0  0
  -23.5312  -32.1458   23.7502 O   0  0  0  0  0  0
  -30.6462  -18.9256   20.4659 C   0  0  0  0  0  0
  -31.0396  -17.5903   20.7895 C   0  0  0  0  0  0
  -29.2868  -19.0829   20.3573 C   0  0  0  0  0  0
  -29.9820  -16.7232   20.9374 C   0  0  0  0  0  0
  -28.1981  -24.3199   20.2842 C   0  0  0  0  0  0
  -29.2726  -21.3189   19.1008 C   0  0  0  0  0  0
  -27.8292  -21.0362   21.1251 C   0  0  0  0  0  0
  -28.3319  -22.4060   18.5390 C   0  0  0  0  0  0
  -26.8485  -22.1135   20.6112 C   0  0  0  0  0  0
  -28.4923  -20.2967   19.9504 C   0  0  2  0  0  0
  -27.4803  -23.1264   19.6176 C   0  0  1  0  0  0
  -28.5515  -25.5159   19.3815 C   0  0  0  0  0  0
  -29.9737  -15.3951   21.2222 N   0  0  0  0  0  0
  -28.4670  -24.3281   21.4902 O   0  0  0  0  0  0
  -28.4745  -17.5781   20.7130 S   0  0  0  0  0  0
  -31.4727  -12.4076   19.1149 H   0  0  0  0  0  0
  -30.3357  -11.2783   19.7950 H   0  0  0  0  0  0
  -29.7344  -11.7984   17.4156 H   0  0  0  0  0  0
  -29.6680  -13.5040   17.7814 H   0  0  0  0  0  0
  -27.8209  -11.3160   18.7983 H   0  0  0  0  0  0
  -27.3677  -12.6611   17.7869 H   0  0  0  0  0  0
  -27.7191  -14.2527   19.6013 H   0  0  0  0  0  0
  -28.6742  -11.9025   21.3083 H   0  0  0  0  0  0
  -28.4585  -13.5162   21.8949 H   0  0  0  0  0  0
  -25.2751   -9.5696   22.4754 H   0  0  0  0  0  0
  -24.0006   -7.4636   22.7469 H   0  0  0  0  0  0
  -21.0833   -8.8761   19.8948 H   0  0  0  0  0  0
  -22.3677  -10.9670   19.6166 H   0  0  0  0  0  0
  -21.1997   -7.6149   23.9722 H   0  0  0  0  0  0
  -21.1485   -6.0522   25.9079 H   0  0  0  0  0  0
  -22.0595   -2.7610   23.2843 H   0  0  0  0  0  0
  -22.4102  -11.9892   22.4787 H   0  0  0  0  0  0
  -21.1129  -13.1281   22.2605 H   0  0  0  0  0  0
  -24.6654  -15.8405   20.5178 H   0  0  0  0  0  0
  -26.2872  -15.6266   20.0925 H   0  0  0  0  0  0
  -26.7096  -32.5539   23.1165 H   0  0  0  0  0  0
  -24.9998  -33.9806   25.0435 H   0  0  0  0  0  0
  -22.6868  -31.3083   21.4135 H   0  0  0  0  0  0
  -23.3745  -35.9656   23.3301 H   0  0  0  0  0  0
  -24.3583  -36.8943   22.2056 H   0  0  0  0  0  0
  -23.7240  -37.6530   23.6651 H   0  0  0  0  0  0
  -26.0372  -31.5991   20.5948 H   0  0  0  0  0  0
  -26.8162  -30.8882   21.9807 H   0  0  0  0  0  0
  -28.0931  -29.1103   21.1569 H   0  0  0  0  0  0
  -26.0163  -25.9765   19.0105 H   0  0  0  0  0  0
  -23.9701  -27.2912   19.0496 H   0  0  0  0  0  0
  -23.7122  -30.5979   19.4066 H   0  0  0  0  0  0
  -22.7299  -29.2428   19.8729 H   0  0  0  0  0  0
  -25.1281  -36.1981   25.0829 H   0  0  0  0  0  0
  -20.9935  -28.3228   24.1451 H   0  0  0  0  0  0
  -20.5655  -26.2277   23.3616 H   0  0  0  0  0  0
  -21.6628  -26.7453   22.1223 H   0  0  0  0  0  0
  -19.6906  -25.6306   21.1237 H   0  0  0  0  0  0
  -19.6674  -27.3210   20.6759 H   0  0  0  0  0  0
  -17.4184  -26.6673   21.4029 H   0  0  0  0  0  0
  -18.0321  -26.0069   22.9019 H   0  0  0  0  0  0
  -19.7921  -30.7258   24.2299 H   0  0  0  0  0  0
  -17.5003  -31.6265   24.5180 H   0  0  0  0  0  0
  -15.5342  -30.3007   23.7640 H   0  0  0  0  0  0
  -15.8651  -28.0853   22.7032 H   0  0  0  0  0  0
  -24.5898  -30.7045   25.7807 H   0  0  0  0  0  0
  -24.8906  -32.2853   26.4917 H   0  0  0  0  0  0
  -25.8071  -30.8870   27.0229 H   0  0  0  0  0  0
  -26.2829  -29.6808   24.1130 H   0  0  0  0  0  0
  -27.4033  -29.7248   25.4555 H   0  0  0  0  0  0
  -27.8668  -30.4350   23.9253 H   0  0  0  0  0  0
  -27.2667  -33.3591   26.2095 H   0  0  0  0  0  0
  -28.3824  -32.6893   25.0289 H   0  0  0  0  0  0
  -28.0736  -31.8406   26.5364 H   0  0  0  0  0  0
  -28.2595  -38.0112   24.7514 H   0  0  0  0  0  0
  -28.1081  -36.2648   24.6261 H   0  0  0  0  0  0
  -27.2307  -37.1434   25.8865 H   0  0  0  0  0  0
  -20.9281  -29.8780   21.6988 H   0  0  0  0  0  0
  -26.0182  -38.2878   24.1413 H   0  0  0  0  0  0
  -31.3741  -19.7076   20.3011 H   0  0  0  0  0  0
  -32.0811  -17.3166   20.8893 H   0  0  0  0  0  0
  -30.0652  -21.7766   19.6943 H   0  0  0  0  0  0
  -29.7630  -20.8106   18.2692 H   0  0  0  0  0  0
  -27.2817  -20.3290   21.7493 H   0  0  0  0  0  0
  -28.5900  -21.4849   21.7644 H   0  0  0  0  0  0
  -27.6542  -21.9414   17.8219 H   0  0  0  0  0  0
  -28.9133  -23.1229   17.9579 H   0  0  0  0  0  0
  -26.3992  -22.6371   21.4564 H   0  0  0  0  0  0
  -26.0169  -21.6155   20.1107 H   0  0  0  0  0  0
  -27.6842  -19.9231   19.3187 H   0  0  0  0  0  0
  -26.6490  -23.5993   19.0934 H   0  0  0  0  0  0
  -27.9741  -25.5025   18.4581 H   0  0  0  0  0  0
  -29.5922  -25.3977   19.0810 H   0  0  0  0  0  0
  -29.1085  -15.0450   21.6052 H   0  0  0  0  0  0
  1 25  1  0  0  0
  1 30  2  0  0  0
  1 83  1  0  0  0
  2  3  1  0  0  0
  2 25  1  0  0  0
  2 86  1  0  0  0
  2 87  1  0  0  0
  3  4  1  0  0  0
  3 88  1  0  0  0
  3 89  1  0  0  0
  4  5  1  0  0  0
  4 90  1  0  0  0
  4 91  1  0  0  0
  5  6  1  0  0  0
  5 26  1  0  0  0
  5 92  1  0  0  0
  6 25  1  0  0  0
  6 93  1  0  0  0
  6 94  1  0  0  0
  7  8  2  0  0  0
  7 26  1  0  0  0
  7 29  1  0  0  0
  8  9  1  0  0  0
  8 22  1  0  0  0
  9 10  1  0  0  0
  9 27  2  0  0  0
 10 11  2  0  0  0
 10 15  1  0  0  0
 11 12  1  0  0  0
 11 95  1  0  0  0
 12 13  2  0  0  0
 12 96  1  0  0  0
 13 14  1  0  0  0
 13 31  1  0  0  0
 14 15  2  0  0  0
 14 97  1  0  0  0
 15 98  1  0  0  0
 16 17  2  0  0  0
 16 21  1  0  0  0
 16 31  1  0  0  0
 17 18  1  0  0  0
 17 99  1  0  0  0
 18 19  2  0  0  0
 18100  1  0  0  0
 19 20  1  0  0  0
 19 24  1  0  0  0
 20 21  2  0  0  0
 20101  1  0  0  0
 21 23  1  0  0  0
 22 28  1  0  0  0
 22 32  2  0  0  0
 26 27  1  0  0  0
 28102  1  0  0  0
 28103  1  0  0  0
 29104  1  0  0  0
 29105  1  0  0  0
 33 34  1  0  0  0
 33 66  1  0  0  0
 33 70  2  0  0  0
 34 36  1  0  0  0
 34 59  1  0  0  0
 34106  1  0  0  0
 35 44  2  0  0  0
 35 45  1  0  0  0
 35 68  1  0  0  0
 36 56  1  0  0  0
 36107  1  0  0  0
 37 39  1  0  0  0
 37 47  1  0  0  0
 37 66  1  0  0  0
 37108  1  0  0  0
 38 43  2  0  0  0
 38 46  1  0  0  0
 38 47  1  0  0  0
 39 64  1  0  0  0
 39 67  2  0  0  0
 40 52  1  0  0  0
 40 53  2  0  0  0
 40 58  1  0  0  0
 41109  1  0  0  0
 41110  1  0  0  0
 41111  1  0  0  0
 41 48  1  0  0  0
 42 43  1  0  0  0
 42 66  1  0  0  0
 42112  1  0  0  0
 42113  1  0  0  0
 43 44  1  0  0  0
 44114  1  0  0  0
 45 46  2  0  0  0
 45115  1  0  0  0
 46116  1  0  0  0
 47117  1  0  0  0
 47118  1  0  0  0
 48 56  1  0  0  0
 48 65  1  0  0  0
 48119  1  0  0  0
 49 50  1  0  0  0
 49 53  1  0  0  0
 49 64  1  0  0  0
 49120  1  0  0  0
 50 51  1  0  0  0
 50121  1  0  0  0
 50122  1  0  0  0
 51 52  1  0  0  0
 51123  1  0  0  0
 51124  1  0  0  0
 52125  1  0  0  0
 52126  1  0  0  0
 53 54  1  0  0  0
 54 55  2  0  0  0
 54127  1  0  0  0
 55 57  1  0  0  0
 55128  1  0  0  0
 56 69  2  0  0  0
 57 58  2  0  0  0
 57129  1  0  0  0
 58130  1  0  0  0
 59 60  1  0  0  0
 59 61  1  0  0  0
 59 62  1  0  0  0
 60131  1  0  0  0
 60132  1  0  0  0
 60133  1  0  0  0
 61134  1  0  0  0
 61135  1  0  0  0
 61136  1  0  0  0
 62137  1  0  0  0
 62138  1  0  0  0
 62139  1  0  0  0
 63 65  1  0  0  0
 63140  1  0  0  0
 63141  1  0  0  0
 63142  1  0  0  0
 64143  1  0  0  0
 65144  1  0  0  0
 68 82  1  0  0  0
 71 72  1  0  0  0
 71 73  2  0  0  0
 71145  1  0  0  0
 72 74  2  0  0  0
 72146  1  0  0  0
 73 85  1  0  0  0
 73 80  1  0  0  0
 74 83  1  0  0  0
 74 85  1  0  0  0
 75 82  1  0  0  0
 75 84  2  0  0  0
 75 81  1  0  0  0
 76 78  1  0  0  0
 76 80  1  0  0  0
 76147  1  0  0  0
 76148  1  0  0  0
 77 79  1  0  0  0
 77 80  1  0  0  0
 77149  1  0  0  0
 77150  1  0  0  0
 78 81  1  0  0  0
 78151  1  0  0  0
 78152  1  0  0  0
 79 81  1  0  0  0
 79153  1  0  0  0
 79154  1  0  0  0
 80155  1  0  0  0
 81156  1  0  0  0
 82157  1  0  0  0
 82158  1  0  0  0
 83159  1  0  0  0
M  ISO  4   1 100  68 101  82 101  83 100
M  END
> <chiral flag>
0

> <version>
0

> <s_m_source_file>
/data/baiqing/PycharmProjects/Reinvent-master-3.2/result/LINK_invent/BTK/process_docking_weight1_custom_product_contain_oxygen_bond_distance_aromatic_linkinvent_7_9_3/rearranged_h_0147.sdf

> <i_m_source_file_index>
85

> <r_mmod_Potential_Energy-OPLS-2005>
-32.3994026184082

> <r_mmod_Stretch_Energy-OPLS-2005>
34.5781555175781

> <r_mmod_Bend_Energy-OPLS-2005>
110.735466003418

> <r_mmod_Torsional_Energy-OPLS-2005>
215.780609130859

> <r_mmod_Improper_Torsional_Energy-OPLS-2005>
4.67540121078491

> <r_mmod_Van_der_Waal_Energy-OPLS-2005>
130.840759277344

> <r_mmod_Electrostatic_Energy-OPLS-2005>
-320.221527099609

> <r_mmod_Solvation_Energy-OPLS-2005>
-219.117446899414

> <b_mmod_Minimization_Converged-OPLS-2005>
0

> <r_mmod_RMS_Derivative-OPLS-2005>
1.05823254585266

$$$$
86
                    3D
 Structure written by MMmdl.
159167  0  0  1  0            999 V2000
  -30.7554  -14.5029   20.5610 C   0  0  0  0  0  0
  -30.4058  -12.3219   19.4531 C   0  0  0  0  0  0
  -29.4964  -12.5051   18.2224 C   0  0  0  0  0  0
  -28.0189  -12.3606   18.6332 C   0  0  0  0  0  0
  -27.6567  -13.2242   19.8711 C   0  0  2  0  0  0
  -28.7002  -13.0695   21.0028 C   0  0  0  0  0  0
  -25.2535  -13.8221   20.5733 C   0  0  0  0  0  0
  -24.1787  -13.0485   20.9232 C   0  0  0  0  0  0
  -24.6389  -11.6963   20.8789 C   0  0  0  0  0  0
  -23.9082  -10.4330   21.0409 C   0  0  0  0  0  0
  -24.3617   -9.4233   21.9186 C   0  0  0  0  0  0
  -23.6298   -8.2270   22.0761 C   0  0  0  0  0  0
  -22.4273   -8.0311   21.3559 C   0  0  0  0  0  0
  -21.9918   -9.0297   20.4656 C   0  0  0  0  0  0
  -22.7258  -10.2168   20.3061 C   0  0  0  0  0  0
  -21.6860   -6.0748   22.5279 C   0  0  0  0  0  0
  -21.4031   -6.5633   23.8232 C   0  0  0  0  0  0
  -21.3675   -5.6762   24.9177 C   0  0  0  0  0  0
  -21.6056   -4.3043   24.7206 C   0  0  0  0  0  0
  -21.8823   -3.8152   23.4335 C   0  0  0  0  0  0
  -21.9206   -4.6974   22.3397 C   0  0  0  0  0  0
  -22.7807  -13.5294   21.1882 C   0  0  0  0  0  0
  -22.1657   -4.2153   21.0977 F   0  0  0  0  0  0
  -21.5637   -3.4522   25.7734 F   0  0  0  0  0  0
  -30.0307  -13.3504   20.4422 N   0  0  0  0  0  0
  -26.2994  -12.9423   20.3379 N   0  0  0  0  0  0
  -25.9318  -11.6557   20.5810 N   0  0  0  0  0  0
  -22.0409  -12.8297   22.0403 N   0  0  0  0  0  0
  -25.4293  -15.1934   20.4172 N   0  0  0  0  0  0
  -31.8827  -14.6083   20.0740 O   0  0  0  0  0  0
  -21.6650   -6.8887   21.4244 O   0  0  0  0  0  0
  -22.3505  -14.5622   20.6762 O   0  0  0  0  0  0
  -24.6238  -31.8696   23.2127 C   0  0  0  0  0  0
  -25.9122  -32.4815   23.8428 C   0  0  1  0  0  0
  -27.2120  -27.3702   20.1072 C   0  0  0  0  0  0
  -25.5988  -33.8606   24.2384 N   0  0  0  0  0  0
  -23.4093  -30.5016   21.5531 C   0  0  2  0  0  0
  -24.8545  -28.9721   20.1153 C   0  0  0  0  0  0
  -22.7458  -29.4694   22.4945 C   0  0  0  0  0  0
  -18.0309  -28.1367   22.8462 C   0  0  0  0  0  0
  -24.1482  -36.7268   23.2622 C   0  0  0  0  0  0
  -25.9505  -30.8092   21.3859 C   0  0  0  0  0  0
  -26.0218  -29.4432   20.7274 C   0  0  0  0  0  0
  -27.2027  -28.6519   20.7267 C   0  0  0  0  0  0
  -26.0306  -26.9688   19.4417 C   0  0  0  0  0  0
  -24.8573  -27.7327   19.4675 C   0  0  0  0  0  0
  -23.6270  -29.8494   20.1636 C   0  0  0  0  0  0
  -25.4095  -36.3073   24.0349 C   0  0  1  0  0  0
  -20.5889  -28.3711   23.1285 C   0  0  2  0  0  0
  -20.6768  -26.9414   22.5425 C   0  0  0  0  0  0
  -19.5773  -26.6380   21.5202 C   0  0  0  0  0  0
  -18.1956  -26.7904   22.1594 C   0  0  0  0  0  0
  -19.1554  -28.8846   23.2872 C   0  0  0  0  0  0
  -18.9465  -30.1448   23.8902 C   0  0  0  0  0  0
  -17.6454  -30.6571   24.0554 C   0  0  0  0  0  0
  -25.9033  -34.9450   23.5139 C   0  0  0  0  0  0
  -16.5354  -29.9060   23.6281 C   0  0  0  0  0  0
  -16.7305  -28.6460   23.0346 C   0  0  0  0  0  0
  -26.4536  -31.6582   25.0744 C   0  0  0  0  0  0
  -25.3771  -31.3756   26.1479 C   0  0  0  0  0  0
  -27.0395  -30.3000   24.6177 C   0  0  0  0  0  0
  -27.6104  -32.4326   25.7495 C   0  0  0  0  0  0
  -27.5579  -37.1785   24.8471 C   0  0  0  0  0  0
  -21.4177  -29.3080   22.3690 N   0  0  0  0  0  0
  -26.4278  -37.3774   23.9433 N   0  0  0  0  0  0
  -24.6773  -31.0774   22.1042 N   0  0  0  0  0  0
  -23.4224  -28.8192   23.2968 O   0  0  0  0  0  0
  -28.3360  -26.5444   20.1391 O   0  0  0  0  0  0
  -26.5549  -34.8897   22.4683 O   0  0  0  0  0  0
  -23.5417  -32.1516   23.7463 O   0  0  0  0  0  0
  -30.5246  -19.4661   20.9863 C   0  0  0  0  0  0
  -30.0798  -18.1926   21.5102 C   0  0  0  0  0  0
  -29.0181  -18.3738   22.3831 C   0  0  0  0  0  0
  -29.8477  -20.5744   21.4461 C   0  0  0  0  0  0
  -28.2264  -17.4251   23.1868 C   0  0  0  0  0  0
  -29.4097  -24.3887   20.9271 C   0  0  0  0  0  0
  -27.3153  -17.9466   24.2978 C   0  0  0  0  0  0
  -27.5045  -24.2704   19.3320 C   0  0  0  0  0  0
  -30.8477  -16.9136   21.1432 C   0  0  0  0  0  0
  -29.2381  -23.0245   21.6575 C   0  0  0  0  0  0
  -28.1199  -25.1248   20.4725 C   0  0  2  0  0  0
  -30.0881  -21.9311   21.1407 N   0  0  0  0  0  0
  -30.1709  -15.5928   21.1077 N   0  0  0  0  0  0
  -28.2681  -16.2087   22.9949 O   0  0  0  0  0  0
  -30.5369  -24.8150   20.6477 O   0  0  0  0  0  0
  -28.5932  -20.0729   22.5433 S   0  0  0  0  0  0
  -31.4555  -12.3704   19.1621 H   0  0  0  0  0  0
  -30.2692  -11.3288   19.8837 H   0  0  0  0  0  0
  -29.7433  -11.7626   17.4625 H   0  0  0  0  0  0
  -29.6710  -13.4832   17.7683 H   0  0  0  0  0  0
  -27.8480  -11.3077   18.8599 H   0  0  0  0  0  0
  -27.3644  -12.5981   17.7956 H   0  0  0  0  0  0
  -27.6900  -14.2638   19.5438 H   0  0  0  0  0  0
  -28.6767  -12.0570   21.4074 H   0  0  0  0  0  0
  -28.4611  -13.7253   21.8398 H   0  0  0  0  0  0
  -25.2766   -9.5701   22.4750 H   0  0  0  0  0  0
  -24.0031   -7.4652   22.7462 H   0  0  0  0  0  0
  -21.0874   -8.8835   19.8938 H   0  0  0  0  0  0
  -22.3752  -10.9715   19.6165 H   0  0  0  0  0  0
  -21.2010   -7.6136   23.9734 H   0  0  0  0  0  0
  -21.1483   -6.0486   25.9076 H   0  0  0  0  0  0
  -22.0583   -2.7612   23.2842 H   0  0  0  0  0  0
  -22.4025  -12.0003   22.4863 H   0  0  0  0  0  0
  -21.1038  -13.1314   22.2576 H   0  0  0  0  0  0
  -24.6792  -15.8643   20.5395 H   0  0  0  0  0  0
  -26.2988  -15.6237   20.1246 H   0  0  0  0  0  0
  -26.7164  -32.5473   23.1161 H   0  0  0  0  0  0
  -25.0285  -33.9775   25.0616 H   0  0  0  0  0  0
  -22.6958  -31.3194   21.4172 H   0  0  0  0  0  0
  -23.3726  -35.9616   23.3282 H   0  0  0  0  0  0
  -24.3580  -36.8866   22.2034 H   0  0  0  0  0  0
  -23.7251  -37.6469   23.6634 H   0  0  0  0  0  0
  -26.0908  -31.5720   20.6191 H   0  0  0  0  0  0
  -26.8270  -30.8478   22.0201 H   0  0  0  0  0  0
  -28.0970  -29.0060   21.2206 H   0  0  0  0  0  0
  -25.9737  -26.0828   18.8423 H   0  0  0  0  0  0
  -23.9733  -27.3818   18.9529 H   0  0  0  0  0  0
  -23.7491  -30.6319   19.4142 H   0  0  0  0  0  0
  -22.7470  -29.2827   19.8553 H   0  0  0  0  0  0
  -25.1251  -36.1947   25.0839 H   0  0  0  0  0  0
  -21.0036  -28.3296   24.1393 H   0  0  0  0  0  0
  -20.5710  -26.2337   23.3645 H   0  0  0  0  0  0
  -21.6635  -26.7479   22.1227 H   0  0  0  0  0  0
  -19.6945  -25.6294   21.1206 H   0  0  0  0  0  0
  -19.6711  -27.3207   20.6753 H   0  0  0  0  0  0
  -17.4230  -26.6715   21.3995 H   0  0  0  0  0  0
  -18.0349  -26.0041   22.8978 H   0  0  0  0  0  0
  -19.7949  -30.7228   24.2320 H   0  0  0  0  0  0
  -17.4977  -31.6246   24.5173 H   0  0  0  0  0  0
  -15.5342  -30.2962   23.7531 H   0  0  0  0  0  0
  -15.8694  -28.0752   22.7085 H   0  0  0  0  0  0
  -24.5933  -30.7111   25.7811 H   0  0  0  0  0  0
  -24.8961  -32.2920   26.4874 H   0  0  0  0  0  0
  -25.8069  -30.8956   27.0270 H   0  0  0  0  0  0
  -26.2987  -29.6710   24.1204 H   0  0  0  0  0  0
  -27.4111  -29.7285   25.4684 H   0  0  0  0  0  0
  -27.8843  -30.4250   23.9400 H   0  0  0  0  0  0
  -27.2719  -33.3626   26.2074 H   0  0  0  0  0  0
  -28.3881  -32.6910   25.0289 H   0  0  0  0  0  0
  -28.0797  -31.8458   26.5394 H   0  0  0  0  0  0
  -28.2583  -38.0095   24.7511 H   0  0  0  0  0  0
  -28.1089  -36.2617   24.6279 H   0  0  0  0  0  0
  -27.2309  -37.1415   25.8881 H   0  0  0  0  0  0
  -20.9374  -29.8887   21.6951 H   0  0  0  0  0  0
  -26.0149  -38.2839   24.1446 H   0  0  0  0  0  0
  -31.3526  -19.5238   20.2919 H   0  0  0  0  0  0
  -27.9085  -18.1664   25.1896 H   0  0  0  0  0  0
  -26.5641  -17.1960   24.5584 H   0  0  0  0  0  0
  -26.7871  -18.8487   23.9868 H   0  0  0  0  0  0
  -27.8569  -23.2361   19.3031 H   0  0  0  0  0  0
  -27.7202  -24.7000   18.3542 H   0  0  0  0  0  0
  -26.4269  -24.1701   19.4618 H   0  0  0  0  0  0
  -31.6910  -16.8085   21.8268 H   0  0  0  0  0  0
  -31.3095  -17.0719   20.1650 H   0  0  0  0  0  0
  -28.1905  -22.7321   21.5919 H   0  0  0  0  0  0
  -29.4432  -23.1738   22.7177 H   0  0  0  0  0  0
  -27.4501  -25.0890   21.3341 H   0  0  0  0  0  0
  -30.9579  -22.2373   20.7079 H   0  0  0  0  0  0
  -29.2640  -15.5086   21.5562 H   0  0  0  0  0  0
  1 25  1  0  0  0
  1 30  2  0  0  0
  1 83  1  0  0  0
  2  3  1  0  0  0
  2 25  1  0  0  0
  2 87  1  0  0  0
  2 88  1  0  0  0
  3  4  1  0  0  0
  3 89  1  0  0  0
  3 90  1  0  0  0
  4  5  1  0  0  0
  4 91  1  0  0  0
  4 92  1  0  0  0
  5  6  1  0  0  0
  5 26  1  0  0  0
  5 93  1  0  0  0
  6 25  1  0  0  0
  6 94  1  0  0  0
  6 95  1  0  0  0
  7  8  2  0  0  0
  7 26  1  0  0  0
  7 29  1  0  0  0
  8  9  1  0  0  0
  8 22  1  0  0  0
  9 10  1  0  0  0
  9 27  2  0  0  0
 10 11  2  0  0  0
 10 15  1  0  0  0
 11 12  1  0  0  0
 11 96  1  0  0  0
 12 13  2  0  0  0
 12 97  1  0  0  0
 13 14  1  0  0  0
 13 31  1  0  0  0
 14 15  2  0  0  0
 14 98  1  0  0  0
 15 99  1  0  0  0
 16 17  2  0  0  0
 16 21  1  0  0  0
 16 31  1  0  0  0
 17 18  1  0  0  0
 17100  1  0  0  0
 18 19  2  0  0  0
 18101  1  0  0  0
 19 20  1  0  0  0
 19 24  1  0  0  0
 20 21  2  0  0  0
 20102  1  0  0  0
 21 23  1  0  0  0
 22 28  1  0  0  0
 22 32  2  0  0  0
 26 27  1  0  0  0
 28103  1  0  0  0
 28104  1  0  0  0
 29105  1  0  0  0
 29106  1  0  0  0
 33 34  1  0  0  0
 33 66  1  0  0  0
 33 70  2  0  0  0
 34 36  1  0  0  0
 34 59  1  0  0  0
 34107  1  0  0  0
 35 44  2  0  0  0
 35 45  1  0  0  0
 35 68  1  0  0  0
 36 56  1  0  0  0
 36108  1  0  0  0
 37 39  1  0  0  0
 37 47  1  0  0  0
 37 66  1  0  0  0
 37109  1  0  0  0
 38 43  2  0  0  0
 38 46  1  0  0  0
 38 47  1  0  0  0
 39 64  1  0  0  0
 39 67  2  0  0  0
 40 52  1  0  0  0
 40 53  2  0  0  0
 40 58  1  0  0  0
 41110  1  0  0  0
 41111  1  0  0  0
 41112  1  0  0  0
 41 48  1  0  0  0
 42 43  1  0  0  0
 42 66  1  0  0  0
 42113  1  0  0  0
 42114  1  0  0  0
 43 44  1  0  0  0
 44115  1  0  0  0
 45 46  2  0  0  0
 45116  1  0  0  0
 46117  1  0  0  0
 47118  1  0  0  0
 47119  1  0  0  0
 48 56  1  0  0  0
 48 65  1  0  0  0
 48120  1  0  0  0
 49 50  1  0  0  0
 49 53  1  0  0  0
 49 64  1  0  0  0
 49121  1  0  0  0
 50 51  1  0  0  0
 50122  1  0  0  0
 50123  1  0  0  0
 51 52  1  0  0  0
 51124  1  0  0  0
 51125  1  0  0  0
 52126  1  0  0  0
 52127  1  0  0  0
 53 54  1  0  0  0
 54 55  2  0  0  0
 54128  1  0  0  0
 55 57  1  0  0  0
 55129  1  0  0  0
 56 69  2  0  0  0
 57 58  2  0  0  0
 57130  1  0  0  0
 58131  1  0  0  0
 59 60  1  0  0  0
 59 61  1  0  0  0
 59 62  1  0  0  0
 60132  1  0  0  0
 60133  1  0  0  0
 60134  1  0  0  0
 61135  1  0  0  0
 61136  1  0  0  0
 61137  1  0  0  0
 62138  1  0  0  0
 62139  1  0  0  0
 62140  1  0  0  0
 63 65  1  0  0  0
 63141  1  0  0  0
 63142  1  0  0  0
 63143  1  0  0  0
 64144  1  0  0  0
 65145  1  0  0  0
 68 81  1  0  0  0
 71 72  1  0  0  0
 71 74  2  0  0  0
 71146  1  0  0  0
 72 73  2  0  0  0
 72 79  1  0  0  0
 73 75  1  0  0  0
 73 86  1  0  0  0
 74 82  1  0  0  0
 74 86  1  0  0  0
 75 77  1  0  0  0
 75 84  2  0  0  0
 76 80  1  0  0  0
 76 81  1  0  0  0
 76 85  2  0  0  0
 77147  1  0  0  0
 77148  1  0  0  0
 77149  1  0  0  0
 78150  1  0  0  0
 78151  1  0  0  0
 78152  1  0  0  0
 78 81  1  0  0  0
 79 83  1  0  0  0
 79153  1  0  0  0
 79154  1  0  0  0
 80 82  1  0  0  0
 80155  1  0  0  0
 80156  1  0  0  0
 81157  1  0  0  0
 82158  1  0  0  0
 83159  1  0  0  0
M  ISO  4   1 100  68 101  81 101  83 100
M  END
> <chiral flag>
0

> <version>
0

> <s_m_source_file>
/data/baiqing/PycharmProjects/Reinvent-master-3.2/result/LINK_invent/BTK/process_docking_weight1_custom_product_contain_oxygen_bond_distance_aromatic_linkinvent_7_9_3/rearranged_h_0147.sdf

> <i_m_source_file_index>
86

> <r_mmod_Potential_Energy-OPLS-2005>
-83.3124847412109

> <r_mmod_Stretch_Energy-OPLS-2005>
52.6881370544434

> <r_mmod_Bend_Energy-OPLS-2005>
130.426040649414

> <r_mmod_Torsional_Energy-OPLS-2005>
211.360214233398

> <r_mmod_Improper_Torsional_Energy-OPLS-2005>
4.07293081283569

> <r_mmod_Van_der_Waal_Energy-OPLS-2005>
144.966049194336

> <r_mmod_Electrostatic_Energy-OPLS-2005>
-421.646636962891

> <r_mmod_Solvation_Energy-OPLS-2005>
-232.485626220703

> <b_mmod_Minimization_Converged-OPLS-2005>
0

> <r_mmod_RMS_Derivative-OPLS-2005>
4.91013526916504

$$$$
87
                    3D
 Structure written by MMmdl.
159168  0  0  1  0            999 V2000
  -30.6762  -14.5643   20.5389 C   0  0  0  0  0  0
  -30.4263  -12.3606   19.4307 C   0  0  0  0  0  0
  -29.4951  -12.5010   18.2090 C   0  0  0  0  0  0
  -28.0188  -12.3503   18.6268 C   0  0  0  0  0  0
  -27.6529  -13.2150   19.8625 C   0  0  2  0  0  0
  -28.6990  -13.0538   20.9871 C   0  0  0  0  0  0
  -25.2562  -13.8177   20.5686 C   0  0  0  0  0  0
  -24.1831  -13.0443   20.9187 C   0  0  0  0  0  0
  -24.6401  -11.6911   20.8747 C   0  0  0  0  0  0
  -23.9074  -10.4297   21.0410 C   0  0  0  0  0  0
  -24.3623   -9.4208   21.9187 C   0  0  0  0  0  0
  -23.6288   -8.2246   22.0763 C   0  0  0  0  0  0
  -22.4275   -8.0288   21.3546 C   0  0  0  0  0  0
  -21.9915   -9.0266   20.4650 C   0  0  0  0  0  0
  -22.7247  -10.2142   20.3059 C   0  0  0  0  0  0
  -21.6852   -6.0740   22.5279 C   0  0  0  0  0  0
  -21.4015   -6.5643   23.8212 C   0  0  0  0  0  0
  -21.3658   -5.6795   24.9174 C   0  0  0  0  0  0
  -21.6042   -4.3060   24.7227 C   0  0  0  0  0  0
  -21.8821   -3.8149   23.4347 C   0  0  0  0  0  0
  -21.9193   -4.6965   22.3400 C   0  0  0  0  0  0
  -22.7854  -13.5234   21.1843 C   0  0  0  0  0  0
  -22.1661   -4.2153   21.0978 F   0  0  0  0  0  0
  -21.5629   -3.4541   25.7735 F   0  0  0  0  0  0
  -30.0162  -13.3754   20.4173 N   0  0  0  0  0  0
  -26.2988  -12.9361   20.3326 N   0  0  0  0  0  0
  -25.9324  -11.6516   20.5765 N   0  0  0  0  0  0
  -22.0497  -12.8227   22.0405 N   0  0  0  0  0  0
  -25.4265  -15.1900   20.4102 N   0  0  0  0  0  0
  -31.8363  -14.7089   20.1449 O   0  0  0  0  0  0
  -21.6640   -6.8885   21.4242 O   0  0  0  0  0  0
  -22.3539  -14.5537   20.6687 O   0  0  0  0  0  0
  -24.6224  -31.8639   23.2078 C   0  0  0  0  0  0
  -25.9085  -32.4803   23.8385 C   0  0  1  0  0  0
  -27.2201  -27.3596   20.1050 C   0  0  0  0  0  0
  -25.5915  -33.8602   24.2299 N   0  0  0  0  0  0
  -23.4130  -30.4909   21.5506 C   0  0  2  0  0  0
  -24.8564  -28.9555   20.1109 C   0  0  0  0  0  0
  -22.7448  -29.4646   22.4956 C   0  0  0  0  0  0
  -18.0280  -28.1383   22.8500 C   0  0  0  0  0  0
  -24.1481  -36.7303   23.2638 C   0  0  0  0  0  0
  -25.9520  -30.8056   21.3749 C   0  0  0  0  0  0
  -26.0242  -29.4384   20.7141 C   0  0  0  0  0  0
  -27.2093  -28.6511   20.7046 C   0  0  0  0  0  0
  -26.0272  -26.9222   19.4787 C   0  0  0  0  0  0
  -24.8575  -27.7002   19.4870 C   0  0  0  0  0  0
  -23.6235  -29.8312   20.1638 C   0  0  0  0  0  0
  -25.4112  -36.3096   24.0322 C   0  0  1  0  0  0
  -20.5882  -28.3681   23.1294 C   0  0  2  0  0  0
  -20.6775  -26.9409   22.5411 C   0  0  0  0  0  0
  -19.5747  -26.6389   21.5212 C   0  0  0  0  0  0
  -18.1928  -26.7930   22.1625 C   0  0  0  0  0  0
  -19.1535  -28.8850   23.2895 C   0  0  0  0  0  0
  -18.9456  -30.1454   23.8909 C   0  0  0  0  0  0
  -17.6458  -30.6590   24.0570 C   0  0  0  0  0  0
  -25.9050  -34.9463   23.5111 C   0  0  0  0  0  0
  -16.5350  -29.9094   23.6333 C   0  0  0  0  0  0
  -16.7271  -28.6506   23.0364 C   0  0  0  0  0  0
  -26.4483  -31.6614   25.0745 C   0  0  0  0  0  0
  -25.3719  -31.3734   26.1469 C   0  0  0  0  0  0
  -27.0341  -30.3050   24.6191 C   0  0  0  0  0  0
  -27.6044  -32.4356   25.7509 C   0  0  0  0  0  0
  -27.5583  -37.1807   24.8465 C   0  0  0  0  0  0
  -21.4166  -29.3042   22.3689 N   0  0  0  0  0  0
  -26.4297  -37.3789   23.9406 N   0  0  0  0  0  0
  -24.6813  -31.0688   22.1016 N   0  0  0  0  0  0
  -23.4186  -28.8178   23.3018 O   0  0  0  0  0  0
  -28.3506  -26.5395   20.1540 O   0  0  0  0  0  0
  -26.5630  -34.8922   22.4684 O   0  0  0  0  0  0
  -23.5394  -32.1419   23.7425 O   0  0  0  0  0  0
  -29.6682  -18.4131   19.3448 C   0  0  0  0  0  0
  -29.2919  -19.7621   19.0162 C   0  0  0  0  0  0
  -29.9308  -18.2120   20.6774 C   0  0  0  0  0  0
  -29.2456  -20.6295   20.0845 C   0  0  0  0  0  0
  -28.8377  -22.8403   21.2436 C   0  0  0  0  0  0
  -29.7429  -22.9751   19.3754 C   0  0  2  0  0  0
  -29.2741  -24.0745   20.3900 C   0  0  2  0  0  0
  -29.4839  -23.0778   17.8744 C   0  0  0  0  0  0
  -30.4006  -24.9021   21.0120 C   0  0  0  0  0  0
  -30.4614  -16.9617   21.3891 C   0  0  0  0  0  0
  -28.1466  -25.0962   19.9632 C   0  0  0  0  0  0
  -28.8449  -22.0252   20.0319 N   0  0  0  0  0  0
  -29.9508  -15.6230   20.9846 N   0  0  0  0  0  0
  -29.6663  -19.7323   21.5460 S   0  0  0  0  0  0
  -31.4676  -12.4745   19.1233 H   0  0  0  0  0  0
  -30.3501  -11.3614   19.8626 H   0  0  0  0  0  0
  -29.7459  -11.7537   17.4549 H   0  0  0  0  0  0
  -29.6464  -13.4741   17.7382 H   0  0  0  0  0  0
  -27.8450  -11.2968   18.8485 H   0  0  0  0  0  0
  -27.3637  -12.5955   17.7900 H   0  0  0  0  0  0
  -27.6787  -14.2534   19.5314 H   0  0  0  0  0  0
  -28.6988  -12.0317   21.3691 H   0  0  0  0  0  0
  -28.4551  -13.6893   21.8399 H   0  0  0  0  0  0
  -25.2769   -9.5681   22.4765 H   0  0  0  0  0  0
  -23.9995   -7.4643   22.7491 H   0  0  0  0  0  0
  -21.0847   -8.8793   19.8951 H   0  0  0  0  0  0
  -22.3711  -10.9689   19.6177 H   0  0  0  0  0  0
  -21.2010   -7.6154   23.9715 H   0  0  0  0  0  0
  -21.1475   -6.0527   25.9077 H   0  0  0  0  0  0
  -22.0602   -2.7615   23.2846 H   0  0  0  0  0  0
  -22.4116  -11.9887   22.4785 H   0  0  0  0  0  0
  -21.1118  -13.1265   22.2621 H   0  0  0  0  0  0
  -24.6566  -15.8418   20.5178 H   0  0  0  0  0  0
  -26.2748  -15.6330   20.0812 H   0  0  0  0  0  0
  -26.7154  -32.5483   23.1136 H   0  0  0  0  0  0
  -25.0043  -33.9752   25.0433 H   0  0  0  0  0  0
  -22.7048  -31.3109   21.4139 H   0  0  0  0  0  0
  -23.3745  -35.9634   23.3297 H   0  0  0  0  0  0
  -24.3560  -36.8944   22.2054 H   0  0  0  0  0  0
  -23.7233  -37.6498   23.6674 H   0  0  0  0  0  0
  -26.0815  -31.5716   20.6094 H   0  0  0  0  0  0
  -26.8330  -30.8501   22.0031 H   0  0  0  0  0  0
  -28.1059  -29.0154   21.1872 H   0  0  0  0  0  0
  -25.9651  -25.9668   18.9805 H   0  0  0  0  0  0
  -23.9617  -27.3236   19.0113 H   0  0  0  0  0  0
  -23.7387  -30.6111   19.4100 H   0  0  0  0  0  0
  -22.7432  -29.2602   19.8636 H   0  0  0  0  0  0
  -25.1296  -36.1953   25.0818 H   0  0  0  0  0  0
  -20.9976  -28.3259   24.1412 H   0  0  0  0  0  0
  -20.5691  -26.2284   23.3601 H   0  0  0  0  0  0
  -21.6640  -26.7452   22.1200 H   0  0  0  0  0  0
  -19.6905  -25.6300   21.1244 H   0  0  0  0  0  0
  -19.6691  -27.3195   20.6738 H   0  0  0  0  0  0
  -17.4199  -26.6689   21.4027 H   0  0  0  0  0  0
  -18.0315  -26.0066   22.9010 H   0  0  0  0  0  0
  -19.7931  -30.7272   24.2279 H   0  0  0  0  0  0
  -17.5014  -31.6271   24.5173 H   0  0  0  0  0  0
  -15.5350  -30.3005   23.7652 H   0  0  0  0  0  0
  -15.8663  -28.0831   22.7079 H   0  0  0  0  0  0
  -24.5883  -30.7103   25.7783 H   0  0  0  0  0  0
  -24.8911  -32.2889   26.4923 H   0  0  0  0  0  0
  -25.8039  -30.8883   27.0229 H   0  0  0  0  0  0
  -26.2920  -29.6787   24.1223 H   0  0  0  0  0  0
  -27.4058  -29.7327   25.4703 H   0  0  0  0  0  0
  -27.8777  -30.4361   23.9409 H   0  0  0  0  0  0
  -27.2665  -33.3668   26.2069 H   0  0  0  0  0  0
  -28.3853  -32.6902   25.0332 H   0  0  0  0  0  0
  -28.0703  -31.8491   26.5436 H   0  0  0  0  0  0
  -28.2601  -38.0107   24.7529 H   0  0  0  0  0  0
  -28.1087  -36.2640   24.6286 H   0  0  0  0  0  0
  -27.2292  -37.1453   25.8865 H   0  0  0  0  0  0
  -20.9316  -29.8770   21.6921 H   0  0  0  0  0  0
  -26.0179  -38.2862   24.1419 H   0  0  0  0  0  0
  -29.7555  -17.6501   18.5845 H   0  0  0  0  0  0
  -29.0620  -20.0412   17.9980 H   0  0  0  0  0  0
  -27.8539  -22.9323   21.7072 H   0  0  0  0  0  0
  -29.5945  -22.5364   21.9694 H   0  0  0  0  0  0
  -30.7797  -22.6972   19.5836 H   0  0  0  0  0  0
  -28.4253  -23.1840   17.6381 H   0  0  0  0  0  0
  -29.8450  -22.1950   17.3478 H   0  0  0  0  0  0
  -30.0054  -23.9348   17.4483 H   0  0  0  0  0  0
  -31.2261  -24.2723   21.3446 H   0  0  0  0  0  0
  -30.0518  -25.4553   21.8844 H   0  0  0  0  0  0
  -30.8132  -25.6199   20.3029 H   0  0  0  0  0  0
  -30.2485  -17.0568   22.4546 H   0  0  0  0  0  0
  -31.5506  -16.9697   21.3271 H   0  0  0  0  0  0
  -27.2381  -24.8132   20.4965 H   0  0  0  0  0  0
  -27.9202  -24.9583   18.9083 H   0  0  0  0  0  0
  -28.9878  -15.4290   21.2124 H   0  0  0  0  0  0
  1 25  1  0  0  0
  1 30  2  0  0  0
  1 83  1  0  0  0
  2  3  1  0  0  0
  2 25  1  0  0  0
  2 85  1  0  0  0
  2 86  1  0  0  0
  3  4  1  0  0  0
  3 87  1  0  0  0
  3 88  1  0  0  0
  4  5  1  0  0  0
  4 89  1  0  0  0
  4 90  1  0  0  0
  5  6  1  0  0  0
  5 26  1  0  0  0
  5 91  1  0  0  0
  6 25  1  0  0  0
  6 92  1  0  0  0
  6 93  1  0  0  0
  7  8  2  0  0  0
  7 26  1  0  0  0
  7 29  1  0  0  0
  8  9  1  0  0  0
  8 22  1  0  0  0
  9 10  1  0  0  0
  9 27  2  0  0  0
 10 11  2  0  0  0
 10 15  1  0  0  0
 11 12  1  0  0  0
 11 94  1  0  0  0
 12 13  2  0  0  0
 12 95  1  0  0  0
 13 14  1  0  0  0
 13 31  1  0  0  0
 14 15  2  0  0  0
 14 96  1  0  0  0
 15 97  1  0  0  0
 16 17  2  0  0  0
 16 21  1  0  0  0
 16 31  1  0  0  0
 17 18  1  0  0  0
 17 98  1  0  0  0
 18 19  2  0  0  0
 18 99  1  0  0  0
 19 20  1  0  0  0
 19 24  1  0  0  0
 20 21  2  0  0  0
 20100  1  0  0  0
 21 23  1  0  0  0
 22 28  1  0  0  0
 22 32  2  0  0  0
 26 27  1  0  0  0
 28101  1  0  0  0
 28102  1  0  0  0
 29103  1  0  0  0
 29104  1  0  0  0
 33 34  1  0  0  0
 33 66  1  0  0  0
 33 70  2  0  0  0
 34 36  1  0  0  0
 34 59  1  0  0  0
 34105  1  0  0  0
 35 44  2  0  0  0
 35 45  1  0  0  0
 35 68  1  0  0  0
 36 56  1  0  0  0
 36106  1  0  0  0
 37 39  1  0  0  0
 37 47  1  0  0  0
 37 66  1  0  0  0
 37107  1  0  0  0
 38 43  2  0  0  0
 38 46  1  0  0  0
 38 47  1  0  0  0
 39 64  1  0  0  0
 39 67  2  0  0  0
 40 52  1  0  0  0
 40 53  2  0  0  0
 40 58  1  0  0  0
 41108  1  0  0  0
 41109  1  0  0  0
 41110  1  0  0  0
 41 48  1  0  0  0
 42 43  1  0  0  0
 42 66  1  0  0  0
 42111  1  0  0  0
 42112  1  0  0  0
 43 44  1  0  0  0
 44113  1  0  0  0
 45 46  2  0  0  0
 45114  1  0  0  0
 46115  1  0  0  0
 47116  1  0  0  0
 47117  1  0  0  0
 48 56  1  0  0  0
 48 65  1  0  0  0
 48118  1  0  0  0
 49 50  1  0  0  0
 49 53  1  0  0  0
 49 64  1  0  0  0
 49119  1  0  0  0
 50 51  1  0  0  0
 50120  1  0  0  0
 50121  1  0  0  0
 51 52  1  0  0  0
 51122  1  0  0  0
 51123  1  0  0  0
 52124  1  0  0  0
 52125  1  0  0  0
 53 54  1  0  0  0
 54 55  2  0  0  0
 54126  1  0  0  0
 55 57  1  0  0  0
 55127  1  0  0  0
 56 69  2  0  0  0
 57 58  2  0  0  0
 57128  1  0  0  0
 58129  1  0  0  0
 59 60  1  0  0  0
 59 61  1  0  0  0
 59 62  1  0  0  0
 60130  1  0  0  0
 60131  1  0  0  0
 60132  1  0  0  0
 61133  1  0  0  0
 61134  1  0  0  0
 61135  1  0  0  0
 62136  1  0  0  0
 62137  1  0  0  0
 62138  1  0  0  0
 63 65  1  0  0  0
 63139  1  0  0  0
 63140  1  0  0  0
 63141  1  0  0  0
 64142  1  0  0  0
 65143  1  0  0  0
 68 81  1  0  0  0
 71 72  1  0  0  0
 71 73  2  0  0  0
 71144  1  0  0  0
 72 74  2  0  0  0
 72145  1  0  0  0
 73 80  1  0  0  0
 73 84  1  0  0  0
 74 82  1  0  0  0
 74 84  1  0  0  0
 75 77  1  0  0  0
 75 82  1  0  0  0
 75146  1  0  0  0
 75147  1  0  0  0
 76 77  1  0  0  0
 76 78  1  0  0  0
 76 82  1  0  0  0
 76148  1  0  0  0
 77 79  1  0  0  0
 77 81  1  0  0  0
 78149  1  0  0  0
 78150  1  0  0  0
 78151  1  0  0  0
 79152  1  0  0  0
 79153  1  0  0  0
 79154  1  0  0  0
 80 83  1  0  0  0
 80155  1  0  0  0
 80156  1  0  0  0
 81157  1  0  0  0
 81158  1  0  0  0
 83159  1  0  0  0
M  ISO  4   1 100  68 101  81 101  83 100
M  END
> <chiral flag>
0

> <version>
0

> <s_m_source_file>
/data/baiqing/PycharmProjects/Reinvent-master-3.2/result/LINK_invent/BTK/process_docking_weight1_custom_product_contain_oxygen_bond_distance_aromatic_linkinvent_7_9_3/rearranged_h_0147.sdf

> <i_m_source_file_index>
87

> <r_mmod_Potential_Energy-OPLS-2005>
9.198486328125

> <r_mmod_Stretch_Energy-OPLS-2005>
57.1870231628418

> <r_mmod_Bend_Energy-OPLS-2005>
144.284042358398

> <r_mmod_Torsional_Energy-OPLS-2005>
265.529144287109

> <r_mmod_Improper_Torsional_Energy-OPLS-2005>
10.9633893966675

> <r_mmod_Van_der_Waal_Energy-OPLS-2005>
131.733215332031

> <r_mmod_Electrostatic_Energy-OPLS-2005>
-411.327789306641

> <r_mmod_Solvation_Energy-OPLS-2005>
-220.760604858398

> <b_mmod_Minimization_Converged-OPLS-2005>
0

> <r_mmod_RMS_Derivative-OPLS-2005>
1.11545062065125

$$$$
88
                    3D
 Structure written by MMmdl.
162171  0  0  1  0            999 V2000
  -30.6692  -14.5740   20.5026 C   0  0  0  0  0  0
  -30.4197  -12.3476   19.4518 C   0  0  0  0  0  0
  -29.4995  -12.4955   18.2215 C   0  0  0  0  0  0
  -28.0201  -12.3514   18.6296 C   0  0  0  0  0  0
  -27.6514  -13.2174   19.8639 C   0  0  2  0  0  0
  -28.6938  -13.0676   20.9950 C   0  0  0  0  0  0
  -25.2544  -13.8183   20.5677 C   0  0  0  0  0  0
  -24.1819  -13.0445   20.9193 C   0  0  0  0  0  0
  -24.6388  -11.6917   20.8744 C   0  0  0  0  0  0
  -23.9062  -10.4294   21.0410 C   0  0  0  0  0  0
  -24.3615   -9.4212   21.9186 C   0  0  0  0  0  0
  -23.6292   -8.2245   22.0754 C   0  0  0  0  0  0
  -22.4274   -8.0279   21.3541 C   0  0  0  0  0  0
  -21.9911   -9.0253   20.4644 C   0  0  0  0  0  0
  -22.7236  -10.2137   20.3058 C   0  0  0  0  0  0
  -21.6854   -6.0733   22.5278 C   0  0  0  0  0  0
  -21.4013   -6.5638   23.8210 C   0  0  0  0  0  0
  -21.3661   -5.6792   24.9172 C   0  0  0  0  0  0
  -21.6045   -4.3054   24.7223 C   0  0  0  0  0  0
  -21.8820   -3.8145   23.4344 C   0  0  0  0  0  0
  -21.9193   -4.6963   22.3399 C   0  0  0  0  0  0
  -22.7838  -13.5235   21.1855 C   0  0  0  0  0  0
  -22.1662   -4.2144   21.0979 F   0  0  0  0  0  0
  -21.5630   -3.4541   25.7740 F   0  0  0  0  0  0
  -30.0148  -13.3754   20.4300 N   0  0  0  0  0  0
  -26.2969  -12.9369   20.3320 N   0  0  0  0  0  0
  -25.9317  -11.6524   20.5768 N   0  0  0  0  0  0
  -22.0484  -12.8219   22.0408 N   0  0  0  0  0  0
  -25.4266  -15.1899   20.4050 N   0  0  0  0  0  0
  -31.8418  -14.6672   20.1263 O   0  0  0  0  0  0
  -21.6641   -6.8876   21.4240 O   0  0  0  0  0  0
  -22.3523  -14.5551   20.6716 O   0  0  0  0  0  0
  -24.6219  -31.8625   23.2051 C   0  0  0  0  0  0
  -25.9087  -32.4796   23.8368 C   0  0  1  0  0  0
  -27.2297  -27.3659   20.1001 C   0  0  0  0  0  0
  -25.5919  -33.8595   24.2293 N   0  0  0  0  0  0
  -23.4112  -30.4861   21.5466 C   0  0  2  0  0  0
  -24.8545  -28.9421   20.1145 C   0  0  0  0  0  0
  -22.7440  -29.4633   22.4960 C   0  0  0  0  0  0
  -18.0273  -28.1391   22.8481 C   0  0  0  0  0  0
  -24.1489  -36.7301   23.2643 C   0  0  0  0  0  0
  -25.9465  -30.8071   21.3666 C   0  0  0  0  0  0
  -26.0194  -29.4365   20.7126 C   0  0  0  0  0  0
  -27.2053  -28.6562   20.6986 C   0  0  0  0  0  0
  -26.0350  -26.8992   19.5034 C   0  0  0  0  0  0
  -24.8614  -27.6771   19.5073 C   0  0  0  0  0  0
  -23.6216  -29.8180   20.1623 C   0  0  0  0  0  0
  -25.4114  -36.3088   24.0331 C   0  0  1  0  0  0
  -20.5867  -28.3680   23.1308 C   0  0  2  0  0  0
  -20.6761  -26.9410   22.5422 C   0  0  0  0  0  0
  -19.5747  -26.6388   21.5214 C   0  0  0  0  0  0
  -18.1917  -26.7939   22.1606 C   0  0  0  0  0  0
  -19.1524  -28.8850   23.2892 C   0  0  0  0  0  0
  -18.9455  -30.1456   23.8909 C   0  0  0  0  0  0
  -17.6457  -30.6591   24.0572 C   0  0  0  0  0  0
  -25.9043  -34.9456   23.5102 C   0  0  0  0  0  0
  -16.5347  -29.9094   23.6345 C   0  0  0  0  0  0
  -16.7260  -28.6518   23.0352 C   0  0  0  0  0  0
  -26.4495  -31.6610   25.0728 C   0  0  0  0  0  0
  -25.3749  -31.3733   26.1474 C   0  0  0  0  0  0
  -27.0351  -30.3051   24.6154 C   0  0  0  0  0  0
  -27.6074  -32.4344   25.7471 C   0  0  0  0  0  0
  -27.5577  -37.1800   24.8465 C   0  0  0  0  0  0
  -21.4158  -29.3044   22.3712 N   0  0  0  0  0  0
  -26.4293  -37.3779   23.9407 N   0  0  0  0  0  0
  -24.6788  -31.0675   22.0977 N   0  0  0  0  0  0
  -23.4182  -28.8179   23.3027 O   0  0  0  0  0  0
  -28.4093  -26.6245   20.1267 O   0  0  0  0  0  0
  -26.5610  -34.8914   22.4670 O   0  0  0  0  0  0
  -23.5398  -32.1404   23.7415 O   0  0  0  0  0  0
  -30.7199  -19.8384   20.4670 C   0  0  0  0  0  0
  -29.2486  -18.0425   21.1424 C   0  0  0  0  0  0
  -31.5836  -18.8452   19.9870 C   0  0  0  0  0  0
  -29.5038  -19.4535   21.0519 C   0  0  0  0  0  0
  -30.1955  -17.0788   20.6783 C   0  0  0  0  0  0
  -28.5923  -20.4456   21.7082 C   0  0  0  0  0  0
  -27.2498  -23.9519   21.5169 C   0  0  0  0  0  0
  -27.3409  -22.5542   22.1596 C   0  0  0  0  0  0
  -28.8215  -22.6608   20.2909 C   0  0  0  0  0  0
  -28.5811  -24.1384   20.7835 C   0  0  2  0  0  0
  -29.6991  -24.5439   21.7711 C   0  0  0  0  0  0
  -28.5012  -25.2418   19.6601 C   0  0  0  0  0  0
  -31.3320  -17.5238   20.0927 N   0  0  0  0  0  0
  -28.3202  -21.7659   21.3755 N   0  0  0  0  0  0
  -29.9153  -15.6631   20.8460 N   0  0  0  0  0  0
  -27.9855  -19.9526   22.8023 N   0  3  0  0  0  0
  -31.4649  -12.4387   19.1511 H   0  0  0  0  0  0
  -30.3238  -11.3517   19.8877 H   0  0  0  0  0  0
  -29.7523  -11.7489   17.4675 H   0  0  0  0  0  0
  -29.6588  -13.4691   17.7547 H   0  0  0  0  0  0
  -27.8398  -11.2981   18.8484 H   0  0  0  0  0  0
  -27.3715  -12.6011   17.7884 H   0  0  0  0  0  0
  -27.6733  -14.2543   19.5280 H   0  0  0  0  0  0
  -28.6861  -12.0516   21.3923 H   0  0  0  0  0  0
  -28.4520  -13.7182   21.8369 H   0  0  0  0  0  0
  -25.2762   -9.5687   22.4755 H   0  0  0  0  0  0
  -24.0004   -7.4637   22.7474 H   0  0  0  0  0  0
  -21.0843   -8.8765   19.8946 H   0  0  0  0  0  0
  -22.3693  -10.9671   19.6159 H   0  0  0  0  0  0
  -21.2005   -7.6144   23.9710 H   0  0  0  0  0  0
  -21.1482   -6.0523   25.9073 H   0  0  0  0  0  0
  -22.0599   -2.7607   23.2849 H   0  0  0  0  0  0
  -22.4094  -11.9861   22.4769 H   0  0  0  0  0  0
  -21.1100  -13.1237   22.2627 H   0  0  0  0  0  0
  -24.6567  -15.8432   20.5002 H   0  0  0  0  0  0
  -26.2640  -15.6209   20.0348 H   0  0  0  0  0  0
  -26.7146  -32.5478   23.1113 H   0  0  0  0  0  0
  -25.0103  -33.9768   25.0460 H   0  0  0  0  0  0
  -22.7028  -31.3051   21.4046 H   0  0  0  0  0  0
  -23.3754  -35.9631   23.3307 H   0  0  0  0  0  0
  -24.3580  -36.8929   22.2056 H   0  0  0  0  0  0
  -23.7236  -37.6500   23.6676 H   0  0  0  0  0  0
  -26.0660  -31.5689   20.5955 H   0  0  0  0  0  0
  -26.8316  -30.8602   21.9888 H   0  0  0  0  0  0
  -28.1053  -29.0348   21.1620 H   0  0  0  0  0  0
  -25.9677  -25.9332   19.0305 H   0  0  0  0  0  0
  -23.9638  -27.2910   19.0445 H   0  0  0  0  0  0
  -23.7340  -30.5921   19.4021 H   0  0  0  0  0  0
  -22.7441  -29.2414   19.8651 H   0  0  0  0  0  0
  -25.1288  -36.1942   25.0821 H   0  0  0  0  0  0
  -20.9952  -28.3247   24.1433 H   0  0  0  0  0  0
  -20.5659  -26.2282   23.3611 H   0  0  0  0  0  0
  -21.6632  -26.7447   22.1218 H   0  0  0  0  0  0
  -19.6911  -25.6298   21.1250 H   0  0  0  0  0  0
  -19.6707  -27.3194   20.6747 H   0  0  0  0  0  0
  -17.4193  -26.6715   21.3994 H   0  0  0  0  0  0
  -18.0304  -26.0070   22.8985 H   0  0  0  0  0  0
  -19.7929  -30.7277   24.2275 H   0  0  0  0  0  0
  -17.5008  -31.6273   24.5170 H   0  0  0  0  0  0
  -15.5349  -30.2996   23.7670 H   0  0  0  0  0  0
  -15.8656  -28.0844   22.7062 H   0  0  0  0  0  0
  -24.5922  -30.7074   25.7812 H   0  0  0  0  0  0
  -24.8944  -32.2897   26.4917 H   0  0  0  0  0  0
  -25.8092  -30.8908   27.0239 H   0  0  0  0  0  0
  -26.2912  -29.6765   24.1244 H   0  0  0  0  0  0
  -27.4152  -29.7335   25.4633 H   0  0  0  0  0  0
  -27.8725  -30.4365   23.9296 H   0  0  0  0  0  0
  -27.2720  -33.3663   26.2026 H   0  0  0  0  0  0
  -28.3884  -32.6870   25.0289 H   0  0  0  0  0  0
  -28.0739  -31.8481   26.5396 H   0  0  0  0  0  0
  -28.2607  -38.0084   24.7498 H   0  0  0  0  0  0
  -28.1057  -36.2617   24.6305 H   0  0  0  0  0  0
  -27.2300  -37.1467   25.8870 H   0  0  0  0  0  0
  -20.9321  -29.8780   21.6947 H   0  0  0  0  0  0
  -26.0179  -38.2857   24.1407 H   0  0  0  0  0  0
  -31.0328  -20.8671   20.4123 H   0  0  0  0  0  0
  -28.3312  -17.6954   21.5961 H   0  0  0  0  0  0
  -32.5248  -19.1146   19.5304 H   0  0  0  0  0  0
  -27.0828  -24.7334   22.2593 H   0  0  0  0  0  0
  -26.4103  -23.9834   20.8206 H   0  0  0  0  0  0
  -26.3646  -22.0690   22.1742 H   0  0  0  0  0  0
  -27.6947  -22.6370   23.1880 H   0  0  0  0  0  0
  -29.8716  -22.5053   20.0619 H   0  0  0  0  0  0
  -28.2551  -22.4536   19.3830 H   0  0  0  0  0  0
  -29.8368  -23.8166   22.5712 H   0  0  0  0  0  0
  -29.4829  -25.5039   22.2416 H   0  0  0  0  0  0
  -30.6564  -24.6459   21.2587 H   0  0  0  0  0  0
  -27.7599  -24.9775   18.9107 H   0  0  0  0  0  0
  -29.4381  -25.1994   19.1037 H   0  0  0  0  0  0
  -28.9932  -15.4401   21.1823 H   0  0  0  0  0  0
  -28.2188  -19.0164   23.0948 H   0  0  0  0  0  0
  -27.3520  -20.4916   23.3678 H   0  0  0  0  0  0
  1 25  1  0  0  0
  1 30  2  0  0  0
  1 85  1  0  0  0
  2  3  1  0  0  0
  2 25  1  0  0  0
  2 87  1  0  0  0
  2 88  1  0  0  0
  3  4  1  0  0  0
  3 89  1  0  0  0
  3 90  1  0  0  0
  4  5  1  0  0  0
  4 91  1  0  0  0
  4 92  1  0  0  0
  5  6  1  0  0  0
  5 26  1  0  0  0
  5 93  1  0  0  0
  6 25  1  0  0  0
  6 94  1  0  0  0
  6 95  1  0  0  0
  7  8  2  0  0  0
  7 26  1  0  0  0
  7 29  1  0  0  0
  8  9  1  0  0  0
  8 22  1  0  0  0
  9 10  1  0  0  0
  9 27  2  0  0  0
 10 11  2  0  0  0
 10 15  1  0  0  0
 11 12  1  0  0  0
 11 96  1  0  0  0
 12 13  2  0  0  0
 12 97  1  0  0  0
 13 14  1  0  0  0
 13 31  1  0  0  0
 14 15  2  0  0  0
 14 98  1  0  0  0
 15 99  1  0  0  0
 16 17  2  0  0  0
 16 21  1  0  0  0
 16 31  1  0  0  0
 17 18  1  0  0  0
 17100  1  0  0  0
 18 19  2  0  0  0
 18101  1  0  0  0
 19 20  1  0  0  0
 19 24  1  0  0  0
 20 21  2  0  0  0
 20102  1  0  0  0
 21 23  1  0  0  0
 22 28  1  0  0  0
 22 32  2  0  0  0
 26 27  1  0  0  0
 28103  1  0  0  0
 28104  1  0  0  0
 29105  1  0  0  0
 29106  1  0  0  0
 33 34  1  0  0  0
 33 66  1  0  0  0
 33 70  2  0  0  0
 34 36  1  0  0  0
 34 59  1  0  0  0
 34107  1  0  0  0
 35 44  2  0  0  0
 35 45  1  0  0  0
 35 68  1  0  0  0
 36 56  1  0  0  0
 36108  1  0  0  0
 37 39  1  0  0  0
 37 47  1  0  0  0
 37 66  1  0  0  0
 37109  1  0  0  0
 38 43  2  0  0  0
 38 46  1  0  0  0
 38 47  1  0  0  0
 39 64  1  0  0  0
 39 67  2  0  0  0
 40 52  1  0  0  0
 40 53  2  0  0  0
 40 58  1  0  0  0
 41110  1  0  0  0
 41111  1  0  0  0
 41112  1  0  0  0
 41 48  1  0  0  0
 42 43  1  0  0  0
 42 66  1  0  0  0
 42113  1  0  0  0
 42114  1  0  0  0
 43 44  1  0  0  0
 44115  1  0  0  0
 45 46  2  0  0  0
 45116  1  0  0  0
 46117  1  0  0  0
 47118  1  0  0  0
 47119  1  0  0  0
 48 56  1  0  0  0
 48 65  1  0  0  0
 48120  1  0  0  0
 49 50  1  0  0  0
 49 53  1  0  0  0
 49 64  1  0  0  0
 49121  1  0  0  0
 50 51  1  0  0  0
 50122  1  0  0  0
 50123  1  0  0  0
 51 52  1  0  0  0
 51124  1  0  0  0
 51125  1  0  0  0
 52126  1  0  0  0
 52127  1  0  0  0
 53 54  1  0  0  0
 54 55  2  0  0  0
 54128  1  0  0  0
 55 57  1  0  0  0
 55129  1  0  0  0
 56 69  2  0  0  0
 57 58  2  0  0  0
 57130  1  0  0  0
 58131  1  0  0  0
 59 60  1  0  0  0
 59 61  1  0  0  0
 59 62  1  0  0  0
 60132  1  0  0  0
 60133  1  0  0  0
 60134  1  0  0  0
 61135  1  0  0  0
 61136  1  0  0  0
 61137  1  0  0  0
 62138  1  0  0  0
 62139  1  0  0  0
 62140  1  0  0  0
 63 65  1  0  0  0
 63141  1  0  0  0
 63142  1  0  0  0
 63143  1  0  0  0
 64144  1  0  0  0
 65145  1  0  0  0
 68 82  1  0  0  0
 71 73  2  0  0  0
 71 74  1  0  0  0
 71146  1  0  0  0
 72 74  2  0  0  0
 72 75  1  0  0  0
 72147  1  0  0  0
 73 83  1  0  0  0
 73148  1  0  0  0
 74 76  1  0  0  0
 75 83  2  0  0  0
 75 85  1  0  0  0
 76 84  1  0  0  0
 76 86  2  0  0  0
 77 78  1  0  0  0
 77 80  1  0  0  0
 77149  1  0  0  0
 77150  1  0  0  0
 78 84  1  0  0  0
 78151  1  0  0  0
 78152  1  0  0  0
 79 80  1  0  0  0
 79 84  1  0  0  0
 79153  1  0  0  0
 79154  1  0  0  0
 80 81  1  0  0  0
 80 82  1  0  0  0
 81155  1  0  0  0
 81156  1  0  0  0
 81157  1  0  0  0
 82158  1  0  0  0
 82159  1  0  0  0
 85160  1  0  0  0
 86161  1  0  0  0
 86162  1  0  0  0
M  CHG  1  86   1
M  ISO  4   1 100  68 101  82 101  85 100
M  END
> <chiral flag>
0

> <version>
0

> <s_m_source_file>
/data/baiqing/PycharmProjects/Reinvent-master-3.2/result/LINK_invent/BTK/process_docking_weight1_custom_product_contain_oxygen_bond_distance_aromatic_linkinvent_7_9_3/rearranged_h_0147.sdf

> <i_m_source_file_index>
88

> <r_mmod_Potential_Energy-OPLS-2005>
-243.676315307617

> <r_mmod_Stretch_Energy-OPLS-2005>
63.1665916442871

> <r_mmod_Bend_Energy-OPLS-2005>
178.076309204102

> <r_mmod_Torsional_Energy-OPLS-2005>
267.953643798828

> <r_mmod_Improper_Torsional_Energy-OPLS-2005>
4.68937206268311

> <r_mmod_Van_der_Waal_Energy-OPLS-2005>
160.357879638672

> <r_mmod_Electrostatic_Energy-OPLS-2005>
-446.734527587891

> <r_mmod_Solvation_Energy-OPLS-2005>
-500.25048828125

> <b_mmod_Minimization_Converged-OPLS-2005>
0

> <r_mmod_RMS_Derivative-OPLS-2005>
1.28197813034058

$$$$
89
                    3D
 Structure written by MMmdl.
163172  0  0  1  0            999 V2000
  -30.6120  -14.7422   20.4831 C   0  0  0  0  0  0
  -30.4385  -12.4670   19.4663 C   0  0  0  0  0  0
  -29.5096  -12.5042   18.2326 C   0  0  0  0  0  0
  -28.0408  -12.3082   18.6564 C   0  0  0  0  0  0
  -27.6374  -13.2253   19.8433 C   0  0  2  0  0  0
  -28.6790  -13.1762   20.9830 C   0  0  0  0  0  0
  -25.2479  -13.8180   20.5708 C   0  0  0  0  0  0
  -24.1766  -13.0436   20.9249 C   0  0  0  0  0  0
  -24.6356  -11.6907   20.8752 C   0  0  0  0  0  0
  -23.9026  -10.4295   21.0413 C   0  0  0  0  0  0
  -24.3585   -9.4209   21.9183 C   0  0  0  0  0  0
  -23.6294   -8.2227   22.0746 C   0  0  0  0  0  0
  -22.4267   -8.0264   21.3533 C   0  0  0  0  0  0
  -21.9896   -9.0234   20.4636 C   0  0  0  0  0  0
  -22.7196  -10.2122   20.3053 C   0  0  0  0  0  0
  -21.6842   -6.0734   22.5286 C   0  0  0  0  0  0
  -21.4017   -6.5634   23.8231 C   0  0  0  0  0  0
  -21.3678   -5.6786   24.9191 C   0  0  0  0  0  0
  -21.6043   -4.3050   24.7221 C   0  0  0  0  0  0
  -21.8803   -3.8142   23.4339 C   0  0  0  0  0  0
  -21.9183   -4.6964   22.3403 C   0  0  0  0  0  0
  -22.7785  -13.5233   21.1922 C   0  0  0  0  0  0
  -22.1647   -4.2161   21.0968 F   0  0  0  0  0  0
  -21.5643   -3.4530   25.7730 F   0  0  0  0  0  0
  -29.9801  -13.5244   20.3964 N   0  0  0  0  0  0
  -26.2898  -12.9378   20.3238 N   0  0  0  0  0  0
  -25.9271  -11.6529   20.5715 N   0  0  0  0  0  0
  -22.0392  -12.8242   22.0463 N   0  0  0  0  0  0
  -25.4116  -15.1899   20.4115 N   0  0  0  0  0  0
  -31.8062  -14.8351   20.1851 O   0  0  0  0  0  0
  -21.6631   -6.8867   21.4244 O   0  0  0  0  0  0
  -22.3479  -14.5549   20.6783 O   0  0  0  0  0  0
  -24.6312  -31.8584   23.2012 C   0  0  0  0  0  0
  -25.9132  -32.4783   23.8376 C   0  0  1  0  0  0
  -27.2146  -27.2745   20.1455 C   0  0  0  0  0  0
  -25.5952  -33.8586   24.2316 N   0  0  0  0  0  0
  -23.4286  -30.4838   21.5406 C   0  0  2  0  0  0
  -24.8773  -28.9324   20.1123 C   0  0  0  0  0  0
  -22.7518  -29.4616   22.4866 C   0  0  0  0  0  0
  -18.0306  -28.1397   22.8476 C   0  0  0  0  0  0
  -24.1493  -36.7310   23.2633 C   0  0  0  0  0  0
  -25.9721  -30.7795   21.3767 C   0  0  0  0  0  0
  -26.0460  -29.3987   20.7276 C   0  0  0  0  0  0
  -27.2200  -28.5822   20.7356 C   0  0  0  0  0  0
  -26.0300  -26.8734   19.4949 C   0  0  0  0  0  0
  -24.8731  -27.6773   19.4822 C   0  0  0  0  0  0
  -23.6538  -29.8270   20.1522 C   0  0  0  0  0  0
  -25.4103  -36.3089   24.0340 C   0  0  1  0  0  0
  -20.5913  -28.3720   23.1257 C   0  0  2  0  0  0
  -20.6805  -26.9432   22.5406 C   0  0  0  0  0  0
  -19.5776  -26.6392   21.5213 C   0  0  0  0  0  0
  -18.1947  -26.7948   22.1604 C   0  0  0  0  0  0
  -19.1561  -28.8867   23.2879 C   0  0  0  0  0  0
  -18.9469  -30.1454   23.8929 C   0  0  0  0  0  0
  -17.6472  -30.6588   24.0573 C   0  0  0  0  0  0
  -25.9039  -34.9453   23.5123 C   0  0  0  0  0  0
  -16.5368  -29.9104   23.6306 C   0  0  0  0  0  0
  -16.7297  -28.6519   23.0336 C   0  0  0  0  0  0
  -26.4510  -31.6571   25.0737 C   0  0  0  0  0  0
  -25.3754  -31.3707   26.1476 C   0  0  0  0  0  0
  -27.0345  -30.2999   24.6153 C   0  0  0  0  0  0
  -27.6090  -32.4283   25.7514 C   0  0  0  0  0  0
  -27.5585  -37.1809   24.8457 C   0  0  0  0  0  0
  -21.4225  -29.3080   22.3654 N   0  0  0  0  0  0
  -26.4280  -37.3781   23.9419 N   0  0  0  0  0  0
  -24.6966  -31.0575   22.0978 N   0  0  0  0  0  0
  -23.4227  -28.8113   23.2928 O   0  0  0  0  0  0
  -28.3062  -26.3846   20.1619 O   0  0  0  0  0  0
  -26.5588  -34.8918   22.4671 O   0  0  0  0  0  0
  -23.5455  -32.1390   23.7300 O   0  0  0  0  0  0
  -29.3641  -18.4359   20.4948 C   0  0  0  0  0  0
  -30.9128  -20.0167   21.4884 C   0  0  0  0  0  0
  -31.3743  -17.6033   21.5778 C   0  0  0  0  0  0
  -29.7077  -19.8291   20.7722 C   0  0  0  0  0  0
  -30.1877  -17.2973   20.8742 C   0  0  0  0  0  0
  -31.7242  -18.9337   21.8841 C   0  0  0  0  0  0
  -27.1783  -22.0932   18.9531 C   0  0  0  0  0  0
  -28.1813  -23.2467   18.7413 C   0  0  0  0  0  0
  -27.8774  -20.7786   19.3729 C   0  0  0  0  0  0
  -28.9492  -22.3611   21.0186 C   0  0  0  0  0  0
  -28.8500  -23.6833   20.0713 C   0  0  2  0  0  0
  -31.0011  -24.6667   20.6790 C   0  0  0  0  0  0
  -28.0941  -24.9918   20.6833 C   0  0  0  0  0  0
  -28.9477  -20.9971   20.3487 N   0  0  0  0  0  0
  -29.8241  -15.8756   20.6485 N   0  0  0  0  0  0
  -30.1837  -24.0411   19.6922 O   0  0  0  0  0  0
  -32.8678  -19.1764   22.5733 F   0  0  0  0  0  0
  -31.4762  -12.6147   19.1592 H   0  0  0  0  0  0
  -30.4064  -11.4892   19.9509 H   0  0  0  0  0  0
  -29.7998  -11.7299   17.5201 H   0  0  0  0  0  0
  -29.6216  -13.4563   17.7088 H   0  0  0  0  0  0
  -27.9258  -11.2651   18.9508 H   0  0  0  0  0  0
  -27.3712  -12.4528   17.8090 H   0  0  0  0  0  0
  -27.6259  -14.2400   19.4427 H   0  0  0  0  0  0
  -28.7137  -12.1878   21.4459 H   0  0  0  0  0  0
  -28.4055  -13.8715   21.7806 H   0  0  0  0  0  0
  -25.2715   -9.5737   22.4783 H   0  0  0  0  0  0
  -24.0036   -7.4606   22.7444 H   0  0  0  0  0  0
  -21.0845   -8.8722   19.8913 H   0  0  0  0  0  0
  -22.3638  -10.9666   19.6181 H   0  0  0  0  0  0
  -21.2009   -7.6142   23.9755 H   0  0  0  0  0  0
  -21.1529   -6.0500   25.9108 H   0  0  0  0  0  0
  -22.0563   -2.7607   23.2812 H   0  0  0  0  0  0
  -22.3989  -11.9955   22.4966 H   0  0  0  0  0  0
  -21.0983  -13.1275   22.2590 H   0  0  0  0  0  0
  -24.6314  -15.8292   20.5205 H   0  0  0  0  0  0
  -26.2452  -15.6393   20.0559 H   0  0  0  0  0  0
  -26.7212  -32.5460   23.1139 H   0  0  0  0  0  0
  -25.0211  -33.9743   25.0543 H   0  0  0  0  0  0
  -22.7235  -31.3053   21.3956 H   0  0  0  0  0  0
  -23.3758  -35.9638   23.3264 H   0  0  0  0  0  0
  -24.3612  -36.8960   22.2058 H   0  0  0  0  0  0
  -23.7238  -37.6503   23.6668 H   0  0  0  0  0  0
  -26.0962  -31.5322   20.5968 H   0  0  0  0  0  0
  -26.8560  -30.8438   21.9989 H   0  0  0  0  0  0
  -28.1121  -28.9296   21.2378 H   0  0  0  0  0  0
  -25.9909  -25.9136   19.0003 H   0  0  0  0  0  0
  -23.9820  -27.3186   18.9864 H   0  0  0  0  0  0
  -23.8059  -30.6126   19.4102 H   0  0  0  0  0  0
  -22.7694  -29.2793   19.8230 H   0  0  0  0  0  0
  -25.1267  -36.1961   25.0834 H   0  0  0  0  0  0
  -21.0024  -28.3318   24.1372 H   0  0  0  0  0  0
  -20.5712  -26.2339   23.3629 H   0  0  0  0  0  0
  -21.6674  -26.7468   22.1198 H   0  0  0  0  0  0
  -19.6940  -25.6295   21.1273 H   0  0  0  0  0  0
  -19.6716  -27.3188   20.6729 H   0  0  0  0  0  0
  -17.4233  -26.6725   21.3989 H   0  0  0  0  0  0
  -18.0305  -26.0088   22.8986 H   0  0  0  0  0  0
  -19.7941  -30.7250   24.2344 H   0  0  0  0  0  0
  -17.5021  -31.6261   24.5187 H   0  0  0  0  0  0
  -15.5364  -30.3013   23.7594 H   0  0  0  0  0  0
  -15.8703  -28.0842   22.7028 H   0  0  0  0  0  0
  -24.5940  -30.7036   25.7816 H   0  0  0  0  0  0
  -24.8936  -32.2875   26.4881 H   0  0  0  0  0  0
  -25.8097  -30.8916   27.0260 H   0  0  0  0  0  0
  -26.2893  -29.6746   24.1223 H   0  0  0  0  0  0
  -27.4121  -29.7245   25.4611 H   0  0  0  0  0  0
  -27.8733  -30.4298   23.9314 H   0  0  0  0  0  0
  -27.2713  -33.3552   26.2151 H   0  0  0  0  0  0
  -28.3880  -32.6881   25.0339 H   0  0  0  0  0  0
  -28.0789  -31.8375   26.5385 H   0  0  0  0  0  0
  -28.2572  -38.0129   24.7510 H   0  0  0  0  0  0
  -28.1107  -36.2665   24.6247 H   0  0  0  0  0  0
  -27.2331  -37.1425   25.8865 H   0  0  0  0  0  0
  -20.9388  -29.8898   21.6960 H   0  0  0  0  0  0
  -26.0172  -38.2860   24.1420 H   0  0  0  0  0  0
  -28.4421  -18.2289   19.9754 H   0  0  0  0  0  0
  -31.2651  -21.0063   21.7286 H   0  0  0  0  0  0
  -32.0281  -16.8163   21.9211 H   0  0  0  0  0  0
  -26.5874  -21.9179   18.0547 H   0  0  0  0  0  0
  -26.4614  -22.3886   19.7187 H   0  0  0  0  0  0
  -27.7027  -24.0978   18.2556 H   0  0  0  0  0  0
  -28.9402  -22.8944   18.0401 H   0  0  0  0  0  0
  -28.3043  -20.3030   18.4866 H   0  0  0  0  0  0
  -27.1350  -20.0897   19.7806 H   0  0  0  0  0  0
  -28.0687  -22.3763   21.6642 H   0  0  0  0  0  0
  -29.7752  -22.4451   21.7190 H   0  0  0  0  0  0
  -30.7279  -25.7110   20.8267 H   0  0  0  0  0  0
  -32.0371  -24.6464   20.3419 H   0  0  0  0  0  0
  -30.9680  -24.1725   21.6476 H   0  0  0  0  0  0
  -28.3593  -25.0425   21.7390 H   0  0  0  0  0  0
  -27.0281  -24.7648   20.7042 H   0  0  0  0  0  0
  -28.8335  -15.6898   20.6344 H   0  0  0  0  0  0
  1 25  1  0  0  0
  1 30  2  0  0  0
  1 85  1  0  0  0
  2  3  1  0  0  0
  2 25  1  0  0  0
  2 88  1  0  0  0
  2 89  1  0  0  0
  3  4  1  0  0  0
  3 90  1  0  0  0
  3 91  1  0  0  0
  4  5  1  0  0  0
  4 92  1  0  0  0
  4 93  1  0  0  0
  5  6  1  0  0  0
  5 26  1  0  0  0
  5 94  1  0  0  0
  6 25  1  0  0  0
  6 95  1  0  0  0
  6 96  1  0  0  0
  7  8  2  0  0  0
  7 26  1  0  0  0
  7 29  1  0  0  0
  8  9  1  0  0  0
  8 22  1  0  0  0
  9 10  1  0  0  0
  9 27  2  0  0  0
 10 11  2  0  0  0
 10 15  1  0  0  0
 11 12  1  0  0  0
 11 97  1  0  0  0
 12 13  2  0  0  0
 12 98  1  0  0  0
 13 14  1  0  0  0
 13 31  1  0  0  0
 14 15  2  0  0  0
 14 99  1  0  0  0
 15100  1  0  0  0
 16 17  2  0  0  0
 16 21  1  0  0  0
 16 31  1  0  0  0
 17 18  1  0  0  0
 17101  1  0  0  0
 18 19  2  0  0  0
 18102  1  0  0  0
 19 20  1  0  0  0
 19 24  1  0  0  0
 20 21  2  0  0  0
 20103  1  0  0  0
 21 23  1  0  0  0
 22 28  1  0  0  0
 22 32  2  0  0  0
 26 27  1  0  0  0
 28104  1  0  0  0
 28105  1  0  0  0
 29106  1  0  0  0
 29107  1  0  0  0
 33 34  1  0  0  0
 33 66  1  0  0  0
 33 70  2  0  0  0
 34 36  1  0  0  0
 34 59  1  0  0  0
 34108  1  0  0  0
 35 44  2  0  0  0
 35 45  1  0  0  0
 35 68  1  0  0  0
 36 56  1  0  0  0
 36109  1  0  0  0
 37 39  1  0  0  0
 37 47  1  0  0  0
 37 66  1  0  0  0
 37110  1  0  0  0
 38 43  2  0  0  0
 38 46  1  0  0  0
 38 47  1  0  0  0
 39 64  1  0  0  0
 39 67  2  0  0  0
 40 52  1  0  0  0
 40 53  2  0  0  0
 40 58  1  0  0  0
 41111  1  0  0  0
 41112  1  0  0  0
 41113  1  0  0  0
 41 48  1  0  0  0
 42 43  1  0  0  0
 42 66  1  0  0  0
 42114  1  0  0  0
 42115  1  0  0  0
 43 44  1  0  0  0
 44116  1  0  0  0
 45 46  2  0  0  0
 45117  1  0  0  0
 46118  1  0  0  0
 47119  1  0  0  0
 47120  1  0  0  0
 48 56  1  0  0  0
 48 65  1  0  0  0
 48121  1  0  0  0
 49 50  1  0  0  0
 49 53  1  0  0  0
 49 64  1  0  0  0
 49122  1  0  0  0
 50 51  1  0  0  0
 50123  1  0  0  0
 50124  1  0  0  0
 51 52  1  0  0  0
 51125  1  0  0  0
 51126  1  0  0  0
 52127  1  0  0  0
 52128  1  0  0  0
 53 54  1  0  0  0
 54 55  2  0  0  0
 54129  1  0  0  0
 55 57  1  0  0  0
 55130  1  0  0  0
 56 69  2  0  0  0
 57 58  2  0  0  0
 57131  1  0  0  0
 58132  1  0  0  0
 59 60  1  0  0  0
 59 61  1  0  0  0
 59 62  1  0  0  0
 60133  1  0  0  0
 60134  1  0  0  0
 60135  1  0  0  0
 61136  1  0  0  0
 61137  1  0  0  0
 61138  1  0  0  0
 62139  1  0  0  0
 62140  1  0  0  0
 62141  1  0  0  0
 63 65  1  0  0  0
 63142  1  0  0  0
 63143  1  0  0  0
 63144  1  0  0  0
 64145  1  0  0  0
 65146  1  0  0  0
 68 83  1  0  0  0
 71 74  2  0  0  0
 71 75  1  0  0  0
 71147  1  0  0  0
 72 74  1  0  0  0
 72 76  2  0  0  0
 72148  1  0  0  0
 73 75  2  0  0  0
 73 76  1  0  0  0
 73149  1  0  0  0
 74 84  1  0  0  0
 75 85  1  0  0  0
 76 87  1  0  0  0
 77 78  1  0  0  0
 77 79  1  0  0  0
 77150  1  0  0  0
 77151  1  0  0  0
 78 81  1  0  0  0
 78152  1  0  0  0
 78153  1  0  0  0
 79 84  1  0  0  0
 79154  1  0  0  0
 79155  1  0  0  0
 80 81  1  0  0  0
 80 84  1  0  0  0
 80156  1  0  0  0
 80157  1  0  0  0
 81 83  1  0  0  0
 81 86  1  0  0  0
 82 86  1  0  0  0
 82158  1  0  0  0
 82159  1  0  0  0
 82160  1  0  0  0
 83161  1  0  0  0
 83162  1  0  0  0
 85163  1  0  0  0
M  ISO  4   1 100  68 101  83 101  85 100
M  END
> <chiral flag>
0

> <version>
0

> <s_m_source_file>
/data/baiqing/PycharmProjects/Reinvent-master-3.2/result/LINK_invent/BTK/process_docking_weight1_custom_product_contain_oxygen_bond_distance_aromatic_linkinvent_7_9_3/rearranged_h_0147.sdf

> <i_m_source_file_index>
89

> <r_mmod_Potential_Energy-OPLS-2005>
296.7099609375

> <r_mmod_Stretch_Energy-OPLS-2005>
124.525718688965

> <r_mmod_Bend_Energy-OPLS-2005>
169.283462524414

> <r_mmod_Torsional_Energy-OPLS-2005>
298.432464599609

> <r_mmod_Improper_Torsional_Energy-OPLS-2005>
6.62339019775391

> <r_mmod_Van_der_Waal_Energy-OPLS-2005>
153.022186279297

> <r_mmod_Electrostatic_Energy-OPLS-2005>
-306.789123535156

> <r_mmod_Solvation_Energy-OPLS-2005>
-231.921234130859

> <b_mmod_Minimization_Converged-OPLS-2005>
0

> <r_mmod_RMS_Derivative-OPLS-2005>
3.60222101211548

$$$$
90
                    3D
 Structure written by MMmdl.
164173  0  0  1  0            999 V2000
  -30.6579  -14.4795   20.5520 C   0  0  0  0  0  0
  -30.4096  -12.3114   19.4176 C   0  0  0  0  0  0
  -29.4801  -12.4831   18.1960 C   0  0  0  0  0  0
  -27.9940  -12.3532   18.6056 C   0  0  0  0  0  0
  -27.6388  -13.1884   19.8592 C   0  0  2  0  0  0
  -28.6824  -12.9594   20.9784 C   0  0  0  0  0  0
  -25.2512  -13.8110   20.5597 C   0  0  0  0  0  0
  -24.1764  -13.0415   20.9170 C   0  0  0  0  0  0
  -24.6330  -11.6893   20.8739 C   0  0  0  0  0  0
  -23.8989  -10.4293   21.0446 C   0  0  0  0  0  0
  -24.3559   -9.4201   21.9200 C   0  0  0  0  0  0
  -23.6260   -8.2217   22.0752 C   0  0  0  0  0  0
  -22.4233   -8.0251   21.3545 C   0  0  0  0  0  0
  -21.9863   -9.0230   20.4637 C   0  0  0  0  0  0
  -22.7189  -10.2127   20.3078 C   0  0  0  0  0  0
  -21.6833   -6.0705   22.5286 C   0  0  0  0  0  0
  -21.4012   -6.5624   23.8214 C   0  0  0  0  0  0
  -21.3662   -5.6786   24.9174 C   0  0  0  0  0  0
  -21.6039   -4.3041   24.7230 C   0  0  0  0  0  0
  -21.8818   -3.8135   23.4341 C   0  0  0  0  0  0
  -21.9190   -4.6940   22.3406 C   0  0  0  0  0  0
  -22.7810  -13.5233   21.1848 C   0  0  0  0  0  0
  -22.1652   -4.2128   21.0978 F   0  0  0  0  0  0
  -21.5629   -3.4541   25.7741 F   0  0  0  0  0  0
  -29.9903  -13.3059   20.4151 N   0  0  0  0  0  0
  -26.2855  -12.9222   20.3246 N   0  0  0  0  0  0
  -25.9225  -11.6406   20.5743 N   0  0  0  0  0  0
  -22.0461  -12.8268   22.0413 N   0  0  0  0  0  0
  -25.4325  -15.1806   20.3868 N   0  0  0  0  0  0
  -31.8744  -14.5306   20.3232 O   0  0  0  0  0  0
  -21.6620   -6.8841   21.4232 O   0  0  0  0  0  0
  -22.3499  -14.5559   20.6713 O   0  0  0  0  0  0
  -24.6131  -31.8751   23.2240 C   0  0  0  0  0  0
  -25.9083  -32.4838   23.8458 C   0  0  1  0  0  0
  -27.1278  -27.3866   20.1484 C   0  0  0  0  0  0
  -25.5987  -33.8634   24.2393 N   0  0  0  0  0  0
  -23.4113  -30.5227   21.5291 C   0  0  2  0  0  0
  -24.8735  -29.0405   20.0399 C   0  0  0  0  0  0
  -22.7477  -29.4877   22.4731 C   0  0  0  0  0  0
  -18.0387  -28.1347   22.8630 C   0  0  0  0  0  0
  -24.1488  -36.7301   23.2608 C   0  0  0  0  0  0
  -25.9509  -30.8183   21.4151 C   0  0  0  0  0  0
  -26.0121  -29.4710   20.7403 C   0  0  0  0  0  0
  -27.1498  -28.6180   20.8516 C   0  0  0  0  0  0
  -26.1102  -27.1300   19.2291 C   0  0  0  0  0  0
  -24.9338  -27.8870   19.2504 C   0  0  0  0  0  0
  -23.6292  -29.8931   20.1249 C   0  0  0  0  0  0
  -25.4103  -36.3121   24.0301 C   0  0  1  0  0  0
  -20.5975  -28.3890   23.1304 C   0  0  2  0  0  0
  -20.7065  -26.9781   22.4850 C   0  0  0  0  0  0
  -19.5710  -26.6687   21.5073 C   0  0  0  0  0  0
  -18.2054  -26.7675   22.2191 C   0  0  0  0  0  0
  -19.1585  -28.8945   23.2900 C   0  0  0  0  0  0
  -18.9357  -30.1496   23.8937 C   0  0  0  0  0  0
  -17.6291  -30.6596   24.0461 C   0  0  0  0  0  0
  -25.9039  -34.9431   23.5074 C   0  0  0  0  0  0
  -16.5264  -29.9113   23.6023 C   0  0  0  0  0  0
  -16.7406  -28.6524   23.0161 C   0  0  0  0  0  0
  -26.4558  -31.6635   25.0810 C   0  0  0  0  0  0
  -25.3778  -31.3787   26.1527 C   0  0  0  0  0  0
  -27.0405  -30.3016   24.6332 C   0  0  0  0  0  0
  -27.6175  -32.4402   25.7587 C   0  0  0  0  0  0
  -27.5599  -37.1816   24.8466 C   0  0  0  0  0  0
  -21.4203  -29.3245   22.3614 N   0  0  0  0  0  0
  -26.4326  -37.3826   23.9370 N   0  0  0  0  0  0
  -24.6712  -31.0918   22.1102 N   0  0  0  0  0  0
  -23.4152  -28.8447   23.2871 O   0  0  0  0  0  0
  -27.9380  -26.3167   20.3792 O   0  0  0  0  0  0
  -26.5613  -34.8934   22.4690 O   0  0  0  0  0  0
  -23.5290  -32.1479   23.7578 O   0  0  0  0  0  0
  -27.3996  -18.4049   21.4965 C   0  0  0  0  0  0
  -28.2522  -17.4881   20.7783 C   0  0  0  0  0  0
  -28.5348  -17.9603   19.5274 C   0  0  0  0  0  0
  -27.1658  -19.5942   20.8315 C   0  0  0  0  0  0
  -26.9846  -21.9559   21.1426 C   0  0  0  0  0  0
  -28.8728  -16.1783   21.2456 C   0  0  0  0  0  0
  -29.4480  -17.3014   18.5729 C   0  0  0  0  0  0
  -30.5123  -16.5901   19.3921 C   0  0  0  0  0  0
  -24.6910  -25.1381   20.7316 C   0  0  0  0  0  0
  -25.4941  -24.3237   22.8174 C   0  0  0  0  0  0
  -26.0079  -23.0629   20.6846 C   0  0  0  0  0  0
  -27.3575  -25.3701   21.3773 C   0  0  0  0  0  0
  -25.9619  -24.4977   21.3462 C   0  0  0  0  0  0
  -29.9143  -15.6064   20.3273 N   0  0  0  0  0  0
  -26.4820  -20.7110   21.2079 N   0  0  0  0  0  0
  -28.1679  -22.2074   21.4236 O   0  0  0  0  0  0
  -27.8441  -19.5132   19.2247 S   0  0  0  0  0  0
  -31.4495  -12.4348   19.1079 H   0  0  0  0  0  0
  -30.3386  -11.2947   19.8248 H   0  0  0  0  0  0
  -29.7230  -11.7442   17.4284 H   0  0  0  0  0  0
  -29.6502  -13.4607   17.7424 H   0  0  0  0  0  0
  -27.7928  -11.2960   18.7832 H   0  0  0  0  0  0
  -27.3599  -12.6457   17.7701 H   0  0  0  0  0  0
  -27.6780  -14.2287   19.5385 H   0  0  0  0  0  0
  -28.6729  -11.9146   21.2777 H   0  0  0  0  0  0
  -28.4633  -13.5085   21.8919 H   0  0  0  0  0  0
  -25.2694   -9.5667   22.4788 H   0  0  0  0  0  0
  -23.9967   -7.4586   22.7477 H   0  0  0  0  0  0
  -21.0787   -8.8721   19.8947 H   0  0  0  0  0  0
  -22.3614  -10.9651   19.6185 H   0  0  0  0  0  0
  -21.2011   -7.6142   23.9702 H   0  0  0  0  0  0
  -21.1489   -6.0522   25.9069 H   0  0  0  0  0  0
  -22.0601   -2.7604   23.2856 H   0  0  0  0  0  0
  -22.4032  -11.9912   22.4792 H   0  0  0  0  0  0
  -21.1093  -13.1330   22.2638 H   0  0  0  0  0  0
  -24.6639  -15.8388   20.4464 H   0  0  0  0  0  0
  -26.2777  -15.5901   20.0125 H   0  0  0  0  0  0
  -26.7176  -32.5576   23.1242 H   0  0  0  0  0  0
  -25.0183  -33.9811   25.0545 H   0  0  0  0  0  0
  -22.6890  -31.3241   21.3939 H   0  0  0  0  0  0
  -23.3788  -35.9627   23.3282 H   0  0  0  0  0  0
  -24.3588  -36.8921   22.2045 H   0  0  0  0  0  0
  -23.7234  -37.6484   23.6642 H   0  0  0  0  0  0
  -26.1157  -31.6092   20.6766 H   0  0  0  0  0  0
  -26.8047  -30.8348   22.0781 H   0  0  0  0  0  0
  -27.9491  -28.8442   21.5454 H   0  0  0  0  0  0
  -26.1822  -26.2298   18.6188 H   0  0  0  0  0  0
  -24.0987  -27.5879   18.6544 H   0  0  0  0  0  0
  -23.7234  -30.6832   19.3766 H   0  0  0  0  0  0
  -22.7644  -29.3093   19.8116 H   0  0  0  0  0  0
  -25.1296  -36.1956   25.0810 H   0  0  0  0  0  0
  -21.0133  -28.3421   24.1455 H   0  0  0  0  0  0
  -20.6795  -26.2347   23.2844 H   0  0  0  0  0  0
  -21.6769  -26.8788   21.9888 H   0  0  0  0  0  0
  -19.6930  -25.6976   21.0456 H   0  0  0  0  0  0
  -19.5784  -27.4029   20.7008 H   0  0  0  0  0  0
  -17.3958  -26.5673   21.5111 H   0  0  0  0  0  0
  -18.1576  -25.9963   23.0015 H   0  0  0  0  0  0
  -19.7965  -30.7070   24.2156 H   0  0  0  0  0  0
  -17.4919  -31.6141   24.5209 H   0  0  0  0  0  0
  -15.5145  -30.2881   23.7290 H   0  0  0  0  0  0
  -15.9043  -28.0713   22.6618 H   0  0  0  0  0  0
  -24.6032  -30.7078   25.7825 H   0  0  0  0  0  0
  -24.8933  -32.2970   26.4840 H   0  0  0  0  0  0
  -25.8100  -30.9069   27.0318 H   0  0  0  0  0  0
  -26.2976  -29.6778   24.1389 H   0  0  0  0  0  0
  -27.4040  -29.7359   25.4879 H   0  0  0  0  0  0
  -27.8894  -30.4250   23.9627 H   0  0  0  0  0  0
  -27.2792  -33.3678   26.2204 H   0  0  0  0  0  0
  -28.3994  -32.6946   25.0435 H   0  0  0  0  0  0
  -28.0838  -31.8487   26.5468 H   0  0  0  0  0  0
  -28.2604  -38.0136   24.7541 H   0  0  0  0  0  0
  -28.1102  -36.2639   24.6246 H   0  0  0  0  0  0
  -27.2301  -37.1436   25.8883 H   0  0  0  0  0  0
  -20.9436  -29.8367   21.6341 H   0  0  0  0  0  0
  -26.0159  -38.2875   24.1487 H   0  0  0  0  0  0
  -27.0297  -18.1787   22.4877 H   0  0  0  0  0  0
  -28.0418  -15.4894   21.3732 H   0  0  0  0  0  0
  -29.3008  -16.2951   22.2421 H   0  0  0  0  0  0
  -29.9075  -18.0405   17.9108 H   0  0  0  0  0  0
  -28.9127  -16.5912   17.9408 H   0  0  0  0  0  0
  -31.0885  -17.3121   19.9742 H   0  0  0  0  0  0
  -31.2023  -16.1285   18.6844 H   0  0  0  0  0  0
  -23.7763  -24.5801   20.9341 H   0  0  0  0  0  0
  -24.6944  -25.1332   19.6481 H   0  0  0  0  0  0
  -24.5231  -26.1456   21.1156 H   0  0  0  0  0  0
  -24.5056  -23.8476   22.8541 H   0  0  0  0  0  0
  -25.4091  -25.2903   23.3312 H   0  0  0  0  0  0
  -26.1354  -23.6898   23.4220 H   0  0  0  0  0  0
  -25.0144  -22.6318   20.7918 H   0  0  0  0  0  0
  -26.1254  -23.1474   19.5956 H   0  0  0  0  0  0
  -28.1539  -24.6591   21.5833 H   0  0  0  0  0  0
  -27.3372  -25.9547   22.2956 H   0  0  0  0  0  0
  -25.4736  -20.6330   21.1140 H   0  0  0  0  0  0
  1 25  1  0  0  0
  1 30  2  0  0  0
  1 84  1  0  0  0
  2  3  1  0  0  0
  2 25  1  0  0  0
  2 88  1  0  0  0
  2 89  1  0  0  0
  3  4  1  0  0  0
  3 90  1  0  0  0
  3 91  1  0  0  0
  4  5  1  0  0  0
  4 92  1  0  0  0
  4 93  1  0  0  0
  5  6  1  0  0  0
  5 26  1  0  0  0
  5 94  1  0  0  0
  6 25  1  0  0  0
  6 95  1  0  0  0
  6 96  1  0  0  0
  7  8  2  0  0  0
  7 26  1  0  0  0
  7 29  1  0  0  0
  8  9  1  0  0  0
  8 22  1  0  0  0
  9 10  1  0  0  0
  9 27  2  0  0  0
 10 11  2  0  0  0
 10 15  1  0  0  0
 11 12  1  0  0  0
 11 97  1  0  0  0
 12 13  2  0  0  0
 12 98  1  0  0  0
 13 14  1  0  0  0
 13 31  1  0  0  0
 14 15  2  0  0  0
 14 99  1  0  0  0
 15100  1  0  0  0
 16 17  2  0  0  0
 16 21  1  0  0  0
 16 31  1  0  0  0
 17 18  1  0  0  0
 17101  1  0  0  0
 18 19  2  0  0  0
 18102  1  0  0  0
 19 20  1  0  0  0
 19 24  1  0  0  0
 20 21  2  0  0  0
 20103  1  0  0  0
 21 23  1  0  0  0
 22 28  1  0  0  0
 22 32  2  0  0  0
 26 27  1  0  0  0
 28104  1  0  0  0
 28105  1  0  0  0
 29106  1  0  0  0
 29107  1  0  0  0
 33 34  1  0  0  0
 33 66  1  0  0  0
 33 70  2  0  0  0
 34 36  1  0  0  0
 34 59  1  0  0  0
 34108  1  0  0  0
 35 44  2  0  0  0
 35 45  1  0  0  0
 35 68  1  0  0  0
 36 56  1  0  0  0
 36109  1  0  0  0
 37 39  1  0  0  0
 37 47  1  0  0  0
 37 66  1  0  0  0
 37110  1  0  0  0
 38 43  2  0  0  0
 38 46  1  0  0  0
 38 47  1  0  0  0
 39 64  1  0  0  0
 39 67  2  0  0  0
 40 52  1  0  0  0
 40 53  2  0  0  0
 40 58  1  0  0  0
 41111  1  0  0  0
 41112  1  0  0  0
 41113  1  0  0  0
 41 48  1  0  0  0
 42 43  1  0  0  0
 42 66  1  0  0  0
 42114  1  0  0  0
 42115  1  0  0  0
 43 44  1  0  0  0
 44116  1  0  0  0
 45 46  2  0  0  0
 45117  1  0  0  0
 46118  1  0  0  0
 47119  1  0  0  0
 47120  1  0  0  0
 48 56  1  0  0  0
 48 65  1  0  0  0
 48121  1  0  0  0
 49 50  1  0  0  0
 49 53  1  0  0  0
 49 64  1  0  0  0
 49122  1  0  0  0
 50 51  1  0  0  0
 50123  1  0  0  0
 50124  1  0  0  0
 51 52  1  0  0  0
 51125  1  0  0  0
 51126  1  0  0  0
 52127  1  0  0  0
 52128  1  0  0  0
 53 54  1  0  0  0
 54 55  2  0  0  0
 54129  1  0  0  0
 55 57  1  0  0  0
 55130  1  0  0  0
 56 69  2  0  0  0
 57 58  2  0  0  0
 57131  1  0  0  0
 58132  1  0  0  0
 59 60  1  0  0  0
 59 61  1  0  0  0
 59 62  1  0  0  0
 60133  1  0  0  0
 60134  1  0  0  0
 60135  1  0  0  0
 61136  1  0  0  0
 61137  1  0  0  0
 61138  1  0  0  0
 62139  1  0  0  0
 62140  1  0  0  0
 62141  1  0  0  0
 63 65  1  0  0  0
 63142  1  0  0  0
 63143  1  0  0  0
 63144  1  0  0  0
 64145  1  0  0  0
 65146  1  0  0  0
 68 82  1  0  0  0
 71 72  1  0  0  0
 71 74  2  0  0  0
 71147  1  0  0  0
 72 73  2  0  0  0
 72 76  1  0  0  0
 73 77  1  0  0  0
 73 87  1  0  0  0
 74 85  1  0  0  0
 74 87  1  0  0  0
 75 81  1  0  0  0
 75 85  1  0  0  0
 75 86  2  0  0  0
 76 84  1  0  0  0
 76148  1  0  0  0
 76149  1  0  0  0
 77 78  1  0  0  0
 77150  1  0  0  0
 77151  1  0  0  0
 78 84  1  0  0  0
 78152  1  0  0  0
 78153  1  0  0  0
 79154  1  0  0  0
 79155  1  0  0  0
 79156  1  0  0  0
 79 83  1  0  0  0
 80 83  1  0  0  0
 80157  1  0  0  0
 80158  1  0  0  0
 80159  1  0  0  0
 81 83  1  0  0  0
 81160  1  0  0  0
 81161  1  0  0  0
 82 83  1  0  0  0
 82162  1  0  0  0
 82163  1  0  0  0
 85164  1  0  0  0
M  ISO  4   1 100  68 101  82 101  84 100
M  END
> <chiral flag>
0

> <version>
0

> <s_m_source_file>
/data/baiqing/PycharmProjects/Reinvent-master-3.2/result/LINK_invent/BTK/process_docking_weight1_custom_product_contain_oxygen_bond_distance_aromatic_linkinvent_7_9_3/rearranged_h_0147.sdf

> <i_m_source_file_index>
90

> <r_mmod_Potential_Energy-OPLS-2005>
363.134002685547

> <r_mmod_Stretch_Energy-OPLS-2005>
73.8119659423828

> <r_mmod_Bend_Energy-OPLS-2005>
197.005737304688

> <r_mmod_Torsional_Energy-OPLS-2005>
363.656127929688

> <r_mmod_Improper_Torsional_Energy-OPLS-2005>
27.2101154327393

> <r_mmod_Van_der_Waal_Energy-OPLS-2005>
165.952606201172

> <r_mmod_Electrostatic_Energy-OPLS-2005>
-351.478759765625

> <r_mmod_Solvation_Energy-OPLS-2005>
-221.22477722168

> <b_mmod_Minimization_Converged-OPLS-2005>
0

> <r_mmod_RMS_Derivative-OPLS-2005>
18.7138404846191

$$$$
91
                    3D
 Structure written by MMmdl.
153162  0  0  1  0            999 V2000
  -30.6107  -14.7501   20.4639 C   0  0  0  0  0  0
  -30.4276  -12.4611   19.4682 C   0  0  0  0  0  0
  -29.5052  -12.5160   18.2309 C   0  0  0  0  0  0
  -28.0292  -12.3454   18.6438 C   0  0  0  0  0  0
  -27.6378  -13.2360   19.8530 C   0  0  2  0  0  0
  -28.6848  -13.1732   20.9857 C   0  0  0  0  0  0
  -25.2483  -13.8206   20.5713 C   0  0  0  0  0  0
  -24.1782  -13.0449   20.9233 C   0  0  0  0  0  0
  -24.6379  -11.6930   20.8779 C   0  0  0  0  0  0
  -23.9058  -10.4304   21.0422 C   0  0  0  0  0  0
  -24.3613   -9.4217   21.9198 C   0  0  0  0  0  0
  -23.6299   -8.2244   22.0748 C   0  0  0  0  0  0
  -22.4285   -8.0284   21.3535 C   0  0  0  0  0  0
  -21.9919   -9.0256   20.4635 C   0  0  0  0  0  0
  -22.7237  -10.2143   20.3060 C   0  0  0  0  0  0
  -21.6847   -6.0739   22.5272 C   0  0  0  0  0  0
  -21.4008   -6.5634   23.8212 C   0  0  0  0  0  0
  -21.3674   -5.6784   24.9176 C   0  0  0  0  0  0
  -21.6055   -4.3046   24.7218 C   0  0  0  0  0  0
  -21.8821   -3.8142   23.4331 C   0  0  0  0  0  0
  -21.9184   -4.6965   22.3393 C   0  0  0  0  0  0
  -22.7804  -13.5240   21.1879 C   0  0  0  0  0  0
  -22.1655   -4.2155   21.0966 F   0  0  0  0  0  0
  -21.5645   -3.4529   25.7729 F   0  0  0  0  0  0
  -29.9817  -13.5265   20.3950 N   0  0  0  0  0  0
  -26.2915  -12.9416   20.3308 N   0  0  0  0  0  0
  -25.9307  -11.6555   20.5774 N   0  0  0  0  0  0
  -22.0410  -12.8262   22.0431 N   0  0  0  0  0  0
  -25.4161  -15.1935   20.4120 N   0  0  0  0  0  0
  -31.8135  -14.8230   20.1903 O   0  0  0  0  0  0
  -21.6638   -6.8885   21.4235 O   0  0  0  0  0  0
  -22.3513  -14.5547   20.6710 O   0  0  0  0  0  0
  -24.6333  -31.8534   23.1966 C   0  0  0  0  0  0
  -25.9158  -32.4736   23.8327 C   0  0  1  0  0  0
  -27.2201  -27.2482   20.1480 C   0  0  0  0  0  0
  -25.5950  -33.8537   24.2252 N   0  0  0  0  0  0
  -23.4303  -30.4741   21.5393 C   0  0  2  0  0  0
  -24.8794  -28.9164   20.1122 C   0  0  0  0  0  0
  -22.7503  -29.4597   22.4902 C   0  0  0  0  0  0
  -18.0296  -28.1390   22.8476 C   0  0  0  0  0  0
  -24.1493  -36.7286   23.2634 C   0  0  0  0  0  0
  -25.9758  -30.7645   21.3765 C   0  0  0  0  0  0
  -26.0513  -29.3841   20.7228 C   0  0  0  0  0  0
  -27.2281  -28.5655   20.7230 C   0  0  0  0  0  0
  -26.0302  -26.8513   19.5037 C   0  0  0  0  0  0
  -24.8762  -27.6588   19.4872 C   0  0  0  0  0  0
  -23.6491  -29.8025   20.1574 C   0  0  0  0  0  0
  -25.4116  -36.3055   24.0323 C   0  0  1  0  0  0
  -20.5896  -28.3713   23.1253 C   0  0  2  0  0  0
  -20.6798  -26.9430   22.5393 C   0  0  0  0  0  0
  -19.5779  -26.6374   21.5203 C   0  0  0  0  0  0
  -18.1953  -26.7934   22.1606 C   0  0  0  0  0  0
  -19.1547  -28.8869   23.2853 C   0  0  0  0  0  0
  -18.9466  -30.1472   23.8869 C   0  0  0  0  0  0
  -17.6464  -30.6597   24.0544 C   0  0  0  0  0  0
  -25.9056  -34.9427   23.5086 C   0  0  0  0  0  0
  -16.5357  -29.9086   23.6327 C   0  0  0  0  0  0
  -16.7281  -28.6500   23.0360 C   0  0  0  0  0  0
  -26.4505  -31.6567   25.0731 C   0  0  0  0  0  0
  -25.3709  -31.3755   26.1441 C   0  0  0  0  0  0
  -27.0356  -30.2973   24.6250 C   0  0  0  0  0  0
  -27.6051  -32.4307   25.7532 C   0  0  0  0  0  0
  -27.5578  -37.1796   24.8451 C   0  0  0  0  0  0
  -21.4209  -29.3063   22.3649 N   0  0  0  0  0  0
  -26.4289  -37.3755   23.9399 N   0  0  0  0  0  0
  -24.6986  -31.0489   22.0941 N   0  0  0  0  0  0
  -23.4193  -28.8136   23.3010 O   0  0  0  0  0  0
  -28.3071  -26.3425   20.1724 O   0  0  0  0  0  0
  -26.5619  -34.8911   22.4651 O   0  0  0  0  0  0
  -23.5479  -32.1360   23.7257 O   0  0  0  0  0  0
  -31.3097  -19.5041   21.1506 C   0  0  0  0  0  0
  -30.0958  -19.7131   20.5372 C   0  0  0  0  0  0
  -30.2113  -17.3180   20.6824 C   0  0  0  0  0  0
  -28.8999  -21.4625   18.8107 C   0  0  0  0  0  0
  -28.5246  -22.9913   18.8081 C   0  0  0  0  0  0
  -29.0536  -22.3088   21.0495 C   0  0  0  0  0  0
  -29.6724  -21.1959   20.1108 C   0  0  1  0  0  0
  -28.9376  -23.6370   20.1608 C   0  0  2  0  0  0
  -28.0710  -24.9294   20.6510 C   0  0  0  0  0  0
  -29.4488  -18.4252   20.3413 N   0  0  0  0  0  0
  -29.8237  -15.8934   20.5656 N   0  0  0  0  0  0
  -31.7434  -17.8216   21.3827 S   0  0  0  0  0  0
  -31.4688  -12.5858   19.1653 H   0  0  0  0  0  0
  -30.3670  -11.4835   19.9499 H   0  0  0  0  0  0
  -29.7847  -11.7435   17.5136 H   0  0  0  0  0  0
  -29.6345  -13.4712   17.7182 H   0  0  0  0  0  0
  -27.8746  -11.2948   18.8919 H   0  0  0  0  0  0
  -27.3736  -12.5554   17.7971 H   0  0  0  0  0  0
  -27.6285  -14.2593   19.4778 H   0  0  0  0  0  0
  -28.7218  -12.1771   21.4286 H   0  0  0  0  0  0
  -28.4233  -13.8596   21.7932 H   0  0  0  0  0  0
  -25.2749   -9.5704   22.4792 H   0  0  0  0  0  0
  -24.0008   -7.4630   22.7465 H   0  0  0  0  0  0
  -21.0847   -8.8774   19.8941 H   0  0  0  0  0  0
  -22.3684  -10.9693   19.6184 H   0  0  0  0  0  0
  -21.1989   -7.6141   23.9724 H   0  0  0  0  0  0
  -21.1511   -6.0505   25.9086 H   0  0  0  0  0  0
  -22.0588   -2.7604   23.2817 H   0  0  0  0  0  0
  -22.3969  -11.9931   22.4877 H   0  0  0  0  0  0
  -21.1030  -13.1333   22.2581 H   0  0  0  0  0  0
  -24.6462  -15.8446   20.5253 H   0  0  0  0  0  0
  -26.2551  -15.6370   20.0618 H   0  0  0  0  0  0
  -26.7233  -32.5383   23.1078 H   0  0  0  0  0  0
  -25.0114  -33.9664   25.0409 H   0  0  0  0  0  0
  -22.7290  -31.2970   21.3893 H   0  0  0  0  0  0
  -23.3750  -35.9618   23.3268 H   0  0  0  0  0  0
  -24.3581  -36.8939   22.2050 H   0  0  0  0  0  0
  -23.7257  -37.6486   23.6677 H   0  0  0  0  0  0
  -26.1133  -31.5222   20.6037 H   0  0  0  0  0  0
  -26.8536  -30.8163   22.0093 H   0  0  0  0  0  0
  -28.1276  -28.9205   21.2070 H   0  0  0  0  0  0
  -25.9821  -25.8869   19.0176 H   0  0  0  0  0  0
  -23.9844  -27.2972   18.9939 H   0  0  0  0  0  0
  -23.7689  -30.5742   19.3966 H   0  0  0  0  0  0
  -22.7693  -29.2305   19.8571 H   0  0  0  0  0  0
  -25.1293  -36.1894   25.0814 H   0  0  0  0  0  0
  -20.9985  -28.3300   24.1375 H   0  0  0  0  0  0
  -20.5707  -26.2325   23.3599 H   0  0  0  0  0  0
  -21.6668  -26.7468   22.1181 H   0  0  0  0  0  0
  -19.6946  -25.6266   21.1283 H   0  0  0  0  0  0
  -19.6737  -27.3138   20.6698 H   0  0  0  0  0  0
  -17.4228  -26.6681   21.4002 H   0  0  0  0  0  0
  -18.0350  -26.0070   22.8994 H   0  0  0  0  0  0
  -19.7938  -30.7298   24.2225 H   0  0  0  0  0  0
  -17.5019  -31.6281   24.5136 H   0  0  0  0  0  0
  -15.5357  -30.2990   23.7660 H   0  0  0  0  0  0
  -15.8676  -28.0806   22.7108 H   0  0  0  0  0  0
  -24.5896  -30.7083   25.7780 H   0  0  0  0  0  0
  -24.8888  -32.2945   26.4791 H   0  0  0  0  0  0
  -25.8004  -30.8994   27.0265 H   0  0  0  0  0  0
  -26.2963  -29.6727   24.1229 H   0  0  0  0  0  0
  -27.3962  -29.7232   25.4794 H   0  0  0  0  0  0
  -27.8865  -30.4220   23.9554 H   0  0  0  0  0  0
  -27.2652  -33.3616   26.2084 H   0  0  0  0  0  0
  -28.3907  -32.6845   25.0402 H   0  0  0  0  0  0
  -28.0672  -31.8446   26.5487 H   0  0  0  0  0  0
  -28.2566  -38.0116   24.7502 H   0  0  0  0  0  0
  -28.1107  -36.2646   24.6265 H   0  0  0  0  0  0
  -27.2295  -37.1424   25.8852 H   0  0  0  0  0  0
  -20.9397  -29.8799   21.6861 H   0  0  0  0  0  0
  -26.0163  -38.2829   24.1387 H   0  0  0  0  0  0
  -32.0225  -20.2650   21.4426 H   0  0  0  0  0  0
  -29.4898  -21.1890   17.9355 H   0  0  0  0  0  0
  -27.9919  -20.8587   18.7886 H   0  0  0  0  0  0
  -27.4511  -23.1014   18.6520 H   0  0  0  0  0  0
  -29.0099  -23.5119   17.9807 H   0  0  0  0  0  0
  -29.6746  -22.4742   21.9302 H   0  0  0  0  0  0
  -28.0711  -21.9893   21.3995 H   0  0  0  0  0  0
  -30.6428  -21.6405   19.8805 H   0  0  0  0  0  0
  -29.9621  -23.9956   20.0501 H   0  0  0  0  0  0
  -28.2313  -24.9970   21.7274 H   0  0  0  0  0  0
  -27.0176  -24.6651   20.5667 H   0  0  0  0  0  0
  -28.8329  -15.7225   20.5740 H   0  0  0  0  0  0
  1 25  1  0  0  0
  1 30  2  0  0  0
  1 81  1  0  0  0
  2  3  1  0  0  0
  2 25  1  0  0  0
  2 83  1  0  0  0
  2 84  1  0  0  0
  3  4  1  0  0  0
  3 85  1  0  0  0
  3 86  1  0  0  0
  4  5  1  0  0  0
  4 87  1  0  0  0
  4 88  1  0  0  0
  5  6  1  0  0  0
  5 26  1  0  0  0
  5 89  1  0  0  0
  6 25  1  0  0  0
  6 90  1  0  0  0
  6 91  1  0  0  0
  7  8  2  0  0  0
  7 26  1  0  0  0
  7 29  1  0  0  0
  8  9  1  0  0  0
  8 22  1  0  0  0
  9 10  1  0  0  0
  9 27  2  0  0  0
 10 11  2  0  0  0
 10 15  1  0  0  0
 11 12  1  0  0  0
 11 92  1  0  0  0
 12 13  2  0  0  0
 12 93  1  0  0  0
 13 14  1  0  0  0
 13 31  1  0  0  0
 14 15  2  0  0  0
 14 94  1  0  0  0
 15 95  1  0  0  0
 16 17  2  0  0  0
 16 21  1  0  0  0
 16 31  1  0  0  0
 17 18  1  0  0  0
 17 96  1  0  0  0
 18 19  2  0  0  0
 18 97  1  0  0  0
 19 20  1  0  0  0
 19 24  1  0  0  0
 20 21  2  0  0  0
 20 98  1  0  0  0
 21 23  1  0  0  0
 22 28  1  0  0  0
 22 32  2  0  0  0
 26 27  1  0  0  0
 28 99  1  0  0  0
 28100  1  0  0  0
 29101  1  0  0  0
 29102  1  0  0  0
 33 34  1  0  0  0
 33 66  1  0  0  0
 33 70  2  0  0  0
 34 36  1  0  0  0
 34 59  1  0  0  0
 34103  1  0  0  0
 35 44  2  0  0  0
 35 45  1  0  0  0
 35 68  1  0  0  0
 36 56  1  0  0  0
 36104  1  0  0  0
 37 39  1  0  0  0
 37 47  1  0  0  0
 37 66  1  0  0  0
 37105  1  0  0  0
 38 43  2  0  0  0
 38 46  1  0  0  0
 38 47  1  0  0  0
 39 64  1  0  0  0
 39 67  2  0  0  0
 40 52  1  0  0  0
 40 53  2  0  0  0
 40 58  1  0  0  0
 41106  1  0  0  0
 41107  1  0  0  0
 41108  1  0  0  0
 41 48  1  0  0  0
 42 43  1  0  0  0
 42 66  1  0  0  0
 42109  1  0  0  0
 42110  1  0  0  0
 43 44  1  0  0  0
 44111  1  0  0  0
 45 46  2  0  0  0
 45112  1  0  0  0
 46113  1  0  0  0
 47114  1  0  0  0
 47115  1  0  0  0
 48 56  1  0  0  0
 48 65  1  0  0  0
 48116  1  0  0  0
 49 50  1  0  0  0
 49 53  1  0  0  0
 49 64  1  0  0  0
 49117  1  0  0  0
 50 51  1  0  0  0
 50118  1  0  0  0
 50119  1  0  0  0
 51 52  1  0  0  0
 51120  1  0  0  0
 51121  1  0  0  0
 52122  1  0  0  0
 52123  1  0  0  0
 53 54  1  0  0  0
 54 55  2  0  0  0
 54124  1  0  0  0
 55 57  1  0  0  0
 55125  1  0  0  0
 56 69  2  0  0  0
 57 58  2  0  0  0
 57126  1  0  0  0
 58127  1  0  0  0
 59 60  1  0  0  0
 59 61  1  0  0  0
 59 62  1  0  0  0
 60128  1  0  0  0
 60129  1  0  0  0
 60130  1  0  0  0
 61131  1  0  0  0
 61132  1  0  0  0
 61133  1  0  0  0
 62134  1  0  0  0
 62135  1  0  0  0
 62136  1  0  0  0
 63 65  1  0  0  0
 63137  1  0  0  0
 63138  1  0  0  0
 63139  1  0  0  0
 64140  1  0  0  0
 65141  1  0  0  0
 68 79  1  0  0  0
 71 72  2  0  0  0
 71 82  1  0  0  0
 71142  1  0  0  0
 72 80  1  0  0  0
 72 77  1  0  0  0
 73 80  2  0  0  0
 73 81  1  0  0  0
 73 82  1  0  0  0
 74 75  1  0  0  0
 74 77  1  0  0  0
 74143  1  0  0  0
 74144  1  0  0  0
 75 78  1  0  0  0
 75145  1  0  0  0
 75146  1  0  0  0
 76 77  1  0  0  0
 76 78  1  0  0  0
 76147  1  0  0  0
 76148  1  0  0  0
 77149  1  0  0  0
 78 79  1  0  0  0
 78150  1  0  0  0
 79151  1  0  0  0
 79152  1  0  0  0
 81153  1  0  0  0
M  ISO  4   1 100  68 101  79 101  81 100
M  END
> <chiral flag>
0

> <version>
0

> <s_m_source_file>
/data/baiqing/PycharmProjects/Reinvent-master-3.2/result/LINK_invent/BTK/process_docking_weight1_custom_product_contain_oxygen_bond_distance_aromatic_linkinvent_7_9_3/rearranged_h_0147.sdf

> <i_m_source_file_index>
91

> <r_mmod_Potential_Energy-OPLS-2005>
199.408950805664

> <r_mmod_Stretch_Energy-OPLS-2005>
122.230262756348

> <r_mmod_Bend_Energy-OPLS-2005>
228.669860839844

> <r_mmod_Torsional_Energy-OPLS-2005>
269.724365234375

> <r_mmod_Improper_Torsional_Energy-OPLS-2005>
6.68916845321655

> <r_mmod_Van_der_Waal_Energy-OPLS-2005>
113.31226348877

> <r_mmod_Electrostatic_Energy-OPLS-2005>
-421.252593994141

> <r_mmod_Solvation_Energy-OPLS-2005>
-210.446411132812

> <b_mmod_Minimization_Converged-OPLS-2005>
0

> <r_mmod_RMS_Derivative-OPLS-2005>
1.83899676799774

$$$$
92
                    3D
 Structure written by MMmdl.
169178  0  0  1  0            999 V2000
  -30.7492  -14.5730   20.3091 C   0  0  0  0  0  0
  -30.4151  -12.3181   19.4447 C   0  0  0  0  0  0
  -29.4861  -12.4043   18.2154 C   0  0  0  0  0  0
  -28.0036  -12.2905   18.6370 C   0  0  0  0  0  0
  -27.6255  -13.1842   19.8506 C   0  0  2  0  0  0
  -28.7089  -13.1453   20.9506 C   0  0  0  0  0  0
  -25.2456  -13.8026   20.5836 C   0  0  0  0  0  0
  -24.1703  -13.0314   20.9264 C   0  0  0  0  0  0
  -24.6289  -11.6808   20.8832 C   0  0  0  0  0  0
  -23.8987  -10.4212   21.0440 C   0  0  0  0  0  0
  -24.3554   -9.4134   21.9204 C   0  0  0  0  0  0
  -23.6240   -8.2168   22.0746 C   0  0  0  0  0  0
  -22.4231   -8.0227   21.3529 C   0  0  0  0  0  0
  -21.9859   -9.0205   20.4628 C   0  0  0  0  0  0
  -22.7169  -10.2079   20.3063 C   0  0  0  0  0  0
  -21.6826   -6.0698   22.5284 C   0  0  0  0  0  0
  -21.3991   -6.5610   23.8212 C   0  0  0  0  0  0
  -21.3672   -5.6767   24.9185 C   0  0  0  0  0  0
  -21.6070   -4.3038   24.7240 C   0  0  0  0  0  0
  -21.8824   -3.8117   23.4361 C   0  0  0  0  0  0
  -21.9176   -4.6930   22.3406 C   0  0  0  0  0  0
  -22.7739  -13.5149   21.1893 C   0  0  0  0  0  0
  -22.1638   -4.2124   21.0980 F   0  0  0  0  0  0
  -21.5657   -3.4522   25.7753 F   0  0  0  0  0  0
  -30.0317  -13.4068   20.3527 N   0  0  0  0  0  0
  -26.2877  -12.9148   20.3513 N   0  0  0  0  0  0
  -25.9221  -11.6356   20.5944 N   0  0  0  0  0  0
  -22.0347  -12.8178   22.0452 N   0  0  0  0  0  0
  -25.4011  -15.1786   20.4317 N   0  0  0  0  0  0
  -31.9738  -14.5437   20.3934 O   0  0  0  0  0  0
  -21.6582   -6.8842   21.4243 O   0  0  0  0  0  0
  -22.3478  -14.5477   20.6739 O   0  0  0  0  0  0
  -24.6113  -31.8709   23.2130 C   0  0  0  0  0  0
  -25.9019  -32.4846   23.8423 C   0  0  1  0  0  0
  -27.2286  -27.4452   20.1174 C   0  0  0  0  0  0
  -25.5883  -33.8635   24.2367 N   0  0  0  0  0  0
  -23.3987  -30.4931   21.5542 C   0  0  2  0  0  0
  -24.8478  -28.9577   20.1175 C   0  0  0  0  0  0
  -22.7388  -29.4663   22.5007 C   0  0  0  0  0  0
  -18.0283  -28.1371   22.8478 C   0  0  0  0  0  0
  -24.1471  -36.7329   23.2620 C   0  0  0  0  0  0
  -25.9250  -30.8362   21.3676 C   0  0  0  0  0  0
  -26.0011  -29.4676   20.7264 C   0  0  0  0  0  0
  -27.1940  -28.7128   20.7379 C   0  0  0  0  0  0
  -26.0717  -26.9576   19.4769 C   0  0  0  0  0  0
  -24.8751  -27.6969   19.4942 C   0  0  0  0  0  0
  -23.6091  -29.8223   20.1690 C   0  0  0  0  0  0
  -25.4092  -36.3140   24.0342 C   0  0  1  0  0  0
  -20.5851  -28.3674   23.1334 C   0  0  2  0  0  0
  -20.6777  -26.9461   22.5318 C   0  0  0  0  0  0
  -19.5772  -26.6545   21.5059 C   0  0  0  0  0  0
  -18.1961  -26.7966   22.1496 C   0  0  0  0  0  0
  -19.1513  -28.8830   23.2933 C   0  0  0  0  0  0
  -18.9448  -30.1427   23.8960 C   0  0  0  0  0  0
  -17.6457  -30.6575   24.0592 C   0  0  0  0  0  0
  -25.9020  -34.9490   23.5153 C   0  0  0  0  0  0
  -16.5346  -29.9087   23.6346 C   0  0  0  0  0  0
  -16.7273  -28.6516   23.0332 C   0  0  0  0  0  0
  -26.4471  -31.6608   25.0729 C   0  0  0  0  0  0
  -25.3725  -31.3708   26.1479 C   0  0  0  0  0  0
  -27.0306  -30.3045   24.6095 C   0  0  0  0  0  0
  -27.6075  -32.4298   25.7472 C   0  0  0  0  0  0
  -27.5594  -37.1828   24.8463 C   0  0  0  0  0  0
  -21.4108  -29.3087   22.3790 N   0  0  0  0  0  0
  -26.4296  -37.3818   23.9410 N   0  0  0  0  0  0
  -24.6636  -31.0797   22.1042 N   0  0  0  0  0  0
  -23.4175  -28.8161   23.3001 O   0  0  0  0  0  0
  -28.3873  -26.7129   20.0579 O   0  0  0  0  0  0
  -26.5571  -34.8908   22.4713 O   0  0  0  0  0  0
  -23.5306  -32.1476   23.7518 O   0  0  0  0  0  0
  -30.7521  -18.2830   19.5182 C   0  0  0  0  0  0
  -30.4717  -19.6303   19.7952 C   0  0  0  0  0  0
  -29.2425  -18.9345   21.7500 C   0  0  0  0  0  0
  -29.5339  -17.5636   21.4893 C   0  0  0  0  0  0
  -30.2191  -17.2090   20.2815 C   0  0  0  0  0  0
  -29.6570  -19.9673   20.8821 C   0  0  0  0  0  0
  -29.6206  -22.0678   21.8945 C   0  0  0  0  0  0
  -29.3382  -23.5654   22.0606 C   0  0  0  0  0  0
  -27.5755  -16.3712   22.7862 C   0  0  0  0  0  0
  -28.5344  -16.8311   23.8617 C   0  0  0  0  0  0
  -29.0436  -16.5183   22.4672 C   0  0  0  0  0  0
  -29.0843  -24.0362   19.5522 C   0  0  0  0  0  0
  -27.0455  -23.9833   21.0752 C   0  0  0  0  0  0
  -28.7051  -25.9143   21.2092 C   0  0  0  0  0  0
  -30.2383  -15.8655   19.5614 C   0  0  2  0  0  0
  -28.5415  -24.3685   20.9724 C   0  0  0  0  0  0
  -29.1962  -21.2842   20.9799 N   0  0  0  0  0  0
  -29.0703  -15.7794   18.6839 N   0  3  0  0  0  0
  -29.7353  -24.1474   23.0764 O   0  0  0  0  0  0
  -31.4609  -12.3797   19.1346 H   0  0  0  0  0  0
  -30.3101  -11.3559   19.9504 H   0  0  0  0  0  0
  -29.7282  -11.6021   17.5172 H   0  0  0  0  0  0
  -29.6616  -13.3279   17.6683 H   0  0  0  0  0  0
  -27.8267  -11.2442   18.8915 H   0  0  0  0  0  0
  -27.3452  -12.5037   17.7931 H   0  0  0  0  0  0
  -27.5427  -14.1857   19.4743 H   0  0  0  0  0  0
  -28.7125  -12.1649   21.4311 H   0  0  0  0  0  0
  -28.4855  -13.8533   21.7436 H   0  0  0  0  0  0
  -25.2696   -9.5614   22.4787 H   0  0  0  0  0  0
  -23.9963   -7.4557   22.7453 H   0  0  0  0  0  0
  -21.0800   -8.8705   19.8932 H   0  0  0  0  0  0
  -22.3624  -10.9627   19.6187 H   0  0  0  0  0  0
  -21.1946   -7.6112   23.9721 H   0  0  0  0  0  0
  -21.1508   -6.0483   25.9096 H   0  0  0  0  0  0
  -22.0592   -2.7580   23.2850 H   0  0  0  0  0  0
  -22.3903  -11.9835   22.4889 H   0  0  0  0  0  0
  -21.0988  -13.1265   22.2658 H   0  0  0  0  0  0
  -24.6111  -15.7968   20.5829 H   0  0  0  0  0  0
  -26.2667  -15.6845   20.3417 H   0  0  0  0  0  0
  -26.7073  -32.5582   23.1186 H   0  0  0  0  0  0
  -25.0062  -33.9813   25.0527 H   0  0  0  0  0  0
  -22.6873  -31.3092   21.4136 H   0  0  0  0  0  0
  -23.3729  -35.9673   23.3288 H   0  0  0  0  0  0
  -24.3548  -36.8914   22.2031 H   0  0  0  0  0  0
  -23.7234  -37.6530   23.6625 H   0  0  0  0  0  0
  -26.0302  -31.5965   20.5936 H   0  0  0  0  0  0
  -26.8157  -30.8967   21.9825 H   0  0  0  0  0  0
  -28.0825  -29.1092   21.2088 H   0  0  0  0  0  0
  -26.0942  -26.0149   18.9501 H   0  0  0  0  0  0
  -23.9961  -27.3010   19.0046 H   0  0  0  0  0  0
  -23.7115  -30.5960   19.4081 H   0  0  0  0  0  0
  -22.7373  -29.2365   19.8750 H   0  0  0  0  0  0
  -25.1281  -36.2026   25.0845 H   0  0  0  0  0  0
  -20.9947  -28.3194   24.1439 H   0  0  0  0  0  0
  -20.5686  -26.2242   23.3427 H   0  0  0  0  0  0
  -21.6653  -26.7586   22.1098 H   0  0  0  0  0  0
  -19.6982  -25.6558   21.0846 H   0  0  0  0  0  0
  -19.6641  -27.3483   20.6690 H   0  0  0  0  0  0
  -17.4276  -26.6808   21.3826 H   0  0  0  0  0  0
  -18.0366  -26.0005   22.8779 H   0  0  0  0  0  0
  -19.7922  -30.7254   24.2312 H   0  0  0  0  0  0
  -17.5016  -31.6251   24.5216 H   0  0  0  0  0  0
  -15.5347  -30.3002   23.7686 H   0  0  0  0  0  0
  -15.8666  -28.0893   22.6947 H   0  0  0  0  0  0
  -24.5908  -30.7063   25.7802 H   0  0  0  0  0  0
  -24.8913  -32.2844   26.4963 H   0  0  0  0  0  0
  -25.8065  -30.8855   27.0224 H   0  0  0  0  0  0
  -26.2880  -29.6789   24.1144 H   0  0  0  0  0  0
  -27.4048  -29.7313   25.4583 H   0  0  0  0  0  0
  -27.8710  -30.4334   23.9273 H   0  0  0  0  0  0
  -27.2757  -33.3582   26.2128 H   0  0  0  0  0  0
  -28.3855  -32.6866   25.0272 H   0  0  0  0  0  0
  -28.0783  -31.8360   26.5317 H   0  0  0  0  0  0
  -28.2652  -38.0098   24.7536 H   0  0  0  0  0  0
  -28.1058  -36.2640   24.6288 H   0  0  0  0  0  0
  -27.2298  -37.1490   25.8859 H   0  0  0  0  0  0
  -20.9243  -29.8905   21.7111 H   0  0  0  0  0  0
  -26.0183  -38.2888   24.1427 H   0  0  0  0  0  0
  -31.3006  -18.0874   18.6077 H   0  0  0  0  0  0
  -30.8223  -20.3957   19.1135 H   0  0  0  0  0  0
  -28.6234  -19.2030   22.5913 H   0  0  0  0  0  0
  -30.2843  -21.6550   22.6611 H   0  0  0  0  0  0
  -26.8902  -17.1093   22.3736 H   0  0  0  0  0  0
  -27.1628  -15.3721   22.9025 H   0  0  0  0  0  0
  -28.7719  -16.1135   24.6448 H   0  0  0  0  0  0
  -28.4540  -17.8590   24.2060 H   0  0  0  0  0  0
  -29.6819  -15.6428   22.4614 H   0  0  0  0  0  0
  -28.7093  -23.0834   19.1819 H   0  0  0  0  0  0
  -30.1747  -23.9913   19.5357 H   0  0  0  0  0  0
  -28.7819  -24.7644   18.8017 H   0  0  0  0  0  0
  -26.9039  -22.9051   21.1580 H   0  0  0  0  0  0
  -26.4888  -24.2903   20.1948 H   0  0  0  0  0  0
  -26.5668  -24.4369   21.9450 H   0  0  0  0  0  0
  -28.1431  -26.2364   22.0893 H   0  0  0  0  0  0
  -29.7472  -26.1464   21.4352 H   0  0  0  0  0  0
  -31.0182  -15.9430   18.8016 H   0  0  0  0  0  0
  -28.2541  -15.5382   19.2078 H   0  0  0  0  0  0
  -29.2272  -15.1135   17.9487 H   0  0  0  0  0  0
  -28.9176  -16.6780   18.2615 H   0  0  0  0  0  0
  1 25  1  0  0  0
  1 30  2  0  0  0
  1 85  1  0  0  0
  2  3  1  0  0  0
  2 25  1  0  0  0
  2 90  1  0  0  0
  2 91  1  0  0  0
  3  4  1  0  0  0
  3 92  1  0  0  0
  3 93  1  0  0  0
  4  5  1  0  0  0
  4 94  1  0  0  0
  4 95  1  0  0  0
  5  6  1  0  0  0
  5 26  1  0  0  0
  5 96  1  0  0  0
  6 25  1  0  0  0
  6 97  1  0  0  0
  6 98  1  0  0  0
  7  8  2  0  0  0
  7 26  1  0  0  0
  7 29  1  0  0  0
  8  9  1  0  0  0
  8 22  1  0  0  0
  9 10  1  0  0  0
  9 27  2  0  0  0
 10 11  2  0  0  0
 10 15  1  0  0  0
 11 12  1  0  0  0
 11 99  1  0  0  0
 12 13  2  0  0  0
 12100  1  0  0  0
 13 14  1  0  0  0
 13 31  1  0  0  0
 14 15  2  0  0  0
 14101  1  0  0  0
 15102  1  0  0  0
 16 17  2  0  0  0
 16 21  1  0  0  0
 16 31  1  0  0  0
 17 18  1  0  0  0
 17103  1  0  0  0
 18 19  2  0  0  0
 18104  1  0  0  0
 19 20  1  0  0  0
 19 24  1  0  0  0
 20 21  2  0  0  0
 20105  1  0  0  0
 21 23  1  0  0  0
 22 28  1  0  0  0
 22 32  2  0  0  0
 26 27  1  0  0  0
 28106  1  0  0  0
 28107  1  0  0  0
 29108  1  0  0  0
 29109  1  0  0  0
 33 34  1  0  0  0
 33 66  1  0  0  0
 33 70  2  0  0  0
 34 36  1  0  0  0
 34 59  1  0  0  0
 34110  1  0  0  0
 35 44  2  0  0  0
 35 45  1  0  0  0
 35 68  1  0  0  0
 36 56  1  0  0  0
 36111  1  0  0  0
 37 39  1  0  0  0
 37 47  1  0  0  0
 37 66  1  0  0  0
 37112  1  0  0  0
 38 43  2  0  0  0
 38 46  1  0  0  0
 38 47  1  0  0  0
 39 64  1  0  0  0
 39 67  2  0  0  0
 40 52  1  0  0  0
 40 53  2  0  0  0
 40 58  1  0  0  0
 41113  1  0  0  0
 41114  1  0  0  0
 41115  1  0  0  0
 41 48  1  0  0  0
 42 43  1  0  0  0
 42 66  1  0  0  0
 42116  1  0  0  0
 42117  1  0  0  0
 43 44  1  0  0  0
 44118  1  0  0  0
 45 46  2  0  0  0
 45119  1  0  0  0
 46120  1  0  0  0
 47121  1  0  0  0
 47122  1  0  0  0
 48 56  1  0  0  0
 48 65  1  0  0  0
 48123  1  0  0  0
 49 50  1  0  0  0
 49 53  1  0  0  0
 49 64  1  0  0  0
 49124  1  0  0  0
 50 51  1  0  0  0
 50125  1  0  0  0
 50126  1  0  0  0
 51 52  1  0  0  0
 51127  1  0  0  0
 51128  1  0  0  0
 52129  1  0  0  0
 52130  1  0  0  0
 53 54  1  0  0  0
 54 55  2  0  0  0
 54131  1  0  0  0
 55 57  1  0  0  0
 55132  1  0  0  0
 56 69  2  0  0  0
 57 58  2  0  0  0
 57133  1  0  0  0
 58134  1  0  0  0
 59 60  1  0  0  0
 59 61  1  0  0  0
 59 62  1  0  0  0
 60135  1  0  0  0
 60136  1  0  0  0
 60137  1  0  0  0
 61138  1  0  0  0
 61139  1  0  0  0
 61140  1  0  0  0
 62141  1  0  0  0
 62142  1  0  0  0
 62143  1  0  0  0
 63 65  1  0  0  0
 63144  1  0  0  0
 63145  1  0  0  0
 63146  1  0  0  0
 64147  1  0  0  0
 65148  1  0  0  0
 68 84  1  0  0  0
 71 72  2  0  0  0
 71 75  1  0  0  0
 71149  1  0  0  0
 72 76  1  0  0  0
 72150  1  0  0  0
 73 74  1  0  0  0
 73 76  2  0  0  0
 73151  1  0  0  0
 74 75  2  0  0  0
 74 81  1  0  0  0
 75 85  1  0  0  0
 76 87  1  0  0  0
 77 78  1  0  0  0
 77 87  2  0  0  0
 77152  1  0  0  0
 78 86  1  0  0  0
 78 89  2  0  0  0
 79 80  1  0  0  0
 79 81  1  0  0  0
 79153  1  0  0  0
 79154  1  0  0  0
 80 81  1  0  0  0
 80155  1  0  0  0
 80156  1  0  0  0
 81157  1  0  0  0
 82158  1  0  0  0
 82159  1  0  0  0
 82160  1  0  0  0
 82 86  1  0  0  0
 83 86  1  0  0  0
 83161  1  0  0  0
 83162  1  0  0  0
 83163  1  0  0  0
 84 86  1  0  0  0
 84164  1  0  0  0
 84165  1  0  0  0
 85 88  1  0  0  0
 85166  1  0  0  0
 88167  1  0  0  0
 88168  1  0  0  0
 88169  1  0  0  0
M  CHG  1  88   1
M  ISO  4   1 100  68 101  84 101  85 100
M  END
> <chiral flag>
0

> <version>
0

> <s_m_source_file>
/data/baiqing/PycharmProjects/Reinvent-master-3.2/result/LINK_invent/BTK/process_docking_weight1_custom_product_contain_oxygen_bond_distance_aromatic_linkinvent_7_9_3/rearranged_h_0147.sdf

> <i_m_source_file_index>
92

> <r_mmod_Potential_Energy-OPLS-2005>
60.3904647827148

> <r_mmod_Stretch_Energy-OPLS-2005>
52.781192779541

> <r_mmod_Bend_Energy-OPLS-2005>
178.670349121094

> <r_mmod_Torsional_Energy-OPLS-2005>
344.913909912109

> <r_mmod_Improper_Torsional_Energy-OPLS-2005>
20.8269596099854

> <r_mmod_Van_der_Waal_Energy-OPLS-2005>
158.128005981445

> <r_mmod_Electrostatic_Energy-OPLS-2005>
-263.511779785156

> <r_mmod_Solvation_Energy-OPLS-2005>
-486.105255126953

> <b_mmod_Minimization_Converged-OPLS-2005>
0

> <r_mmod_RMS_Derivative-OPLS-2005>
3.47220277786255

$$$$
93
                    3D
 Structure written by MMmdl.
163171  0  0  1  0            999 V2000
  -30.6733  -14.5336   20.5123 C   0  0  0  0  0  0
  -30.4286  -12.3299   19.4371 C   0  0  0  0  0  0
  -29.5003  -12.4907   18.2106 C   0  0  0  0  0  0
  -28.0206  -12.3511   18.6237 C   0  0  0  0  0  0
  -27.6605  -13.2120   19.8622 C   0  0  2  0  0  0
  -28.7017  -13.0362   20.9936 C   0  0  0  0  0  0
  -25.2581  -13.8171   20.5628 C   0  0  0  0  0  0
  -24.1815  -13.0470   20.9137 C   0  0  0  0  0  0
  -24.6337  -11.6932   20.8702 C   0  0  0  0  0  0
  -23.9006  -10.4332   21.0383 C   0  0  0  0  0  0
  -24.3596   -9.4258   21.9157 C   0  0  0  0  0  0
  -23.6288   -8.2278   22.0743 C   0  0  0  0  0  0
  -22.4267   -8.0297   21.3539 C   0  0  0  0  0  0
  -21.9880   -9.0259   20.4638 C   0  0  0  0  0  0
  -22.7190  -10.2149   20.3036 C   0  0  0  0  0  0
  -21.6862   -6.0731   22.5256 C   0  0  0  0  0  0
  -21.4029   -6.5634   23.8195 C   0  0  0  0  0  0
  -21.3646   -5.6786   24.9156 C   0  0  0  0  0  0
  -21.6040   -4.3049   24.7210 C   0  0  0  0  0  0
  -21.8825   -3.8143   23.4329 C   0  0  0  0  0  0
  -21.9188   -4.6960   22.3384 C   0  0  0  0  0  0
  -22.7821  -13.5284   21.1810 C   0  0  0  0  0  0
  -22.1660   -4.2153   21.0958 F   0  0  0  0  0  0
  -21.5633   -3.4528   25.7720 F   0  0  0  0  0  0
  -30.0307  -13.3350   20.4383 N   0  0  0  0  0  0
  -26.3015  -12.9346   20.3298 N   0  0  0  0  0  0
  -25.9299  -11.6496   20.5726 N   0  0  0  0  0  0
  -22.0439  -12.8300   22.0369 N   0  0  0  0  0  0
  -25.4384  -15.1883   20.4027 N   0  0  0  0  0  0
  -31.8281  -14.6826   20.0942 O   0  0  0  0  0  0
  -21.6647   -6.8870   21.4217 O   0  0  0  0  0  0
  -22.3497  -14.5566   20.6636 O   0  0  0  0  0  0
  -24.6108  -31.8710   23.2141 C   0  0  0  0  0  0
  -25.9005  -32.4848   23.8434 C   0  0  1  0  0  0
  -27.2032  -27.4110   20.1270 C   0  0  0  0  0  0
  -25.5856  -33.8664   24.2319 N   0  0  0  0  0  0
  -23.4000  -30.4999   21.5482 C   0  0  2  0  0  0
  -24.8516  -28.9795   20.0934 C   0  0  0  0  0  0
  -22.7379  -29.4694   22.4927 C   0  0  0  0  0  0
  -18.0298  -28.1388   22.8524 C   0  0  0  0  0  0
  -24.1479  -36.7350   23.2629 C   0  0  0  0  0  0
  -25.9308  -30.8281   21.3786 C   0  0  0  0  0  0
  -26.0068  -29.4632   20.7233 C   0  0  0  0  0  0
  -27.1876  -28.6838   20.7480 C   0  0  0  0  0  0
  -26.0647  -26.9951   19.4071 C   0  0  0  0  0  0
  -24.8797  -27.7487   19.4198 C   0  0  0  0  0  0
  -23.6115  -29.8424   20.1564 C   0  0  0  0  0  0
  -25.4106  -36.3147   24.0326 C   0  0  1  0  0  0
  -20.5890  -28.3687   23.1310 C   0  0  2  0  0  0
  -20.6777  -26.9418   22.5418 C   0  0  0  0  0  0
  -19.5743  -26.6400   21.5220 C   0  0  0  0  0  0
  -18.1928  -26.7939   22.1649 C   0  0  0  0  0  0
  -19.1539  -28.8852   23.2934 C   0  0  0  0  0  0
  -18.9485  -30.1458   23.8941 C   0  0  0  0  0  0
  -17.6479  -30.6598   24.0601 C   0  0  0  0  0  0
  -25.9033  -34.9514   23.5133 C   0  0  0  0  0  0
  -16.5373  -29.9116   23.6341 C   0  0  0  0  0  0
  -16.7279  -28.6542   23.0360 C   0  0  0  0  0  0
  -26.4438  -31.6633   25.0763 C   0  0  0  0  0  0
  -25.3694  -31.3765   26.1508 C   0  0  0  0  0  0
  -27.0268  -30.3064   24.6177 C   0  0  0  0  0  0
  -27.6037  -32.4334   25.7485 C   0  0  0  0  0  0
  -27.5593  -37.1827   24.8456 C   0  0  0  0  0  0
  -21.4106  -29.3064   22.3678 N   0  0  0  0  0  0
  -26.4288  -37.3836   23.9415 N   0  0  0  0  0  0
  -24.6645  -31.0807   22.1039 N   0  0  0  0  0  0
  -23.4154  -28.8204   23.2940 O   0  0  0  0  0  0
  -28.3026  -26.5741   20.2010 O   0  0  0  0  0  0
  -26.5635  -34.8958   22.4706 O   0  0  0  0  0  0
  -23.5303  -32.1462   23.7535 O   0  0  0  0  0  0
  -29.4744  -18.0448   21.0738 C   0  0  0  0  0  0
  -30.3549  -17.1413   18.9981 C   0  0  0  0  0  0
  -29.8768  -19.5327   19.1841 C   0  0  0  0  0  0
  -29.9494  -16.9235   20.3369 C   0  0  0  0  0  0
  -29.4356  -19.3541   20.5148 C   0  0  0  0  0  0
  -30.3244  -18.4293   18.4310 C   0  0  0  0  0  0
  -28.5694  -22.7155   20.2468 C   0  0  0  0  0  0
  -30.8950  -21.9538   21.1034 C   0  0  0  0  0  0
  -28.8541  -25.5474   22.2788 C   0  0  0  0  0  0
  -26.7244  -24.8229   21.2507 C   0  0  0  0  0  0
  -28.9209  -24.2232   20.0596 C   0  0  0  0  0  0
  -29.3653  -21.8194   21.2427 C   0  0  2  0  0  0
  -28.1704  -25.2994   20.9224 C   0  0  0  0  0  0
  -29.9348  -15.5961   20.9103 N   0  0  0  0  0  0
  -28.9010  -20.4132   21.2850 N   0  0  0  0  0  0
  -27.6313  -22.2476   19.5922 O   0  0  0  0  0  0
  -30.7153  -18.6019   17.1423 F   0  0  0  0  0  0
  -31.4749  -12.4259   19.1374 H   0  0  0  0  0  0
  -30.3403  -11.3272   19.8594 H   0  0  0  0  0  0
  -29.7501  -11.7444   17.4559 H   0  0  0  0  0  0
  -29.6620  -13.4637   17.7389 H   0  0  0  0  0  0
  -27.8293  -11.2972   18.8354 H   0  0  0  0  0  0
  -27.3725  -12.6116   17.7846 H   0  0  0  0  0  0
  -27.6964  -14.2509   19.5301 H   0  0  0  0  0  0
  -28.6843  -12.0176   21.3856 H   0  0  0  0  0  0
  -28.4672  -13.6803   21.8417 H   0  0  0  0  0  0
  -25.2753   -9.5775   22.4711 H   0  0  0  0  0  0
  -24.0033   -7.4672   22.7459 H   0  0  0  0  0  0
  -21.0811   -8.8758   19.8931 H   0  0  0  0  0  0
  -22.3645  -10.9668   19.6151 H   0  0  0  0  0  0
  -21.2058   -7.6142   23.9708 H   0  0  0  0  0  0
  -21.1438   -6.0503   25.9054 H   0  0  0  0  0  0
  -22.0617   -2.7615   23.2806 H   0  0  0  0  0  0
  -22.4050  -12.0032   22.4896 H   0  0  0  0  0  0
  -21.1017  -13.1312   22.2472 H   0  0  0  0  0  0
  -24.6882  -15.8603   20.5162 H   0  0  0  0  0  0
  -26.3072  -15.6109   20.1031 H   0  0  0  0  0  0
  -26.7057  -32.5543   23.1190 H   0  0  0  0  0  0
  -24.9947  -33.9846   25.0423 H   0  0  0  0  0  0
  -22.6882  -31.3177   21.4130 H   0  0  0  0  0  0
  -23.3760  -35.9663   23.3291 H   0  0  0  0  0  0
  -24.3552  -36.8994   22.2046 H   0  0  0  0  0  0
  -23.7224  -37.6538   23.6669 H   0  0  0  0  0  0
  -26.0481  -31.5941   20.6110 H   0  0  0  0  0  0
  -26.8167  -30.8808   21.9998 H   0  0  0  0  0  0
  -28.0665  -29.0339   21.2732 H   0  0  0  0  0  0
  -26.0832  -26.0659   18.8568 H   0  0  0  0  0  0
  -24.0082  -27.3958   18.8856 H   0  0  0  0  0  0
  -23.7009  -30.6221   19.3975 H   0  0  0  0  0  0
  -22.7386  -29.2557   19.8649 H   0  0  0  0  0  0
  -25.1266  -36.2011   25.0817 H   0  0  0  0  0  0
  -21.0050  -28.3288   24.1404 H   0  0  0  0  0  0
  -20.5699  -26.2290   23.3610 H   0  0  0  0  0  0
  -21.6646  -26.7451   22.1198 H   0  0  0  0  0  0
  -19.6893  -25.6317   21.1239 H   0  0  0  0  0  0
  -19.6666  -27.3228   20.6760 H   0  0  0  0  0  0
  -17.4189  -26.6729   21.4060 H   0  0  0  0  0  0
  -18.0325  -26.0056   22.9017 H   0  0  0  0  0  0
  -19.7955  -30.7284   24.2294 H   0  0  0  0  0  0
  -17.5048  -31.6280   24.5200 H   0  0  0  0  0  0
  -15.5383  -30.3049   23.7627 H   0  0  0  0  0  0
  -15.8684  -28.0882   22.7029 H   0  0  0  0  0  0
  -24.5839  -30.7130   25.7860 H   0  0  0  0  0  0
  -24.8898  -32.2933   26.4962 H   0  0  0  0  0  0
  -25.8030  -30.8924   27.0270 H   0  0  0  0  0  0
  -26.2841  -29.6822   24.1196 H   0  0  0  0  0  0
  -27.3978  -29.7305   25.4666 H   0  0  0  0  0  0
  -27.8698  -30.4367   23.9389 H   0  0  0  0  0  0
  -27.2707  -33.3650   26.2068 H   0  0  0  0  0  0
  -28.3822  -32.6868   25.0279 H   0  0  0  0  0  0
  -28.0721  -31.8449   26.5379 H   0  0  0  0  0  0
  -28.2599  -38.0143   24.7557 H   0  0  0  0  0  0
  -28.1096  -36.2688   24.6193 H   0  0  0  0  0  0
  -27.2310  -37.1380   25.8854 H   0  0  0  0  0  0
  -20.9220  -29.8813   21.6951 H   0  0  0  0  0  0
  -26.0184  -38.2896   24.1467 H   0  0  0  0  0  0
  -29.1356  -17.9057   22.0903 H   0  0  0  0  0  0
  -30.6834  -16.3199   18.3796 H   0  0  0  0  0  0
  -29.8382  -20.5024   18.7104 H   0  0  0  0  0  0
  -31.2285  -22.9190   21.4870 H   0  0  0  0  0  0
  -31.2383  -21.8748   20.0712 H   0  0  0  0  0  0
  -31.4150  -21.1953   21.6916 H   0  0  0  0  0  0
  -28.9028  -24.6369   22.8768 H   0  0  0  0  0  0
  -28.2934  -26.2798   22.8627 H   0  0  0  0  0  0
  -29.8697  -25.9259   22.1654 H   0  0  0  0  0  0
  -26.7330  -23.9453   21.8971 H   0  0  0  0  0  0
  -26.1715  -24.5259   20.3602 H   0  0  0  0  0  0
  -26.1440  -25.5754   21.7864 H   0  0  0  0  0  0
  -28.6793  -24.4374   19.0178 H   0  0  0  0  0  0
  -29.9992  -24.3643   20.1352 H   0  0  0  0  0  0
  -29.1233  -22.1998   22.2366 H   0  0  0  0  0  0
  -29.1421  -15.3836   21.4990 H   0  0  0  0  0  0
  -27.8847  -20.3691   21.3336 H   0  0  0  0  0  0
  1 25  1  0  0  0
  1 30  2  0  0  0
  1 84  1  0  0  0
  2  3  1  0  0  0
  2 25  1  0  0  0
  2 88  1  0  0  0
  2 89  1  0  0  0
  3  4  1  0  0  0
  3 90  1  0  0  0
  3 91  1  0  0  0
  4  5  1  0  0  0
  4 92  1  0  0  0
  4 93  1  0  0  0
  5  6  1  0  0  0
  5 26  1  0  0  0
  5 94  1  0  0  0
  6 25  1  0  0  0
  6 95  1  0  0  0
  6 96  1  0  0  0
  7  8  2  0  0  0
  7 26  1  0  0  0
  7 29  1  0  0  0
  8  9  1  0  0  0
  8 22  1  0  0  0
  9 10  1  0  0  0
  9 27  2  0  0  0
 10 11  2  0  0  0
 10 15  1  0  0  0
 11 12  1  0  0  0
 11 97  1  0  0  0
 12 13  2  0  0  0
 12 98  1  0  0  0
 13 14  1  0  0  0
 13 31  1  0  0  0
 14 15  2  0  0  0
 14 99  1  0  0  0
 15100  1  0  0  0
 16 17  2  0  0  0
 16 21  1  0  0  0
 16 31  1  0  0  0
 17 18  1  0  0  0
 17101  1  0  0  0
 18 19  2  0  0  0
 18102  1  0  0  0
 19 20  1  0  0  0
 19 24  1  0  0  0
 20 21  2  0  0  0
 20103  1  0  0  0
 21 23  1  0  0  0
 22 28  1  0  0  0
 22 32  2  0  0  0
 26 27  1  0  0  0
 28104  1  0  0  0
 28105  1  0  0  0
 29106  1  0  0  0
 29107  1  0  0  0
 33 34  1  0  0  0
 33 66  1  0  0  0
 33 70  2  0  0  0
 34 36  1  0  0  0
 34 59  1  0  0  0
 34108  1  0  0  0
 35 44  2  0  0  0
 35 45  1  0  0  0
 35 68  1  0  0  0
 36 56  1  0  0  0
 36109  1  0  0  0
 37 39  1  0  0  0
 37 47  1  0  0  0
 37 66  1  0  0  0
 37110  1  0  0  0
 38 43  2  0  0  0
 38 46  1  0  0  0
 38 47  1  0  0  0
 39 64  1  0  0  0
 39 67  2  0  0  0
 40 52  1  0  0  0
 40 53  2  0  0  0
 40 58  1  0  0  0
 41111  1  0  0  0
 41112  1  0  0  0
 41113  1  0  0  0
 41 48  1  0  0  0
 42 43  1  0  0  0
 42 66  1  0  0  0
 42114  1  0  0  0
 42115  1  0  0  0
 43 44  1  0  0  0
 44116  1  0  0  0
 45 46  2  0  0  0
 45117  1  0  0  0
 46118  1  0  0  0
 47119  1  0  0  0
 47120  1  0  0  0
 48 56  1  0  0  0
 48 65  1  0  0  0
 48121  1  0  0  0
 49 50  1  0  0  0
 49 53  1  0  0  0
 49 64  1  0  0  0
 49122  1  0  0  0
 50 51  1  0  0  0
 50123  1  0  0  0
 50124  1  0  0  0
 51 52  1  0  0  0
 51125  1  0  0  0
 51126  1  0  0  0
 52127  1  0  0  0
 52128  1  0  0  0
 53 54  1  0  0  0
 54 55  2  0  0  0
 54129  1  0  0  0
 55 57  1  0  0  0
 55130  1  0  0  0
 56 69  2  0  0  0
 57 58  2  0  0  0
 57131  1  0  0  0
 58132  1  0  0  0
 59 60  1  0  0  0
 59 61  1  0  0  0
 59 62  1  0  0  0
 60133  1  0  0  0
 60134  1  0  0  0
 60135  1  0  0  0
 61136  1  0  0  0
 61137  1  0  0  0
 61138  1  0  0  0
 62139  1  0  0  0
 62140  1  0  0  0
 62141  1  0  0  0
 63 65  1  0  0  0
 63142  1  0  0  0
 63143  1  0  0  0
 63144  1  0  0  0
 64145  1  0  0  0
 65146  1  0  0  0
 68 83  1  0  0  0
 71 74  2  0  0  0
 71 75  1  0  0  0
 71147  1  0  0  0
 72 74  1  0  0  0
 72 76  2  0  0  0
 72148  1  0  0  0
 73 75  2  0  0  0
 73 76  1  0  0  0
 73149  1  0  0  0
 74 84  1  0  0  0
 75 85  1  0  0  0
 76 87  1  0  0  0
 77 81  1  0  0  0
 77 82  1  0  0  0
 77 86  2  0  0  0
 78150  1  0  0  0
 78151  1  0  0  0
 78152  1  0  0  0
 78 82  1  0  0  0
 79153  1  0  0  0
 79154  1  0  0  0
 79155  1  0  0  0
 79 83  1  0  0  0
 80 83  1  0  0  0
 80156  1  0  0  0
 80157  1  0  0  0
 80158  1  0  0  0
 81 83  1  0  0  0
 81159  1  0  0  0
 81160  1  0  0  0
 82 85  1  0  0  0
 82161  1  0  0  0
 84162  1  0  0  0
 85163  1  0  0  0
M  ISO  4   1 100  68 101  83 101  84 100
M  END
> <chiral flag>
0

> <version>
0

> <s_m_source_file>
/data/baiqing/PycharmProjects/Reinvent-master-3.2/result/LINK_invent/BTK/process_docking_weight1_custom_product_contain_oxygen_bond_distance_aromatic_linkinvent_7_9_3/rearranged_h_0147.sdf

> <i_m_source_file_index>
93

> <r_mmod_Potential_Energy-OPLS-2005>
84.9139022827148

> <r_mmod_Stretch_Energy-OPLS-2005>
51.703311920166

> <r_mmod_Bend_Energy-OPLS-2005>
129.890075683594

> <r_mmod_Torsional_Energy-OPLS-2005>
266.655609130859

> <r_mmod_Improper_Torsional_Energy-OPLS-2005>
8.35546112060547

> <r_mmod_Van_der_Waal_Energy-OPLS-2005>
157.846328735352

> <r_mmod_Electrostatic_Energy-OPLS-2005>
-339.665161132812

> <r_mmod_Solvation_Energy-OPLS-2005>
-218.254989624023

> <b_mmod_Minimization_Converged-OPLS-2005>
0

> <r_mmod_RMS_Derivative-OPLS-2005>
5.03987979888916

$$$$
94
                    3D
 Structure written by MMmdl.
163172  0  0  1  0            999 V2000
  -30.6473  -14.6079   20.5184 C   0  0  0  0  0  0
  -30.4415  -12.3886   19.4374 C   0  0  0  0  0  0
  -29.5039  -12.5166   18.2151 C   0  0  0  0  0  0
  -28.0318  -12.3373   18.6386 C   0  0  0  0  0  0
  -27.6572  -13.1936   19.8768 C   0  0  2  0  0  0
  -28.7065  -13.0491   21.0019 C   0  0  0  0  0  0
  -25.2555  -13.8092   20.5671 C   0  0  0  0  0  0
  -24.1791  -13.0393   20.9162 C   0  0  0  0  0  0
  -24.6367  -11.6863   20.8754 C   0  0  0  0  0  0
  -23.9028  -10.4259   21.0410 C   0  0  0  0  0  0
  -24.3582   -9.4165   21.9175 C   0  0  0  0  0  0
  -23.6264   -8.2201   22.0754 C   0  0  0  0  0  0
  -22.4229   -8.0288   21.3553 C   0  0  0  0  0  0
  -21.9848   -9.0250   20.4652 C   0  0  0  0  0  0
  -22.7200  -10.2114   20.3059 C   0  0  0  0  0  0
  -21.6824   -6.0712   22.5255 C   0  0  0  0  0  0
  -21.4006   -6.5605   23.8196 C   0  0  0  0  0  0
  -21.3665   -5.6766   24.9168 C   0  0  0  0  0  0
  -21.6047   -4.3033   24.7207 C   0  0  0  0  0  0
  -21.8834   -3.8133   23.4323 C   0  0  0  0  0  0
  -21.9190   -4.6947   22.3392 C   0  0  0  0  0  0
  -22.7817  -13.5213   21.1837 C   0  0  0  0  0  0
  -22.1649   -4.2136   21.0965 F   0  0  0  0  0  0
  -21.5647   -3.4531   25.7713 F   0  0  0  0  0  0
  -30.0254  -13.3904   20.4396 N   0  0  0  0  0  0
  -26.2995  -12.9235   20.3407 N   0  0  0  0  0  0
  -25.9287  -11.6408   20.5789 N   0  0  0  0  0  0
  -22.0449  -12.8232   22.0402 N   0  0  0  0  0  0
  -25.4331  -15.1799   20.4025 N   0  0  0  0  0  0
  -31.7808  -14.7900   20.0623 O   0  0  0  0  0  0
  -21.6620   -6.8841   21.4210 O   0  0  0  0  0  0
  -22.3521  -14.5557   20.6726 O   0  0  0  0  0  0
  -24.6210  -31.8638   23.2058 C   0  0  0  0  0  0
  -25.9100  -32.4787   23.8352 C   0  0  1  0  0  0
  -27.2272  -27.3559   20.1251 C   0  0  0  0  0  0
  -25.5951  -33.8592   24.2310 N   0  0  0  0  0  0
  -23.4119  -30.4871   21.5470 C   0  0  2  0  0  0
  -24.8615  -28.9470   20.1140 C   0  0  0  0  0  0
  -22.7446  -29.4628   22.4943 C   0  0  0  0  0  0
  -18.0281  -28.1385   22.8446 C   0  0  0  0  0  0
  -24.1494  -36.7292   23.2619 C   0  0  0  0  0  0
  -25.9476  -30.8080   21.3684 C   0  0  0  0  0  0
  -26.0247  -29.4351   20.7210 C   0  0  0  0  0  0
  -27.2123  -28.6502   20.7188 C   0  0  0  0  0  0
  -26.0459  -26.9164   19.4836 C   0  0  0  0  0  0
  -24.8725  -27.6925   19.4844 C   0  0  0  0  0  0
  -23.6261  -29.8208   20.1611 C   0  0  0  0  0  0
  -25.4103  -36.3080   24.0331 C   0  0  1  0  0  0
  -20.5871  -28.3690   23.1293 C   0  0  2  0  0  0
  -20.6790  -26.9414   22.5425 C   0  0  0  0  0  0
  -19.5784  -26.6377   21.5207 C   0  0  0  0  0  0
  -18.1946  -26.7938   22.1581 C   0  0  0  0  0  0
  -19.1534  -28.8854   23.2867 C   0  0  0  0  0  0
  -18.9462  -30.1454   23.8886 C   0  0  0  0  0  0
  -17.6462  -30.6584   24.0561 C   0  0  0  0  0  0
  -25.9035  -34.9448   23.5110 C   0  0  0  0  0  0
  -16.5348  -29.9077   23.6320 C   0  0  0  0  0  0
  -16.7276  -28.6507   23.0319 C   0  0  0  0  0  0
  -26.4496  -31.6560   25.0683 C   0  0  0  0  0  0
  -25.3753  -31.3734   26.1428 C   0  0  0  0  0  0
  -27.0276  -30.2963   24.6086 C   0  0  0  0  0  0
  -27.6075  -32.4246   25.7469 C   0  0  0  0  0  0
  -27.5593  -37.1788   24.8439 C   0  0  0  0  0  0
  -21.4166  -29.3054   22.3699 N   0  0  0  0  0  0
  -26.4283  -37.3771   23.9420 N   0  0  0  0  0  0
  -24.6785  -31.0688   22.0988 N   0  0  0  0  0  0
  -23.4188  -28.8160   23.3000 O   0  0  0  0  0  0
  -28.3603  -26.5425   20.1560 O   0  0  0  0  0  0
  -26.5568  -34.8920   22.4642 O   0  0  0  0  0  0
  -23.5392  -32.1410   23.7427 O   0  0  0  0  0  0
  -28.3400  -18.2806   18.8779 C   0  0  0  0  0  0
  -29.0181  -19.4572   19.2474 C   0  0  0  0  0  0
  -28.6836  -17.0437   19.4505 C   0  0  0  0  0  0
  -30.3613  -18.1481   20.8184 C   0  0  0  0  0  0
  -30.0378  -19.4204   20.2217 C   0  0  0  0  0  0
  -29.7002  -16.9360   20.4230 C   0  0  0  0  0  0
  -30.8538  -20.6517   20.4795 C   0  0  0  0  0  0
  -30.6005  -24.3723   20.9512 C   0  0  0  0  0  0
  -31.4137  -23.0744   20.8241 C   0  0  0  0  0  0
  -29.0880  -22.6069   20.5210 C   0  0  0  0  0  0
  -29.3205  -24.1227   20.1440 C   0  0  2  0  0  0
  -29.5737  -24.2437   18.6226 C   0  0  0  0  0  0
  -28.1673  -25.1306   20.5246 C   0  0  0  0  0  0
  -30.4466  -21.9724   20.5751 N   0  0  0  0  0  0
  -29.9157  -15.6364   21.0308 N   0  0  0  0  0  0
  -32.1654  -20.4287   20.5773 N   0  3  0  0  0  0
  -31.4785  -12.5203   19.1256 H   0  0  0  0  0  0
  -30.3878  -11.3876   19.8643 H   0  0  0  0  0  0
  -29.7633  -11.7736   17.4579 H   0  0  0  0  0  0
  -29.6362  -13.4910   17.7418 H   0  0  0  0  0  0
  -27.8785  -11.2815   18.8603 H   0  0  0  0  0  0
  -27.3716  -12.5705   17.8015 H   0  0  0  0  0  0
  -27.6720  -14.2229   19.5410 H   0  0  0  0  0  0
  -28.7155  -12.0258   21.3816 H   0  0  0  0  0  0
  -28.4478  -13.6765   21.8573 H   0  0  0  0  0  0
  -25.2742   -9.5638   22.4741 H   0  0  0  0  0  0
  -23.9998   -7.4550   22.7437 H   0  0  0  0  0  0
  -21.0790   -8.8767   19.8925 H   0  0  0  0  0  0
  -22.3674  -10.9660   19.6167 H   0  0  0  0  0  0
  -21.1992   -7.6104   23.9692 H   0  0  0  0  0  0
  -21.1470   -6.0497   25.9069 H   0  0  0  0  0  0
  -22.0615   -2.7585   23.2837 H   0  0  0  0  0  0
  -22.4039  -11.9869   22.4769 H   0  0  0  0  0  0
  -21.1094  -13.1284   22.2648 H   0  0  0  0  0  0
  -24.6790  -15.8492   20.5170 H   0  0  0  0  0  0
  -26.2986  -15.6085   20.1078 H   0  0  0  0  0  0
  -26.7151  -32.5497   23.1101 H   0  0  0  0  0  0
  -25.0220  -33.9728   25.0535 H   0  0  0  0  0  0
  -22.7028  -31.3053   21.4055 H   0  0  0  0  0  0
  -23.3775  -35.9602   23.3224 H   0  0  0  0  0  0
  -24.3614  -36.8959   22.2048 H   0  0  0  0  0  0
  -23.7230  -37.6476   23.6660 H   0  0  0  0  0  0
  -26.0593  -31.5656   20.5910 H   0  0  0  0  0  0
  -26.8345  -30.8714   21.9854 H   0  0  0  0  0  0
  -28.1046  -29.0169   21.2050 H   0  0  0  0  0  0
  -26.0121  -25.9665   18.9689 H   0  0  0  0  0  0
  -23.9845  -27.3207   18.9916 H   0  0  0  0  0  0
  -23.7422  -30.5947   19.4013 H   0  0  0  0  0  0
  -22.7481  -29.2452   19.8607 H   0  0  0  0  0  0
  -25.1269  -36.1929   25.0821 H   0  0  0  0  0  0
  -20.9946  -28.3300   24.1423 H   0  0  0  0  0  0
  -20.5688  -26.2299   23.3629 H   0  0  0  0  0  0
  -21.6668  -26.7466   22.1245 H   0  0  0  0  0  0
  -19.6958  -25.6285   21.1255 H   0  0  0  0  0  0
  -19.6747  -27.3170   20.6728 H   0  0  0  0  0  0
  -17.4227  -26.6677   21.3976 H   0  0  0  0  0  0
  -18.0333  -26.0101   22.8993 H   0  0  0  0  0  0
  -19.7931  -30.7271   24.2268 H   0  0  0  0  0  0
  -17.5009  -31.6260   24.5167 H   0  0  0  0  0  0
  -15.5355  -30.2965   23.7661 H   0  0  0  0  0  0
  -15.8673  -28.0829   22.7020 H   0  0  0  0  0  0
  -24.6020  -30.6930   25.7845 H   0  0  0  0  0  0
  -24.8831  -32.2908   26.4666 H   0  0  0  0  0  0
  -25.8122  -30.9134   27.0299 H   0  0  0  0  0  0
  -26.2816  -29.6782   24.1081 H   0  0  0  0  0  0
  -27.3942  -29.7134   25.4546 H   0  0  0  0  0  0
  -27.8698  -30.4207   23.9276 H   0  0  0  0  0  0
  -27.2719  -33.3571   26.2013 H   0  0  0  0  0  0
  -28.3932  -32.6751   25.0330 H   0  0  0  0  0  0
  -28.0676  -31.8374   26.5430 H   0  0  0  0  0  0
  -28.2545  -38.0144   24.7535 H   0  0  0  0  0  0
  -28.1146  -36.2678   24.6161 H   0  0  0  0  0  0
  -27.2331  -37.1324   25.8842 H   0  0  0  0  0  0
  -20.9331  -29.8788   21.6926 H   0  0  0  0  0  0
  -26.0163  -38.2834   24.1461 H   0  0  0  0  0  0
  -27.5618  -18.3157   18.1284 H   0  0  0  0  0  0
  -28.7707  -20.3746   18.7355 H   0  0  0  0  0  0
  -28.1403  -16.1787   19.1145 H   0  0  0  0  0  0
  -31.1344  -18.0974   21.5733 H   0  0  0  0  0  0
  -31.1550  -25.2390   20.5895 H   0  0  0  0  0  0
  -30.3743  -24.5483   22.0057 H   0  0  0  0  0  0
  -32.0092  -22.9038   21.7239 H   0  0  0  0  0  0
  -32.1048  -23.1559   19.9813 H   0  0  0  0  0  0
  -28.4150  -22.1286   19.8119 H   0  0  0  0  0  0
  -28.6254  -22.5221   21.5078 H   0  0  0  0  0  0
  -30.3964  -23.6175   18.2785 H   0  0  0  0  0  0
  -29.8069  -25.2721   18.3451 H   0  0  0  0  0  0
  -28.6881  -23.9484   18.0578 H   0  0  0  0  0  0
  -28.0084  -25.0999   21.6047 H   0  0  0  0  0  0
  -27.2559  -24.7220   20.0946 H   0  0  0  0  0  0
  -29.0897  -15.2772   21.4858 H   0  0  0  0  0  0
  -32.5138  -19.5007   20.3861 H   0  0  0  0  0  0
  -32.8340  -21.1681   20.7077 H   0  0  0  0  0  0
  1 25  1  0  0  0
  1 30  2  0  0  0
  1 85  1  0  0  0
  2  3  1  0  0  0
  2 25  1  0  0  0
  2 87  1  0  0  0
  2 88  1  0  0  0
  3  4  1  0  0  0
  3 89  1  0  0  0
  3 90  1  0  0  0
  4  5  1  0  0  0
  4 91  1  0  0  0
  4 92  1  0  0  0
  5  6  1  0  0  0
  5 26  1  0  0  0
  5 93  1  0  0  0
  6 25  1  0  0  0
  6 94  1  0  0  0
  6 95  1  0  0  0
  7  8  2  0  0  0
  7 26  1  0  0  0
  7 29  1  0  0  0
  8  9  1  0  0  0
  8 22  1  0  0  0
  9 10  1  0  0  0
  9 27  2  0  0  0
 10 11  2  0  0  0
 10 15  1  0  0  0
 11 12  1  0  0  0
 11 96  1  0  0  0
 12 13  2  0  0  0
 12 97  1  0  0  0
 13 14  1  0  0  0
 13 31  1  0  0  0
 14 15  2  0  0  0
 14 98  1  0  0  0
 15 99  1  0  0  0
 16 17  2  0  0  0
 16 21  1  0  0  0
 16 31  1  0  0  0
 17 18  1  0  0  0
 17100  1  0  0  0
 18 19  2  0  0  0
 18101  1  0  0  0
 19 20  1  0  0  0
 19 24  1  0  0  0
 20 21  2  0  0  0
 20102  1  0  0  0
 21 23  1  0  0  0
 22 28  1  0  0  0
 22 32  2  0  0  0
 26 27  1  0  0  0
 28103  1  0  0  0
 28104  1  0  0  0
 29105  1  0  0  0
 29106  1  0  0  0
 33 34  1  0  0  0
 33 66  1  0  0  0
 33 70  2  0  0  0
 34 36  1  0  0  0
 34 59  1  0  0  0
 34107  1  0  0  0
 35 44  2  0  0  0
 35 45  1  0  0  0
 35 68  1  0  0  0
 36 56  1  0  0  0
 36108  1  0  0  0
 37 39  1  0  0  0
 37 47  1  0  0  0
 37 66  1  0  0  0
 37109  1  0  0  0
 38 43  2  0  0  0
 38 46  1  0  0  0
 38 47  1  0  0  0
 39 64  1  0  0  0
 39 67  2  0  0  0
 40 52  1  0  0  0
 40 53  2  0  0  0
 40 58  1  0  0  0
 41110  1  0  0  0
 41111  1  0  0  0
 41112  1  0  0  0
 41 48  1  0  0  0
 42 43  1  0  0  0
 42 66  1  0  0  0
 42113  1  0  0  0
 42114  1  0  0  0
 43 44  1  0  0  0
 44115  1  0  0  0
 45 46  2  0  0  0
 45116  1  0  0  0
 46117  1  0  0  0
 47118  1  0  0  0
 47119  1  0  0  0
 48 56  1  0  0  0
 48 65  1  0  0  0
 48120  1  0  0  0
 49 50  1  0  0  0
 49 53  1  0  0  0
 49 64  1  0  0  0
 49121  1  0  0  0
 50 51  1  0  0  0
 50122  1  0  0  0
 50123  1  0  0  0
 51 52  1  0  0  0
 51124  1  0  0  0
 51125  1  0  0  0
 52126  1  0  0  0
 52127  1  0  0  0
 53 54  1  0  0  0
 54 55  2  0  0  0
 54128  1  0  0  0
 55 57  1  0  0  0
 55129  1  0  0  0
 56 69  2  0  0  0
 57 58  2  0  0  0
 57130  1  0  0  0
 58131  1  0  0  0
 59 60  1  0  0  0
 59 61  1  0  0  0
 59 62  1  0  0  0
 60132  1  0  0  0
 60133  1  0  0  0
 60134  1  0  0  0
 61135  1  0  0  0
 61136  1  0  0  0
 61137  1  0  0  0
 62138  1  0  0  0
 62139  1  0  0  0
 62140  1  0  0  0
 63 65  1  0  0  0
 63141  1  0  0  0
 63142  1  0  0  0
 63143  1  0  0  0
 64144  1  0  0  0
 65145  1  0  0  0
 68 83  1  0  0  0
 71 72  2  0  0  0
 71 73  1  0  0  0
 71146  1  0  0  0
 72 75  1  0  0  0
 72147  1  0  0  0
 73 76  2  0  0  0
 73148  1  0  0  0
 74 75  2  0  0  0
 74 76  1  0  0  0
 74149  1  0  0  0
 75 77  1  0  0  0
 76 85  1  0  0  0
 77 84  1  0  0  0
 77 86  2  0  0  0
 78 79  1  0  0  0
 78 81  1  0  0  0
 78150  1  0  0  0
 78151  1  0  0  0
 79 84  1  0  0  0
 79152  1  0  0  0
 79153  1  0  0  0
 80 81  1  0  0  0
 80 84  1  0  0  0
 80154  1  0  0  0
 80155  1  0  0  0
 81 82  1  0  0  0
 81 83  1  0  0  0
 82156  1  0  0  0
 82157  1  0  0  0
 82158  1  0  0  0
 83159  1  0  0  0
 83160  1  0  0  0
 85161  1  0  0  0
 86162  1  0  0  0
 86163  1  0  0  0
M  CHG  1  86   1
M  ISO  4   1 100  68 101  83 101  85 100
M  END
> <chiral flag>
0

> <version>
0

> <s_m_source_file>
/data/baiqing/PycharmProjects/Reinvent-master-3.2/result/LINK_invent/BTK/process_docking_weight1_custom_product_contain_oxygen_bond_distance_aromatic_linkinvent_7_9_3/rearranged_h_0147.sdf

> <i_m_source_file_index>
94

> <r_mmod_Potential_Energy-OPLS-2005>
-38.9489936828613

> <r_mmod_Stretch_Energy-OPLS-2005>
67.9067687988281

> <r_mmod_Bend_Energy-OPLS-2005>
165.703414916992

> <r_mmod_Torsional_Energy-OPLS-2005>
327.254302978516

> <r_mmod_Improper_Torsional_Energy-OPLS-2005>
7.21761178970337

> <r_mmod_Van_der_Waal_Energy-OPLS-2005>
147.691268920898

> <r_mmod_Electrostatic_Energy-OPLS-2005>
-386.386871337891

> <r_mmod_Solvation_Energy-OPLS-2005>
-404.357543945312

> <b_mmod_Minimization_Converged-OPLS-2005>
0

> <r_mmod_RMS_Derivative-OPLS-2005>
3.96800708770752

$$$$
95
                    3D
 Structure written by MMmdl.
160169  0  0  1  0            999 V2000
  -30.6332  -14.7384   20.4606 C   0  0  0  0  0  0
  -30.4189  -12.4525   19.4699 C   0  0  0  0  0  0
  -29.4976  -12.5083   18.2315 C   0  0  0  0  0  0
  -28.0234  -12.3507   18.6447 C   0  0  0  0  0  0
  -27.6399  -13.2360   19.8601 C   0  0  2  0  0  0
  -28.6881  -13.1620   20.9922 C   0  0  0  0  0  0
  -25.2492  -13.8216   20.5699 C   0  0  0  0  0  0
  -24.1786  -13.0435   20.9216 C   0  0  0  0  0  0
  -24.6385  -11.6933   20.8778 C   0  0  0  0  0  0
  -23.9062  -10.4307   21.0428 C   0  0  0  0  0  0
  -24.3622   -9.4217   21.9188 C   0  0  0  0  0  0
  -23.6298   -8.2248   22.0756 C   0  0  0  0  0  0
  -22.4286   -8.0287   21.3533 C   0  0  0  0  0  0
  -21.9922   -9.0262   20.4636 C   0  0  0  0  0  0
  -22.7253  -10.2144   20.3057 C   0  0  0  0  0  0
  -21.6856   -6.0752   22.5272 C   0  0  0  0  0  0
  -21.4008   -6.5647   23.8204 C   0  0  0  0  0  0
  -21.3656   -5.6795   24.9175 C   0  0  0  0  0  0
  -21.6042   -4.3052   24.7230 C   0  0  0  0  0  0
  -21.8823   -3.8159   23.4334 C   0  0  0  0  0  0
  -21.9191   -4.6981   22.3395 C   0  0  0  0  0  0
  -22.7813  -13.5234   21.1892 C   0  0  0  0  0  0
  -22.1667   -4.2146   21.0965 F   0  0  0  0  0  0
  -21.5633   -3.4545   25.7751 F   0  0  0  0  0  0
  -29.9840  -13.5212   20.4012 N   0  0  0  0  0  0
  -26.2915  -12.9413   20.3351 N   0  0  0  0  0  0
  -25.9306  -11.6559   20.5799 N   0  0  0  0  0  0
  -22.0471  -12.8164   22.0433 N   0  0  0  0  0  0
  -25.4179  -15.1912   20.4079 N   0  0  0  0  0  0
  -31.8178  -14.7835   20.1189 O   0  0  0  0  0  0
  -21.6641   -6.8887   21.4225 O   0  0  0  0  0  0
  -22.3487  -14.5562   20.6808 O   0  0  0  0  0  0
  -24.6282  -31.8591   23.1974 C   0  0  0  0  0  0
  -25.9120  -32.4777   23.8293 C   0  0  1  0  0  0
  -27.2225  -27.2707   20.1026 C   0  0  0  0  0  0
  -25.5883  -33.8571   24.2186 N   0  0  0  0  0  0
  -23.4204  -30.4827   21.5476 C   0  0  2  0  0  0
  -24.8697  -28.9302   20.1114 C   0  0  0  0  0  0
  -22.7483  -29.4612   22.4970 C   0  0  0  0  0  0
  -18.0306  -28.1409   22.8522 C   0  0  0  0  0  0
  -24.1491  -36.7304   23.2633 C   0  0  0  0  0  0
  -25.9678  -30.7654   21.3838 C   0  0  0  0  0  0
  -26.0432  -29.3888   20.7266 C   0  0  0  0  0  0
  -27.2200  -28.5705   20.7143 C   0  0  0  0  0  0
  -26.0257  -26.8819   19.4603 C   0  0  0  0  0  0
  -24.8678  -27.6839   19.4680 C   0  0  0  0  0  0
  -23.6348  -29.8123   20.1665 C   0  0  0  0  0  0
  -25.4127  -36.3094   24.0298 C   0  0  1  0  0  0
  -20.5892  -28.3712   23.1317 C   0  0  2  0  0  0
  -20.6783  -26.9449   22.5437 C   0  0  0  0  0  0
  -19.5735  -26.6399   21.5279 C   0  0  0  0  0  0
  -18.1911  -26.7955   22.1676 C   0  0  0  0  0  0
  -19.1566  -28.8897   23.2874 C   0  0  0  0  0  0
  -18.9494  -30.1511   23.8875 C   0  0  0  0  0  0
  -17.6488  -30.6615   24.0641 C   0  0  0  0  0  0
  -25.9056  -34.9448   23.5058 C   0  0  0  0  0  0
  -16.5364  -29.9124   23.6372 C   0  0  0  0  0  0
  -16.7308  -28.6554   23.0358 C   0  0  0  0  0  0
  -26.4438  -31.6622   25.0717 C   0  0  0  0  0  0
  -25.3593  -31.3877   26.1417 C   0  0  0  0  0  0
  -27.0303  -30.3024   24.6246 C   0  0  0  0  0  0
  -27.5943  -32.4425   25.7508 C   0  0  0  0  0  0
  -27.5587  -37.1786   24.8441 C   0  0  0  0  0  0
  -21.4205  -29.3068   22.3746 N   0  0  0  0  0  0
  -26.4300  -37.3797   23.9381 N   0  0  0  0  0  0
  -24.6899  -31.0545   22.0983 N   0  0  0  0  0  0
  -23.4227  -28.8140   23.3033 O   0  0  0  0  0  0
  -28.3390  -26.3973   20.0905 O   0  0  0  0  0  0
  -26.5730  -34.8955   22.4690 O   0  0  0  0  0  0
  -23.5437  -32.1417   23.7291 O   0  0  0  0  0  0
  -32.1930  -18.9706   20.9180 C   0  0  0  0  0  0
  -31.3373  -20.0638   20.7102 C   0  0  0  0  0  0
  -31.7144  -17.6459   20.8856 C   0  0  0  0  0  0
  -29.4842  -18.5020   20.4257 C   0  0  0  0  0  0
  -29.9690  -19.8829   20.4287 C   0  0  0  0  0  0
  -30.3460  -17.3401   20.6546 C   0  0  0  0  0  0
  -29.2450  -21.1391   19.9233 C   0  0  0  0  0  0
  -30.9681  -23.7399   21.5426 C   0  0  0  0  0  0
  -30.6607  -24.2881   20.1274 C   0  0  0  0  0  0
  -29.8669  -22.6950   21.8123 C   0  0  0  0  0  0
  -29.2309  -23.8110   19.7960 C   0  0  2  0  0  0
  -28.1435  -24.9144   20.2952 C   0  0  0  0  0  0
  -29.2828  -22.4286   20.4814 N   0  0  0  0  0  0
  -29.9032  -15.9067   20.6680 N   0  0  0  0  0  0
  -28.6460  -20.9875   18.7455 N   0  3  0  0  0  0
  -31.4621  -12.5613   19.1635 H   0  0  0  0  0  0
  -30.3525  -11.4770   19.9500 H   0  0  0  0  0  0
  -29.7680  -11.7200   17.5257 H   0  0  0  0  0  0
  -29.6314  -13.4536   17.7022 H   0  0  0  0  0  0
  -27.8577  -11.2997   18.8801 H   0  0  0  0  0  0
  -27.3715  -12.5794   17.8002 H   0  0  0  0  0  0
  -27.6391  -14.2636   19.4959 H   0  0  0  0  0  0
  -28.7236  -12.1589   21.4232 H   0  0  0  0  0  0
  -28.4305  -13.8365   21.8119 H   0  0  0  0  0  0
  -25.2770   -9.5688   22.4767 H   0  0  0  0  0  0
  -24.0020   -7.4632   22.7461 H   0  0  0  0  0  0
  -21.0879   -8.8788   19.8916 H   0  0  0  0  0  0
  -22.3724  -10.9698   19.6179 H   0  0  0  0  0  0
  -21.1994   -7.6154   23.9706 H   0  0  0  0  0  0
  -21.1469   -6.0529   25.9066 H   0  0  0  0  0  0
  -22.0600   -2.7612   23.2845 H   0  0  0  0  0  0
  -22.4155  -11.9810   22.4741 H   0  0  0  0  0  0
  -21.1067  -13.1116   22.2694 H   0  0  0  0  0  0
  -24.6499  -15.8459   20.5092 H   0  0  0  0  0  0
  -26.2564  -15.6222   20.0387 H   0  0  0  0  0  0
  -26.7164  -32.5410   23.1019 H   0  0  0  0  0  0
  -24.9902  -33.9655   25.0237 H   0  0  0  0  0  0
  -22.7170  -31.3071   21.4078 H   0  0  0  0  0  0
  -23.3737  -35.9638   23.3294 H   0  0  0  0  0  0
  -24.3547  -36.8999   22.2044 H   0  0  0  0  0  0
  -23.7241  -37.6483   23.6722 H   0  0  0  0  0  0
  -26.1150  -31.5246   20.6133 H   0  0  0  0  0  0
  -26.8375  -30.8068   22.0250 H   0  0  0  0  0  0
  -28.1126  -28.9190   21.2159 H   0  0  0  0  0  0
  -25.9587  -25.9488   18.9195 H   0  0  0  0  0  0
  -23.9779  -27.3430   18.9560 H   0  0  0  0  0  0
  -23.7393  -30.5901   19.4064 H   0  0  0  0  0  0
  -22.7469  -29.2430   19.8811 H   0  0  0  0  0  0
  -25.1291  -36.1956   25.0787 H   0  0  0  0  0  0
  -20.9969  -28.3356   24.1452 H   0  0  0  0  0  0
  -20.5848  -26.2318   23.3650 H   0  0  0  0  0  0
  -21.6611  -26.7587   22.1137 H   0  0  0  0  0  0
  -19.6907  -25.6330   21.1295 H   0  0  0  0  0  0
  -19.6666  -27.3237   20.6840 H   0  0  0  0  0  0
  -17.4212  -26.6828   21.4053 H   0  0  0  0  0  0
  -18.0234  -26.0079   22.9041 H   0  0  0  0  0  0
  -19.7982  -30.7345   24.2179 H   0  0  0  0  0  0
  -17.5069  -31.6300   24.5248 H   0  0  0  0  0  0
  -15.5375  -30.3035   23.7683 H   0  0  0  0  0  0
  -15.8708  -28.0922   22.6984 H   0  0  0  0  0  0
  -24.5704  -30.7346   25.7707 H   0  0  0  0  0  0
  -24.8851  -32.3124   26.4749 H   0  0  0  0  0  0
  -25.7772  -30.9075   27.0275 H   0  0  0  0  0  0
  -26.2958  -29.6769   24.1179 H   0  0  0  0  0  0
  -27.3873  -29.7314   25.4805 H   0  0  0  0  0  0
  -27.8860  -30.4256   23.9595 H   0  0  0  0  0  0
  -27.2507  -33.3773   26.1964 H   0  0  0  0  0  0
  -28.3800  -32.6948   25.0374 H   0  0  0  0  0  0
  -28.0551  -31.8665   26.5555 H   0  0  0  0  0  0
  -28.2545  -38.0139   24.7540 H   0  0  0  0  0  0
  -28.1162  -36.2661   24.6219 H   0  0  0  0  0  0
  -27.2302  -37.1354   25.8846 H   0  0  0  0  0  0
  -20.9416  -29.8820   21.6963 H   0  0  0  0  0  0
  -26.0201  -38.2883   24.1409 H   0  0  0  0  0  0
  -33.2482  -19.1447   21.0768 H   0  0  0  0  0  0
  -31.7631  -21.0576   20.6905 H   0  0  0  0  0  0
  -32.4468  -16.8685   21.0403 H   0  0  0  0  0  0
  -28.4406  -18.3438   20.1972 H   0  0  0  0  0  0
  -30.9279  -24.5326   22.2932 H   0  0  0  0  0  0
  -31.9693  -23.3020   21.5970 H   0  0  0  0  0  0
  -31.3632  -23.8579   19.4071 H   0  0  0  0  0  0
  -30.7687  -25.3712   20.0661 H   0  0  0  0  0  0
  -29.0936  -23.1446   22.4368 H   0  0  0  0  0  0
  -30.2189  -21.8190   22.3572 H   0  0  0  0  0  0
  -29.1483  -23.7118   18.7109 H   0  0  0  0  0  0
  -27.9766  -24.7844   21.3643 H   0  0  0  0  0  0
  -27.2088  -24.5946   19.8407 H   0  0  0  0  0  0
  -28.9182  -15.7559   20.8307 H   0  0  0  0  0  0
  -28.6865  -20.0794   18.3012 H   0  0  0  0  0  0
  -28.2805  -21.7582   18.2098 H   0  0  0  0  0  0
  1 25  1  0  0  0
  1 30  2  0  0  0
  1 84  1  0  0  0
  2  3  1  0  0  0
  2 25  1  0  0  0
  2 86  1  0  0  0
  2 87  1  0  0  0
  3  4  1  0  0  0
  3 88  1  0  0  0
  3 89  1  0  0  0
  4  5  1  0  0  0
  4 90  1  0  0  0
  4 91  1  0  0  0
  5  6  1  0  0  0
  5 26  1  0  0  0
  5 92  1  0  0  0
  6 25  1  0  0  0
  6 93  1  0  0  0
  6 94  1  0  0  0
  7  8  2  0  0  0
  7 26  1  0  0  0
  7 29  1  0  0  0
  8  9  1  0  0  0
  8 22  1  0  0  0
  9 10  1  0  0  0
  9 27  2  0  0  0
 10 11  2  0  0  0
 10 15  1  0  0  0
 11 12  1  0  0  0
 11 95  1  0  0  0
 12 13  2  0  0  0
 12 96  1  0  0  0
 13 14  1  0  0  0
 13 31  1  0  0  0
 14 15  2  0  0  0
 14 97  1  0  0  0
 15 98  1  0  0  0
 16 17  2  0  0  0
 16 21  1  0  0  0
 16 31  1  0  0  0
 17 18  1  0  0  0
 17 99  1  0  0  0
 18 19  2  0  0  0
 18100  1  0  0  0
 19 20  1  0  0  0
 19 24  1  0  0  0
 20 21  2  0  0  0
 20101  1  0  0  0
 21 23  1  0  0  0
 22 28  1  0  0  0
 22 32  2  0  0  0
 26 27  1  0  0  0
 28102  1  0  0  0
 28103  1  0  0  0
 29104  1  0  0  0
 29105  1  0  0  0
 33 34  1  0  0  0
 33 66  1  0  0  0
 33 70  2  0  0  0
 34 36  1  0  0  0
 34 59  1  0  0  0
 34106  1  0  0  0
 35 44  2  0  0  0
 35 45  1  0  0  0
 35 68  1  0  0  0
 36 56  1  0  0  0
 36107  1  0  0  0
 37 39  1  0  0  0
 37 47  1  0  0  0
 37 66  1  0  0  0
 37108  1  0  0  0
 38 43  2  0  0  0
 38 46  1  0  0  0
 38 47  1  0  0  0
 39 64  1  0  0  0
 39 67  2  0  0  0
 40 52  1  0  0  0
 40 53  2  0  0  0
 40 58  1  0  0  0
 41109  1  0  0  0
 41110  1  0  0  0
 41111  1  0  0  0
 41 48  1  0  0  0
 42 43  1  0  0  0
 42 66  1  0  0  0
 42112  1  0  0  0
 42113  1  0  0  0
 43 44  1  0  0  0
 44114  1  0  0  0
 45 46  2  0  0  0
 45115  1  0  0  0
 46116  1  0  0  0
 47117  1  0  0  0
 47118  1  0  0  0
 48 56  1  0  0  0
 48 65  1  0  0  0
 48119  1  0  0  0
 49 50  1  0  0  0
 49 53  1  0  0  0
 49 64  1  0  0  0
 49120  1  0  0  0
 50 51  1  0  0  0
 50121  1  0  0  0
 50122  1  0  0  0
 51 52  1  0  0  0
 51123  1  0  0  0
 51124  1  0  0  0
 52125  1  0  0  0
 52126  1  0  0  0
 53 54  1  0  0  0
 54 55  2  0  0  0
 54127  1  0  0  0
 55 57  1  0  0  0
 55128  1  0  0  0
 56 69  2  0  0  0
 57 58  2  0  0  0
 57129  1  0  0  0
 58130  1  0  0  0
 59 60  1  0  0  0
 59 61  1  0  0  0
 59 62  1  0  0  0
 60131  1  0  0  0
 60132  1  0  0  0
 60133  1  0  0  0
 61134  1  0  0  0
 61135  1  0  0  0
 61136  1  0  0  0
 62137  1  0  0  0
 62138  1  0  0  0
 62139  1  0  0  0
 63 65  1  0  0  0
 63140  1  0  0  0
 63141  1  0  0  0
 63142  1  0  0  0
 64143  1  0  0  0
 65144  1  0  0  0
 68 82  1  0  0  0
 71 72  2  0  0  0
 71 73  1  0  0  0
 71145  1  0  0  0
 72 75  1  0  0  0
 72146  1  0  0  0
 73 76  2  0  0  0
 73147  1  0  0  0
 74 75  2  0  0  0
 74 76  1  0  0  0
 74148  1  0  0  0
 75 77  1  0  0  0
 76 84  1  0  0  0
 77 83  1  0  0  0
 77 85  2  0  0  0
 78 79  1  0  0  0
 78 80  1  0  0  0
 78149  1  0  0  0
 78150  1  0  0  0
 79 81  1  0  0  0
 79151  1  0  0  0
 79152  1  0  0  0
 80 83  1  0  0  0
 80153  1  0  0  0
 80154  1  0  0  0
 81 82  1  0  0  0
 81 83  1  0  0  0
 81155  1  0  0  0
 82156  1  0  0  0
 82157  1  0  0  0
 84158  1  0  0  0
 85159  1  0  0  0
 85160  1  0  0  0
M  CHG  1  85   1
M  ISO  4   1 100  68 101  82 101  84 100
M  END
> <chiral flag>
0

> <version>
0

> <s_m_source_file>
/data/baiqing/PycharmProjects/Reinvent-master-3.2/result/LINK_invent/BTK/process_docking_weight1_custom_product_contain_oxygen_bond_distance_aromatic_linkinvent_7_9_3/rearranged_h_0147.sdf

> <i_m_source_file_index>
95

> <r_mmod_Potential_Energy-OPLS-2005>
117.320953369141

> <r_mmod_Stretch_Energy-OPLS-2005>
135.058670043945

> <r_mmod_Bend_Energy-OPLS-2005>
215.199920654297

> <r_mmod_Torsional_Energy-OPLS-2005>
319.899597167969

> <r_mmod_Improper_Torsional_Energy-OPLS-2005>
10.0083341598511

> <r_mmod_Van_der_Waal_Energy-OPLS-2005>
147.88346862793

> <r_mmod_Electrostatic_Energy-OPLS-2005>
-386.624816894531

> <r_mmod_Solvation_Energy-OPLS-2005>
-400.719085693359

> <b_mmod_Minimization_Converged-OPLS-2005>
0

> <r_mmod_RMS_Derivative-OPLS-2005>
6.51278972625732

$$$$
96
                    3D
 Structure written by MMmdl.
157166  0  0  1  0            999 V2000
  -30.6362  -14.5848   20.5087 C   0  0  0  0  0  0
  -30.4366  -12.3577   19.4444 C   0  0  0  0  0  0
  -29.5064  -12.4992   18.2192 C   0  0  0  0  0  0
  -28.0275  -12.3447   18.6288 C   0  0  0  0  0  0
  -27.6555  -13.2086   19.8640 C   0  0  2  0  0  0
  -28.6986  -13.0391   20.9923 C   0  0  0  0  0  0
  -25.2571  -13.8167   20.5672 C   0  0  0  0  0  0
  -24.1829  -13.0441   20.9176 C   0  0  0  0  0  0
  -24.6386  -11.6908   20.8725 C   0  0  0  0  0  0
  -23.9054  -10.4294   21.0404 C   0  0  0  0  0  0
  -24.3611   -9.4213   21.9186 C   0  0  0  0  0  0
  -23.6292   -8.2245   22.0754 C   0  0  0  0  0  0
  -22.4274   -8.0282   21.3543 C   0  0  0  0  0  0
  -21.9901   -9.0257   20.4645 C   0  0  0  0  0  0
  -22.7228  -10.2136   20.3058 C   0  0  0  0  0  0
  -21.6851   -6.0738   22.5282 C   0  0  0  0  0  0
  -21.4013   -6.5638   23.8218 C   0  0  0  0  0  0
  -21.3659   -5.6789   24.9178 C   0  0  0  0  0  0
  -21.6045   -4.3053   24.7226 C   0  0  0  0  0  0
  -21.8819   -3.8146   23.4348 C   0  0  0  0  0  0
  -21.9192   -4.6964   22.3403 C   0  0  0  0  0  0
  -22.7857  -13.5247   21.1846 C   0  0  0  0  0  0
  -22.1659   -4.2154   21.0981 F   0  0  0  0  0  0
  -21.5631   -3.4536   25.7739 F   0  0  0  0  0  0
  -30.0205  -13.3674   20.4341 N   0  0  0  0  0  0
  -26.2993  -12.9331   20.3305 N   0  0  0  0  0  0
  -25.9310  -11.6489   20.5740 N   0  0  0  0  0  0
  -22.0494  -12.8248   22.0406 N   0  0  0  0  0  0
  -25.4300  -15.1889   20.4093 N   0  0  0  0  0  0
  -31.7954  -14.7549   20.1194 O   0  0  0  0  0  0
  -21.6635   -6.8882   21.4244 O   0  0  0  0  0  0
  -22.3547  -14.5563   20.6703 O   0  0  0  0  0  0
  -24.6199  -31.8637   23.2037 C   0  0  0  0  0  0
  -25.9068  -32.4796   23.8357 C   0  0  1  0  0  0
  -27.2337  -27.3752   20.1152 C   0  0  0  0  0  0
  -25.5913  -33.8593   24.2295 N   0  0  0  0  0  0
  -23.4114  -30.4835   21.5449 C   0  0  2  0  0  0
  -24.8607  -28.9357   20.1184 C   0  0  0  0  0  0
  -22.7446  -29.4631   22.4962 C   0  0  0  0  0  0
  -18.0280  -28.1374   22.8490 C   0  0  0  0  0  0
  -24.1490  -36.7307   23.2637 C   0  0  0  0  0  0
  -25.9447  -30.8104   21.3659 C   0  0  0  0  0  0
  -26.0237  -29.4376   20.7182 C   0  0  0  0  0  0
  -27.2161  -28.6663   20.7093 C   0  0  0  0  0  0
  -26.0551  -26.8994   19.5098 C   0  0  0  0  0  0
  -24.8740  -27.6685   19.5100 C   0  0  0  0  0  0
  -23.6254  -29.8105   20.1624 C   0  0  0  0  0  0
  -25.4109  -36.3097   24.0335 C   0  0  1  0  0  0
  -20.5874  -28.3668   23.1302 C   0  0  2  0  0  0
  -20.6765  -26.9392   22.5418 C   0  0  0  0  0  0
  -19.5749  -26.6377   21.5207 C   0  0  0  0  0  0
  -18.1928  -26.7919   22.1624 C   0  0  0  0  0  0
  -19.1530  -28.8836   23.2895 C   0  0  0  0  0  0
  -18.9458  -30.1444   23.8904 C   0  0  0  0  0  0
  -17.6458  -30.6580   24.0563 C   0  0  0  0  0  0
  -25.9041  -34.9463   23.5115 C   0  0  0  0  0  0
  -16.5349  -29.9080   23.6324 C   0  0  0  0  0  0
  -16.7267  -28.6498   23.0343 C   0  0  0  0  0  0
  -26.4475  -31.6591   25.0707 C   0  0  0  0  0  0
  -25.3726  -31.3732   26.1456 C   0  0  0  0  0  0
  -27.0291  -30.3019   24.6105 C   0  0  0  0  0  0
  -27.6053  -32.4304   25.7472 C   0  0  0  0  0  0
  -27.5583  -37.1803   24.8463 C   0  0  0  0  0  0
  -21.4166  -29.3033   22.3709 N   0  0  0  0  0  0
  -26.4293  -37.3786   23.9412 N   0  0  0  0  0  0
  -24.6769  -31.0686   22.0960 N   0  0  0  0  0  0
  -23.4193  -28.8174   23.3026 O   0  0  0  0  0  0
  -28.3748  -26.5880   20.0699 O   0  0  0  0  0  0
  -26.5602  -34.8933   22.4679 O   0  0  0  0  0  0
  -23.5379  -32.1420   23.7392 O   0  0  0  0  0  0
  -31.0561  -17.7629   20.4133 C   0  0  0  0  0  0
  -30.7942  -19.1786   20.2997 C   0  0  0  0  0  0
  -29.4628  -19.5212   20.4366 C   0  0  0  0  0  0
  -29.9523  -16.9816   20.6827 C   0  0  0  0  0  0
  -31.8426  -20.1239   19.9567 C   0  0  0  0  0  0
  -28.6538  -20.7914   20.2429 C   0  0  0  0  0  0
  -29.3076  -23.1650   19.7672 C   0  0  0  0  0  0
  -28.2298  -22.8613   21.5395 C   0  0  0  0  0  0
  -28.2306  -24.0024   20.4974 C   0  0  0  0  0  0
  -32.1710  -21.1723   21.0097 C   0  0  0  0  0  0
  -28.4516  -25.4733   21.0023 C   0  0  0  0  0  0
  -29.1311  -22.0427   20.7119 N   0  0  0  0  0  0
  -29.8240  -15.6200   20.8673 N   0  0  0  0  0  0
  -32.5193  -20.0793   18.9268 O   0  0  0  0  0  0
  -27.5249  -20.7214   19.7539 O   0  0  0  0  0  0
  -28.5476  -18.0473   20.7717 S   0  0  0  0  0  0
  -31.4787  -12.4785   19.1428 H   0  0  0  0  0  0
  -30.3626  -11.3573   19.8735 H   0  0  0  0  0  0
  -29.7624  -11.7549   17.4637 H   0  0  0  0  0  0
  -29.6596  -13.4737   17.7523 H   0  0  0  0  0  0
  -27.8558  -11.2902   18.8508 H   0  0  0  0  0  0
  -27.3781  -12.5873   17.7869 H   0  0  0  0  0  0
  -27.6823  -14.2468   19.5332 H   0  0  0  0  0  0
  -28.6953  -12.0130   21.3618 H   0  0  0  0  0  0
  -28.4502  -13.6626   21.8532 H   0  0  0  0  0  0
  -25.2760   -9.5692   22.4759 H   0  0  0  0  0  0
  -24.0007   -7.4633   22.7469 H   0  0  0  0  0  0
  -21.0835   -8.8774   19.8950 H   0  0  0  0  0  0
  -22.3690  -10.9676   19.6165 H   0  0  0  0  0  0
  -21.2004   -7.6145   23.9721 H   0  0  0  0  0  0
  -21.1478   -6.0520   25.9082 H   0  0  0  0  0  0
  -22.0596   -2.7607   23.2851 H   0  0  0  0  0  0
  -22.4091  -11.9905   22.4803 H   0  0  0  0  0  0
  -21.1120  -13.1287   22.2607 H   0  0  0  0  0  0
  -24.6639  -15.8445   20.5221 H   0  0  0  0  0  0
  -26.2773  -15.6281   20.0734 H   0  0  0  0  0  0
  -26.7134  -32.5494   23.1113 H   0  0  0  0  0  0
  -25.0055  -33.9743   25.0433 H   0  0  0  0  0  0
  -22.7014  -31.3000   21.3990 H   0  0  0  0  0  0
  -23.3750  -35.9643   23.3301 H   0  0  0  0  0  0
  -24.3584  -36.8921   22.2052 H   0  0  0  0  0  0
  -23.7244  -37.6511   23.6650 H   0  0  0  0  0  0
  -26.0605  -31.5708   20.5922 H   0  0  0  0  0  0
  -26.8299  -30.8678   21.9876 H   0  0  0  0  0  0
  -28.1159  -29.0509   21.1683 H   0  0  0  0  0  0
  -26.0509  -25.9272   19.0378 H   0  0  0  0  0  0
  -23.9819  -27.2770   19.0409 H   0  0  0  0  0  0
  -23.7409  -30.5817   19.4005 H   0  0  0  0  0  0
  -22.7480  -29.2335   19.8641 H   0  0  0  0  0  0
  -25.1280  -36.1955   25.0824 H   0  0  0  0  0  0
  -20.9958  -28.3240   24.1426 H   0  0  0  0  0  0
  -20.5645  -26.2274   23.3612 H   0  0  0  0  0  0
  -21.6639  -26.7422   22.1217 H   0  0  0  0  0  0
  -19.6913  -25.6288   21.1233 H   0  0  0  0  0  0
  -19.6690  -27.3190   20.6738 H   0  0  0  0  0  0
  -17.4192  -26.6663   21.4031 H   0  0  0  0  0  0
  -18.0342  -26.0052   22.9013 H   0  0  0  0  0  0
  -19.7935  -30.7260   24.2269 H   0  0  0  0  0  0
  -17.5014  -31.6257   24.5164 H   0  0  0  0  0  0
  -15.5350  -30.2983   23.7636 H   0  0  0  0  0  0
  -15.8674  -28.0820   22.7045 H   0  0  0  0  0  0
  -24.5875  -30.7104   25.7801 H   0  0  0  0  0  0
  -24.8953  -32.2904   26.4916 H   0  0  0  0  0  0
  -25.8070  -30.8891   27.0209 H   0  0  0  0  0  0
  -26.2843  -29.6793   24.1134 H   0  0  0  0  0  0
  -27.4012  -29.7248   25.4578 H   0  0  0  0  0  0
  -27.8702  -30.4315   23.9290 H   0  0  0  0  0  0
  -27.2671  -33.3588   26.2087 H   0  0  0  0  0  0
  -28.3845  -32.6884   25.0288 H   0  0  0  0  0  0
  -28.0730  -31.8398   26.5360 H   0  0  0  0  0  0
  -28.2596  -38.0103   24.7505 H   0  0  0  0  0  0
  -28.1082  -36.2634   24.6282 H   0  0  0  0  0  0
  -27.2308  -37.1447   25.8868 H   0  0  0  0  0  0
  -20.9336  -29.8777   21.6940 H   0  0  0  0  0  0
  -26.0183  -38.2866   24.1406 H   0  0  0  0  0  0
  -32.0591  -17.3765   20.2887 H   0  0  0  0  0  0
  -30.3022  -23.6078   19.8378 H   0  0  0  0  0  0
  -29.0515  -22.9376   18.7300 H   0  0  0  0  0  0
  -27.2404  -22.4381   21.7270 H   0  0  0  0  0  0
  -28.7077  -23.1476   22.4778 H   0  0  0  0  0  0
  -27.2994  -23.9385   19.9324 H   0  0  0  0  0  0
  -31.5101  -21.0827   21.8720 H   0  0  0  0  0  0
  -32.0682  -22.1724   20.5927 H   0  0  0  0  0  0
  -33.1982  -21.0430   21.3481 H   0  0  0  0  0  0
  -29.4412  -25.5350   21.4553 H   0  0  0  0  0  0
  -27.7661  -25.6672   21.8297 H   0  0  0  0  0  0
  -28.9104  -15.3165   21.1688 H   0  0  0  0  0  0
  1 25  1  0  0  0
  1 30  2  0  0  0
  1 83  1  0  0  0
  2  3  1  0  0  0
  2 25  1  0  0  0
  2 87  1  0  0  0
  2 88  1  0  0  0
  3  4  1  0  0  0
  3 89  1  0  0  0
  3 90  1  0  0  0
  4  5  1  0  0  0
  4 91  1  0  0  0
  4 92  1  0  0  0
  5  6  1  0  0  0
  5 26  1  0  0  0
  5 93  1  0  0  0
  6 25  1  0  0  0
  6 94  1  0  0  0
  6 95  1  0  0  0
  7  8  2  0  0  0
  7 26  1  0  0  0
  7 29  1  0  0  0
  8  9  1  0  0  0
  8 22  1  0  0  0
  9 10  1  0  0  0
  9 27  2  0  0  0
 10 11  2  0  0  0
 10 15  1  0  0  0
 11 12  1  0  0  0
 11 96  1  0  0  0
 12 13  2  0  0  0
 12 97  1  0  0  0
 13 14  1  0  0  0
 13 31  1  0  0  0
 14 15  2  0  0  0
 14 98  1  0  0  0
 15 99  1  0  0  0
 16 17  2  0  0  0
 16 21  1  0  0  0
 16 31  1  0  0  0
 17 18  1  0  0  0
 17100  1  0  0  0
 18 19  2  0  0  0
 18101  1  0  0  0
 19 20  1  0  0  0
 19 24  1  0  0  0
 20 21  2  0  0  0
 20102  1  0  0  0
 21 23  1  0  0  0
 22 28  1  0  0  0
 22 32  2  0  0  0
 26 27  1  0  0  0
 28103  1  0  0  0
 28104  1  0  0  0
 29105  1  0  0  0
 29106  1  0  0  0
 33 34  1  0  0  0
 33 66  1  0  0  0
 33 70  2  0  0  0
 34 36  1  0  0  0
 34 59  1  0  0  0
 34107  1  0  0  0
 35 44  2  0  0  0
 35 45  1  0  0  0
 35 68  1  0  0  0
 36 56  1  0  0  0
 36108  1  0  0  0
 37 39  1  0  0  0
 37 47  1  0  0  0
 37 66  1  0  0  0
 37109  1  0  0  0
 38 43  2  0  0  0
 38 46  1  0  0  0
 38 47  1  0  0  0
 39 64  1  0  0  0
 39 67  2  0  0  0
 40 52  1  0  0  0
 40 53  2  0  0  0
 40 58  1  0  0  0
 41110  1  0  0  0
 41111  1  0  0  0
 41112  1  0  0  0
 41 48  1  0  0  0
 42 43  1  0  0  0
 42 66  1  0  0  0
 42113  1  0  0  0
 42114  1  0  0  0
 43 44  1  0  0  0
 44115  1  0  0  0
 45 46  2  0  0  0
 45116  1  0  0  0
 46117  1  0  0  0
 47118  1  0  0  0
 47119  1  0  0  0
 48 56  1  0  0  0
 48 65  1  0  0  0
 48120  1  0  0  0
 49 50  1  0  0  0
 49 53  1  0  0  0
 49 64  1  0  0  0
 49121  1  0  0  0
 50 51  1  0  0  0
 50122  1  0  0  0
 50123  1  0  0  0
 51 52  1  0  0  0
 51124  1  0  0  0
 51125  1  0  0  0
 52126  1  0  0  0
 52127  1  0  0  0
 53 54  1  0  0  0
 54 55  2  0  0  0
 54128  1  0  0  0
 55 57  1  0  0  0
 55129  1  0  0  0
 56 69  2  0  0  0
 57 58  2  0  0  0
 57130  1  0  0  0
 58131  1  0  0  0
 59 60  1  0  0  0
 59 61  1  0  0  0
 59 62  1  0  0  0
 60132  1  0  0  0
 60133  1  0  0  0
 60134  1  0  0  0
 61135  1  0  0  0
 61136  1  0  0  0
 61137  1  0  0  0
 62138  1  0  0  0
 62139  1  0  0  0
 62140  1  0  0  0
 63 65  1  0  0  0
 63141  1  0  0  0
 63142  1  0  0  0
 63143  1  0  0  0
 64144  1  0  0  0
 65145  1  0  0  0
 68 81  1  0  0  0
 71 72  1  0  0  0
 71 74  2  0  0  0
 71146  1  0  0  0
 72 73  2  0  0  0
 72 75  1  0  0  0
 73 76  1  0  0  0
 73 86  1  0  0  0
 74 83  1  0  0  0
 74 86  1  0  0  0
 75 80  1  0  0  0
 75 84  2  0  0  0
 76 82  1  0  0  0
 76 85  2  0  0  0
 77 79  1  0  0  0
 77 82  1  0  0  0
 77147  1  0  0  0
 77148  1  0  0  0
 78 79  1  0  0  0
 78 82  1  0  0  0
 78149  1  0  0  0
 78150  1  0  0  0
 79 81  1  0  0  0
 79151  1  0  0  0
 80152  1  0  0  0
 80153  1  0  0  0
 80154  1  0  0  0
 81155  1  0  0  0
 81156  1  0  0  0
 83157  1  0  0  0
M  ISO  4   1 100  68 101  81 101  83 100
M  END
> <chiral flag>
0

> <version>
0

> <s_m_source_file>
/data/baiqing/PycharmProjects/Reinvent-master-3.2/result/LINK_invent/BTK/process_docking_weight1_custom_product_contain_oxygen_bond_distance_aromatic_linkinvent_7_9_3/rearranged_h_0147.sdf

> <i_m_source_file_index>
96

> <r_mmod_Potential_Energy-OPLS-2005>
-25.3748569488525

> <r_mmod_Stretch_Energy-OPLS-2005>
53.5428466796875

> <r_mmod_Bend_Energy-OPLS-2005>
133.212280273438

> <r_mmod_Torsional_Energy-OPLS-2005>
344.366882324219

> <r_mmod_Improper_Torsional_Energy-OPLS-2005>
13.7390518188477

> <r_mmod_Van_der_Waal_Energy-OPLS-2005>
117.053314208984

> <r_mmod_Electrostatic_Energy-OPLS-2005>
-484.909942626953

> <r_mmod_Solvation_Energy-OPLS-2005>
-231.204010009766

> <b_mmod_Minimization_Converged-OPLS-2005>
0

> <r_mmod_RMS_Derivative-OPLS-2005>
1.46597111225128

$$$$
